
     RDKit          3D

 31 31  0  0  0  0  0  0  0  0999 V2000
   10.5628    0.3792   25.3858 O   0  0  0  0  0  0  0  0  0  0  0  0
    9.3803    0.3630   24.9546 C   0  0  0  0  0  0  0  0  0  0  0  0
    8.4359    0.7460   25.6945 O   0  0  0  0  0  0  0  0  0  0  0  0
    9.0906   -0.1226   23.5352 C   0  0  0  0  0  0  0  0  0  0  0  0
    9.8420    0.2882   22.5331 C   0  0  0  0  0  0  0  0  0  0  0  0
    7.9888   -1.0353   23.2900 N   0  0  0  0  0  0  0  0  0  0  0  0
    7.6437   -1.2963   22.1167 C   0  0  0  0  0  0  0  0  0  0  0  0
    6.4843   -2.2556   21.8560 C   0  0  0  0  0  0  0  0  0  0  0  0
    5.5435   -2.4579   22.8113 C   0  0  0  0  0  0  0  0  0  0  0  0
    5.6331   -1.7871   24.0381 O   0  0  0  0  0  0  0  0  0  0  0  0
    4.4925   -3.3282   22.5745 C   0  0  0  0  0  0  0  0  0  0  0  0
    3.4331   -3.5563   23.6500 C   0  0  0  0  0  0  0  0  0  0  0  0
    4.4044   -3.9764   21.3911 N   0  0  0  0  0  0  0  0  0  0  0  0
    5.3423   -3.7763   20.4367 C   0  0  0  0  0  0  0  0  0  0  0  0
    6.3952   -2.9057   20.6705 C   0  0  0  0  0  0  0  0  0  0  0  0
    7.4537   -2.6795   19.5909 C   0  0  0  0  0  0  0  0  0  0  0  0
    8.6472   -3.3012   19.9710 O   0  0  0  0  0  0  0  0  0  0  0  0
    9.1101   -4.6672   19.1714 P   0  0  1  0  0  0  0  0  0  0  0  0
   10.5919   -4.8841   19.3641 O   0  0  0  0  0  0  0  0  0  0  0  0
    8.3532   -5.8525   19.7197 O   0  0  0  0  0  0  0  0  0  0  0  0
    8.8105   -4.5161   17.6980 O   0  0  0  0  0  0  0  0  0  0  0  0
    9.6344   -0.0607   21.5108 H   0  0  0  0  0  0  0  0  0  0  0  0
   10.6768    0.9800   22.7192 H   0  0  0  0  0  0  0  0  0  0  0  0
    8.1757   -0.8347   21.2718 H   0  0  0  0  0  0  0  0  0  0  0  0
    4.9456   -1.9356   24.7348 H   0  0  0  0  0  0  0  0  0  0  0  0
    3.8928   -3.4573   24.6444 H   0  0  0  0  0  0  0  0  0  0  0  0
    2.6325   -2.8099   23.5402 H   0  0  0  0  0  0  0  0  0  0  0  0
    3.0105   -4.5659   23.5402 H   0  0  0  0  0  0  0  0  0  0  0  0
    5.2693   -4.3048   19.4747 H   0  0  0  0  0  0  0  0  0  0  0  0
    7.1044   -3.1070   18.6395 H   0  0  0  0  0  0  0  0  0  0  0  0
    7.6259   -1.6002   19.4665 H   0  0  0  0  0  0  0  0  0  0  0  0
  1  2  2  0
  2  3  1  0
  2  4  1  0
  4  5  2  0
  4  6  1  0
  6  7  2  3
  7  8  1  0
  8  9  2  0
  8 15  1  0
  9 10  1  0
  9 11  1  0
 11 12  1  0
 11 13  2  0
 13 14  1  0
 14 15  2  0
 15 16  1  0
 16 17  1  0
 17 18  1  0
 18 19  2  0
 18 20  1  1
 18 21  1  0
  5 22  1  0
  5 23  1  0
  7 24  1  0
 10 25  1  0
 12 26  1  0
 12 27  1  0
 12 28  1  0
 14 29  1  0
 16 30  1  0
 16 31  1  0
M  CHG  3   3  -1  20  -1  21  -1
M  END
>  <filename_input>  (1) 
7LEV_0JO_docked.sdf

>  <pdb_id>  (1) 
7LEV_0JO

>  <pose_rank>  (1) 
0

>  <num_atoms_heavy>  (1) 
21

>  <num_torsions>  (1) 
6

>  <pose>  (1) 
[6.484279934885663, -2.2556239682150885, 21.856004286022227, -4.302310247370355, -1.3937513438596434, -4.241095869026022, -0.03343986826759546, -0.009301710820506655, -0.5668165769528021, -6.257620860279814, 0.019518537592877666, -0.17784864925531768]

>  <energy>  (1) 
-1077.9456423248203

>  <inter_energy>  (1) 
-1124.0513840002104

>  <intra_energy>  (1) 
32.60122367754734

>  <rmsd>  (1) 
0.351412

>  <sdf_rank>  (1) 
0

$$$$

     RDKit          3D

 31 31  0  0  0  0  0  0  0  0999 V2000
   10.7223    1.1686   21.0063 O   0  0  0  0  0  0  0  0  0  0  0  0
    9.9460    0.1831   21.1100 C   0  0  0  0  0  0  0  0  0  0  0  0
   10.1604   -0.8599   20.4376 O   0  0  0  0  0  0  0  0  0  0  0  0
    8.7432    0.2528   22.0498 C   0  0  0  0  0  0  0  0  0  0  0  0
    8.7687    1.0593   23.0921 C   0  0  0  0  0  0  0  0  0  0  0  0
    7.5735   -0.5683   21.7954 N   0  0  0  0  0  0  0  0  0  0  0  0
    7.4774   -1.6981   22.3227 C   0  0  0  0  0  0  0  0  0  0  0  0
    6.2482   -2.5645   22.0561 C   0  0  0  0  0  0  0  0  0  0  0  0
    5.2633   -2.6483   22.9843 C   0  0  0  0  0  0  0  0  0  0  0  0
    5.3712   -1.9401   24.1884 O   0  0  0  0  0  0  0  0  0  0  0  0
    4.1491   -3.4343   22.7421 C   0  0  0  0  0  0  0  0  0  0  0  0
    3.0399   -3.5290   23.7871 C   0  0  0  0  0  0  0  0  0  0  0  0
    4.0432   -4.1184   21.5805 N   0  0  0  0  0  0  0  0  0  0  0  0
    5.0251   -4.0365   20.6533 C   0  0  0  0  0  0  0  0  0  0  0  0
    6.1413   -3.2505   20.8924 C   0  0  0  0  0  0  0  0  0  0  0  0
    7.2495   -3.1577   19.8434 C   0  0  0  0  0  0  0  0  0  0  0  0
    8.2602   -4.0738   20.1511 O   0  0  0  0  0  0  0  0  0  0  0  0
    8.7704   -5.1057   18.9703 P   0  0  1  0  0  0  0  0  0  0  0  0
    8.6065   -6.5303   19.4432 O   0  0  0  0  0  0  0  0  0  0  0  0
    7.9461   -4.8920   17.7240 O   0  0  0  0  0  0  0  0  0  0  0  0
   10.2261   -4.8413   18.6629 O   0  0  0  0  0  0  0  0  0  0  0  0
    7.9034    1.1104   23.7694 H   0  0  0  0  0  0  0  0  0  0  0  0
    9.6553    1.6814   23.2847 H   0  0  0  0  0  0  0  0  0  0  0  0
    8.2788   -2.0682   22.9791 H   0  0  0  0  0  0  0  0  0  0  0  0
    4.6515   -2.0021   24.8653 H   0  0  0  0  0  0  0  0  0  0  0  0
    3.4808   -3.4914   24.7942 H   0  0  0  0  0  0  0  0  0  0  0  0
    2.3436   -2.6870   23.6599 H   0  0  0  0  0  0  0  0  0  0  0  0
    2.4963   -4.4768   23.6599 H   0  0  0  0  0  0  0  0  0  0  0  0
    4.9374   -4.5940   19.7091 H   0  0  0  0  0  0  0  0  0  0  0  0
    6.8352   -3.3884   18.8509 H   0  0  0  0  0  0  0  0  0  0  0  0
    7.6662   -2.1397   19.8391 H   0  0  0  0  0  0  0  0  0  0  0  0
  1  2  2  0
  2  3  1  0
  2  4  1  0
  4  5  2  0
  4  6  1  0
  6  7  2  3
  7  8  1  0
  8  9  2  0
  8 15  1  0
  9 10  1  0
  9 11  1  0
 11 12  1  0
 11 13  2  0
 13 14  1  0
 14 15  2  0
 15 16  1  0
 16 17  1  0
 17 18  1  0
 18 19  2  0
 18 20  1  6
 18 21  1  0
  5 22  1  0
  5 23  1  0
  7 24  1  0
 10 25  1  0
 12 26  1  0
 12 27  1  0
 12 28  1  0
 14 29  1  0
 16 30  1  0
 16 31  1  0
M  CHG  3   3  -1  20  -1  21  -1
M  END
>  <filename_input>  (2) 
7LEV_0JO_docked.sdf

>  <pdb_id>  (2) 
7LEV_0JO

>  <pose_rank>  (2) 
1

>  <num_atoms_heavy>  (2) 
21

>  <num_torsions>  (2) 
6

>  <pose>  (2) 
[6.248243806097538, -2.56445630296741, 22.056067210105137, -3.2293127927461476, 2.671455069831574, 4.6294557431324135, -2.210628417528861, -1.3806517571269055, -0.22867445641986467, -6.049092073638673, -5.90060696364918, -5.109685155305851]

>  <energy>  (2) 
-842.4084432583978

>  <inter_energy>  (2) 
-858.8998062189264

>  <intra_energy>  (2) 
9.712159711962036

>  <rmsd>  (2) 
1.92677

>  <sdf_rank>  (2) 
0

$$$$

     RDKit          3D

 31 31  0  0  0  0  0  0  0  0999 V2000
   10.1133   -4.9994   19.3280 O   0  0  0  0  0  0  0  0  0  0  0  0
    8.9824   -4.4486   19.2799 C   0  0  0  0  0  0  0  0  0  0  0  0
    8.0502   -4.9828   18.6230 O   0  0  0  0  0  0  0  0  0  0  0  0
    8.7413   -3.1319   20.0167 C   0  0  0  0  0  0  0  0  0  0  0  0
    9.6179   -2.1525   19.9175 C   0  0  0  0  0  0  0  0  0  0  0  0
    7.5481   -2.9595   20.8253 N   0  0  0  0  0  0  0  0  0  0  0  0
    7.4916   -2.0348   21.6651 C   0  0  0  0  0  0  0  0  0  0  0  0
    6.2378   -1.8518   22.5178 C   0  0  0  0  0  0  0  0  0  0  0  0
    5.1571   -2.6450   22.3139 C   0  0  0  0  0  0  0  0  0  0  0  0
    5.1892   -3.6337   21.3217 O   0  0  0  0  0  0  0  0  0  0  0  0
    4.0204   -2.4783   23.0871 C   0  0  0  0  0  0  0  0  0  0  0  0
    2.8033   -3.3713   22.8577 C   0  0  0  0  0  0  0  0  0  0  0  0
    3.9877   -1.5247   24.0452 N   0  0  0  0  0  0  0  0  0  0  0  0
    5.0647   -0.7318   24.2501 C   0  0  0  0  0  0  0  0  0  0  0  0
    6.2040   -0.8963   23.4781 C   0  0  0  0  0  0  0  0  0  0  0  0
    7.4208   -0.0007   23.7112 C   0  0  0  0  0  0  0  0  0  0  0  0
    8.5898   -0.7450   23.5249 O   0  0  0  0  0  0  0  0  0  0  0  0
   10.0418    0.0060   23.7421 P   0  0  1  0  0  0  0  0  0  0  0  0
   10.3538    0.8551   22.5331 O   0  0  0  0  0  0  0  0  0  0  0  0
    9.9764    0.8831   24.9688 O   0  0  0  0  0  0  0  0  0  0  0  0
   11.1253   -1.0317   23.9221 O   0  0  0  0  0  0  0  0  0  0  0  0
    9.4453   -1.2041   20.4475 H   0  0  0  0  0  0  0  0  0  0  0  0
   10.5220   -2.2835   19.3048 H   0  0  0  0  0  0  0  0  0  0  0  0
    8.3454   -1.3526   21.7898 H   0  0  0  0  0  0  0  0  0  0  0  0
    4.3996   -4.2123   21.1737 H   0  0  0  0  0  0  0  0  0  0  0  0
    2.3854   -3.6779   23.8279 H   0  0  0  0  0  0  0  0  0  0  0  0
    2.0426   -2.8155   22.2899 H   0  0  0  0  0  0  0  0  0  0  0  0
    3.1052   -4.2638   22.2899 H   0  0  0  0  0  0  0  0  0  0  0  0
    5.0361    0.0437   25.0296 H   0  0  0  0  0  0  0  0  0  0  0  0
    7.4018    0.8368   22.9983 H   0  0  0  0  0  0  0  0  0  0  0  0
    7.3959    0.3918   24.7385 H   0  0  0  0  0  0  0  0  0  0  0  0
  1  2  2  0
  2  3  1  0
  2  4  1  0
  4  5  2  0
  4  6  1  0
  6  7  2  3
  7  8  1  0
  8  9  2  0
  8 15  1  0
  9 10  1  0
  9 11  1  0
 11 12  1  0
 11 13  2  0
 13 14  1  0
 14 15  2  0
 15 16  1  0
 16 17  1  0
 17 18  1  0
 18 19  2  0
 18 20  1  1
 18 21  1  0
  5 22  1  0
  5 23  1  0
  7 24  1  0
 10 25  1  0
 12 26  1  0
 12 27  1  0
 12 28  1  0
 14 29  1  0
 16 30  1  0
 16 31  1  0
M  CHG  3   3  -1  20  -1  21  -1
M  END
>  <filename_input>  (3) 
7LEV_0JO_docked.sdf

>  <pdb_id>  (3) 
7LEV_0JO

>  <pose_rank>  (3) 
2

>  <num_atoms_heavy>  (3) 
21

>  <num_torsions>  (3) 
6

>  <pose>  (3) 
[6.237792167380257, -1.8517569413430524, 22.51784512311253, 2.612725365616781, 0.9268568260576625, -0.8226063160183914, -0.5021373137869538, -0.14010642137846993, 1.0280892020451589, 4.413263583267344, 1.2905716681841448, 1.963857433452885]

>  <energy>  (3) 
-786.1266720885966

>  <inter_energy>  (3) 
-842.9812669274905

>  <intra_energy>  (3) 
65.59340756629301

>  <rmsd>  (3) 
5.16431

>  <sdf_rank>  (3) 
0

$$$$

     RDKit          3D

 31 31  0  0  0  0  0  0  0  0999 V2000
    9.8484    1.7268   25.2475 O   0  0  0  0  0  0  0  0  0  0  0  0
    9.4441    0.5603   25.0016 C   0  0  0  0  0  0  0  0  0  0  0  0
    9.2973   -0.2655   25.9410 O   0  0  0  0  0  0  0  0  0  0  0  0
    9.1333    0.1460   23.5641 C   0  0  0  0  0  0  0  0  0  0  0  0
    9.7674    0.7214   22.5619 C   0  0  0  0  0  0  0  0  0  0  0  0
    8.1405   -0.8800   23.3020 N   0  0  0  0  0  0  0  0  0  0  0  0
    7.5166   -0.8826   22.2183 C   0  0  0  0  0  0  0  0  0  0  0  0
    6.4709   -1.9605   21.9403 C   0  0  0  0  0  0  0  0  0  0  0  0
    5.3352   -2.0102   22.6794 C   0  0  0  0  0  0  0  0  0  0  0  0
    5.1189   -1.0730   23.6981 O   0  0  0  0  0  0  0  0  0  0  0  0
    4.3875   -2.9881   22.4272 C   0  0  0  0  0  0  0  0  0  0  0  0
    3.1086   -3.0443   23.2593 C   0  0  0  0  0  0  0  0  0  0  0  0
    4.5945   -3.8934   21.4443 N   0  0  0  0  0  0  0  0  0  0  0  0
    5.7273   -3.8458   20.7060 C   0  0  0  0  0  0  0  0  0  0  0  0
    6.6776   -2.8682   20.9557 C   0  0  0  0  0  0  0  0  0  0  0  0
    7.9566   -2.8147   20.1200 C   0  0  0  0  0  0  0  0  0  0  0  0
    9.0632   -2.7080   20.9681 O   0  0  0  0  0  0  0  0  0  0  0  0
   10.5647   -2.6192   20.2921 P   0  0  1  0  0  0  0  0  0  0  0  0
   10.9480   -1.1702   20.1088 O   0  0  0  0  0  0  0  0  0  0  0  0
   11.5659   -3.2930   21.1988 O   0  0  0  0  0  0  0  0  0  0  0  0
   10.5557   -3.3116   18.9490 O   0  0  0  0  0  0  0  0  0  0  0  0
    9.5444    0.4240   21.5266 H   0  0  0  0  0  0  0  0  0  0  0  0
   10.5195    1.4990   22.7608 H   0  0  0  0  0  0  0  0  0  0  0  0
    7.7212   -0.1080   21.4645 H   0  0  0  0  0  0  0  0  0  0  0  0
    4.2893   -1.1102   24.2371 H   0  0  0  0  0  0  0  0  0  0  0  0
    3.3661   -3.0330   24.3287 H   0  0  0  0  0  0  0  0  0  0  0  0
    2.4796   -2.1730   23.0243 H   0  0  0  0  0  0  0  0  0  0  0  0
    2.5586   -3.9676   23.0243 H   0  0  0  0  0  0  0  0  0  0  0  0
    5.8941   -4.5834   19.9071 H   0  0  0  0  0  0  0  0  0  0  0  0
    8.0414   -3.7329   19.5202 H   0  0  0  0  0  0  0  0  0  0  0  0
    7.9215   -1.9420   19.4513 H   0  0  0  0  0  0  0  0  0  0  0  0
  1  2  2  0
  2  3  1  0
  2  4  1  0
  4  5  2  0
  4  6  1  0
  6  7  2  3
  7  8  1  0
  8  9  2  0
  8 15  1  0
  9 10  1  0
  9 11  1  0
 11 12  1  0
 11 13  2  0
 13 14  1  0
 14 15  2  0
 15 16  1  0
 16 17  1  0
 17 18  1  0
 18 19  2  0
 18 20  1  1
 18 21  1  0
  5 22  1  0
  5 23  1  0
  7 24  1  0
 10 25  1  0
 12 26  1  0
 12 27  1  0
 12 28  1  0
 14 29  1  0
 16 30  1  0
 16 31  1  0
M  CHG  3   3  -1  20  -1  21  -1
M  END
>  <filename_input>  (4) 
7LEV_0JO_docked.sdf

>  <pdb_id>  (4) 
7LEV_0JO

>  <pose_rank>  (4) 
3

>  <num_atoms_heavy>  (4) 
21

>  <num_torsions>  (4) 
6

>  <pose>  (4) 
[6.470947647077362, -1.9604941396429025, 21.940306952722175, 3.7296134800762677, 4.141450436802704, -2.175088643430869, -5.569850775001021, -0.3218178484792171, 0.7166903305102432, 5.8967357731253776, 1.286869186262777, -1.3433928754346198]

>  <energy>  (4) 
-829.0868338168931

>  <inter_energy>  (4) 
-863.7974439880995

>  <intra_energy>  (4) 
37.43174411159501

>  <rmsd>  (4) 
1.68005

>  <sdf_rank>  (4) 
0

$$$$

     RDKit          3D

 31 31  0  0  0  0  0  0  0  0999 V2000
    4.3687   -4.0277   22.0576 O   0  0  0  0  0  0  0  0  0  0  0  0
    4.0159   -2.9359   22.5753 C   0  0  0  0  0  0  0  0  0  0  0  0
    2.9142   -2.4157   22.2565 O   0  0  0  0  0  0  0  0  0  0  0  0
    4.9245   -2.2412   23.5885 C   0  0  0  0  0  0  0  0  0  0  0  0
    4.4122   -1.7337   24.6919 C   0  0  0  0  0  0  0  0  0  0  0  0
    6.3504   -2.1398   23.3363 N   0  0  0  0  0  0  0  0  0  0  0  0
    6.8051   -1.1585   22.7088 C   0  0  0  0  0  0  0  0  0  0  0  0
    8.3049   -1.0498   22.4414 C   0  0  0  0  0  0  0  0  0  0  0  0
    9.0890   -0.3120   23.2657 C   0  0  0  0  0  0  0  0  0  0  0  0
    8.5251    0.3508   24.3638 O   0  0  0  0  0  0  0  0  0  0  0  0
   10.4488   -0.2135   23.0226 C   0  0  0  0  0  0  0  0  0  0  0  0
   11.3320    0.6173   23.9505 C   0  0  0  0  0  0  0  0  0  0  0  0
   10.9948   -0.8526   21.9634 N   0  0  0  0  0  0  0  0  0  0  0  0
   10.2141   -1.5889   21.1394 C   0  0  0  0  0  0  0  0  0  0  0  0
    8.8528   -1.6898   21.3802 C   0  0  0  0  0  0  0  0  0  0  0  0
    7.9719   -2.5231   20.4492 C   0  0  0  0  0  0  0  0  0  0  0  0
    8.7467   -3.0221   19.3976 O   0  0  0  0  0  0  0  0  0  0  0  0
    9.0039   -4.6489   19.3151 P   0  0  1  0  0  0  0  0  0  0  0  0
    8.7030   -5.1347   17.9175 O   0  0  0  0  0  0  0  0  0  0  0  0
   10.4444   -4.9486   19.6521 O   0  0  0  0  0  0  0  0  0  0  0  0
    8.0993   -5.3538   20.2991 O   0  0  0  0  0  0  0  0  0  0  0  0
    5.0654   -1.2334   25.4221 H   0  0  0  0  0  0  0  0  0  0  0  0
    3.3316   -1.8105   24.8826 H   0  0  0  0  0  0  0  0  0  0  0  0
    6.1244   -0.3728   22.3491 H   0  0  0  0  0  0  0  0  0  0  0  0
    9.0986    0.8892   24.9649 H   0  0  0  0  0  0  0  0  0  0  0  0
   11.0850    0.3849   24.9969 H   0  0  0  0  0  0  0  0  0  0  0  0
   12.3890    0.3784   23.7615 H   0  0  0  0  0  0  0  0  0  0  0  0
   11.1583    1.6869   23.7615 H   0  0  0  0  0  0  0  0  0  0  0  0
   10.6599   -2.1078   20.2780 H   0  0  0  0  0  0  0  0  0  0  0  0
    7.5337   -3.3608   21.0115 H   0  0  0  0  0  0  0  0  0  0  0  0
    7.1667   -1.8924   20.0444 H   0  0  0  0  0  0  0  0  0  0  0  0
  1  2  2  0
  2  3  1  0
  2  4  1  0
  4  5  2  0
  4  6  1  0
  6  7  2  3
  7  8  1  0
  8  9  2  0
  8 15  1  0
  9 10  1  0
  9 11  1  0
 11 12  1  0
 11 13  2  0
 13 14  1  0
 14 15  2  0
 15 16  1  0
 16 17  1  0
 17 18  1  0
 18 19  2  0
 18 20  1  1
 18 21  1  0
  5 22  1  0
  5 23  1  0
  7 24  1  0
 10 25  1  0
 12 26  1  0
 12 27  1  0
 12 28  1  0
 14 29  1  0
 16 30  1  0
 16 31  1  0
M  CHG  3   3  -1  20  -1  21  -1
M  END
>  <filename_input>  (5) 
7LEV_0JO_docked.sdf

>  <pdb_id>  (5) 
7LEV_0JO

>  <pose_rank>  (5) 
4

>  <num_atoms_heavy>  (5) 
21

>  <num_torsions>  (5) 
6

>  <pose>  (5) 
[8.30486130914939, -1.0498076808875714, 22.441431344802925, 0.5797915762000849, -1.6604473691657147, -2.992324287117096, -2.1186420637112993, 4.851352019308291, -2.1476331663641415, 1.8504082098680785, 6.385177097415535, -0.681680243877331]

>  <energy>  (5) 
-769.7062353850008

>  <inter_energy>  (5) 
-750.6388361152724

>  <intra_energy>  (5) 
5.768535011237932

>  <rmsd>  (5) 
4.84942

>  <sdf_rank>  (5) 
0

$$$$

     RDKit          3D

 31 31  0  0  0  0  0  0  0  0999 V2000
    9.5229   -4.3234   18.3189 O   0  0  0  0  0  0  0  0  0  0  0  0
    8.5529   -4.1467   19.1016 C   0  0  0  0  0  0  0  0  0  0  0  0
    8.1703   -5.0840   19.8505 O   0  0  0  0  0  0  0  0  0  0  0  0
    7.8392   -2.7963   19.1417 C   0  0  0  0  0  0  0  0  0  0  0  0
    6.6532   -2.6621   18.5822 C   0  0  0  0  0  0  0  0  0  0  0  0
    8.4663   -1.6619   19.7953 N   0  0  0  0  0  0  0  0  0  0  0  0
    9.4117   -1.8453   20.5928 C   0  0  0  0  0  0  0  0  0  0  0  0
   10.0728   -0.6537   21.2824 C   0  0  0  0  0  0  0  0  0  0  0  0
   11.1379   -0.0425   20.7073 C   0  0  0  0  0  0  0  0  0  0  0  0
   11.6329   -0.5025   19.4800 O   0  0  0  0  0  0  0  0  0  0  0  0
   11.7371    1.0378   21.3332 C   0  0  0  0  0  0  0  0  0  0  0  0
   12.9365    1.7261   20.6859 C   0  0  0  0  0  0  0  0  0  0  0  0
   11.2606    1.4832   22.5177 N   0  0  0  0  0  0  0  0  0  0  0  0
   10.1982    0.8745   23.0934 C   0  0  0  0  0  0  0  0  0  0  0  0
    9.5960   -0.2067   22.4694 C   0  0  0  0  0  0  0  0  0  0  0  0
    8.3949   -0.8929   23.1203 C   0  0  0  0  0  0  0  0  0  0  0  0
    7.2664   -0.0774   22.9918 O   0  0  0  0  0  0  0  0  0  0  0  0
    5.7816   -0.7441   23.2571 P   0  0  1  0  0  0  0  0  0  0  0  0
    4.9173    0.2384   24.0105 O   0  0  0  0  0  0  0  0  0  0  0  0
    5.1333   -1.0724   21.9341 O   0  0  0  0  0  0  0  0  0  0  0  0
    5.9338   -2.0083   24.0709 O   0  0  0  0  0  0  0  0  0  0  0  0
    6.1385   -1.6904   18.6105 H   0  0  0  0  0  0  0  0  0  0  0  0
    6.1783   -3.5219   18.0869 H   0  0  0  0  0  0  0  0  0  0  0  0
    9.7676   -2.8658   20.7979 H   0  0  0  0  0  0  0  0  0  0  0  0
   12.4106   -0.0555   19.0611 H   0  0  0  0  0  0  0  0  0  0  0  0
   13.6058    2.1102   21.4698 H   0  0  0  0  0  0  0  0  0  0  0  0
   13.4809    1.0030   20.0609 H   0  0  0  0  0  0  0  0  0  0  0  0
   12.5868    2.5610   20.0609 H   0  0  0  0  0  0  0  0  0  0  0  0
    9.8122    1.2380   24.0572 H   0  0  0  0  0  0  0  0  0  0  0  0
    8.2095   -1.8566   22.6234 H   0  0  0  0  0  0  0  0  0  0  0  0
    8.6040   -1.0645   24.1865 H   0  0  0  0  0  0  0  0  0  0  0  0
  1  2  2  0
  2  3  1  0
  2  4  1  0
  4  5  2  0
  4  6  1  0
  6  7  2  3
  7  8  1  0
  8  9  2  0
  8 15  1  0
  9 10  1  0
  9 11  1  0
 11 12  1  0
 11 13  2  0
 13 14  1  0
 14 15  2  0
 15 16  1  0
 16 17  1  0
 17 18  1  0
 18 19  2  0
 18 20  1  6
 18 21  1  0
  5 22  1  0
  5 23  1  0
  7 24  1  0
 10 25  1  0
 12 26  1  0
 12 27  1  0
 12 28  1  0
 14 29  1  0
 16 30  1  0
 16 31  1  0
M  CHG  3   3  -1  20  -1  21  -1
M  END
>  <filename_input>  (6) 
7LEV_0JO_docked.sdf

>  <pdb_id>  (6) 
7LEV_0JO

>  <pose_rank>  (6) 
5

>  <num_atoms_heavy>  (6) 
21

>  <num_torsions>  (6) 
6

>  <pose>  (6) 
[10.072760926173897, -0.6536665153833414, 21.282367491410554, 2.0517635745692187, -2.51799431578824, 1.5754640499741195, 4.2647759088242125, 2.9907421356428467, 2.053773744935366, -9.375001044175537, 1.0053282455565988, -0.5177885143313663]

>  <energy>  (6) 
-576.9731707715353

>  <inter_energy>  (6) 
-571.6091689291324

>  <intra_energy>  (6) 
4.584978279506872

>  <rmsd>  (6) 
6.84208

>  <sdf_rank>  (6) 
0

$$$$

     RDKit          3D

 31 31  0  0  0  0  0  0  0  0999 V2000
    4.6841   -0.6732   24.4282 O   0  0  0  0  0  0  0  0  0  0  0  0
    5.6264   -1.4271   24.0700 C   0  0  0  0  0  0  0  0  0  0  0  0
    6.3866   -1.9377   24.9344 O   0  0  0  0  0  0  0  0  0  0  0  0
    5.8487   -1.7212   22.5871 C   0  0  0  0  0  0  0  0  0  0  0  0
    4.8881   -2.2765   21.8754 C   0  0  0  0  0  0  0  0  0  0  0  0
    7.1165   -1.3898   21.9626 N   0  0  0  0  0  0  0  0  0  0  0  0
    8.1308   -1.2033   22.6697 C   0  0  0  0  0  0  0  0  0  0  0  0
    9.4657   -0.8537   22.0152 C   0  0  0  0  0  0  0  0  0  0  0  0
   10.3518   -0.0589   22.6646 C   0  0  0  0  0  0  0  0  0  0  0  0
   10.0448    0.4420   23.9365 O   0  0  0  0  0  0  0  0  0  0  0  0
   11.5619    0.2581   22.0705 C   0  0  0  0  0  0  0  0  0  0  0  0
   12.5599    1.1531   22.8013 C   0  0  0  0  0  0  0  0  0  0  0  0
   11.8600   -0.2245   20.8430 N   0  0  0  0  0  0  0  0  0  0  0  0
   10.9770   -1.0173   20.1931 C   0  0  0  0  0  0  0  0  0  0  0  0
    9.7651   -1.3367   20.7852 C   0  0  0  0  0  0  0  0  0  0  0  0
    8.7687   -2.2337   20.0505 C   0  0  0  0  0  0  0  0  0  0  0  0
    8.9195   -3.5534   20.4876 O   0  0  0  0  0  0  0  0  0  0  0  0
    8.1034   -4.7430   19.6889 P   0  0  1  0  0  0  0  0  0  0  0  0
    6.6194   -4.5654   19.9038 O   0  0  0  0  0  0  0  0  0  0  0  0
    8.4108   -4.6612   18.2133 O   0  0  0  0  0  0  0  0  0  0  0  0
    8.5311   -6.0921   20.2184 O   0  0  0  0  0  0  0  0  0  0  0  0
    5.0471   -2.4886   20.8078 H   0  0  0  0  0  0  0  0  0  0  0  0
    3.9276   -2.5276   22.3490 H   0  0  0  0  0  0  0  0  0  0  0  0
    8.0615   -1.2911   23.7640 H   0  0  0  0  0  0  0  0  0  0  0  0
   10.6925    1.0222   24.4097 H   0  0  0  0  0  0  0  0  0  0  0  0
   12.4300    1.0366   23.8874 H   0  0  0  0  0  0  0  0  0  0  0  0
   13.5841    0.8651   22.5216 H   0  0  0  0  0  0  0  0  0  0  0  0
   12.3848    2.2024   22.5216 H   0  0  0  0  0  0  0  0  0  0  0  0
   11.2210   -1.4087   19.1945 H   0  0  0  0  0  0  0  0  0  0  0  0
    7.7443   -1.8926   20.2605 H   0  0  0  0  0  0  0  0  0  0  0  0
    8.9577   -2.1821   18.9681 H   0  0  0  0  0  0  0  0  0  0  0  0
  1  2  2  0
  2  3  1  0
  2  4  1  0
  4  5  2  0
  4  6  1  0
  6  7  2  3
  7  8  1  0
  8  9  2  0
  8 15  1  0
  9 10  1  0
  9 11  1  0
 11 12  1  0
 11 13  2  0
 13 14  1  0
 14 15  2  0
 15 16  1  0
 16 17  1  0
 17 18  1  0
 18 19  2  0
 18 20  1  6
 18 21  1  0
  5 22  1  0
  5 23  1  0
  7 24  1  0
 10 25  1  0
 12 26  1  0
 12 27  1  0
 12 28  1  0
 14 29  1  0
 16 30  1  0
 16 31  1  0
M  CHG  3   3  -1  20  -1  21  -1
M  END
>  <filename_input>  (7) 
7LEV_0JO_docked.sdf

>  <pdb_id>  (7) 
7LEV_0JO

>  <pose_rank>  (7) 
6

>  <num_atoms_heavy>  (7) 
21

>  <num_torsions>  (7) 
6

>  <pose>  (7) 
[9.465654432658408, -0.8537143529365087, 22.015227223628347, 0.22164281121188473, -1.4264151580707438, -2.884550784462207, -4.132981608763779, -2.6588866306871974, -0.803799005229666, 3.586883405910613, -4.857295214464474, -4.1255232335921725]

>  <energy>  (7) 
-630.283167786202

>  <inter_energy>  (7) 
-671.5809008371824

>  <intra_energy>  (7) 
50.968391750417254

>  <rmsd>  (7) 
4.81708

>  <sdf_rank>  (7) 
0

$$$$

     RDKit          3D

 31 31  0  0  0  0  0  0  0  0999 V2000
    6.5720   -4.3756   19.2755 O   0  0  0  0  0  0  0  0  0  0  0  0
    7.6564   -4.3357   18.6374 C   0  0  0  0  0  0  0  0  0  0  0  0
    7.6568   -4.4908   17.3877 O   0  0  0  0  0  0  0  0  0  0  0  0
    8.9717   -4.1011   19.3789 C   0  0  0  0  0  0  0  0  0  0  0  0
    9.6769   -5.1284   19.8087 C   0  0  0  0  0  0  0  0  0  0  0  0
    9.4442   -2.7482   19.6102 N   0  0  0  0  0  0  0  0  0  0  0  0
    9.7007   -2.3669   20.7731 C   0  0  0  0  0  0  0  0  0  0  0  0
   10.1972   -0.9437   21.0193 C   0  0  0  0  0  0  0  0  0  0  0  0
   11.1634   -0.4161   20.2277 C   0  0  0  0  0  0  0  0  0  0  0  0
   11.7071   -1.1748   19.1829 O   0  0  0  0  0  0  0  0  0  0  0  0
   11.6136    0.8744   20.4517 C   0  0  0  0  0  0  0  0  0  0  0  0
   12.7016    1.4688   19.5606 C   0  0  0  0  0  0  0  0  0  0  0  0
   11.0900    1.6082   21.4596 N   0  0  0  0  0  0  0  0  0  0  0  0
   10.1261    1.0834   22.2509 C   0  0  0  0  0  0  0  0  0  0  0  0
    9.6733   -0.2077   22.0292 C   0  0  0  0  0  0  0  0  0  0  0  0
    8.5833   -0.7991   22.9232 C   0  0  0  0  0  0  0  0  0  0  0  0
    7.3647   -0.1697   22.6506 O   0  0  0  0  0  0  0  0  0  0  0  0
    5.9706   -1.0094   22.9167 P   0  0  1  0  0  0  0  0  0  0  0  0
    5.0877   -0.9167   21.6953 O   0  0  0  0  0  0  0  0  0  0  0  0
    6.2992   -2.4570   23.1905 O   0  0  0  0  0  0  0  0  0  0  0  0
    5.2472   -0.4232   24.1069 O   0  0  0  0  0  0  0  0  0  0  0  0
   10.6239   -4.9607   20.3426 H   0  0  0  0  0  0  0  0  0  0  0  0
    9.3185   -6.1535   19.6334 H   0  0  0  0  0  0  0  0  0  0  0  0
    9.5687   -3.0570   21.6195 H   0  0  0  0  0  0  0  0  0  0  0  0
   12.4125   -0.7885   18.6056 H   0  0  0  0  0  0  0  0  0  0  0  0
   13.4940    1.9018   20.1887 H   0  0  0  0  0  0  0  0  0  0  0  0
   13.1279    0.6783   18.9255 H   0  0  0  0  0  0  0  0  0  0  0  0
   12.2667    2.2546   18.9255 H   0  0  0  0  0  0  0  0  0  0  0  0
    9.7017    1.6817   23.0706 H   0  0  0  0  0  0  0  0  0  0  0  0
    8.4915   -1.8772   22.7251 H   0  0  0  0  0  0  0  0  0  0  0  0
    8.8493   -0.6417   23.9788 H   0  0  0  0  0  0  0  0  0  0  0  0
  1  2  2  0
  2  3  1  0
  2  4  1  0
  4  5  2  0
  4  6  1  0
  6  7  2  3
  7  8  1  0
  8  9  2  0
  8 15  1  0
  9 10  1  0
  9 11  1  0
 11 12  1  0
 11 13  2  0
 13 14  1  0
 14 15  2  0
 15 16  1  0
 16 17  1  0
 17 18  1  0
 18 19  2  0
 18 20  1  1
 18 21  1  0
  5 22  1  0
  5 23  1  0
  7 24  1  0
 10 25  1  0
 12 26  1  0
 12 27  1  0
 12 28  1  0
 14 29  1  0
 16 30  1  0
 16 31  1  0
M  CHG  3   3  -1  20  -1  21  -1
M  END
>  <filename_input>  (8) 
7LEV_0JO_docked.sdf

>  <pdb_id>  (8) 
7LEV_0JO

>  <pose_rank>  (8) 
7

>  <num_atoms_heavy>  (8) 
21

>  <num_torsions>  (8) 
6

>  <pose>  (8) 
[10.197209366255386, -0.9436940343471533, 21.019342666795865, -1.8121388183785496, 1.6194552179804116, -1.4377249616223824, -1.2266494988358991, -7.100059267191777, 1.8206902005166024, 9.422548489372378, 0.7971086327881006, -11.522611974631499]

>  <energy>  (8) 
-526.0521323310517

>  <inter_energy>  (8) 
-523.8137184432488

>  <intra_energy>  (8) 
15.16578020294699

>  <rmsd>  (8) 
6.91341

>  <sdf_rank>  (8) 
0

$$$$

     RDKit          3D

 31 31  0  0  0  0  0  0  0  0999 V2000
   12.2513    7.3851   19.8808 O   0  0  0  0  0  0  0  0  0  0  0  0
   12.3958    6.2345   20.3705 C   0  0  0  0  0  0  0  0  0  0  0  0
   13.5466    5.8168   20.6660 O   0  0  0  0  0  0  0  0  0  0  0  0
   11.1761    5.3445   20.6048 C   0  0  0  0  0  0  0  0  0  0  0  0
   10.0366    5.8797   20.9955 C   0  0  0  0  0  0  0  0  0  0  0  0
   11.2719    3.9110   20.3977 N   0  0  0  0  0  0  0  0  0  0  0  0
   11.2929    3.1383   21.3806 C   0  0  0  0  0  0  0  0  0  0  0  0
   11.3945    1.6297   21.1655 C   0  0  0  0  0  0  0  0  0  0  0  0
   12.4516    1.1101   20.4938 C   0  0  0  0  0  0  0  0  0  0  0  0
   13.4522    1.9557   19.9971 O   0  0  0  0  0  0  0  0  0  0  0  0
   12.5431   -0.2580   20.2987 C   0  0  0  0  0  0  0  0  0  0  0  0
   13.7332   -0.8434   19.5425 C   0  0  0  0  0  0  0  0  0  0  0  0
   11.5784   -1.0756   20.7775 N   0  0  0  0  0  0  0  0  0  0  0  0
   10.5225   -0.5592   21.4475 C   0  0  0  0  0  0  0  0  0  0  0  0
   10.4282    0.8095   21.6448 C   0  0  0  0  0  0  0  0  0  0  0  0
    9.2353    1.3919   22.4030 C   0  0  0  0  0  0  0  0  0  0  0  0
    8.6927    0.4126   23.2408 O   0  0  0  0  0  0  0  0  0  0  0  0
    9.4280    0.1223   24.6880 P   0  0  1  0  0  0  0  0  0  0  0  0
   10.8032    0.7458   24.6866 O   0  0  0  0  0  0  0  0  0  0  0  0
    8.6046    0.7240   25.8009 O   0  0  0  0  0  0  0  0  0  0  0  0
    9.5510   -1.3685   24.9020 O   0  0  0  0  0  0  0  0  0  0  0  0
    9.1579    5.2399   21.1644 H   0  0  0  0  0  0  0  0  0  0  0  0
    9.9644    6.9660   21.1525 H   0  0  0  0  0  0  0  0  0  0  0  0
   11.2382    3.5455   22.4010 H   0  0  0  0  0  0  0  0  0  0  0  0
   14.2236    1.5752   19.5069 H   0  0  0  0  0  0  0  0  0  0  0  0
   14.4800   -1.2107   20.2618 H   0  0  0  0  0  0  0  0  0  0  0  0
   13.3922   -1.6765   18.9104 H   0  0  0  0  0  0  0  0  0  0  0  0
   14.1850   -0.0647   18.9104 H   0  0  0  0  0  0  0  0  0  0  0  0
    9.7384   -1.2258   21.8359 H   0  0  0  0  0  0  0  0  0  0  0  0
    9.5679    2.2485   23.0077 H   0  0  0  0  0  0  0  0  0  0  0  0
    8.4713    1.7246   21.6850 H   0  0  0  0  0  0  0  0  0  0  0  0
  1  2  2  0
  2  3  1  0
  2  4  1  0
  4  5  2  0
  4  6  1  0
  6  7  2  3
  7  8  1  0
  8  9  2  0
  8 15  1  0
  9 10  1  0
  9 11  1  0
 11 12  1  0
 11 13  2  0
 13 14  1  0
 14 15  2  0
 15 16  1  0
 16 17  1  0
 17 18  1  0
 18 19  2  0
 18 20  1  1
 18 21  1  0
  5 22  1  0
  5 23  1  0
  7 24  1  0
 10 25  1  0
 12 26  1  0
 12 27  1  0
 12 28  1  0
 14 29  1  0
 16 30  1  0
 16 31  1  0
M  CHG  3   3  -1  20  -1  21  -1
M  END
>  <filename_input>  (9) 
7LEV_0JO_docked.sdf

>  <pdb_id>  (9) 
7LEV_0JO

>  <pose_rank>  (9) 
8

>  <num_atoms_heavy>  (9) 
21

>  <num_torsions>  (9) 
6

>  <pose>  (9) 
[11.39447900072765, 1.62967427070771, 21.165468968167808, -1.4154391074939012, -3.097907103665773, -0.9541702985737884, 6.868368060156594, -1.125297694646581, -0.4117519052067765, 2.3230513961478256, -0.4613586804785786, 3.0582388284344217]

>  <energy>  (9) 
-417.99366249352823

>  <inter_energy>  (9) 
-433.6272892347646

>  <intra_energy>  (9) 
25.631667282686042

>  <rmsd>  (9) 
7.64944

>  <sdf_rank>  (9) 
0

$$$$

     RDKit          3D

 31 31  0  0  0  0  0  0  0  0999 V2000
    9.5587    0.4258   25.1336 O   0  0  0  0  0  0  0  0  0  0  0  0
    8.7208   -0.2215   24.4528 C   0  0  0  0  0  0  0  0  0  0  0  0
    7.7219   -0.7428   25.0152 O   0  0  0  0  0  0  0  0  0  0  0  0
    8.9163   -0.3759   22.9453 C   0  0  0  0  0  0  0  0  0  0  0  0
    8.2743   -1.3242   22.2924 C   0  0  0  0  0  0  0  0  0  0  0  0
    9.8083    0.5204   22.2325 N   0  0  0  0  0  0  0  0  0  0  0  0
   11.0460    0.3588   22.3070 C   0  0  0  0  0  0  0  0  0  0  0  0
   11.9867    1.3010   21.5587 C   0  0  0  0  0  0  0  0  0  0  0  0
   11.6127    2.5818   21.3170 C   0  0  0  0  0  0  0  0  0  0  0  0
   10.3638    3.0428   21.7536 O   0  0  0  0  0  0  0  0  0  0  0  0
   12.4660    3.4356   20.6381 C   0  0  0  0  0  0  0  0  0  0  0  0
   12.0452    4.8778   20.3657 C   0  0  0  0  0  0  0  0  0  0  0  0
   13.6718    2.9924   20.2161 N   0  0  0  0  0  0  0  0  0  0  0  0
   14.0467    1.7147   20.4558 C   0  0  0  0  0  0  0  0  0  0  0  0
   13.1951    0.8578   21.1353 C   0  0  0  0  0  0  0  0  0  0  0  0
   13.6203   -0.5854   21.4067 C   0  0  0  0  0  0  0  0  0  0  0  0
   14.9966   -0.7133   21.1950 O   0  0  0  0  0  0  0  0  0  0  0  0
   16.0132   -0.4673   22.4700 P   0  0  1  0  0  0  0  0  0  0  0  0
   15.2622   -0.6889   23.7611 O   0  0  0  0  0  0  0  0  0  0  0  0
   17.1678   -1.4360   22.3876 O   0  0  0  0  0  0  0  0  0  0  0  0
   16.5398    0.9485   22.4302 O   0  0  0  0  0  0  0  0  0  0  0  0
    8.4143   -1.4363   21.2071 H   0  0  0  0  0  0  0  0  0  0  0  0
    7.5986   -2.0034   22.8329 H   0  0  0  0  0  0  0  0  0  0  0  0
   11.4576   -0.4625   22.9120 H   0  0  0  0  0  0  0  0  0  0  0  0
   10.0918    3.9781   21.5765 H   0  0  0  0  0  0  0  0  0  0  0  0
   11.8923    5.4017   21.3207 H   0  0  0  0  0  0  0  0  0  0  0  0
   12.8322    5.3869   19.7900 H   0  0  0  0  0  0  0  0  0  0  0  0
   11.1078    4.8837   19.7900 H   0  0  0  0  0  0  0  0  0  0  0  0
   15.0278    1.3558   20.1114 H   0  0  0  0  0  0  0  0  0  0  0  0
   13.3836   -0.8476   22.4485 H   0  0  0  0  0  0  0  0  0  0  0  0
   13.0804   -1.2609   20.7269 H   0  0  0  0  0  0  0  0  0  0  0  0
  1  2  2  0
  2  3  1  0
  2  4  1  0
  4  5  2  0
  4  6  1  0
  6  7  2  3
  7  8  1  0
  8  9  2  0
  8 15  1  0
  9 10  1  0
  9 11  1  0
 11 12  1  0
 11 13  2  0
 13 14  1  0
 14 15  2  0
 15 16  1  0
 16 17  1  0
 17 18  1  0
 18 19  2  0
 18 20  1  6
 18 21  1  0
  5 22  1  0
  5 23  1  0
  7 24  1  0
 10 25  1  0
 12 26  1  0
 12 27  1  0
 12 28  1  0
 14 29  1  0
 16 30  1  0
 16 31  1  0
M  CHG  3   3  -1  20  -1  21  -1
M  END
>  <filename_input>  (10) 
7LEV_0JO_docked.sdf

>  <pdb_id>  (10) 
7LEV_0JO

>  <pose_rank>  (10) 
9

>  <num_atoms_heavy>  (10) 
21

>  <num_torsions>  (10) 
6

>  <pose>  (10) 
[11.986711306500652, 1.3010140976666436, 21.558738620620034, -1.7072309491703768, 2.585587659797162, 2.138157073782411, 0.06606044234038058, -1.6462032397583193, 3.0433621839928207, 2.166932341273305, -6.5657554587628555, 3.718290064975748]

>  <energy>  (10) 
-378.7393613348636

>  <inter_energy>  (10) 
-414.7461113001409

>  <intra_energy>  (10) 
36.81391869104647

>  <rmsd>  (10) 
7.63819

>  <sdf_rank>  (10) 
0

$$$$

     RDKit          3D

 31 31  0  0  0  0  0  0  0  0999 V2000
   14.2817    4.9417   19.8408 O   0  0  0  0  0  0  0  0  0  0  0  0
   13.2574    5.2207   20.5173 C   0  0  0  0  0  0  0  0  0  0  0  0
   13.0616    6.4034   20.9032 O   0  0  0  0  0  0  0  0  0  0  0  0
   12.2531    4.1250   20.8715 C   0  0  0  0  0  0  0  0  0  0  0  0
   10.9684    4.3110   20.6423 C   0  0  0  0  0  0  0  0  0  0  0  0
   12.7131    2.8803   21.4600 N   0  0  0  0  0  0  0  0  0  0  0  0
   12.2748    1.7892   21.0345 C   0  0  0  0  0  0  0  0  0  0  0  0
   12.7564    0.4782   21.6525 C   0  0  0  0  0  0  0  0  0  0  0  0
   14.0687    0.1420   21.5927 C   0  0  0  0  0  0  0  0  0  0  0  0
   14.9845    0.9966   20.9650 O   0  0  0  0  0  0  0  0  0  0  0  0
   14.5048   -1.0471   22.1529 C   0  0  0  0  0  0  0  0  0  0  0  0
   15.9823   -1.4259   22.0858 C   0  0  0  0  0  0  0  0  0  0  0  0
   13.6224   -1.8730   22.7593 N   0  0  0  0  0  0  0  0  0  0  0  0
   12.3124   -1.5396   22.8196 C   0  0  0  0  0  0  0  0  0  0  0  0
   11.8728   -0.3502   22.2601 C   0  0  0  0  0  0  0  0  0  0  0  0
   10.3927    0.0260   22.3300 C   0  0  0  0  0  0  0  0  0  0  0  0
    9.7138   -0.8998   23.1283 O   0  0  0  0  0  0  0  0  0  0  0  0
    8.9039   -0.3480   24.4545 P   0  0  1  0  0  0  0  0  0  0  0  0
    7.6680    0.3991   24.0133 O   0  0  0  0  0  0  0  0  0  0  0  0
    8.5020   -1.5165   25.3214 O   0  0  0  0  0  0  0  0  0  0  0  0
    9.7987    0.5799   25.2430 O   0  0  0  0  0  0  0  0  0  0  0  0
   10.2446    3.5228   20.8969 H   0  0  0  0  0  0  0  0  0  0  0  0
   10.6202    5.2544   20.1965 H   0  0  0  0  0  0  0  0  0  0  0  0
   11.5419    1.7736   20.2144 H   0  0  0  0  0  0  0  0  0  0  0  0
   15.9423    0.7501   20.9220 H   0  0  0  0  0  0  0  0  0  0  0  0
   16.3813   -1.5282   23.1057 H   0  0  0  0  0  0  0  0  0  0  0  0
   16.0920   -2.3813   21.5516 H   0  0  0  0  0  0  0  0  0  0  0  0
   16.5381   -0.6413   21.5516 H   0  0  0  0  0  0  0  0  0  0  0  0
   11.5960   -2.2130   23.3129 H   0  0  0  0  0  0  0  0  0  0  0  0
   10.2899    1.0309   22.7655 H   0  0  0  0  0  0  0  0  0  0  0  0
    9.9646    0.0202   21.3167 H   0  0  0  0  0  0  0  0  0  0  0  0
  1  2  2  0
  2  3  1  0
  2  4  1  0
  4  5  2  0
  4  6  1  0
  6  7  2  3
  7  8  1  0
  8  9  2  0
  8 15  1  0
  9 10  1  0
  9 11  1  0
 11 12  1  0
 11 13  2  0
 13 14  1  0
 14 15  2  0
 15 16  1  0
 16 17  1  0
 17 18  1  0
 18 19  2  0
 18 20  1  1
 18 21  1  0
  5 22  1  0
  5 23  1  0
  7 24  1  0
 10 25  1  0
 12 26  1  0
 12 27  1  0
 12 28  1  0
 14 29  1  0
 16 30  1  0
 16 31  1  0
M  CHG  3   3  -1  20  -1  21  -1
M  END
>  <filename_input>  (11) 
7LEV_0JO_docked.sdf

>  <pdb_id>  (11) 
7LEV_0JO

>  <pose_rank>  (11) 
10

>  <num_atoms_heavy>  (11) 
21

>  <num_torsions>  (11) 
6

>  <pose>  (11) 
[12.756388227962004, 0.478209257794872, 21.65246687903887, -0.6455622458992244, -3.8209004674370908, -0.5391582225907918, -1.5108825860367627, 0.9430720505571519, -2.045387840541917, 2.0210397474988664, 0.2599324708654299, -1.7071767501785893]

>  <energy>  (11) 
-382.0837968584683

>  <inter_energy>  (11) 
-395.59617316260983

>  <intra_energy>  (11) 
7.778545919268792

>  <rmsd>  (11) 
7.89382

>  <sdf_rank>  (11) 
0

$$$$

     RDKit          3D

 31 31  0  0  0  0  0  0  0  0999 V2000
    6.9325  -10.7228   29.0919 O   0  0  0  0  0  0  0  0  0  0  0  0
    8.0553  -10.7876   29.6573 C   0  0  0  0  0  0  0  0  0  0  0  0
    8.7406  -11.8410   29.5758 O   0  0  0  0  0  0  0  0  0  0  0  0
    8.5858   -9.5896   30.4436 C   0  0  0  0  0  0  0  0  0  0  0  0
    7.7663   -8.8798   31.1933 C   0  0  0  0  0  0  0  0  0  0  0  0
    9.9907   -9.2331   30.3649 N   0  0  0  0  0  0  0  0  0  0  0  0
   10.3490   -8.2565   29.6710 C   0  0  0  0  0  0  0  0  0  0  0  0
   11.8266   -7.8798   29.5859 C   0  0  0  0  0  0  0  0  0  0  0  0
   12.4272   -7.2512   30.6264 C   0  0  0  0  0  0  0  0  0  0  0  0
   11.6940   -6.9471   31.7809 O   0  0  0  0  0  0  0  0  0  0  0  0
   13.7671   -6.9095   30.5485 C   0  0  0  0  0  0  0  0  0  0  0  0
   14.4437   -6.2016   31.7200 C   0  0  0  0  0  0  0  0  0  0  0  0
   14.4763   -7.2023   29.4351 N   0  0  0  0  0  0  0  0  0  0  0  0
   13.8788   -7.8291   28.3956 C   0  0  0  0  0  0  0  0  0  0  0  0
   12.5381   -8.1727   28.4705 C   0  0  0  0  0  0  0  0  0  0  0  0
   11.8643   -8.8820   27.2958 C   0  0  0  0  0  0  0  0  0  0  0  0
   11.7786   -8.0057   26.2095 O   0  0  0  0  0  0  0  0  0  0  0  0
   12.5195   -8.4296   24.7985 P   0  0  1  0  0  0  0  0  0  0  0  0
   11.7799   -7.8100   23.6371 O   0  0  0  0  0  0  0  0  0  0  0  0
   13.9448   -7.9330   24.8092 O   0  0  0  0  0  0  0  0  0  0  0  0
   12.5114   -9.9340   24.6559 O   0  0  0  0  0  0  0  0  0  0  0  0
    8.1470   -8.0171   31.7598 H   0  0  0  0  0  0  0  0  0  0  0  0
    6.7016   -9.1501   31.2525 H   0  0  0  0  0  0  0  0  0  0  0  0
    9.5993   -7.6683   29.1215 H   0  0  0  0  0  0  0  0  0  0  0  0
   12.1336   -6.4881   32.5400 H   0  0  0  0  0  0  0  0  0  0  0  0
   14.0564   -6.6068   32.6664 H   0  0  0  0  0  0  0  0  0  0  0  0
   15.5304   -6.3646   31.6687 H   0  0  0  0  0  0  0  0  0  0  0  0
   14.2319   -5.1234   31.6687 H   0  0  0  0  0  0  0  0  0  0  0  0
   14.4573   -8.0661   27.4905 H   0  0  0  0  0  0  0  0  0  0  0  0
   12.4577   -9.7631   27.0102 H   0  0  0  0  0  0  0  0  0  0  0  0
   10.8536   -9.2005   27.5906 H   0  0  0  0  0  0  0  0  0  0  0  0
  1  2  2  0
  2  3  1  0
  2  4  1  0
  4  5  2  0
  4  6  1  0
  6  7  2  3
  7  8  1  0
  8  9  2  0
  8 15  1  0
  9 10  1  0
  9 11  1  0
 11 12  1  0
 11 13  2  0
 13 14  1  0
 14 15  2  0
 15 16  1  0
 16 17  1  0
 17 18  1  0
 18 19  2  0
 18 20  1  1
 18 21  1  0
  5 22  1  0
  5 23  1  0
  7 24  1  0
 10 25  1  0
 12 26  1  0
 12 27  1  0
 12 28  1  0
 14 29  1  0
 16 30  1  0
 16 31  1  0
M  CHG  3   3  -1  20  -1  21  -1
M  END
>  <filename_input>  (12) 
7LEV_0JO_docked.sdf

>  <pdb_id>  (12) 
7LEV_0JO

>  <pose_rank>  (12) 
11

>  <num_atoms_heavy>  (12) 
21

>  <num_torsions>  (12) 
6

>  <pose>  (12) 
[11.826586513608863, -7.879814267653067, 29.58586949270597, 0.7439226515352021, -1.2091417110608398, -3.106539247386442, -1.756718621259626, -1.1816386597908262, 0.9161183770816533, 0.7168803469756478, 0.23757494345360233, -0.32692835056901587]

>  <energy>  (12) 
-202.48866673573858

>  <inter_energy>  (12) 
-189.30602534804538

>  <intra_energy>  (12) 
3.59438112971753

>  <rmsd>  (12) 
11.1654

>  <sdf_rank>  (12) 
0

$$$$

     RDKit          3D

 31 31  0  0  0  0  0  0  0  0999 V2000
    8.1091   -9.5407   30.8510 O   0  0  0  0  0  0  0  0  0  0  0  0
    9.0972   -8.7882   30.6461 C   0  0  0  0  0  0  0  0  0  0  0  0
    8.9557   -7.5377   30.6933 O   0  0  0  0  0  0  0  0  0  0  0  0
   10.4669   -9.3915   30.3387 C   0  0  0  0  0  0  0  0  0  0  0  0
   10.8510  -10.4959   30.9473 C   0  0  0  0  0  0  0  0  0  0  0  0
   11.3449   -8.7490   29.3776 N   0  0  0  0  0  0  0  0  0  0  0  0
   11.9650   -9.4397   28.5397 C   0  0  0  0  0  0  0  0  0  0  0  0
   12.8900   -8.7664   27.5279 C   0  0  0  0  0  0  0  0  0  0  0  0
   12.4416   -8.4897   26.2785 C   0  0  0  0  0  0  0  0  0  0  0  0
   11.1298   -8.8201   25.9141 O   0  0  0  0  0  0  0  0  0  0  0  0
   13.2810   -7.8795   25.3613 C   0  0  0  0  0  0  0  0  0  0  0  0
   12.7765   -7.5678   23.9543 C   0  0  0  0  0  0  0  0  0  0  0  0
   14.5473   -7.5598   25.7113 N   0  0  0  0  0  0  0  0  0  0  0  0
   14.9968   -7.8355   26.9573 C   0  0  0  0  0  0  0  0  0  0  0  0
   14.1592   -8.4458   27.8777 C   0  0  0  0  0  0  0  0  0  0  0  0
   14.6677   -8.7557   29.2857 C   0  0  0  0  0  0  0  0  0  0  0  0
   14.8537   -7.5606   29.9874 O   0  0  0  0  0  0  0  0  0  0  0  0
   16.1411   -7.4435   31.0113 P   0  0  1  0  0  0  0  0  0  0  0  0
   17.3556   -6.9846   30.2405 O   0  0  0  0  0  0  0  0  0  0  0  0
   15.8297   -6.4450   32.0996 O   0  0  0  0  0  0  0  0  0  0  0  0
   16.4181   -8.7937   31.6308 O   0  0  0  0  0  0  0  0  0  0  0  0
   11.8369  -10.9310   30.7267 H   0  0  0  0  0  0  0  0  0  0  0  0
   10.1855  -10.9823   31.6757 H   0  0  0  0  0  0  0  0  0  0  0  0
   11.8442  -10.5330   28.5313 H   0  0  0  0  0  0  0  0  0  0  0  0
   10.8036   -8.6175   25.0015 H   0  0  0  0  0  0  0  0  0  0  0  0
   11.8424   -6.9906   24.0192 H   0  0  0  0  0  0  0  0  0  0  0  0
   13.5340   -6.9800   23.4151 H   0  0  0  0  0  0  0  0  0  0  0  0
   12.5898   -8.5082   23.4151 H   0  0  0  0  0  0  0  0  0  0  0  0
   16.0274   -7.5750   27.2401 H   0  0  0  0  0  0  0  0  0  0  0  0
   13.9308   -9.3796   29.8127 H   0  0  0  0  0  0  0  0  0  0  0  0
   15.6242   -9.2949   29.2197 H   0  0  0  0  0  0  0  0  0  0  0  0
  1  2  2  0
  2  3  1  0
  2  4  1  0
  4  5  2  0
  4  6  1  0
  6  7  2  3
  7  8  1  0
  8  9  2  0
  8 15  1  0
  9 10  1  0
  9 11  1  0
 11 12  1  0
 11 13  2  0
 13 14  1  0
 14 15  2  0
 15 16  1  0
 16 17  1  0
 17 18  1  0
 18 19  2  0
 18 20  1  1
 18 21  1  0
  5 22  1  0
  5 23  1  0
  7 24  1  0
 10 25  1  0
 12 26  1  0
 12 27  1  0
 12 28  1  0
 14 29  1  0
 16 30  1  0
 16 31  1  0
M  CHG  3   3  -1  20  -1  21  -1
M  END
>  <filename_input>  (13) 
7LEV_0JO_docked.sdf

>  <pdb_id>  (13) 
7LEV_0JO

>  <pose_rank>  (13) 
12

>  <num_atoms_heavy>  (13) 
21

>  <num_torsions>  (13) 
6

>  <pose>  (13) 
[12.889956015201053, -8.76639221720938, 27.527914754585012, 1.352013084381377, -1.819564249112342, 0.013005417860801727, -2.1301063843080277, 0.9044086300467232, -0.4288501731276985, -3.1700240924931538, 1.9301753233054215, -1.451939124611397]

>  <energy>  (13) 
-146.46167082524747

>  <inter_energy>  (13) 
-144.4640062126882

>  <intra_energy>  (13) 
4.263918483590288

>  <rmsd>  (13) 
12.0153

>  <sdf_rank>  (13) 
0

$$$$

     RDKit          3D

 31 31  0  0  0  0  0  0  0  0999 V2000
   16.6369   -7.3916   31.1291 O   0  0  0  0  0  0  0  0  0  0  0  0
   15.7392   -6.6566   30.6408 C   0  0  0  0  0  0  0  0  0  0  0  0
   15.1591   -5.8062   31.3662 O   0  0  0  0  0  0  0  0  0  0  0  0
   15.3525   -6.7972   29.1693 C   0  0  0  0  0  0  0  0  0  0  0  0
   16.1675   -6.3597   28.2302 C   0  0  0  0  0  0  0  0  0  0  0  0
   14.0887   -7.4117   28.8055 N   0  0  0  0  0  0  0  0  0  0  0  0
   13.7614   -8.5097   29.3066 C   0  0  0  0  0  0  0  0  0  0  0  0
   12.4327   -9.1588   28.9249 C   0  0  0  0  0  0  0  0  0  0  0  0
   11.2721   -8.6801   29.4374 C   0  0  0  0  0  0  0  0  0  0  0  0
   11.2899   -7.5895   30.3167 O   0  0  0  0  0  0  0  0  0  0  0  0
   10.0675   -9.2694   29.0913 C   0  0  0  0  0  0  0  0  0  0  0  0
    8.7606   -8.7307   29.6682 C   0  0  0  0  0  0  0  0  0  0  0  0
   10.0484  -10.3220   28.2427 N   0  0  0  0  0  0  0  0  0  0  0  0
   11.2053  -10.8014   27.7306 C   0  0  0  0  0  0  0  0  0  0  0  0
   12.4125  -10.2137   28.0748 C   0  0  0  0  0  0  0  0  0  0  0  0
   13.7190  -10.7555   27.4946 C   0  0  0  0  0  0  0  0  0  0  0  0
   13.4393  -11.5472   26.3764 O   0  0  0  0  0  0  0  0  0  0  0  0
   14.1341  -11.1448   24.9360 P   0  0  1  0  0  0  0  0  0  0  0  0
   13.9392  -12.2732   23.9518 O   0  0  0  0  0  0  0  0  0  0  0  0
   13.4877   -9.8914   24.3979 O   0  0  0  0  0  0  0  0  0  0  0  0
   15.6119  -10.9024   25.1382 O   0  0  0  0  0  0  0  0  0  0  0  0
   15.8901   -6.4604   27.1705 H   0  0  0  0  0  0  0  0  0  0  0  0
   17.1250   -5.8939   28.5062 H   0  0  0  0  0  0  0  0  0  0  0  0
   14.4310   -9.0083   30.0228 H   0  0  0  0  0  0  0  0  0  0  0  0
   10.4419   -7.2409   30.6902 H   0  0  0  0  0  0  0  0  0  0  0  0
    8.8090   -8.7506   30.7669 H   0  0  0  0  0  0  0  0  0  0  0  0
    8.6078   -7.6963   29.3266 H   0  0  0  0  0  0  0  0  0  0  0  0
    7.9233   -9.3570   29.3266 H   0  0  0  0  0  0  0  0  0  0  0  0
   11.1879  -11.6581   27.0408 H   0  0  0  0  0  0  0  0  0  0  0  0
   14.3643   -9.9158   27.1972 H   0  0  0  0  0  0  0  0  0  0  0  0
   14.2338  -11.3623   28.2540 H   0  0  0  0  0  0  0  0  0  0  0  0
  1  2  2  0
  2  3  1  0
  2  4  1  0
  4  5  2  0
  4  6  1  0
  6  7  2  3
  7  8  1  0
  8  9  2  0
  8 15  1  0
  9 10  1  0
  9 11  1  0
 11 12  1  0
 11 13  2  0
 13 14  1  0
 14 15  2  0
 15 16  1  0
 16 17  1  0
 17 18  1  0
 18 19  2  0
 18 20  1  6
 18 21  1  0
  5 22  1  0
  5 23  1  0
  7 24  1  0
 10 25  1  0
 12 26  1  0
 12 27  1  0
 12 28  1  0
 14 29  1  0
 16 30  1  0
 16 31  1  0
M  CHG  3   3  -1  20  -1  21  -1
M  END
>  <filename_input>  (14) 
7LEV_0JO_docked.sdf

>  <pdb_id>  (14) 
7LEV_0JO

>  <pose_rank>  (14) 
13

>  <num_atoms_heavy>  (14) 
21

>  <num_torsions>  (14) 
6

>  <pose>  (14) 
[12.432653186062836, -9.158786783544839, 28.92494508170029, -0.35202163375861373, -0.3329962069317846, -0.2819288838440804, 4.523183972883188, 2.432361265742483, -1.0509613956239063, 2.2086946391261013, 0.2748606523328894, -0.029458534165005653]

>  <energy>  (14) 
-143.47812190976336

>  <inter_energy>  (14) 
-139.6606378690186

>  <intra_energy>  (14) 
3.2123616641998107

>  <rmsd>  (14) 
10.9353

>  <sdf_rank>  (14) 
0

$$$$

     RDKit          3D

 31 31  0  0  0  0  0  0  0  0999 V2000
   11.4712  -11.1495   30.6965 O   0  0  0  0  0  0  0  0  0  0  0  0
   10.4397  -10.5656   30.2726 C   0  0  0  0  0  0  0  0  0  0  0  0
    9.4778  -11.2393   29.8178 O   0  0  0  0  0  0  0  0  0  0  0  0
   10.3554   -9.0404   30.3082 C   0  0  0  0  0  0  0  0  0  0  0  0
   11.3263   -8.3155   29.7891 C   0  0  0  0  0  0  0  0  0  0  0  0
    9.2074   -8.3899   30.9133 N   0  0  0  0  0  0  0  0  0  0  0  0
    8.2467   -8.0281   30.1993 C   0  0  0  0  0  0  0  0  0  0  0  0
    7.0380   -7.3428   30.8332 C   0  0  0  0  0  0  0  0  0  0  0  0
    7.0456   -6.0014   31.0314 C   0  0  0  0  0  0  0  0  0  0  0  0
    8.1612   -5.2423   30.6543 O   0  0  0  0  0  0  0  0  0  0  0  0
    5.9495   -5.3805   31.6066 C   0  0  0  0  0  0  0  0  0  0  0  0
    5.9576   -3.8701   31.8299 C   0  0  0  0  0  0  0  0  0  0  0  0
    4.8718   -6.1116   31.9710 N   0  0  0  0  0  0  0  0  0  0  0  0
    4.8625   -7.4502   31.7747 C   0  0  0  0  0  0  0  0  0  0  0  0
    5.9578   -8.0746   31.1989 C   0  0  0  0  0  0  0  0  0  0  0  0
    5.9456   -9.5870   30.9764 C   0  0  0  0  0  0  0  0  0  0  0  0
    4.7083   -9.9705   30.4497 O   0  0  0  0  0  0  0  0  0  0  0  0
    4.2677  -11.5561   30.5551 P   0  0  1  0  0  0  0  0  0  0  0  0
    3.7963  -12.0372   29.2037 O   0  0  0  0  0  0  0  0  0  0  0  0
    5.4530  -12.3799   30.9963 O   0  0  0  0  0  0  0  0  0  0  0  0
    3.1494  -11.7038   31.5606 O   0  0  0  0  0  0  0  0  0  0  0  0
   11.2666   -7.2174   29.8142 H   0  0  0  0  0  0  0  0  0  0  0  0
   12.1962   -8.8087   29.3308 H   0  0  0  0  0  0  0  0  0  0  0  0
    8.2722   -8.2036   29.1136 H   0  0  0  0  0  0  0  0  0  0  0  0
    8.1655   -4.2630   30.7995 H   0  0  0  0  0  0  0  0  0  0  0  0
    5.9588   -3.6591   32.9095 H   0  0  0  0  0  0  0  0  0  0  0  0
    6.8581   -3.4365   31.3706 H   0  0  0  0  0  0  0  0  0  0  0  0
    5.0619   -3.4267   31.3706 H   0  0  0  0  0  0  0  0  0  0  0  0
    3.9851   -8.0433   32.0722 H   0  0  0  0  0  0  0  0  0  0  0  0
    6.7447   -9.8604   30.2716 H   0  0  0  0  0  0  0  0  0  0  0  0
    6.1110  -10.1001   31.9352 H   0  0  0  0  0  0  0  0  0  0  0  0
  1  2  2  0
  2  3  1  0
  2  4  1  0
  4  5  2  0
  4  6  1  0
  6  7  2  3
  7  8  1  0
  8  9  2  0
  8 15  1  0
  9 10  1  0
  9 11  1  0
 11 12  1  0
 11 13  2  0
 13 14  1  0
 14 15  2  0
 15 16  1  0
 16 17  1  0
 17 18  1  0
 18 19  2  0
 18 20  1  1
 18 21  1  0
  5 22  1  0
  5 23  1  0
  7 24  1  0
 10 25  1  0
 12 26  1  0
 12 27  1  0
 12 28  1  0
 14 29  1  0
 16 30  1  0
 16 31  1  0
M  CHG  3   3  -1  20  -1  21  -1
M  END
>  <filename_input>  (15) 
7LEV_0JO_docked.sdf

>  <pdb_id>  (15) 
7LEV_0JO

>  <pose_rank>  (15) 
14

>  <num_atoms_heavy>  (15) 
21

>  <num_torsions>  (15) 
6

>  <pose>  (15) 
[7.03804130103667, -7.342813913032993, 30.83324774231649, 3.804519377939901, -1.3170250334651652, 2.431568592788921, 1.062960239435799, 1.631848681233685, 1.1228954637175672, -9.890099389376301, -10.963200241243102, 1.0345152768089108]

>  <energy>  (15) 
-140.79716742739828

>  <inter_energy>  (15) 
-137.70361046881033

>  <intra_energy>  (15) 
3.001920832817615

>  <rmsd>  (15) 
11.7354

>  <sdf_rank>  (15) 
0

$$$$

     RDKit          3D

 31 31  0  0  0  0  0  0  0  0999 V2000
    2.7640    6.3421   24.5405 O   0  0  0  0  0  0  0  0  0  0  0  0
    1.6055    5.8747   24.3850 C   0  0  0  0  0  0  0  0  0  0  0  0
    1.2158    5.5282   23.2387 O   0  0  0  0  0  0  0  0  0  0  0  0
    0.6721    5.7294   25.5859 C   0  0  0  0  0  0  0  0  0  0  0  0
   -0.6325    5.8198   25.4199 C   0  0  0  0  0  0  0  0  0  0  0  0
    1.2211    5.4924   26.9086 N   0  0  0  0  0  0  0  0  0  0  0  0
    0.4739    5.5302   27.9105 C   0  0  0  0  0  0  0  0  0  0  0  0
    1.0491    5.2820   29.3034 C   0  0  0  0  0  0  0  0  0  0  0  0
    1.8275    6.2228   29.8932 C   0  0  0  0  0  0  0  0  0  0  0  0
    2.1044    7.4235   29.2265 O   0  0  0  0  0  0  0  0  0  0  0  0
    2.3491    5.9971   31.1561 C   0  0  0  0  0  0  0  0  0  0  0  0
    3.2256    7.0561   31.8205 C   0  0  0  0  0  0  0  0  0  0  0  0
    2.0828    4.8388   31.8010 N   0  0  0  0  0  0  0  0  0  0  0  0
    1.3068    3.8986   31.2141 C   0  0  0  0  0  0  0  0  0  0  0  0
    0.7829    4.1216   29.9504 C   0  0  0  0  0  0  0  0  0  0  0  0
   -0.0948    3.0591   29.2887 C   0  0  0  0  0  0  0  0  0  0  0  0
    0.1300    1.8220   29.9005 O   0  0  0  0  0  0  0  0  0  0  0  0
   -1.1064    0.7317   29.9445 P   0  0  1  0  0  0  0  0  0  0  0  0
   -1.0398   -0.1528   28.7225 O   0  0  0  0  0  0  0  0  0  0  0  0
   -0.9850   -0.1174   31.1866 O   0  0  0  0  0  0  0  0  0  0  0  0
   -2.4269    1.4660   29.9635 O   0  0  0  0  0  0  0  0  0  0  0  0
   -1.3054    5.7153   26.2838 H   0  0  0  0  0  0  0  0  0  0  0  0
   -1.0482    5.9995   24.4175 H   0  0  0  0  0  0  0  0  0  0  0  0
   -0.5986    5.7423   27.7886 H   0  0  0  0  0  0  0  0  0  0  0  0
    2.6728    8.1096   29.6582 H   0  0  0  0  0  0  0  0  0  0  0  0
    3.1484    6.9628   32.9138 H   0  0  0  0  0  0  0  0  0  0  0  0
    4.2719    6.9116   31.5131 H   0  0  0  0  0  0  0  0  0  0  0  0
    2.8881    8.0569   31.5131 H   0  0  0  0  0  0  0  0  0  0  0  0
    1.0915    2.9568   31.7401 H   0  0  0  0  0  0  0  0  0  0  0  0
   -1.1534    3.3364   29.4004 H   0  0  0  0  0  0  0  0  0  0  0  0
    0.1553    2.9904   28.2198 H   0  0  0  0  0  0  0  0  0  0  0  0
  1  2  2  0
  2  3  1  0
  2  4  1  0
  4  5  2  0
  4  6  1  0
  6  7  2  3
  7  8  1  0
  8  9  2  0
  8 15  1  0
  9 10  1  0
  9 11  1  0
 11 12  1  0
 11 13  2  0
 13 14  1  0
 14 15  2  0
 15 16  1  0
 16 17  1  0
 17 18  1  0
 18 19  2  0
 18 20  1  1
 18 21  1  0
  5 22  1  0
  5 23  1  0
  7 24  1  0
 10 25  1  0
 12 26  1  0
 12 27  1  0
 12 28  1  0
 14 29  1  0
 16 30  1  0
 16 31  1  0
M  CHG  3   3  -1  20  -1  21  -1
M  END
>  <filename_input>  (16) 
7LEV_0JO_docked.sdf

>  <pdb_id>  (16) 
7LEV_0JO

>  <pose_rank>  (16) 
15

>  <num_atoms_heavy>  (16) 
21

>  <num_torsions>  (16) 
6

>  <pose>  (16) 
[1.0491261526364284, 5.282025069181145, 29.303407147384355, 2.058620788924543, -3.733778211315895, -0.7490187331668103, 0.8288244204868799, 0.005183030627365429, 2.8433203347836127, 1.5604884718366863, 0.7576385950202398, -1.3787015110168963]

>  <energy>  (16) 
-143.1048101355735

>  <inter_energy>  (16) 
-139.4183941927024

>  <intra_energy>  (16) 
3.8875803952151147

>  <rmsd>  (16) 
12.7318

>  <sdf_rank>  (16) 
0

$$$$

     RDKit          3D

 31 31  0  0  0  0  0  0  0  0999 V2000
    3.7943    6.2157   15.8245 O   0  0  0  0  0  0  0  0  0  0  0  0
    3.5008    6.4843   14.6303 C   0  0  0  0  0  0  0  0  0  0  0  0
    4.2940    7.1620   13.9249 O   0  0  0  0  0  0  0  0  0  0  0  0
    2.1823    5.9898   14.0372 C   0  0  0  0  0  0  0  0  0  0  0  0
    2.0274    5.9389   12.7292 C   0  0  0  0  0  0  0  0  0  0  0  0
    1.1010    5.5767   14.9132 N   0  0  0  0  0  0  0  0  0  0  0  0
    1.0569    4.4018   15.3389 C   0  0  0  0  0  0  0  0  0  0  0  0
   -0.0801    3.9643   16.2600 C   0  0  0  0  0  0  0  0  0  0  0  0
   -0.0186    4.2323   17.5878 C   0  0  0  0  0  0  0  0  0  0  0  0
    1.0871    4.9113   18.1165 O   0  0  0  0  0  0  0  0  0  0  0  0
   -1.0497    3.8350   18.4226 C   0  0  0  0  0  0  0  0  0  0  0  0
   -0.9808    4.1366   19.9177 C   0  0  0  0  0  0  0  0  0  0  0  0
   -2.1176    3.1797   17.9141 N   0  0  0  0  0  0  0  0  0  0  0  0
   -2.1807    2.9108   16.5895 C   0  0  0  0  0  0  0  0  0  0  0  0
   -1.1505    3.3074   15.7513 C   0  0  0  0  0  0  0  0  0  0  0  0
   -1.2235    3.0042   14.2547 C   0  0  0  0  0  0  0  0  0  0  0  0
   -0.4456    1.8779   13.9690 O   0  0  0  0  0  0  0  0  0  0  0  0
   -1.1589    0.6056   13.1997 P   0  0  1  0  0  0  0  0  0  0  0  0
   -0.0923   -0.3060   12.6418 O   0  0  0  0  0  0  0  0  0  0  0  0
   -2.0129   -0.1611   14.1802 O   0  0  0  0  0  0  0  0  0  0  0  0
   -2.0240    1.1181   12.0717 O   0  0  0  0  0  0  0  0  0  0  0  0
    1.0786    5.5831   12.3011 H   0  0  0  0  0  0  0  0  0  0  0  0
    2.8469    6.2523   12.0656 H   0  0  0  0  0  0  0  0  0  0  0  0
    1.8377    3.6828   15.0499 H   0  0  0  0  0  0  0  0  0  0  0  0
    1.1308    5.1064   19.0861 H   0  0  0  0  0  0  0  0  0  0  0  0
   -1.1905    3.2190   20.4869 H   0  0  0  0  0  0  0  0  0  0  0  0
    0.0245    4.5039   20.1717 H   0  0  0  0  0  0  0  0  0  0  0  0
   -1.7266    4.9042   20.1717 H   0  0  0  0  0  0  0  0  0  0  0  0
   -3.0500    2.3773   16.1777 H   0  0  0  0  0  0  0  0  0  0  0  0
   -2.2682    2.8100   13.9704 H   0  0  0  0  0  0  0  0  0  0  0  0
   -0.8433    3.8662   13.6869 H   0  0  0  0  0  0  0  0  0  0  0  0
  1  2  2  0
  2  3  1  0
  2  4  1  0
  4  5  2  0
  4  6  1  0
  6  7  2  3
  7  8  1  0
  8  9  2  0
  8 15  1  0
  9 10  1  0
  9 11  1  0
 11 12  1  0
 11 13  2  0
 13 14  1  0
 14 15  2  0
 15 16  1  0
 16 17  1  0
 17 18  1  0
 18 19  2  0
 18 20  1  1
 18 21  1  0
  5 22  1  0
  5 23  1  0
  7 24  1  0
 10 25  1  0
 12 26  1  0
 12 27  1  0
 12 28  1  0
 14 29  1  0
 16 30  1  0
 16 31  1  0
M  CHG  3   3  -1  20  -1  21  -1
M  END
>  <filename_input>  (17) 
7LEV_0JO_docked.sdf

>  <pdb_id>  (17) 
7LEV_0JO

>  <pose_rank>  (17) 
16

>  <num_atoms_heavy>  (17) 
21

>  <num_torsions>  (17) 
6

>  <pose>  (17) 
[-0.08007660080105486, 3.9642631590238526, 16.259992462135592, 1.006785947516203, -4.922912858963767, 1.9432342093626678, -1.8696312897235865, 1.786149135634155, -2.594542141666029, 0.1622664565309348, 0.3114945502714438, -0.10616210565307282]

>  <energy>  (17) 
-158.97650109971786

>  <inter_energy>  (17) 
-144.58698916001623

>  <intra_energy>  (17) 
8.664558548432243

>  <rmsd>  (17) 
11.9157

>  <sdf_rank>  (17) 
0

$$$$

     RDKit          3D

 31 31  0  0  0  0  0  0  0  0999 V2000
   17.5258   -8.5503   29.9477 O   0  0  0  0  0  0  0  0  0  0  0  0
   16.6790   -7.7434   30.4130 C   0  0  0  0  0  0  0  0  0  0  0  0
   16.6806   -7.4695   31.6422 O   0  0  0  0  0  0  0  0  0  0  0  0
   15.6489   -7.0978   29.4874 C   0  0  0  0  0  0  0  0  0  0  0  0
   15.1697   -5.9024   29.7685 C   0  0  0  0  0  0  0  0  0  0  0  0
   15.1981   -7.8001   28.2996 N   0  0  0  0  0  0  0  0  0  0  0  0
   14.4888   -8.8238   28.4113 C   0  0  0  0  0  0  0  0  0  0  0  0
   14.0138   -9.5650   27.1633 C   0  0  0  0  0  0  0  0  0  0  0  0
   14.8234  -10.4732   26.5647 C   0  0  0  0  0  0  0  0  0  0  0  0
   16.0959  -10.7335   27.0901 O   0  0  0  0  0  0  0  0  0  0  0  0
   14.3924  -11.1448   25.4328 C   0  0  0  0  0  0  0  0  0  0  0  0
   15.3037  -12.1675   24.7584 C   0  0  0  0  0  0  0  0  0  0  0  0
   13.1646  -10.8949   24.9243 N   0  0  0  0  0  0  0  0  0  0  0  0
   12.3554   -9.9888   25.5199 C   0  0  0  0  0  0  0  0  0  0  0  0
   12.7837   -9.3152   26.6530 C   0  0  0  0  0  0  0  0  0  0  0  0
   11.8680   -8.2924   27.3257 C   0  0  0  0  0  0  0  0  0  0  0  0
   11.5166   -8.7487   28.5999 O   0  0  0  0  0  0  0  0  0  0  0  0
   10.0833   -9.5439   28.7814 P   0  0  1  0  0  0  0  0  0  0  0  0
   10.3509  -11.0008   29.0742 O   0  0  0  0  0  0  0  0  0  0  0  0
    9.3110   -8.9348   29.9264 O   0  0  0  0  0  0  0  0  0  0  0  0
    9.2756   -9.4257   27.5098 O   0  0  0  0  0  0  0  0  0  0  0  0
   14.4281   -5.4367   29.1028 H   0  0  0  0  0  0  0  0  0  0  0  0
   15.5114   -5.3706   30.6687 H   0  0  0  0  0  0  0  0  0  0  0  0
   14.2067   -9.1908   29.4092 H   0  0  0  0  0  0  0  0  0  0  0  0
   16.6861  -11.3968   26.6522 H   0  0  0  0  0  0  0  0  0  0  0  0
   15.8273  -12.7550   25.5269 H   0  0  0  0  0  0  0  0  0  0  0  0
   14.6997  -12.8396   24.1313 H   0  0  0  0  0  0  0  0  0  0  0  0
   16.0407  -11.6445   24.1313 H   0  0  0  0  0  0  0  0  0  0  0  0
   11.3571   -9.7865   25.1045 H   0  0  0  0  0  0  0  0  0  0  0  0
   12.3944   -7.3305   27.4130 H   0  0  0  0  0  0  0  0  0  0  0  0
   10.9593   -8.1595   26.7203 H   0  0  0  0  0  0  0  0  0  0  0  0
  1  2  2  0
  2  3  1  0
  2  4  1  0
  4  5  2  0
  4  6  1  0
  6  7  2  3
  7  8  1  0
  8  9  2  0
  8 15  1  0
  9 10  1  0
  9 11  1  0
 11 12  1  0
 11 13  2  0
 13 14  1  0
 14 15  2  0
 15 16  1  0
 16 17  1  0
 17 18  1  0
 18 19  2  0
 18 20  1  1
 18 21  1  0
  5 22  1  0
  5 23  1  0
  7 24  1  0
 10 25  1  0
 12 26  1  0
 12 27  1  0
 12 28  1  0
 14 29  1  0
 16 30  1  0
 16 31  1  0
M  CHG  3   3  -1  20  -1  21  -1
M  END
>  <filename_input>  (18) 
7LEV_0JO_docked.sdf

>  <pdb_id>  (18) 
7LEV_0JO

>  <pose_rank>  (18) 
17

>  <num_atoms_heavy>  (18) 
21

>  <num_torsions>  (18) 
6

>  <pose>  (18) 
[14.013807947762723, -9.565016307286266, 27.163312501963023, 1.6489630218915274, 1.0303583118382045, 1.352797602570974, -5.25811585419901, -1.7835913780941186, -2.4104623724470473, -2.3746588097748105, -9.824613724430584, -1.0386625114617858]

>  <energy>  (18) 
-156.84118413285594

>  <inter_energy>  (18) 
-151.12411011009084

>  <intra_energy>  (18) 
14.975580498023653

>  <rmsd>  (18) 
11.8794

>  <sdf_rank>  (18) 
0

$$$$

     RDKit          3D

 31 31  0  0  0  0  0  0  0  0999 V2000
   11.0642  -11.4277   30.1757 O   0  0  0  0  0  0  0  0  0  0  0  0
   11.9394  -10.5591   29.9224 C   0  0  0  0  0  0  0  0  0  0  0  0
   13.0174  -10.5442   30.5733 O   0  0  0  0  0  0  0  0  0  0  0  0
   11.6933   -9.5225   28.8272 C   0  0  0  0  0  0  0  0  0  0  0  0
   10.5444   -8.8783   28.7773 C   0  0  0  0  0  0  0  0  0  0  0  0
   12.7235   -9.2473   27.8423 N   0  0  0  0  0  0  0  0  0  0  0  0
   13.9025   -9.6053   28.0555 C   0  0  0  0  0  0  0  0  0  0  0  0
   14.9885   -9.3163   27.0213 C   0  0  0  0  0  0  0  0  0  0  0  0
   15.1876  -10.1732   25.9894 C   0  0  0  0  0  0  0  0  0  0  0  0
   14.3973  -11.3240   25.8699 O   0  0  0  0  0  0  0  0  0  0  0  0
   16.1727   -9.9108   25.0520 C   0  0  0  0  0  0  0  0  0  0  0  0
   16.3972  -10.8755   23.8900 C   0  0  0  0  0  0  0  0  0  0  0  0
   16.9362   -8.8006   25.1657 N   0  0  0  0  0  0  0  0  0  0  0  0
   16.7396   -7.9446   26.1948 C   0  0  0  0  0  0  0  0  0  0  0  0
   15.7542   -8.2041   27.1344 C   0  0  0  0  0  0  0  0  0  0  0  0
   15.5321   -7.2355   28.2961 C   0  0  0  0  0  0  0  0  0  0  0  0
   15.8744   -7.8630   29.4979 O   0  0  0  0  0  0  0  0  0  0  0  0
   16.4392   -6.9322   30.7365 P   0  0  1  0  0  0  0  0  0  0  0  0
   15.2750   -6.2986   31.4598 O   0  0  0  0  0  0  0  0  0  0  0  0
   17.2198   -7.7942   31.6988 O   0  0  0  0  0  0  0  0  0  0  0  0
   17.3390   -5.8504   30.1856 O   0  0  0  0  0  0  0  0  0  0  0  0
   10.3661   -8.1318   27.9893 H   0  0  0  0  0  0  0  0  0  0  0  0
    9.7638   -9.0872   29.5237 H   0  0  0  0  0  0  0  0  0  0  0  0
   14.1577  -10.1288   28.9887 H   0  0  0  0  0  0  0  0  0  0  0  0
   14.5436  -11.9488   25.1161 H   0  0  0  0  0  0  0  0  0  0  0  0
   16.6300  -11.8759   24.2837 H   0  0  0  0  0  0  0  0  0  0  0  0
   15.4869  -10.9263   23.2746 H   0  0  0  0  0  0  0  0  0  0  0  0
   17.2364  -10.5192   23.2746 H   0  0  0  0  0  0  0  0  0  0  0  0
   17.3620   -7.0422   26.2858 H   0  0  0  0  0  0  0  0  0  0  0  0
   16.1610   -6.3441   28.1557 H   0  0  0  0  0  0  0  0  0  0  0  0
   14.4739   -6.9364   28.3270 H   0  0  0  0  0  0  0  0  0  0  0  0
  1  2  2  0
  2  3  1  0
  2  4  1  0
  4  5  2  0
  4  6  1  0
  6  7  2  3
  7  8  1  0
  8  9  2  0
  8 15  1  0
  9 10  1  0
  9 11  1  0
 11 12  1  0
 11 13  2  0
 13 14  1  0
 14 15  2  0
 15 16  1  0
 16 17  1  0
 17 18  1  0
 18 19  2  0
 18 20  1  1
 18 21  1  0
  5 22  1  0
  5 23  1  0
  7 24  1  0
 10 25  1  0
 12 26  1  0
 12 27  1  0
 12 28  1  0
 14 29  1  0
 16 30  1  0
 16 31  1  0
M  CHG  3   3  -1  20  -1  21  -1
M  END
>  <filename_input>  (19) 
7LEV_0JO_docked.sdf

>  <pdb_id>  (19) 
7LEV_0JO

>  <pose_rank>  (19) 
18

>  <num_atoms_heavy>  (19) 
21

>  <num_torsions>  (19) 
6

>  <pose>  (19) 
[14.988490786818494, -9.316316569138598, 27.021262152474755, 1.1694229398738225, -1.4126629249514984, 1.2350097909263207, -1.9279722644824837, 3.00093280154831, 1.0433657706542103, -0.07612247555490913, 0.7580337382482596, -1.5439097524222207]

>  <energy>  (19) 
-93.7568202094682

>  <inter_energy>  (19) 
-112.91973312203116

>  <intra_energy>  (19) 
30.996656037846556

>  <rmsd>  (19) 
13.0533

>  <sdf_rank>  (19) 
0

$$$$

     RDKit          3D

 31 31  0  0  0  0  0  0  0  0999 V2000
   16.4274   -6.4922   31.9303 O   0  0  0  0  0  0  0  0  0  0  0  0
   15.8015   -6.7886   30.8792 C   0  0  0  0  0  0  0  0  0  0  0  0
   16.1547   -6.2939   29.7762 O   0  0  0  0  0  0  0  0  0  0  0  0
   14.6129   -7.7468   30.9416 C   0  0  0  0  0  0  0  0  0  0  0  0
   14.0459   -8.0171   32.1005 C   0  0  0  0  0  0  0  0  0  0  0  0
   14.1084   -8.3591   29.7259 N   0  0  0  0  0  0  0  0  0  0  0  0
   12.9199   -8.1773   29.3822 C   0  0  0  0  0  0  0  0  0  0  0  0
   12.3864   -8.8211   28.1042 C   0  0  0  0  0  0  0  0  0  0  0  0
   12.7785   -8.3521   26.8938 C   0  0  0  0  0  0  0  0  0  0  0  0
   13.6737   -7.2773   26.8138 O   0  0  0  0  0  0  0  0  0  0  0  0
   12.2941   -8.9360   25.7352 C   0  0  0  0  0  0  0  0  0  0  0  0
   12.7353   -8.4081   24.3722 C   0  0  0  0  0  0  0  0  0  0  0  0
   11.4302   -9.9735   25.8106 N   0  0  0  0  0  0  0  0  0  0  0  0
   11.0373  -10.4427   27.0173 C   0  0  0  0  0  0  0  0  0  0  0  0
   11.5205   -9.8607   28.1787 C   0  0  0  0  0  0  0  0  0  0  0  0
   11.0769  -10.3925   29.5416 C   0  0  0  0  0  0  0  0  0  0  0  0
    9.6875  -10.5496   29.5508 O   0  0  0  0  0  0  0  0  0  0  0  0
    8.7816   -9.4750   30.4134 P   0  0  1  0  0  0  0  0  0  0  0  0
    9.6952   -8.5646   31.1986 O   0  0  0  0  0  0  0  0  0  0  0  0
    7.9422   -8.6506   29.4677 O   0  0  0  0  0  0  0  0  0  0  0  0
    7.8786  -10.2250   31.3650 O   0  0  0  0  0  0  0  0  0  0  0  0
   13.1902   -8.7067   32.1466 H   0  0  0  0  0  0  0  0  0  0  0  0
   14.4286   -7.5530   33.0215 H   0  0  0  0  0  0  0  0  0  0  0  0
   12.2582   -7.5533   30.0009 H   0  0  0  0  0  0  0  0  0  0  0  0
   13.9592   -6.9358   25.9295 H   0  0  0  0  0  0  0  0  0  0  0  0
   13.4350   -7.5710   24.5122 H   0  0  0  0  0  0  0  0  0  0  0  0
   13.2335   -9.2125   23.8112 H   0  0  0  0  0  0  0  0  0  0  0  0
   11.8553   -8.0606   23.8112 H   0  0  0  0  0  0  0  0  0  0  0  0
   10.3341  -11.2865   27.0766 H   0  0  0  0  0  0  0  0  0  0  0  0
   11.5570  -11.3641   29.7301 H   0  0  0  0  0  0  0  0  0  0  0  0
   11.3706   -9.6801   30.3266 H   0  0  0  0  0  0  0  0  0  0  0  0
  1  2  2  0
  2  3  1  0
  2  4  1  0
  4  5  2  0
  4  6  1  0
  6  7  2  3
  7  8  1  0
  8  9  2  0
  8 15  1  0
  9 10  1  0
  9 11  1  0
 11 12  1  0
 11 13  2  0
 13 14  1  0
 14 15  2  0
 15 16  1  0
 16 17  1  0
 17 18  1  0
 18 19  2  0
 18 20  1  6
 18 21  1  0
  5 22  1  0
  5 23  1  0
  7 24  1  0
 10 25  1  0
 12 26  1  0
 12 27  1  0
 12 28  1  0
 14 29  1  0
 16 30  1  0
 16 31  1  0
M  CHG  3   3  -1  20  -1  21  -1
M  END
>  <filename_input>  (20) 
7LEV_0JO_docked.sdf

>  <pdb_id>  (20) 
7LEV_0JO

>  <pose_rank>  (20) 
19

>  <num_atoms_heavy>  (20) 
21

>  <num_torsions>  (20) 
6

>  <pose>  (20) 
[12.38642627633484, -8.821145518000407, 28.104189727831425, -1.441374954685842, -1.7084892655359238, -1.3537401854595117, -1.6979222084063827, 1.1804489318109705, 0.4984291937030634, 1.081258601736712, -3.7295659724266206, 3.2025921900471825]

>  <energy>  (20) 
-131.7971154298744

>  <inter_energy>  (20) 
-116.51211174421331

>  <intra_energy>  (20) 
4.016181125786874

>  <rmsd>  (20) 
11.5114

>  <sdf_rank>  (20) 
0

$$$$

     RDKit          3D

 31 31  0  0  0  0  0  0  0  0999 V2000
   16.4754   -4.5512   31.4394 O   0  0  0  0  0  0  0  0  0  0  0  0
   15.4771   -5.0868   30.8905 C   0  0  0  0  0  0  0  0  0  0  0  0
   14.3208   -4.8696   31.3395 O   0  0  0  0  0  0  0  0  0  0  0  0
   15.6683   -6.0012   29.6814 C   0  0  0  0  0  0  0  0  0  0  0  0
   16.7448   -5.8819   28.9301 C   0  0  0  0  0  0  0  0  0  0  0  0
   14.6655   -7.0003   29.3600 N   0  0  0  0  0  0  0  0  0  0  0  0
   14.9193   -7.8920   28.5209 C   0  0  0  0  0  0  0  0  0  0  0  0
   13.8657   -8.9439   28.1803 C   0  0  0  0  0  0  0  0  0  0  0  0
   12.9582   -9.3220   29.1142 C   0  0  0  0  0  0  0  0  0  0  0  0
   12.9852   -8.7482   30.3921 O   0  0  0  0  0  0  0  0  0  0  0  0
   12.0033  -10.2762   28.8049 C   0  0  0  0  0  0  0  0  0  0  0  0
   10.9814  -10.7022   29.8562 C   0  0  0  0  0  0  0  0  0  0  0  0
   11.9757  -10.8309   27.5720 N   0  0  0  0  0  0  0  0  0  0  0  0
   12.8805  -10.4553   26.6389 C   0  0  0  0  0  0  0  0  0  0  0  0
   13.8374   -9.5005   26.9451 C   0  0  0  0  0  0  0  0  0  0  0  0
   14.8585   -9.0759   25.8896 C   0  0  0  0  0  0  0  0  0  0  0  0
   14.9080  -10.0378   24.8759 O   0  0  0  0  0  0  0  0  0  0  0  0
   16.3056  -10.8882   24.6682 P   0  0  1  0  0  0  0  0  0  0  0  0
   16.0436  -12.3539   24.9191 O   0  0  0  0  0  0  0  0  0  0  0  0
   16.8035  -10.7014   23.2555 O   0  0  0  0  0  0  0  0  0  0  0  0
   17.3495  -10.3894   25.6402 O   0  0  0  0  0  0  0  0  0  0  0  0
   16.8835   -6.5397   28.0594 H   0  0  0  0  0  0  0  0  0  0  0  0
   17.5045   -5.1246   29.1738 H   0  0  0  0  0  0  0  0  0  0  0  0
   15.9022   -7.9188   28.0277 H   0  0  0  0  0  0  0  0  0  0  0  0
   12.3221   -9.0252   31.0731 H   0  0  0  0  0  0  0  0  0  0  0  0
   11.3951  -10.5298   30.8607 H   0  0  0  0  0  0  0  0  0  0  0  0
   10.0608  -10.1130   29.7327 H   0  0  0  0  0  0  0  0  0  0  0  0
   10.7520  -11.7710   29.7327 H   0  0  0  0  0  0  0  0  0  0  0  0
   12.8568  -10.9080   25.6366 H   0  0  0  0  0  0  0  0  0  0  0  0
   14.5621   -8.1070   25.4615 H   0  0  0  0  0  0  0  0  0  0  0  0
   15.8505   -8.9828   26.3556 H   0  0  0  0  0  0  0  0  0  0  0  0
  1  2  2  0
  2  3  1  0
  2  4  1  0
  4  5  2  0
  4  6  1  0
  6  7  2  3
  7  8  1  0
  8  9  2  0
  8 15  1  0
  9 10  1  0
  9 11  1  0
 11 12  1  0
 11 13  2  0
 13 14  1  0
 14 15  2  0
 15 16  1  0
 16 17  1  0
 17 18  1  0
 18 19  2  0
 18 20  1  6
 18 21  1  0
  5 22  1  0
  5 23  1  0
  7 24  1  0
 10 25  1  0
 12 26  1  0
 12 27  1  0
 12 28  1  0
 14 29  1  0
 16 30  1  0
 16 31  1  0
M  CHG  3   3  -1  20  -1  21  -1
M  END
>  <filename_input>  (21) 
7LEV_0JO_docked.sdf

>  <pdb_id>  (21) 
7LEV_0JO

>  <pose_rank>  (21) 
20

>  <num_atoms_heavy>  (21) 
21

>  <num_torsions>  (21) 
6

>  <pose>  (21) 
[13.865690639323804, -8.943864886038265, 28.180256628842354, -3.911019089062593, -0.6216996148094306, -4.596734030268346, -0.9608597408501757, 0.3641031170377011, -0.1907776368569613, -10.977018509794181, 14.97681253647177, 5.3686747026150705]

>  <energy>  (21) 
-147.0825954738201

>  <inter_energy>  (21) 
-161.28066687991108

>  <intra_energy>  (21) 
22.458960766934204

>  <rmsd>  (21) 
11.3509

>  <sdf_rank>  (21) 
0

$$$$

     RDKit          3D

 31 31  0  0  0  0  0  0  0  0999 V2000
   16.9430   -4.5646   31.8319 O   0  0  0  0  0  0  0  0  0  0  0  0
   16.6213   -5.2292   30.8124 C   0  0  0  0  0  0  0  0  0  0  0  0
   17.1259   -4.9480   29.6934 O   0  0  0  0  0  0  0  0  0  0  0  0
   15.6180   -6.3754   30.9322 C   0  0  0  0  0  0  0  0  0  0  0  0
   14.8959   -6.5059   32.0273 C   0  0  0  0  0  0  0  0  0  0  0  0
   15.4601   -7.3200   29.8414 N   0  0  0  0  0  0  0  0  0  0  0  0
   14.3578   -7.4237   29.2601 C   0  0  0  0  0  0  0  0  0  0  0  0
   14.1887   -8.4173   28.1127 C   0  0  0  0  0  0  0  0  0  0  0  0
   14.7102   -8.1392   26.8923 C   0  0  0  0  0  0  0  0  0  0  0  0
   15.4053   -6.9410   26.6823 O   0  0  0  0  0  0  0  0  0  0  0  0
   14.5563   -9.0404   25.8521 C   0  0  0  0  0  0  0  0  0  0  0  0
   15.1433   -8.7276   24.4778 C   0  0  0  0  0  0  0  0  0  0  0  0
   13.8859  -10.1975   26.0529 N   0  0  0  0  0  0  0  0  0  0  0  0
   13.3643  -10.4767   27.2698 C   0  0  0  0  0  0  0  0  0  0  0  0
   13.5169   -9.5770   28.3130 C   0  0  0  0  0  0  0  0  0  0  0  0
   12.9283   -9.8941   29.6878 C   0  0  0  0  0  0  0  0  0  0  0  0
   11.5321   -9.8836   29.6105 O   0  0  0  0  0  0  0  0  0  0  0  0
   10.6998   -8.8438   30.5829 P   0  0  1  0  0  0  0  0  0  0  0  0
   11.3419   -8.8112   31.9492 O   0  0  0  0  0  0  0  0  0  0  0  0
   10.7282   -7.4598   29.9812 O   0  0  0  0  0  0  0  0  0  0  0  0
    9.2676   -9.3084   30.7103 O   0  0  0  0  0  0  0  0  0  0  0  0
   14.1733   -7.3306   32.1146 H   0  0  0  0  0  0  0  0  0  0  0  0
   15.0160   -5.7900   32.8538 H   0  0  0  0  0  0  0  0  0  0  0  0
   13.5093   -6.7987   29.5755 H   0  0  0  0  0  0  0  0  0  0  0  0
   15.7856   -6.7390   25.7909 H   0  0  0  0  0  0  0  0  0  0  0  0
   16.1081   -8.2134   24.5996 H   0  0  0  0  0  0  0  0  0  0  0  0
   15.2948   -9.6646   23.9218 H   0  0  0  0  0  0  0  0  0  0  0  0
   14.4500   -8.0793   23.9218 H   0  0  0  0  0  0  0  0  0  0  0  0
   12.8189  -11.4182   27.4312 H   0  0  0  0  0  0  0  0  0  0  0  0
   13.2701  -10.8878   30.0127 H   0  0  0  0  0  0  0  0  0  0  0  0
   13.2611   -9.1368   30.4128 H   0  0  0  0  0  0  0  0  0  0  0  0
  1  2  2  0
  2  3  1  0
  2  4  1  0
  4  5  2  0
  4  6  1  0
  6  7  2  3
  7  8  1  0
  8  9  2  0
  8 15  1  0
  9 10  1  0
  9 11  1  0
 11 12  1  0
 11 13  2  0
 13 14  1  0
 14 15  2  0
 15 16  1  0
 16 17  1  0
 17 18  1  0
 18 19  2  0
 18 20  1  6
 18 21  1  0
  5 22  1  0
  5 23  1  0
  7 24  1  0
 10 25  1  0
 12 26  1  0
 12 27  1  0
 12 28  1  0
 14 29  1  0
 16 30  1  0
 16 31  1  0
M  CHG  3   3  -1  20  -1  21  -1
M  END
>  <filename_input>  (22) 
7LEV_0JO_docked.sdf

>  <pdb_id>  (22) 
7LEV_0JO

>  <pose_rank>  (22) 
21

>  <num_atoms_heavy>  (22) 
21

>  <num_torsions>  (22) 
6

>  <pose>  (22) 
[14.18870683178208, -8.417340695478863, 28.112680793298406, -1.2674174649157834, -2.109987217628047, -1.232304585374418, -1.7555734335842597, 1.2301122330969925, 0.45300563902181157, 0.7282337441769499, -3.9878972590004236, 2.6150875615860087]

>  <energy>  (22) 
-126.99456101487037

>  <inter_energy>  (22) 
-124.92844246237092

>  <intra_energy>  (22) 
3.2531762776751902

>  <rmsd>  (22) 
12.0417

>  <sdf_rank>  (22) 
0

$$$$

     RDKit          3D

 31 31  0  0  0  0  0  0  0  0999 V2000
   -2.3674    4.4096   30.5556 O   0  0  0  0  0  0  0  0  0  0  0  0
   -2.1201    3.3308   29.9559 C   0  0  0  0  0  0  0  0  0  0  0  0
   -2.2941    3.2490   28.7113 O   0  0  0  0  0  0  0  0  0  0  0  0
   -1.6109    2.1207   30.7376 C   0  0  0  0  0  0  0  0  0  0  0  0
   -2.4310    1.1288   31.0223 C   0  0  0  0  0  0  0  0  0  0  0  0
   -0.2253    2.0633   31.1667 N   0  0  0  0  0  0  0  0  0  0  0  0
    0.6190    1.4577   30.4709 C   0  0  0  0  0  0  0  0  0  0  0  0
    2.0772    1.3951   30.9205 C   0  0  0  0  0  0  0  0  0  0  0  0
    2.6227    0.2099   31.2901 C   0  0  0  0  0  0  0  0  0  0  0  0
    1.8501   -0.9585   31.2595 O   0  0  0  0  0  0  0  0  0  0  0  0
    3.9449    0.1538   31.6981 C   0  0  0  0  0  0  0  0  0  0  0  0
    4.5594   -1.1805   32.1144 C   0  0  0  0  0  0  0  0  0  0  0  0
    4.6921    1.2804   31.7282 N   0  0  0  0  0  0  0  0  0  0  0  0
    4.1497    2.4640   31.3602 C   0  0  0  0  0  0  0  0  0  0  0  0
    2.8267    2.5235   30.9512 C   0  0  0  0  0  0  0  0  0  0  0  0
    2.2152    3.8613   30.5345 C   0  0  0  0  0  0  0  0  0  0  0  0
    2.7069    4.2270   29.2776 O   0  0  0  0  0  0  0  0  0  0  0  0
    2.8913    5.8312   28.9430 P   0  0  1  0  0  0  0  0  0  0  0  0
    4.3054    6.0884   28.4805 O   0  0  0  0  0  0  0  0  0  0  0  0
    1.9256    6.2328   27.8546 O   0  0  0  0  0  0  0  0  0  0  0  0
    2.6130    6.6419   30.1875 O   0  0  0  0  0  0  0  0  0  0  0  0
   -2.0655    0.2572   31.5850 H   0  0  0  0  0  0  0  0  0  0  0  0
   -3.4809    1.1727   30.6972 H   0  0  0  0  0  0  0  0  0  0  0  0
    0.3112    0.9697   29.5344 H   0  0  0  0  0  0  0  0  0  0  0  0
    2.2494   -1.8232   31.5295 H   0  0  0  0  0  0  0  0  0  0  0  0
    4.5887   -1.2441   33.2121 H   0  0  0  0  0  0  0  0  0  0  0  0
    3.9503   -2.0051   31.7154 H   0  0  0  0  0  0  0  0  0  0  0  0
    5.5819   -1.2537   31.7154 H   0  0  0  0  0  0  0  0  0  0  0  0
    4.7589    3.3795   31.3858 H   0  0  0  0  0  0  0  0  0  0  0  0
    1.1205    3.7649   30.4862 H   0  0  0  0  0  0  0  0  0  0  0  0
    2.4832    4.6325   31.2717 H   0  0  0  0  0  0  0  0  0  0  0  0
  1  2  2  0
  2  3  1  0
  2  4  1  0
  4  5  2  0
  4  6  1  0
  6  7  2  3
  7  8  1  0
  8  9  2  0
  8 15  1  0
  9 10  1  0
  9 11  1  0
 11 12  1  0
 11 13  2  0
 13 14  1  0
 14 15  2  0
 15 16  1  0
 16 17  1  0
 17 18  1  0
 18 19  2  0
 18 20  1  6
 18 21  1  0
  5 22  1  0
  5 23  1  0
  7 24  1  0
 10 25  1  0
 12 26  1  0
 12 27  1  0
 12 28  1  0
 14 29  1  0
 16 30  1  0
 16 31  1  0
M  CHG  3   3  -1  20  -1  21  -1
M  END
>  <filename_input>  (23) 
7LEV_0JO_docked.sdf

>  <pdb_id>  (23) 
7LEV_0JO

>  <pose_rank>  (23) 
22

>  <num_atoms_heavy>  (23) 
21

>  <num_torsions>  (23) 
6

>  <pose>  (23) 
[2.0772317977880217, 1.3950724128758265, 30.920522354043573, -0.13594451001472327, -1.3665253621233593, 2.232508482192067, 1.5335873952063042, 1.6238051442206527, 2.0209963802009274, 3.1963011289063257, -4.4477030285883465, -0.7608307979797536]

>  <energy>  (23) 
-127.20934509488015

>  <inter_energy>  (23) 
-136.58995583938528

>  <intra_energy>  (23) 
10.924905034546466

>  <rmsd>  (23) 
12.7763

>  <sdf_rank>  (23) 
0

$$$$

     RDKit          3D

 31 31  0  0  0  0  0  0  0  0999 V2000
    0.5786  -12.0023   17.1094 O   0  0  0  0  0  0  0  0  0  0  0  0
   -0.4461  -11.5834   16.5101 C   0  0  0  0  0  0  0  0  0  0  0  0
   -1.3753  -11.0362   17.1606 O   0  0  0  0  0  0  0  0  0  0  0  0
   -0.5633  -11.7400   14.9947 C   0  0  0  0  0  0  0  0  0  0  0  0
   -1.5965  -12.3737   14.4768 C   0  0  0  0  0  0  0  0  0  0  0  0
    0.4623  -11.1916   14.1260 N   0  0  0  0  0  0  0  0  0  0  0  0
    1.3221  -10.4115   14.5905 C   0  0  0  0  0  0  0  0  0  0  0  0
    2.4017   -9.8325   13.6784 C   0  0  0  0  0  0  0  0  0  0  0  0
    3.4895  -10.5760   13.3585 C   0  0  0  0  0  0  0  0  0  0  0  0
    3.6245  -11.8761   13.8631 O   0  0  0  0  0  0  0  0  0  0  0  0
    4.4684  -10.0504   12.5317 C   0  0  0  0  0  0  0  0  0  0  0  0
    5.6935  -10.8873   12.1713 C   0  0  0  0  0  0  0  0  0  0  0  0
    4.3398   -8.7959   12.0437 N   0  0  0  0  0  0  0  0  0  0  0  0
    3.2553   -8.0521   12.3621 C   0  0  0  0  0  0  0  0  0  0  0  0
    2.2738   -8.5754   13.1891 C   0  0  0  0  0  0  0  0  0  0  0  0
    1.0483   -7.7346   13.5472 C   0  0  0  0  0  0  0  0  0  0  0  0
    0.0311   -7.9741   12.6180 O   0  0  0  0  0  0  0  0  0  0  0  0
   -1.5346   -7.8036   13.1066 P   0  0  1  0  0  0  0  0  0  0  0  0
   -2.2681   -9.1081   12.9064 O   0  0  0  0  0  0  0  0  0  0  0  0
   -1.5680   -7.4274   14.5680 O   0  0  0  0  0  0  0  0  0  0  0  0
   -2.2027   -6.7200   12.2923 O   0  0  0  0  0  0  0  0  0  0  0  0
   -1.6819  -12.4871   13.3860 H   0  0  0  0  0  0  0  0  0  0  0  0
   -2.3734  -12.7893   15.1354 H   0  0  0  0  0  0  0  0  0  0  0  0
    1.3008  -10.1420   15.6567 H   0  0  0  0  0  0  0  0  0  0  0  0
    4.4192  -12.4180   13.6287 H   0  0  0  0  0  0  0  0  0  0  0  0
    6.1898  -11.2264   13.0925 H   0  0  0  0  0  0  0  0  0  0  0  0
    5.3799  -11.7609   11.5808 H   0  0  0  0  0  0  0  0  0  0  0  0
    6.3932  -10.2777   11.5808 H   0  0  0  0  0  0  0  0  0  0  0  0
    3.1526   -7.0317   11.9646 H   0  0  0  0  0  0  0  0  0  0  0  0
    0.6975   -8.0076   14.5534 H   0  0  0  0  0  0  0  0  0  0  0  0
    1.3173   -6.6681   13.5296 H   0  0  0  0  0  0  0  0  0  0  0  0
  1  2  2  0
  2  3  1  0
  2  4  1  0
  4  5  2  0
  4  6  1  0
  6  7  2  3
  7  8  1  0
  8  9  2  0
  8 15  1  0
  9 10  1  0
  9 11  1  0
 11 12  1  0
 11 13  2  0
 13 14  1  0
 14 15  2  0
 15 16  1  0
 16 17  1  0
 17 18  1  0
 18 19  2  0
 18 20  1  1
 18 21  1  0
  5 22  1  0
  5 23  1  0
  7 24  1  0
 10 25  1  0
 12 26  1  0
 12 27  1  0
 12 28  1  0
 14 29  1  0
 16 30  1  0
 16 31  1  0
M  CHG  3   3  -1  20  -1  21  -1
M  END
>  <filename_input>  (24) 
7LEV_0JO_docked.sdf

>  <pdb_id>  (24) 
7LEV_0JO

>  <pose_rank>  (24) 
23

>  <num_atoms_heavy>  (24) 
21

>  <num_torsions>  (24) 
6

>  <pose>  (24) 
[2.4016893809654283, -9.8324851127722, 13.67844347778836, 1.1497772224675091, -0.7383378113324152, 2.2456527659415766, -1.8368565307804412, -3.1909584872082832, -3.9041221278632916, -2.786369074384502, 0.7799235673393652, 1.2006952317573127]

>  <energy>  (24) 
-69.14937274982464

>  <inter_energy>  (24) 
-81.05233694358313

>  <intra_energy>  (24) 
12.29574490088092

>  <rmsd>  (24) 
13.952

>  <sdf_rank>  (24) 
0

$$$$

     RDKit          3D

 31 31  0  0  0  0  0  0  0  0999 V2000
    1.1523  -12.3077   13.3919 O   0  0  0  0  0  0  0  0  0  0  0  0
    1.4882  -11.2378   12.8201 C   0  0  0  0  0  0  0  0  0  0  0  0
    2.4574  -11.2320   12.0160 O   0  0  0  0  0  0  0  0  0  0  0  0
    0.7217   -9.9465   13.1025 C   0  0  0  0  0  0  0  0  0  0  0  0
   -0.1404   -9.4864   12.2179 C   0  0  0  0  0  0  0  0  0  0  0  0
    0.9426   -9.2268   14.3436 N   0  0  0  0  0  0  0  0  0  0  0  0
   -0.0098   -8.6412   14.9036 C   0  0  0  0  0  0  0  0  0  0  0  0
    0.2201   -7.8825   16.2090 C   0  0  0  0  0  0  0  0  0  0  0  0
    1.0048   -8.4190   17.1760 C   0  0  0  0  0  0  0  0  0  0  0  0
    1.6062   -9.6690   16.9790 O   0  0  0  0  0  0  0  0  0  0  0  0
    1.2126   -7.7309   18.3597 C   0  0  0  0  0  0  0  0  0  0  0  0
    2.0961   -8.3347   19.4488 C   0  0  0  0  0  0  0  0  0  0  0  0
    0.6330   -6.5243   18.5516 N   0  0  0  0  0  0  0  0  0  0  0  0
   -0.1507   -5.9874   17.5882 C   0  0  0  0  0  0  0  0  0  0  0  0
   -0.3604   -6.6735   16.4022 C   0  0  0  0  0  0  0  0  0  0  0  0
   -1.2451   -6.0653   15.3139 C   0  0  0  0  0  0  0  0  0  0  0  0
   -0.4712   -5.7959   14.1809 O   0  0  0  0  0  0  0  0  0  0  0  0
   -0.6565   -4.3384   13.4320 P   0  0  1  0  0  0  0  0  0  0  0  0
    0.1220   -3.2852   14.1835 O   0  0  0  0  0  0  0  0  0  0  0  0
   -0.1405   -4.4303   12.0165 O   0  0  0  0  0  0  0  0  0  0  0  0
   -2.1203   -3.9637   13.4112 O   0  0  0  0  0  0  0  0  0  0  0  0
   -0.6928   -8.5569   12.4201 H   0  0  0  0  0  0  0  0  0  0  0  0
   -0.3075  -10.0318   11.2774 H   0  0  0  0  0  0  0  0  0  0  0  0
   -1.0140   -8.6724   14.4556 H   0  0  0  0  0  0  0  0  0  0  0  0
    2.1789  -10.0597   17.6857 H   0  0  0  0  0  0  0  0  0  0  0  0
    1.6975   -8.0623   20.4372 H   0  0  0  0  0  0  0  0  0  0  0  0
    2.1068   -9.4299   19.3469 H   0  0  0  0  0  0  0  0  0  0  0  0
    3.1204   -7.9468   19.3469 H   0  0  0  0  0  0  0  0  0  0  0  0
   -0.6217   -5.0060   17.7462 H   0  0  0  0  0  0  0  0  0  0  0  0
   -2.0441   -6.7746   15.0520 H   0  0  0  0  0  0  0  0  0  0  0  0
   -1.6915   -5.1305   15.6839 H   0  0  0  0  0  0  0  0  0  0  0  0
  1  2  2  0
  2  3  1  0
  2  4  1  0
  4  5  2  0
  4  6  1  0
  6  7  2  3
  7  8  1  0
  8  9  2  0
  8 15  1  0
  9 10  1  0
  9 11  1  0
 11 12  1  0
 11 13  2  0
 13 14  1  0
 14 15  2  0
 15 16  1  0
 16 17  1  0
 17 18  1  0
 18 19  2  0
 18 20  1  6
 18 21  1  0
  5 22  1  0
  5 23  1  0
  7 24  1  0
 10 25  1  0
 12 26  1  0
 12 27  1  0
 12 28  1  0
 14 29  1  0
 16 30  1  0
 16 31  1  0
M  CHG  3   3  -1  20  -1  21  -1
M  END
>  <filename_input>  (25) 
7LEV_0JO_docked.sdf

>  <pdb_id>  (25) 
7LEV_0JO

>  <pose_rank>  (25) 
24

>  <num_atoms_heavy>  (25) 
21

>  <num_torsions>  (25) 
6

>  <pose>  (25) 
[0.22006589946223612, -7.882535624058618, 16.209016606543162, -0.6105026386014376, -2.2679260231068534, 3.03239808551941, -1.1711814616875997, 0.771177814035595, 4.695406237913904, -27.499978946914243, -10.495397799448739, -1.5660610949082325]

>  <energy>  (25) 
-44.83295993498722

>  <inter_energy>  (25) 
-71.72998578135214

>  <intra_energy>  (25) 
28.56873492254639

>  <rmsd>  (25) 
12.6132

>  <sdf_rank>  (25) 
0

$$$$

     RDKit          3D

 31 31  0  0  0  0  0  0  0  0999 V2000
   10.4780    0.9190   25.1350 O   0  0  0  0  0  0  0  0  0  0  0  0
    9.3660    0.3770   24.9020 C   0  0  0  0  0  0  0  0  0  0  0  0
    8.5220    0.2500   25.8280 O   0  0  0  0  0  0  0  0  0  0  0  0
    9.0410   -0.1280   23.4970 C   0  0  0  0  0  0  0  0  0  0  0  0
    9.8040    0.2200   22.4800 C   0  0  0  0  0  0  0  0  0  0  0  0
    7.8930   -0.9900   23.2820 N   0  0  0  0  0  0  0  0  0  0  0  0
    7.5320   -1.2700   22.1180 C   0  0  0  0  0  0  0  0  0  0  0  0
    6.3240   -2.1760   21.8890 C   0  0  0  0  0  0  0  0  0  0  0  0
    5.3570   -2.2690   22.8350 C   0  0  0  0  0  0  0  0  0  0  0  0
    5.4640   -1.5340   24.0230 O   0  0  0  0  0  0  0  0  0  0  0  0
    4.2620   -3.0910   22.6270 C   0  0  0  0  0  0  0  0  0  0  0  0
    3.1730   -3.1960   23.6920 C   0  0  0  0  0  0  0  0  0  0  0  0
    4.1570   -3.8010   21.4810 N   0  0  0  0  0  0  0  0  0  0  0  0
    5.1210   -3.7100   20.5360 C   0  0  0  0  0  0  0  0  0  0  0  0
    6.2180   -2.8880   20.7410 C   0  0  0  0  0  0  0  0  0  0  0  0
    7.3060   -2.7850   19.6720 C   0  0  0  0  0  0  0  0  0  0  0  0
    8.4660   -3.4210   20.1250 O   0  0  0  0  0  0  0  0  0  0  0  0
    8.8750   -4.8740   19.4610 P   0  0  1  0  0  0  0  0  0  0  0  0
   10.2670   -5.2550   19.9050 O   0  0  0  0  0  0  0  0  0  0  0  0
    7.8960   -5.9290   19.9160 O   0  0  0  0  0  0  0  0  0  0  0  0
    8.8380   -4.7690   17.9540 O   0  0  0  0  0  0  0  0  0  0  0  0
    9.5710   -0.1430   21.4681 H   0  0  0  0  0  0  0  0  0  0  0  0
   10.6737    0.8734   22.6432 H   0  0  0  0  0  0  0  0  0  0  0  0
    8.0849   -0.8635   21.2583 H   0  0  0  0  0  0  0  0  0  0  0  0
    4.7574   -1.6027   24.7129 H   0  0  0  0  0  0  0  0  0  0  0  0
    3.6315   -3.1518   24.6909 H   0  0  0  0  0  0  0  0  0  0  0  0
    2.4652   -2.3619   23.5762 H   0  0  0  0  0  0  0  0  0  0  0  0
    2.6376   -4.1499   23.5762 H   0  0  0  0  0  0  0  0  0  0  0  0
    5.0341   -4.2887   19.6046 H   0  0  0  0  0  0  0  0  0  0  0  0
    6.9590   -3.2700   18.7477 H   0  0  0  0  0  0  0  0  0  0  0  0
    7.5233   -1.7256   19.4708 H   0  0  0  0  0  0  0  0  0  0  0  0
  1  2  2  0
  2  3  1  0
  2  4  1  0
  4  5  2  0
  4  6  1  0
  6  7  2  3
  7  8  1  0
  8  9  2  0
  8 15  1  0
  9 10  1  0
  9 11  1  0
 11 12  1  0
 11 13  2  0
 13 14  1  0
 14 15  2  0
 15 16  1  0
 16 17  1  0
 17 18  1  0
 18 19  2  0
 18 20  1  1
 18 21  1  0
  5 22  1  0
  5 23  1  0
  7 24  1  0
 10 25  1  0
 12 26  1  0
 12 27  1  0
 12 28  1  0
 14 29  1  0
 16 30  1  0
 16 31  1  0
M  CHG  3   3  -1  20  -1  21  -1
M  END
>  <filename_input>  (26) 
7LEV_0JO_docked.sdf

>  <pdb_id>  (26) 
7LEV_0JO

>  <pose_rank>  (26) 
25

>  <num_atoms_heavy>  (26) 
21

>  <num_torsions>  (26) 
6

>  <pose>  (26) 
[6.324, -2.176, 21.889, 1e-06, 1e-06, 1e-06, 0.0, 0.0, 0.0, 0.0, 0.0, 0.0]

>  <energy>  (26) 
-1061.1106120496997

>  <inter_energy>  (26) 
-1107.6163866811441

>  <intra_energy>  (26) 
32.67190114440269

>  <rmsd>  (26) 
0.0

>  <sdf_rank>  (26) 
0

$$$$
