
     RDKit          3D

 44 46  0  0  0  0  0  0  0  0999 V2000
  -58.3136    7.5656  -23.3014 P   0  0  2  0  0  0  0  0  0  0  0  0
  -58.2319    7.4117  -24.8031 O   0  0  0  0  0  0  0  0  0  0  0  0
  -57.6387    8.8226  -22.8214 O   0  0  0  0  0  0  0  0  0  0  0  0
  -57.8665    6.3211  -22.5543 O   0  0  0  0  0  0  0  0  0  0  0  0
  -59.8848    7.7761  -23.0146 O   0  0  0  0  0  0  0  0  0  0  0  0
  -60.7229    7.6288  -21.6424 P   0  0  1  0  0  0  0  0  0  0  0  0
  -61.5105    6.3632  -21.6739 O   0  0  0  0  0  0  0  0  0  0  0  0
  -59.7905    7.7633  -20.4570 O   0  0  0  0  0  0  0  0  0  0  0  0
  -61.7910    8.8363  -21.6610 O   0  0  0  0  0  0  0  0  0  0  0  0
  -62.3759    9.5411  -22.9792 P   0  0  1  0  0  0  0  0  0  0  0  0
  -61.4746   10.6600  -23.4220 O   0  0  0  0  0  0  0  0  0  0  0  0
  -62.6181    8.5002  -24.0397 O   0  0  0  0  0  0  0  0  0  0  0  0
  -63.7897   10.0544  -22.4423 O   0  0  0  0  0  0  0  0  0  0  0  0
  -63.9989   11.3621  -21.9469 C   0  0  0  0  0  0  0  0  0  0  0  0
  -65.3407   11.8784  -22.4729 C   0  0  1  0  0  0  0  0  0  0  0  0
  -65.1385   12.7878  -23.5392 O   0  0  0  0  0  0  0  0  0  0  0  0
  -66.1939   10.7600  -23.0124 C   0  0  1  0  0  0  0  0  0  0  0  0
  -66.9263   10.1432  -21.9766 O   0  0  0  0  0  0  0  0  0  0  0  0
  -67.0478   11.4996  -24.0191 C   0  0  1  0  0  0  0  0  0  0  0  0
  -68.1107   12.1656  -23.3675 O   0  0  0  0  0  0  0  0  0  0  0  0
  -66.1059   12.5734  -24.5398 C   0  0  2  0  0  0  0  0  0  0  0  0
  -65.4344   12.1216  -25.7572 N   0  0  0  0  0  0  0  0  0  0  0  0
  -64.1045   11.8776  -25.9486 C   0  0  0  0  0  0  0  0  0  0  0  0
  -63.9253   11.4993  -27.2321 N   0  0  0  0  0  0  0  0  0  0  0  0
  -65.1204   11.5177  -27.8635 C   0  0  0  0  0  0  0  0  0  0  0  0
  -65.5201   11.2424  -29.1708 C   0  0  0  0  0  0  0  0  0  0  0  0
  -64.7157   10.8844  -30.0429 O   0  0  0  0  0  0  0  0  0  0  0  0
  -66.8450   11.3834  -29.4954 N   0  0  0  0  0  0  0  0  0  0  0  0
  -67.7719   11.7738  -28.5534 C   0  0  0  0  0  0  0  0  0  0  0  0
  -69.0519   11.8822  -28.8903 N   0  0  0  0  0  0  0  0  0  0  0  0
  -67.3898   12.0336  -27.2650 N   0  0  0  0  0  0  0  0  0  0  0  0
  -66.0730   11.9215  -26.9434 C   0  0  0  0  0  0  0  0  0  0  0  0
  -64.0153   11.3429  -20.8471 H   0  0  0  0  0  0  0  0  0  0  0  0
  -63.1862   12.0237  -22.2811 H   0  0  0  0  0  0  0  0  0  0  0  0
  -65.8427   12.3630  -21.6225 H   0  0  0  0  0  0  0  0  0  0  0  0
  -65.6464    9.9197  -23.4643 H   0  0  0  0  0  0  0  0  0  0  0  0
  -66.5734   10.4403  -21.1007 H   0  0  0  0  0  0  0  0  0  0  0  0
  -67.4685   10.8288  -24.7827 H   0  0  0  0  0  0  0  0  0  0  0  0
  -67.9942   12.0926  -22.3871 H   0  0  0  0  0  0  0  0  0  0  0  0
  -66.6658   13.4908  -24.7739 H   0  0  0  0  0  0  0  0  0  0  0  0
  -63.3154   11.9727  -25.1882 H   0  0  0  0  0  0  0  0  0  0  0  0
  -67.1527   11.1941  -30.4600 H   0  0  0  0  0  0  0  0  0  0  0  0
  -69.7465   12.1738  -28.1878 H   0  0  0  0  0  0  0  0  0  0  0  0
  -69.3501   11.6746  -29.8541 H   0  0  0  0  0  0  0  0  0  0  0  0
  1  2  2  0
  1  3  1  1
  1  4  1  0
  1  5  1  0
  5  6  1  0
  6  7  2  0
  6  8  1  1
  6  9  1  0
  9 10  1  0
 10 11  2  0
 10 12  1  6
 10 13  1  0
 13 14  1  0
 15 14  1  0
 15 16  1  0
 15 17  1  0
 16 21  1  0
 17 18  1  0
 17 19  1  0
 19 20  1  0
 19 21  1  0
 21 22  1  0
 22 23  1  0
 22 32  1  0
 23 24  2  0
 24 25  1  0
 25 26  1  0
 25 32  2  0
 26 27  2  0
 26 28  1  0
 28 29  1  0
 29 30  1  0
 29 31  2  0
 31 32  1  0
 14 33  1  0
 14 34  1  0
 15 35  1  1
 17 36  1  6
 18 37  1  0
 19 38  1  6
 20 39  1  0
 21 40  1  6
 23 41  1  0
 28 42  1  0
 30 43  1  0
 30 44  1  0
M  CHG  4   3  -1   4  -1   8  -1  12  -1
M  END
>  <filename_input>  (1) 
7LJN_GTP_docked.sdf

>  <pdb_id>  (1) 
7LJN_GTP

>  <pose_rank>  (1) 
0

>  <num_atoms_heavy>  (1) 
32

>  <num_torsions>  (1) 
8

>  <pose>  (1) 
[-65.3407374357176, 11.878403969087143, -22.472914570609337, 2.167038445832046, 4.078126086288685, 3.8717674249899634, -0.07651373633436978, -13.392277245409236, -1.3605282107658132, -5.62049784636997, -1.2988211004263825, 1.652314151954448, 0.4042700701110811, 5.586749499870694]

>  <energy>  (1) 
-897.0843967801032

>  <inter_energy>  (1) 
-894.3589413591176

>  <intra_energy>  (1) 
12.757923620923172

>  <rmsd>  (1) 
1.10958

>  <sdf_rank>  (1) 
0

$$$$

     RDKit          3D

 44 46  0  0  0  0  0  0  0  0999 V2000
  -58.4076    7.1219  -22.2335 P   0  0  2  0  0  0  0  0  0  0  0  0
  -57.7916    8.2841  -21.4883 O   0  0  0  0  0  0  0  0  0  0  0  0
  -59.8526    6.9134  -21.8667 O   0  0  0  0  0  0  0  0  0  0  0  0
  -57.5762    5.8540  -22.1433 O   0  0  0  0  0  0  0  0  0  0  0  0
  -58.4118    7.6013  -23.7715 O   0  0  0  0  0  0  0  0  0  0  0  0
  -58.6170    9.0724  -24.4043 P   0  0  1  0  0  0  0  0  0  0  0  0
  -57.5575    9.9872  -23.8908 O   0  0  0  0  0  0  0  0  0  0  0  0
  -58.6897    8.9741  -25.9135 O   0  0  0  0  0  0  0  0  0  0  0  0
  -60.0155    9.6055  -23.8049 O   0  0  0  0  0  0  0  0  0  0  0  0
  -60.6760   11.0354  -24.1145 P   0  0  1  0  0  0  0  0  0  0  0  0
  -59.8559   12.1376  -23.5039 O   0  0  0  0  0  0  0  0  0  0  0  0
  -60.8822   11.1823  -25.5987 O   0  0  0  0  0  0  0  0  0  0  0  0
  -62.1038   10.8625  -23.4204 O   0  0  0  0  0  0  0  0  0  0  0  0
  -62.6083   11.7661  -22.4567 C   0  0  0  0  0  0  0  0  0  0  0  0
  -64.1079   11.9568  -22.6990 C   0  0  1  0  0  0  0  0  0  0  0  0
  -64.3271   12.8993  -23.7327 O   0  0  0  0  0  0  0  0  0  0  0  0
  -64.7683   10.6744  -23.1338 C   0  0  1  0  0  0  0  0  0  0  0  0
  -65.1280    9.8915  -22.0169 O   0  0  0  0  0  0  0  0  0  0  0  0
  -65.9453   11.2023  -23.9250 C   0  0  1  0  0  0  0  0  0  0  0  0
  -66.9882   11.5920  -23.0542 O   0  0  0  0  0  0  0  0  0  0  0  0
  -65.3922   12.4733  -24.5495 C   0  0  2  0  0  0  0  0  0  0  0  0
  -64.8799   12.2053  -25.8922 N   0  0  0  0  0  0  0  0  0  0  0  0
  -63.5799   12.1573  -26.3075 C   0  0  0  0  0  0  0  0  0  0  0  0
  -63.5694   11.9004  -27.6327 N   0  0  0  0  0  0  0  0  0  0  0  0
  -64.8452   11.8028  -28.0686 C   0  0  0  0  0  0  0  0  0  0  0  0
  -65.4179   11.5712  -29.3188 C   0  0  0  0  0  0  0  0  0  0  0  0
  -64.7302   11.3889  -30.3336 O   0  0  0  0  0  0  0  0  0  0  0  0
  -66.7853   11.5551  -29.4216 N   0  0  0  0  0  0  0  0  0  0  0  0
  -67.5853   11.7479  -28.3162 C   0  0  0  0  0  0  0  0  0  0  0  0
  -68.9068   11.7066  -28.4410 N   0  0  0  0  0  0  0  0  0  0  0  0
  -67.0311   11.9632  -27.0833 N   0  0  0  0  0  0  0  0  0  0  0  0
  -65.6757   12.0069  -26.9797 C   0  0  0  0  0  0  0  0  0  0  0  0
  -62.4453   11.3598  -21.4475 H   0  0  0  0  0  0  0  0  0  0  0  0
  -62.0895   12.7323  -22.5416 H   0  0  0  0  0  0  0  0  0  0  0  0
  -64.5358   12.3005  -21.7457 H   0  0  0  0  0  0  0  0  0  0  0  0
  -64.1391    9.9917  -23.7238 H   0  0  0  0  0  0  0  0  0  0  0  0
  -64.9036   10.3799  -21.1855 H   0  0  0  0  0  0  0  0  0  0  0  0
  -66.3385   10.4592  -24.6343 H   0  0  0  0  0  0  0  0  0  0  0  0
  -66.6930   11.4817  -22.1157 H   0  0  0  0  0  0  0  0  0  0  0  0
  -66.1818   13.2352  -24.6264 H   0  0  0  0  0  0  0  0  0  0  0  0
  -62.6941   12.3030  -25.6718 H   0  0  0  0  0  0  0  0  0  0  0  0
  -67.2219   11.3962  -30.3408 H   0  0  0  0  0  0  0  0  0  0  0  0
  -69.5067   11.8504  -27.6161 H   0  0  0  0  0  0  0  0  0  0  0  0
  -69.3318   11.5307  -29.3625 H   0  0  0  0  0  0  0  0  0  0  0  0
  1  2  2  0
  1  3  1  1
  1  4  1  0
  1  5  1  0
  5  6  1  0
  6  7  2  0
  6  8  1  6
  6  9  1  0
  9 10  1  0
 10 11  2  0
 10 12  1  6
 10 13  1  0
 13 14  1  0
 15 14  1  0
 15 16  1  0
 15 17  1  0
 16 21  1  0
 17 18  1  0
 17 19  1  0
 19 20  1  0
 19 21  1  0
 21 22  1  0
 22 23  1  0
 22 32  1  0
 23 24  2  0
 24 25  1  0
 25 26  1  0
 25 32  2  0
 26 27  2  0
 26 28  1  0
 28 29  1  0
 29 30  1  0
 29 31  2  0
 31 32  1  0
 14 33  1  0
 14 34  1  0
 15 35  1  1
 17 36  1  6
 18 37  1  0
 19 38  1  6
 20 39  1  0
 21 40  1  6
 23 41  1  0
 28 42  1  0
 30 43  1  0
 30 44  1  0
M  CHG  4   3  -1   4  -1   8  -1  12  -1
M  END
>  <filename_input>  (2) 
7LJN_GTP_docked.sdf

>  <pdb_id>  (2) 
7LJN_GTP

>  <pose_rank>  (2) 
1

>  <num_atoms_heavy>  (2) 
32

>  <num_torsions>  (2) 
8

>  <pose>  (2) 
[-64.1078516846412, 11.956798290427551, -22.699013217156462, 3.5211755460464365, -0.5430116308021289, -5.061040465582535, 0.04504018977906591, -0.4560975337224662, -1.3123357457111477, 1.203607947092663, -0.9708608647528555, -1.961958198014617, -3.0066664443090882, 2.1543199810592646]

>  <energy>  (2) 
-797.4372485046125

>  <inter_energy>  (2) 
-825.2507446958471

>  <intra_energy>  (2) 
27.202228545065537

>  <rmsd>  (2) 
1.75943

>  <sdf_rank>  (2) 
0

$$$$

     RDKit          3D

 44 46  0  0  0  0  0  0  0  0999 V2000
  -57.0600    8.0358  -22.6414 P   0  0  2  0  0  0  0  0  0  0  0  0
  -56.9995    8.1161  -21.1330 O   0  0  0  0  0  0  0  0  0  0  0  0
  -57.0377    6.6142  -23.1361 O   0  0  0  0  0  0  0  0  0  0  0  0
  -56.0343    8.9248  -23.3227 O   0  0  0  0  0  0  0  0  0  0  0  0
  -58.5237    8.6022  -23.0049 O   0  0  0  0  0  0  0  0  0  0  0  0
  -59.0146    9.4946  -24.2578 P   0  0  1  0  0  0  0  0  0  0  0  0
  -58.7806   10.9373  -23.9632 O   0  0  0  0  0  0  0  0  0  0  0  0
  -58.3603    8.9951  -25.5287 O   0  0  0  0  0  0  0  0  0  0  0  0
  -60.6125    9.2924  -24.3279 O   0  0  0  0  0  0  0  0  0  0  0  0
  -61.5222    8.6588  -23.1669 P   0  0  1  0  0  0  0  0  0  0  0  0
  -62.6145    7.8111  -23.7573 O   0  0  0  0  0  0  0  0  0  0  0  0
  -60.6461    7.9248  -22.1869 O   0  0  0  0  0  0  0  0  0  0  0  0
  -62.0719    9.9818  -22.4613 O   0  0  0  0  0  0  0  0  0  0  0  0
  -62.1386   11.2343  -23.1142 C   0  0  0  0  0  0  0  0  0  0  0  0
  -63.6070   11.6520  -23.2279 C   0  0  1  0  0  0  0  0  0  0  0  0
  -63.7711   12.6129  -24.2549 O   0  0  0  0  0  0  0  0  0  0  0  0
  -64.4914   10.4845  -23.5808 C   0  0  1  0  0  0  0  0  0  0  0  0
  -64.8655    9.7705  -22.4233 O   0  0  0  0  0  0  0  0  0  0  0  0
  -65.6398   11.1837  -24.2753 C   0  0  1  0  0  0  0  0  0  0  0  0
  -66.5293   11.7323  -23.3237 O   0  0  0  0  0  0  0  0  0  0  0  0
  -64.9570   12.3522  -24.9679 C   0  0  2  0  0  0  0  0  0  0  0  0
  -64.6133   12.0035  -26.3454 N   0  0  0  0  0  0  0  0  0  0  0  0
  -63.3737   11.8098  -26.8845 C   0  0  0  0  0  0  0  0  0  0  0  0
  -63.5235   11.5254  -28.1956 N   0  0  0  0  0  0  0  0  0  0  0  0
  -64.8400   11.5542  -28.5009 C   0  0  0  0  0  0  0  0  0  0  0  0
  -65.5567   11.3583  -29.6810 C   0  0  0  0  0  0  0  0  0  0  0  0
  -64.9974   11.0831  -30.7521 O   0  0  0  0  0  0  0  0  0  0  0  0
  -66.9218   11.4847  -29.6485 N   0  0  0  0  0  0  0  0  0  0  0  0
  -67.5820   11.7841  -28.4765 C   0  0  0  0  0  0  0  0  0  0  0  0
  -68.9066   11.8801  -28.4697 N   0  0  0  0  0  0  0  0  0  0  0  0
  -66.8871   11.9654  -27.3114 N   0  0  0  0  0  0  0  0  0  0  0  0
  -65.5309   11.8677  -27.3427 C   0  0  0  0  0  0  0  0  0  0  0  0
  -61.5844   11.9851  -22.5318 H   0  0  0  0  0  0  0  0  0  0  0  0
  -61.6922   11.1582  -24.1167 H   0  0  0  0  0  0  0  0  0  0  0  0
  -63.8910   12.0611  -22.2471 H   0  0  0  0  0  0  0  0  0  0  0  0
  -64.0288    9.7110  -24.2115 H   0  0  0  0  0  0  0  0  0  0  0  0
  -64.5975   10.2819  -21.6191 H   0  0  0  0  0  0  0  0  0  0  0  0
  -66.2034   10.5070  -24.9344 H   0  0  0  0  0  0  0  0  0  0  0  0
  -66.2021   11.5305  -22.4113 H   0  0  0  0  0  0  0  0  0  0  0  0
  -65.6249   13.2260  -24.9888 H   0  0  0  0  0  0  0  0  0  0  0  0
  -62.4180   11.8742  -26.3437 H   0  0  0  0  0  0  0  0  0  0  0  0
  -67.4630   11.3536  -30.5150 H   0  0  0  0  0  0  0  0  0  0  0  0
  -69.4022   12.1038  -27.5949 H   0  0  0  0  0  0  0  0  0  0  0  0
  -69.4383   11.7309  -29.3391 H   0  0  0  0  0  0  0  0  0  0  0  0
  1  2  2  0
  1  3  1  1
  1  4  1  0
  1  5  1  0
  5  6  1  0
  6  7  2  0
  6  8  1  6
  6  9  1  0
  9 10  1  0
 10 11  2  0
 10 12  1  1
 10 13  1  0
 13 14  1  0
 15 14  1  0
 15 16  1  0
 15 17  1  0
 16 21  1  0
 17 18  1  0
 17 19  1  0
 19 20  1  0
 19 21  1  0
 21 22  1  0
 22 23  1  0
 22 32  1  0
 23 24  2  0
 24 25  1  0
 25 26  1  0
 25 32  2  0
 26 27  2  0
 26 28  1  0
 28 29  1  0
 29 30  1  0
 29 31  2  0
 31 32  1  0
 14 33  1  0
 14 34  1  0
 15 35  1  1
 17 36  1  6
 18 37  1  0
 19 38  1  6
 20 39  1  0
 21 40  1  6
 23 41  1  0
 28 42  1  0
 30 43  1  0
 30 44  1  0
M  CHG  4   3  -1   4  -1   8  -1  12  -1
M  END
>  <filename_input>  (3) 
7LJN_GTP_docked.sdf

>  <pdb_id>  (3) 
7LJN_GTP

>  <pose_rank>  (3) 
2

>  <num_atoms_heavy>  (3) 
32

>  <num_torsions>  (3) 
8

>  <pose>  (3) 
[-63.607006686722, 11.65201075175025, -23.2279315104782, -0.05994210009627466, 0.10123293158017552, -0.07478932767852652, -0.007570215343921638, -1.809478298439561, 4.531802603432929, -0.5973337661677521, -2.2654388233168374, 1.4394398941333302, 0.7510891708484015, -1.0155773763784528]

>  <energy>  (3) 
-690.8351236667667

>  <inter_energy>  (3) 
-746.5302562831355

>  <intra_energy>  (3) 
62.765308190391714

>  <rmsd>  (3) 
1.99832

>  <sdf_rank>  (3) 
0

$$$$

     RDKit          3D

 44 46  0  0  0  0  0  0  0  0999 V2000
  -58.7648   11.0667  -24.1564 P   0  0  2  0  0  0  0  0  0  0  0  0
  -59.1434   12.3633  -23.4775 O   0  0  0  0  0  0  0  0  0  0  0  0
  -57.2804   10.9544  -24.3797 O   0  0  0  0  0  0  0  0  0  0  0  0
  -59.5825   10.7930  -25.4066 O   0  0  0  0  0  0  0  0  0  0  0  0
  -59.1302    9.9349  -23.0697 O   0  0  0  0  0  0  0  0  0  0  0  0
  -59.0354    8.3261  -23.1679 P   0  0  1  0  0  0  0  0  0  0  0  0
  -58.4777    7.9406  -24.4958 O   0  0  0  0  0  0  0  0  0  0  0  0
  -58.2681    7.7858  -21.9795 O   0  0  0  0  0  0  0  0  0  0  0  0
  -60.5606    7.8044  -23.1402 O   0  0  0  0  0  0  0  0  0  0  0  0
  -61.6917    8.2900  -22.1098 P   0  0  1  0  0  0  0  0  0  0  0  0
  -62.5736    7.1383  -21.7149 O   0  0  0  0  0  0  0  0  0  0  0  0
  -61.0426    8.9861  -20.9432 O   0  0  0  0  0  0  0  0  0  0  0  0
  -62.4512    9.3833  -22.9920 O   0  0  0  0  0  0  0  0  0  0  0  0
  -62.6859   10.7055  -22.5490 C   0  0  0  0  0  0  0  0  0  0  0  0
  -64.1544   11.0558  -22.8028 C   0  0  1  0  0  0  0  0  0  0  0  0
  -64.2580   12.1003  -23.7531 O   0  0  0  0  0  0  0  0  0  0  0  0
  -64.9169    9.8830  -23.3623 C   0  0  1  0  0  0  0  0  0  0  0  0
  -65.3775    9.0437  -22.3264 O   0  0  0  0  0  0  0  0  0  0  0  0
  -66.0184   10.5850  -24.1265 C   0  0  1  0  0  0  0  0  0  0  0  0
  -67.0451   10.9937  -23.2452 O   0  0  0  0  0  0  0  0  0  0  0  0
  -65.3344   11.8478  -24.6251 C   0  0  2  0  0  0  0  0  0  0  0  0
  -64.8118   11.6502  -25.9760 N   0  0  0  0  0  0  0  0  0  0  0  0
  -63.5123   11.4949  -26.3658 C   0  0  0  0  0  0  0  0  0  0  0  0
  -63.4875   11.3630  -27.7090 N   0  0  0  0  0  0  0  0  0  0  0  0
  -64.7516   11.4509  -28.1797 C   0  0  0  0  0  0  0  0  0  0  0  0
  -65.3057   11.4028  -29.4585 C   0  0  0  0  0  0  0  0  0  0  0  0
  -64.6099   11.2395  -30.4710 O   0  0  0  0  0  0  0  0  0  0  0  0
  -66.6625   11.5506  -29.5918 N   0  0  0  0  0  0  0  0  0  0  0  0
  -67.4716   11.7284  -28.4906 C   0  0  0  0  0  0  0  0  0  0  0  0
  -68.7849   11.8481  -28.6473 N   0  0  0  0  0  0  0  0  0  0  0  0
  -66.9371   11.7641  -27.2311 N   0  0  0  0  0  0  0  0  0  0  0  0
  -65.5892   11.6450  -27.0944 C   0  0  0  0  0  0  0  0  0  0  0  0
  -62.4684   10.7794  -21.4733 H   0  0  0  0  0  0  0  0  0  0  0  0
  -62.0346   11.4043  -23.0946 H   0  0  0  0  0  0  0  0  0  0  0  0
  -64.5754   11.3543  -21.8314 H   0  0  0  0  0  0  0  0  0  0  0  0
  -64.3367    9.1981  -23.9981 H   0  0  0  0  0  0  0  0  0  0  0  0
  -65.1555    9.4482  -21.4506 H   0  0  0  0  0  0  0  0  0  0  0  0
  -66.4581    9.9459  -24.9064 H   0  0  0  0  0  0  0  0  0  0  0  0
  -66.7441   10.8739  -22.3097 H   0  0  0  0  0  0  0  0  0  0  0  0
  -66.0487   12.6840  -24.6496 H   0  0  0  0  0  0  0  0  0  0  0  0
  -62.6368   11.4800  -25.7000 H   0  0  0  0  0  0  0  0  0  0  0  0
  -67.0842   11.5282  -30.5313 H   0  0  0  0  0  0  0  0  0  0  0  0
  -69.3916   11.9811  -27.8256 H   0  0  0  0  0  0  0  0  0  0  0  0
  -69.1968   11.8079  -29.5905 H   0  0  0  0  0  0  0  0  0  0  0  0
  1  2  2  0
  1  3  1  6
  1  4  1  0
  1  5  1  0
  5  6  1  0
  6  7  2  0
  6  8  1  1
  6  9  1  0
  9 10  1  0
 10 11  2  0
 10 12  1  1
 10 13  1  0
 13 14  1  0
 15 14  1  0
 15 16  1  0
 15 17  1  0
 16 21  1  0
 17 18  1  0
 17 19  1  0
 19 20  1  0
 19 21  1  0
 21 22  1  0
 22 23  1  0
 22 32  1  0
 23 24  2  0
 24 25  1  0
 25 26  1  0
 25 32  2  0
 26 27  2  0
 26 28  1  0
 28 29  1  0
 29 30  1  0
 29 31  2  0
 31 32  1  0
 14 33  1  0
 14 34  1  0
 15 35  1  1
 17 36  1  6
 18 37  1  0
 19 38  1  6
 20 39  1  0
 21 40  1  6
 23 41  1  0
 28 42  1  0
 30 43  1  0
 30 44  1  0
M  CHG  4   3  -1   4  -1   8  -1  12  -1
M  END
>  <filename_input>  (4) 
7LJN_GTP_docked.sdf

>  <pdb_id>  (4) 
7LJN_GTP

>  <pose_rank>  (4) 
3

>  <num_atoms_heavy>  (4) 
32

>  <num_torsions>  (4) 
8

>  <pose>  (4) 
[-64.15440240160474, 11.055750242593883, -22.802833350958934, -5.158273597398803, 2.4955816498701817, 2.4760789789223896, 0.06580461176257608, -7.327487203376863, 0.2062273405773134, 3.068653119941565, -2.2643480609337328, 0.36974818461612785, 2.266526996820593, -0.4391665012618132]

>  <energy>  (4) 
-799.6958953627244

>  <inter_energy>  (4) 
-810.1197674545072

>  <intra_energy>  (4) 
16.278458017598176

>  <rmsd>  (4) 
2.49419

>  <sdf_rank>  (4) 
0

$$$$

     RDKit          3D

 44 46  0  0  0  0  0  0  0  0999 V2000
  -57.4623    8.4852  -23.9683 P   0  0  2  0  0  0  0  0  0  0  0  0
  -57.6373    8.8392  -25.4276 O   0  0  0  0  0  0  0  0  0  0  0  0
  -56.8903    9.6268  -23.1712 O   0  0  0  0  0  0  0  0  0  0  0  0
  -56.7188    7.1769  -23.7622 O   0  0  0  0  0  0  0  0  0  0  0  0
  -58.9680    8.2875  -23.4304 O   0  0  0  0  0  0  0  0  0  0  0  0
  -59.5140    7.5219  -22.1180 P   0  0  1  0  0  0  0  0  0  0  0  0
  -59.7079    6.0767  -22.4295 O   0  0  0  0  0  0  0  0  0  0  0  0
  -58.5958    7.7979  -20.9461 O   0  0  0  0  0  0  0  0  0  0  0  0
  -60.9800    8.1342  -21.8435 O   0  0  0  0  0  0  0  0  0  0  0  0
  -62.2949    7.8250  -22.7107 P   0  0  1  0  0  0  0  0  0  0  0  0
  -62.0735    8.1914  -24.1519 O   0  0  0  0  0  0  0  0  0  0  0  0
  -62.7066    6.3915  -22.5046 O   0  0  0  0  0  0  0  0  0  0  0  0
  -63.3610    8.7666  -21.9846 O   0  0  0  0  0  0  0  0  0  0  0  0
  -64.2765    9.5826  -22.6886 C   0  0  0  0  0  0  0  0  0  0  0  0
  -63.4993   10.6941  -23.3986 C   0  0  1  0  0  0  0  0  0  0  0  0
  -63.7827   10.6891  -24.7859 O   0  0  0  0  0  0  0  0  0  0  0  0
  -63.8817   12.0569  -22.8825 C   0  0  1  0  0  0  0  0  0  0  0  0
  -63.1395   12.3828  -21.7282 O   0  0  0  0  0  0  0  0  0  0  0  0
  -63.5722   12.9244  -24.0832 C   0  0  1  0  0  0  0  0  0  0  0  0
  -62.1871   13.1986  -24.1479 O   0  0  0  0  0  0  0  0  0  0  0  0
  -63.8979   12.0118  -25.2547 C   0  0  2  0  0  0  0  0  0  0  0  0
  -65.2683   12.2331  -25.7130 N   0  0  0  0  0  0  0  0  0  0  0  0
  -66.3392   12.6797  -24.9928 C   0  0  0  0  0  0  0  0  0  0  0  0
  -67.4131   12.7133  -25.8102 N   0  0  0  0  0  0  0  0  0  0  0  0
  -67.0433   12.2764  -27.0348 C   0  0  0  0  0  0  0  0  0  0  0  0
  -67.7286   12.0887  -28.2348 C   0  0  0  0  0  0  0  0  0  0  0  0
  -68.9355   12.3453  -28.3499 O   0  0  0  0  0  0  0  0  0  0  0  0
  -67.0401   11.5959  -29.3135 N   0  0  0  0  0  0  0  0  0  0  0  0
  -65.6962   11.3033  -29.2281 C   0  0  0  0  0  0  0  0  0  0  0  0
  -65.0496   10.8468  -30.2946 N   0  0  0  0  0  0  0  0  0  0  0  0
  -65.0134   11.4967  -28.0577 N   0  0  0  0  0  0  0  0  0  0  0  0
  -65.6966   11.9599  -26.9767 C   0  0  0  0  0  0  0  0  0  0  0  0
  -64.8171    8.9769  -23.4308 H   0  0  0  0  0  0  0  0  0  0  0  0
  -65.0021   10.0217  -21.9881 H   0  0  0  0  0  0  0  0  0  0  0  0
  -62.4337   10.5003  -23.2064 H   0  0  0  0  0  0  0  0  0  0  0  0
  -64.9237   12.1629  -22.5464 H   0  0  0  0  0  0  0  0  0  0  0  0
  -63.6653   12.1519  -20.9217 H   0  0  0  0  0  0  0  0  0  0  0  0
  -64.1189   13.8787  -24.0608 H   0  0  0  0  0  0  0  0  0  0  0  0
  -61.8218   13.2709  -23.2306 H   0  0  0  0  0  0  0  0  0  0  0  0
  -63.2160   12.2114  -26.0944 H   0  0  0  0  0  0  0  0  0  0  0  0
  -66.3285   12.9633  -23.9301 H   0  0  0  0  0  0  0  0  0  0  0  0
  -67.5360   11.4418  -30.2030 H   0  0  0  0  0  0  0  0  0  0  0  0
  -64.0451   10.6275  -30.2330 H   0  0  0  0  0  0  0  0  0  0  0  0
  -65.5527   10.7121  -31.1832 H   0  0  0  0  0  0  0  0  0  0  0  0
  1  2  2  0
  1  3  1  1
  1  4  1  0
  1  5  1  0
  5  6  1  0
  6  7  2  0
  6  8  1  1
  6  9  1  0
  9 10  1  0
 10 11  2  0
 10 12  1  6
 10 13  1  0
 13 14  1  0
 15 14  1  0
 15 16  1  0
 15 17  1  0
 16 21  1  0
 17 18  1  0
 17 19  1  0
 19 20  1  0
 19 21  1  0
 21 22  1  0
 22 23  1  0
 22 32  1  0
 23 24  2  0
 24 25  1  0
 25 26  1  0
 25 32  2  0
 26 27  2  0
 26 28  1  0
 28 29  1  0
 29 30  1  0
 29 31  2  0
 31 32  1  0
 14 33  1  0
 14 34  1  0
 15 35  1  6
 17 36  1  1
 18 37  1  0
 19 38  1  1
 20 39  1  0
 21 40  1  6
 23 41  1  0
 28 42  1  0
 30 43  1  0
 30 44  1  0
M  CHG  4   3  -1   4  -1   8  -1  12  -1
M  END
>  <filename_input>  (5) 
7LJN_GTP_docked.sdf

>  <pdb_id>  (5) 
7LJN_GTP

>  <pose_rank>  (5) 
4

>  <num_atoms_heavy>  (5) 
32

>  <num_torsions>  (5) 
8

>  <pose>  (5) 
[-63.4992653907168, 10.694101824233025, -23.398582613186456, -0.7640644530129728, 0.9404746370159615, -2.082696511762617, 1.4471621412885987, -3.141429403949024, 1.3199590313360126, 1.3696959490770249, -0.7870718112732925, 2.4701585343701757, 0.7266420417480293, -0.7237728432752579]

>  <energy>  (5) 
-712.1722998313833

>  <inter_energy>  (5) 
-740.9238134778298

>  <intra_energy>  (5) 
27.852284910575914

>  <rmsd>  (5) 
2.85199

>  <sdf_rank>  (5) 
0

$$$$

     RDKit          3D

 44 46  0  0  0  0  0  0  0  0999 V2000
  -58.8065    6.6080  -22.0431 P   0  0  2  0  0  0  0  0  0  0  0  0
  -58.0641    7.8815  -22.3785 O   0  0  0  0  0  0  0  0  0  0  0  0
  -58.8997    6.3788  -20.5582 O   0  0  0  0  0  0  0  0  0  0  0  0
  -58.2861    5.4017  -22.8053 O   0  0  0  0  0  0  0  0  0  0  0  0
  -60.3133    6.8919  -22.5371 O   0  0  0  0  0  0  0  0  0  0  0  0
  -61.5179    7.6823  -21.8083 P   0  0  1  0  0  0  0  0  0  0  0  0
  -62.4295    6.7029  -21.1504 O   0  0  0  0  0  0  0  0  0  0  0  0
  -60.9504    8.7377  -20.8826 O   0  0  0  0  0  0  0  0  0  0  0  0
  -62.3615    8.3691  -22.9982 O   0  0  0  0  0  0  0  0  0  0  0  0
  -61.7876    9.4384  -24.0489 P   0  0  1  0  0  0  0  0  0  0  0  0
  -60.5110   10.0459  -23.5377 O   0  0  0  0  0  0  0  0  0  0  0  0
  -61.6534    8.7908  -25.4015 O   0  0  0  0  0  0  0  0  0  0  0  0
  -62.9958   10.4812  -24.1053 O   0  0  0  0  0  0  0  0  0  0  0  0
  -64.3506   10.1016  -23.9642 C   0  0  0  0  0  0  0  0  0  0  0  0
  -65.2050   11.3658  -23.8389 C   0  0  1  0  0  0  0  0  0  0  0  0
  -64.9813   12.2266  -24.9407 O   0  0  0  0  0  0  0  0  0  0  0  0
  -66.6767   11.0437  -23.8318 C   0  0  1  0  0  0  0  0  0  0  0  0
  -67.1121   10.7151  -22.5310 O   0  0  0  0  0  0  0  0  0  0  0  0
  -67.2625   12.3290  -24.3747 C   0  0  1  0  0  0  0  0  0  0  0  0
  -67.3419   13.3032  -23.3536 O   0  0  0  0  0  0  0  0  0  0  0  0
  -66.1992   12.8000  -25.3538 C   0  0  2  0  0  0  0  0  0  0  0  0
  -66.5047   12.3369  -26.7064 N   0  0  0  0  0  0  0  0  0  0  0  0
  -67.7211   12.0096  -27.2336 C   0  0  0  0  0  0  0  0  0  0  0  0
  -67.5347   11.6125  -28.5103 N   0  0  0  0  0  0  0  0  0  0  0  0
  -66.2145   11.6654  -28.7955 C   0  0  0  0  0  0  0  0  0  0  0  0
  -65.4642   11.3598  -29.9306 C   0  0  0  0  0  0  0  0  0  0  0  0
  -65.9898   10.9517  -30.9761 O   0  0  0  0  0  0  0  0  0  0  0  0
  -64.1021   11.5097  -29.8770 N   0  0  0  0  0  0  0  0  0  0  0  0
  -63.4798   11.9662  -28.7353 C   0  0  0  0  0  0  0  0  0  0  0  0
  -62.1611   12.1217  -28.7180 N   0  0  0  0  0  0  0  0  0  0  0  0
  -64.2102   12.2804  -27.6212 N   0  0  0  0  0  0  0  0  0  0  0  0
  -65.5588   12.1084  -27.6593 C   0  0  0  0  0  0  0  0  0  0  0  0
  -64.6677    9.5267  -24.8468 H   0  0  0  0  0  0  0  0  0  0  0  0
  -64.4729    9.4767  -23.0672 H   0  0  0  0  0  0  0  0  0  0  0  0
  -64.9160   11.8440  -22.8914 H   0  0  0  0  0  0  0  0  0  0  0  0
  -66.9741   10.1651  -24.4230 H   0  0  0  0  0  0  0  0  0  0  0  0
  -66.5269   11.1567  -21.8657 H   0  0  0  0  0  0  0  0  0  0  0  0
  -68.2662   12.1832  -24.8005 H   0  0  0  0  0  0  0  0  0  0  0  0
  -67.3057   12.8586  -22.4698 H   0  0  0  0  0  0  0  0  0  0  0  0
  -66.1529   13.8990  -25.3669 H   0  0  0  0  0  0  0  0  0  0  0  0
  -68.6864   12.0606  -26.7085 H   0  0  0  0  0  0  0  0  0  0  0  0
  -63.5344   11.2771  -30.7043 H   0  0  0  0  0  0  0  0  0  0  0  0
  -61.6938   12.4627  -27.8658 H   0  0  0  0  0  0  0  0  0  0  0  0
  -61.6055   11.9012  -29.5569 H   0  0  0  0  0  0  0  0  0  0  0  0
  1  2  2  0
  1  3  1  1
  1  4  1  0
  1  5  1  0
  5  6  1  0
  6  7  2  0
  6  8  1  1
  6  9  1  0
  9 10  1  0
 10 11  2  0
 10 12  1  6
 10 13  1  0
 13 14  1  0
 15 14  1  0
 15 16  1  0
 15 17  1  0
 16 21  1  0
 17 18  1  0
 17 19  1  0
 19 20  1  0
 19 21  1  0
 21 22  1  0
 22 23  1  0
 22 32  1  0
 23 24  2  0
 24 25  1  0
 25 26  1  0
 25 32  2  0
 26 27  2  0
 26 28  1  0
 28 29  1  0
 29 30  1  0
 29 31  2  0
 31 32  1  0
 14 33  1  0
 14 34  1  0
 15 35  1  1
 17 36  1  6
 18 37  1  0
 19 38  1  6
 20 39  1  0
 21 40  1  6
 23 41  1  0
 28 42  1  0
 30 43  1  0
 30 44  1  0
M  CHG  4   3  -1   4  -1   8  -1  12  -1
M  END
>  <filename_input>  (6) 
7LJN_GTP_docked.sdf

>  <pdb_id>  (6) 
7LJN_GTP

>  <pose_rank>  (6) 
5

>  <num_atoms_heavy>  (6) 
32

>  <num_torsions>  (6) 
8

>  <pose>  (6) 
[-65.20496386649131, 11.365777922638665, -23.838943379509807, -0.10206308364673249, 0.36393977476566536, -0.766416127273475, 46.3438563423211, -67.1812276601389, -69.91049871683157, 36.12785241337872, 25.040525630482193, 6.4218341158458205, -18.332113252641935, 1.3203720343724323]

>  <energy>  (6) 
-770.2592810590862

>  <inter_energy>  (6) 
-778.3002778119666

>  <intra_energy>  (6) 
22.754776386140563

>  <rmsd>  (6) 
2.25027

>  <sdf_rank>  (6) 
0

$$$$

     RDKit          3D

 44 46  0  0  0  0  0  0  0  0999 V2000
  -56.7197    7.3940  -21.8243 P   0  0  2  0  0  0  0  0  0  0  0  0
  -56.8273    6.2905  -22.8520 O   0  0  0  0  0  0  0  0  0  0  0  0
  -55.3029    7.8715  -21.6494 O   0  0  0  0  0  0  0  0  0  0  0  0
  -57.4034    7.0493  -20.5126 O   0  0  0  0  0  0  0  0  0  0  0  0
  -57.5176    8.6260  -22.4882 O   0  0  0  0  0  0  0  0  0  0  0  0
  -58.8495    8.6348  -23.4008 P   0  0  1  0  0  0  0  0  0  0  0  0
  -59.4391   10.0043  -23.4075 O   0  0  0  0  0  0  0  0  0  0  0  0
  -58.5333    8.0765  -24.7722 O   0  0  0  0  0  0  0  0  0  0  0  0
  -59.9014    7.6846  -22.6327 O   0  0  0  0  0  0  0  0  0  0  0  0
  -61.4573    8.0095  -22.4083 P   0  0  1  0  0  0  0  0  0  0  0  0
  -62.2597    6.7388  -22.3652 O   0  0  0  0  0  0  0  0  0  0  0  0
  -61.6187    8.8717  -21.1846 O   0  0  0  0  0  0  0  0  0  0  0  0
  -61.7668    8.8990  -23.6980 O   0  0  0  0  0  0  0  0  0  0  0  0
  -63.0447    9.4363  -23.9769 C   0  0  0  0  0  0  0  0  0  0  0  0
  -62.9174   10.9542  -24.1295 C   0  0  1  0  0  0  0  0  0  0  0  0
  -63.3169   11.3574  -25.4267 O   0  0  0  0  0  0  0  0  0  0  0  0
  -63.8027   11.6871  -23.1554 C   0  0  1  0  0  0  0  0  0  0  0  0
  -63.1605   11.8373  -21.9086 O   0  0  0  0  0  0  0  0  0  0  0  0
  -64.0377   12.9881  -23.8917 C   0  0  1  0  0  0  0  0  0  0  0  0
  -62.9306   13.8517  -23.7298 O   0  0  0  0  0  0  0  0  0  0  0  0
  -64.0522   12.5558  -25.3492 C   0  0  2  0  0  0  0  0  0  0  0  0
  -65.4206   12.3004  -25.7958 N   0  0  0  0  0  0  0  0  0  0  0  0
  -66.5686   12.3174  -25.0565 C   0  0  0  0  0  0  0  0  0  0  0  0
  -67.5991   12.0031  -25.8700 N   0  0  0  0  0  0  0  0  0  0  0  0
  -67.1192   11.7686  -27.1117 C   0  0  0  0  0  0  0  0  0  0  0  0
  -67.7143   11.3973  -28.3170 C   0  0  0  0  0  0  0  0  0  0  0  0
  -68.9365   11.2196  -28.4197 O   0  0  0  0  0  0  0  0  0  0  0  0
  -66.9140   11.2166  -29.4158 N   0  0  0  0  0  0  0  0  0  0  0  0
  -65.5514   11.4097  -29.3445 C   0  0  0  0  0  0  0  0  0  0  0  0
  -64.8029   11.2478  -30.4295 N   0  0  0  0  0  0  0  0  0  0  0  0
  -64.9611   11.7865  -28.1685 N   0  0  0  0  0  0  0  0  0  0  0  0
  -65.7461   11.9413  -27.0687 C   0  0  0  0  0  0  0  0  0  0  0  0
  -63.4331    9.0019  -24.9099 H   0  0  0  0  0  0  0  0  0  0  0  0
  -63.7378    9.1993  -23.1562 H   0  0  0  0  0  0  0  0  0  0  0  0
  -61.8615   11.1984  -23.9413 H   0  0  0  0  0  0  0  0  0  0  0  0
  -64.7422   11.1793  -22.8917 H   0  0  0  0  0  0  0  0  0  0  0  0
  -63.8136   11.6845  -21.1804 H   0  0  0  0  0  0  0  0  0  0  0  0
  -64.9427   13.5074  -23.5434 H   0  0  0  0  0  0  0  0  0  0  0  0
  -62.7564   13.9876  -22.7647 H   0  0  0  0  0  0  0  0  0  0  0  0
  -63.6225   13.3439  -25.9849 H   0  0  0  0  0  0  0  0  0  0  0  0
  -66.6411   12.5474  -23.9833 H   0  0  0  0  0  0  0  0  0  0  0  0
  -67.3386   10.9315  -30.3098 H   0  0  0  0  0  0  0  0  0  0  0  0
  -63.7842   11.3916  -30.3786 H   0  0  0  0  0  0  0  0  0  0  0  0
  -65.2409   10.9784  -31.3219 H   0  0  0  0  0  0  0  0  0  0  0  0
  1  2  2  0
  1  3  1  1
  1  4  1  0
  1  5  1  0
  5  6  1  0
  6  7  2  0
  6  8  1  6
  6  9  1  0
  9 10  1  0
 10 11  2  0
 10 12  1  1
 10 13  1  0
 13 14  1  0
 15 14  1  0
 15 16  1  0
 15 17  1  0
 16 21  1  0
 17 18  1  0
 17 19  1  0
 19 20  1  0
 19 21  1  0
 21 22  1  0
 22 23  1  0
 22 32  1  0
 23 24  2  0
 24 25  1  0
 25 26  1  0
 25 32  2  0
 26 27  2  0
 26 28  1  0
 28 29  1  0
 29 30  1  0
 29 31  2  0
 31 32  1  0
 14 33  1  0
 14 34  1  0
 15 35  1  1
 17 36  1  1
 18 37  1  0
 19 38  1  1
 20 39  1  0
 21 40  1  6
 23 41  1  0
 28 42  1  0
 30 43  1  0
 30 44  1  0
M  CHG  4   3  -1   4  -1   8  -1  12  -1
M  END
>  <filename_input>  (7) 
7LJN_GTP_docked.sdf

>  <pdb_id>  (7) 
7LJN_GTP

>  <pose_rank>  (7) 
6

>  <num_atoms_heavy>  (7) 
32

>  <num_torsions>  (7) 
8

>  <pose>  (7) 
[-62.917400437688066, 10.95421542632086, -24.12951663896995, -0.6965788830624091, 1.0362999721962032, -1.4172107500156417, 1.838276997209004, 3.046965898490327, -1.6155988431980775, 2.137343291219847, 2.827909298353694, 3.568006632028909, -1.220533512266128, -2.8945839442524797]

>  <energy>  (7) 
-704.2101268587353

>  <inter_energy>  (7) 
-733.3802467114997

>  <intra_energy>  (7) 
28.80604759418529

>  <rmsd>  (7) 
2.93758

>  <sdf_rank>  (7) 
0

$$$$

     RDKit          3D

 44 46  0  0  0  0  0  0  0  0999 V2000
  -57.2403    7.1695  -21.7217 P   0  0  2  0  0  0  0  0  0  0  0  0
  -56.5158    6.8863  -20.4254 O   0  0  0  0  0  0  0  0  0  0  0  0
  -58.7316    7.0168  -21.5843 O   0  0  0  0  0  0  0  0  0  0  0  0
  -56.6644    6.4043  -22.9005 O   0  0  0  0  0  0  0  0  0  0  0  0
  -56.9834    8.7389  -21.9787 O   0  0  0  0  0  0  0  0  0  0  0  0
  -56.7074    9.5386  -23.3540 P   0  0  1  0  0  0  0  0  0  0  0  0
  -56.7401   11.0060  -23.0915 O   0  0  0  0  0  0  0  0  0  0  0  0
  -55.4264    9.0386  -23.9879 O   0  0  0  0  0  0  0  0  0  0  0  0
  -57.9710    9.2121  -24.3005 O   0  0  0  0  0  0  0  0  0  0  0  0
  -58.0051    9.3764  -25.8969 P   0  0  1  0  0  0  0  0  0  0  0  0
  -57.5152   10.7405  -26.2964 O   0  0  0  0  0  0  0  0  0  0  0  0
  -57.2417    8.2460  -26.5343 O   0  0  0  0  0  0  0  0  0  0  0  0
  -59.5609    9.1628  -26.1870 O   0  0  0  0  0  0  0  0  0  0  0  0
  -60.5501   10.1071  -25.8276 C   0  0  0  0  0  0  0  0  0  0  0  0
  -61.2721   10.5697  -27.0959 C   0  0  1  0  0  0  0  0  0  0  0  0
  -62.5894   10.0518  -27.1334 O   0  0  0  0  0  0  0  0  0  0  0  0
  -61.3942   12.0704  -27.1501 C   0  0  1  0  0  0  0  0  0  0  0  0
  -60.2296   12.6492  -27.6962 O   0  0  0  0  0  0  0  0  0  0  0  0
  -62.6290   12.2349  -28.0093 C   0  0  1  0  0  0  0  0  0  0  0  0
  -62.3006   12.0860  -29.3760 O   0  0  0  0  0  0  0  0  0  0  0  0
  -63.4741   11.0315  -27.6236 C   0  0  2  0  0  0  0  0  0  0  0  0
  -64.4200   11.3853  -26.5666 N   0  0  0  0  0  0  0  0  0  0  0  0
  -64.2003   11.4447  -25.2202 C   0  0  0  0  0  0  0  0  0  0  0  0
  -65.3575   11.7930  -24.6186 N   0  0  0  0  0  0  0  0  0  0  0  0
  -66.3140   11.9375  -25.5628 C   0  0  0  0  0  0  0  0  0  0  0  0
  -67.6692   12.2630  -25.5151 C   0  0  0  0  0  0  0  0  0  0  0  0
  -68.2499   12.5063  -24.4476 O   0  0  0  0  0  0  0  0  0  0  0  0
  -68.3760   12.3044  -26.6895 N   0  0  0  0  0  0  0  0  0  0  0  0
  -67.7659   12.0459  -27.8979 C   0  0  0  0  0  0  0  0  0  0  0  0
  -68.4700   12.1133  -29.0219 N   0  0  0  0  0  0  0  0  0  0  0  0
  -66.4335   11.7381  -27.9546 N   0  0  0  0  0  0  0  0  0  0  0  0
  -65.7331   11.6693  -26.7907 C   0  0  0  0  0  0  0  0  0  0  0  0
  -61.2719    9.6431  -25.1394 H   0  0  0  0  0  0  0  0  0  0  0  0
  -60.0819   10.9681  -25.3281 H   0  0  0  0  0  0  0  0  0  0  0  0
  -60.6741   10.2062  -27.9445 H   0  0  0  0  0  0  0  0  0  0  0  0
  -61.4903   12.5751  -26.1774 H   0  0  0  0  0  0  0  0  0  0  0  0
  -59.6335   12.9454  -26.9634 H   0  0  0  0  0  0  0  0  0  0  0  0
  -63.1087   13.2147  -27.8676 H   0  0  0  0  0  0  0  0  0  0  0  0
  -61.4020   11.6784  -29.4569 H   0  0  0  0  0  0  0  0  0  0  0  0
  -64.0451   10.6723  -28.4925 H   0  0  0  0  0  0  0  0  0  0  0  0
  -63.2450   11.2435  -24.7132 H   0  0  0  0  0  0  0  0  0  0  0  0
  -69.3801   12.5325  -26.6681 H   0  0  0  0  0  0  0  0  0  0  0  0
  -68.0161   11.9205  -29.9262 H   0  0  0  0  0  0  0  0  0  0  0  0
  -69.4698   12.3584  -28.9894 H   0  0  0  0  0  0  0  0  0  0  0  0
  1  2  2  0
  1  3  1  1
  1  4  1  0
  1  5  1  0
  5  6  1  0
  6  7  2  0
  6  8  1  6
  6  9  1  0
  9 10  1  0
 10 11  2  0
 10 12  1  6
 10 13  1  0
 13 14  1  0
 15 14  1  0
 15 16  1  0
 15 17  1  0
 16 21  1  0
 17 18  1  0
 17 19  1  0
 19 20  1  0
 19 21  1  0
 21 22  1  0
 22 23  1  0
 22 32  1  0
 23 24  2  0
 24 25  1  0
 25 26  1  0
 25 32  2  0
 26 27  2  0
 26 28  1  0
 28 29  1  0
 29 30  1  0
 29 31  2  0
 31 32  1  0
 14 33  1  0
 14 34  1  0
 15 35  1  6
 17 36  1  1
 18 37  1  0
 19 38  1  6
 20 39  1  0
 21 40  1  6
 23 41  1  0
 28 42  1  0
 30 43  1  0
 30 44  1  0
M  CHG  4   3  -1   4  -1   8  -1  12  -1
M  END
>  <filename_input>  (8) 
7LJN_GTP_docked.sdf

>  <pdb_id>  (8) 
7LJN_GTP

>  <pose_rank>  (8) 
7

>  <num_atoms_heavy>  (8) 
32

>  <num_torsions>  (8) 
8

>  <pose>  (8) 
[-61.27213878439872, 10.569719833153238, -27.09586114338588, 2.5073075957472466, -0.8726212238011188, 1.722402034859241, 0.47977867057579926, 2.8689282084697116, -1.6855305018498143, 0.24081088485235036, -0.6597914969649988, -1.6103029629888879, -1.0569938667781942, -1.0511946234288396]

>  <energy>  (8) 
-647.662513911333

>  <inter_energy>  (8) 
-652.5878254449252

>  <intra_energy>  (8) 
8.524340545282978

>  <rmsd>  (8) 
4.36358

>  <sdf_rank>  (8) 
0

$$$$

     RDKit          3D

 44 46  0  0  0  0  0  0  0  0999 V2000
  -59.0066   11.3652  -27.1725 P   0  0  2  0  0  0  0  0  0  0  0  0
  -59.2568   11.0934  -28.6384 O   0  0  0  0  0  0  0  0  0  0  0  0
  -58.8203   12.8321  -26.8903 O   0  0  0  0  0  0  0  0  0  0  0  0
  -57.9052   10.4969  -26.5895 O   0  0  0  0  0  0  0  0  0  0  0  0
  -60.3902   10.9545  -26.4567 O   0  0  0  0  0  0  0  0  0  0  0  0
  -60.6858   10.5238  -24.9290 P   0  0  1  0  0  0  0  0  0  0  0  0
  -60.3626    9.0796  -24.7477 O   0  0  0  0  0  0  0  0  0  0  0  0
  -59.9583   11.4574  -23.9847 O   0  0  0  0  0  0  0  0  0  0  0  0
  -62.2813   10.6649  -24.7451 O   0  0  0  0  0  0  0  0  0  0  0  0
  -63.1489    9.9747  -23.5842 P   0  0  1  0  0  0  0  0  0  0  0  0
  -63.3450    8.5122  -23.8722 O   0  0  0  0  0  0  0  0  0  0  0  0
  -62.5106   10.2507  -22.2488 O   0  0  0  0  0  0  0  0  0  0  0  0
  -64.5026   10.8165  -23.6811 O   0  0  0  0  0  0  0  0  0  0  0  0
  -64.9598   11.6651  -22.6466 C   0  0  0  0  0  0  0  0  0  0  0  0
  -66.4514   11.9381  -22.8576 C   0  0  1  0  0  0  0  0  0  0  0  0
  -66.6379   12.9383  -23.8423 O   0  0  0  0  0  0  0  0  0  0  0  0
  -67.1779   10.7107  -23.3427 C   0  0  1  0  0  0  0  0  0  0  0  0
  -67.5610    9.8931  -22.2590 O   0  0  0  0  0  0  0  0  0  0  0  0
  -68.3379   11.3310  -24.0907 C   0  0  1  0  0  0  0  0  0  0  0  0
  -69.3501   11.7276  -23.1873 O   0  0  0  0  0  0  0  0  0  0  0  0
  -67.7322   12.6028  -24.6625 C   0  0  2  0  0  0  0  0  0  0  0  0
  -67.2501   12.3755  -26.0238 N   0  0  0  0  0  0  0  0  0  0  0  0
  -67.7463   11.5192  -26.9647 C   0  0  0  0  0  0  0  0  0  0  0  0
  -66.9803   11.6188  -28.0718 N   0  0  0  0  0  0  0  0  0  0  0  0
  -65.9932   12.5130  -27.8407 C   0  0  0  0  0  0  0  0  0  0  0  0
  -64.9281   12.9868  -28.6060 C   0  0  0  0  0  0  0  0  0  0  0  0
  -64.7286   12.5999  -29.7662 O   0  0  0  0  0  0  0  0  0  0  0  0
  -64.0743   13.9026  -28.0465 N   0  0  0  0  0  0  0  0  0  0  0  0
  -64.2648   14.3623  -26.7614 C   0  0  0  0  0  0  0  0  0  0  0  0
  -63.4344   15.2649  -26.2521 N   0  0  0  0  0  0  0  0  0  0  0  0
  -65.3151   13.9118  -26.0082 N   0  0  0  0  0  0  0  0  0  0  0  0
  -66.1498   12.9835  -26.5479 C   0  0  0  0  0  0  0  0  0  0  0  0
  -64.8072   11.1768  -21.6728 H   0  0  0  0  0  0  0  0  0  0  0  0
  -64.3998   12.6117  -22.6638 H   0  0  0  0  0  0  0  0  0  0  0  0
  -66.8505   12.2556  -21.8830 H   0  0  0  0  0  0  0  0  0  0  0  0
  -66.5897   10.0280  -23.9735 H   0  0  0  0  0  0  0  0  0  0  0  0
  -67.3464   10.3513  -21.4080 H   0  0  0  0  0  0  0  0  0  0  0  0
  -68.7752   10.6422  -24.8285 H   0  0  0  0  0  0  0  0  0  0  0  0
  -69.0309   11.6025  -22.2585 H   0  0  0  0  0  0  0  0  0  0  0  0
  -68.4853   13.4041  -24.6917 H   0  0  0  0  0  0  0  0  0  0  0  0
  -68.6195   10.8616  -26.8417 H   0  0  0  0  0  0  0  0  0  0  0  0
  -63.2769   14.2529  -28.5963 H   0  0  0  0  0  0  0  0  0  0  0  0
  -63.5749   15.6099  -25.2918 H   0  0  0  0  0  0  0  0  0  0  0  0
  -62.6499   15.6199  -26.8173 H   0  0  0  0  0  0  0  0  0  0  0  0
  1  2  2  0
  1  3  1  6
  1  4  1  0
  1  5  1  0
  5  6  1  0
  6  7  2  0
  6  8  1  1
  6  9  1  0
  9 10  1  0
 10 11  2  0
 10 12  1  1
 10 13  1  0
 13 14  1  0
 15 14  1  0
 15 16  1  0
 15 17  1  0
 16 21  1  0
 17 18  1  0
 17 19  1  0
 19 20  1  0
 19 21  1  0
 21 22  1  0
 22 23  1  0
 22 32  1  0
 23 24  2  0
 24 25  1  0
 25 26  1  0
 25 32  2  0
 26 27  2  0
 26 28  1  0
 28 29  1  0
 29 30  1  0
 29 31  2  0
 31 32  1  0
 14 33  1  0
 14 34  1  0
 15 35  1  1
 17 36  1  6
 18 37  1  0
 19 38  1  6
 20 39  1  0
 21 40  1  6
 23 41  1  0
 28 42  1  0
 30 43  1  0
 30 44  1  0
M  CHG  4   3  -1   4  -1   8  -1  12  -1
M  END
>  <filename_input>  (9) 
7LJN_GTP_docked.sdf

>  <pdb_id>  (9) 
7LJN_GTP

>  <pose_rank>  (9) 
8

>  <num_atoms_heavy>  (9) 
32

>  <num_torsions>  (9) 
8

>  <pose>  (9) 
[-66.45135373543424, 11.938060628957714, -22.8575727660609, -0.8743459437480365, 3.6480256172158594, 5.0861374455735975, 2.4725626522953768, -0.42723971823220913, -0.3134507523805435, 3.288865974454528, -1.1111164265674325, -2.278990579303021, 7.087959130108909, -0.7889505713557199]

>  <energy>  (9) 
-538.3500116267102

>  <inter_energy>  (9) 
-553.9245942777941

>  <intra_energy>  (9) 
20.35907660518582

>  <rmsd>  (9) 
3.80582

>  <sdf_rank>  (9) 
0

$$$$

     RDKit          3D

 44 46  0  0  0  0  0  0  0  0999 V2000
  -58.6915    7.4793  -22.7064 P   0  0  2  0  0  0  0  0  0  0  0  0
  -58.5605    7.5967  -21.2049 O   0  0  0  0  0  0  0  0  0  0  0  0
  -57.8039    6.4029  -23.2718 O   0  0  0  0  0  0  0  0  0  0  0  0
  -58.5465    8.8128  -23.4187 O   0  0  0  0  0  0  0  0  0  0  0  0
  -60.2011    6.9624  -22.9282 O   0  0  0  0  0  0  0  0  0  0  0  0
  -61.5863    7.4811  -22.2809 P   0  0  1  0  0  0  0  0  0  0  0  0
  -62.7075    7.2176  -23.2278 O   0  0  0  0  0  0  0  0  0  0  0  0
  -61.7659    6.8754  -20.9049 O   0  0  0  0  0  0  0  0  0  0  0  0
  -61.4377    9.0832  -22.1779 O   0  0  0  0  0  0  0  0  0  0  0  0
  -62.2544   10.1518  -23.0541 P   0  0  1  0  0  0  0  0  0  0  0  0
  -63.6984    9.7481  -23.1652 O   0  0  0  0  0  0  0  0  0  0  0  0
  -62.0510   11.5298  -22.4828 O   0  0  0  0  0  0  0  0  0  0  0  0
  -61.4725   10.0601  -24.4436 O   0  0  0  0  0  0  0  0  0  0  0  0
  -62.0327    9.4864  -25.6084 C   0  0  0  0  0  0  0  0  0  0  0  0
  -61.6688   10.3610  -26.8111 C   0  0  1  0  0  0  0  0  0  0  0  0
  -62.8392   10.8277  -27.4569 O   0  0  0  0  0  0  0  0  0  0  0  0
  -60.8870   11.5800  -26.3957 C   0  0  1  0  0  0  0  0  0  0  0  0
  -59.5116   11.2836  -26.2946 O   0  0  0  0  0  0  0  0  0  0  0  0
  -61.2322   12.5452  -27.5090 C   0  0  1  0  0  0  0  0  0  0  0  0
  -60.4477   12.2765  -28.6537 O   0  0  0  0  0  0  0  0  0  0  0  0
  -62.6635   12.1670  -27.8548 C   0  0  2  0  0  0  0  0  0  0  0  0
  -63.6086   13.0061  -27.1200 N   0  0  0  0  0  0  0  0  0  0  0  0
  -63.3373   14.0158  -26.2416 C   0  0  0  0  0  0  0  0  0  0  0  0
  -64.5099   14.5028  -25.7831 N   0  0  0  0  0  0  0  0  0  0  0  0
  -65.5219   13.8040  -26.3440 C   0  0  0  0  0  0  0  0  0  0  0  0
  -66.9101   13.8606  -26.2241 C   0  0  0  0  0  0  0  0  0  0  0  0
  -67.4737   14.6845  -25.4898 O   0  0  0  0  0  0  0  0  0  0  0  0
  -67.6674   12.9672  -26.9375 N   0  0  0  0  0  0  0  0  0  0  0  0
  -67.0794   12.0391  -27.7694 C   0  0  0  0  0  0  0  0  0  0  0  0
  -67.8381   11.1996  -28.4645 N   0  0  0  0  0  0  0  0  0  0  0  0
  -65.7183   11.9854  -27.9024 N   0  0  0  0  0  0  0  0  0  0  0  0
  -64.9605   12.8511  -27.1770 C   0  0  0  0  0  0  0  0  0  0  0  0
  -61.6296    8.4731  -25.7523 H   0  0  0  0  0  0  0  0  0  0  0  0
  -63.1263    9.4255  -25.5070 H   0  0  0  0  0  0  0  0  0  0  0  0
  -61.0646    9.7322  -27.4815 H   0  0  0  0  0  0  0  0  0  0  0  0
  -61.1283   11.9837  -25.4014 H   0  0  0  0  0  0  0  0  0  0  0  0
  -59.2553   11.2284  -25.3399 H   0  0  0  0  0  0  0  0  0  0  0  0
  -61.0779   13.5939  -27.2151 H   0  0  0  0  0  0  0  0  0  0  0  0
  -59.5495   11.9689  -28.3734 H   0  0  0  0  0  0  0  0  0  0  0  0
  -62.8445   12.3035  -28.9312 H   0  0  0  0  0  0  0  0  0  0  0  0
  -62.3359   14.3711  -25.9567 H   0  0  0  0  0  0  0  0  0  0  0  0
  -68.6935   12.9902  -26.8501 H   0  0  0  0  0  0  0  0  0  0  0  0
  -67.4008   10.5051  -29.0869 H   0  0  0  0  0  0  0  0  0  0  0  0
  -68.8638   11.2428  -28.3813 H   0  0  0  0  0  0  0  0  0  0  0  0
  1  2  2  0
  1  3  1  6
  1  4  1  0
  1  5  1  0
  5  6  1  0
  6  7  2  0
  6  8  1  1
  6  9  1  0
  9 10  1  0
 10 11  2  0
 10 12  1  1
 10 13  1  0
 13 14  1  0
 15 14  1  0
 15 16  1  0
 15 17  1  0
 16 21  1  0
 17 18  1  0
 17 19  1  0
 19 20  1  0
 19 21  1  0
 21 22  1  0
 22 23  1  0
 22 32  1  0
 23 24  2  0
 24 25  1  0
 25 26  1  0
 25 32  2  0
 26 27  2  0
 26 28  1  0
 28 29  1  0
 29 30  1  0
 29 31  2  0
 31 32  1  0
 14 33  1  0
 14 34  1  0
 15 35  1  6
 17 36  1  1
 18 37  1  0
 19 38  1  1
 20 39  1  0
 21 40  1  6
 23 41  1  0
 28 42  1  0
 30 43  1  0
 30 44  1  0
M  CHG  4   3  -1   4  -1   8  -1  12  -1
M  END
>  <filename_input>  (10) 
7LJN_GTP_docked.sdf

>  <pdb_id>  (10) 
7LJN_GTP

>  <pose_rank>  (10) 
9

>  <num_atoms_heavy>  (10) 
32

>  <num_torsions>  (10) 
8

>  <pose>  (10) 
[-61.66882061264818, 10.360981879225035, -26.811061976659094, -1.627326259820434, 1.816996485400483, -2.0651967137074188, 96.18544423592898, 331.8650937633477, -32.779632354662276, 327.6487870665535, -80.72012075107712, -9.444971307341326, 48.86366293615404, -2.711590252529008]

>  <energy>  (10) 
-585.5915775009221

>  <inter_energy>  (10) 
-609.2698811635785

>  <intra_energy>  (10) 
31.969294682005504

>  <rmsd>  (10) 
3.61699

>  <sdf_rank>  (10) 
0

$$$$

     RDKit          3D

 44 46  0  0  0  0  0  0  0  0999 V2000
  -66.0015   12.6421  -28.2553 P   0  0  2  0  0  0  0  0  0  0  0  0
  -66.5646   11.3638  -28.8336 O   0  0  0  0  0  0  0  0  0  0  0  0
  -66.9331   13.8095  -28.4428 O   0  0  0  0  0  0  0  0  0  0  0  0
  -64.5828   12.9257  -28.7176 O   0  0  0  0  0  0  0  0  0  0  0  0
  -65.9582   12.3678  -26.6684 O   0  0  0  0  0  0  0  0  0  0  0  0
  -66.6324   13.1855  -25.4503 P   0  0  1  0  0  0  0  0  0  0  0  0
  -66.2101   14.6140  -25.5160 O   0  0  0  0  0  0  0  0  0  0  0  0
  -68.1310   12.9689  -25.4568 O   0  0  0  0  0  0  0  0  0  0  0  0
  -65.9788   12.5734  -24.1097 O   0  0  0  0  0  0  0  0  0  0  0  0
  -66.1202   11.0526  -23.6160 P   0  0  1  0  0  0  0  0  0  0  0  0
  -66.7606   10.9975  -22.2569 O   0  0  0  0  0  0  0  0  0  0  0  0
  -66.8467   10.2505  -24.6628 O   0  0  0  0  0  0  0  0  0  0  0  0
  -64.5893   10.5982  -23.6030 O   0  0  0  0  0  0  0  0  0  0  0  0
  -63.8446   10.3602  -24.7813 C   0  0  0  0  0  0  0  0  0  0  0  0
  -62.4785   11.0376  -24.6448 C   0  0  1  0  0  0  0  0  0  0  0  0
  -61.9733   10.8749  -23.3321 O   0  0  0  0  0  0  0  0  0  0  0  0
  -61.4625   10.4334  -25.5788 C   0  0  1  0  0  0  0  0  0  0  0  0
  -61.5410   11.0254  -26.8566 O   0  0  0  0  0  0  0  0  0  0  0  0
  -60.1739   10.7230  -24.8401 C   0  0  1  0  0  0  0  0  0  0  0  0
  -59.7696   12.0592  -25.0618 O   0  0  0  0  0  0  0  0  0  0  0  0
  -60.5888   10.6226  -23.3810 C   0  0  2  0  0  0  0  0  0  0  0  0
  -60.3350    9.2782  -22.8659 N   0  0  0  0  0  0  0  0  0  0  0  0
  -61.2368    8.2829  -22.6192 C   0  0  0  0  0  0  0  0  0  0  0  0
  -60.5668    7.2181  -22.1296 N   0  0  0  0  0  0  0  0  0  0  0  0
  -59.2542    7.5299  -22.0444 C   0  0  0  0  0  0  0  0  0  0  0  0
  -58.1288    6.8348  -21.6028 C   0  0  0  0  0  0  0  0  0  0  0  0
  -58.1978    5.6715  -21.1813 O   0  0  0  0  0  0  0  0  0  0  0  0
  -56.9131    7.4687  -21.6310 N   0  0  0  0  0  0  0  0  0  0  0  0
  -56.7932    8.7598  -22.0977 C   0  0  0  0  0  0  0  0  0  0  0  0
  -55.6001    9.3421  -22.1330 N   0  0  0  0  0  0  0  0  0  0  0  0
  -57.8908    9.4444  -22.5446 N   0  0  0  0  0  0  0  0  0  0  0  0
  -59.1035    8.8307  -22.4943 C   0  0  0  0  0  0  0  0  0  0  0  0
  -63.7084    9.2775  -24.9205 H   0  0  0  0  0  0  0  0  0  0  0  0
  -64.3797   10.7683  -25.6513 H   0  0  0  0  0  0  0  0  0  0  0  0
  -62.6324   12.0997  -24.8863 H   0  0  0  0  0  0  0  0  0  0  0  0
  -61.5911    9.3620  -25.7927 H   0  0  0  0  0  0  0  0  0  0  0  0
  -61.6704   12.0022  -26.7604 H   0  0  0  0  0  0  0  0  0  0  0  0
  -59.3572   10.0530  -25.1468 H   0  0  0  0  0  0  0  0  0  0  0  0
  -59.6328   12.5113  -24.1918 H   0  0  0  0  0  0  0  0  0  0  0  0
  -60.0183   11.3395  -22.7722 H   0  0  0  0  0  0  0  0  0  0  0  0
  -62.3220    8.3391  -22.7901 H   0  0  0  0  0  0  0  0  0  0  0  0
  -56.0751    6.9713  -21.2975 H   0  0  0  0  0  0  0  0  0  0  0  0
  -55.5081   10.3070  -22.4815 H   0  0  0  0  0  0  0  0  0  0  0  0
  -54.7668    8.8288  -21.8120 H   0  0  0  0  0  0  0  0  0  0  0  0
  1  2  2  0
  1  3  1  1
  1  4  1  0
  1  5  1  0
  5  6  1  0
  6  7  2  0
  6  8  1  1
  6  9  1  0
  9 10  1  0
 10 11  2  0
 10 12  1  6
 10 13  1  0
 13 14  1  0
 15 14  1  0
 15 16  1  0
 15 17  1  0
 16 21  1  0
 17 18  1  0
 17 19  1  0
 19 20  1  0
 19 21  1  0
 21 22  1  0
 22 23  1  0
 22 32  1  0
 23 24  2  0
 24 25  1  0
 25 26  1  0
 25 32  2  0
 26 27  2  0
 26 28  1  0
 28 29  1  0
 29 30  1  0
 29 31  2  0
 31 32  1  0
 14 33  1  0
 14 34  1  0
 15 35  1  6
 17 36  1  6
 18 37  1  0
 19 38  1  6
 20 39  1  0
 21 40  1  1
 23 41  1  0
 28 42  1  0
 30 43  1  0
 30 44  1  0
M  CHG  4   3  -1   4  -1   8  -1  12  -1
M  END
>  <filename_input>  (11) 
7LJN_GTP_docked.sdf

>  <pdb_id>  (11) 
7LJN_GTP

>  <pose_rank>  (11) 
10

>  <num_atoms_heavy>  (11) 
32

>  <num_torsions>  (11) 
8

>  <pose>  (11) 
[-62.47852645637553, 11.03762989174811, -24.6447866462553, 0.4740819120956812, -2.3507570817719885, -1.3332487709369614, 0.10198557433820314, 1.6696060348810822, -1.4310233213376597, -2.26078450284073, -1.886799111892354, 0.10232192144590765, 1.2776654664138414, 0.6037091004078114]

>  <energy>  (11) 
-681.64034426904

>  <inter_energy>  (11) 
-687.9199782208309

>  <intra_energy>  (11) 
12.006073447408014

>  <rmsd>  (11) 
8.86109

>  <sdf_rank>  (11) 
0

$$$$

     RDKit          3D

 44 46  0  0  0  0  0  0  0  0999 V2000
  -65.1212   11.4422  -29.0107 P   0  0  2  0  0  0  0  0  0  0  0  0
  -64.1380   11.7884  -30.1057 O   0  0  0  0  0  0  0  0  0  0  0  0
  -64.4900   11.4882  -27.6449 O   0  0  0  0  0  0  0  0  0  0  0  0
  -65.8764   10.1523  -29.2801 O   0  0  0  0  0  0  0  0  0  0  0  0
  -66.1840   12.6525  -29.0422 O   0  0  0  0  0  0  0  0  0  0  0  0
  -67.2056   13.1725  -27.9053 P   0  0  1  0  0  0  0  0  0  0  0  0
  -68.2194   14.0750  -28.5224 O   0  0  0  0  0  0  0  0  0  0  0  0
  -67.7845   11.9895  -27.1583 O   0  0  0  0  0  0  0  0  0  0  0  0
  -66.3178   14.0855  -26.9166 O   0  0  0  0  0  0  0  0  0  0  0  0
  -66.4657   14.1428  -25.3192 P   0  0  1  0  0  0  0  0  0  0  0  0
  -65.7829   15.3648  -24.7707 O   0  0  0  0  0  0  0  0  0  0  0  0
  -67.9207   14.0407  -24.9458 O   0  0  0  0  0  0  0  0  0  0  0  0
  -65.7400   12.7828  -24.9021 O   0  0  0  0  0  0  0  0  0  0  0  0
  -65.3414   12.4955  -23.5762 C   0  0  0  0  0  0  0  0  0  0  0  0
  -65.7139   11.0460  -23.2538 C   0  0  1  0  0  0  0  0  0  0  0  0
  -64.9362   10.1504  -24.0272 O   0  0  0  0  0  0  0  0  0  0  0  0
  -65.4504   10.7126  -21.8084 C   0  0  1  0  0  0  0  0  0  0  0  0
  -66.5422   11.0907  -20.9992 O   0  0  0  0  0  0  0  0  0  0  0  0
  -65.2259    9.2181  -21.8867 C   0  0  1  0  0  0  0  0  0  0  0  0
  -66.4631    8.5375  -21.9493 O   0  0  0  0  0  0  0  0  0  0  0  0
  -64.5569    9.0456  -23.2409 C   0  0  2  0  0  0  0  0  0  0  0  0
  -63.1020    9.0439  -23.0989 N   0  0  0  0  0  0  0  0  0  0  0  0
  -62.2145   10.0116  -23.4740 C   0  0  0  0  0  0  0  0  0  0  0  0
  -60.9703    9.5827  -23.1734 N   0  0  0  0  0  0  0  0  0  0  0  0
  -61.0538    8.3480  -22.6295 C   0  0  0  0  0  0  0  0  0  0  0  0
  -60.1059    7.4398  -22.1590 C   0  0  0  0  0  0  0  0  0  0  0  0
  -58.8922    7.6899  -22.1723 O   0  0  0  0  0  0  0  0  0  0  0  0
  -60.5380    6.2311  -21.6764 N   0  0  0  0  0  0  0  0  0  0  0  0
  -61.8792    5.9169  -21.6392 C   0  0  0  0  0  0  0  0  0  0  0  0
  -62.2710    4.7472  -21.1474 N   0  0  0  0  0  0  0  0  0  0  0  0
  -62.8168    6.8078  -22.0873 N   0  0  0  0  0  0  0  0  0  0  0  0
  -62.3927    7.9975  -22.5919 C   0  0  0  0  0  0  0  0  0  0  0  0
  -64.2536   12.6281  -23.4799 H   0  0  0  0  0  0  0  0  0  0  0  0
  -65.8482   13.1767  -22.8769 H   0  0  0  0  0  0  0  0  0  0  0  0
  -66.7858   10.9429  -23.4784 H   0  0  0  0  0  0  0  0  0  0  0  0
  -64.6033   11.2399  -21.3455 H   0  0  0  0  0  0  0  0  0  0  0  0
  -66.2916   11.0039  -20.0454 H   0  0  0  0  0  0  0  0  0  0  0  0
  -64.6574    8.8357  -21.0262 H   0  0  0  0  0  0  0  0  0  0  0  0
  -66.7882    8.3587  -21.0315 H   0  0  0  0  0  0  0  0  0  0  0  0
  -64.8608    8.0921  -23.6976 H   0  0  0  0  0  0  0  0  0  0  0  0
  -62.4695   10.9746  -23.9406 H   0  0  0  0  0  0  0  0  0  0  0  0
  -59.8481    5.5463  -21.3359 H   0  0  0  0  0  0  0  0  0  0  0  0
  -63.2730    4.5103  -21.1186 H   0  0  0  0  0  0  0  0  0  0  0  0
  -61.5730    4.0769  -20.7948 H   0  0  0  0  0  0  0  0  0  0  0  0
  1  2  2  0
  1  3  1  1
  1  4  1  0
  1  5  1  0
  5  6  1  0
  6  7  2  0
  6  8  1  1
  6  9  1  0
  9 10  1  0
 10 11  2  0
 10 12  1  6
 10 13  1  0
 13 14  1  0
 15 14  1  0
 15 16  1  0
 15 17  1  0
 16 21  1  0
 17 18  1  0
 17 19  1  0
 19 20  1  0
 19 21  1  0
 21 22  1  0
 22 23  1  0
 22 32  1  0
 23 24  2  0
 24 25  1  0
 25 26  1  0
 25 32  2  0
 26 27  2  0
 26 28  1  0
 28 29  1  0
 29 30  1  0
 29 31  2  0
 31 32  1  0
 14 33  1  0
 14 34  1  0
 15 35  1  6
 17 36  1  1
 18 37  1  0
 19 38  1  1
 20 39  1  0
 21 40  1  6
 23 41  1  0
 28 42  1  0
 30 43  1  0
 30 44  1  0
M  CHG  4   3  -1   4  -1   8  -1  12  -1
M  END
>  <filename_input>  (12) 
7LJN_GTP_docked.sdf

>  <pdb_id>  (12) 
7LJN_GTP

>  <pose_rank>  (12) 
11

>  <num_atoms_heavy>  (12) 
32

>  <num_torsions>  (12) 
8

>  <pose>  (12) 
[-65.71387662101189, 11.04599963421804, -23.253825305010437, 3.208289064285238, 1.2914578623705848, -2.243816655821583, -6.250044610183808, -4.139078866614729, -1.394071545149407, -10.667327949399347, -2.630087830025882, 4.999705713325161, -0.6478474631657756, -0.020795419521006456]

>  <energy>  (12) 
-608.3439367099272

>  <inter_energy>  (12) 
-616.5179583113999

>  <intra_energy>  (12) 
10.667757754817046

>  <rmsd>  (12) 
8.00987

>  <sdf_rank>  (12) 
0

$$$$

     RDKit          3D

 44 46  0  0  0  0  0  0  0  0999 V2000
  -66.8933   12.9082  -24.2933 P   0  0  2  0  0  0  0  0  0  0  0  0
  -67.4122   14.2352  -24.7984 O   0  0  0  0  0  0  0  0  0  0  0  0
  -68.0027   11.9211  -24.0461 O   0  0  0  0  0  0  0  0  0  0  0  0
  -65.9453   13.0534  -23.1156 O   0  0  0  0  0  0  0  0  0  0  0  0
  -66.0522   12.3189  -25.5345 O   0  0  0  0  0  0  0  0  0  0  0  0
  -66.4359   12.2181  -27.0996 P   0  0  1  0  0  0  0  0  0  0  0  0
  -67.8552   11.7826  -27.2370 O   0  0  0  0  0  0  0  0  0  0  0  0
  -66.1058   13.5236  -27.7920 O   0  0  0  0  0  0  0  0  0  0  0  0
  -65.5285   11.0219  -27.6870 O   0  0  0  0  0  0  0  0  0  0  0  0
  -63.9265   11.0322  -27.7875 P   0  0  1  0  0  0  0  0  0  0  0  0
  -63.4795   10.5133  -29.1259 O   0  0  0  0  0  0  0  0  0  0  0  0
  -63.4123   12.4107  -27.4677 O   0  0  0  0  0  0  0  0  0  0  0  0
  -63.5443   10.0577  -26.5815 O   0  0  0  0  0  0  0  0  0  0  0  0
  -63.1593   10.5249  -25.3036 C   0  0  0  0  0  0  0  0  0  0  0  0
  -63.0477    9.3281  -24.3555 C   0  0  1  0  0  0  0  0  0  0  0  0
  -61.9370    8.5217  -24.7034 O   0  0  0  0  0  0  0  0  0  0  0  0
  -62.8361    9.7662  -22.9296 C   0  0  1  0  0  0  0  0  0  0  0  0
  -64.0681   10.0477  -22.3031 O   0  0  0  0  0  0  0  0  0  0  0  0
  -62.1100    8.5680  -22.3576 C   0  0  1  0  0  0  0  0  0  0  0  0
  -63.0288    7.5422  -22.0390 O   0  0  0  0  0  0  0  0  0  0  0  0
  -61.2873    8.0745  -23.5369 C   0  0  2  0  0  0  0  0  0  0  0  0
  -59.9411    8.6432  -23.4983 N   0  0  0  0  0  0  0  0  0  0  0  0
  -59.4545    9.7125  -24.1944 C   0  0  0  0  0  0  0  0  0  0  0  0
  -58.1546    9.8729  -23.8672 N   0  0  0  0  0  0  0  0  0  0  0  0
  -57.8039    8.9088  -22.9870 C   0  0  0  0  0  0  0  0  0  0  0  0
  -56.6112    8.5871  -22.3399 C   0  0  0  0  0  0  0  0  0  0  0  0
  -55.5746    9.2455  -22.5059 O   0  0  0  0  0  0  0  0  0  0  0  0
  -56.5912    7.5014  -21.5024 N   0  0  0  0  0  0  0  0  0  0  0  0
  -57.7240    6.7468  -21.2866 C   0  0  0  0  0  0  0  0  0  0  0  0
  -57.6813    5.7129  -20.4542 N   0  0  0  0  0  0  0  0  0  0  0  0
  -58.9017    7.0635  -21.9080 N   0  0  0  0  0  0  0  0  0  0  0  0
  -58.9212    8.1231  -22.7605 C   0  0  0  0  0  0  0  0  0  0  0  0
  -62.1865   11.0337  -25.3732 H   0  0  0  0  0  0  0  0  0  0  0  0
  -63.9082   11.2352  -24.9233 H   0  0  0  0  0  0  0  0  0  0  0  0
  -63.9917    8.7706  -24.4457 H   0  0  0  0  0  0  0  0  0  0  0  0
  -62.2709   10.7006  -22.7981 H   0  0  0  0  0  0  0  0  0  0  0  0
  -63.9522   10.0212  -21.3203 H   0  0  0  0  0  0  0  0  0  0  0  0
  -61.5367    8.8199  -21.4533 H   0  0  0  0  0  0  0  0  0  0  0  0
  -63.1030    7.4594  -21.0553 H   0  0  0  0  0  0  0  0  0  0  0  0
  -61.2004    6.9783  -23.5091 H   0  0  0  0  0  0  0  0  0  0  0  0
  -60.0236   10.3357  -24.8999 H   0  0  0  0  0  0  0  0  0  0  0  0
  -55.7144    7.2455  -21.0264 H   0  0  0  0  0  0  0  0  0  0  0  0
  -58.5267    5.1475  -20.2914 H   0  0  0  0  0  0  0  0  0  0  0  0
  -56.8027    5.4764  -19.9713 H   0  0  0  0  0  0  0  0  0  0  0  0
  1  2  2  0
  1  3  1  1
  1  4  1  0
  1  5  1  0
  5  6  1  0
  6  7  2  0
  6  8  1  6
  6  9  1  0
  9 10  1  0
 10 11  2  0
 10 12  1  1
 10 13  1  0
 13 14  1  0
 15 14  1  0
 15 16  1  0
 15 17  1  0
 16 21  1  0
 17 18  1  0
 17 19  1  0
 19 20  1  0
 19 21  1  0
 21 22  1  0
 22 23  1  0
 22 32  1  0
 23 24  2  0
 24 25  1  0
 25 26  1  0
 25 32  2  0
 26 27  2  0
 26 28  1  0
 28 29  1  0
 29 30  1  0
 29 31  2  0
 31 32  1  0
 14 33  1  0
 14 34  1  0
 15 35  1  1
 17 36  1  6
 18 37  1  0
 19 38  1  1
 20 39  1  0
 21 40  1  6
 23 41  1  0
 28 42  1  0
 30 43  1  0
 30 44  1  0
M  CHG  4   3  -1   4  -1   8  -1  12  -1
M  END
>  <filename_input>  (13) 
7LJN_GTP_docked.sdf

>  <pdb_id>  (13) 
7LJN_GTP

>  <pose_rank>  (13) 
12

>  <num_atoms_heavy>  (13) 
32

>  <num_torsions>  (13) 
8

>  <pose>  (13) 
[-63.047678834639825, 9.32805845558087, -24.35548011741316, -2.0051661734386768, -0.7917570583245582, 1.6718863759538762, 0.19601272851292767, -4.100108664936287, 5.519830924047482, 3.579320294584233, 4.1379091389398495, 0.05369766774256108, 1.5014497187639302, 1.9359171643816946]

>  <energy>  (13) 
-676.8517348035978

>  <inter_energy>  (13) 
-669.317816942442

>  <intra_energy>  (13) 
12.001322382129906

>  <rmsd>  (13) 
8.67369

>  <sdf_rank>  (13) 
0

$$$$

     RDKit          3D

 44 46  0  0  0  0  0  0  0  0999 V2000
  -58.6003    7.1708  -22.5241 P   0  0  2  0  0  0  0  0  0  0  0  0
  -57.9028    6.9486  -23.8468 O   0  0  0  0  0  0  0  0  0  0  0  0
  -57.8282    8.0970  -21.6230 O   0  0  0  0  0  0  0  0  0  0  0  0
  -59.0081    5.8746  -21.8456 O   0  0  0  0  0  0  0  0  0  0  0  0
  -59.9447    7.9655  -22.9194 O   0  0  0  0  0  0  0  0  0  0  0  0
  -60.1650    9.2004  -23.9360 P   0  0  1  0  0  0  0  0  0  0  0  0
  -61.4765    9.8505  -23.6523 O   0  0  0  0  0  0  0  0  0  0  0  0
  -58.9722   10.1312  -23.8756 O   0  0  0  0  0  0  0  0  0  0  0  0
  -60.2883    8.5343  -25.3990 O   0  0  0  0  0  0  0  0  0  0  0  0
  -60.1571    9.3193  -26.7930 P   0  0  1  0  0  0  0  0  0  0  0  0
  -58.9503   10.2158  -26.7809 O   0  0  0  0  0  0  0  0  0  0  0  0
  -60.1684    8.3309  -27.9287 O   0  0  0  0  0  0  0  0  0  0  0  0
  -61.5343   10.1276  -26.8125 O   0  0  0  0  0  0  0  0  0  0  0  0
  -61.8619   11.0706  -27.8140 C   0  0  0  0  0  0  0  0  0  0  0  0
  -63.2028   10.6777  -28.4395 C   0  0  1  0  0  0  0  0  0  0  0  0
  -64.2071   10.5899  -27.4452 O   0  0  0  0  0  0  0  0  0  0  0  0
  -63.6711   11.7023  -29.4399 C   0  0  1  0  0  0  0  0  0  0  0  0
  -63.0992   11.4641  -30.7072 O   0  0  0  0  0  0  0  0  0  0  0  0
  -65.1700   11.5005  -29.3891 C   0  0  1  0  0  0  0  0  0  0  0  0
  -65.5425   10.3828  -30.1700 O   0  0  0  0  0  0  0  0  0  0  0  0
  -65.4132   11.1259  -27.9360 C   0  0  2  0  0  0  0  0  0  0  0  0
  -65.7582   12.3099  -27.1509 N   0  0  0  0  0  0  0  0  0  0  0  0
  -65.7448   13.6179  -27.5428 C   0  0  0  0  0  0  0  0  0  0  0  0
  -66.1148   14.3777  -26.4902 N   0  0  0  0  0  0  0  0  0  0  0  0
  -66.3450   13.5718  -25.4296 C   0  0  0  0  0  0  0  0  0  0  0  0
  -66.7269   13.8077  -24.1093 C   0  0  0  0  0  0  0  0  0  0  0  0
  -66.9451   14.9502  -23.6819 O   0  0  0  0  0  0  0  0  0  0  0  0
  -66.8540   12.7371  -23.2617 N   0  0  0  0  0  0  0  0  0  0  0  0
  -66.6260   11.4505  -23.6994 C   0  0  0  0  0  0  0  0  0  0  0  0
  -66.7766   10.4306  -22.8623 N   0  0  0  0  0  0  0  0  0  0  0  0
  -66.2632   11.2095  -24.9970 N   0  0  0  0  0  0  0  0  0  0  0  0
  -66.1094   12.2692  -25.8355 C   0  0  0  0  0  0  0  0  0  0  0  0
  -61.9417   12.0725  -27.3669 H   0  0  0  0  0  0  0  0  0  0  0  0
  -61.0784   11.0846  -28.5859 H   0  0  0  0  0  0  0  0  0  0  0  0
  -63.0431    9.7085  -28.9346 H   0  0  0  0  0  0  0  0  0  0  0  0
  -63.3808   12.7418  -29.2274 H   0  0  0  0  0  0  0  0  0  0  0  0
  -62.1913   11.0860  -30.5938 H   0  0  0  0  0  0  0  0  0  0  0  0
  -65.7222   12.3810  -29.7494 H   0  0  0  0  0  0  0  0  0  0  0  0
  -65.7925    9.6326  -29.5743 H   0  0  0  0  0  0  0  0  0  0  0  0
  -66.2430   10.4076  -27.8612 H   0  0  0  0  0  0  0  0  0  0  0  0
  -65.4785   13.9885  -28.5437 H   0  0  0  0  0  0  0  0  0  0  0  0
  -67.1246   12.8975  -22.2809 H   0  0  0  0  0  0  0  0  0  0  0  0
  -66.6067    9.4681  -23.1873 H   0  0  0  0  0  0  0  0  0  0  0  0
  -67.0634   10.6021  -21.8880 H   0  0  0  0  0  0  0  0  0  0  0  0
  1  2  2  0
  1  3  1  1
  1  4  1  0
  1  5  1  0
  5  6  1  0
  6  7  2  0
  6  8  1  6
  6  9  1  0
  9 10  1  0
 10 11  2  0
 10 12  1  6
 10 13  1  0
 13 14  1  0
 15 14  1  0
 15 16  1  0
 15 17  1  0
 16 21  1  0
 17 18  1  0
 17 19  1  0
 19 20  1  0
 19 21  1  0
 21 22  1  0
 22 23  1  0
 22 32  1  0
 23 24  2  0
 24 25  1  0
 25 26  1  0
 25 32  2  0
 26 27  2  0
 26 28  1  0
 28 29  1  0
 29 30  1  0
 29 31  2  0
 31 32  1  0
 14 33  1  0
 14 34  1  0
 15 35  1  6
 17 36  1  1
 18 37  1  0
 19 38  1  6
 20 39  1  0
 21 40  1  6
 23 41  1  0
 28 42  1  0
 30 43  1  0
 30 44  1  0
M  CHG  4   3  -1   4  -1   8  -1  12  -1
M  END
>  <filename_input>  (14) 
7LJN_GTP_docked.sdf

>  <pdb_id>  (14) 
7LJN_GTP

>  <pose_rank>  (14) 
13

>  <num_atoms_heavy>  (14) 
32

>  <num_torsions>  (14) 
8

>  <pose>  (14) 
[-63.20282962517215, 10.677695301455314, -28.439544120122385, -3.6145358460528683, 0.12415229995838882, -1.5182813307764442, 1.8048669073629109, 1.9581681961583146, -1.594635569141782, -4.221870718369328, 1.044827718094416, -1.67501726196879, -0.6031665396768032, 1.9831465076141699]

>  <energy>  (14) 
-672.7124061817321

>  <inter_energy>  (14) 
-675.2865291126361

>  <intra_energy>  (14) 
16.790677968616027

>  <rmsd>  (14) 
4.47988

>  <sdf_rank>  (14) 
0

$$$$

     RDKit          3D

 44 46  0  0  0  0  0  0  0  0999 V2000
  -57.0879    7.4939  -21.6958 P   0  0  2  0  0  0  0  0  0  0  0  0
  -57.2210    6.2295  -22.5138 O   0  0  0  0  0  0  0  0  0  0  0  0
  -56.8295    7.2051  -20.2412 O   0  0  0  0  0  0  0  0  0  0  0  0
  -58.2322    8.4670  -21.9208 O   0  0  0  0  0  0  0  0  0  0  0  0
  -55.7402    8.1794  -22.2516 O   0  0  0  0  0  0  0  0  0  0  0  0
  -55.5208    9.1980  -23.4850 P   0  0  1  0  0  0  0  0  0  0  0  0
  -54.1414    9.7609  -23.4262 O   0  0  0  0  0  0  0  0  0  0  0  0
  -55.8660    8.5063  -24.7869 O   0  0  0  0  0  0  0  0  0  0  0  0
  -56.5305   10.4249  -23.2122 O   0  0  0  0  0  0  0  0  0  0  0  0
  -57.1659   11.3754  -24.3389 P   0  0  1  0  0  0  0  0  0  0  0  0
  -56.4879   12.7173  -24.3395 O   0  0  0  0  0  0  0  0  0  0  0  0
  -57.1243   10.6731  -25.6701 O   0  0  0  0  0  0  0  0  0  0  0  0
  -58.6850   11.4444  -23.8510 O   0  0  0  0  0  0  0  0  0  0  0  0
  -59.7765   11.0724  -24.6695 C   0  0  0  0  0  0  0  0  0  0  0  0
  -61.0252   10.9404  -23.7937 C   0  0  1  0  0  0  0  0  0  0  0  0
  -61.8438   12.0887  -23.9211 O   0  0  0  0  0  0  0  0  0  0  0  0
  -61.8676    9.7596  -24.2011 C   0  0  1  0  0  0  0  0  0  0  0  0
  -61.4062    8.5776  -23.5849 O   0  0  0  0  0  0  0  0  0  0  0  0
  -63.2392   10.2031  -23.7408 C   0  0  1  0  0  0  0  0  0  0  0  0
  -63.3851    9.9884  -22.3514 O   0  0  0  0  0  0  0  0  0  0  0  0
  -63.1991   11.7078  -23.9541 C   0  0  2  0  0  0  0  0  0  0  0  0
  -63.7563   12.0568  -25.2598 N   0  0  0  0  0  0  0  0  0  0  0  0
  -63.0984   12.5173  -26.3643 C   0  0  0  0  0  0  0  0  0  0  0  0
  -64.0076   12.7292  -27.3394 N   0  0  0  0  0  0  0  0  0  0  0  0
  -65.2364   12.4274  -26.8635 C   0  0  0  0  0  0  0  0  0  0  0  0
  -66.5171   12.4733  -27.4133 C   0  0  0  0  0  0  0  0  0  0  0  0
  -66.7192   12.8397  -28.5798 O   0  0  0  0  0  0  0  0  0  0  0  0
  -67.5813   12.1084  -26.6292 N   0  0  0  0  0  0  0  0  0  0  0  0
  -67.3982   11.6896  -25.3292 C   0  0  0  0  0  0  0  0  0  0  0  0
  -68.4450   11.3222  -24.5991 N   0  0  0  0  0  0  0  0  0  0  0  0
  -66.1433   11.6297  -24.7861 N   0  0  0  0  0  0  0  0  0  0  0  0
  -65.0864   12.0158  -25.5500 C   0  0  0  0  0  0  0  0  0  0  0  0
  -59.9427   11.8426  -25.4371 H   0  0  0  0  0  0  0  0  0  0  0  0
  -59.5634   10.1136  -25.1648 H   0  0  0  0  0  0  0  0  0  0  0  0
  -60.6689   10.8147  -22.7607 H   0  0  0  0  0  0  0  0  0  0  0  0
  -61.8462    9.5068  -25.2714 H   0  0  0  0  0  0  0  0  0  0  0  0
  -61.4465    8.6809  -22.6011 H   0  0  0  0  0  0  0  0  0  0  0  0
  -64.0475    9.6725  -24.2654 H   0  0  0  0  0  0  0  0  0  0  0  0
  -62.9037   10.6973  -21.8556 H   0  0  0  0  0  0  0  0  0  0  0  0
  -63.7889   12.2187  -23.1788 H   0  0  0  0  0  0  0  0  0  0  0  0
  -62.0145   12.6863  -26.4456 H   0  0  0  0  0  0  0  0  0  0  0  0
  -68.5340   12.1479  -27.0187 H   0  0  0  0  0  0  0  0  0  0  0  0
  -68.3105   11.0089  -23.6271 H   0  0  0  0  0  0  0  0  0  0  0  0
  -69.3913   11.3506  -25.0048 H   0  0  0  0  0  0  0  0  0  0  0  0
  1  2  2  0
  1  3  1  1
  1  4  1  0
  1  5  1  0
  5  6  1  0
  6  7  2  0
  6  8  1  6
  6  9  1  0
  9 10  1  0
 10 11  2  0
 10 12  1  6
 10 13  1  0
 13 14  1  0
 15 14  1  0
 15 16  1  0
 15 17  1  0
 16 21  1  0
 17 18  1  0
 17 19  1  0
 19 20  1  0
 19 21  1  0
 21 22  1  0
 22 23  1  0
 22 32  1  0
 23 24  2  0
 24 25  1  0
 25 26  1  0
 25 32  2  0
 26 27  2  0
 26 28  1  0
 28 29  1  0
 29 30  1  0
 29 31  2  0
 31 32  1  0
 14 33  1  0
 14 34  1  0
 15 35  1  1
 17 36  1  6
 18 37  1  0
 19 38  1  6
 20 39  1  0
 21 40  1  1
 23 41  1  0
 28 42  1  0
 30 43  1  0
 30 44  1  0
M  CHG  4   3  -1   4  -1   8  -1  12  -1
M  END
>  <filename_input>  (15) 
7LJN_GTP_docked.sdf

>  <pdb_id>  (15) 
7LJN_GTP

>  <pose_rank>  (15) 
14

>  <num_atoms_heavy>  (15) 
32

>  <num_torsions>  (15) 
8

>  <pose>  (15) 
[-61.025204489445585, 10.940380668856424, -23.793725274865707, -2.574072180786522, -4.573296262932331, -1.3144989182676443, 6.302355570648206, -3.548408521527951, -7.153022511998327, -3.1477149692705173, -1.6070769228883608, 4.7967766301412675, -1.1060589510255106, -2.001464740262537]

>  <energy>  (15) 
-531.9762922118695

>  <inter_energy>  (15) 
-559.4612218940389

>  <intra_energy>  (15) 
27.645230309987664

>  <rmsd>  (15) 
3.66948

>  <sdf_rank>  (15) 
0

$$$$

     RDKit          3D

 44 46  0  0  0  0  0  0  0  0999 V2000
  -64.4242   11.9249  -29.0312 P   0  0  2  0  0  0  0  0  0  0  0  0
  -63.3661   12.9635  -28.7359 O   0  0  0  0  0  0  0  0  0  0  0  0
  -64.4852   10.8583  -27.9707 O   0  0  0  0  0  0  0  0  0  0  0  0
  -64.3274   11.3659  -30.4401 O   0  0  0  0  0  0  0  0  0  0  0  0
  -65.8114   12.7359  -28.9159 O   0  0  0  0  0  0  0  0  0  0  0  0
  -66.8285   12.8900  -27.6715 P   0  0  1  0  0  0  0  0  0  0  0  0
  -67.5900   14.1648  -27.8062 O   0  0  0  0  0  0  0  0  0  0  0  0
  -67.6889   11.6492  -27.5578 O   0  0  0  0  0  0  0  0  0  0  0  0
  -65.8915   13.0491  -26.3693 O   0  0  0  0  0  0  0  0  0  0  0  0
  -66.3639   12.8318  -24.8506 P   0  0  1  0  0  0  0  0  0  0  0  0
  -66.1170   14.0734  -24.0396 O   0  0  0  0  0  0  0  0  0  0  0  0
  -67.7965   12.3689  -24.8319 O   0  0  0  0  0  0  0  0  0  0  0  0
  -65.4318   11.6092  -24.4188 O   0  0  0  0  0  0  0  0  0  0  0  0
  -64.2842   11.2184  -25.1468 C   0  0  0  0  0  0  0  0  0  0  0  0
  -63.4108   10.3357  -24.2514 C   0  0  1  0  0  0  0  0  0  0  0  0
  -62.5277    9.5544  -25.0353 O   0  0  0  0  0  0  0  0  0  0  0  0
  -62.5552   11.1589  -23.3240 C   0  0  1  0  0  0  0  0  0  0  0  0
  -63.2679   11.5027  -22.1564 O   0  0  0  0  0  0  0  0  0  0  0  0
  -61.3918   10.2210  -23.0858 C   0  0  1  0  0  0  0  0  0  0  0  0
  -61.7325    9.2514  -22.1153 O   0  0  0  0  0  0  0  0  0  0  0  0
  -61.2656    9.4921  -24.4140 C   0  0  2  0  0  0  0  0  0  0  0  0
  -60.2835   10.1532  -25.2716 N   0  0  0  0  0  0  0  0  0  0  0  0
  -60.4874   10.7634  -26.4762 C   0  0  0  0  0  0  0  0  0  0  0  0
  -59.2986   11.2194  -26.9248 N   0  0  0  0  0  0  0  0  0  0  0  0
  -58.3395   10.8909  -26.0307 C   0  0  0  0  0  0  0  0  0  0  0  0
  -56.9596   11.0880  -25.9866 C   0  0  0  0  0  0  0  0  0  0  0  0
  -56.3514   11.6845  -26.8866 O   0  0  0  0  0  0  0  0  0  0  0  0
  -56.2603   10.5955  -24.9146 N   0  0  0  0  0  0  0  0  0  0  0  0
  -56.9001    9.9316  -23.8905 C   0  0  0  0  0  0  0  0  0  0  0  0
  -56.2008    9.4833  -22.8544 N   0  0  0  0  0  0  0  0  0  0  0  0
  -58.2558    9.7451  -23.9201 N   0  0  0  0  0  0  0  0  0  0  0  0
  -58.9513   10.2077  -24.9934 C   0  0  0  0  0  0  0  0  0  0  0  0
  -64.5876   10.6534  -26.0405 H   0  0  0  0  0  0  0  0  0  0  0  0
  -63.7191   12.1084  -25.4609 H   0  0  0  0  0  0  0  0  0  0  0  0
  -64.0991    9.7029  -23.6719 H   0  0  0  0  0  0  0  0  0  0  0  0
  -62.2329   12.1352  -23.7153 H   0  0  0  0  0  0  0  0  0  0  0  0
  -62.7387   11.2475  -21.3595 H   0  0  0  0  0  0  0  0  0  0  0  0
  -60.4890   10.7523  -22.7502 H   0  0  0  0  0  0  0  0  0  0  0  0
  -61.5996    9.6297  -21.2101 H   0  0  0  0  0  0  0  0  0  0  0  0
  -60.9386    8.4547  -24.2500 H   0  0  0  0  0  0  0  0  0  0  0  0
  -61.4536   10.8657  -26.9919 H   0  0  0  0  0  0  0  0  0  0  0  0
  -55.2392   10.7241  -24.8743 H   0  0  0  0  0  0  0  0  0  0  0  0
  -56.6769    8.9867  -22.0878 H   0  0  0  0  0  0  0  0  0  0  0  0
  -55.1823    9.6321  -22.8174 H   0  0  0  0  0  0  0  0  0  0  0  0
  1  2  2  0
  1  3  1  1
  1  4  1  0
  1  5  1  0
  5  6  1  0
  6  7  2  0
  6  8  1  1
  6  9  1  0
  9 10  1  0
 10 11  2  0
 10 12  1  6
 10 13  1  0
 13 14  1  0
 15 14  1  0
 15 16  1  0
 15 17  1  0
 16 21  1  0
 17 18  1  0
 17 19  1  0
 19 20  1  0
 19 21  1  0
 21 22  1  0
 22 23  1  0
 22 32  1  0
 23 24  2  0
 24 25  1  0
 25 26  1  0
 25 32  2  0
 26 27  2  0
 26 28  1  0
 28 29  1  0
 29 30  1  0
 29 31  2  0
 31 32  1  0
 14 33  1  0
 14 34  1  0
 15 35  1  1
 17 36  1  6
 18 37  1  0
 19 38  1  1
 20 39  1  0
 21 40  1  1
 23 41  1  0
 28 42  1  0
 30 43  1  0
 30 44  1  0
M  CHG  4   3  -1   4  -1   8  -1  12  -1
M  END
>  <filename_input>  (16) 
7LJN_GTP_docked.sdf

>  <pdb_id>  (16) 
7LJN_GTP

>  <pose_rank>  (16) 
15

>  <num_atoms_heavy>  (16) 
32

>  <num_torsions>  (16) 
8

>  <pose>  (16) 
[-63.41084148429933, 10.335739877378233, -24.25137906977691, 1.736318246176737, 0.6668590953558086, -2.8881203732244853, -6.388115862430533, -8.81328940084266, -0.9377476292933423, -0.713756731542383, 4.366144420813935, -1.6399952096036092, -1.356266789922728, 1.089416168177096]

>  <energy>  (16) 
-555.2123466114779

>  <inter_energy>  (16) 
-590.8686827000611

>  <intra_energy>  (16) 
38.346215600177295

>  <rmsd>  (16) 
8.04825

>  <sdf_rank>  (16) 
0

$$$$

     RDKit          3D

 44 46  0  0  0  0  0  0  0  0999 V2000
  -67.1399   12.9684  -27.4277 P   0  0  2  0  0  0  0  0  0  0  0  0
  -66.1014   13.6168  -28.3145 O   0  0  0  0  0  0  0  0  0  0  0  0
  -67.6595   11.6806  -28.0089 O   0  0  0  0  0  0  0  0  0  0  0  0
  -68.2420   13.9264  -27.0098 O   0  0  0  0  0  0  0  0  0  0  0  0
  -66.3200   12.5518  -26.1051 O   0  0  0  0  0  0  0  0  0  0  0  0
  -66.7879   12.5029  -24.5606 P   0  0  1  0  0  0  0  0  0  0  0  0
  -67.4374   13.7947  -24.1963 O   0  0  0  0  0  0  0  0  0  0  0  0
  -67.6442   11.2767  -24.3244 O   0  0  0  0  0  0  0  0  0  0  0  0
  -65.4258   12.4146  -23.7027 O   0  0  0  0  0  0  0  0  0  0  0  0
  -64.8174   11.0766  -23.0575 P   0  0  1  0  0  0  0  0  0  0  0  0
  -63.8916   11.4134  -21.9219 O   0  0  0  0  0  0  0  0  0  0  0  0
  -65.9397   10.1499  -22.6722 O   0  0  0  0  0  0  0  0  0  0  0  0
  -64.0583   10.4547  -24.3175 O   0  0  0  0  0  0  0  0  0  0  0  0
  -62.6736   10.1683  -24.3205 C   0  0  0  0  0  0  0  0  0  0  0  0
  -61.8986   11.4868  -24.2523 C   0  0  1  0  0  0  0  0  0  0  0  0
  -60.5418   11.2481  -23.9250 O   0  0  0  0  0  0  0  0  0  0  0  0
  -61.9056   12.2050  -25.5767 C   0  0  1  0  0  0  0  0  0  0  0  0
  -63.0707   12.9877  -25.7169 O   0  0  0  0  0  0  0  0  0  0  0  0
  -60.6270   13.0090  -25.4829 C   0  0  1  0  0  0  0  0  0  0  0  0
  -60.8335   14.1727  -24.7077 O   0  0  0  0  0  0  0  0  0  0  0  0
  -59.7116   12.0989  -24.6798 C   0  0  2  0  0  0  0  0  0  0  0  0
  -58.8858   11.2851  -25.5703 N   0  0  0  0  0  0  0  0  0  0  0  0
  -59.0495   11.0634  -26.9077 C   0  0  0  0  0  0  0  0  0  0  0  0
  -58.0691   10.2324  -27.3209 N   0  0  0  0  0  0  0  0  0  0  0  0
  -57.2959    9.9084  -26.2605 C   0  0  0  0  0  0  0  0  0  0  0  0
  -56.1776    9.0905  -26.1016 C   0  0  0  0  0  0  0  0  0  0  0  0
  -55.6719    8.4762  -27.0517 O   0  0  0  0  0  0  0  0  0  0  0  0
  -55.6323    8.9603  -24.8501 N   0  0  0  0  0  0  0  0  0  0  0  0
  -56.1615    9.6309  -23.7688 C   0  0  0  0  0  0  0  0  0  0  0  0
  -55.6005    9.5028  -22.5720 N   0  0  0  0  0  0  0  0  0  0  0  0
  -57.2511   10.4456  -23.9187 N   0  0  0  0  0  0  0  0  0  0  0  0
  -57.8128   10.5579  -25.1523 C   0  0  0  0  0  0  0  0  0  0  0  0
  -62.4225    9.5461  -23.4489 H   0  0  0  0  0  0  0  0  0  0  0  0
  -62.4059    9.6237  -25.2380 H   0  0  0  0  0  0  0  0  0  0  0  0
  -62.3942   12.0997  -23.4850 H   0  0  0  0  0  0  0  0  0  0  0  0
  -61.9306   11.5599  -26.4673 H   0  0  0  0  0  0  0  0  0  0  0  0
  -63.4202   13.2225  -24.8210 H   0  0  0  0  0  0  0  0  0  0  0  0
  -60.2482   13.3076  -26.4715 H   0  0  0  0  0  0  0  0  0  0  0  0
  -60.7923   13.9403  -23.7462 H   0  0  0  0  0  0  0  0  0  0  0  0
  -59.0452   12.6966  -24.0405 H   0  0  0  0  0  0  0  0  0  0  0  0
  -59.8434   11.4885  -27.5395 H   0  0  0  0  0  0  0  0  0  0  0  0
  -54.8129    8.3507  -24.7160 H   0  0  0  0  0  0  0  0  0  0  0  0
  -55.9943   10.0031  -21.7623 H   0  0  0  0  0  0  0  0  0  0  0  0
  -54.7715    8.9030  -22.4533 H   0  0  0  0  0  0  0  0  0  0  0  0
  1  2  2  0
  1  3  1  6
  1  4  1  0
  1  5  1  0
  5  6  1  0
  6  7  2  0
  6  8  1  6
  6  9  1  0
  9 10  1  0
 10 11  2  0
 10 12  1  1
 10 13  1  0
 13 14  1  0
 15 14  1  0
 15 16  1  0
 15 17  1  0
 16 21  1  0
 17 18  1  0
 17 19  1  0
 19 20  1  0
 19 21  1  0
 21 22  1  0
 22 23  1  0
 22 32  1  0
 23 24  2  0
 24 25  1  0
 25 26  1  0
 25 32  2  0
 26 27  2  0
 26 28  1  0
 28 29  1  0
 29 30  1  0
 29 31  2  0
 31 32  1  0
 14 33  1  0
 14 34  1  0
 15 35  1  1
 17 36  1  6
 18 37  1  0
 19 38  1  6
 20 39  1  0
 21 40  1  1
 23 41  1  0
 28 42  1  0
 30 43  1  0
 30 44  1  0
M  CHG  4   3  -1   4  -1   8  -1  12  -1
M  END
>  <filename_input>  (17) 
7LJN_GTP_docked.sdf

>  <pdb_id>  (17) 
7LJN_GTP

>  <pose_rank>  (17) 
16

>  <num_atoms_heavy>  (17) 
32

>  <num_torsions>  (17) 
8

>  <pose>  (17) 
[-61.898589991367494, 11.48682601461766, -24.252294489993965, -1.3779689042851966, 2.0221583231031572, 3.4969142351110025, -17.185005524006588, -8.70635960757437, 1.3311234240511387, -11.429308953460316, 3.748366428014267, 5.715392916260558, -11.207586686850707, -0.9772338264537602]

>  <energy>  (17) 
-495.07079825202203

>  <inter_energy>  (17) 
-538.7863999667118

>  <intra_energy>  (17) 
45.365185807356454

>  <rmsd>  (17) 
8.43312

>  <sdf_rank>  (17) 
0

$$$$

     RDKit          3D

 44 46  0  0  0  0  0  0  0  0999 V2000
  -66.8223   12.4004  -25.0017 P   0  0  2  0  0  0  0  0  0  0  0  0
  -67.4725   13.4537  -24.1338 O   0  0  0  0  0  0  0  0  0  0  0  0
  -67.8289   11.6411  -25.8240 O   0  0  0  0  0  0  0  0  0  0  0  0
  -65.8757   11.4988  -24.2285 O   0  0  0  0  0  0  0  0  0  0  0  0
  -65.9467   13.2477  -26.0556 O   0  0  0  0  0  0  0  0  0  0  0  0
  -65.0964   12.7569  -27.3373 P   0  0  1  0  0  0  0  0  0  0  0  0
  -65.7628   11.5738  -27.9532 O   0  0  0  0  0  0  0  0  0  0  0  0
  -64.8764   13.9204  -28.2809 O   0  0  0  0  0  0  0  0  0  0  0  0
  -63.6902   12.2364  -26.7448 O   0  0  0  0  0  0  0  0  0  0  0  0
  -62.7338   11.1491  -27.4375 P   0  0  1  0  0  0  0  0  0  0  0  0
  -63.0220    9.7752  -26.8992 O   0  0  0  0  0  0  0  0  0  0  0  0
  -62.8571   11.2532  -28.9345 O   0  0  0  0  0  0  0  0  0  0  0  0
  -61.2966   11.6979  -27.0092 O   0  0  0  0  0  0  0  0  0  0  0  0
  -61.0863   12.4997  -25.8635 C   0  0  0  0  0  0  0  0  0  0  0  0
  -59.5883   12.5243  -25.5488 C   0  0  1  0  0  0  0  0  0  0  0  0
  -59.3526   12.0822  -24.2245 O   0  0  0  0  0  0  0  0  0  0  0  0
  -58.8142   11.6051  -26.4574 C   0  0  1  0  0  0  0  0  0  0  0  0
  -58.4906   12.2521  -27.6683 O   0  0  0  0  0  0  0  0  0  0  0  0
  -57.6171   11.2750  -25.5925 C   0  0  1  0  0  0  0  0  0  0  0  0
  -56.6716   12.3246  -25.6401 O   0  0  0  0  0  0  0  0  0  0  0  0
  -58.2026   11.2703  -24.1895 C   0  0  2  0  0  0  0  0  0  0  0  0
  -58.5919    9.9162  -23.7997 N   0  0  0  0  0  0  0  0  0  0  0  0
  -59.8502    9.4154  -23.6244 C   0  0  0  0  0  0  0  0  0  0  0  0
  -59.7415    8.1249  -23.2433 N   0  0  0  0  0  0  0  0  0  0  0  0
  -58.4312    7.8044  -23.1560 C   0  0  0  0  0  0  0  0  0  0  0  0
  -57.7486    6.6420  -22.7990 C   0  0  0  0  0  0  0  0  0  0  0  0
  -58.3427    5.6021  -22.4802 O   0  0  0  0  0  0  0  0  0  0  0  0
  -56.3774    6.6613  -22.7944 N   0  0  0  0  0  0  0  0  0  0  0  0
  -55.6795    7.7957  -23.1479 C   0  0  0  0  0  0  0  0  0  0  0  0
  -54.3516    7.7799  -23.1546 N   0  0  0  0  0  0  0  0  0  0  0  0
  -56.3418    8.9368  -23.5118 N   0  0  0  0  0  0  0  0  0  0  0  0
  -57.7018    8.9321  -23.4925 C   0  0  0  0  0  0  0  0  0  0  0  0
  -61.4404   13.5229  -26.0579 H   0  0  0  0  0  0  0  0  0  0  0  0
  -61.6416   12.0851  -25.0093 H   0  0  0  0  0  0  0  0  0  0  0  0
  -59.2579   13.5641  -25.6891 H   0  0  0  0  0  0  0  0  0  0  0  0
  -59.3504   10.7048  -26.7919 H   0  0  0  0  0  0  0  0  0  0  0  0
  -58.0565   13.1201  -27.4729 H   0  0  0  0  0  0  0  0  0  0  0  0
  -57.1230   10.3422  -25.9019 H   0  0  0  0  0  0  0  0  0  0  0  0
  -56.4298   12.5930  -24.7184 H   0  0  0  0  0  0  0  0  0  0  0  0
  -57.4608   11.6387  -23.4656 H   0  0  0  0  0  0  0  0  0  0  0  0
  -60.7902    9.9682  -23.7689 H   0  0  0  0  0  0  0  0  0  0  0  0
  -55.8603    5.8131  -22.5221 H   0  0  0  0  0  0  0  0  0  0  0  0
  -53.8278    8.6267  -23.4185 H   0  0  0  0  0  0  0  0  0  0  0  0
  -53.8454    6.9210  -22.8960 H   0  0  0  0  0  0  0  0  0  0  0  0
  1  2  2  0
  1  3  1  6
  1  4  1  0
  1  5  1  0
  5  6  1  0
  6  7  2  0
  6  8  1  6
  6  9  1  0
  9 10  1  0
 10 11  2  0
 10 12  1  6
 10 13  1  0
 13 14  1  0
 15 14  1  0
 15 16  1  0
 15 17  1  0
 16 21  1  0
 17 18  1  0
 17 19  1  0
 19 20  1  0
 19 21  1  0
 21 22  1  0
 22 23  1  0
 22 32  1  0
 23 24  2  0
 24 25  1  0
 25 26  1  0
 25 32  2  0
 26 27  2  0
 26 28  1  0
 28 29  1  0
 29 30  1  0
 29 31  2  0
 31 32  1  0
 14 33  1  0
 14 34  1  0
 15 35  1  1
 17 36  1  6
 18 37  1  0
 19 38  1  6
 20 39  1  0
 21 40  1  1
 23 41  1  0
 28 42  1  0
 30 43  1  0
 30 44  1  0
M  CHG  4   3  -1   4  -1   8  -1  12  -1
M  END
>  <filename_input>  (18) 
7LJN_GTP_docked.sdf

>  <pdb_id>  (18) 
7LJN_GTP

>  <pose_rank>  (18) 
17

>  <num_atoms_heavy>  (18) 
32

>  <num_torsions>  (18) 
8

>  <pose>  (18) 
[-59.58831357319595, 12.524299801198413, -25.548797761623046, -0.05315596524909381, 2.723300047342822, 1.722439296326933, -0.0018234752774452605, 11.374509483946033, -0.8986166023536438, -13.128162907492058, 4.8587392107439635, 10.167082972732478, 2.806478730455389, -0.292468034032266]

>  <energy>  (18) 
-595.0494334488219

>  <inter_energy>  (18) 
-608.0498301145201

>  <intra_energy>  (18) 
18.869146881219734

>  <rmsd>  (18) 
9.18263

>  <sdf_rank>  (18) 
0

$$$$

     RDKit          3D

 44 46  0  0  0  0  0  0  0  0999 V2000
  -57.3586    6.0660  -21.4056 P   0  0  2  0  0  0  0  0  0  0  0  0
  -57.4116    4.6961  -22.0429 O   0  0  0  0  0  0  0  0  0  0  0  0
  -56.2756    6.9271  -21.9986 O   0  0  0  0  0  0  0  0  0  0  0  0
  -57.3190    6.0113  -19.8883 O   0  0  0  0  0  0  0  0  0  0  0  0
  -58.7498    6.7531  -21.8388 O   0  0  0  0  0  0  0  0  0  0  0  0
  -59.2433    7.2900  -23.2793 P   0  0  1  0  0  0  0  0  0  0  0  0
  -58.2008    8.1831  -23.8613 O   0  0  0  0  0  0  0  0  0  0  0  0
  -59.6322    6.1182  -24.1559 O   0  0  0  0  0  0  0  0  0  0  0  0
  -60.5261    8.2177  -22.9745 O   0  0  0  0  0  0  0  0  0  0  0  0
  -60.7990    9.6664  -23.6097 P   0  0  1  0  0  0  0  0  0  0  0  0
  -59.7192   10.6309  -23.2046 O   0  0  0  0  0  0  0  0  0  0  0  0
  -60.9701    9.5369  -25.1000 O   0  0  0  0  0  0  0  0  0  0  0  0
  -62.2187   10.0133  -22.9660 O   0  0  0  0  0  0  0  0  0  0  0  0
  -63.2856   10.5739  -23.7057 C   0  0  0  0  0  0  0  0  0  0  0  0
  -64.5580   10.5131  -22.8565 C   0  0  1  0  0  0  0  0  0  0  0  0
  -65.4311   11.5752  -23.1949 O   0  0  0  0  0  0  0  0  0  0  0  0
  -65.3202    9.2343  -23.0879 C   0  0  1  0  0  0  0  0  0  0  0  0
  -64.8203    8.1977  -22.2723 O   0  0  0  0  0  0  0  0  0  0  0  0
  -66.7300    9.6655  -22.7467 C   0  0  1  0  0  0  0  0  0  0  0  0
  -66.9170    9.6717  -21.3457 O   0  0  0  0  0  0  0  0  0  0  0  0
  -66.7619   11.1151  -23.2038 C   0  0  2  0  0  0  0  0  0  0  0  0
  -67.2867   11.2134  -24.5647 N   0  0  0  0  0  0  0  0  0  0  0  0
  -68.1064   10.3397  -25.2202 C   0  0  0  0  0  0  0  0  0  0  0  0
  -68.3212   10.8156  -26.4651 N   0  0  0  0  0  0  0  0  0  0  0  0
  -67.6343   11.9701  -26.6156 C   0  0  0  0  0  0  0  0  0  0  0  0
  -67.4787   12.8638  -27.6748 C   0  0  0  0  0  0  0  0  0  0  0  0
  -68.0396   12.6936  -28.7667 O   0  0  0  0  0  0  0  0  0  0  0  0
  -66.6709   13.9577  -27.4971 N   0  0  0  0  0  0  0  0  0  0  0  0
  -66.0340   14.1858  -26.2965 C   0  0  0  0  0  0  0  0  0  0  0  0
  -65.2741   15.2644  -26.1455 N   0  0  0  0  0  0  0  0  0  0  0  0
  -66.1917   13.3202  -25.2480 N   0  0  0  0  0  0  0  0  0  0  0  0
  -66.9701   12.2193  -25.4266 C   0  0  0  0  0  0  0  0  0  0  0  0
  -63.0549   11.6209  -23.9521 H   0  0  0  0  0  0  0  0  0  0  0  0
  -63.4310   10.0103  -24.6390 H   0  0  0  0  0  0  0  0  0  0  0  0
  -64.2351   10.5785  -21.8070 H   0  0  0  0  0  0  0  0  0  0  0  0
  -65.2446    8.8123  -24.1009 H   0  0  0  0  0  0  0  0  0  0  0  0
  -64.9377    8.4412  -21.3200 H   0  0  0  0  0  0  0  0  0  0  0  0
  -67.4883    9.0099  -23.1998 H   0  0  0  0  0  0  0  0  0  0  0  0
  -66.0360    9.6424  -20.8951 H   0  0  0  0  0  0  0  0  0  0  0  0
  -67.4072   11.7098  -22.5406 H   0  0  0  0  0  0  0  0  0  0  0  0
  -68.5202    9.4088  -24.8053 H   0  0  0  0  0  0  0  0  0  0  0  0
  -66.5380   14.6202  -28.2744 H   0  0  0  0  0  0  0  0  0  0  0  0
  -64.7971   15.4369  -25.2491 H   0  0  0  0  0  0  0  0  0  0  0  0
  -65.1617   15.9284  -26.9249 H   0  0  0  0  0  0  0  0  0  0  0  0
  1  2  2  0
  1  3  1  6
  1  4  1  0
  1  5  1  0
  5  6  1  0
  6  7  2  0
  6  8  1  6
  6  9  1  0
  9 10  1  0
 10 11  2  0
 10 12  1  6
 10 13  1  0
 13 14  1  0
 15 14  1  0
 15 16  1  0
 15 17  1  0
 16 21  1  0
 17 18  1  0
 17 19  1  0
 19 20  1  0
 19 21  1  0
 21 22  1  0
 22 23  1  0
 22 32  1  0
 23 24  2  0
 24 25  1  0
 25 26  1  0
 25 32  2  0
 26 27  2  0
 26 28  1  0
 28 29  1  0
 29 30  1  0
 29 31  2  0
 31 32  1  0
 14 33  1  0
 14 34  1  0
 15 35  1  1
 17 36  1  6
 18 37  1  0
 19 38  1  6
 20 39  1  0
 21 40  1  1
 23 41  1  0
 28 42  1  0
 30 43  1  0
 30 44  1  0
M  CHG  4   3  -1   4  -1   8  -1  12  -1
M  END
>  <filename_input>  (19) 
7LJN_GTP_docked.sdf

>  <pdb_id>  (19) 
7LJN_GTP

>  <pose_rank>  (19) 
18

>  <num_atoms_heavy>  (19) 
32

>  <num_torsions>  (19) 
8

>  <pose>  (19) 
[-64.55797341778703, 10.513122725612646, -22.856509864461113, -1.6208314348673063, -5.0415960456333435, -1.446182232111898, 2.346923958057718, -2.6810321021822663, -0.828951354966692, 2.918710959531632, 5.41560060447136, 3.5380257283540457, 1.3555203790008974, 1.5145050347763604]

>  <energy>  (19) 
-556.7780210616833

>  <inter_energy>  (19) 
-587.073117072652

>  <intra_energy>  (19) 
27.843993216488187

>  <rmsd>  (19) 
2.67367

>  <sdf_rank>  (19) 
0

$$$$

     RDKit          3D

 44 46  0  0  0  0  0  0  0  0999 V2000
  -68.0671   11.9025  -24.7009 P   0  0  2  0  0  0  0  0  0  0  0  0
  -68.2217   12.9089  -25.8183 O   0  0  0  0  0  0  0  0  0  0  0  0
  -67.8562   10.5052  -25.2198 O   0  0  0  0  0  0  0  0  0  0  0  0
  -69.1716   11.9972  -23.6626 O   0  0  0  0  0  0  0  0  0  0  0  0
  -66.6830   12.3180  -23.9889 O   0  0  0  0  0  0  0  0  0  0  0  0
  -65.5232   11.3963  -23.3470 P   0  0  1  0  0  0  0  0  0  0  0  0
  -64.6134   12.2432  -22.5234 O   0  0  0  0  0  0  0  0  0  0  0  0
  -66.1467   10.2327  -22.6054 O   0  0  0  0  0  0  0  0  0  0  0  0
  -64.6538   10.8685  -24.5979 O   0  0  0  0  0  0  0  0  0  0  0  0
  -64.0919   11.7820  -25.7922 P   0  0  1  0  0  0  0  0  0  0  0  0
  -64.7992   11.4597  -27.0792 O   0  0  0  0  0  0  0  0  0  0  0  0
  -64.1784   13.2325  -25.3982 O   0  0  0  0  0  0  0  0  0  0  0  0
  -62.5541   11.3513  -25.8009 O   0  0  0  0  0  0  0  0  0  0  0  0
  -61.6113   11.8731  -26.7165 C   0  0  0  0  0  0  0  0  0  0  0  0
  -60.2039   11.6294  -26.1656 C   0  0  1  0  0  0  0  0  0  0  0  0
  -60.2259   11.5868  -24.7505 O   0  0  0  0  0  0  0  0  0  0  0  0
  -59.6456   10.3096  -26.6308 C   0  0  1  0  0  0  0  0  0  0  0  0
  -59.0419   10.4392  -27.8990 O   0  0  0  0  0  0  0  0  0  0  0  0
  -58.6767    9.9890  -25.5135 C   0  0  1  0  0  0  0  0  0  0  0  0
  -57.4703   10.7045  -25.6882 O   0  0  0  0  0  0  0  0  0  0  0  0
  -59.3642   10.5728  -24.2897 C   0  0  2  0  0  0  0  0  0  0  0  0
  -60.1582    9.5509  -23.6098 N   0  0  0  0  0  0  0  0  0  0  0  0
  -61.5177    9.4522  -23.5273 C   0  0  0  0  0  0  0  0  0  0  0  0
  -61.8178    8.3654  -22.7849 N   0  0  0  0  0  0  0  0  0  0  0  0
  -60.6674    7.7829  -22.3791 C   0  0  0  0  0  0  0  0  0  0  0  0
  -60.3813    6.6669  -21.5933 C   0  0  0  0  0  0  0  0  0  0  0  0
  -61.2744    5.9597  -21.1054 O   0  0  0  0  0  0  0  0  0  0  0  0
  -59.0683    6.3546  -21.3504 N   0  0  0  0  0  0  0  0  0  0  0  0
  -58.0459    7.1123  -21.8791 C   0  0  0  0  0  0  0  0  0  0  0  0
  -56.7831    6.7747  -21.6447 N   0  0  0  0  0  0  0  0  0  0  0  0
  -58.3182    8.2017  -22.6618 N   0  0  0  0  0  0  0  0  0  0  0  0
  -59.6185    8.5323  -22.8843 C   0  0  0  0  0  0  0  0  0  0  0  0
  -61.7208   11.3689  -27.6880 H   0  0  0  0  0  0  0  0  0  0  0  0
  -61.7786   12.9518  -26.8523 H   0  0  0  0  0  0  0  0  0  0  0  0
  -59.5787   12.4569  -26.5321 H   0  0  0  0  0  0  0  0  0  0  0  0
  -60.3841    9.5096  -26.7875 H   0  0  0  0  0  0  0  0  0  0  0  0
  -58.0801   10.6456  -27.7870 H   0  0  0  0  0  0  0  0  0  0  0  0
  -58.4440    8.9153  -25.4580 H   0  0  0  0  0  0  0  0  0  0  0  0
  -57.0895   10.9304  -24.8028 H   0  0  0  0  0  0  0  0  0  0  0  0
  -58.6171   10.9588  -23.5805 H   0  0  0  0  0  0  0  0  0  0  0  0
  -62.2432   10.1398  -23.9866 H   0  0  0  0  0  0  0  0  0  0  0  0
  -58.8424    5.5396  -20.7625 H   0  0  0  0  0  0  0  0  0  0  0  0
  -56.0173    7.3396  -22.0389 H   0  0  0  0  0  0  0  0  0  0  0  0
  -56.5694    5.9480  -21.0687 H   0  0  0  0  0  0  0  0  0  0  0  0
  1  2  2  0
  1  3  1  6
  1  4  1  0
  1  5  1  0
  5  6  1  0
  6  7  2  0
  6  8  1  1
  6  9  1  0
  9 10  1  0
 10 11  2  0
 10 12  1  1
 10 13  1  0
 13 14  1  0
 15 14  1  0
 15 16  1  0
 15 17  1  0
 16 21  1  0
 17 18  1  0
 17 19  1  0
 19 20  1  0
 19 21  1  0
 21 22  1  0
 22 23  1  0
 22 32  1  0
 23 24  2  0
 24 25  1  0
 25 26  1  0
 25 32  2  0
 26 27  2  0
 26 28  1  0
 28 29  1  0
 29 30  1  0
 29 31  2  0
 31 32  1  0
 14 33  1  0
 14 34  1  0
 15 35  1  1
 17 36  1  6
 18 37  1  0
 19 38  1  1
 20 39  1  0
 21 40  1  1
 23 41  1  0
 28 42  1  0
 30 43  1  0
 30 44  1  0
M  CHG  4   3  -1   4  -1   8  -1  12  -1
M  END
>  <filename_input>  (20) 
7LJN_GTP_docked.sdf

>  <pdb_id>  (20) 
7LJN_GTP

>  <pose_rank>  (20) 
19

>  <num_atoms_heavy>  (20) 
32

>  <num_torsions>  (20) 
8

>  <pose>  (20) 
[-60.20390010106723, 11.629354224113197, -26.165611896431965, -0.22818969674507572, -3.034222462311133, -1.3209190998987876, 0.003130040779460019, -5.8087989341410875, -0.9635705029788216, 2.128544754461216, -1.7228205559291516, -4.25186770658613, -0.6674963609111016, 0.2585630702595814]

>  <energy>  (20) 
-638.972525351081

>  <inter_energy>  (20) 
-634.0681333694223

>  <intra_energy>  (20) 
20.45645534992054

>  <rmsd>  (20) 
8.50174

>  <sdf_rank>  (20) 
0

$$$$

     RDKit          3D

 44 46  0  0  0  0  0  0  0  0999 V2000
  -67.8696   13.7273  -28.2735 P   0  0  2  0  0  0  0  0  0  0  0  0
  -69.2047   13.0835  -28.5712 O   0  0  0  0  0  0  0  0  0  0  0  0
  -68.0129   14.9754  -27.4441 O   0  0  0  0  0  0  0  0  0  0  0  0
  -67.0188   13.9262  -29.5158 O   0  0  0  0  0  0  0  0  0  0  0  0
  -67.1217   12.6581  -27.3287 O   0  0  0  0  0  0  0  0  0  0  0  0
  -66.9186   12.6447  -25.7270 P   0  0  1  0  0  0  0  0  0  0  0  0
  -66.7154   14.0391  -25.2395 O   0  0  0  0  0  0  0  0  0  0  0  0
  -68.0678   11.9077  -25.0721 O   0  0  0  0  0  0  0  0  0  0  0  0
  -65.5308   11.8631  -25.4775 O   0  0  0  0  0  0  0  0  0  0  0  0
  -64.2168   11.9850  -26.3915 P   0  0  1  0  0  0  0  0  0  0  0  0
  -64.4563   11.3710  -27.7427 O   0  0  0  0  0  0  0  0  0  0  0  0
  -63.7758   13.4236  -26.4473 O   0  0  0  0  0  0  0  0  0  0  0  0
  -63.1636   11.1672  -25.5126 O   0  0  0  0  0  0  0  0  0  0  0  0
  -62.5127   10.0003  -25.9755 C   0  0  0  0  0  0  0  0  0  0  0  0
  -61.0409   10.3297  -26.2383 C   0  0  1  0  0  0  0  0  0  0  0  0
  -60.3748   10.6262  -25.0245 O   0  0  0  0  0  0  0  0  0  0  0  0
  -60.3131    9.1660  -26.8596 C   0  0  1  0  0  0  0  0  0  0  0  0
  -60.4805    9.1595  -28.2602 O   0  0  0  0  0  0  0  0  0  0  0  0
  -58.8936    9.4303  -26.4068 C   0  0  1  0  0  0  0  0  0  0  0  0
  -58.2896   10.4094  -27.2280 O   0  0  0  0  0  0  0  0  0  0  0  0
  -59.0857   10.0596  -25.0363 C   0  0  2  0  0  0  0  0  0  0  0  0
  -59.0067    9.0433  -23.9885 N   0  0  0  0  0  0  0  0  0  0  0  0
  -60.0316    8.4221  -23.3338 C   0  0  0  0  0  0  0  0  0  0  0  0
  -59.5009    7.5708  -22.4304 N   0  0  0  0  0  0  0  0  0  0  0  0
  -58.1531    7.6563  -22.4893 C   0  0  0  0  0  0  0  0  0  0  0  0
  -57.1199    7.0334  -21.7900 C   0  0  0  0  0  0  0  0  0  0  0  0
  -57.3376    6.1936  -20.9050 O   0  0  0  0  0  0  0  0  0  0  0  0
  -55.8258    7.3729  -22.0909 N   0  0  0  0  0  0  0  0  0  0  0  0
  -55.5414    8.2979  -23.0720 C   0  0  0  0  0  0  0  0  0  0  0  0
  -54.2782    8.5925  -23.3571 N   0  0  0  0  0  0  0  0  0  0  0  0
  -56.5494    8.9044  -23.7718 N   0  0  0  0  0  0  0  0  0  0  0  0
  -57.8357    8.5916  -23.4596 C   0  0  0  0  0  0  0  0  0  0  0  0
  -62.5846    9.2097  -25.2141 H   0  0  0  0  0  0  0  0  0  0  0  0
  -62.9889    9.6487  -26.9026 H   0  0  0  0  0  0  0  0  0  0  0  0
  -61.0321   11.1919  -26.9214 H   0  0  0  0  0  0  0  0  0  0  0  0
  -60.6691    8.1687  -26.5619 H   0  0  0  0  0  0  0  0  0  0  0  0
  -61.4457    9.1217  -28.4770 H   0  0  0  0  0  0  0  0  0  0  0  0
  -58.2729    8.5223  -26.4275 H   0  0  0  0  0  0  0  0  0  0  0  0
  -57.8638   11.0995  -26.6601 H   0  0  0  0  0  0  0  0  0  0  0  0
  -58.3044   10.8109  -24.8488 H   0  0  0  0  0  0  0  0  0  0  0  0
  -61.1045    8.5870  -23.5118 H   0  0  0  0  0  0  0  0  0  0  0  0
  -55.0530    6.9290  -21.5746 H   0  0  0  0  0  0  0  0  0  0  0  0
  -54.0634    9.2835  -24.0900 H   0  0  0  0  0  0  0  0  0  0  0  0
  -53.5134    8.1300  -22.8452 H   0  0  0  0  0  0  0  0  0  0  0  0
  1  2  2  0
  1  3  1  1
  1  4  1  0
  1  5  1  0
  5  6  1  0
  6  7  2  0
  6  8  1  1
  6  9  1  0
  9 10  1  0
 10 11  2  0
 10 12  1  6
 10 13  1  0
 13 14  1  0
 15 14  1  0
 15 16  1  0
 15 17  1  0
 16 21  1  0
 17 18  1  0
 17 19  1  0
 19 20  1  0
 19 21  1  0
 21 22  1  0
 22 23  1  0
 22 32  1  0
 23 24  2  0
 24 25  1  0
 25 26  1  0
 25 32  2  0
 26 27  2  0
 26 28  1  0
 28 29  1  0
 29 30  1  0
 29 31  2  0
 31 32  1  0
 14 33  1  0
 14 34  1  0
 15 35  1  6
 17 36  1  1
 18 37  1  0
 19 38  1  1
 20 39  1  0
 21 40  1  1
 23 41  1  0
 28 42  1  0
 30 43  1  0
 30 44  1  0
M  CHG  4   3  -1   4  -1   8  -1  12  -1
M  END
>  <filename_input>  (21) 
7LJN_GTP_docked.sdf

>  <pdb_id>  (21) 
7LJN_GTP

>  <pose_rank>  (21) 
20

>  <num_atoms_heavy>  (21) 
32

>  <num_torsions>  (21) 
8

>  <pose>  (21) 
[-61.04087425352254, 10.329706072267877, -26.238294375799768, -0.004984282076481505, 3.417961921059113, 1.111944135269231, 0.18958720243998978, -16.715287109572206, -27.01232636481566, -36.61649483474507, -13.539389216687619, 14.424267779373958, -4.679193357273338, 0.9827600153859019]

>  <energy>  (21) 
-562.3781990224026

>  <inter_energy>  (21) 
-582.068080100549

>  <intra_energy>  (21) 
22.141123661117355

>  <rmsd>  (21) 
9.67066

>  <sdf_rank>  (21) 
0

$$$$

     RDKit          3D

 44 46  0  0  0  0  0  0  0  0999 V2000
  -63.4881   15.6461  -24.8905 P   0  0  2  0  0  0  0  0  0  0  0  0
  -64.9335   15.7397  -25.3234 O   0  0  0  0  0  0  0  0  0  0  0  0
  -63.2121   16.4561  -23.6521 O   0  0  0  0  0  0  0  0  0  0  0  0
  -62.5129   15.9260  -26.0208 O   0  0  0  0  0  0  0  0  0  0  0  0
  -63.3094   14.1057  -24.4542 O   0  0  0  0  0  0  0  0  0  0  0  0
  -62.1932   13.4103  -23.5175 P   0  0  1  0  0  0  0  0  0  0  0  0
  -60.8645   14.0337  -23.7802 O   0  0  0  0  0  0  0  0  0  0  0  0
  -62.6382   13.4575  -22.0710 O   0  0  0  0  0  0  0  0  0  0  0  0
  -62.0949   11.8844  -24.0288 O   0  0  0  0  0  0  0  0  0  0  0  0
  -62.7686   10.6169  -23.3102 P   0  0  1  0  0  0  0  0  0  0  0  0
  -62.8623    9.4590  -24.2644 O   0  0  0  0  0  0  0  0  0  0  0  0
  -62.0189   10.3010  -22.0433 O   0  0  0  0  0  0  0  0  0  0  0  0
  -64.1948   11.2183  -22.9172 O   0  0  0  0  0  0  0  0  0  0  0  0
  -65.4157   10.6769  -23.3817 C   0  0  0  0  0  0  0  0  0  0  0  0
  -66.3265   11.8253  -23.8233 C   0  0  1  0  0  0  0  0  0  0  0  0
  -65.7804   12.4862  -24.9501 O   0  0  0  0  0  0  0  0  0  0  0  0
  -67.6897   11.3290  -24.2298 C   0  0  1  0  0  0  0  0  0  0  0  0
  -68.5316   11.1975  -23.1058 O   0  0  0  0  0  0  0  0  0  0  0  0
  -68.1182   12.4068  -25.2018 C   0  0  1  0  0  0  0  0  0  0  0  0
  -68.5993   13.5369  -24.5023 O   0  0  0  0  0  0  0  0  0  0  0  0
  -66.8077   12.8156  -25.8551 C   0  0  2  0  0  0  0  0  0  0  0  0
  -66.5992   12.0735  -27.0972 N   0  0  0  0  0  0  0  0  0  0  0  0
  -67.5025   11.3266  -27.7979 C   0  0  0  0  0  0  0  0  0  0  0  0
  -66.8741   10.8020  -28.8713 N   0  0  0  0  0  0  0  0  0  0  0  0
  -65.5794   11.1902  -28.8521 C   0  0  0  0  0  0  0  0  0  0  0  0
  -64.4889   10.9386  -29.6840 C   0  0  0  0  0  0  0  0  0  0  0  0
  -64.5847   10.2335  -30.6986 O   0  0  0  0  0  0  0  0  0  0  0  0
  -63.2743   11.4848  -29.3571 N   0  0  0  0  0  0  0  0  0  0  0  0
  -63.1273   12.2790  -28.2406 C   0  0  0  0  0  0  0  0  0  0  0  0
  -61.9439   12.8120  -27.9593 N   0  0  0  0  0  0  0  0  0  0  0  0
  -64.1955   12.5412  -27.4259 N   0  0  0  0  0  0  0  0  0  0  0  0
  -65.3967   11.9806  -27.7300 C   0  0  0  0  0  0  0  0  0  0  0  0
  -65.2235   10.0085  -24.2340 H   0  0  0  0  0  0  0  0  0  0  0  0
  -65.9002   10.1023  -22.5785 H   0  0  0  0  0  0  0  0  0  0  0  0
  -66.4107   12.5045  -22.9620 H   0  0  0  0  0  0  0  0  0  0  0  0
  -67.7158   10.3252  -24.6791 H   0  0  0  0  0  0  0  0  0  0  0  0
  -67.9937   11.2815  -22.2789 H   0  0  0  0  0  0  0  0  0  0  0  0
  -68.9022   12.0598  -25.8910 H   0  0  0  0  0  0  0  0  0  0  0  0
  -68.5306   13.3757  -23.5279 H   0  0  0  0  0  0  0  0  0  0  0  0
  -66.8186   13.8898  -26.0918 H   0  0  0  0  0  0  0  0  0  0  0  0
  -68.5598   11.1780  -27.5332 H   0  0  0  0  0  0  0  0  0  0  0  0
  -62.4576   11.2981  -29.9564 H   0  0  0  0  0  0  0  0  0  0  0  0
  -61.8318   13.4060  -27.1253 H   0  0  0  0  0  0  0  0  0  0  0  0
  -61.1383   12.6315  -28.5751 H   0  0  0  0  0  0  0  0  0  0  0  0
  1  2  2  0
  1  3  1  1
  1  4  1  0
  1  5  1  0
  5  6  1  0
  6  7  2  0
  6  8  1  1
  6  9  1  0
  9 10  1  0
 10 11  2  0
 10 12  1  1
 10 13  1  0
 13 14  1  0
 15 14  1  0
 15 16  1  0
 15 17  1  0
 16 21  1  0
 17 18  1  0
 17 19  1  0
 19 20  1  0
 19 21  1  0
 21 22  1  0
 22 23  1  0
 22 32  1  0
 23 24  2  0
 24 25  1  0
 25 26  1  0
 25 32  2  0
 26 27  2  0
 26 28  1  0
 28 29  1  0
 29 30  1  0
 29 31  2  0
 31 32  1  0
 14 33  1  0
 14 34  1  0
 15 35  1  1
 17 36  1  6
 18 37  1  0
 19 38  1  6
 20 39  1  0
 21 40  1  6
 23 41  1  0
 28 42  1  0
 30 43  1  0
 30 44  1  0
M  CHG  4   3  -1   4  -1   8  -1  12  -1
M  END
>  <filename_input>  (22) 
7LJN_GTP_docked.sdf

>  <pdb_id>  (22) 
7LJN_GTP

>  <pose_rank>  (22) 
21

>  <num_atoms_heavy>  (22) 
32

>  <num_torsions>  (22) 
8

>  <pose>  (22) 
[-66.32654993390987, 11.825347695056166, -23.82328394440757, -0.1769860465998392, -0.05156992891342469, -0.7140677900039879, -4.120392027190592, 2.117741059566645, 0.1390283655216154, 7.389734676058743, 3.037526548392883, 5.702654497460845, 1.5649554184490118, -0.04392357589473691]

>  <energy>  (22) 
-576.5912350627505

>  <inter_energy>  (22) 
-604.9740078253309

>  <intra_energy>  (22) 
26.073560939967695

>  <rmsd>  (22) 
5.24879

>  <sdf_rank>  (22) 
0

$$$$

     RDKit          3D

 44 46  0  0  0  0  0  0  0  0999 V2000
  -60.6465   13.5917  -26.9107 P   0  0  2  0  0  0  0  0  0  0  0  0
  -60.7957   15.0845  -27.0973 O   0  0  0  0  0  0  0  0  0  0  0  0
  -61.3312   13.1039  -25.6620 O   0  0  0  0  0  0  0  0  0  0  0  0
  -59.2071   13.1218  -27.0288 O   0  0  0  0  0  0  0  0  0  0  0  0
  -61.4749   12.9592  -28.1391 O   0  0  0  0  0  0  0  0  0  0  0  0
  -61.9339   11.4355  -28.4121 P   0  0  1  0  0  0  0  0  0  0  0  0
  -62.1321   11.2302  -29.8756 O   0  0  0  0  0  0  0  0  0  0  0  0
  -60.9498   10.4819  -27.7679 O   0  0  0  0  0  0  0  0  0  0  0  0
  -63.3866   11.2963  -27.7270 O   0  0  0  0  0  0  0  0  0  0  0  0
  -64.7918   11.5098  -28.4731 P   0  0  1  0  0  0  0  0  0  0  0  0
  -64.7636   12.7652  -29.2997 O   0  0  0  0  0  0  0  0  0  0  0  0
  -65.1360   10.2725  -29.2589 O   0  0  0  0  0  0  0  0  0  0  0  0
  -65.7824   11.6074  -27.2243 O   0  0  0  0  0  0  0  0  0  0  0  0
  -67.0902   12.1373  -27.3157 C   0  0  0  0  0  0  0  0  0  0  0  0
  -67.7300   12.1102  -25.9252 C   0  0  1  0  0  0  0  0  0  0  0  0
  -67.2332   11.0191  -25.1719 O   0  0  0  0  0  0  0  0  0  0  0  0
  -67.4126   13.3580  -25.1427 C   0  0  1  0  0  0  0  0  0  0  0  0
  -68.3213   14.3907  -25.4548 O   0  0  0  0  0  0  0  0  0  0  0  0
  -67.5175   12.8494  -23.7214 C   0  0  1  0  0  0  0  0  0  0  0  0
  -68.8712   12.7896  -23.3190 O   0  0  0  0  0  0  0  0  0  0  0  0
  -67.0263   11.4153  -23.8366 C   0  0  2  0  0  0  0  0  0  0  0  0
  -65.5979   11.3356  -23.5360 N   0  0  0  0  0  0  0  0  0  0  0  0
  -64.6371   12.2849  -23.7370 C   0  0  0  0  0  0  0  0  0  0  0  0
  -63.4523   11.7781  -23.3347 N   0  0  0  0  0  0  0  0  0  0  0  0
  -63.6443   10.5132  -22.8982 C   0  0  0  0  0  0  0  0  0  0  0  0
  -62.7914    9.5307  -22.3963 C   0  0  0  0  0  0  0  0  0  0  0  0
  -61.5752    9.7241  -22.2572 O   0  0  0  0  0  0  0  0  0  0  0  0
  -63.3215    8.3123  -22.0570 N   0  0  0  0  0  0  0  0  0  0  0  0
  -64.6695    8.0593  -22.1913 C   0  0  0  0  0  0  0  0  0  0  0  0
  -65.1592    6.8773  -21.8355 N   0  0  0  0  0  0  0  0  0  0  0  0
  -65.5153    9.0225  -22.6712 N   0  0  0  0  0  0  0  0  0  0  0  0
  -64.9914   10.2239  -23.0346 C   0  0  0  0  0  0  0  0  0  0  0  0
  -67.0447   13.1736  -27.6819 H   0  0  0  0  0  0  0  0  0  0  0  0
  -67.6896   11.5365  -28.0154 H   0  0  0  0  0  0  0  0  0  0  0  0
  -68.8154   12.0269  -26.0837 H   0  0  0  0  0  0  0  0  0  0  0  0
  -66.4345   13.8153  -25.3530 H   0  0  0  0  0  0  0  0  0  0  0  0
  -68.6703   14.7874  -24.6176 H   0  0  0  0  0  0  0  0  0  0  0  0
  -66.9668   13.4822  -23.0098 H   0  0  0  0  0  0  0  0  0  0  0  0
  -68.9218   12.7873  -22.3303 H   0  0  0  0  0  0  0  0  0  0  0  0
  -67.5654   10.7696  -23.1277 H   0  0  0  0  0  0  0  0  0  0  0  0
  -64.8004   13.2893  -24.1547 H   0  0  0  0  0  0  0  0  0  0  0  0
  -62.7015    7.5736  -21.6954 H   0  0  0  0  0  0  0  0  0  0  0  0
  -66.1663    6.6860  -21.9350 H   0  0  0  0  0  0  0  0  0  0  0  0
  -64.5318    6.1518  -21.4599 H   0  0  0  0  0  0  0  0  0  0  0  0
  1  2  2  0
  1  3  1  1
  1  4  1  0
  1  5  1  0
  5  6  1  0
  6  7  2  0
  6  8  1  1
  6  9  1  0
  9 10  1  0
 10 11  2  0
 10 12  1  6
 10 13  1  0
 13 14  1  0
 15 14  1  0
 15 16  1  0
 15 17  1  0
 16 21  1  0
 17 18  1  0
 17 19  1  0
 19 20  1  0
 19 21  1  0
 21 22  1  0
 22 23  1  0
 22 32  1  0
 23 24  2  0
 24 25  1  0
 25 26  1  0
 25 32  2  0
 26 27  2  0
 26 28  1  0
 28 29  1  0
 29 30  1  0
 29 31  2  0
 31 32  1  0
 14 33  1  0
 14 34  1  0
 15 35  1  6
 17 36  1  6
 18 37  1  0
 19 38  1  1
 20 39  1  0
 21 40  1  1
 23 41  1  0
 28 42  1  0
 30 43  1  0
 30 44  1  0
M  CHG  4   3  -1   4  -1   8  -1  12  -1
M  END
>  <filename_input>  (23) 
7LJN_GTP_docked.sdf

>  <pdb_id>  (23) 
7LJN_GTP

>  <pose_rank>  (23) 
22

>  <num_atoms_heavy>  (23) 
32

>  <num_torsions>  (23) 
8

>  <pose>  (23) 
[-67.73004170440721, 12.11024752656745, -25.925177458732342, -2.7109286971805986, 0.40513779443376674, 1.4783465081446814, 1.3980779862020516, 0.4268807276971709, -0.6067560819149881, 1.8522227918617267, -0.5905861657219135, 2.82139730141988, -0.47992530617691986, -0.19043091503993553]

>  <energy>  (23) 
-628.3700007267977

>  <inter_energy>  (23) 
-634.4603547895731

>  <intra_energy>  (23) 
12.421883733072162

>  <rmsd>  (23) 
6.53814

>  <sdf_rank>  (23) 
0

$$$$

     RDKit          3D

 44 46  0  0  0  0  0  0  0  0999 V2000
  -66.2740   11.2248  -23.4579 P   0  0  2  0  0  0  0  0  0  0  0  0
  -65.0963   10.5460  -24.1195 O   0  0  0  0  0  0  0  0  0  0  0  0
  -65.9444   12.6226  -23.0068 O   0  0  0  0  0  0  0  0  0  0  0  0
  -66.9107   10.3772  -22.3703 O   0  0  0  0  0  0  0  0  0  0  0  0
  -67.3483   11.3910  -24.6469 O   0  0  0  0  0  0  0  0  0  0  0  0
  -67.4763   12.5296  -25.7845 P   0  0  1  0  0  0  0  0  0  0  0  0
  -68.2495   11.9928  -26.9409 O   0  0  0  0  0  0  0  0  0  0  0  0
  -68.0435   13.7961  -25.1787 O   0  0  0  0  0  0  0  0  0  0  0  0
  -65.9734   12.7793  -26.3118 O   0  0  0  0  0  0  0  0  0  0  0  0
  -65.3229   12.1124  -27.6190 P   0  0  1  0  0  0  0  0  0  0  0  0
  -66.0651   10.8605  -27.9962 O   0  0  0  0  0  0  0  0  0  0  0  0
  -65.2545   13.1341  -28.7228 O   0  0  0  0  0  0  0  0  0  0  0  0
  -63.8391   11.8260  -27.1025 O   0  0  0  0  0  0  0  0  0  0  0  0
  -62.8401   12.8243  -27.0317 C   0  0  0  0  0  0  0  0  0  0  0  0
  -61.4789   12.1776  -27.3009 C   0  0  1  0  0  0  0  0  0  0  0  0
  -60.6748   12.2113  -26.1360 O   0  0  0  0  0  0  0  0  0  0  0  0
  -61.6188   10.7289  -27.6899 C   0  0  1  0  0  0  0  0  0  0  0  0
  -61.8648   10.6021  -29.0730 O   0  0  0  0  0  0  0  0  0  0  0  0
  -60.2832   10.1738  -27.2450 C   0  0  1  0  0  0  0  0  0  0  0  0
  -59.2856   10.4655  -28.2031 O   0  0  0  0  0  0  0  0  0  0  0  0
  -59.9658   11.0013  -26.0098 C   0  0  2  0  0  0  0  0  0  0  0  0
  -60.4161   10.3136  -24.8009 N   0  0  0  0  0  0  0  0  0  0  0  0
  -61.6074   10.4459  -24.1467 C   0  0  0  0  0  0  0  0  0  0  0  0
  -61.5877    9.6368  -23.0663 N   0  0  0  0  0  0  0  0  0  0  0  0
  -60.3931    9.0063  -23.0148 C   0  0  0  0  0  0  0  0  0  0  0  0
  -59.8276    8.0913  -22.1273 C   0  0  0  0  0  0  0  0  0  0  0  0
  -60.4411    7.6718  -21.1356 O   0  0  0  0  0  0  0  0  0  0  0  0
  -58.5491    7.6540  -22.3616 N   0  0  0  0  0  0  0  0  0  0  0  0
  -57.8355    8.0920  -23.4560 C   0  0  0  0  0  0  0  0  0  0  0  0
  -56.6066    7.6360  -23.6699 N   0  0  0  0  0  0  0  0  0  0  0  0
  -58.3879    8.9802  -24.3388 N   0  0  0  0  0  0  0  0  0  0  0  0
  -59.6456    9.4382  -24.0973 C   0  0  0  0  0  0  0  0  0  0  0  0
  -63.0374   13.5994  -27.7868 H   0  0  0  0  0  0  0  0  0  0  0  0
  -62.8438   13.2875  -26.0340 H   0  0  0  0  0  0  0  0  0  0  0  0
  -61.0200   12.7488  -28.1214 H   0  0  0  0  0  0  0  0  0  0  0  0
  -62.4666   10.1945  -27.2364 H   0  0  0  0  0  0  0  0  0  0  0  0
  -62.7360   10.1533  -29.2135 H   0  0  0  0  0  0  0  0  0  0  0  0
  -60.3142    9.0852  -27.0899 H   0  0  0  0  0  0  0  0  0  0  0  0
  -58.4456   10.7111  -27.7404 H   0  0  0  0  0  0  0  0  0  0  0  0
  -58.8812   11.1664  -25.9299 H   0  0  0  0  0  0  0  0  0  0  0  0
  -62.4395   11.0991  -24.4482 H   0  0  0  0  0  0  0  0  0  0  0  0
  -58.1148    6.9866  -21.7082 H   0  0  0  0  0  0  0  0  0  0  0  0
  -56.0714    7.9619  -24.4873 H   0  0  0  0  0  0  0  0  0  0  0  0
  -56.1889    6.9563  -23.0184 H   0  0  0  0  0  0  0  0  0  0  0  0
  1  2  2  0
  1  3  1  1
  1  4  1  0
  1  5  1  0
  5  6  1  0
  6  7  2  0
  6  8  1  1
  6  9  1  0
  9 10  1  0
 10 11  2  0
 10 12  1  6
 10 13  1  0
 13 14  1  0
 15 14  1  0
 15 16  1  0
 15 17  1  0
 16 21  1  0
 17 18  1  0
 17 19  1  0
 19 20  1  0
 19 21  1  0
 21 22  1  0
 22 23  1  0
 22 32  1  0
 23 24  2  0
 24 25  1  0
 25 26  1  0
 25 32  2  0
 26 27  2  0
 26 28  1  0
 28 29  1  0
 29 30  1  0
 29 31  2  0
 31 32  1  0
 14 33  1  0
 14 34  1  0
 15 35  1  6
 17 36  1  1
 18 37  1  0
 19 38  1  1
 20 39  1  0
 21 40  1  1
 23 41  1  0
 28 42  1  0
 30 43  1  0
 30 44  1  0
M  CHG  4   3  -1   4  -1   8  -1  12  -1
M  END
>  <filename_input>  (24) 
7LJN_GTP_docked.sdf

>  <pdb_id>  (24) 
7LJN_GTP

>  <pose_rank>  (24) 
23

>  <num_atoms_heavy>  (24) 
32

>  <num_torsions>  (24) 
8

>  <pose>  (24) 
[-61.47886772861783, 12.17764214641617, -27.300944294433034, -0.897523438544621, -2.618320799829977, -0.797314825759458, 0.2976536908999277, -1.0041139441755, -0.06857555587065453, -2.380242359396621, -0.15452238594770765, 2.8811207222679354, -1.2973919608496016, 1.2986892269841956]

>  <energy>  (24) 
-625.4149150661428

>  <inter_energy>  (24) 
-641.2137766472715

>  <intra_energy>  (24) 
24.570789720372467

>  <rmsd>  (24) 
8.24588

>  <sdf_rank>  (24) 
0

$$$$

     RDKit          3D

 44 46  0  0  0  0  0  0  0  0999 V2000
  -65.7201   12.4955  -28.3987 P   0  0  2  0  0  0  0  0  0  0  0  0
  -65.7600   12.9637  -29.8356 O   0  0  0  0  0  0  0  0  0  0  0  0
  -66.6249   11.3164  -28.1599 O   0  0  0  0  0  0  0  0  0  0  0  0
  -65.9282   13.6235  -27.4032 O   0  0  0  0  0  0  0  0  0  0  0  0
  -64.2196   11.9406  -28.2096 O   0  0  0  0  0  0  0  0  0  0  0  0
  -62.8261   12.7389  -28.0432 P   0  0  1  0  0  0  0  0  0  0  0  0
  -62.2148   12.9580  -29.3853 O   0  0  0  0  0  0  0  0  0  0  0  0
  -63.0531   14.0014  -27.2386 O   0  0  0  0  0  0  0  0  0  0  0  0
  -61.8475   11.7322  -27.2506 O   0  0  0  0  0  0  0  0  0  0  0  0
  -61.4978   10.2304  -27.6969 P   0  0  1  0  0  0  0  0  0  0  0  0
  -62.2525    9.2411  -26.8531 O   0  0  0  0  0  0  0  0  0  0  0  0
  -61.7389   10.0770  -29.1751 O   0  0  0  0  0  0  0  0  0  0  0  0
  -59.9226   10.1994  -27.4357 O   0  0  0  0  0  0  0  0  0  0  0  0
  -59.2383    9.0494  -26.9786 C   0  0  0  0  0  0  0  0  0  0  0  0
  -58.0927    9.4902  -26.0637 C   0  0  1  0  0  0  0  0  0  0  0  0
  -58.6011   10.0270  -24.8561 O   0  0  0  0  0  0  0  0  0  0  0  0
  -57.2069    8.3320  -25.6847 C   0  0  1  0  0  0  0  0  0  0  0  0
  -56.2262    8.1059  -26.6730 O   0  0  0  0  0  0  0  0  0  0  0  0
  -56.6523    8.8063  -24.3590 C   0  0  1  0  0  0  0  0  0  0  0  0
  -55.5895    9.7147  -24.5673 O   0  0  0  0  0  0  0  0  0  0  0  0
  -57.8070    9.6031  -23.7733 C   0  0  2  0  0  0  0  0  0  0  0  0
  -58.6173    8.7625  -22.8935 N   0  0  0  0  0  0  0  0  0  0  0  0
  -58.3500    7.4993  -22.4490 C   0  0  0  0  0  0  0  0  0  0  0  0
  -59.3809    7.0970  -21.6758 N   0  0  0  0  0  0  0  0  0  0  0  0
  -60.3079    8.0802  -21.6382 C   0  0  0  0  0  0  0  0  0  0  0  0
  -61.5530    8.2029  -21.0223 C   0  0  0  0  0  0  0  0  0  0  0  0
  -62.0322    7.2998  -20.3220 O   0  0  0  0  0  0  0  0  0  0  0  0
  -62.2669    9.3587  -21.2101 N   0  0  0  0  0  0  0  0  0  0  0  0
  -61.7668   10.3887  -21.9769 C   0  0  0  0  0  0  0  0  0  0  0  0
  -62.4706   11.5051  -22.1248 N   0  0  0  0  0  0  0  0  0  0  0  0
  -60.5400   10.2811  -22.5743 N   0  0  0  0  0  0  0  0  0  0  0  0
  -59.8389    9.1268  -22.4139 C   0  0  0  0  0  0  0  0  0  0  0  0
  -59.9315    8.4043  -26.4190 H   0  0  0  0  0  0  0  0  0  0  0  0
  -58.8382    8.4867  -27.8350 H   0  0  0  0  0  0  0  0  0  0  0  0
  -57.5173   10.2409  -26.6252 H   0  0  0  0  0  0  0  0  0  0  0  0
  -57.7083    7.3562  -25.6040 H   0  0  0  0  0  0  0  0  0  0  0  0
  -55.3595    7.9061  -26.2382 H   0  0  0  0  0  0  0  0  0  0  0  0
  -56.2878    7.9752  -23.7375 H   0  0  0  0  0  0  0  0  0  0  0  0
  -55.2369   10.0161  -23.6927 H   0  0  0  0  0  0  0  0  0  0  0  0
  -57.4256   10.4514  -23.1860 H   0  0  0  0  0  0  0  0  0  0  0  0
  -57.4499    6.9110  -22.6809 H   0  0  0  0  0  0  0  0  0  0  0  0
  -63.1929    9.4586  -20.7703 H   0  0  0  0  0  0  0  0  0  0  0  0
  -62.0987   12.2762  -22.6975 H   0  0  0  0  0  0  0  0  0  0  0  0
  -63.3883   11.5999  -21.6668 H   0  0  0  0  0  0  0  0  0  0  0  0
  1  2  2  0
  1  3  1  6
  1  4  1  0
  1  5  1  0
  5  6  1  0
  6  7  2  0
  6  8  1  1
  6  9  1  0
  9 10  1  0
 10 11  2  0
 10 12  1  6
 10 13  1  0
 13 14  1  0
 15 14  1  0
 15 16  1  0
 15 17  1  0
 16 21  1  0
 17 18  1  0
 17 19  1  0
 19 20  1  0
 19 21  1  0
 21 22  1  0
 22 23  1  0
 22 32  1  0
 23 24  2  0
 24 25  1  0
 25 26  1  0
 25 32  2  0
 26 27  2  0
 26 28  1  0
 28 29  1  0
 29 30  1  0
 29 31  2  0
 31 32  1  0
 14 33  1  0
 14 34  1  0
 15 35  1  6
 17 36  1  1
 18 37  1  0
 19 38  1  1
 20 39  1  0
 21 40  1  1
 23 41  1  0
 28 42  1  0
 30 43  1  0
 30 44  1  0
M  CHG  4   3  -1   4  -1   8  -1  12  -1
M  END
>  <filename_input>  (25) 
7LJN_GTP_docked.sdf

>  <pdb_id>  (25) 
7LJN_GTP

>  <pose_rank>  (25) 
24

>  <num_atoms_heavy>  (25) 
32

>  <num_torsions>  (25) 
8

>  <pose>  (25) 
[-58.09272338988212, 9.490164305990257, -26.063679641169866, -0.35429315791014226, 2.6825789802955744, 0.5192614641541738, -4.19808211872109, -4.111842498694325, -0.03471722121354588, 1.5373084493545135, -1.5873709380911074, 2.139101054729065, 0.6503295786279851, -2.218498866232345]

>  <energy>  (25) 
-483.7009141497592

>  <inter_energy>  (25) 
-502.3132201732324

>  <intra_energy>  (25) 
24.253561137084375

>  <rmsd>  (25) 
8.76977

>  <sdf_rank>  (25) 
0

$$$$

     RDKit          3D

 44 46  0  0  0  0  0  0  0  0999 V2000
  -58.5140    6.9170  -22.4260 P   0  0  2  0  0  0  0  0  0  0  0  0
  -57.9090    6.4900  -23.7440 O   0  0  0  0  0  0  0  0  0  0  0  0
  -58.1320    8.3250  -22.0550 O   0  0  0  0  0  0  0  0  0  0  0  0
  -58.2700    5.9150  -21.3110 O   0  0  0  0  0  0  0  0  0  0  0  0
  -60.0980    6.9560  -22.7170 O   0  0  0  0  0  0  0  0  0  0  0  0
  -61.2780    7.7550  -21.9580 P   0  0  1  0  0  0  0  0  0  0  0  0
  -62.3680    6.8050  -21.5940 O   0  0  0  0  0  0  0  0  0  0  0  0
  -60.7020    8.5320  -20.7930 O   0  0  0  0  0  0  0  0  0  0  0  0
  -61.8920    8.7600  -23.0590 O   0  0  0  0  0  0  0  0  0  0  0  0
  -61.1340   10.0280  -23.6870 P   0  0  1  0  0  0  0  0  0  0  0  0
  -59.8930   10.3430  -22.8990 O   0  0  0  0  0  0  0  0  0  0  0  0
  -60.8790    9.7860  -25.1510 O   0  0  0  0  0  0  0  0  0  0  0  0
  -62.2620   11.1500  -23.5490 O   0  0  0  0  0  0  0  0  0  0  0  0
  -62.8590   11.4970  -22.3150 C   0  0  0  0  0  0  0  0  0  0  0  0
  -64.3370   11.8150  -22.5560 C   0  0  1  0  0  0  0  0  0  0  0  0
  -64.4730   12.8250  -23.5390 O   0  0  0  0  0  0  0  0  0  0  0  0
  -65.0890   10.6120  -23.0630 C   0  0  1  0  0  0  0  0  0  0  0  0
  -65.5190    9.8010  -21.9920 O   0  0  0  0  0  0  0  0  0  0  0  0
  -66.2140   11.2700  -23.8320 C   0  0  1  0  0  0  0  0  0  0  0  0
  -67.2330   11.6920  -22.9480 O   0  0  0  0  0  0  0  0  0  0  0  0
  -65.5590   12.5260  -24.3840 C   0  0  2  0  0  0  0  0  0  0  0  0
  -65.0550   12.2910  -25.7360 N   0  0  0  0  0  0  0  0  0  0  0  0
  -63.7570   12.2130  -26.1530 C   0  0  0  0  0  0  0  0  0  0  0  0
  -63.7540   12.0060  -27.4870 N   0  0  0  0  0  0  0  0  0  0  0  0
  -65.0320   11.9700  -27.9260 C   0  0  0  0  0  0  0  0  0  0  0  0
  -65.6110   11.8060  -29.1840 C   0  0  0  0  0  0  0  0  0  0  0  0
  -64.9290   11.6380  -30.2050 O   0  0  0  0  0  0  0  0  0  0  0  0
  -66.9780   11.8420  -29.2870 N   0  0  0  0  0  0  0  0  0  0  0  0
  -67.7720   12.0210  -28.1750 C   0  0  0  0  0  0  0  0  0  0  0  0
  -69.0940   12.0310  -28.3010 N   0  0  0  0  0  0  0  0  0  0  0  0
  -67.2120   12.1700  -26.9350 N   0  0  0  0  0  0  0  0  0  0  0  0
  -65.8560   12.1620  -26.8300 C   0  0  0  0  0  0  0  0  0  0  0  0
  -62.7714   10.6555  -21.6120 H   0  0  0  0  0  0  0  0  0  0  0  0
  -62.3521   12.3746  -21.8875 H   0  0  0  0  0  0  0  0  0  0  0  0
  -64.7472   12.1395  -21.5883 H   0  0  0  0  0  0  0  0  0  0  0  0
  -64.5078    9.9152  -23.6849 H   0  0  0  0  0  0  0  0  0  0  0  0
  -65.2876   10.2374  -21.1340 H   0  0  0  0  0  0  0  0  0  0  0  0
  -66.6556   10.5980  -24.5826 H   0  0  0  0  0  0  0  0  0  0  0  0
  -66.9316   11.5672  -22.0133 H   0  0  0  0  0  0  0  0  0  0  0  0
  -66.2873   13.3494  -24.4248 H   0  0  0  0  0  0  0  0  0  0  0  0
  -62.8673   12.3033  -25.5124 H   0  0  0  0  0  0  0  0  0  0  0  0
  -67.4189   11.7334  -30.2115 H   0  0  0  0  0  0  0  0  0  0  0  0
  -69.6894   12.1646  -27.4712 H   0  0  0  0  0  0  0  0  0  0  0  0
  -69.5239   11.9051  -29.2285 H   0  0  0  0  0  0  0  0  0  0  0  0
  1  2  2  0
  1  3  1  1
  1  4  1  0
  1  5  1  0
  5  6  1  0
  6  7  2  0
  6  8  1  1
  6  9  1  0
  9 10  1  0
 10 11  2  0
 10 12  1  6
 10 13  1  0
 13 14  1  0
 15 14  1  0
 15 16  1  0
 15 17  1  0
 16 21  1  0
 17 18  1  0
 17 19  1  0
 19 20  1  0
 19 21  1  0
 21 22  1  0
 22 23  1  0
 22 32  1  0
 23 24  2  0
 24 25  1  0
 25 26  1  0
 25 32  2  0
 26 27  2  0
 26 28  1  0
 28 29  1  0
 29 30  1  0
 29 31  2  0
 31 32  1  0
 14 33  1  0
 14 34  1  0
 15 35  1  1
 17 36  1  6
 18 37  1  0
 19 38  1  6
 20 39  1  0
 21 40  1  6
 23 41  1  0
 28 42  1  0
 30 43  1  0
 30 44  1  0
M  CHG  4   3  -1   4  -1   8  -1  12  -1
M  END
>  <filename_input>  (26) 
7LJN_GTP_docked.sdf

>  <pdb_id>  (26) 
7LJN_GTP

>  <pose_rank>  (26) 
25

>  <num_atoms_heavy>  (26) 
32

>  <num_torsions>  (26) 
8

>  <pose>  (26) 
[-64.337, 11.815, -22.556, 1e-06, 1e-06, 1e-06, 0.0, 0.0, 0.0, 0.0, 0.0, 0.0, 0.0, 0.0]

>  <energy>  (26) 
-822.9967559962864

>  <inter_energy>  (26) 
-865.8511558425505

>  <intra_energy>  (26) 
35.71608861945626

>  <rmsd>  (26) 
0.0

>  <sdf_rank>  (26) 
0

$$$$
