
     RDKit          3D

 67 71  0  0  0  0  0  0  0  0999 V2000
   -0.6489  -21.0784   35.3494 C   0  0  0  0  0  0  0  0  0  0  0  0
   -0.5433  -20.0221   34.4550 C   0  0  0  0  0  0  0  0  0  0  0  0
   -1.5971  -19.1517   34.2569 C   0  0  0  0  0  0  0  0  0  0  0  0
   -6.7590  -16.8142   37.2297 N   0  0  0  0  0  0  0  0  0  0  0  0
   -8.2718  -17.7976   45.9141 N   0  0  0  0  0  0  0  0  0  0  0  0
    1.6784  -21.8103   34.8772 C   0  0  0  0  0  0  0  0  0  0  0  0
   -6.0979  -20.0859   37.1040 O   0  0  0  0  0  0  0  0  0  0  0  0
   -5.1687  -19.8363   36.3664 C   0  0  0  0  0  0  0  0  0  0  0  0
   -4.0462  -20.6294   36.5026 O   0  0  0  0  0  0  0  0  0  0  0  0
   -2.8975  -20.3807   35.8085 C   0  0  0  0  0  0  0  0  0  0  0  0
   -1.8540  -21.2447   36.0328 C   0  0  0  0  0  0  0  0  0  0  0  0
    0.4458  -21.9115   35.6169 N   0  0  0  0  0  0  0  0  0  0  0  0
    1.7969  -22.8568   33.8429 C   0  0  0  0  0  0  0  0  0  0  0  0
    0.4389  -22.8373   36.7667 C   0  0  0  0  0  0  0  0  0  0  0  0
   -0.3176  -24.0076   36.3439 C   0  0  0  0  0  0  0  0  0  0  0  0
   -5.1232  -18.7386   35.4043 C   0  0  0  0  0  0  0  0  0  0  0  0
   -3.9780  -18.4611   34.7130 C   0  0  0  0  0  0  0  0  0  0  0  0
   -3.8633  -17.3149   33.7556 C   0  0  0  0  0  0  0  0  0  0  0  0
   -2.8066  -19.3161   34.9217 C   0  0  0  0  0  0  0  0  0  0  0  0
   -6.4580  -18.0836   35.1142 C   0  0  0  0  0  0  0  0  0  0  0  0
   -6.6717  -16.7258   35.7721 C   0  0  0  0  0  0  0  0  0  0  0  0
   -5.7644  -16.3470   38.1078 C   0  0  0  0  0  0  0  0  0  0  0  0
   -4.7172  -15.7980   37.7942 O   0  0  0  0  0  0  0  0  0  0  0  0
   -6.2041  -16.5533   39.3463 N   0  0  0  0  0  0  0  0  0  0  0  0
   -7.5185  -17.1765   39.3994 C   0  0  2  0  0  0  0  0  0  0  0  0
   -7.8570  -17.2716   37.9312 C   0  0  0  0  0  0  0  0  0  0  0  0
   -8.9005  -17.6985   37.4660 O   0  0  0  0  0  0  0  0  0  0  0  0
   -8.5483  -16.3483   40.1938 C   0  0  0  0  0  0  0  0  0  0  0  0
   -8.4325  -16.8537   41.6182 C   0  0  0  0  0  0  0  0  0  0  0  0
   -7.8382  -18.1821   41.4685 N   0  0  0  0  0  0  0  0  0  0  0  0
   -7.5078  -18.5372   40.0972 C   0  0  0  0  0  0  0  0  0  0  0  0
   -7.5230  -19.0264   42.4508 C   0  0  0  0  0  0  0  0  0  0  0  0
   -7.0252  -20.1339   42.2021 O   0  0  0  0  0  0  0  0  0  0  0  0
   -7.7184  -18.5830   43.8651 C   0  0  0  0  0  0  0  0  0  0  0  0
   -6.7687  -18.9660   44.7831 N   0  0  0  0  0  0  0  0  0  0  0  0
   -7.1425  -18.4785   45.9869 C   0  0  0  0  0  0  0  0  0  0  0  0
   -8.6270  -17.8563   44.5907 C   0  0  0  0  0  0  0  0  0  0  0  0
    0.3929  -19.8762   33.8963 H   0  0  0  0  0  0  0  0  0  0  0  0
   -1.4768  -18.3106   33.5582 H   0  0  0  0  0  0  0  0  0  0  0  0
   -8.7740  -17.3273   46.6805 H   0  0  0  0  0  0  0  0  0  0  0  0
    1.7191  -20.8249   34.3901 H   0  0  0  0  0  0  0  0  0  0  0  0
    2.5090  -21.9416   35.5864 H   0  0  0  0  0  0  0  0  0  0  0  0
   -1.9683  -22.0690   36.7522 H   0  0  0  0  0  0  0  0  0  0  0  0
    1.9080  -23.8388   34.3259 H   0  0  0  0  0  0  0  0  0  0  0  0
    0.8930  -22.8567   33.2160 H   0  0  0  0  0  0  0  0  0  0  0  0
    2.6779  -22.6547   33.2160 H   0  0  0  0  0  0  0  0  0  0  0  0
    1.4674  -23.1237   37.0314 H   0  0  0  0  0  0  0  0  0  0  0  0
   -0.0114  -22.3692   37.6545 H   0  0  0  0  0  0  0  0  0  0  0  0
   -0.6715  -24.5552   37.2298 H   0  0  0  0  0  0  0  0  0  0  0  0
   -1.1806  -23.6883   35.7412 H   0  0  0  0  0  0  0  0  0  0  0  0
    0.3279  -24.6634   35.7412 H   0  0  0  0  0  0  0  0  0  0  0  0
   -3.7693  -16.3747   34.3189 H   0  0  0  0  0  0  0  0  0  0  0  0
   -2.9746  -17.4535   33.1225 H   0  0  0  0  0  0  0  0  0  0  0  0
   -4.7619  -17.2747   33.1225 H   0  0  0  0  0  0  0  0  0  0  0  0
   -6.5425  -17.9511   34.0255 H   0  0  0  0  0  0  0  0  0  0  0  0
   -7.2235  -18.7510   35.5367 H   0  0  0  0  0  0  0  0  0  0  0  0
   -7.6071  -16.2920   35.3889 H   0  0  0  0  0  0  0  0  0  0  0  0
   -5.8028  -16.0969   35.5279 H   0  0  0  0  0  0  0  0  0  0  0  0
   -5.6663  -16.2969   40.1866 H   0  0  0  0  0  0  0  0  0  0  0  0
   -8.3071  -15.2763   40.1417 H   0  0  0  0  0  0  0  0  0  0  0  0
   -9.5675  -16.4583   39.7948 H   0  0  0  0  0  0  0  0  0  0  0  0
   -7.7816  -16.1980   42.2152 H   0  0  0  0  0  0  0  0  0  0  0  0
   -9.3995  -16.8762   42.1421 H   0  0  0  0  0  0  0  0  0  0  0  0
   -8.2625  -19.2120   39.6671 H   0  0  0  0  0  0  0  0  0  0  0  0
   -6.5541  -19.0764   39.9984 H   0  0  0  0  0  0  0  0  0  0  0  0
   -6.5742  -18.6307   46.9163 H   0  0  0  0  0  0  0  0  0  0  0  0
   -9.5243  -17.3819   44.1665 H   0  0  0  0  0  0  0  0  0  0  0  0
  1  2  2  0
  1 11  1  0
  1 12  1  0
  2  3  1  0
  3 19  2  0
  4 21  1  0
  4 22  1  0
  4 26  1  0
  5 36  1  0
  5 37  1  0
  6 12  1  0
  6 13  1  0
  7  8  2  0
  8  9  1  0
  8 16  1  0
  9 10  1  0
 10 11  2  0
 10 19  1  0
 12 14  1  0
 14 15  1  0
 16 17  2  0
 16 20  1  0
 17 18  1  0
 17 19  1  0
 20 21  1  0
 22 23  2  0
 22 24  1  0
 25 24  1  6
 25 26  1  0
 25 28  1  0
 25 31  1  0
 26 27  2  0
 28 29  1  0
 29 30  1  0
 30 31  1  0
 30 32  1  0
 32 33  2  0
 32 34  1  0
 34 35  1  0
 34 37  2  0
 35 36  2  0
  2 38  1  0
  3 39  1  0
  5 40  1  0
  6 41  1  0
  6 42  1  0
 11 43  1  0
 13 44  1  0
 13 45  1  0
 13 46  1  0
 14 47  1  0
 14 48  1  0
 15 49  1  0
 15 50  1  0
 15 51  1  0
 18 52  1  0
 18 53  1  0
 18 54  1  0
 20 55  1  0
 20 56  1  0
 21 57  1  0
 21 58  1  0
 24 59  1  0
 28 60  1  0
 28 61  1  0
 29 62  1  0
 29 63  1  0
 31 64  1  0
 31 65  1  0
 36 66  1  0
 37 67  1  0
M  END
>  <filename_input>  (1) 
7LMO_NYO_docked.sdf

>  <pdb_id>  (1) 
7LMO_NYO

>  <pose_rank>  (1) 
0

>  <num_atoms_heavy>  (1) 
37

>  <num_torsions>  (1) 
7

>  <pose>  (1) 
[-6.671727432587355, -16.72577865068853, 35.77207952687513, 0.5366759021257873, -5.157633122103084, 3.4663949092329887, -0.22217985291844328, 0.6113823403388332, -0.07699590841625985, 0.0817390562143568, -0.21713595505141528, -0.15137009392010403, 0.17098041700681135]

>  <energy>  (1) 
-917.6123726197587

>  <inter_energy>  (1) 
-935.2654511059483

>  <intra_energy>  (1) 
34.85000657286087

>  <rmsd>  (1) 
0.546888

>  <sdf_rank>  (1) 
0

$$$$

     RDKit          3D

 67 71  0  0  0  0  0  0  0  0999 V2000
   -0.5741  -21.2899   35.5454 C   0  0  0  0  0  0  0  0  0  0  0  0
   -0.3319  -20.3061   34.5966 C   0  0  0  0  0  0  0  0  0  0  0  0
   -1.2687  -19.3254   34.3359 C   0  0  0  0  0  0  0  0  0  0  0  0
   -7.0258  -16.3529   36.9181 N   0  0  0  0  0  0  0  0  0  0  0  0
  -12.1469  -16.4993   44.1478 N   0  0  0  0  0  0  0  0  0  0  0  0
    1.5407  -21.9003   36.6989 C   0  0  0  0  0  0  0  0  0  0  0  0
   -5.8727  -19.5400   37.1629 O   0  0  0  0  0  0  0  0  0  0  0  0
   -4.9141  -19.4478   36.4267 C   0  0  0  0  0  0  0  0  0  0  0  0
   -3.8991  -20.3637   36.6223 O   0  0  0  0  0  0  0  0  0  0  0  0
   -2.7229  -20.2970   35.9327 C   0  0  0  0  0  0  0  0  0  0  0  0
   -1.7958  -21.2687   36.2191 C   0  0  0  0  0  0  0  0  0  0  0  0
    0.4074  -22.2348   35.8740 N   0  0  0  0  0  0  0  0  0  0  0  0
    1.1853  -21.8162   38.1291 C   0  0  0  0  0  0  0  0  0  0  0  0
    0.2521  -23.6567   35.5090 C   0  0  0  0  0  0  0  0  0  0  0  0
   -0.4626  -24.2853   36.6112 C   0  0  0  0  0  0  0  0  0  0  0  0
   -4.7259  -18.4194   35.4070 C   0  0  0  0  0  0  0  0  0  0  0  0
   -3.5498  -18.3235   34.7187 C   0  0  0  0  0  0  0  0  0  0  0  0
   -3.2870  -17.2552   33.7021 C   0  0  0  0  0  0  0  0  0  0  0  0
   -2.4944  -19.3028   34.9908 C   0  0  0  0  0  0  0  0  0  0  0  0
   -5.9674  -17.6227   35.0621 C   0  0  0  0  0  0  0  0  0  0  0  0
   -6.1038  -16.2877   35.7841 C   0  0  0  0  0  0  0  0  0  0  0  0
   -8.4181  -16.5087   36.7930 C   0  0  0  0  0  0  0  0  0  0  0  0
   -9.0455  -16.6268   35.7496 O   0  0  0  0  0  0  0  0  0  0  0  0
   -8.9195  -16.5704   38.0237 N   0  0  0  0  0  0  0  0  0  0  0  0
   -7.9115  -16.4563   39.0676 C   0  0  2  0  0  0  0  0  0  0  0  0
   -6.6479  -16.3691   38.2463 C   0  0  0  0  0  0  0  0  0  0  0  0
   -5.5131  -16.3012   38.6882 O   0  0  0  0  0  0  0  0  0  0  0  0
   -7.9078  -17.6549   40.0376 C   0  0  0  0  0  0  0  0  0  0  0  0
   -8.8634  -17.2570   41.1450 C   0  0  0  0  0  0  0  0  0  0  0  0
   -8.9037  -15.7969   41.0615 N   0  0  0  0  0  0  0  0  0  0  0  0
   -8.1201  -15.2396   39.9702 C   0  0  0  0  0  0  0  0  0  0  0  0
   -9.6254  -14.9773   41.8260 C   0  0  0  0  0  0  0  0  0  0  0  0
   -9.5756  -13.7494   41.6653 O   0  0  0  0  0  0  0  0  0  0  0  0
  -10.5509  -15.5730   42.8378 C   0  0  0  0  0  0  0  0  0  0  0  0
  -10.0561  -15.7710   44.1057 N   0  0  0  0  0  0  0  0  0  0  0  0
  -11.0400  -16.3264   44.8472 C   0  0  0  0  0  0  0  0  0  0  0  0
  -11.8447  -16.0231   42.8977 C   0  0  0  0  0  0  0  0  0  0  0  0
    0.6196  -20.3075   34.0446 H   0  0  0  0  0  0  0  0  0  0  0  0
   -1.0400  -18.5458   33.5944 H   0  0  0  0  0  0  0  0  0  0  0  0
  -13.0386  -16.9021   44.4696 H   0  0  0  0  0  0  0  0  0  0  0  0
    2.3124  -22.6736   36.5707 H   0  0  0  0  0  0  0  0  0  0  0  0
    1.9071  -20.9121   36.3838 H   0  0  0  0  0  0  0  0  0  0  0  0
   -2.0166  -22.0313   36.9804 H   0  0  0  0  0  0  0  0  0  0  0  0
    2.0749  -22.0267   38.7409 H   0  0  0  0  0  0  0  0  0  0  0  0
    0.8149  -20.8057   38.3561 H   0  0  0  0  0  0  0  0  0  0  0  0
    0.4014  -22.5537   38.3561 H   0  0  0  0  0  0  0  0  0  0  0  0
   -0.3257  -23.7501   34.5777 H   0  0  0  0  0  0  0  0  0  0  0  0
    1.2281  -24.1353   35.3404 H   0  0  0  0  0  0  0  0  0  0  0  0
   -0.0532  -23.9252   37.5665 H   0  0  0  0  0  0  0  0  0  0  0  0
   -1.5304  -24.0283   36.5497 H   0  0  0  0  0  0  0  0  0  0  0  0
   -0.3441  -25.3772   36.5497 H   0  0  0  0  0  0  0  0  0  0  0  0
   -3.0546  -16.3103   34.2150 H   0  0  0  0  0  0  0  0  0  0  0  0
   -2.4346  -17.5500   33.0724 H   0  0  0  0  0  0  0  0  0  0  0  0
   -4.1789  -17.1209   33.0724 H   0  0  0  0  0  0  0  0  0  0  0  0
   -5.9547  -17.4245   33.9802 H   0  0  0  0  0  0  0  0  0  0  0  0
   -6.8221  -18.2340   35.3872 H   0  0  0  0  0  0  0  0  0  0  0  0
   -6.4755  -15.5377   35.0706 H   0  0  0  0  0  0  0  0  0  0  0  0
   -5.1120  -16.0183   36.1763 H   0  0  0  0  0  0  0  0  0  0  0  0
   -9.9241  -16.6875   38.2190 H   0  0  0  0  0  0  0  0  0  0  0  0
   -8.2595  -18.5654   39.5304 H   0  0  0  0  0  0  0  0  0  0  0  0
   -6.9003  -17.8792   40.4180 H   0  0  0  0  0  0  0  0  0  0  0  0
   -9.8614  -17.6871   40.9751 H   0  0  0  0  0  0  0  0  0  0  0  0
   -8.5438  -17.6184   42.1336 H   0  0  0  0  0  0  0  0  0  0  0  0
   -7.1602  -14.8416   40.3311 H   0  0  0  0  0  0  0  0  0  0  0  0
   -8.6073  -14.3930   39.4643 H   0  0  0  0  0  0  0  0  0  0  0  0
  -10.9319  -16.6016   45.9067 H   0  0  0  0  0  0  0  0  0  0  0  0
  -12.5488  -16.0047   42.0527 H   0  0  0  0  0  0  0  0  0  0  0  0
  1  2  2  0
  1 11  1  0
  1 12  1  0
  2  3  1  0
  3 19  2  0
  4 21  1  0
  4 22  1  0
  4 26  1  0
  5 36  1  0
  5 37  1  0
  6 12  1  0
  6 13  1  0
  7  8  2  0
  8  9  1  0
  8 16  1  0
  9 10  1  0
 10 11  2  0
 10 19  1  0
 12 14  1  0
 14 15  1  0
 16 17  2  0
 16 20  1  0
 17 18  1  0
 17 19  1  0
 20 21  1  0
 22 23  2  0
 22 24  1  0
 25 24  1  6
 25 26  1  0
 25 28  1  0
 25 31  1  0
 26 27  2  0
 28 29  1  0
 29 30  1  0
 30 31  1  0
 30 32  1  0
 32 33  2  0
 32 34  1  0
 34 35  1  0
 34 37  2  0
 35 36  2  0
  2 38  1  0
  3 39  1  0
  5 40  1  0
  6 41  1  0
  6 42  1  0
 11 43  1  0
 13 44  1  0
 13 45  1  0
 13 46  1  0
 14 47  1  0
 14 48  1  0
 15 49  1  0
 15 50  1  0
 15 51  1  0
 18 52  1  0
 18 53  1  0
 18 54  1  0
 20 55  1  0
 20 56  1  0
 21 57  1  0
 21 58  1  0
 24 59  1  0
 28 60  1  0
 28 61  1  0
 29 62  1  0
 29 63  1  0
 31 64  1  0
 31 65  1  0
 36 66  1  0
 37 67  1  0
M  END
>  <filename_input>  (2) 
7LMO_NYO_docked.sdf

>  <pdb_id>  (2) 
7LMO_NYO

>  <pose_rank>  (2) 
1

>  <num_atoms_heavy>  (2) 
37

>  <num_torsions>  (2) 
7

>  <pose>  (2) 
[-6.103795991181638, -16.28773510085249, 35.78413924644092, -1.0851840296946609, 4.520917867959899, 3.111770638044257, -9.626100628541463, -1.5950959295054454, 11.901488120167823, -6.3335345280314685, 1.2212943581596483, 2.951844287390733, 3.49465029404003]

>  <energy>  (2) 
-768.6844118175636

>  <inter_energy>  (2) 
-797.6658703367364

>  <intra_energy>  (2) 
20.846449894894086

>  <rmsd>  (2) 
2.56067

>  <sdf_rank>  (2) 
0

$$$$

     RDKit          3D

 67 71  0  0  0  0  0  0  0  0999 V2000
   -0.7814  -21.7151   35.4495 C   0  0  0  0  0  0  0  0  0  0  0  0
   -1.7703  -21.9584   36.3928 C   0  0  0  0  0  0  0  0  0  0  0  0
   -2.8034  -21.0623   36.5853 C   0  0  0  0  0  0  0  0  0  0  0  0
   -6.6000  -16.7880   37.1927 N   0  0  0  0  0  0  0  0  0  0  0  0
   -9.2190  -17.2852   45.6369 N   0  0  0  0  0  0  0  0  0  0  0  0
    0.2309  -23.9523   35.8310 C   0  0  0  0  0  0  0  0  0  0  0  0
   -2.7716  -16.6102   33.5172 O   0  0  0  0  0  0  0  0  0  0  0  0
   -2.8286  -17.5319   34.3026 C   0  0  0  0  0  0  0  0  0  0  0  0
   -1.8573  -18.5059   34.1782 O   0  0  0  0  0  0  0  0  0  0  0  0
   -1.8767  -19.6456   34.9292 C   0  0  0  0  0  0  0  0  0  0  0  0
   -0.8525  -20.5337   34.7104 C   0  0  0  0  0  0  0  0  0  0  0  0
    0.2198  -22.6611   35.1911 N   0  0  0  0  0  0  0  0  0  0  0  0
   -0.3191  -25.0113   34.9622 C   0  0  0  0  0  0  0  0  0  0  0  0
    1.2327  -22.4349   34.1413 C   0  0  0  0  0  0  0  0  0  0  0  0
    2.5292  -22.6153   34.7794 C   0  0  0  0  0  0  0  0  0  0  0  0
   -3.8662  -17.7199   35.3129 C   0  0  0  0  0  0  0  0  0  0  0  0
   -3.9147  -18.8612   36.0622 C   0  0  0  0  0  0  0  0  0  0  0  0
   -4.9881  -19.1258   37.0727 C   0  0  0  0  0  0  0  0  0  0  0  0
   -2.8765  -19.8761   35.8647 C   0  0  0  0  0  0  0  0  0  0  0  0
   -4.7332  -16.5058   35.5762 C   0  0  0  0  0  0  0  0  0  0  0  0
   -6.2147  -16.7979   35.7814 C   0  0  0  0  0  0  0  0  0  0  0  0
   -6.0249  -15.9442   38.1600 C   0  0  0  0  0  0  0  0  0  0  0  0
   -5.1550  -15.1057   37.9686 O   0  0  0  0  0  0  0  0  0  0  0  0
   -6.6496  -16.1809   39.3104 N   0  0  0  0  0  0  0  0  0  0  0  0
   -7.6843  -17.1999   39.2102 C   0  0  2  0  0  0  0  0  0  0  0  0
   -7.6333  -17.5250   37.7368 C   0  0  0  0  0  0  0  0  0  0  0  0
   -8.3600  -18.3127   37.1546 O   0  0  0  0  0  0  0  0  0  0  0  0
   -9.0714  -16.6991   39.6602 C   0  0  0  0  0  0  0  0  0  0  0  0
   -9.1332  -17.0158   41.1413 C   0  0  0  0  0  0  0  0  0  0  0  0
   -8.1413  -18.0776   41.3115 N   0  0  0  0  0  0  0  0  0  0  0  0
   -7.4145  -18.4156   40.0977 C   0  0  0  0  0  0  0  0  0  0  0  0
   -7.8140  -18.6832   42.4531 C   0  0  0  0  0  0  0  0  0  0  0  0
   -6.9567  -19.5780   42.4751 O   0  0  0  0  0  0  0  0  0  0  0  0
   -8.4531  -18.2135   43.7205 C   0  0  0  0  0  0  0  0  0  0  0  0
   -9.5735  -18.8863   44.1488 N   0  0  0  0  0  0  0  0  0  0  0  0
   -9.9944  -18.2962   45.2894 C   0  0  0  0  0  0  0  0  0  0  0  0
   -8.2541  -17.2381   44.6634 C   0  0  0  0  0  0  0  0  0  0  0  0
   -1.7304  -22.8777   36.9954 H   0  0  0  0  0  0  0  0  0  0  0  0
   -3.5849  -21.2923   37.3244 H   0  0  0  0  0  0  0  0  0  0  0  0
   -9.3170  -16.6692   46.4565 H   0  0  0  0  0  0  0  0  0  0  0  0
    1.2684  -24.2102   36.0900 H   0  0  0  0  0  0  0  0  0  0  0  0
   -0.4025  -23.8895   36.7282 H   0  0  0  0  0  0  0  0  0  0  0  0
   -0.0871  -20.3136   33.9516 H   0  0  0  0  0  0  0  0  0  0  0  0
   -0.7371  -25.8161   35.5847 H   0  0  0  0  0  0  0  0  0  0  0  0
   -1.1121  -24.5895   34.3271 H   0  0  0  0  0  0  0  0  0  0  0  0
    0.4820  -25.4174   34.3271 H   0  0  0  0  0  0  0  0  0  0  0  0
    1.1050  -23.1619   33.3257 H   0  0  0  0  0  0  0  0  0  0  0  0
    1.1383  -21.4298   33.7043 H   0  0  0  0  0  0  0  0  0  0  0  0
    2.4055  -22.5981   35.8723 H   0  0  0  0  0  0  0  0  0  0  0  0
    2.9569  -23.5817   34.4740 H   0  0  0  0  0  0  0  0  0  0  0  0
    3.2045  -21.8025   34.4740 H   0  0  0  0  0  0  0  0  0  0  0  0
   -4.5716  -19.0231   38.0856 H   0  0  0  0  0  0  0  0  0  0  0  0
   -5.8056  -18.4023   36.9373 H   0  0  0  0  0  0  0  0  0  0  0  0
   -5.3756  -20.1464   36.9373 H   0  0  0  0  0  0  0  0  0  0  0  0
   -4.3559  -16.0083   36.4818 H   0  0  0  0  0  0  0  0  0  0  0  0
   -4.6677  -15.8825   34.6722 H   0  0  0  0  0  0  0  0  0  0  0  0
   -6.4396  -17.7895   35.3618 H   0  0  0  0  0  0  0  0  0  0  0  0
   -6.7839  -16.0044   35.2752 H   0  0  0  0  0  0  0  0  0  0  0  0
   -6.4231  -15.6905   40.1874 H   0  0  0  0  0  0  0  0  0  0  0  0
   -9.1665  -15.6163   39.4908 H   0  0  0  0  0  0  0  0  0  0  0  0
   -9.8882  -17.1755   39.0984 H   0  0  0  0  0  0  0  0  0  0  0  0
   -8.8696  -16.1331   41.7424 H   0  0  0  0  0  0  0  0  0  0  0  0
  -10.1389  -17.3155   41.4711 H   0  0  0  0  0  0  0  0  0  0  0  0
   -7.8061  -19.3370   39.6419 H   0  0  0  0  0  0  0  0  0  0  0  0
   -6.3451  -18.6123   40.2639 H   0  0  0  0  0  0  0  0  0  0  0  0
  -10.8775  -18.6194   45.8602 H   0  0  0  0  0  0  0  0  0  0  0  0
   -7.4280  -16.5121   44.6418 H   0  0  0  0  0  0  0  0  0  0  0  0
  1  2  2  0
  1 11  1  0
  1 12  1  0
  2  3  1  0
  3 19  2  0
  4 21  1  0
  4 22  1  0
  4 26  1  0
  5 36  1  0
  5 37  1  0
  6 12  1  0
  6 13  1  0
  7  8  2  0
  8  9  1  0
  8 16  1  0
  9 10  1  0
 10 11  2  0
 10 19  1  0
 12 14  1  0
 14 15  1  0
 16 17  2  0
 16 20  1  0
 17 18  1  0
 17 19  1  0
 20 21  1  0
 22 23  2  0
 22 24  1  0
 25 24  1  6
 25 26  1  0
 25 28  1  0
 25 31  1  0
 26 27  2  0
 28 29  1  0
 29 30  1  0
 30 31  1  0
 30 32  1  0
 32 33  2  0
 32 34  1  0
 34 35  1  0
 34 37  2  0
 35 36  2  0
  2 38  1  0
  3 39  1  0
  5 40  1  0
  6 41  1  0
  6 42  1  0
 11 43  1  0
 13 44  1  0
 13 45  1  0
 13 46  1  0
 14 47  1  0
 14 48  1  0
 15 49  1  0
 15 50  1  0
 15 51  1  0
 18 52  1  0
 18 53  1  0
 18 54  1  0
 20 55  1  0
 20 56  1  0
 21 57  1  0
 21 58  1  0
 24 59  1  0
 28 60  1  0
 28 61  1  0
 29 62  1  0
 29 63  1  0
 31 64  1  0
 31 65  1  0
 36 66  1  0
 37 67  1  0
M  END
>  <filename_input>  (3) 
7LMO_NYO_docked.sdf

>  <pdb_id>  (3) 
7LMO_NYO

>  <pose_rank>  (3) 
2

>  <num_atoms_heavy>  (3) 
37

>  <num_torsions>  (3) 
7

>  <pose>  (3) 
[-6.214661493708325, -16.797915441362562, 35.78143103867486, -0.3502702519136171, -0.17933428499419535, 1.5991089232624949, -1.5363854622978241, -1.5392226848462236, 2.8531363681253716, 0.7079905600868236, -0.034004506940343016, -2.9385756721080822, 0.9732517861704815]

>  <energy>  (3) 
-791.4689728563909

>  <inter_energy>  (3) 
-851.4403554292852

>  <intra_energy>  (3) 
81.26770126985976

>  <rmsd>  (3) 
2.00024

>  <sdf_rank>  (3) 
0

$$$$

     RDKit          3D

 67 71  0  0  0  0  0  0  0  0999 V2000
   -8.8629  -16.6085   42.7567 C   0  0  0  0  0  0  0  0  0  0  0  0
   -8.4414  -17.7795   42.1419 C   0  0  0  0  0  0  0  0  0  0  0  0
   -8.2091  -17.8228   40.7812 C   0  0  0  0  0  0  0  0  0  0  0  0
   -6.1792  -15.8559   35.7899 N   0  0  0  0  0  0  0  0  0  0  0  0
    0.3221  -21.7959   36.1480 N   0  0  0  0  0  0  0  0  0  0  0  0
   -7.9704  -16.9437   45.0516 C   0  0  0  0  0  0  0  0  0  0  0  0
   -9.0385  -13.2484   38.0203 O   0  0  0  0  0  0  0  0  0  0  0  0
   -8.8980  -14.3386   38.5315 C   0  0  0  0  0  0  0  0  0  0  0  0
   -9.0771  -14.4032   39.8995 O   0  0  0  0  0  0  0  0  0  0  0  0
   -8.8407  -15.5471   40.6058 C   0  0  0  0  0  0  0  0  0  0  0  0
   -9.0584  -15.4798   41.9600 C   0  0  0  0  0  0  0  0  0  0  0  0
   -9.0168  -16.5372   44.1479 N   0  0  0  0  0  0  0  0  0  0  0  0
   -8.0259  -18.3867   45.3577 C   0  0  0  0  0  0  0  0  0  0  0  0
  -10.2059  -15.9066   44.7542 C   0  0  0  0  0  0  0  0  0  0  0  0
  -10.9731  -16.9839   45.3637 C   0  0  0  0  0  0  0  0  0  0  0  0
   -8.4984  -15.5564   37.8316 C   0  0  0  0  0  0  0  0  0  0  0  0
   -8.2391  -16.7068   38.5213 C   0  0  0  0  0  0  0  0  0  0  0  0
   -7.7751  -17.9665   37.8569 C   0  0  0  0  0  0  0  0  0  0  0  0
   -8.4140  -16.7086   39.9760 C   0  0  0  0  0  0  0  0  0  0  0  0
   -8.5787  -15.4840   36.3206 C   0  0  0  0  0  0  0  0  0  0  0  0
   -7.3258  -14.9619   35.6279 C   0  0  0  0  0  0  0  0  0  0  0  0
   -5.1520  -15.6565   36.7298 C   0  0  0  0  0  0  0  0  0  0  0  0
   -5.0747  -14.7429   37.5396 O   0  0  0  0  0  0  0  0  0  0  0  0
   -4.3128  -16.6829   36.6197 N   0  0  0  0  0  0  0  0  0  0  0  0
   -4.7037  -17.6454   35.5999 C   0  0  2  0  0  0  0  0  0  0  0  0
   -6.0053  -17.0505   35.1193 C   0  0  0  0  0  0  0  0  0  0  0  0
   -6.7427  -17.5343   34.2768 O   0  0  0  0  0  0  0  0  0  0  0  0
   -4.8721  -19.0754   36.1514 C   0  0  0  0  0  0  0  0  0  0  0  0
   -3.5054  -19.7119   35.9947 C   0  0  0  0  0  0  0  0  0  0  0  0
   -2.8650  -18.9086   34.9532 N   0  0  0  0  0  0  0  0  0  0  0  0
   -3.6672  -17.7894   34.4847 C   0  0  0  0  0  0  0  0  0  0  0  0
   -1.6324  -19.0692   34.4716 C   0  0  0  0  0  0  0  0  0  0  0  0
   -1.1958  -18.3261   33.5809 O   0  0  0  0  0  0  0  0  0  0  0  0
   -0.7599  -20.1220   35.0763 C   0  0  0  0  0  0  0  0  0  0  0  0
    0.5220  -20.2342   34.5908 N   0  0  0  0  0  0  0  0  0  0  0  0
    1.1248  -21.2444   35.2560 C   0  0  0  0  0  0  0  0  0  0  0  0
   -0.8500  -21.0918   36.0415 C   0  0  0  0  0  0  0  0  0  0  0  0
   -8.2904  -18.6856   42.7470 H   0  0  0  0  0  0  0  0  0  0  0  0
   -7.8544  -18.7588   40.3251 H   0  0  0  0  0  0  0  0  0  0  0  0
    0.5300  -22.5801   36.7825 H   0  0  0  0  0  0  0  0  0  0  0  0
   -6.9973  -16.7165   44.5917 H   0  0  0  0  0  0  0  0  0  0  0  0
   -8.1065  -16.3936   45.9944 H   0  0  0  0  0  0  0  0  0  0  0  0
   -9.3872  -14.5349   42.4173 H   0  0  0  0  0  0  0  0  0  0  0  0
   -8.0314  -18.5302   46.4483 H   0  0  0  0  0  0  0  0  0  0  0  0
   -8.9413  -18.8180   44.9265 H   0  0  0  0  0  0  0  0  0  0  0  0
   -7.1463  -18.8870   44.9265 H   0  0  0  0  0  0  0  0  0  0  0  0
   -9.9018  -15.1758   45.5181 H   0  0  0  0  0  0  0  0  0  0  0  0
  -10.8006  -15.3681   44.0016 H   0  0  0  0  0  0  0  0  0  0  0  0
  -10.9144  -16.9015   46.4591 H   0  0  0  0  0  0  0  0  0  0  0  0
  -12.0237  -16.9109   45.0463 H   0  0  0  0  0  0  0  0  0  0  0  0
  -10.5606  -17.9529   45.0463 H   0  0  0  0  0  0  0  0  0  0  0  0
   -7.5025  -18.7065   38.6237 H   0  0  0  0  0  0  0  0  0  0  0  0
   -8.5838  -18.3694   37.2295 H   0  0  0  0  0  0  0  0  0  0  0  0
   -6.8982  -17.7486   37.2295 H   0  0  0  0  0  0  0  0  0  0  0  0
   -8.7798  -16.4969   35.9416 H   0  0  0  0  0  0  0  0  0  0  0  0
   -9.3768  -14.7624   36.0918 H   0  0  0  0  0  0  0  0  0  0  0  0
   -7.0705  -13.9807   36.0545 H   0  0  0  0  0  0  0  0  0  0  0  0
   -7.5445  -14.8923   34.5521 H   0  0  0  0  0  0  0  0  0  0  0  0
   -3.4682  -16.7867   37.2000 H   0  0  0  0  0  0  0  0  0  0  0  0
   -5.1692  -19.0502   37.2102 H   0  0  0  0  0  0  0  0  0  0  0  0
   -5.6556  -19.6363   35.6209 H   0  0  0  0  0  0  0  0  0  0  0  0
   -2.9378  -19.6586   36.9355 H   0  0  0  0  0  0  0  0  0  0  0  0
   -3.5599  -20.7796   35.7359 H   0  0  0  0  0  0  0  0  0  0  0  0
   -4.1469  -18.0181   33.5216 H   0  0  0  0  0  0  0  0  0  0  0  0
   -3.0846  -16.8743   34.3026 H   0  0  0  0  0  0  0  0  0  0  0  0
    2.1604  -21.5686   35.0759 H   0  0  0  0  0  0  0  0  0  0  0  0
   -1.7459  -21.2806   36.6510 H   0  0  0  0  0  0  0  0  0  0  0  0
  1  2  2  0
  1 11  1  0
  1 12  1  0
  2  3  1  0
  3 19  2  0
  4 21  1  0
  4 22  1  0
  4 26  1  0
  5 36  1  0
  5 37  1  0
  6 12  1  0
  6 13  1  0
  7  8  2  0
  8  9  1  0
  8 16  1  0
  9 10  1  0
 10 11  2  0
 10 19  1  0
 12 14  1  0
 14 15  1  0
 16 17  2  0
 16 20  1  0
 17 18  1  0
 17 19  1  0
 20 21  1  0
 22 23  2  0
 22 24  1  0
 25 24  1  1
 25 26  1  0
 25 28  1  0
 25 31  1  0
 26 27  2  0
 28 29  1  0
 29 30  1  0
 30 31  1  0
 30 32  1  0
 32 33  2  0
 32 34  1  0
 34 35  1  0
 34 37  2  0
 35 36  2  0
  2 38  1  0
  3 39  1  0
  5 40  1  0
  6 41  1  0
  6 42  1  0
 11 43  1  0
 13 44  1  0
 13 45  1  0
 13 46  1  0
 14 47  1  0
 14 48  1  0
 15 49  1  0
 15 50  1  0
 15 51  1  0
 18 52  1  0
 18 53  1  0
 18 54  1  0
 20 55  1  0
 20 56  1  0
 21 57  1  0
 21 58  1  0
 24 59  1  0
 28 60  1  0
 28 61  1  0
 29 62  1  0
 29 63  1  0
 31 64  1  0
 31 65  1  0
 36 66  1  0
 37 67  1  0
M  END
>  <filename_input>  (4) 
7LMO_NYO_docked.sdf

>  <pdb_id>  (4) 
7LMO_NYO

>  <pose_rank>  (4) 
3

>  <num_atoms_heavy>  (4) 
37

>  <num_torsions>  (4) 
7

>  <pose>  (4) 
[-7.325848528782804, -14.961899619738306, 35.62789406359102, 0.08700360276919049, -3.6027699694239987, 2.310806202264076, 2.414446607344231, -0.019543764362229377, -22.898401069109713, -6.477104977935234, 0.8028657823870045, 0.09183285750050352, 0.6898994123306187]

>  <energy>  (4) 
-631.6732385714394

>  <inter_energy>  (4) 
-678.9966768289374

>  <intra_energy>  (4) 
52.3734576817063

>  <rmsd>  (4) 
9.25109

>  <sdf_rank>  (4) 
0

$$$$

     RDKit          3D

 67 71  0  0  0  0  0  0  0  0999 V2000
   -8.1159  -17.3689   42.1622 C   0  0  0  0  0  0  0  0  0  0  0  0
   -8.3891  -16.0139   42.0354 C   0  0  0  0  0  0  0  0  0  0  0  0
   -8.7179  -15.4677   40.8103 C   0  0  0  0  0  0  0  0  0  0  0  0
   -6.6298  -16.4351   35.5950 N   0  0  0  0  0  0  0  0  0  0  0  0
    0.3960  -21.9704   36.7617 N   0  0  0  0  0  0  0  0  0  0  0  0
   -7.9777  -17.1826   44.6364 C   0  0  0  0  0  0  0  0  0  0  0  0
   -8.8617  -18.8495   36.5939 O   0  0  0  0  0  0  0  0  0  0  0  0
   -8.7827  -17.9993   37.4544 C   0  0  0  0  0  0  0  0  0  0  0  0
   -8.4882  -18.4412   38.7293 O   0  0  0  0  0  0  0  0  0  0  0  0
   -8.4795  -17.5975   39.8024 C   0  0  0  0  0  0  0  0  0  0  0  0
   -8.1695  -18.1618   41.0153 C   0  0  0  0  0  0  0  0  0  0  0  0
   -7.8664  -17.9419   43.4166 N   0  0  0  0  0  0  0  0  0  0  0  0
   -9.0922  -17.6484   45.4847 C   0  0  0  0  0  0  0  0  0  0  0  0
   -7.6171  -19.3899   43.5597 C   0  0  0  0  0  0  0  0  0  0  0  0
   -6.1704  -19.5567   43.5626 C   0  0  0  0  0  0  0  0  0  0  0  0
   -9.0335  -16.5737   37.2610 C   0  0  0  0  0  0  0  0  0  0  0  0
   -9.0477  -15.7153   38.3236 C   0  0  0  0  0  0  0  0  0  0  0  0
   -9.3522  -14.2552   38.1858 C   0  0  0  0  0  0  0  0  0  0  0  0
   -8.7606  -16.2453   39.6591 C   0  0  0  0  0  0  0  0  0  0  0  0
   -9.0855  -16.1213   35.8161 C   0  0  0  0  0  0  0  0  0  0  0  0
   -7.7730  -15.5878   35.2550 C   0  0  0  0  0  0  0  0  0  0  0  0
   -5.6903  -16.1256   36.5950 C   0  0  0  0  0  0  0  0  0  0  0  0
   -5.6978  -15.1402   37.3198 O   0  0  0  0  0  0  0  0  0  0  0  0
   -4.8280  -17.1371   36.6516 N   0  0  0  0  0  0  0  0  0  0  0  0
   -5.1141  -18.1980   35.6967 C   0  0  2  0  0  0  0  0  0  0  0  0
   -6.3794  -17.6813   35.0555 C   0  0  0  0  0  0  0  0  0  0  0  0
   -7.0339  -18.2580   34.2030 O   0  0  0  0  0  0  0  0  0  0  0  0
   -5.3055  -19.5752   36.3630 C   0  0  0  0  0  0  0  0  0  0  0  0
   -3.9200  -20.1900   36.3813 C   0  0  0  0  0  0  0  0  0  0  0  0
   -3.2062  -19.4698   35.3267 N   0  0  0  0  0  0  0  0  0  0  0  0
   -3.9837  -18.4180   34.6905 C   0  0  0  0  0  0  0  0  0  0  0  0
   -1.9344  -19.6437   34.9671 C   0  0  0  0  0  0  0  0  0  0  0  0
   -1.4355  -18.9747   34.0507 O   0  0  0  0  0  0  0  0  0  0  0  0
   -1.0996  -20.6152   35.7382 C   0  0  0  0  0  0  0  0  0  0  0  0
   -1.7391  -21.3891   36.6783 N   0  0  0  0  0  0  0  0  0  0  0  0
   -0.8086  -22.1760   37.2625 C   0  0  0  0  0  0  0  0  0  0  0  0
    0.2137  -21.0032   35.8067 C   0  0  0  0  0  0  0  0  0  0  0  0
   -8.3430  -15.3660   42.9232 H   0  0  0  0  0  0  0  0  0  0  0  0
   -8.9510  -14.3947   40.7442 H   0  0  0  0  0  0  0  0  0  0  0  0
    1.2764  -22.4335   37.0289 H   0  0  0  0  0  0  0  0  0  0  0  0
   -7.0386  -17.2798   45.2009 H   0  0  0  0  0  0  0  0  0  0  0  0
   -8.1756  -16.1352   44.3647 H   0  0  0  0  0  0  0  0  0  0  0  0
   -7.9632  -19.2401   41.0828 H   0  0  0  0  0  0  0  0  0  0  0  0
   -8.8191  -17.5343   46.5442 H   0  0  0  0  0  0  0  0  0  0  0  0
   -9.9904  -17.0504   45.2711 H   0  0  0  0  0  0  0  0  0  0  0  0
   -9.2977  -18.7078   45.2711 H   0  0  0  0  0  0  0  0  0  0  0  0
   -8.0450  -19.7587   44.5035 H   0  0  0  0  0  0  0  0  0  0  0  0
   -8.0837  -19.9589   42.7421 H   0  0  0  0  0  0  0  0  0  0  0  0
   -5.8082  -19.5984   44.6004 H   0  0  0  0  0  0  0  0  0  0  0  0
   -5.9080  -20.4910   43.0447 H   0  0  0  0  0  0  0  0  0  0  0  0
   -5.7023  -18.7065   43.0447 H   0  0  0  0  0  0  0  0  0  0  0  0
   -9.4462  -13.8043   39.1847 H   0  0  0  0  0  0  0  0  0  0  0  0
   -8.5378  -13.7611   37.6357 H   0  0  0  0  0  0  0  0  0  0  0  0
  -10.2962  -14.1278   37.6357 H   0  0  0  0  0  0  0  0  0  0  0  0
   -9.3941  -16.9799   35.2017 H   0  0  0  0  0  0  0  0  0  0  0  0
   -9.7945  -15.2808   35.7850 H   0  0  0  0  0  0  0  0  0  0  0  0
   -7.5989  -14.5811   35.6627 H   0  0  0  0  0  0  0  0  0  0  0  0
   -7.8614  -15.5720   34.1587 H   0  0  0  0  0  0  0  0  0  0  0  0
   -4.0345  -17.1667   37.3077 H   0  0  0  0  0  0  0  0  0  0  0  0
   -5.6925  -19.4607   37.3862 H   0  0  0  0  0  0  0  0  0  0  0  0
   -6.0314  -20.2012   35.8233 H   0  0  0  0  0  0  0  0  0  0  0  0
   -3.4361  -20.0371   37.3572 H   0  0  0  0  0  0  0  0  0  0  0  0
   -3.9346  -21.2779   36.2194 H   0  0  0  0  0  0  0  0  0  0  0  0
   -4.3753  -18.7454   33.7161 H   0  0  0  0  0  0  0  0  0  0  0  0
   -3.4029  -17.5095   34.4734 H   0  0  0  0  0  0  0  0  0  0  0  0
   -1.0284  -22.9011   38.0599 H   0  0  0  0  0  0  0  0  0  0  0  0
    1.0168  -20.5921   35.1774 H   0  0  0  0  0  0  0  0  0  0  0  0
  1  2  2  0
  1 11  1  0
  1 12  1  0
  2  3  1  0
  3 19  2  0
  4 21  1  0
  4 22  1  0
  4 26  1  0
  5 36  1  0
  5 37  1  0
  6 12  1  0
  6 13  1  0
  7  8  2  0
  8  9  1  0
  8 16  1  0
  9 10  1  0
 10 11  2  0
 10 19  1  0
 12 14  1  0
 14 15  1  0
 16 17  2  0
 16 20  1  0
 17 18  1  0
 17 19  1  0
 20 21  1  0
 22 23  2  0
 22 24  1  0
 25 24  1  1
 25 26  1  0
 25 28  1  0
 25 31  1  0
 26 27  2  0
 28 29  1  0
 29 30  1  0
 30 31  1  0
 30 32  1  0
 32 33  2  0
 32 34  1  0
 34 35  1  0
 34 37  2  0
 35 36  2  0
  2 38  1  0
  3 39  1  0
  5 40  1  0
  6 41  1  0
  6 42  1  0
 11 43  1  0
 13 44  1  0
 13 45  1  0
 13 46  1  0
 14 47  1  0
 14 48  1  0
 15 49  1  0
 15 50  1  0
 15 51  1  0
 18 52  1  0
 18 53  1  0
 18 54  1  0
 20 55  1  0
 20 56  1  0
 21 57  1  0
 21 58  1  0
 24 59  1  0
 28 60  1  0
 28 61  1  0
 29 62  1  0
 29 63  1  0
 31 64  1  0
 31 65  1  0
 36 66  1  0
 37 67  1  0
M  END
>  <filename_input>  (5) 
7LMO_NYO_docked.sdf

>  <pdb_id>  (5) 
7LMO_NYO

>  <pose_rank>  (5) 
4

>  <num_atoms_heavy>  (5) 
37

>  <num_torsions>  (5) 
7

>  <pose>  (5) 
[-7.773002942041992, -15.587818593186269, 35.25502387700289, -0.029567528695515363, 1.5470935167013122, -1.0769211506087315, 2.353990531799688, -3.0702235111706933, 1.883686227884305, 2.9005341182518034, -0.01328521473575038, -2.6962906607219064, 0.42619279544465444]

>  <energy>  (5) 
-622.5522971770538

>  <inter_energy>  (5) 
-702.6139964618542

>  <intra_energy>  (5) 
73.43601490693693

>  <rmsd>  (5) 
8.35536

>  <sdf_rank>  (5) 
0

$$$$

     RDKit          3D

 67 71  0  0  0  0  0  0  0  0999 V2000
    0.3031  -21.4903   35.1994 C   0  0  0  0  0  0  0  0  0  0  0  0
   -0.3602  -22.2694   36.1373 C   0  0  0  0  0  0  0  0  0  0  0  0
   -1.6289  -21.9349   36.5684 C   0  0  0  0  0  0  0  0  0  0  0  0
   -6.1864  -17.1255   38.4812 N   0  0  0  0  0  0  0  0  0  0  0  0
  -12.4896  -16.6818   44.8561 N   0  0  0  0  0  0  0  0  0  0  0  0
    1.7115  -23.0227   33.8415 C   0  0  0  0  0  0  0  0  0  0  0  0
   -3.8280  -17.4757   34.4437 O   0  0  0  0  0  0  0  0  0  0  0  0
   -3.3973  -18.4431   35.0338 C   0  0  0  0  0  0  0  0  0  0  0  0
   -2.1435  -18.8838   34.6578 O   0  0  0  0  0  0  0  0  0  0  0  0
   -1.5955  -20.0248   35.1688 C   0  0  0  0  0  0  0  0  0  0  0  0
   -0.3418  -20.3521   34.7141 C   0  0  0  0  0  0  0  0  0  0  0  0
    1.5538  -21.8729   34.6959 N   0  0  0  0  0  0  0  0  0  0  0  0
    1.3018  -22.7456   32.4508 C   0  0  0  0  0  0  0  0  0  0  0  0
    2.7499  -21.0321   34.9001 C   0  0  0  0  0  0  0  0  0  0  0  0
    3.8476  -21.9459   35.1841 C   0  0  0  0  0  0  0  0  0  0  0  0
   -4.1176  -19.2038   36.0512 C   0  0  0  0  0  0  0  0  0  0  0  0
   -3.5955  -20.3582   36.5621 C   0  0  0  0  0  0  0  0  0  0  0  0
   -4.3172  -21.2025   37.5670 C   0  0  0  0  0  0  0  0  0  0  0  0
   -2.2750  -20.7960   36.1023 C   0  0  0  0  0  0  0  0  0  0  0  0
   -5.3545  -18.5257   36.6038 C   0  0  0  0  0  0  0  0  0  0  0  0
   -5.0889  -17.3542   37.5413 C   0  0  0  0  0  0  0  0  0  0  0  0
   -7.0250  -15.9966   38.4529 C   0  0  0  0  0  0  0  0  0  0  0  0
   -6.9746  -15.0734   37.6518 O   0  0  0  0  0  0  0  0  0  0  0  0
   -7.9262  -16.1512   39.4192 N   0  0  0  0  0  0  0  0  0  0  0  0
   -7.7633  -17.3859   40.1727 C   0  0  2  0  0  0  0  0  0  0  0  0
   -6.6025  -18.0214   39.4462 C   0  0  0  0  0  0  0  0  0  0  0  0
   -6.1177  -19.1130   39.6932 O   0  0  0  0  0  0  0  0  0  0  0  0
   -9.0259  -18.2708   40.1633 C   0  0  0  0  0  0  0  0  0  0  0  0
   -9.8164  -17.8266   41.3781 C   0  0  0  0  0  0  0  0  0  0  0  0
   -8.8112  -17.2009   42.2373 N   0  0  0  0  0  0  0  0  0  0  0  0
   -7.4787  -17.1481   41.6563 C   0  0  0  0  0  0  0  0  0  0  0  0
   -9.0229  -16.6361   43.4261 C   0  0  0  0  0  0  0  0  0  0  0  0
   -8.0877  -16.1384   44.0693 O   0  0  0  0  0  0  0  0  0  0  0  0
  -10.4249  -16.5532   43.9388 C   0  0  0  0  0  0  0  0  0  0  0  0
  -11.1493  -15.4298   43.6154 N   0  0  0  0  0  0  0  0  0  0  0  0
  -12.3685  -15.5504   44.1856 C   0  0  0  0  0  0  0  0  0  0  0  0
  -11.2812  -17.3102   44.6963 C   0  0  0  0  0  0  0  0  0  0  0  0
    0.1316  -23.1659   36.5429 H   0  0  0  0  0  0  0  0  0  0  0  0
   -2.1388  -22.5835   37.2960 H   0  0  0  0  0  0  0  0  0  0  0  0
  -13.3092  -17.0175   45.3820 H   0  0  0  0  0  0  0  0  0  0  0  0
    2.7693  -23.3244   33.8456 H   0  0  0  0  0  0  0  0  0  0  0  0
    1.0648  -23.8230   34.2305 H   0  0  0  0  0  0  0  0  0  0  0  0
    0.1547  -19.7162   33.9663 H   0  0  0  0  0  0  0  0  0  0  0  0
    0.3906  -22.1294   32.4528 H   0  0  0  0  0  0  0  0  0  0  0  0
    2.1079  -22.2065   31.9315 H   0  0  0  0  0  0  0  0  0  0  0  0
    1.1016  -23.6945   31.9315 H   0  0  0  0  0  0  0  0  0  0  0  0
    2.9649  -20.4487   33.9926 H   0  0  0  0  0  0  0  0  0  0  0  0
    2.6009  -20.3177   35.7232 H   0  0  0  0  0  0  0  0  0  0  0  0
    3.9685  -22.0465   36.2728 H   0  0  0  0  0  0  0  0  0  0  0  0
    3.6271  -22.9309   34.7470 H   0  0  0  0  0  0  0  0  0  0  0  0
    4.7763  -21.5504   34.7470 H   0  0  0  0  0  0  0  0  0  0  0  0
   -4.0418  -20.8803   38.5820 H   0  0  0  0  0  0  0  0  0  0  0  0
   -5.4026  -21.0900   37.4284 H   0  0  0  0  0  0  0  0  0  0  0  0
   -4.0372  -22.2572   37.4284 H   0  0  0  0  0  0  0  0  0  0  0  0
   -5.9468  -18.1543   35.7546 H   0  0  0  0  0  0  0  0  0  0  0  0
   -5.8758  -19.2852   37.2049 H   0  0  0  0  0  0  0  0  0  0  0  0
   -4.9466  -16.4454   36.9380 H   0  0  0  0  0  0  0  0  0  0  0  0
   -4.1913  -17.5954   38.1297 H   0  0  0  0  0  0  0  0  0  0  0  0
   -8.6677  -15.4637   39.6151 H   0  0  0  0  0  0  0  0  0  0  0  0
   -9.6060  -18.1091   39.2428 H   0  0  0  0  0  0  0  0  0  0  0  0
   -8.7828  -19.3431   40.1944 H   0  0  0  0  0  0  0  0  0  0  0  0
  -10.5958  -17.1036   41.0958 H   0  0  0  0  0  0  0  0  0  0  0  0
  -10.3411  -18.6577   41.8720 H   0  0  0  0  0  0  0  0  0  0  0  0
   -6.8320  -17.9361   42.0697 H   0  0  0  0  0  0  0  0  0  0  0  0
   -6.9460  -16.2072   41.8584 H   0  0  0  0  0  0  0  0  0  0  0  0
  -13.1650  -14.7964   44.1015 H   0  0  0  0  0  0  0  0  0  0  0  0
  -11.0313  -18.2938   45.1207 H   0  0  0  0  0  0  0  0  0  0  0  0
  1  2  2  0
  1 11  1  0
  1 12  1  0
  2  3  1  0
  3 19  2  0
  4 21  1  0
  4 22  1  0
  4 26  1  0
  5 36  1  0
  5 37  1  0
  6 12  1  0
  6 13  1  0
  7  8  2  0
  8  9  1  0
  8 16  1  0
  9 10  1  0
 10 11  2  0
 10 19  1  0
 12 14  1  0
 14 15  1  0
 16 17  2  0
 16 20  1  0
 17 18  1  0
 17 19  1  0
 20 21  1  0
 22 23  2  0
 22 24  1  0
 25 24  1  6
 25 26  1  0
 25 28  1  0
 25 31  1  0
 26 27  2  0
 28 29  1  0
 29 30  1  0
 30 31  1  0
 30 32  1  0
 32 33  2  0
 32 34  1  0
 34 35  1  0
 34 37  2  0
 35 36  2  0
  2 38  1  0
  3 39  1  0
  5 40  1  0
  6 41  1  0
  6 42  1  0
 11 43  1  0
 13 44  1  0
 13 45  1  0
 13 46  1  0
 14 47  1  0
 14 48  1  0
 15 49  1  0
 15 50  1  0
 15 51  1  0
 18 52  1  0
 18 53  1  0
 18 54  1  0
 20 55  1  0
 20 56  1  0
 21 57  1  0
 21 58  1  0
 24 59  1  0
 28 60  1  0
 28 61  1  0
 29 62  1  0
 29 63  1  0
 31 64  1  0
 31 65  1  0
 36 66  1  0
 37 67  1  0
M  END
>  <filename_input>  (6) 
7LMO_NYO_docked.sdf

>  <pdb_id>  (6) 
7LMO_NYO

>  <pose_rank>  (6) 
5

>  <num_atoms_heavy>  (6) 
37

>  <num_torsions>  (6) 
7

>  <pose>  (6) 
[-5.088868170991748, -17.354189454442164, 37.541331049881755, 0.20144169724849117, -0.7556891699091934, -0.8555920500751415, 21.052342121833377, 1.5122281066425374, 42.377704531344946, 34.68733281660296, -5.1842242270520185, -3.306049412703229, 1.2004361043904754]

>  <energy>  (6) 
-775.5031022345761

>  <inter_energy>  (6) 
-771.3250384189207

>  <intra_energy>  (6) 
8.065527569585086

>  <rmsd>  (6) 
3.03888

>  <sdf_rank>  (6) 
0

$$$$

     RDKit          3D

 67 71  0  0  0  0  0  0  0  0999 V2000
   -7.5243  -17.1361   41.9031 C   0  0  0  0  0  0  0  0  0  0  0  0
   -7.1471  -18.3521   41.3501 C   0  0  0  0  0  0  0  0  0  0  0  0
   -7.0785  -18.5184   39.9808 C   0  0  0  0  0  0  0  0  0  0  0  0
   -5.8111  -16.9545   34.3720 N   0  0  0  0  0  0  0  0  0  0  0  0
    1.3267  -22.0898   34.0841 N   0  0  0  0  0  0  0  0  0  0  0  0
   -6.9200  -17.8944   44.1912 C   0  0  0  0  0  0  0  0  0  0  0  0
   -8.3604  -14.2362   36.9387 O   0  0  0  0  0  0  0  0  0  0  0  0
   -8.1293  -15.2714   37.5256 C   0  0  0  0  0  0  0  0  0  0  0  0
   -8.1411  -15.2110   38.9054 O   0  0  0  0  0  0  0  0  0  0  0  0
   -7.7899  -16.2799   39.6783 C   0  0  0  0  0  0  0  0  0  0  0  0
   -7.8453  -16.0901   41.0372 C   0  0  0  0  0  0  0  0  0  0  0  0
   -7.5121  -16.9379   43.2904 N   0  0  0  0  0  0  0  0  0  0  0  0
   -7.9332  -18.6080   44.9931 C   0  0  0  0  0  0  0  0  0  0  0  0
   -7.9780  -15.6698   43.8856 C   0  0  0  0  0  0  0  0  0  0  0  0
   -9.2438  -15.9675   44.5412 C   0  0  0  0  0  0  0  0  0  0  0  0
   -7.7827  -16.5424   36.8954 C   0  0  0  0  0  0  0  0  0  0  0  0
   -7.4105  -17.6188   37.6497 C   0  0  0  0  0  0  0  0  0  0  0  0
   -6.9947  -18.9272   37.0505 C   0  0  0  0  0  0  0  0  0  0  0  0
   -7.4095  -17.4878   39.1090 C   0  0  0  0  0  0  0  0  0  0  0  0
   -8.0457  -16.6127   35.4051 C   0  0  0  0  0  0  0  0  0  0  0  0
   -6.9428  -16.0398   34.5233 C   0  0  0  0  0  0  0  0  0  0  0  0
   -5.6874  -17.8878   33.3270 C   0  0  0  0  0  0  0  0  0  0  0  0
   -6.4751  -18.0575   32.4066 O   0  0  0  0  0  0  0  0  0  0  0  0
   -4.5211  -18.5072   33.4883 N   0  0  0  0  0  0  0  0  0  0  0  0
   -3.7750  -18.0464   34.6502 C   0  0  2  0  0  0  0  0  0  0  0  0
   -4.6822  -16.9561   35.1673 C   0  0  0  0  0  0  0  0  0  0  0  0
   -4.4573  -16.2357   36.1254 O   0  0  0  0  0  0  0  0  0  0  0  0
   -2.3661  -17.5289   34.2972 C   0  0  0  0  0  0  0  0  0  0  0  0
   -1.4696  -18.7461   34.4094 C   0  0  0  0  0  0  0  0  0  0  0  0
   -2.2184  -19.6503   35.2822 N   0  0  0  0  0  0  0  0  0  0  0  0
   -3.5261  -19.1511   35.6779 C   0  0  0  0  0  0  0  0  0  0  0  0
   -1.8464  -20.8707   35.6684 C   0  0  0  0  0  0  0  0  0  0  0  0
   -2.5652  -21.5473   36.4179 O   0  0  0  0  0  0  0  0  0  0  0  0
   -0.5742  -21.4363   35.1236 C   0  0  0  0  0  0  0  0  0  0  0  0
    0.0423  -22.4231   35.8568 N   0  0  0  0  0  0  0  0  0  0  0  0
    1.1695  -22.7772   35.2007 C   0  0  0  0  0  0  0  0  0  0  0  0
    0.2365  -21.2594   34.0320 C   0  0  0  0  0  0  0  0  0  0  0  0
   -6.8993  -19.1952   42.0118 H   0  0  0  0  0  0  0  0  0  0  0  0
   -6.7552  -19.4869   39.5715 H   0  0  0  0  0  0  0  0  0  0  0  0
    2.0968  -22.1614   33.4037 H   0  0  0  0  0  0  0  0  0  0  0  0
   -6.3517  -18.6300   43.6030 H   0  0  0  0  0  0  0  0  0  0  0  0
   -6.2668  -17.3449   44.8849 H   0  0  0  0  0  0  0  0  0  0  0  0
   -8.1432  -15.1123   41.4437 H   0  0  0  0  0  0  0  0  0  0  0  0
   -7.7242  -18.4608   46.0630 H   0  0  0  0  0  0  0  0  0  0  0  0
   -8.9324  -18.2132   44.7570 H   0  0  0  0  0  0  0  0  0  0  0  0
   -7.8980  -19.6818   44.7570 H   0  0  0  0  0  0  0  0  0  0  0  0
   -7.2460  -15.3018   44.6196 H   0  0  0  0  0  0  0  0  0  0  0  0
   -8.0978  -14.8889   43.1202 H   0  0  0  0  0  0  0  0  0  0  0  0
   -9.1079  -15.9355   45.6323 H   0  0  0  0  0  0  0  0  0  0  0  0
   -9.9953  -15.2216   44.2433 H   0  0  0  0  0  0  0  0  0  0  0  0
   -9.5841  -16.9702   44.2433 H   0  0  0  0  0  0  0  0  0  0  0  0
   -6.7672  -19.6428   37.8544 H   0  0  0  0  0  0  0  0  0  0  0  0
   -7.8117  -19.3218   36.4286 H   0  0  0  0  0  0  0  0  0  0  0  0
   -6.0998  -18.7777   36.4286 H   0  0  0  0  0  0  0  0  0  0  0  0
   -8.1839  -17.6696   35.1336 H   0  0  0  0  0  0  0  0  0  0  0  0
   -8.9353  -15.9918   35.2228 H   0  0  0  0  0  0  0  0  0  0  0  0
   -6.5815  -15.1040   34.9745 H   0  0  0  0  0  0  0  0  0  0  0  0
   -7.3699  -15.8702   33.5239 H   0  0  0  0  0  0  0  0  0  0  0  0
   -4.1791  -19.2419   32.8525 H   0  0  0  0  0  0  0  0  0  0  0  0
   -2.3461  -17.1254   33.2741 H   0  0  0  0  0  0  0  0  0  0  0  0
   -2.0443  -16.7127   34.9607 H   0  0  0  0  0  0  0  0  0  0  0  0
   -1.3028  -19.2025   33.4225 H   0  0  0  0  0  0  0  0  0  0  0  0
   -0.4709  -18.5048   34.8023 H   0  0  0  0  0  0  0  0  0  0  0  0
   -3.5058  -18.7469   36.7008 H   0  0  0  0  0  0  0  0  0  0  0  0
   -4.3080  -19.9246   35.6927 H   0  0  0  0  0  0  0  0  0  0  0  0
    1.8721  -23.5461   35.5545 H   0  0  0  0  0  0  0  0  0  0  0  0
    0.0383  -20.5443   33.2200 H   0  0  0  0  0  0  0  0  0  0  0  0
  1  2  2  0
  1 11  1  0
  1 12  1  0
  2  3  1  0
  3 19  2  0
  4 21  1  0
  4 22  1  0
  4 26  1  0
  5 36  1  0
  5 37  1  0
  6 12  1  0
  6 13  1  0
  7  8  2  0
  8  9  1  0
  8 16  1  0
  9 10  1  0
 10 11  2  0
 10 19  1  0
 12 14  1  0
 14 15  1  0
 16 17  2  0
 16 20  1  0
 17 18  1  0
 17 19  1  0
 20 21  1  0
 22 23  2  0
 22 24  1  0
 25 24  1  6
 25 26  1  0
 25 28  1  0
 25 31  1  0
 26 27  2  0
 28 29  1  0
 29 30  1  0
 30 31  1  0
 30 32  1  0
 32 33  2  0
 32 34  1  0
 34 35  1  0
 34 37  2  0
 35 36  2  0
  2 38  1  0
  3 39  1  0
  5 40  1  0
  6 41  1  0
  6 42  1  0
 11 43  1  0
 13 44  1  0
 13 45  1  0
 13 46  1  0
 14 47  1  0
 14 48  1  0
 15 49  1  0
 15 50  1  0
 15 51  1  0
 18 52  1  0
 18 53  1  0
 18 54  1  0
 20 55  1  0
 20 56  1  0
 21 57  1  0
 21 58  1  0
 24 59  1  0
 28 60  1  0
 28 61  1  0
 29 62  1  0
 29 63  1  0
 31 64  1  0
 31 65  1  0
 36 66  1  0
 37 67  1  0
M  END
>  <filename_input>  (7) 
7LMO_NYO_docked.sdf

>  <pdb_id>  (7) 
7LMO_NYO

>  <pose_rank>  (7) 
6

>  <num_atoms_heavy>  (7) 
37

>  <num_torsions>  (7) 
7

>  <pose>  (7) 
[-6.942839793906005, -16.0398357005889, 34.52332404185596, -0.07924068275846491, 1.9171065217543963, -1.039869010112791, -6.801943183588474, -0.4631456549175092, 2.4585350534319925, -0.2707432206246362, 0.07558734935326013, -0.3006490013431294, 0.6555944514447074]

>  <energy>  (7) 
-716.3907930234733

>  <inter_energy>  (7) 
-750.2780068451735

>  <intra_energy>  (7) 
43.76715177219497

>  <rmsd>  (7) 
8.97553

>  <sdf_rank>  (7) 
0

$$$$

     RDKit          3D

 67 71  0  0  0  0  0  0  0  0999 V2000
   -1.2011  -20.6357   35.6090 C   0  0  0  0  0  0  0  0  0  0  0  0
   -2.2991  -21.0356   36.3581 C   0  0  0  0  0  0  0  0  0  0  0  0
   -3.5125  -20.3867   36.2412 C   0  0  0  0  0  0  0  0  0  0  0  0
   -7.0601  -15.6572   36.5086 N   0  0  0  0  0  0  0  0  0  0  0  0
  -12.3448  -16.8085   43.5671 N   0  0  0  0  0  0  0  0  0  0  0  0
    0.0457  -22.7663   35.8947 C   0  0  0  0  0  0  0  0  0  0  0  0
   -3.7390  -16.2501   32.7666 O   0  0  0  0  0  0  0  0  0  0  0  0
   -3.7730  -17.1082   33.6222 C   0  0  0  0  0  0  0  0  0  0  0  0
   -2.6171  -17.8425   33.8018 O   0  0  0  0  0  0  0  0  0  0  0  0
   -2.5624  -18.9062   34.6555 C   0  0  0  0  0  0  0  0  0  0  0  0
   -1.3533  -19.5513   34.7443 C   0  0  0  0  0  0  0  0  0  0  0  0
    0.0067  -21.3448   35.6610 N   0  0  0  0  0  0  0  0  0  0  0  0
   -0.2801  -23.1118   37.2923 C   0  0  0  0  0  0  0  0  0  0  0  0
    1.2905  -20.6928   35.3354 C   0  0  0  0  0  0  0  0  0  0  0  0
    2.2236  -21.7648   35.0177 C   0  0  0  0  0  0  0  0  0  0  0  0
   -4.9436  -17.4612   34.4208 C   0  0  0  0  0  0  0  0  0  0  0  0
   -4.9158  -18.5331   35.2673 C   0  0  0  0  0  0  0  0  0  0  0  0
   -6.1048  -18.9686   36.0675 C   0  0  0  0  0  0  0  0  0  0  0  0
   -3.6718  -19.2967   35.3936 C   0  0  0  0  0  0  0  0  0  0  0  0
   -6.0802  -16.4609   34.3705 C   0  0  0  0  0  0  0  0  0  0  0  0
   -6.0639  -15.4036   35.4678 C   0  0  0  0  0  0  0  0  0  0  0  0
   -8.3423  -16.1799   36.2607 C   0  0  0  0  0  0  0  0  0  0  0  0
   -8.7963  -16.5068   35.1729 O   0  0  0  0  0  0  0  0  0  0  0  0
   -8.9468  -16.3150   37.4381 N   0  0  0  0  0  0  0  0  0  0  0  0
   -8.1265  -15.8917   38.5637 C   0  0  2  0  0  0  0  0  0  0  0  0
   -6.8433  -15.5125   37.8647 C   0  0  0  0  0  0  0  0  0  0  0  0
   -5.8216  -15.1279   38.4085 O   0  0  0  0  0  0  0  0  0  0  0  0
   -7.9245  -17.0012   39.6152 C   0  0  0  0  0  0  0  0  0  0  0  0
   -9.0690  -16.8188   40.5922 C   0  0  0  0  0  0  0  0  0  0  0  0
   -9.4735  -15.4263   40.3978 N   0  0  0  0  0  0  0  0  0  0  0  0
   -8.7413  -14.7329   39.3496 C   0  0  0  0  0  0  0  0  0  0  0  0
  -10.4632  -14.7916   41.0261 C   0  0  0  0  0  0  0  0  0  0  0  0
  -10.7128  -13.6026   40.7809 O   0  0  0  0  0  0  0  0  0  0  0  0
  -11.3127  -15.5631   41.9845 C   0  0  0  0  0  0  0  0  0  0  0  0
  -12.6767  -15.4559   41.8456 N   0  0  0  0  0  0  0  0  0  0  0  0
  -13.2472  -16.2109   42.8104 C   0  0  0  0  0  0  0  0  0  0  0  0
  -11.1392  -16.4109   43.0481 C   0  0  0  0  0  0  0  0  0  0  0  0
   -2.2013  -21.8813   37.0548 H   0  0  0  0  0  0  0  0  0  0  0  0
   -4.3711  -20.7398   36.8312 H   0  0  0  0  0  0  0  0  0  0  0  0
  -12.5097  -17.4339   44.3687 H   0  0  0  0  0  0  0  0  0  0  0  0
   -0.6825  -23.2545   35.2304 H   0  0  0  0  0  0  0  0  0  0  0  0
    1.0695  -23.1134   35.6914 H   0  0  0  0  0  0  0  0  0  0  0  0
   -0.5039  -19.2127   34.1329 H   0  0  0  0  0  0  0  0  0  0  0  0
    0.3126  -22.4832   37.9732 H   0  0  0  0  0  0  0  0  0  0  0  0
   -1.3513  -22.9387   37.4727 H   0  0  0  0  0  0  0  0  0  0  0  0
   -0.0443  -24.1710   37.4727 H   0  0  0  0  0  0  0  0  0  0  0  0
    1.1697  -20.0241   34.4704 H   0  0  0  0  0  0  0  0  0  0  0  0
    1.6535  -20.0824   36.1754 H   0  0  0  0  0  0  0  0  0  0  0  0
    2.6071  -22.2054   35.9498 H   0  0  0  0  0  0  0  0  0  0  0  0
    1.7068  -22.5390   34.4316 H   0  0  0  0  0  0  0  0  0  0  0  0
    3.0617  -21.3597   34.4316 H   0  0  0  0  0  0  0  0  0  0  0  0
   -5.8756  -18.8846   37.1400 H   0  0  0  0  0  0  0  0  0  0  0  0
   -6.9649  -18.3272   35.8250 H   0  0  0  0  0  0  0  0  0  0  0  0
   -6.3470  -20.0138   35.8250 H   0  0  0  0  0  0  0  0  0  0  0  0
   -6.0365  -15.9447   33.4001 H   0  0  0  0  0  0  0  0  0  0  0  0
   -7.0033  -17.0404   34.5192 H   0  0  0  0  0  0  0  0  0  0  0  0
   -6.2697  -14.4226   35.0147 H   0  0  0  0  0  0  0  0  0  0  0  0
   -5.0719  -15.4314   35.9423 H   0  0  0  0  0  0  0  0  0  0  0  0
   -9.9029  -16.6835   37.5431 H   0  0  0  0  0  0  0  0  0  0  0  0
   -7.9708  -17.9945   39.1448 H   0  0  0  0  0  0  0  0  0  0  0  0
   -6.9429  -16.9346   40.1071 H   0  0  0  0  0  0  0  0  0  0  0  0
   -9.8972  -17.5039   40.3584 H   0  0  0  0  0  0  0  0  0  0  0  0
   -8.7811  -17.0376   41.6311 H   0  0  0  0  0  0  0  0  0  0  0  0
   -7.9631  -14.0800   39.7717 H   0  0  0  0  0  0  0  0  0  0  0  0
   -9.3694  -14.0686   38.7378 H   0  0  0  0  0  0  0  0  0  0  0  0
  -14.3335  -16.3152   42.9488 H   0  0  0  0  0  0  0  0  0  0  0  0
  -10.1603  -16.7306   43.4348 H   0  0  0  0  0  0  0  0  0  0  0  0
  1  2  2  0
  1 11  1  0
  1 12  1  0
  2  3  1  0
  3 19  2  0
  4 21  1  0
  4 22  1  0
  4 26  1  0
  5 36  1  0
  5 37  1  0
  6 12  1  0
  6 13  1  0
  7  8  2  0
  8  9  1  0
  8 16  1  0
  9 10  1  0
 10 11  2  0
 10 19  1  0
 12 14  1  0
 14 15  1  0
 16 17  2  0
 16 20  1  0
 17 18  1  0
 17 19  1  0
 20 21  1  0
 22 23  2  0
 22 24  1  0
 25 24  1  6
 25 26  1  0
 25 28  1  0
 25 31  1  0
 26 27  2  0
 28 29  1  0
 29 30  1  0
 30 31  1  0
 30 32  1  0
 32 33  2  0
 32 34  1  0
 34 35  1  0
 34 37  2  0
 35 36  2  0
  2 38  1  0
  3 39  1  0
  5 40  1  0
  6 41  1  0
  6 42  1  0
 11 43  1  0
 13 44  1  0
 13 45  1  0
 13 46  1  0
 14 47  1  0
 14 48  1  0
 15 49  1  0
 15 50  1  0
 15 51  1  0
 18 52  1  0
 18 53  1  0
 18 54  1  0
 20 55  1  0
 20 56  1  0
 21 57  1  0
 21 58  1  0
 24 59  1  0
 28 60  1  0
 28 61  1  0
 29 62  1  0
 29 63  1  0
 31 64  1  0
 31 65  1  0
 36 66  1  0
 37 67  1  0
M  END
>  <filename_input>  (8) 
7LMO_NYO_docked.sdf

>  <pdb_id>  (8) 
7LMO_NYO

>  <pose_rank>  (8) 
7

>  <num_atoms_heavy>  (8) 
37

>  <num_torsions>  (8) 
7

>  <pose>  (8) 
[-6.06390059554866, -15.403584506434516, 35.46777101360663, 0.40052995524963814, -0.5496616790131237, -0.6232029497519526, -2.775278244239707, 0.8067556043076467, -25.866690048812142, 2.9312551408615444, 0.44736451826742685, 0.3471307920308153, 2.2491163644817505]

>  <energy>  (8) 
-620.2922050801302

>  <inter_energy>  (8) 
-666.6638255511282

>  <intra_energy>  (8) 
49.095497618400856

>  <rmsd>  (8) 
3.43738

>  <sdf_rank>  (8) 
0

$$$$

     RDKit          3D

 67 71  0  0  0  0  0  0  0  0999 V2000
   -3.0714  -19.7001   35.6225 C   0  0  0  0  0  0  0  0  0  0  0  0
   -4.1441  -20.1753   36.3643 C   0  0  0  0  0  0  0  0  0  0  0  0
   -5.3893  -19.5854   36.2699 C   0  0  0  0  0  0  0  0  0  0  0  0
   -7.9839  -14.9484   36.8666 N   0  0  0  0  0  0  0  0  0  0  0  0
   -8.5693  -17.4683   45.3234 N   0  0  0  0  0  0  0  0  0  0  0  0
   -0.7412  -19.9466   34.7951 C   0  0  0  0  0  0  0  0  0  0  0  0
   -5.8411  -15.3712   32.9125 O   0  0  0  0  0  0  0  0  0  0  0  0
   -5.8276  -16.2533   33.7441 C   0  0  0  0  0  0  0  0  0  0  0  0
   -4.6354  -16.9330   33.8989 O   0  0  0  0  0  0  0  0  0  0  0  0
   -4.5228  -18.0158   34.7225 C   0  0  0  0  0  0  0  0  0  0  0  0
   -3.2825  -18.6013   34.7889 C   0  0  0  0  0  0  0  0  0  0  0  0
   -1.8293  -20.3485   35.6503 N   0  0  0  0  0  0  0  0  0  0  0  0
    0.5732  -20.3334   35.3443 C   0  0  0  0  0  0  0  0  0  0  0  0
   -1.5294  -21.3829   36.6599 C   0  0  0  0  0  0  0  0  0  0  0  0
   -1.0762  -22.5539   35.9223 C   0  0  0  0  0  0  0  0  0  0  0  0
   -6.9749  -16.6867   34.5368 C   0  0  0  0  0  0  0  0  0  0  0  0
   -6.8890  -17.7788   35.3530 C   0  0  0  0  0  0  0  0  0  0  0  0
   -8.0504  -18.2956   36.1452 C   0  0  0  0  0  0  0  0  0  0  0  0
   -5.6074  -18.4819   35.4535 C   0  0  0  0  0  0  0  0  0  0  0  0
   -8.1606  -15.7440   34.5185 C   0  0  0  0  0  0  0  0  0  0  0  0
   -8.0563  -14.5508   35.4606 C   0  0  0  0  0  0  0  0  0  0  0  0
   -6.8008  -14.9398   37.6273 C   0  0  0  0  0  0  0  0  0  0  0  0
   -5.6923  -14.5927   37.2438 O   0  0  0  0  0  0  0  0  0  0  0  0
   -7.1237  -15.3166   38.8617 N   0  0  0  0  0  0  0  0  0  0  0  0
   -8.5395  -15.6117   39.0269 C   0  0  2  0  0  0  0  0  0  0  0  0
   -9.0690  -15.2861   37.6511 C   0  0  0  0  0  0  0  0  0  0  0  0
  -10.2373  -15.3399   37.3053 O   0  0  0  0  0  0  0  0  0  0  0  0
   -9.2068  -14.7716   40.1342 C   0  0  0  0  0  0  0  0  0  0  0  0
   -9.0549  -15.6029   41.3926 C   0  0  0  0  0  0  0  0  0  0  0  0
   -8.8576  -16.9624   40.8895 N   0  0  0  0  0  0  0  0  0  0  0  0
   -8.8044  -17.0603   39.4392 C   0  0  0  0  0  0  0  0  0  0  0  0
   -8.6594  -18.0590   41.6210 C   0  0  0  0  0  0  0  0  0  0  0  0
   -8.5078  -19.1645   41.0815 O   0  0  0  0  0  0  0  0  0  0  0  0
   -8.5546  -17.9189   43.1058 C   0  0  0  0  0  0  0  0  0  0  0  0
   -7.8729  -18.9012   43.7855 N   0  0  0  0  0  0  0  0  0  0  0  0
   -7.9115  -18.5915   45.1004 C   0  0  0  0  0  0  0  0  0  0  0  0
   -8.9639  -17.0451   44.0800 C   0  0  0  0  0  0  0  0  0  0  0  0
   -4.0005  -21.0339   37.0368 H   0  0  0  0  0  0  0  0  0  0  0  0
   -6.2260  -19.9975   36.8530 H   0  0  0  0  0  0  0  0  0  0  0  0
   -8.7466  -17.0117   46.2295 H   0  0  0  0  0  0  0  0  0  0  0  0
   -0.8685  -20.4238   33.8123 H   0  0  0  0  0  0  0  0  0  0  0  0
   -0.7633  -18.8498   34.7142 H   0  0  0  0  0  0  0  0  0  0  0  0
   -2.4542  -18.2035   34.1841 H   0  0  0  0  0  0  0  0  0  0  0  0
    0.5296  -20.3205   36.4434 H   0  0  0  0  0  0  0  0  0  0  0  0
    0.8313  -21.3455   34.9994 H   0  0  0  0  0  0  0  0  0  0  0  0
    1.3383  -19.6223   34.9994 H   0  0  0  0  0  0  0  0  0  0  0  0
   -0.7399  -21.0327   37.3412 H   0  0  0  0  0  0  0  0  0  0  0  0
   -2.4140  -21.6131   37.2718 H   0  0  0  0  0  0  0  0  0  0  0  0
   -0.7725  -23.3386   36.6308 H   0  0  0  0  0  0  0  0  0  0  0  0
   -1.8945  -22.9279   35.2895 H   0  0  0  0  0  0  0  0  0  0  0  0
   -0.2193  -22.2797   35.2895 H   0  0  0  0  0  0  0  0  0  0  0  0
   -7.8336  -18.1991   37.2193 H   0  0  0  0  0  0  0  0  0  0  0  0
   -8.9504  -17.7130   35.8990 H   0  0  0  0  0  0  0  0  0  0  0  0
   -8.2201  -19.3542   35.8990 H   0  0  0  0  0  0  0  0  0  0  0  0
   -8.2740  -15.3597   33.4941 H   0  0  0  0  0  0  0  0  0  0  0  0
   -9.0231  -16.3320   34.8656 H   0  0  0  0  0  0  0  0  0  0  0  0
   -8.9411  -13.9126   35.3201 H   0  0  0  0  0  0  0  0  0  0  0  0
   -7.1268  -14.0150   35.2177 H   0  0  0  0  0  0  0  0  0  0  0  0
   -6.4381  -15.3922   39.6266 H   0  0  0  0  0  0  0  0  0  0  0  0
   -8.6980  -13.8027   40.2457 H   0  0  0  0  0  0  0  0  0  0  0  0
  -10.2596  -14.5467   39.9086 H   0  0  0  0  0  0  0  0  0  0  0  0
   -8.1851  -15.2716   41.9788 H   0  0  0  0  0  0  0  0  0  0  0  0
   -9.9212  -15.5193   42.0654 H   0  0  0  0  0  0  0  0  0  0  0  0
   -9.7581  -17.4237   39.0288 H   0  0  0  0  0  0  0  0  0  0  0  0
   -8.0478  -17.7693   39.0720 H   0  0  0  0  0  0  0  0  0  0  0  0
   -7.4500  -19.2020   45.8905 H   0  0  0  0  0  0  0  0  0  0  0  0
   -9.5345  -16.1242   43.8890 H   0  0  0  0  0  0  0  0  0  0  0  0
  1  2  2  0
  1 11  1  0
  1 12  1  0
  2  3  1  0
  3 19  2  0
  4 21  1  0
  4 22  1  0
  4 26  1  0
  5 36  1  0
  5 37  1  0
  6 12  1  0
  6 13  1  0
  7  8  2  0
  8  9  1  0
  8 16  1  0
  9 10  1  0
 10 11  2  0
 10 19  1  0
 12 14  1  0
 14 15  1  0
 16 17  2  0
 16 20  1  0
 17 18  1  0
 17 19  1  0
 20 21  1  0
 22 23  2  0
 22 24  1  0
 25 24  1  6
 25 26  1  0
 25 28  1  0
 25 31  1  0
 26 27  2  0
 28 29  1  0
 29 30  1  0
 30 31  1  0
 30 32  1  0
 32 33  2  0
 32 34  1  0
 34 35  1  0
 34 37  2  0
 35 36  2  0
  2 38  1  0
  3 39  1  0
  5 40  1  0
  6 41  1  0
  6 42  1  0
 11 43  1  0
 13 44  1  0
 13 45  1  0
 13 46  1  0
 14 47  1  0
 14 48  1  0
 15 49  1  0
 15 50  1  0
 15 51  1  0
 18 52  1  0
 18 53  1  0
 18 54  1  0
 20 55  1  0
 20 56  1  0
 21 57  1  0
 21 58  1  0
 24 59  1  0
 28 60  1  0
 28 61  1  0
 29 62  1  0
 29 63  1  0
 31 64  1  0
 31 65  1  0
 36 66  1  0
 37 67  1  0
M  END
>  <filename_input>  (9) 
7LMO_NYO_docked.sdf

>  <pdb_id>  (9) 
7LMO_NYO

>  <pose_rank>  (9) 
8

>  <num_atoms_heavy>  (9) 
37

>  <num_torsions>  (9) 
7

>  <pose>  (9) 
[-8.056260992502173, -14.55076663125078, 35.460569671311134, -3.8110896570743344, -3.2025668888968517, 3.261136586091524, -0.3170104350653193, 0.3607819727342991, 12.562328442437591, -3.146078901465652, 2.944174594920969, -1.9486744312399793, 0.9716321072367563]

>  <energy>  (9) 
-577.7130405419888

>  <inter_energy>  (9) 
-638.0663331084294

>  <intra_energy>  (9) 
57.4348052412363

>  <rmsd>  (9) 
2.62374

>  <sdf_rank>  (9) 
0

$$$$

     RDKit          3D

 67 71  0  0  0  0  0  0  0  0999 V2000
  -10.8624  -14.0670   35.8381 C   0  0  0  0  0  0  0  0  0  0  0  0
  -10.4764  -13.9835   34.5074 C   0  0  0  0  0  0  0  0  0  0  0  0
   -9.3407  -14.6268   34.0560 C   0  0  0  0  0  0  0  0  0  0  0  0
   -3.6126  -19.1460   35.1325 N   0  0  0  0  0  0  0  0  0  0  0  0
    4.5848  -22.4813   33.9047 N   0  0  0  0  0  0  0  0  0  0  0  0
  -13.0758  -14.2586   36.9514 C   0  0  0  0  0  0  0  0  0  0  0  0
   -6.5132  -17.4325   37.7123 O   0  0  0  0  0  0  0  0  0  0  0  0
   -7.0299  -16.7728   36.8363 C   0  0  0  0  0  0  0  0  0  0  0  0
   -8.1940  -16.1099   37.1721 O   0  0  0  0  0  0  0  0  0  0  0  0
   -8.9278  -15.4247   36.2473 C   0  0  0  0  0  0  0  0  0  0  0  0
  -10.0639  -14.8077   36.7103 C   0  0  0  0  0  0  0  0  0  0  0  0
  -12.0589  -13.4877   36.2816 N   0  0  0  0  0  0  0  0  0  0  0  0
  -13.1442  -13.9586   38.3950 C   0  0  0  0  0  0  0  0  0  0  0  0
  -12.2738  -12.0288   36.2121 C   0  0  0  0  0  0  0  0  0  0  0  0
  -11.2040  -11.4211   36.9911 C   0  0  0  0  0  0  0  0  0  0  0  0
   -6.5573  -16.6781   35.4578 C   0  0  0  0  0  0  0  0  0  0  0  0
   -7.2856  -16.0130   34.5125 C   0  0  0  0  0  0  0  0  0  0  0  0
   -6.8721  -15.9323   33.0751 C   0  0  0  0  0  0  0  0  0  0  0  0
   -8.5305  -15.3557   34.9186 C   0  0  0  0  0  0  0  0  0  0  0  0
   -5.1540  -17.1984   35.2232 C   0  0  0  0  0  0  0  0  0  0  0  0
   -4.9824  -18.7030   35.3925 C   0  0  0  0  0  0  0  0  0  0  0  0
   -2.8442  -18.7247   34.0322 C   0  0  0  0  0  0  0  0  0  0  0  0
   -3.1896  -17.9355   33.1638 O   0  0  0  0  0  0  0  0  0  0  0  0
   -1.6470  -19.2933   34.1472 N   0  0  0  0  0  0  0  0  0  0  0  0
   -1.5175  -20.1409   35.3236 C   0  0  2  0  0  0  0  0  0  0  0  0
   -2.8666  -19.9484   35.9732 C   0  0  0  0  0  0  0  0  0  0  0  0
   -3.2250  -20.4372   37.0316 O   0  0  0  0  0  0  0  0  0  0  0  0
   -0.3512  -19.7253   36.2425 C   0  0  0  0  0  0  0  0  0  0  0  0
    0.8370  -20.5215   35.7405 C   0  0  0  0  0  0  0  0  0  0  0  0
    0.2272  -21.6458   35.0304 N   0  0  0  0  0  0  0  0  0  0  0  0
   -1.2258  -21.6019   34.9789 C   0  0  0  0  0  0  0  0  0  0  0  0
    0.8692  -22.6252   34.3934 C   0  0  0  0  0  0  0  0  0  0  0  0
    0.2433  -23.5329   33.8274 O   0  0  0  0  0  0  0  0  0  0  0  0
    2.3613  -22.5701   34.3160 C   0  0  0  0  0  0  0  0  0  0  0  0
    3.0516  -22.4843   35.5025 N   0  0  0  0  0  0  0  0  0  0  0  0
    4.3692  -22.4307   35.2067 C   0  0  0  0  0  0  0  0  0  0  0  0
    3.3342  -22.5756   33.3498 C   0  0  0  0  0  0  0  0  0  0  0  0
  -11.0836  -13.3967   33.8024 H   0  0  0  0  0  0  0  0  0  0  0  0
   -9.0717  -14.5609   32.9915 H   0  0  0  0  0  0  0  0  0  0  0  0
    5.4906  -22.4556   33.4151 H   0  0  0  0  0  0  0  0  0  0  0  0
  -14.0507  -14.0302   36.4958 H   0  0  0  0  0  0  0  0  0  0  0  0
  -12.8205  -15.3227   36.8397 H   0  0  0  0  0  0  0  0  0  0  0  0
  -10.3448  -14.8977   37.7700 H   0  0  0  0  0  0  0  0  0  0  0  0
  -12.9358  -14.8731   38.9698 H   0  0  0  0  0  0  0  0  0  0  0  0
  -12.3981  -13.1901   38.6456 H   0  0  0  0  0  0  0  0  0  0  0  0
  -14.1495  -13.5892   38.6456 H   0  0  0  0  0  0  0  0  0  0  0  0
  -12.2267  -11.6862   35.1679 H   0  0  0  0  0  0  0  0  0  0  0  0
  -13.2627  -11.7509   36.6055 H   0  0  0  0  0  0  0  0  0  0  0  0
  -11.4170  -11.5421   38.0635 H   0  0  0  0  0  0  0  0  0  0  0  0
  -10.2498  -11.9120   36.7491 H   0  0  0  0  0  0  0  0  0  0  0  0
  -11.1371  -10.3501   36.7491 H   0  0  0  0  0  0  0  0  0  0  0  0
   -5.7941  -15.7220   33.0150 H   0  0  0  0  0  0  0  0  0  0  0  0
   -7.0873  -16.8894   32.5774 H   0  0  0  0  0  0  0  0  0  0  0  0
   -7.4313  -15.1264   32.5774 H   0  0  0  0  0  0  0  0  0  0  0  0
   -4.8612  -16.9361   34.1958 H   0  0  0  0  0  0  0  0  0  0  0  0
   -4.5227  -16.7309   35.9932 H   0  0  0  0  0  0  0  0  0  0  0  0
   -5.6574  -19.2156   34.6914 H   0  0  0  0  0  0  0  0  0  0  0  0
   -5.2195  -18.9497   36.4379 H   0  0  0  0  0  0  0  0  0  0  0  0
   -0.8852  -19.1478   33.4694 H   0  0  0  0  0  0  0  0  0  0  0  0
   -0.1577  -18.6456   36.1593 H   0  0  0  0  0  0  0  0  0  0  0  0
   -0.5663  -19.9228   37.3030 H   0  0  0  0  0  0  0  0  0  0  0  0
    1.4550  -19.9169   35.0604 H   0  0  0  0  0  0  0  0  0  0  0  0
    1.5075  -20.8429   36.5512 H   0  0  0  0  0  0  0  0  0  0  0  0
   -1.6717  -22.2829   35.7187 H   0  0  0  0  0  0  0  0  0  0  0  0
   -1.6430  -21.9192   34.0118 H   0  0  0  0  0  0  0  0  0  0  0  0
    5.1667  -22.3542   35.9604 H   0  0  0  0  0  0  0  0  0  0  0  0
    3.1372  -22.6464   32.2699 H   0  0  0  0  0  0  0  0  0  0  0  0
  1  2  2  0
  1 11  1  0
  1 12  1  0
  2  3  1  0
  3 19  2  0
  4 21  1  0
  4 22  1  0
  4 26  1  0
  5 36  1  0
  5 37  1  0
  6 12  1  0
  6 13  1  0
  7  8  2  0
  8  9  1  0
  8 16  1  0
  9 10  1  0
 10 11  2  0
 10 19  1  0
 12 14  1  0
 14 15  1  0
 16 17  2  0
 16 20  1  0
 17 18  1  0
 17 19  1  0
 20 21  1  0
 22 23  2  0
 22 24  1  0
 25 24  1  6
 25 26  1  0
 25 28  1  0
 25 31  1  0
 26 27  2  0
 28 29  1  0
 29 30  1  0
 30 31  1  0
 30 32  1  0
 32 33  2  0
 32 34  1  0
 34 35  1  0
 34 37  2  0
 35 36  2  0
  2 38  1  0
  3 39  1  0
  5 40  1  0
  6 41  1  0
  6 42  1  0
 11 43  1  0
 13 44  1  0
 13 45  1  0
 13 46  1  0
 14 47  1  0
 14 48  1  0
 15 49  1  0
 15 50  1  0
 15 51  1  0
 18 52  1  0
 18 53  1  0
 18 54  1  0
 20 55  1  0
 20 56  1  0
 21 57  1  0
 21 58  1  0
 24 59  1  0
 28 60  1  0
 28 61  1  0
 29 62  1  0
 29 63  1  0
 31 64  1  0
 31 65  1  0
 36 66  1  0
 37 67  1  0
M  END
>  <filename_input>  (10) 
7LMO_NYO_docked.sdf

>  <pdb_id>  (10) 
7LMO_NYO

>  <pose_rank>  (10) 
9

>  <num_atoms_heavy>  (10) 
37

>  <num_torsions>  (10) 
7

>  <pose>  (10) 
[-4.982380596627398, -18.702998502405244, 35.392454958300206, -2.711974604148441, -0.01707973445767997, -2.3868524485847886, 3.3625601678983177, -2.2206775487000354, 4.215440532910791, -0.5572638301448736, -4.222938772036617, 9.767024747161642, 4.021762945316112]

>  <energy>  (10) 
-493.21876204298553

>  <inter_energy>  (10) 
-535.5139607527136

>  <intra_energy>  (10) 
44.08825069449611

>  <rmsd>  (10) 
10.6989

>  <sdf_rank>  (10) 
0

$$$$

     RDKit          3D

 67 71  0  0  0  0  0  0  0  0999 V2000
   -0.8318  -20.7432   35.2949 C   0  0  0  0  0  0  0  0  0  0  0  0
   -0.7596  -19.6057   34.5026 C   0  0  0  0  0  0  0  0  0  0  0  0
   -1.7969  -18.6943   34.4731 C   0  0  0  0  0  0  0  0  0  0  0  0
   -8.1908  -16.2537   37.0924 N   0  0  0  0  0  0  0  0  0  0  0  0
  -12.7274   -8.5167   37.4718 N   0  0  0  0  0  0  0  0  0  0  0  0
    0.0672  -23.0500   35.5092 C   0  0  0  0  0  0  0  0  0  0  0  0
   -6.0992  -19.7978   37.5566 O   0  0  0  0  0  0  0  0  0  0  0  0
   -5.2204  -19.4986   36.7769 C   0  0  0  0  0  0  0  0  0  0  0  0
   -4.1169  -20.3285   36.7472 O   0  0  0  0  0  0  0  0  0  0  0  0
   -3.0160  -20.0400   35.9935 C   0  0  0  0  0  0  0  0  0  0  0  0
   -1.9869  -20.9474   36.0504 C   0  0  0  0  0  0  0  0  0  0  0  0
    0.2526  -21.6255   35.3936 N   0  0  0  0  0  0  0  0  0  0  0  0
   -0.5060  -23.4348   36.8139 C   0  0  0  0  0  0  0  0  0  0  0  0
    1.6416  -21.1499   35.2393 C   0  0  0  0  0  0  0  0  0  0  0  0
    2.3474  -22.1854   34.4975 C   0  0  0  0  0  0  0  0  0  0  0  0
   -5.2119  -18.3117   35.9262 C   0  0  0  0  0  0  0  0  0  0  0  0
   -4.1135  -17.9946   35.1784 C   0  0  0  0  0  0  0  0  0  0  0  0
   -4.0342  -16.7616   34.3317 C   0  0  0  0  0  0  0  0  0  0  0  0
   -2.9577  -18.8946   35.2107 C   0  0  0  0  0  0  0  0  0  0  0  0
   -6.5430  -17.5984   35.8062 C   0  0  0  0  0  0  0  0  0  0  0  0
   -7.3021  -17.4156   37.1148 C   0  0  0  0  0  0  0  0  0  0  0  0
   -9.4311  -16.2238   36.4296 C   0  0  0  0  0  0  0  0  0  0  0  0
   -9.9446  -17.1425   35.8062 O   0  0  0  0  0  0  0  0  0  0  0  0
   -9.9732  -15.0314   36.6623 N   0  0  0  0  0  0  0  0  0  0  0  0
   -9.1436  -14.1682   37.4903 C   0  0  2  0  0  0  0  0  0  0  0  0
   -7.9796  -15.0814   37.7910 C   0  0  0  0  0  0  0  0  0  0  0  0
   -7.0255  -14.8108   38.5009 O   0  0  0  0  0  0  0  0  0  0  0  0
   -9.8616  -13.6819   38.7652 C   0  0  0  0  0  0  0  0  0  0  0  0
  -10.5250  -12.3803   38.3608 C   0  0  0  0  0  0  0  0  0  0  0  0
   -9.7597  -11.9489   37.1910 N   0  0  0  0  0  0  0  0  0  0  0  0
   -8.7225  -12.8816   36.7789 C   0  0  0  0  0  0  0  0  0  0  0  0
   -9.9737  -10.8537   36.4617 C   0  0  0  0  0  0  0  0  0  0  0  0
   -9.2535  -10.5867   35.4890 O   0  0  0  0  0  0  0  0  0  0  0  0
  -11.1447   -9.9875   36.7989 C   0  0  0  0  0  0  0  0  0  0  0  0
  -12.3404  -10.2757   36.1836 N   0  0  0  0  0  0  0  0  0  0  0  0
  -13.2498   -9.3728   36.6125 C   0  0  0  0  0  0  0  0  0  0  0  0
  -11.4175   -8.9040   37.5938 C   0  0  0  0  0  0  0  0  0  0  0  0
    0.1363  -19.4276   33.8897 H   0  0  0  0  0  0  0  0  0  0  0  0
   -1.7023  -17.7908   33.8528 H   0  0  0  0  0  0  0  0  0  0  0  0
  -13.1989   -7.7327   37.9451 H   0  0  0  0  0  0  0  0  0  0  0  0
   -0.6122  -23.3845   34.7114 H   0  0  0  0  0  0  0  0  0  0  0  0
    1.0546  -23.5267   35.4209 H   0  0  0  0  0  0  0  0  0  0  0  0
   -2.0734  -21.8365   36.6924 H   0  0  0  0  0  0  0  0  0  0  0  0
    0.1127  -23.0195   37.6230 H   0  0  0  0  0  0  0  0  0  0  0  0
   -1.5295  -23.0401   36.8954 H   0  0  0  0  0  0  0  0  0  0  0  0
   -0.5284  -24.5315   36.8954 H   0  0  0  0  0  0  0  0  0  0  0  0
    1.6599  -20.2020   34.6815 H   0  0  0  0  0  0  0  0  0  0  0  0
    2.1124  -20.9663   36.2163 H   0  0  0  0  0  0  0  0  0  0  0  0
    2.8227  -22.8826   35.2032 H   0  0  0  0  0  0  0  0  0  0  0  0
    1.6343  -22.7338   33.8645 H   0  0  0  0  0  0  0  0  0  0  0  0
    3.1185  -21.7220   33.8645 H   0  0  0  0  0  0  0  0  0  0  0  0
   -3.9771  -15.8747   34.9799 H   0  0  0  0  0  0  0  0  0  0  0  0
   -3.1373  -16.8099   33.6967 H   0  0  0  0  0  0  0  0  0  0  0  0
   -4.9298  -16.6946   33.6967 H   0  0  0  0  0  0  0  0  0  0  0  0
   -6.3577  -16.6020   35.3785 H   0  0  0  0  0  0  0  0  0  0  0  0
   -7.1758  -18.2379   35.1734 H   0  0  0  0  0  0  0  0  0  0  0  0
   -6.5741  -17.2866   37.9293 H   0  0  0  0  0  0  0  0  0  0  0  0
   -7.9258  -18.3091   37.2657 H   0  0  0  0  0  0  0  0  0  0  0  0
  -10.8912  -14.7465   36.2923 H   0  0  0  0  0  0  0  0  0  0  0  0
  -10.6136  -14.4158   39.0907 H   0  0  0  0  0  0  0  0  0  0  0  0
   -9.1682  -13.5509   39.6090 H   0  0  0  0  0  0  0  0  0  0  0  0
  -11.5812  -12.5430   38.1001 H   0  0  0  0  0  0  0  0  0  0  0  0
  -10.5256  -11.6336   39.1685 H   0  0  0  0  0  0  0  0  0  0  0  0
   -7.7295  -12.5473   37.1140 H   0  0  0  0  0  0  0  0  0  0  0  0
   -8.6337  -12.9893   35.6878 H   0  0  0  0  0  0  0  0  0  0  0  0
  -14.2997   -9.3532   36.2850 H   0  0  0  0  0  0  0  0  0  0  0  0
  -10.6814   -8.4098   38.2448 H   0  0  0  0  0  0  0  0  0  0  0  0
  1  2  2  0
  1 11  1  0
  1 12  1  0
  2  3  1  0
  3 19  2  0
  4 21  1  0
  4 22  1  0
  4 26  1  0
  5 36  1  0
  5 37  1  0
  6 12  1  0
  6 13  1  0
  7  8  2  0
  8  9  1  0
  8 16  1  0
  9 10  1  0
 10 11  2  0
 10 19  1  0
 12 14  1  0
 14 15  1  0
 16 17  2  0
 16 20  1  0
 17 18  1  0
 17 19  1  0
 20 21  1  0
 22 23  2  0
 22 24  1  0
 25 24  1  6
 25 26  1  0
 25 28  1  0
 25 31  1  0
 26 27  2  0
 28 29  1  0
 29 30  1  0
 30 31  1  0
 30 32  1  0
 32 33  2  0
 32 34  1  0
 34 35  1  0
 34 37  2  0
 35 36  2  0
  2 38  1  0
  3 39  1  0
  5 40  1  0
  6 41  1  0
  6 42  1  0
 11 43  1  0
 13 44  1  0
 13 45  1  0
 13 46  1  0
 14 47  1  0
 14 48  1  0
 15 49  1  0
 15 50  1  0
 15 51  1  0
 18 52  1  0
 18 53  1  0
 18 54  1  0
 20 55  1  0
 20 56  1  0
 21 57  1  0
 21 58  1  0
 24 59  1  0
 28 60  1  0
 28 61  1  0
 29 62  1  0
 29 63  1  0
 31 64  1  0
 31 65  1  0
 36 66  1  0
 37 67  1  0
M  END
>  <filename_input>  (11) 
7LMO_NYO_docked.sdf

>  <pdb_id>  (11) 
7LMO_NYO

>  <pose_rank>  (11) 
10

>  <num_atoms_heavy>  (11) 
37

>  <num_torsions>  (11) 
7

>  <pose>  (11) 
[-7.30211010269008, -17.415598853992435, 37.11482807858911, -1.4106923609558584, 1.8994346341979902, 2.336518657398276, 5.491613736132578, 1.5224103903610735, -2.520608057699601, -0.9626092028133468, 3.671450142787797, -5.885721291792678, 2.57295866550555]

>  <energy>  (11) 
-571.8198609454187

>  <inter_energy>  (11) 
-613.1047494455931

>  <intra_energy>  (11) 
45.7409740059785

>  <rmsd>  (11) 
5.87257

>  <sdf_rank>  (11) 
0

$$$$

     RDKit          3D

 67 71  0  0  0  0  0  0  0  0999 V2000
   -0.0974  -21.7396   35.3153 C   0  0  0  0  0  0  0  0  0  0  0  0
    0.1380  -20.6723   34.4597 C   0  0  0  0  0  0  0  0  0  0  0  0
   -0.7852  -19.6541   34.3244 C   0  0  0  0  0  0  0  0  0  0  0  0
   -7.2434  -17.4358   33.7410 N   0  0  0  0  0  0  0  0  0  0  0  0
  -11.9668  -11.0939   29.7602 N   0  0  0  0  0  0  0  0  0  0  0  0
    0.5609  -24.1334   35.4252 C   0  0  0  0  0  0  0  0  0  0  0  0
   -5.3097  -20.0611   37.2567 O   0  0  0  0  0  0  0  0  0  0  0  0
   -4.3708  -19.9147   36.5039 C   0  0  0  0  0  0  0  0  0  0  0  0
   -3.3700  -20.8635   36.5784 O   0  0  0  0  0  0  0  0  0  0  0  0
   -2.2130  -20.7509   35.8629 C   0  0  0  0  0  0  0  0  0  0  0  0
   -1.2986  -21.7624   36.0249 C   0  0  0  0  0  0  0  0  0  0  0  0
    0.8731  -22.7297   35.5203 N   0  0  0  0  0  0  0  0  0  0  0  0
    0.0192  -24.6720   36.6883 C   0  0  0  0  0  0  0  0  0  0  0  0
    2.2957  -22.3798   35.7020 C   0  0  0  0  0  0  0  0  0  0  0  0
    2.5210  -22.3202   37.1395 C   0  0  0  0  0  0  0  0  0  0  0  0
   -4.1905  -18.7950   35.5838 C   0  0  0  0  0  0  0  0  0  0  0  0
   -3.0329  -18.6535   34.8724 C   0  0  0  0  0  0  0  0  0  0  0  0
   -2.7771  -17.4958   33.9569 C   0  0  0  0  0  0  0  0  0  0  0  0
   -1.9908  -19.6736   35.0155 C   0  0  0  0  0  0  0  0  0  0  0  0
   -5.4244  -17.9462   35.3561 C   0  0  0  0  0  0  0  0  0  0  0  0
   -6.3994  -18.4836   34.3156 C   0  0  0  0  0  0  0  0  0  0  0  0
   -8.5294  -17.1142   34.2116 C   0  0  0  0  0  0  0  0  0  0  0  0
   -9.1100  -17.6350   35.1539 O   0  0  0  0  0  0  0  0  0  0  0  0
   -8.9712  -16.0926   33.4829 N   0  0  0  0  0  0  0  0  0  0  0  0
   -8.0258  -15.6521   32.4674 C   0  0  2  0  0  0  0  0  0  0  0  0
   -6.8571  -16.5686   32.7382 C   0  0  0  0  0  0  0  0  0  0  0  0
   -5.7863  -16.5506   32.1545 O   0  0  0  0  0  0  0  0  0  0  0  0
   -7.6533  -14.1613   32.5946 C   0  0  0  0  0  0  0  0  0  0  0  0
   -8.6665  -13.4363   31.7312 C   0  0  0  0  0  0  0  0  0  0  0  0
   -9.1374  -14.4680   30.8071 N   0  0  0  0  0  0  0  0  0  0  0  0
   -8.5704  -15.7862   31.0447 C   0  0  0  0  0  0  0  0  0  0  0  0
  -10.0572  -14.3202   29.8535 C   0  0  0  0  0  0  0  0  0  0  0  0
  -10.3747  -15.2703   29.1235 O   0  0  0  0  0  0  0  0  0  0  0  0
  -10.7497  -13.0014   29.7261 C   0  0  0  0  0  0  0  0  0  0  0  0
  -10.2515  -12.1141   28.8009 N   0  0  0  0  0  0  0  0  0  0  0  0
  -11.0054  -10.9941   28.8602 C   0  0  0  0  0  0  0  0  0  0  0  0
  -11.8123  -12.3473   30.2947 C   0  0  0  0  0  0  0  0  0  0  0  0
    1.0730  -20.6369   33.8813 H   0  0  0  0  0  0  0  0  0  0  0  0
   -0.5616  -18.8099   33.6555 H   0  0  0  0  0  0  0  0  0  0  0  0
  -12.6750  -10.3875   30.0059 H   0  0  0  0  0  0  0  0  0  0  0  0
   -0.1856  -24.2770   34.6301 H   0  0  0  0  0  0  0  0  0  0  0  0
    1.4936  -24.6719   35.2015 H   0  0  0  0  0  0  0  0  0  0  0  0
   -1.5133  -22.5918   36.7149 H   0  0  0  0  0  0  0  0  0  0  0  0
    0.5139  -24.1801   37.5387 H   0  0  0  0  0  0  0  0  0  0  0  0
   -1.0632  -24.4819   36.7337 H   0  0  0  0  0  0  0  0  0  0  0  0
    0.2034  -25.7556   36.7337 H   0  0  0  0  0  0  0  0  0  0  0  0
    2.9382  -23.1481   35.2472 H   0  0  0  0  0  0  0  0  0  0  0  0
    2.5367  -21.4212   35.2192 H   0  0  0  0  0  0  0  0  0  0  0  0
    1.5880  -22.5670   37.6673 H   0  0  0  0  0  0  0  0  0  0  0  0
    3.3022  -23.0425   37.4184 H   0  0  0  0  0  0  0  0  0  0  0  0
    2.8428  -21.3060   37.4184 H   0  0  0  0  0  0  0  0  0  0  0  0
   -2.5777  -16.5936   34.5537 H   0  0  0  0  0  0  0  0  0  0  0  0
   -1.9059  -17.7157   33.3224 H   0  0  0  0  0  0  0  0  0  0  0  0
   -3.6598  -17.3281   33.3224 H   0  0  0  0  0  0  0  0  0  0  0  0
   -5.9605  -17.8616   36.3129 H   0  0  0  0  0  0  0  0  0  0  0  0
   -5.0641  -16.9824   34.9673 H   0  0  0  0  0  0  0  0  0  0  0  0
   -7.0461  -19.2343   34.7934 H   0  0  0  0  0  0  0  0  0  0  0  0
   -5.8069  -18.9197   33.4979 H   0  0  0  0  0  0  0  0  0  0  0  0
   -9.8932  -15.6556   33.6237 H   0  0  0  0  0  0  0  0  0  0  0  0
   -7.7282  -13.8307   33.6411 H   0  0  0  0  0  0  0  0  0  0  0  0
   -6.6188  -13.9625   32.2781 H   0  0  0  0  0  0  0  0  0  0  0  0
   -9.4955  -13.0484   32.3414 H   0  0  0  0  0  0  0  0  0  0  0  0
   -8.2393  -12.5644   31.2143 H   0  0  0  0  0  0  0  0  0  0  0  0
   -7.7654  -16.0090   30.3289 H   0  0  0  0  0  0  0  0  0  0  0  0
   -9.2936  -16.6062   30.9244 H   0  0  0  0  0  0  0  0  0  0  0  0
  -10.8382  -10.1055   28.2338 H   0  0  0  0  0  0  0  0  0  0  0  0
  -12.4571  -12.7728   31.0778 H   0  0  0  0  0  0  0  0  0  0  0  0
  1  2  2  0
  1 11  1  0
  1 12  1  0
  2  3  1  0
  3 19  2  0
  4 21  1  0
  4 22  1  0
  4 26  1  0
  5 36  1  0
  5 37  1  0
  6 12  1  0
  6 13  1  0
  7  8  2  0
  8  9  1  0
  8 16  1  0
  9 10  1  0
 10 11  2  0
 10 19  1  0
 12 14  1  0
 14 15  1  0
 16 17  2  0
 16 20  1  0
 17 18  1  0
 17 19  1  0
 20 21  1  0
 22 23  2  0
 22 24  1  0
 25 24  1  1
 25 26  1  0
 25 28  1  0
 25 31  1  0
 26 27  2  0
 28 29  1  0
 29 30  1  0
 30 31  1  0
 30 32  1  0
 32 33  2  0
 32 34  1  0
 34 35  1  0
 34 37  2  0
 35 36  2  0
  2 38  1  0
  3 39  1  0
  5 40  1  0
  6 41  1  0
  6 42  1  0
 11 43  1  0
 13 44  1  0
 13 45  1  0
 13 46  1  0
 14 47  1  0
 14 48  1  0
 15 49  1  0
 15 50  1  0
 15 51  1  0
 18 52  1  0
 18 53  1  0
 18 54  1  0
 20 55  1  0
 20 56  1  0
 21 57  1  0
 21 58  1  0
 24 59  1  0
 28 60  1  0
 28 61  1  0
 29 62  1  0
 29 63  1  0
 31 64  1  0
 31 65  1  0
 36 66  1  0
 37 67  1  0
M  END
>  <filename_input>  (12) 
7LMO_NYO_docked.sdf

>  <pdb_id>  (12) 
7LMO_NYO

>  <pose_rank>  (12) 
11

>  <num_atoms_heavy>  (12) 
37

>  <num_torsions>  (12) 
7

>  <pose>  (12) 
[-6.39942862133565, -18.483555464066768, 34.3155957418029, -2.19703747409074, 0.08784054827505312, 0.8124066146215814, -3.777334417551019, -1.5212508334927797, -1.643294961734331, 3.0983550325189753, -2.3728868771460516, 0.13192450965685185, 0.42261472263327654]

>  <energy>  (12) 
-644.3621758895254

>  <inter_energy>  (12) 
-644.7967777845555

>  <intra_energy>  (12) 
13.890784911888838

>  <rmsd>  (12) 
8.14671

>  <sdf_rank>  (12) 
0

$$$$

     RDKit          3D

 67 71  0  0  0  0  0  0  0  0999 V2000
   -0.1213  -21.3748   35.1135 C   0  0  0  0  0  0  0  0  0  0  0  0
   -0.9158  -22.1136   35.9793 C   0  0  0  0  0  0  0  0  0  0  0  0
   -2.1708  -21.6685   36.3454 C   0  0  0  0  0  0  0  0  0  0  0  0
   -7.1725  -17.0475   34.6184 N   0  0  0  0  0  0  0  0  0  0  0  0
   -9.0048  -11.0862   28.2719 N   0  0  0  0  0  0  0  0  0  0  0  0
    1.3462  -22.2216   33.2955 C   0  0  0  0  0  0  0  0  0  0  0  0
   -3.7857  -16.9475   34.2623 O   0  0  0  0  0  0  0  0  0  0  0  0
   -3.4896  -17.9712   34.8402 C   0  0  0  0  0  0  0  0  0  0  0  0
   -2.2632  -18.5221   34.5243 O   0  0  0  0  0  0  0  0  0  0  0  0
   -1.8625  -19.7276   35.0238 C   0  0  0  0  0  0  0  0  0  0  0  0
   -0.6201  -20.1633   34.6336 C   0  0  0  0  0  0  0  0  0  0  0  0
    1.1159  -21.8637   34.6724 N   0  0  0  0  0  0  0  0  0  0  0  0
    2.4193  -23.2248   33.1510 C   0  0  0  0  0  0  0  0  0  0  0  0
    2.2875  -21.9001   35.5697 C   0  0  0  0  0  0  0  0  0  0  0  0
    3.1359  -20.7830   35.1788 C   0  0  0  0  0  0  0  0  0  0  0  0
   -4.3440  -18.6884   35.7827 C   0  0  0  0  0  0  0  0  0  0  0  0
   -3.9703  -19.9047   36.2800 C   0  0  0  0  0  0  0  0  0  0  0  0
   -4.8335  -20.7046   37.2067 C   0  0  0  0  0  0  0  0  0  0  0  0
   -2.6720  -20.4568   35.8846 C   0  0  0  0  0  0  0  0  0  0  0  0
   -5.5419  -17.9086   36.2848 C   0  0  0  0  0  0  0  0  0  0  0  0
   -6.8391  -18.1485   35.5221 C   0  0  0  0  0  0  0  0  0  0  0  0
   -7.5483  -15.7621   35.0485 C   0  0  0  0  0  0  0  0  0  0  0  0
   -7.6333  -15.3791   36.2072 O   0  0  0  0  0  0  0  0  0  0  0  0
   -7.7303  -15.0200   33.9594 N   0  0  0  0  0  0  0  0  0  0  0  0
   -7.4980  -15.7441   32.7182 C   0  0  2  0  0  0  0  0  0  0  0  0
   -7.0688  -17.0933   33.2421 C   0  0  0  0  0  0  0  0  0  0  0  0
   -6.7216  -18.0448   32.5627 O   0  0  0  0  0  0  0  0  0  0  0  0
   -6.4269  -15.0854   31.8258 C   0  0  0  0  0  0  0  0  0  0  0  0
   -7.2003  -14.1343   30.9342 C   0  0  0  0  0  0  0  0  0  0  0  0
   -8.5630  -14.6659   30.9581 N   0  0  0  0  0  0  0  0  0  0  0  0
   -8.7390  -15.8184   31.8278 C   0  0  0  0  0  0  0  0  0  0  0  0
   -9.6246  -14.1585   30.3314 C   0  0  0  0  0  0  0  0  0  0  0  0
  -10.7355  -14.7007   30.4216 O   0  0  0  0  0  0  0  0  0  0  0  0
   -9.4635  -12.8810   29.5716 C   0  0  0  0  0  0  0  0  0  0  0  0
  -10.3485  -11.8658   29.8499 N   0  0  0  0  0  0  0  0  0  0  0  0
  -10.0382  -10.8213   29.0505 C   0  0  0  0  0  0  0  0  0  0  0  0
   -8.6419  -12.3670   28.6017 C   0  0  0  0  0  0  0  0  0  0  0  0
   -0.5404  -23.0670   36.3796 H   0  0  0  0  0  0  0  0  0  0  0  0
   -2.7868  -22.2860   37.0157 H   0  0  0  0  0  0  0  0  0  0  0  0
   -8.5686  -10.4684   27.5727 H   0  0  0  0  0  0  0  0  0  0  0  0
    0.4167  -22.6347   32.8768 H   0  0  0  0  0  0  0  0  0  0  0  0
    1.6590  -21.3137   32.7589 H   0  0  0  0  0  0  0  0  0  0  0  0
   -0.0174  -19.5565   33.9418 H   0  0  0  0  0  0  0  0  0  0  0  0
    2.7600  -23.5434   34.1472 H   0  0  0  0  0  0  0  0  0  0  0  0
    2.0354  -24.0954   32.5990 H   0  0  0  0  0  0  0  0  0  0  0  0
    3.2621  -22.7833   32.5990 H   0  0  0  0  0  0  0  0  0  0  0  0
    1.9690  -21.7885   36.6167 H   0  0  0  0  0  0  0  0  0  0  0  0
    2.8237  -22.8571   35.4889 H   0  0  0  0  0  0  0  0  0  0  0  0
    3.5179  -20.2800   36.0794 H   0  0  0  0  0  0  0  0  0  0  0  0
    3.9806  -21.1557   34.5809 H   0  0  0  0  0  0  0  0  0  0  0  0
    2.5501  -20.0693   34.5809 H   0  0  0  0  0  0  0  0  0  0  0  0
   -4.5741  -20.4642   38.2483 H   0  0  0  0  0  0  0  0  0  0  0  0
   -5.8906  -20.4597   37.0262 H   0  0  0  0  0  0  0  0  0  0  0  0
   -4.6696  -21.7772   37.0262 H   0  0  0  0  0  0  0  0  0  0  0  0
   -5.7099  -18.1832   37.3366 H   0  0  0  0  0  0  0  0  0  0  0  0
   -5.2959  -16.8461   36.1416 H   0  0  0  0  0  0  0  0  0  0  0  0
   -7.6571  -18.2689   36.2475 H   0  0  0  0  0  0  0  0  0  0  0  0
   -6.7032  -19.0523   34.9100 H   0  0  0  0  0  0  0  0  0  0  0  0
   -8.0086  -14.0289   33.9915 H   0  0  0  0  0  0  0  0  0  0  0  0
   -5.6965  -14.5360   32.4378 H   0  0  0  0  0  0  0  0  0  0  0  0
   -5.8548  -15.8257   31.2472 H   0  0  0  0  0  0  0  0  0  0  0  0
   -7.1718  -13.1104   31.3352 H   0  0  0  0  0  0  0  0  0  0  0  0
   -6.7855  -14.0712   29.9174 H   0  0  0  0  0  0  0  0  0  0  0  0
   -8.7599  -16.7544   31.2502 H   0  0  0  0  0  0  0  0  0  0  0  0
   -9.6856  -15.8083   32.3881 H   0  0  0  0  0  0  0  0  0  0  0  0
  -10.5813   -9.8648   29.0485 H   0  0  0  0  0  0  0  0  0  0  0  0
   -7.8009  -12.9112   28.1471 H   0  0  0  0  0  0  0  0  0  0  0  0
  1  2  2  0
  1 11  1  0
  1 12  1  0
  2  3  1  0
  3 19  2  0
  4 21  1  0
  4 22  1  0
  4 26  1  0
  5 36  1  0
  5 37  1  0
  6 12  1  0
  6 13  1  0
  7  8  2  0
  8  9  1  0
  8 16  1  0
  9 10  1  0
 10 11  2  0
 10 19  1  0
 12 14  1  0
 14 15  1  0
 16 17  2  0
 16 20  1  0
 17 18  1  0
 17 19  1  0
 20 21  1  0
 22 23  2  0
 22 24  1  0
 25 24  1  1
 25 26  1  0
 25 28  1  0
 25 31  1  0
 26 27  2  0
 28 29  1  0
 29 30  1  0
 30 31  1  0
 30 32  1  0
 32 33  2  0
 32 34  1  0
 34 35  1  0
 34 37  2  0
 35 36  2  0
  2 38  1  0
  3 39  1  0
  5 40  1  0
  6 41  1  0
  6 42  1  0
 11 43  1  0
 13 44  1  0
 13 45  1  0
 13 46  1  0
 14 47  1  0
 14 48  1  0
 15 49  1  0
 15 50  1  0
 15 51  1  0
 18 52  1  0
 18 53  1  0
 18 54  1  0
 20 55  1  0
 20 56  1  0
 21 57  1  0
 21 58  1  0
 24 59  1  0
 28 60  1  0
 28 61  1  0
 29 62  1  0
 29 63  1  0
 31 64  1  0
 31 65  1  0
 36 66  1  0
 37 67  1  0
M  END
>  <filename_input>  (13) 
7LMO_NYO_docked.sdf

>  <pdb_id>  (13) 
7LMO_NYO

>  <pose_rank>  (13) 
12

>  <num_atoms_heavy>  (13) 
37

>  <num_torsions>  (13) 
7

>  <pose>  (13) 
[-6.839064744112171, -18.148541788247886, 35.52209548977888, 3.3731111673235534, -1.3263175632804596, -0.9510654320273538, 2.9667332107422535, 0.8524149770168765, -0.7216223198807153, -0.07762209556621781, 1.8749817433929354, -1.0856170386703758, -3.0419049775401947]

>  <energy>  (13) 
-535.0474995213809

>  <inter_energy>  (13) 
-569.4833919164183

>  <intra_energy>  (13) 
22.459177540730888

>  <rmsd>  (13) 
8.24581

>  <sdf_rank>  (13) 
0

$$$$

     RDKit          3D

 67 71  0  0  0  0  0  0  0  0999 V2000
   -6.5524  -19.2672   44.8804 C   0  0  0  0  0  0  0  0  0  0  0  0
   -7.3351  -18.3419   45.5569 C   0  0  0  0  0  0  0  0  0  0  0  0
   -8.3207  -17.6311   44.9007 C   0  0  0  0  0  0  0  0  0  0  0  0
   -9.7653  -15.9083   38.1614 N   0  0  0  0  0  0  0  0  0  0  0  0
  -11.1189  -18.2781   29.7308 N   0  0  0  0  0  0  0  0  0  0  0  0
   -5.5556  -20.1000   46.9989 C   0  0  0  0  0  0  0  0  0  0  0  0
   -8.9385  -18.6260   39.6221 O   0  0  0  0  0  0  0  0  0  0  0  0
   -8.8307  -18.2759   40.7777 C   0  0  0  0  0  0  0  0  0  0  0  0
   -7.8917  -18.9456   41.5373 O   0  0  0  0  0  0  0  0  0  0  0  0
   -7.7512  -18.7200   42.8762 C   0  0  0  0  0  0  0  0  0  0  0  0
   -6.7796  -19.4498   43.5158 C   0  0  0  0  0  0  0  0  0  0  0  0
   -5.6105  -20.0518   45.5596 N   0  0  0  0  0  0  0  0  0  0  0  0
   -5.1839  -21.4380   47.4993 C   0  0  0  0  0  0  0  0  0  0  0  0
   -4.7212  -20.9791   44.8327 C   0  0  0  0  0  0  0  0  0  0  0  0
   -3.3600  -20.5975   45.1823 C   0  0  0  0  0  0  0  0  0  0  0  0
   -9.6488  -17.2597   41.4339 C   0  0  0  0  0  0  0  0  0  0  0  0
   -9.5373  -17.0311   42.7761 C   0  0  0  0  0  0  0  0  0  0  0  0
  -10.3896  -16.0389   43.5059 C   0  0  0  0  0  0  0  0  0  0  0  0
   -8.5464  -17.7946   43.5391 C   0  0  0  0  0  0  0  0  0  0  0  0
  -10.4612  -16.3874   40.4989 C   0  0  0  0  0  0  0  0  0  0  0  0
   -9.6460  -15.5041   39.5624 C   0  0  0  0  0  0  0  0  0  0  0  0
   -8.6916  -15.9266   37.2530 C   0  0  0  0  0  0  0  0  0  0  0  0
   -7.5291  -15.6328   37.4954 O   0  0  0  0  0  0  0  0  0  0  0  0
   -9.1619  -16.3867   36.0967 N   0  0  0  0  0  0  0  0  0  0  0  0
  -10.5814  -16.7073   36.1338 C   0  0  2  0  0  0  0  0  0  0  0  0
  -10.9105  -16.4127   37.5774 C   0  0  0  0  0  0  0  0  0  0  0  0
  -11.9969  -16.5724   38.1083 O   0  0  0  0  0  0  0  0  0  0  0  0
  -10.8814  -18.1682   35.7424 C   0  0  0  0  0  0  0  0  0  0  0  0
  -11.0974  -18.1284   34.2426 C   0  0  0  0  0  0  0  0  0  0  0  0
  -11.4468  -16.7325   33.9786 N   0  0  0  0  0  0  0  0  0  0  0  0
  -11.4084  -15.8751   35.1529 C   0  0  0  0  0  0  0  0  0  0  0  0
  -11.7154  -16.1922   32.7899 C   0  0  0  0  0  0  0  0  0  0  0  0
  -12.0052  -14.9914   32.6880 O   0  0  0  0  0  0  0  0  0  0  0  0
  -11.5929  -17.0490   31.5708 C   0  0  0  0  0  0  0  0  0  0  0  0
  -12.7213  -17.7138   31.1512 N   0  0  0  0  0  0  0  0  0  0  0  0
  -12.3893  -18.4336   30.0566 C   0  0  0  0  0  0  0  0  0  0  0  0
  -10.6242  -17.4095   30.6698 C   0  0  0  0  0  0  0  0  0  0  0  0
   -7.1681  -18.1724   46.6309 H   0  0  0  0  0  0  0  0  0  0  0  0
   -8.9402  -16.9205   45.4676 H   0  0  0  0  0  0  0  0  0  0  0  0
  -10.6125  -18.7124   28.9461 H   0  0  0  0  0  0  0  0  0  0  0  0
   -4.8099  -19.3712   47.3494 H   0  0  0  0  0  0  0  0  0  0  0  0
   -6.5589  -19.8632   47.3828 H   0  0  0  0  0  0  0  0  0  0  0  0
   -6.1798  -20.1792   42.9518 H   0  0  0  0  0  0  0  0  0  0  0  0
   -5.1856  -21.4316   48.5993 H   0  0  0  0  0  0  0  0  0  0  0  0
   -5.9099  -22.1801   47.1358 H   0  0  0  0  0  0  0  0  0  0  0  0
   -4.1791  -21.6993   47.1358 H   0  0  0  0  0  0  0  0  0  0  0  0
   -4.9174  -22.0163   45.1421 H   0  0  0  0  0  0  0  0  0  0  0  0
   -4.8861  -20.9227   43.7466 H   0  0  0  0  0  0  0  0  0  0  0  0
   -3.2570  -20.5686   46.2771 H   0  0  0  0  0  0  0  0  0  0  0  0
   -2.6549  -21.3326   44.7669 H   0  0  0  0  0  0  0  0  0  0  0  0
   -3.1398  -19.6030   44.7669 H   0  0  0  0  0  0  0  0  0  0  0  0
  -10.2690  -16.1793   44.5902 H   0  0  0  0  0  0  0  0  0  0  0  0
  -10.0817  -15.0191   43.2317 H   0  0  0  0  0  0  0  0  0  0  0  0
  -11.4442  -16.1896   43.2317 H   0  0  0  0  0  0  0  0  0  0  0  0
  -11.0924  -17.0448   39.8829 H   0  0  0  0  0  0  0  0  0  0  0  0
  -11.0347  -15.7031   41.1414 H   0  0  0  0  0  0  0  0  0  0  0  0
   -8.5876  -15.5613   39.8566 H   0  0  0  0  0  0  0  0  0  0  0  0
  -10.0360  -14.4791   39.6477 H   0  0  0  0  0  0  0  0  0  0  0  0
   -8.5781  -16.5047   35.2564 H   0  0  0  0  0  0  0  0  0  0  0  0
  -10.0317  -18.8196   35.9948 H   0  0  0  0  0  0  0  0  0  0  0  0
  -11.7535  -18.5717   36.2779 H   0  0  0  0  0  0  0  0  0  0  0  0
  -10.1793  -18.4109   33.7066 H   0  0  0  0  0  0  0  0  0  0  0  0
  -11.8721  -18.8325   33.9050 H   0  0  0  0  0  0  0  0  0  0  0  0
  -12.4197  -15.6875   35.5430 H   0  0  0  0  0  0  0  0  0  0  0  0
  -10.9888  -14.8773   34.9574 H   0  0  0  0  0  0  0  0  0  0  0  0
  -13.0931  -19.0726   29.5032 H   0  0  0  0  0  0  0  0  0  0  0  0
   -9.5853  -17.0490   30.6966 H   0  0  0  0  0  0  0  0  0  0  0  0
  1  2  2  0
  1 11  1  0
  1 12  1  0
  2  3  1  0
  3 19  2  0
  4 21  1  0
  4 22  1  0
  4 26  1  0
  5 36  1  0
  5 37  1  0
  6 12  1  0
  6 13  1  0
  7  8  2  0
  8  9  1  0
  8 16  1  0
  9 10  1  0
 10 11  2  0
 10 19  1  0
 12 14  1  0
 14 15  1  0
 16 17  2  0
 16 20  1  0
 17 18  1  0
 17 19  1  0
 20 21  1  0
 22 23  2  0
 22 24  1  0
 25 24  1  1
 25 26  1  0
 25 28  1  0
 25 31  1  0
 26 27  2  0
 28 29  1  0
 29 30  1  0
 30 31  1  0
 30 32  1  0
 32 33  2  0
 32 34  1  0
 34 35  1  0
 34 37  2  0
 35 36  2  0
  2 38  1  0
  3 39  1  0
  5 40  1  0
  6 41  1  0
  6 42  1  0
 11 43  1  0
 13 44  1  0
 13 45  1  0
 13 46  1  0
 14 47  1  0
 14 48  1  0
 15 49  1  0
 15 50  1  0
 15 51  1  0
 18 52  1  0
 18 53  1  0
 18 54  1  0
 20 55  1  0
 20 56  1  0
 21 57  1  0
 21 58  1  0
 24 59  1  0
 28 60  1  0
 28 61  1  0
 29 62  1  0
 29 63  1  0
 31 64  1  0
 31 65  1  0
 36 66  1  0
 37 67  1  0
M  END
>  <filename_input>  (14) 
7LMO_NYO_docked.sdf

>  <pdb_id>  (14) 
7LMO_NYO

>  <pose_rank>  (14) 
13

>  <num_atoms_heavy>  (14) 
37

>  <num_torsions>  (14) 
7

>  <pose>  (14) 
[-9.645958117449718, -15.504087923781327, 39.562372354666785, 0.8459474102671222, 3.093614572835241, -0.3268780442311995, 1.7195846962778236, -1.6001378369447306, 3.0431354457022763, 3.4217843243163384, 0.08413150114485966, 4.136689503712945, 0.9121423436558309]

>  <energy>  (14) 
-364.69066292452897

>  <inter_energy>  (14) 
-399.34592341488644

>  <intra_energy>  (14) 
42.2668508705378

>  <rmsd>  (14) 
9.6395

>  <sdf_rank>  (14) 
0

$$$$

     RDKit          3D

 67 71  0  0  0  0  0  0  0  0999 V2000
  -10.4736  -17.3331   44.1960 C   0  0  0  0  0  0  0  0  0  0  0  0
   -9.5546  -18.3643   44.3329 C   0  0  0  0  0  0  0  0  0  0  0  0
   -8.5318  -18.5294   43.4197 C   0  0  0  0  0  0  0  0  0  0  0  0
   -6.8676  -17.5406   36.5682 N   0  0  0  0  0  0  0  0  0  0  0  0
   -6.3632  -13.7884   28.4283 N   0  0  0  0  0  0  0  0  0  0  0  0
  -11.4960  -17.8533   46.4004 C   0  0  0  0  0  0  0  0  0  0  0  0
   -8.3214  -14.9975   39.3311 O   0  0  0  0  0  0  0  0  0  0  0  0
   -8.3251  -15.8812   40.1609 C   0  0  0  0  0  0  0  0  0  0  0  0
   -9.2914  -15.7965   41.1440 O   0  0  0  0  0  0  0  0  0  0  0  0
   -9.3317  -16.6673   42.1945 C   0  0  0  0  0  0  0  0  0  0  0  0
  -10.3437  -16.4758   43.1027 C   0  0  0  0  0  0  0  0  0  0  0  0
  -11.4602  -17.1103   45.1661 N   0  0  0  0  0  0  0  0  0  0  0  0
  -10.9711  -17.0726   47.5379 C   0  0  0  0  0  0  0  0  0  0  0  0
  -12.4269  -16.0026   45.0330 C   0  0  0  0  0  0  0  0  0  0  0  0
  -13.7506  -16.6034   45.1194 C   0  0  0  0  0  0  0  0  0  0  0  0
   -7.3618  -16.9762   40.2355 C   0  0  0  0  0  0  0  0  0  0  0  0
   -7.3729  -17.8475   41.2876 C   0  0  0  0  0  0  0  0  0  0  0  0
   -6.3743  -18.9537   41.4382 C   0  0  0  0  0  0  0  0  0  0  0  0
   -8.4011  -17.6902   42.3195 C   0  0  0  0  0  0  0  0  0  0  0  0
   -6.5077  -17.1651   38.9986 C   0  0  0  0  0  0  0  0  0  0  0  0
   -7.1173  -18.0488   37.9172 C   0  0  0  0  0  0  0  0  0  0  0  0
   -5.6774  -17.7608   35.8516 C   0  0  0  0  0  0  0  0  0  0  0  0
   -4.7091  -18.4050   36.2308 O   0  0  0  0  0  0  0  0  0  0  0  0
   -5.8261  -17.1936   34.6575 N   0  0  0  0  0  0  0  0  0  0  0  0
   -7.1178  -16.5464   34.4790 C   0  0  2  0  0  0  0  0  0  0  0  0
   -7.7914  -16.8705   35.7907 C   0  0  0  0  0  0  0  0  0  0  0  0
   -8.9316  -16.5684   36.1008 O   0  0  0  0  0  0  0  0  0  0  0  0
   -7.8989  -17.0817   33.2621 C   0  0  0  0  0  0  0  0  0  0  0  0
   -7.4774  -16.1896   32.1114 C   0  0  0  0  0  0  0  0  0  0  0  0
   -6.9913  -14.9776   32.7710 N   0  0  0  0  0  0  0  0  0  0  0  0
   -7.0035  -15.0430   34.2240 C   0  0  0  0  0  0  0  0  0  0  0  0
   -6.4932  -13.8943   32.1749 C   0  0  0  0  0  0  0  0  0  0  0  0
   -6.1144  -12.9197   32.8405 O   0  0  0  0  0  0  0  0  0  0  0  0
   -6.3360  -13.9047   30.6882 C   0  0  0  0  0  0  0  0  0  0  0  0
   -5.1460  -14.3740   30.1830 N   0  0  0  0  0  0  0  0  0  0  0  0
   -5.2082  -14.2822   28.8362 C   0  0  0  0  0  0  0  0  0  0  0  0
   -7.0690  -13.5599   29.5818 C   0  0  0  0  0  0  0  0  0  0  0  0
   -9.6421  -19.0597   45.1807 H   0  0  0  0  0  0  0  0  0  0  0  0
   -7.8052  -19.3423   43.5661 H   0  0  0  0  0  0  0  0  0  0  0  0
   -6.6664  -13.6137   27.4596 H   0  0  0  0  0  0  0  0  0  0  0  0
  -12.5378  -18.1341   46.6145 H   0  0  0  0  0  0  0  0  0  0  0  0
  -10.8585  -18.7413   46.2781 H   0  0  0  0  0  0  0  0  0  0  0  0
  -11.0528  -15.6457   42.9683 H   0  0  0  0  0  0  0  0  0  0  0  0
  -11.2867  -17.5419   48.4814 H   0  0  0  0  0  0  0  0  0  0  0  0
   -9.8724  -17.0483   47.4900 H   0  0  0  0  0  0  0  0  0  0  0  0
  -11.3631  -16.0460   47.4900 H   0  0  0  0  0  0  0  0  0  0  0  0
  -12.2855  -15.2739   45.8448 H   0  0  0  0  0  0  0  0  0  0  0  0
  -12.2923  -15.4663   44.0821 H   0  0  0  0  0  0  0  0  0  0  0  0
  -14.0278  -16.7292   46.1765 H   0  0  0  0  0  0  0  0  0  0  0  0
  -14.4831  -15.9496   44.6236 H   0  0  0  0  0  0  0  0  0  0  0  0
  -13.7407  -17.5852   44.6236 H   0  0  0  0  0  0  0  0  0  0  0  0
   -6.1998  -19.1471   42.5070 H   0  0  0  0  0  0  0  0  0  0  0  0
   -6.7616  -19.8651   40.9592 H   0  0  0  0  0  0  0  0  0  0  0  0
   -5.4282  -18.6614   40.9592 H   0  0  0  0  0  0  0  0  0  0  0  0
   -6.3185  -16.1737   38.5612 H   0  0  0  0  0  0  0  0  0  0  0  0
   -5.5949  -17.6792   39.3339 H   0  0  0  0  0  0  0  0  0  0  0  0
   -8.2041  -18.1029   38.0777 H   0  0  0  0  0  0  0  0  0  0  0  0
   -6.6461  -19.0399   37.9922 H   0  0  0  0  0  0  0  0  0  0  0  0
   -5.0977  -17.2106   33.9295 H   0  0  0  0  0  0  0  0  0  0  0  0
   -7.6308  -18.1290   33.0593 H   0  0  0  0  0  0  0  0  0  0  0  0
   -8.9865  -17.0643   33.4254 H   0  0  0  0  0  0  0  0  0  0  0  0
   -6.6784  -16.6621   31.5212 H   0  0  0  0  0  0  0  0  0  0  0  0
   -8.2965  -15.9905   31.4046 H   0  0  0  0  0  0  0  0  0  0  0  0
   -7.8655  -14.5012   34.6404 H   0  0  0  0  0  0  0  0  0  0  0  0
   -6.1227  -14.5812   34.6941 H   0  0  0  0  0  0  0  0  0  0  0  0
   -4.3940  -14.5828   28.1603 H   0  0  0  0  0  0  0  0  0  0  0  0
   -8.0904  -13.1530   29.6151 H   0  0  0  0  0  0  0  0  0  0  0  0
  1  2  2  0
  1 11  1  0
  1 12  1  0
  2  3  1  0
  3 19  2  0
  4 21  1  0
  4 22  1  0
  4 26  1  0
  5 36  1  0
  5 37  1  0
  6 12  1  0
  6 13  1  0
  7  8  2  0
  8  9  1  0
  8 16  1  0
  9 10  1  0
 10 11  2  0
 10 19  1  0
 12 14  1  0
 14 15  1  0
 16 17  2  0
 16 20  1  0
 17 18  1  0
 17 19  1  0
 20 21  1  0
 22 23  2  0
 22 24  1  0
 25 24  1  1
 25 26  1  0
 25 28  1  0
 25 31  1  0
 26 27  2  0
 28 29  1  0
 29 30  1  0
 30 31  1  0
 30 32  1  0
 32 33  2  0
 32 34  1  0
 34 35  1  0
 34 37  2  0
 35 36  2  0
  2 38  1  0
  3 39  1  0
  5 40  1  0
  6 41  1  0
  6 42  1  0
 11 43  1  0
 13 44  1  0
 13 45  1  0
 13 46  1  0
 14 47  1  0
 14 48  1  0
 15 49  1  0
 15 50  1  0
 15 51  1  0
 18 52  1  0
 18 53  1  0
 18 54  1  0
 20 55  1  0
 20 56  1  0
 21 57  1  0
 21 58  1  0
 24 59  1  0
 28 60  1  0
 28 61  1  0
 29 62  1  0
 29 63  1  0
 31 64  1  0
 31 65  1  0
 36 66  1  0
 37 67  1  0
M  END
>  <filename_input>  (15) 
7LMO_NYO_docked.sdf

>  <pdb_id>  (15) 
7LMO_NYO

>  <pose_rank>  (15) 
14

>  <num_atoms_heavy>  (15) 
37

>  <num_torsions>  (15) 
7

>  <pose>  (15) 
[-7.117264364405858, -18.04876106486371, 37.91715985427488, 3.346798866045954, -0.7417826321700799, 0.30521655692770977, -0.6895889285765053, 1.5248439802910319, 3.537141445875694, 3.032303112204006, 0.004885184172847376, -2.886069860333041, 0.9379682403472118]

>  <energy>  (15) 
-423.4186311203814

>  <inter_energy>  (15) 
-429.92639531560314

>  <intra_energy>  (15) 
2.154280443517512

>  <rmsd>  (15) 
10.9322

>  <sdf_rank>  (15) 
0

$$$$

     RDKit          3D

 67 71  0  0  0  0  0  0  0  0999 V2000
   -7.7859  -10.5904   31.1234 C   0  0  0  0  0  0  0  0  0  0  0  0
   -6.9376  -10.2343   32.1629 C   0  0  0  0  0  0  0  0  0  0  0  0
   -6.4639  -11.1821   33.0487 C   0  0  0  0  0  0  0  0  0  0  0  0
   -5.4178  -17.9928   34.1571 N   0  0  0  0  0  0  0  0  0  0  0  0
    2.5981  -21.8644   35.3695 N   0  0  0  0  0  0  0  0  0  0  0  0
   -7.2749   -8.7269   29.5607 C   0  0  0  0  0  0  0  0  0  0  0  0
   -8.0887  -16.2791   32.2642 O   0  0  0  0  0  0  0  0  0  0  0  0
   -7.7290  -15.1628   32.5710 C   0  0  0  0  0  0  0  0  0  0  0  0
   -8.1224  -14.1385   31.7322 O   0  0  0  0  0  0  0  0  0  0  0  0
   -7.6918  -12.8552   31.9078 C   0  0  0  0  0  0  0  0  0  0  0  0
   -8.1576  -11.9302   31.0061 C   0  0  0  0  0  0  0  0  0  0  0  0
   -8.1995   -9.6477   30.1725 N   0  0  0  0  0  0  0  0  0  0  0  0
   -6.1932   -9.4211   28.8349 C   0  0  0  0  0  0  0  0  0  0  0  0
   -9.5783   -9.6482   29.6451 C   0  0  0  0  0  0  0  0  0  0  0  0
   -9.4608   -9.7230   28.1955 C   0  0  0  0  0  0  0  0  0  0  0  0
   -6.8724  -14.8318   33.7065 C   0  0  0  0  0  0  0  0  0  0  0  0
   -6.4153  -13.5576   33.8901 C   0  0  0  0  0  0  0  0  0  0  0  0
   -5.4923  -13.1776   35.0069 C   0  0  0  0  0  0  0  0  0  0  0  0
   -6.8386  -12.5168   32.9497 C   0  0  0  0  0  0  0  0  0  0  0  0
   -6.6994  -15.9402   34.7246 C   0  0  0  0  0  0  0  0  0  0  0  0
   -6.7340  -17.3542   34.1574 C   0  0  0  0  0  0  0  0  0  0  0  0
   -4.8013  -18.5255   33.0105 C   0  0  0  0  0  0  0  0  0  0  0  0
   -5.2522  -18.5194   31.8734 O   0  0  0  0  0  0  0  0  0  0  0  0
   -3.6065  -18.9787   33.3804 N   0  0  0  0  0  0  0  0  0  0  0  0
   -3.3283  -18.7929   34.7971 C   0  0  2  0  0  0  0  0  0  0  0  0
   -4.5740  -18.0687   35.2477 C   0  0  0  0  0  0  0  0  0  0  0  0
   -4.7908  -17.6556   36.3746 O   0  0  0  0  0  0  0  0  0  0  0  0
   -2.0428  -17.9828   35.0593 C   0  0  0  0  0  0  0  0  0  0  0  0
   -0.9437  -19.0229   35.1481 C   0  0  0  0  0  0  0  0  0  0  0  0
   -1.6580  -20.2564   35.4775 N   0  0  0  0  0  0  0  0  0  0  0  0
   -3.1038  -20.1103   35.5405 C   0  0  0  0  0  0  0  0  0  0  0  0
   -1.1205  -21.4646   35.6462 C   0  0  0  0  0  0  0  0  0  0  0  0
   -1.8286  -22.4416   35.9294 O   0  0  0  0  0  0  0  0  0  0  0  0
    0.3477  -21.6321   35.4191 C   0  0  0  0  0  0  0  0  0  0  0  0
    0.7634  -21.8690   34.1297 N   0  0  0  0  0  0  0  0  0  0  0  0
    2.1079  -22.0034   34.1510 C   0  0  0  0  0  0  0  0  0  0  0  0
    1.5022  -21.6258   36.1587 C   0  0  0  0  0  0  0  0  0  0  0  0
   -6.6386   -9.1826   32.2827 H   0  0  0  0  0  0  0  0  0  0  0  0
   -5.7755  -10.8741   33.8495 H   0  0  0  0  0  0  0  0  0  0  0  0
    3.5840  -21.9224   35.6619 H   0  0  0  0  0  0  0  0  0  0  0  0
   -7.8254   -8.0909   28.8520 H   0  0  0  0  0  0  0  0  0  0  0  0
   -6.8144   -8.1296   30.3614 H   0  0  0  0  0  0  0  0  0  0  0  0
   -8.8245  -12.2458   30.1903 H   0  0  0  0  0  0  0  0  0  0  0  0
   -5.4952   -9.8689   29.5576 H   0  0  0  0  0  0  0  0  0  0  0  0
   -6.6241  -10.2117   28.2030 H   0  0  0  0  0  0  0  0  0  0  0  0
   -5.6540   -8.6999   28.2030 H   0  0  0  0  0  0  0  0  0  0  0  0
  -10.1323  -10.5180   30.0278 H   0  0  0  0  0  0  0  0  0  0  0  0
  -10.1259   -8.7462   29.9560 H   0  0  0  0  0  0  0  0  0  0  0  0
   -8.5605  -10.2965   27.9297 H   0  0  0  0  0  0  0  0  0  0  0  0
  -10.3491  -10.2221   27.7809 H   0  0  0  0  0  0  0  0  0  0  0  0
   -9.3841   -8.7070   27.7809 H   0  0  0  0  0  0  0  0  0  0  0  0
   -5.9814  -13.3790   35.9714 H   0  0  0  0  0  0  0  0  0  0  0  0
   -4.5669  -13.7679   34.9348 H   0  0  0  0  0  0  0  0  0  0  0  0
   -5.2508  -12.1069   34.9348 H   0  0  0  0  0  0  0  0  0  0  0  0
   -5.7288  -15.7968   35.2219 H   0  0  0  0  0  0  0  0  0  0  0  0
   -7.5588  -15.8643   35.4070 H   0  0  0  0  0  0  0  0  0  0  0  0
   -7.1041  -17.3097   33.1225 H   0  0  0  0  0  0  0  0  0  0  0  0
   -7.3953  -17.9545   34.7995 H   0  0  0  0  0  0  0  0  0  0  0  0
   -2.9425  -19.4187   32.7275 H   0  0  0  0  0  0  0  0  0  0  0  0
   -1.8494  -17.2837   34.2324 H   0  0  0  0  0  0  0  0  0  0  0  0
   -2.1139  -17.3736   35.9724 H   0  0  0  0  0  0  0  0  0  0  0  0
   -0.4168  -19.1196   34.1873 H   0  0  0  0  0  0  0  0  0  0  0  0
   -0.1730  -18.7659   35.8898 H   0  0  0  0  0  0  0  0  0  0  0  0
   -3.4531  -20.0453   36.5816 H   0  0  0  0  0  0  0  0  0  0  0  0
   -3.6526  -20.9600   35.1085 H   0  0  0  0  0  0  0  0  0  0  0  0
    2.7208  -22.2044   33.2600 H   0  0  0  0  0  0  0  0  0  0  0  0
    1.5440  -21.4518   37.2440 H   0  0  0  0  0  0  0  0  0  0  0  0
  1  2  2  0
  1 11  1  0
  1 12  1  0
  2  3  1  0
  3 19  2  0
  4 21  1  0
  4 22  1  0
  4 26  1  0
  5 36  1  0
  5 37  1  0
  6 12  1  0
  6 13  1  0
  7  8  2  0
  8  9  1  0
  8 16  1  0
  9 10  1  0
 10 11  2  0
 10 19  1  0
 12 14  1  0
 14 15  1  0
 16 17  2  0
 16 20  1  0
 17 18  1  0
 17 19  1  0
 20 21  1  0
 22 23  2  0
 22 24  1  0
 25 24  1  6
 25 26  1  0
 25 28  1  0
 25 31  1  0
 26 27  2  0
 28 29  1  0
 29 30  1  0
 30 31  1  0
 30 32  1  0
 32 33  2  0
 32 34  1  0
 34 35  1  0
 34 37  2  0
 35 36  2  0
  2 38  1  0
  3 39  1  0
  5 40  1  0
  6 41  1  0
  6 42  1  0
 11 43  1  0
 13 44  1  0
 13 45  1  0
 13 46  1  0
 14 47  1  0
 14 48  1  0
 15 49  1  0
 15 50  1  0
 15 51  1  0
 18 52  1  0
 18 53  1  0
 18 54  1  0
 20 55  1  0
 20 56  1  0
 21 57  1  0
 21 58  1  0
 24 59  1  0
 28 60  1  0
 28 61  1  0
 29 62  1  0
 29 63  1  0
 31 64  1  0
 31 65  1  0
 36 66  1  0
 37 67  1  0
M  END
>  <filename_input>  (16) 
7LMO_NYO_docked.sdf

>  <pdb_id>  (16) 
7LMO_NYO

>  <pose_rank>  (16) 
15

>  <num_atoms_heavy>  (16) 
37

>  <num_torsions>  (16) 
7

>  <pose>  (16) 
[-6.733970407107851, -17.354165671156213, 34.157412848914, -2.101554149747564, 0.8970681913378474, -2.440070425112192, 1.9888680710704862, 1.5900931861312515, 2.974629612763502, -1.1744863096476077, 0.6973328263545512, 2.650242323338371, 2.8576726873804783]

>  <energy>  (16) 
-489.41872737676124

>  <inter_energy>  (16) 
-536.1773391417053

>  <intra_energy>  (16) 
51.877713997332755

>  <rmsd>  (16) 
10.4685

>  <sdf_rank>  (16) 
0

$$$$

     RDKit          3D

 67 71  0  0  0  0  0  0  0  0999 V2000
   -4.4366  -19.7768   46.0024 C   0  0  0  0  0  0  0  0  0  0  0  0
   -5.7137  -19.5483   46.4961 C   0  0  0  0  0  0  0  0  0  0  0  0
   -6.7742  -19.3179   45.6420 C   0  0  0  0  0  0  0  0  0  0  0  0
   -7.7894  -16.8822   39.0504 N   0  0  0  0  0  0  0  0  0  0  0  0
   -4.8055  -15.9255   30.6426 N   0  0  0  0  0  0  0  0  0  0  0  0
   -2.9996  -21.4602   47.1321 C   0  0  0  0  0  0  0  0  0  0  0  0
   -5.6864  -19.3370   40.3456 O   0  0  0  0  0  0  0  0  0  0  0  0
   -6.0193  -19.2365   41.5070 C   0  0  0  0  0  0  0  0  0  0  0  0
   -5.0395  -19.4784   42.4498 O   0  0  0  0  0  0  0  0  0  0  0  0
   -5.3141  -19.5041   43.7867 C   0  0  0  0  0  0  0  0  0  0  0  0
   -4.2512  -19.7539   44.6196 C   0  0  0  0  0  0  0  0  0  0  0  0
   -3.3758  -20.0958   46.8609 N   0  0  0  0  0  0  0  0  0  0  0  0
   -2.7867  -22.2374   45.8954 C   0  0  0  0  0  0  0  0  0  0  0  0
   -2.5001  -19.0455   47.4170 C   0  0  0  0  0  0  0  0  0  0  0  0
   -1.2779  -19.0719   46.6256 C   0  0  0  0  0  0  0  0  0  0  0  0
   -7.3707  -18.9460   41.9779 C   0  0  0  0  0  0  0  0  0  0  0  0
   -7.6710  -18.9847   43.3100 C   0  0  0  0  0  0  0  0  0  0  0  0
   -9.0517  -18.7473   43.8398 C   0  0  0  0  0  0  0  0  0  0  0  0
   -6.5984  -19.2790   44.2638 C   0  0  0  0  0  0  0  0  0  0  0  0
   -8.3236  -18.4334   40.9175 C   0  0  0  0  0  0  0  0  0  0  0  0
   -8.0916  -16.9930   40.4775 C   0  0  0  0  0  0  0  0  0  0  0  0
   -8.6785  -17.2546   38.0260 C   0  0  0  0  0  0  0  0  0  0  0  0
   -9.8096  -17.6974   38.1704 O   0  0  0  0  0  0  0  0  0  0  0  0
   -8.0855  -16.9739   36.8687 N   0  0  0  0  0  0  0  0  0  0  0  0
   -6.7570  -16.3989   37.0216 C   0  0  2  0  0  0  0  0  0  0  0  0
   -6.6461  -16.3134   38.5248 C   0  0  0  0  0  0  0  0  0  0  0  0
   -5.7047  -15.8483   39.1453 O   0  0  0  0  0  0  0  0  0  0  0  0
   -6.6104  -15.0255   36.3362 C   0  0  0  0  0  0  0  0  0  0  0  0
   -6.1317  -15.3442   34.9337 C   0  0  0  0  0  0  0  0  0  0  0  0
   -5.5408  -16.6763   35.0624 N   0  0  0  0  0  0  0  0  0  0  0  0
   -5.6582  -17.2556   36.3914 C   0  0  0  0  0  0  0  0  0  0  0  0
   -4.9920  -17.3994   34.0861 C   0  0  0  0  0  0  0  0  0  0  0  0
   -4.5162  -18.5206   34.3157 O   0  0  0  0  0  0  0  0  0  0  0  0
   -5.0235  -16.8596   32.6922 C   0  0  0  0  0  0  0  0  0  0  0  0
   -6.0904  -17.2169   31.9014 N   0  0  0  0  0  0  0  0  0  0  0  0
   -5.9149  -16.6404   30.6918 C   0  0  0  0  0  0  0  0  0  0  0  0
   -4.2536  -16.0559   31.8913 C   0  0  0  0  0  0  0  0  0  0  0  0
   -5.8834  -19.5508   47.5830 H   0  0  0  0  0  0  0  0  0  0  0  0
   -7.7791  -19.1619   46.0612 H   0  0  0  0  0  0  0  0  0  0  0  0
   -4.4369  -15.3893   29.8441 H   0  0  0  0  0  0  0  0  0  0  0  0
   -2.0671  -21.4610   47.7157 H   0  0  0  0  0  0  0  0  0  0  0  0
   -3.8219  -21.9323   47.6897 H   0  0  0  0  0  0  0  0  0  0  0  0
   -3.2525  -19.9362   44.1962 H   0  0  0  0  0  0  0  0  0  0  0  0
   -2.5043  -23.2685   46.1544 H   0  0  0  0  0  0  0  0  0  0  0  0
   -3.7148  -22.2487   45.3051 H   0  0  0  0  0  0  0  0  0  0  0  0
   -1.9823  -21.7742   45.3051 H   0  0  0  0  0  0  0  0  0  0  0  0
   -2.9857  -18.0619   47.3353 H   0  0  0  0  0  0  0  0  0  0  0  0
   -2.2907  -19.2219   48.4824 H   0  0  0  0  0  0  0  0  0  0  0  0
   -0.4067  -19.0907   47.2969 H   0  0  0  0  0  0  0  0  0  0  0  0
   -1.2713  -19.9704   45.9910 H   0  0  0  0  0  0  0  0  0  0  0  0
   -1.2325  -18.1745   45.9910 H   0  0  0  0  0  0  0  0  0  0  0  0
   -9.0282  -18.7513   44.9396 H   0  0  0  0  0  0  0  0  0  0  0  0
   -9.4183  -17.7729   43.4845 H   0  0  0  0  0  0  0  0  0  0  0  0
   -9.7227  -19.5432   43.4845 H   0  0  0  0  0  0  0  0  0  0  0  0
   -8.2268  -19.0793   40.0323 H   0  0  0  0  0  0  0  0  0  0  0  0
   -9.3255  -18.4562   41.3710 H   0  0  0  0  0  0  0  0  0  0  0  0
   -7.2469  -16.5817   41.0495 H   0  0  0  0  0  0  0  0  0  0  0  0
   -9.0199  -16.4337   40.6658 H   0  0  0  0  0  0  0  0  0  0  0  0
   -8.5241  -17.1466   35.9529 H   0  0  0  0  0  0  0  0  0  0  0  0
   -7.5772  -14.5017   36.3064 H   0  0  0  0  0  0  0  0  0  0  0  0
   -5.9142  -14.3646   36.8734 H   0  0  0  0  0  0  0  0  0  0  0  0
   -6.9731  -15.3552   34.2253 H   0  0  0  0  0  0  0  0  0  0  0  0
   -5.4215  -14.5988   34.5464 H   0  0  0  0  0  0  0  0  0  0  0  0
   -4.7144  -17.1676   36.9495 H   0  0  0  0  0  0  0  0  0  0  0  0
   -5.8863  -18.3317   36.3853 H   0  0  0  0  0  0  0  0  0  0  0  0
   -6.6126  -16.7531   29.8489 H   0  0  0  0  0  0  0  0  0  0  0  0
   -3.3153  -15.5778   32.2090 H   0  0  0  0  0  0  0  0  0  0  0  0
  1  2  2  0
  1 11  1  0
  1 12  1  0
  2  3  1  0
  3 19  2  0
  4 21  1  0
  4 22  1  0
  4 26  1  0
  5 36  1  0
  5 37  1  0
  6 12  1  0
  6 13  1  0
  7  8  2  0
  8  9  1  0
  8 16  1  0
  9 10  1  0
 10 11  2  0
 10 19  1  0
 12 14  1  0
 14 15  1  0
 16 17  2  0
 16 20  1  0
 17 18  1  0
 17 19  1  0
 20 21  1  0
 22 23  2  0
 22 24  1  0
 25 24  1  1
 25 26  1  0
 25 28  1  0
 25 31  1  0
 26 27  2  0
 28 29  1  0
 29 30  1  0
 30 31  1  0
 30 32  1  0
 32 33  2  0
 32 34  1  0
 34 35  1  0
 34 37  2  0
 35 36  2  0
  2 38  1  0
  3 39  1  0
  5 40  1  0
  6 41  1  0
  6 42  1  0
 11 43  1  0
 13 44  1  0
 13 45  1  0
 13 46  1  0
 14 47  1  0
 14 48  1  0
 15 49  1  0
 15 50  1  0
 15 51  1  0
 18 52  1  0
 18 53  1  0
 18 54  1  0
 20 55  1  0
 20 56  1  0
 21 57  1  0
 21 58  1  0
 24 59  1  0
 28 60  1  0
 28 61  1  0
 29 62  1  0
 29 63  1  0
 31 64  1  0
 31 65  1  0
 36 66  1  0
 37 67  1  0
M  END
>  <filename_input>  (17) 
7LMO_NYO_docked.sdf

>  <pdb_id>  (17) 
7LMO_NYO

>  <pose_rank>  (17) 
16

>  <num_atoms_heavy>  (17) 
37

>  <num_torsions>  (17) 
7

>  <pose>  (17) 
[-8.091648788288143, -16.993030598871847, 40.477499055695596, 0.11968823460881453, -3.244806640178187, -0.215774288833971, 5.2491417585894355, 1.4832127342686916, -3.1032330976879923, 3.256337918087503, 1.5535384384713313, -3.7643818282745043, 3.2720973326154486]

>  <energy>  (17) 
-539.3926678597743

>  <inter_energy>  (17) 
-549.6060293021677

>  <intra_energy>  (17) 
22.2392074345859

>  <rmsd>  (17) 
9.057

>  <sdf_rank>  (17) 
0

$$$$

     RDKit          3D

 67 71  0  0  0  0  0  0  0  0999 V2000
   -5.5263  -14.6326   32.5334 C   0  0  0  0  0  0  0  0  0  0  0  0
   -6.6833  -14.1953   33.1634 C   0  0  0  0  0  0  0  0  0  0  0  0
   -7.1804  -14.8533   34.2712 C   0  0  0  0  0  0  0  0  0  0  0  0
   -7.2897  -18.5254   39.7348 N   0  0  0  0  0  0  0  0  0  0  0  0
  -12.7796  -16.5990   46.3950 N   0  0  0  0  0  0  0  0  0  0  0  0
   -4.9317  -12.4777   31.4479 C   0  0  0  0  0  0  0  0  0  0  0  0
   -4.4187  -19.1758   35.9811 O   0  0  0  0  0  0  0  0  0  0  0  0
   -5.1485  -18.2720   35.6347 C   0  0  0  0  0  0  0  0  0  0  0  0
   -4.7297  -17.5254   34.5509 O   0  0  0  0  0  0  0  0  0  0  0  0
   -5.4064  -16.4161   34.1329 C   0  0  0  0  0  0  0  0  0  0  0  0
   -4.8866  -15.7636   33.0421 C   0  0  0  0  0  0  0  0  0  0  0  0
   -4.9717  -13.9182   31.4628 N   0  0  0  0  0  0  0  0  0  0  0  0
   -3.7921  -11.9424   32.2183 C   0  0  0  0  0  0  0  0  0  0  0  0
   -4.2714  -14.6104   30.3630 C   0  0  0  0  0  0  0  0  0  0  0  0
   -5.2539  -14.7914   29.3034 C   0  0  0  0  0  0  0  0  0  0  0  0
   -6.3854  -17.8790   36.3043 C   0  0  0  0  0  0  0  0  0  0  0  0
   -7.0680  -16.7620   35.9138 C   0  0  0  0  0  0  0  0  0  0  0  0
   -8.3111  -16.2865   36.6011 C   0  0  0  0  0  0  0  0  0  0  0  0
   -6.5594  -15.9888   34.7778 C   0  0  0  0  0  0  0  0  0  0  0  0
   -6.9219  -18.8839   37.3030 C   0  0  0  0  0  0  0  0  0  0  0  0
   -6.3028  -18.8115   38.6935 C   0  0  0  0  0  0  0  0  0  0  0  0
   -8.6790  -18.4977   39.5166 C   0  0  0  0  0  0  0  0  0  0  0  0
   -9.2535  -18.7190   38.4596 O   0  0  0  0  0  0  0  0  0  0  0  0
   -9.2569  -18.2511   40.6893 N   0  0  0  0  0  0  0  0  0  0  0  0
   -8.3081  -18.0891   41.7813 C   0  0  2  0  0  0  0  0  0  0  0  0
   -6.9997  -18.3442   41.0727 C   0  0  0  0  0  0  0  0  0  0  0  0
   -5.8972  -18.3596   41.5942 O   0  0  0  0  0  0  0  0  0  0  0  0
   -8.5538  -19.0694   42.9458 C   0  0  0  0  0  0  0  0  0  0  0  0
   -9.4984  -18.3339   43.8755 C   0  0  0  0  0  0  0  0  0  0  0  0
   -9.3003  -16.9262   43.5300 N   0  0  0  0  0  0  0  0  0  0  0  0
   -8.3737  -16.7061   42.4306 C   0  0  0  0  0  0  0  0  0  0  0  0
   -9.9267  -15.8803   44.0692 C   0  0  0  0  0  0  0  0  0  0  0  0
   -9.6721  -14.7257   43.6974 O   0  0  0  0  0  0  0  0  0  0  0  0
  -10.9944  -16.1320   45.0850 C   0  0  0  0  0  0  0  0  0  0  0  0
  -10.6617  -15.9526   46.4074 N   0  0  0  0  0  0  0  0  0  0  0  0
  -11.7537  -16.2453   47.1478 C   0  0  0  0  0  0  0  0  0  0  0  0
  -12.3089  -16.5214   45.1092 C   0  0  0  0  0  0  0  0  0  0  0  0
   -7.2117  -13.3122   32.7748 H   0  0  0  0  0  0  0  0  0  0  0  0
   -8.0870  -14.4707   34.7629 H   0  0  0  0  0  0  0  0  0  0  0  0
  -13.7231  -16.8724   46.7046 H   0  0  0  0  0  0  0  0  0  0  0  0
   -4.8459  -12.1367   30.4056 H   0  0  0  0  0  0  0  0  0  0  0  0
   -5.8571  -12.1099   31.9152 H   0  0  0  0  0  0  0  0  0  0  0  0
   -3.9649  -16.1329   32.5688 H   0  0  0  0  0  0  0  0  0  0  0  0
   -3.9989  -12.0396   33.2943 H   0  0  0  0  0  0  0  0  0  0  0  0
   -2.8822  -12.5074   31.9673 H   0  0  0  0  0  0  0  0  0  0  0  0
   -3.6459  -10.8815   31.9673 H   0  0  0  0  0  0  0  0  0  0  0  0
   -3.4306  -13.9996   30.0026 H   0  0  0  0  0  0  0  0  0  0  0  0
   -3.8592  -15.5746   30.6953 H   0  0  0  0  0  0  0  0  0  0  0  0
   -6.2434  -14.9737   29.7482 H   0  0  0  0  0  0  0  0  0  0  0  0
   -5.2930  -13.8854   28.6809 H   0  0  0  0  0  0  0  0  0  0  0  0
   -4.9675  -15.6519   28.6809 H   0  0  0  0  0  0  0  0  0  0  0  0
   -8.1708  -16.3401   37.6908 H   0  0  0  0  0  0  0  0  0  0  0  0
   -8.5167  -15.2462   36.3086 H   0  0  0  0  0  0  0  0  0  0  0  0
   -9.1585  -16.9239   36.3086 H   0  0  0  0  0  0  0  0  0  0  0  0
   -8.0047  -18.7185   37.4037 H   0  0  0  0  0  0  0  0  0  0  0  0
   -6.6637  -19.8765   36.9055 H   0  0  0  0  0  0  0  0  0  0  0  0
   -5.5432  -18.0159   38.6999 H   0  0  0  0  0  0  0  0  0  0  0  0
   -5.8621  -19.7951   38.9135 H   0  0  0  0  0  0  0  0  0  0  0  0
  -10.2771  -18.1815   40.8126 H   0  0  0  0  0  0  0  0  0  0  0  0
   -9.0151  -19.9986   42.5798 H   0  0  0  0  0  0  0  0  0  0  0  0
   -7.6197  -19.3618   43.4477 H   0  0  0  0  0  0  0  0  0  0  0  0
  -10.5403  -18.6385   43.6973 H   0  0  0  0  0  0  0  0  0  0  0  0
   -9.3006  -18.5438   44.9370 H   0  0  0  0  0  0  0  0  0  0  0  0
   -7.3861  -16.3909   42.7984 H   0  0  0  0  0  0  0  0  0  0  0  0
   -8.6885  -15.9091   41.7408 H   0  0  0  0  0  0  0  0  0  0  0  0
  -11.7845  -16.1949   48.2462 H   0  0  0  0  0  0  0  0  0  0  0  0
  -12.9080  -16.7427   44.2136 H   0  0  0  0  0  0  0  0  0  0  0  0
  1  2  2  0
  1 11  1  0
  1 12  1  0
  2  3  1  0
  3 19  2  0
  4 21  1  0
  4 22  1  0
  4 26  1  0
  5 36  1  0
  5 37  1  0
  6 12  1  0
  6 13  1  0
  7  8  2  0
  8  9  1  0
  8 16  1  0
  9 10  1  0
 10 11  2  0
 10 19  1  0
 12 14  1  0
 14 15  1  0
 16 17  2  0
 16 20  1  0
 17 18  1  0
 17 19  1  0
 20 21  1  0
 22 23  2  0
 22 24  1  0
 25 24  1  6
 25 26  1  0
 25 28  1  0
 25 31  1  0
 26 27  2  0
 28 29  1  0
 29 30  1  0
 30 31  1  0
 30 32  1  0
 32 33  2  0
 32 34  1  0
 34 35  1  0
 34 37  2  0
 35 36  2  0
  2 38  1  0
  3 39  1  0
  5 40  1  0
  6 41  1  0
  6 42  1  0
 11 43  1  0
 13 44  1  0
 13 45  1  0
 13 46  1  0
 14 47  1  0
 14 48  1  0
 15 49  1  0
 15 50  1  0
 15 51  1  0
 18 52  1  0
 18 53  1  0
 18 54  1  0
 20 55  1  0
 20 56  1  0
 21 57  1  0
 21 58  1  0
 24 59  1  0
 28 60  1  0
 28 61  1  0
 29 62  1  0
 29 63  1  0
 31 64  1  0
 31 65  1  0
 36 66  1  0
 37 67  1  0
M  END
>  <filename_input>  (18) 
7LMO_NYO_docked.sdf

>  <pdb_id>  (18) 
7LMO_NYO

>  <pose_rank>  (18) 
17

>  <num_atoms_heavy>  (18) 
37

>  <num_torsions>  (18) 
7

>  <pose>  (18) 
[-6.3027971288792966, -18.81149869273148, 38.69350205909455, 0.5622749016532088, -0.5924853465550144, -1.708036129706834, -1.9858460630567074, -1.4243009775023971, 9.46305239015418, 6.003511646691227, 0.5975099366523838, 3.044525013609605, 0.42616099642393784]

>  <energy>  (18) 
-458.1377874625924

>  <inter_energy>  (18) 
-497.09657727221304

>  <intra_energy>  (18) 
38.717157711945326

>  <rmsd>  (18) 
6.0546

>  <sdf_rank>  (18) 
0

$$$$

     RDKit          3D

 67 71  0  0  0  0  0  0  0  0999 V2000
   -5.0527  -15.5659   33.4272 C   0  0  0  0  0  0  0  0  0  0  0  0
   -4.1042  -16.4844   33.8558 C   0  0  0  0  0  0  0  0  0  0  0  0
   -4.3754  -17.3520   34.8956 C   0  0  0  0  0  0  0  0  0  0  0  0
   -7.5247  -17.9629   41.0042 N   0  0  0  0  0  0  0  0  0  0  0  0
  -12.7543  -15.8663   47.8019 N   0  0  0  0  0  0  0  0  0  0  0  0
   -4.3898  -13.3736   32.4631 C   0  0  0  0  0  0  0  0  0  0  0  0
   -9.2598  -16.9646   37.1820 O   0  0  0  0  0  0  0  0  0  0  0  0
   -8.1180  -17.0800   36.7913 C   0  0  0  0  0  0  0  0  0  0  0  0
   -7.7483  -16.2781   35.7293 O   0  0  0  0  0  0  0  0  0  0  0  0
   -6.5276  -16.3917   35.1291 C   0  0  0  0  0  0  0  0  0  0  0  0
   -6.2830  -15.5342   34.0847 C   0  0  0  0  0  0  0  0  0  0  0  0
   -4.8132  -14.7435   32.3181 N   0  0  0  0  0  0  0  0  0  0  0  0
   -5.4588  -12.4182   32.1119 C   0  0  0  0  0  0  0  0  0  0  0  0
   -4.8444  -15.2839   30.9447 C   0  0  0  0  0  0  0  0  0  0  0  0
   -3.5483  -14.9771   30.3558 C   0  0  0  0  0  0  0  0  0  0  0  0
   -7.1387  -18.0319   37.3084 C   0  0  0  0  0  0  0  0  0  0  0  0
   -5.9184  -18.1745   36.7111 C   0  0  0  0  0  0  0  0  0  0  0  0
   -4.9002  -19.1729   37.1693 C   0  0  0  0  0  0  0  0  0  0  0  0
   -5.5921  -17.3198   35.5666 C   0  0  0  0  0  0  0  0  0  0  0  0
   -7.5095  -18.6826   38.6253 C   0  0  0  0  0  0  0  0  0  0  0  0
   -6.6944  -18.2242   39.8285 C   0  0  0  0  0  0  0  0  0  0  0  0
   -7.6811  -18.8632   42.0736 C   0  0  0  0  0  0  0  0  0  0  0  0
   -7.1487  -19.9588   42.1853 O   0  0  0  0  0  0  0  0  0  0  0  0
   -8.4639  -18.2737   42.9733 N   0  0  0  0  0  0  0  0  0  0  0  0
   -8.8979  -16.9408   42.5807 C   0  0  2  0  0  0  0  0  0  0  0  0
   -8.1781  -16.7744   41.2642 C   0  0  0  0  0  0  0  0  0  0  0  0
   -8.1993  -15.7784   40.5605 O   0  0  0  0  0  0  0  0  0  0  0  0
   -8.5175  -15.8547   43.6070 C   0  0  0  0  0  0  0  0  0  0  0  0
   -9.7023  -15.7840   44.5498 C   0  0  0  0  0  0  0  0  0  0  0  0
  -10.8037  -16.3442   43.7667 N   0  0  0  0  0  0  0  0  0  0  0  0
  -10.4166  -16.8210   42.4482 C   0  0  0  0  0  0  0  0  0  0  0  0
  -12.0624  -16.5114   44.1728 C   0  0  0  0  0  0  0  0  0  0  0  0
  -12.9159  -16.9953   43.4156 O   0  0  0  0  0  0  0  0  0  0  0  0
  -12.4097  -16.1667   45.5856 C   0  0  0  0  0  0  0  0  0  0  0  0
  -13.2165  -15.0713   45.7874 N   0  0  0  0  0  0  0  0  0  0  0  0
  -13.3905  -14.9310   47.1202 C   0  0  0  0  0  0  0  0  0  0  0  0
  -12.1491  -16.6408   46.8455 C   0  0  0  0  0  0  0  0  0  0  0  0
   -3.1228  -16.5217   33.3604 H   0  0  0  0  0  0  0  0  0  0  0  0
   -3.6124  -18.0840   35.1989 H   0  0  0  0  0  0  0  0  0  0  0  0
  -12.7203  -15.9871   48.8242 H   0  0  0  0  0  0  0  0  0  0  0  0
   -4.0925  -13.2037   33.5084 H   0  0  0  0  0  0  0  0  0  0  0  0
   -3.5484  -13.2061   31.7747 H   0  0  0  0  0  0  0  0  0  0  0  0
   -7.0579  -14.8215   33.7661 H   0  0  0  0  0  0  0  0  0  0  0  0
   -5.9084  -12.0165   33.0320 H   0  0  0  0  0  0  0  0  0  0  0  0
   -5.0339  -11.5934   31.5210 H   0  0  0  0  0  0  0  0  0  0  0  0
   -6.2309  -12.9328   31.5210 H   0  0  0  0  0  0  0  0  0  0  0  0
   -5.0048  -16.3719   30.9670 H   0  0  0  0  0  0  0  0  0  0  0  0
   -5.6643  -14.8421   30.3595 H   0  0  0  0  0  0  0  0  0  0  0  0
   -2.8139  -14.8033   31.1561 H   0  0  0  0  0  0  0  0  0  0  0  0
   -3.2192  -15.8222   29.7333 H   0  0  0  0  0  0  0  0  0  0  0  0
   -3.6329  -14.0742   29.7333 H   0  0  0  0  0  0  0  0  0  0  0  0
   -4.8774  -19.1952   38.2688 H   0  0  0  0  0  0  0  0  0  0  0  0
   -5.1664  -20.1696   36.7877 H   0  0  0  0  0  0  0  0  0  0  0  0
   -3.9088  -18.8870   36.7877 H   0  0  0  0  0  0  0  0  0  0  0  0
   -8.5680  -18.4622   38.8276 H   0  0  0  0  0  0  0  0  0  0  0  0
   -7.2989  -19.7556   38.5052 H   0  0  0  0  0  0  0  0  0  0  0  0
   -6.1612  -17.2999   39.5612 H   0  0  0  0  0  0  0  0  0  0  0  0
   -5.9970  -19.0348   40.0867 H   0  0  0  0  0  0  0  0  0  0  0  0
   -8.7367  -18.7175   43.8619 H   0  0  0  0  0  0  0  0  0  0  0  0
   -7.6048  -16.1383   44.1516 H   0  0  0  0  0  0  0  0  0  0  0  0
   -8.3074  -14.8863   43.1294 H   0  0  0  0  0  0  0  0  0  0  0  0
   -9.5200  -16.3830   45.4543 H   0  0  0  0  0  0  0  0  0  0  0  0
   -9.9064  -14.7619   44.9014 H   0  0  0  0  0  0  0  0  0  0  0  0
  -10.6929  -16.0987   41.6659 H   0  0  0  0  0  0  0  0  0  0  0  0
  -10.9097  -17.7599   42.1559 H   0  0  0  0  0  0  0  0  0  0  0  0
  -13.9904  -14.1330   47.5821 H   0  0  0  0  0  0  0  0  0  0  0  0
  -11.5345  -17.5272   47.0612 H   0  0  0  0  0  0  0  0  0  0  0  0
  1  2  2  0
  1 11  1  0
  1 12  1  0
  2  3  1  0
  3 19  2  0
  4 21  1  0
  4 22  1  0
  4 26  1  0
  5 36  1  0
  5 37  1  0
  6 12  1  0
  6 13  1  0
  7  8  2  0
  8  9  1  0
  8 16  1  0
  9 10  1  0
 10 11  2  0
 10 19  1  0
 12 14  1  0
 14 15  1  0
 16 17  2  0
 16 20  1  0
 17 18  1  0
 17 19  1  0
 20 21  1  0
 22 23  2  0
 22 24  1  0
 25 24  1  1
 25 26  1  0
 25 28  1  0
 25 31  1  0
 26 27  2  0
 28 29  1  0
 29 30  1  0
 30 31  1  0
 30 32  1  0
 32 33  2  0
 32 34  1  0
 34 35  1  0
 34 37  2  0
 35 36  2  0
  2 38  1  0
  3 39  1  0
  5 40  1  0
  6 41  1  0
  6 42  1  0
 11 43  1  0
 13 44  1  0
 13 45  1  0
 13 46  1  0
 14 47  1  0
 14 48  1  0
 15 49  1  0
 15 50  1  0
 15 51  1  0
 18 52  1  0
 18 53  1  0
 18 54  1  0
 20 55  1  0
 20 56  1  0
 21 57  1  0
 21 58  1  0
 24 59  1  0
 28 60  1  0
 28 61  1  0
 29 62  1  0
 29 63  1  0
 31 64  1  0
 31 65  1  0
 36 66  1  0
 37 67  1  0
M  END
>  <filename_input>  (19) 
7LMO_NYO_docked.sdf

>  <pdb_id>  (19) 
7LMO_NYO

>  <pose_rank>  (19) 
18

>  <num_atoms_heavy>  (19) 
37

>  <num_torsions>  (19) 
7

>  <pose>  (19) 
[-6.694387307859321, -18.224221653776347, 39.82845542509805, -0.9700309996850506, 1.4992293372458927, 4.353404332233271, -0.3817781006480791, -1.262323950124079, 3.4567814283020084, 2.6513237258347204, 4.445345363067834, -0.27502449051188066, -3.394199783211873]

>  <energy>  (19) 
-486.6990522899491

>  <inter_energy>  (19) 
-493.2596813015114

>  <intra_energy>  (19) 
10.409271613708388

>  <rmsd>  (19) 
6.05196

>  <sdf_rank>  (19) 
0

$$$$

     RDKit          3D

 67 71  0  0  0  0  0  0  0  0999 V2000
   -5.8624  -16.3060   32.6012 C   0  0  0  0  0  0  0  0  0  0  0  0
   -6.8075  -15.4553   33.1578 C   0  0  0  0  0  0  0  0  0  0  0  0
   -7.2298  -15.6200   34.4624 C   0  0  0  0  0  0  0  0  0  0  0  0
   -7.4064  -17.6690   40.9518 N   0  0  0  0  0  0  0  0  0  0  0  0
  -13.4511  -14.8999   46.9620 N   0  0  0  0  0  0  0  0  0  0  0  0
   -6.1957  -16.2543   30.1391 C   0  0  0  0  0  0  0  0  0  0  0  0
   -5.0422  -19.7149   37.2338 O   0  0  0  0  0  0  0  0  0  0  0  0
   -5.6457  -18.8218   36.6791 C   0  0  0  0  0  0  0  0  0  0  0  0
   -5.2798  -18.5506   35.3753 O   0  0  0  0  0  0  0  0  0  0  0  0
   -5.8068  -17.5004   34.6805 C   0  0  0  0  0  0  0  0  0  0  0  0
   -5.3607  -17.3406   33.3917 C   0  0  0  0  0  0  0  0  0  0  0  0
   -5.3682  -16.0904   31.3076 N   0  0  0  0  0  0  0  0  0  0  0  0
   -6.4828  -17.6736   29.8525 C   0  0  0  0  0  0  0  0  0  0  0  0
   -4.0143  -15.5448   31.0875 C   0  0  0  0  0  0  0  0  0  0  0  0
   -4.0987  -14.7113   29.8964 C   0  0  0  0  0  0  0  0  0  0  0  0
   -6.6699  -17.9826   37.2951 C   0  0  0  0  0  0  0  0  0  0  0  0
   -7.1969  -16.9156   36.6242 C   0  0  0  0  0  0  0  0  0  0  0  0
   -8.2095  -15.9933   37.2303 C   0  0  0  0  0  0  0  0  0  0  0  0
   -6.7473  -16.6553   35.2542 C   0  0  0  0  0  0  0  0  0  0  0  0
   -7.2096  -18.4934   38.6153 C   0  0  0  0  0  0  0  0  0  0  0  0
   -6.4889  -17.9773   39.8548 C   0  0  0  0  0  0  0  0  0  0  0  0
   -7.5414  -18.4558   42.1100 C   0  0  0  0  0  0  0  0  0  0  0  0
   -6.9184  -19.4751   42.3732 O   0  0  0  0  0  0  0  0  0  0  0  0
   -8.4257  -17.8491   42.8972 N   0  0  0  0  0  0  0  0  0  0  0  0
   -8.9563  -16.6168   42.3325 C   0  0  2  0  0  0  0  0  0  0  0  0
   -8.1797  -16.5284   41.0409 C   0  0  0  0  0  0  0  0  0  0  0  0
   -8.2512  -15.6237   40.2261 O   0  0  0  0  0  0  0  0  0  0  0  0
   -8.7370  -15.3915   43.2424 C   0  0  0  0  0  0  0  0  0  0  0  0
   -9.9759  -15.3323   44.1137 C   0  0  0  0  0  0  0  0  0  0  0  0
  -10.9743  -16.0808   43.3500 N   0  0  0  0  0  0  0  0  0  0  0  0
  -10.4694  -16.6611   42.1155 C   0  0  0  0  0  0  0  0  0  0  0  0
  -12.2337  -16.3237   43.7130 C   0  0  0  0  0  0  0  0  0  0  0  0
  -12.9941  -16.9697   42.9777 O   0  0  0  0  0  0  0  0  0  0  0  0
  -12.6924  -15.8596   45.0582 C   0  0  0  0  0  0  0  0  0  0  0  0
  -12.6765  -16.7783   46.0815 N   0  0  0  0  0  0  0  0  0  0  0  0
  -13.1390  -16.1625   47.1919 C   0  0  0  0  0  0  0  0  0  0  0  0
  -13.1659  -14.7089   45.6342 C   0  0  0  0  0  0  0  0  0  0  0  0
   -7.2259  -14.6385   32.5514 H   0  0  0  0  0  0  0  0  0  0  0  0
   -7.9635  -14.9169   34.8836 H   0  0  0  0  0  0  0  0  0  0  0  0
  -13.8254  -14.2120   47.6309 H   0  0  0  0  0  0  0  0  0  0  0  0
   -7.1470  -15.7266   30.3021 H   0  0  0  0  0  0  0  0  0  0  0  0
   -5.6498  -15.8403   29.2786 H   0  0  0  0  0  0  0  0  0  0  0  0
   -4.6069  -18.0290   32.9819 H   0  0  0  0  0  0  0  0  0  0  0  0
   -6.5940  -18.2235   30.7986 H   0  0  0  0  0  0  0  0  0  0  0  0
   -7.4144  -17.7494   29.2726 H   0  0  0  0  0  0  0  0  0  0  0  0
   -5.6538  -18.1055   29.2726 H   0  0  0  0  0  0  0  0  0  0  0  0
   -3.7010  -14.9422   31.9528 H   0  0  0  0  0  0  0  0  0  0  0  0
   -3.2745  -16.3491   30.9613 H   0  0  0  0  0  0  0  0  0  0  0  0
   -4.2054  -13.6574   30.1932 H   0  0  0  0  0  0  0  0  0  0  0  0
   -3.1836  -14.8328   29.2982 H   0  0  0  0  0  0  0  0  0  0  0  0
   -4.9708  -15.0138   29.2982 H   0  0  0  0  0  0  0  0  0  0  0  0
   -8.1472  -16.0500   38.3271 H   0  0  0  0  0  0  0  0  0  0  0  0
   -8.0078  -14.9622   36.9045 H   0  0  0  0  0  0  0  0  0  0  0  0
   -9.2174  -16.2902   36.9045 H   0  0  0  0  0  0  0  0  0  0  0  0
   -8.2664  -18.1972   38.6882 H   0  0  0  0  0  0  0  0  0  0  0  0
   -7.0578  -19.5828   38.6058 H   0  0  0  0  0  0  0  0  0  0  0  0
   -5.9395  -17.0625   39.5875 H   0  0  0  0  0  0  0  0  0  0  0  0
   -5.8110  -18.7714   40.2008 H   0  0  0  0  0  0  0  0  0  0  0  0
   -8.7077  -18.2159   43.8175 H   0  0  0  0  0  0  0  0  0  0  0  0
   -7.8353  -15.5224   43.8586 H   0  0  0  0  0  0  0  0  0  0  0  0
   -8.5891  -14.4663   42.6660 H   0  0  0  0  0  0  0  0  0  0  0  0
   -9.7923  -15.8063   45.0892 H   0  0  0  0  0  0  0  0  0  0  0  0
  -10.2927  -14.3022   44.3342 H   0  0  0  0  0  0  0  0  0  0  0  0
  -10.7649  -16.0607   41.2425 H   0  0  0  0  0  0  0  0  0  0  0  0
  -10.8568  -17.6703   41.9114 H   0  0  0  0  0  0  0  0  0  0  0  0
  -13.2432  -16.6540   48.1705 H   0  0  0  0  0  0  0  0  0  0  0  0
  -13.2997  -13.7563   45.1006 H   0  0  0  0  0  0  0  0  0  0  0  0
  1  2  2  0
  1 11  1  0
  1 12  1  0
  2  3  1  0
  3 19  2  0
  4 21  1  0
  4 22  1  0
  4 26  1  0
  5 36  1  0
  5 37  1  0
  6 12  1  0
  6 13  1  0
  7  8  2  0
  8  9  1  0
  8 16  1  0
  9 10  1  0
 10 11  2  0
 10 19  1  0
 12 14  1  0
 14 15  1  0
 16 17  2  0
 16 20  1  0
 17 18  1  0
 17 19  1  0
 20 21  1  0
 22 23  2  0
 22 24  1  0
 25 24  1  1
 25 26  1  0
 25 28  1  0
 25 31  1  0
 26 27  2  0
 28 29  1  0
 29 30  1  0
 30 31  1  0
 30 32  1  0
 32 33  2  0
 32 34  1  0
 34 35  1  0
 34 37  2  0
 35 36  2  0
  2 38  1  0
  3 39  1  0
  5 40  1  0
  6 41  1  0
  6 42  1  0
 11 43  1  0
 13 44  1  0
 13 45  1  0
 13 46  1  0
 14 47  1  0
 14 48  1  0
 15 49  1  0
 15 50  1  0
 15 51  1  0
 18 52  1  0
 18 53  1  0
 18 54  1  0
 20 55  1  0
 20 56  1  0
 21 57  1  0
 21 58  1  0
 24 59  1  0
 28 60  1  0
 28 61  1  0
 29 62  1  0
 29 63  1  0
 31 64  1  0
 31 65  1  0
 36 66  1  0
 37 67  1  0
M  END
>  <filename_input>  (20) 
7LMO_NYO_docked.sdf

>  <pdb_id>  (20) 
7LMO_NYO

>  <pose_rank>  (20) 
19

>  <num_atoms_heavy>  (20) 
37

>  <num_torsions>  (20) 
7

>  <pose>  (20) 
[-6.488929608261575, -17.977252372425507, 39.85480472028121, 0.3468978928293131, -0.5942369132985788, -1.4340432378606522, -0.26529869541876344, 1.3923071447391722, -2.7458665834239766, -0.13416437800023479, -1.2873921501413703, 0.34794674656024493, 2.4996523861828686]

>  <energy>  (20) 
-505.9722996137203

>  <inter_energy>  (20) 
-516.5704059290655

>  <intra_energy>  (20) 
13.203346668400108

>  <rmsd>  (20) 
5.93077

>  <sdf_rank>  (20) 
0

$$$$

     RDKit          3D

 67 71  0  0  0  0  0  0  0  0999 V2000
   -6.6589  -15.9658   33.2416 C   0  0  0  0  0  0  0  0  0  0  0  0
   -7.7654  -15.2605   33.6944 C   0  0  0  0  0  0  0  0  0  0  0  0
   -8.2849  -15.4872   34.9538 C   0  0  0  0  0  0  0  0  0  0  0  0
   -7.6615  -18.2574   41.5331 N   0  0  0  0  0  0  0  0  0  0  0  0
   -3.8747  -22.6683   48.3924 N   0  0  0  0  0  0  0  0  0  0  0  0
   -5.0718  -16.5293   31.4143 C   0  0  0  0  0  0  0  0  0  0  0  0
   -5.8156  -19.2336   37.9707 O   0  0  0  0  0  0  0  0  0  0  0  0
   -6.4835  -18.4347   37.3500 C   0  0  0  0  0  0  0  0  0  0  0  0
   -6.0348  -18.1107   36.0847 O   0  0  0  0  0  0  0  0  0  0  0  0
   -6.6361  -17.1450   35.3302 C   0  0  0  0  0  0  0  0  0  0  0  0
   -6.0941  -16.9198   34.0888 C   0  0  0  0  0  0  0  0  0  0  0  0
   -6.0770  -15.6784   31.9995 N   0  0  0  0  0  0  0  0  0  0  0  0
   -3.7565  -15.8646   31.3312 C   0  0  0  0  0  0  0  0  0  0  0  0
   -6.5698  -14.5660   31.1634 C   0  0  0  0  0  0  0  0  0  0  0  0
   -7.2633  -15.1773   30.0382 C   0  0  0  0  0  0  0  0  0  0  0  0
   -7.6721  -17.7523   37.8544 C   0  0  0  0  0  0  0  0  0  0  0  0
   -8.2781  -16.7702   37.1234 C   0  0  0  0  0  0  0  0  0  0  0  0
   -9.4662  -16.0038   37.6181 C   0  0  0  0  0  0  0  0  0  0  0  0
   -7.7391  -16.4447   35.8004 C   0  0  0  0  0  0  0  0  0  0  0  0
   -8.2593  -18.3384   39.1220 C   0  0  0  0  0  0  0  0  0  0  0  0
   -8.0941  -17.4812   40.3710 C   0  0  0  0  0  0  0  0  0  0  0  0
   -8.5396  -18.8001   42.4886 C   0  0  0  0  0  0  0  0  0  0  0  0
   -9.7603  -18.7213   42.4818 O   0  0  0  0  0  0  0  0  0  0  0  0
   -7.7997  -19.4721   43.3665 N   0  0  0  0  0  0  0  0  0  0  0  0
   -6.3739  -19.4307   43.0762 C   0  0  2  0  0  0  0  0  0  0  0  0
   -6.3597  -18.6396   41.7904 C   0  0  0  0  0  0  0  0  0  0  0  0
   -5.3713  -18.3744   41.1269 O   0  0  0  0  0  0  0  0  0  0  0  0
   -5.7483  -20.8311   42.9187 C   0  0  0  0  0  0  0  0  0  0  0  0
   -5.2864  -21.2055   44.3130 C   0  0  0  0  0  0  0  0  0  0  0  0
   -5.1579  -19.9173   44.9943 N   0  0  0  0  0  0  0  0  0  0  0  0
   -5.5557  -18.7735   44.1885 C   0  0  0  0  0  0  0  0  0  0  0  0
   -4.7907  -19.7217   46.2608 C   0  0  0  0  0  0  0  0  0  0  0  0
   -4.7124  -18.5776   46.7308 O   0  0  0  0  0  0  0  0  0  0  0  0
   -4.5410  -20.9156   47.1254 C   0  0  0  0  0  0  0  0  0  0  0  0
   -5.6369  -21.5280   47.6870 N   0  0  0  0  0  0  0  0  0  0  0  0
   -5.1904  -22.5620   48.4337 C   0  0  0  0  0  0  0  0  0  0  0  0
   -3.4703  -21.6470   47.5713 C   0  0  0  0  0  0  0  0  0  0  0  0
   -8.2350  -14.5105   33.0410 H   0  0  0  0  0  0  0  0  0  0  0  0
   -9.1490  -14.8975   35.2939 H   0  0  0  0  0  0  0  0  0  0  0  0
   -3.2838  -23.3635   48.8704 H   0  0  0  0  0  0  0  0  0  0  0  0
   -4.9724  -17.4352   32.0304 H   0  0  0  0  0  0  0  0  0  0  0  0
   -5.3913  -16.7738   30.3905 H   0  0  0  0  0  0  0  0  0  0  0  0
   -5.2135  -17.4922   33.7618 H   0  0  0  0  0  0  0  0  0  0  0  0
   -3.3776  -15.6732   32.3460 H   0  0  0  0  0  0  0  0  0  0  0  0
   -3.0507  -16.5143   30.7928 H   0  0  0  0  0  0  0  0  0  0  0  0
   -3.8609  -14.9111   30.7928 H   0  0  0  0  0  0  0  0  0  0  0  0
   -7.2616  -13.9340   31.7395 H   0  0  0  0  0  0  0  0  0  0  0  0
   -5.7434  -13.9246   30.8234 H   0  0  0  0  0  0  0  0  0  0  0  0
   -8.0390  -15.8611   30.4133 H   0  0  0  0  0  0  0  0  0  0  0  0
   -7.7312  -14.3925   29.4257 H   0  0  0  0  0  0  0  0  0  0  0  0
   -6.5435  -15.7401   29.4257 H   0  0  0  0  0  0  0  0  0  0  0  0
   -9.4692  -16.0018   38.7181 H   0  0  0  0  0  0  0  0  0  0  0  0
   -9.4141  -14.9686   37.2497 H   0  0  0  0  0  0  0  0  0  0  0  0
  -10.3878  -16.4781   37.2497 H   0  0  0  0  0  0  0  0  0  0  0  0
   -9.3354  -18.4957   38.9573 H   0  0  0  0  0  0  0  0  0  0  0  0
   -7.7033  -19.2679   39.3143 H   0  0  0  0  0  0  0  0  0  0  0  0
   -9.0592  -17.0074   40.6032 H   0  0  0  0  0  0  0  0  0  0  0  0
   -7.3150  -16.7335   40.1611 H   0  0  0  0  0  0  0  0  0  0  0  0
   -8.1973  -19.9733   44.1738 H   0  0  0  0  0  0  0  0  0  0  0  0
   -6.4951  -21.5504   42.5513 H   0  0  0  0  0  0  0  0  0  0  0  0
   -4.9235  -20.8390   42.1910 H   0  0  0  0  0  0  0  0  0  0  0  0
   -6.0301  -21.8420   44.8148 H   0  0  0  0  0  0  0  0  0  0  0  0
   -4.3493  -21.7815   44.3109 H   0  0  0  0  0  0  0  0  0  0  0  0
   -4.6791  -18.2481   43.7816 H   0  0  0  0  0  0  0  0  0  0  0  0
   -6.1105  -18.0085   44.7515 H   0  0  0  0  0  0  0  0  0  0  0  0
   -5.8447  -23.2348   49.0075 H   0  0  0  0  0  0  0  0  0  0  0  0
   -2.4230  -21.4414   47.3049 H   0  0  0  0  0  0  0  0  0  0  0  0
  1  2  2  0
  1 11  1  0
  1 12  1  0
  2  3  1  0
  3 19  2  0
  4 21  1  0
  4 22  1  0
  4 26  1  0
  5 36  1  0
  5 37  1  0
  6 12  1  0
  6 13  1  0
  7  8  2  0
  8  9  1  0
  8 16  1  0
  9 10  1  0
 10 11  2  0
 10 19  1  0
 12 14  1  0
 14 15  1  0
 16 17  2  0
 16 20  1  0
 17 18  1  0
 17 19  1  0
 20 21  1  0
 22 23  2  0
 22 24  1  0
 25 24  1  1
 25 26  1  0
 25 28  1  0
 25 31  1  0
 26 27  2  0
 28 29  1  0
 29 30  1  0
 30 31  1  0
 30 32  1  0
 32 33  2  0
 32 34  1  0
 34 35  1  0
 34 37  2  0
 35 36  2  0
  2 38  1  0
  3 39  1  0
  5 40  1  0
  6 41  1  0
  6 42  1  0
 11 43  1  0
 13 44  1  0
 13 45  1  0
 13 46  1  0
 14 47  1  0
 14 48  1  0
 15 49  1  0
 15 50  1  0
 15 51  1  0
 18 52  1  0
 18 53  1  0
 18 54  1  0
 20 55  1  0
 20 56  1  0
 21 57  1  0
 21 58  1  0
 24 59  1  0
 28 60  1  0
 28 61  1  0
 29 62  1  0
 29 63  1  0
 31 64  1  0
 31 65  1  0
 36 66  1  0
 37 67  1  0
M  END
>  <filename_input>  (21) 
7LMO_NYO_docked.sdf

>  <pdb_id>  (21) 
7LMO_NYO

>  <pose_rank>  (21) 
20

>  <num_atoms_heavy>  (21) 
37

>  <num_torsions>  (21) 
7

>  <pose>  (21) 
[-8.094066984070801, -17.481184485951143, 40.37097228199485, 0.4989905126320118, 0.4268847703392489, -0.014661284951552219, -3.7722478746011694, 1.6626490082039755, -1.2681275321867627, 0.1796711187127725, -3.059013511803756, -0.36744732223002535, 3.152956177728611]

>  <energy>  (21) 
-489.66674375730446

>  <inter_energy>  (21) 
-498.0005014267092

>  <intra_energy>  (21) 
8.028638434699896

>  <rmsd>  (21) 
6.51057

>  <sdf_rank>  (21) 
0

$$$$

     RDKit          3D

 67 71  0  0  0  0  0  0  0  0999 V2000
   -7.3395  -15.2315   35.3212 C   0  0  0  0  0  0  0  0  0  0  0  0
   -6.8727  -14.8160   34.0817 C   0  0  0  0  0  0  0  0  0  0  0  0
   -5.8357  -15.4789   33.4552 C   0  0  0  0  0  0  0  0  0  0  0  0
   -0.7164  -20.2600   35.2962 N   0  0  0  0  0  0  0  0  0  0  0  0
    0.6169  -28.5042   38.4903 N   0  0  0  0  0  0  0  0  0  0  0  0
   -9.5494  -15.3785   36.4483 C   0  0  0  0  0  0  0  0  0  0  0  0
   -3.7147  -19.7097   36.0699 O   0  0  0  0  0  0  0  0  0  0  0  0
   -4.0667  -18.7357   35.4397 C   0  0  0  0  0  0  0  0  0  0  0  0
   -5.1221  -18.0144   35.9624 O   0  0  0  0  0  0  0  0  0  0  0  0
   -5.6809  -16.9639   35.2935 C   0  0  0  0  0  0  0  0  0  0  0  0
   -6.7233  -16.3292   35.9229 C   0  0  0  0  0  0  0  0  0  0  0  0
   -8.4466  -14.6156   35.9204 N   0  0  0  0  0  0  0  0  0  0  0  0
   -9.3928  -15.6642   37.8880 C   0  0  0  0  0  0  0  0  0  0  0  0
   -8.4703  -13.1606   36.1692 C   0  0  0  0  0  0  0  0  0  0  0  0
   -7.1485  -12.8106   36.6702 C   0  0  0  0  0  0  0  0  0  0  0  0
   -3.5101  -18.3103   34.1584 C   0  0  0  0  0  0  0  0  0  0  0  0
   -4.0657  -17.2735   33.4638 C   0  0  0  0  0  0  0  0  0  0  0  0
   -3.5664  -16.8330   32.1221 C   0  0  0  0  0  0  0  0  0  0  0  0
   -5.2054  -16.5646   34.0515 C   0  0  0  0  0  0  0  0  0  0  0  0
   -2.2011  -18.9703   33.7763 C   0  0  0  0  0  0  0  0  0  0  0  0
   -1.1156  -18.9269   34.8449 C   0  0  0  0  0  0  0  0  0  0  0  0
    0.5265  -20.8505   35.0050 C   0  0  0  0  0  0  0  0  0  0  0  0
    1.4388  -20.3462   34.3648 O   0  0  0  0  0  0  0  0  0  0  0  0
    0.5518  -22.0342   35.6116 N   0  0  0  0  0  0  0  0  0  0  0  0
   -0.6663  -22.3344   36.3498 C   0  0  2  0  0  0  0  0  0  0  0  0
   -1.4566  -21.0655   36.1390 C   0  0  0  0  0  0  0  0  0  0  0  0
   -2.5543  -20.8219   36.6117 O   0  0  0  0  0  0  0  0  0  0  0  0
   -0.4111  -22.6343   37.8405 C   0  0  0  0  0  0  0  0  0  0  0  0
   -0.2005  -24.1343   37.9009 C   0  0  0  0  0  0  0  0  0  0  0  0
   -0.8483  -24.6255   36.6847 N   0  0  0  0  0  0  0  0  0  0  0  0
   -1.3886  -23.5787   35.8316 C   0  0  0  0  0  0  0  0  0  0  0  0
   -0.9171  -25.8932   36.2780 C   0  0  0  0  0  0  0  0  0  0  0  0
   -1.4995  -26.1927   35.2258 O   0  0  0  0  0  0  0  0  0  0  0  0
   -0.2170  -26.9412   37.0823 C   0  0  0  0  0  0  0  0  0  0  0  0
    0.9279  -27.4854   36.5490 N   0  0  0  0  0  0  0  0  0  0  0  0
    1.3854  -28.4117   37.4202 C   0  0  0  0  0  0  0  0  0  0  0  0
   -0.3776  -27.5828   38.2834 C   0  0  0  0  0  0  0  0  0  0  0  0
   -7.3352  -13.9465   33.5917 H   0  0  0  0  0  0  0  0  0  0  0  0
   -5.5016  -15.1405   32.4633 H   0  0  0  0  0  0  0  0  0  0  0  0
    0.7376  -29.1293   39.3000 H   0  0  0  0  0  0  0  0  0  0  0  0
  -10.4780  -14.8079   36.2995 H   0  0  0  0  0  0  0  0  0  0  0  0
   -9.5799  -16.3402   35.9151 H   0  0  0  0  0  0  0  0  0  0  0  0
   -7.0729  -16.6866   36.9028 H   0  0  0  0  0  0  0  0  0  0  0  0
   -9.8401  -14.8482   38.4745 H   0  0  0  0  0  0  0  0  0  0  0  0
   -9.8983  -16.6104   38.1311 H   0  0  0  0  0  0  0  0  0  0  0  0
   -8.3232  -15.7469   38.1311 H   0  0  0  0  0  0  0  0  0  0  0  0
   -8.6799  -12.6179   35.2356 H   0  0  0  0  0  0  0  0  0  0  0  0
   -9.2558  -12.8908   36.8904 H   0  0  0  0  0  0  0  0  0  0  0  0
   -7.1606  -12.8138   37.7701 H   0  0  0  0  0  0  0  0  0  0  0  0
   -6.4133  -13.5451   36.3094 H   0  0  0  0  0  0  0  0  0  0  0  0
   -6.8731  -11.8086   36.3094 H   0  0  0  0  0  0  0  0  0  0  0  0
   -2.7475  -16.1106   32.2546 H   0  0  0  0  0  0  0  0  0  0  0  0
   -3.1983  -17.7060   31.5631 H   0  0  0  0  0  0  0  0  0  0  0  0
   -4.3866  -16.3589   31.5631 H   0  0  0  0  0  0  0  0  0  0  0  0
   -2.4073  -20.0255   33.5437 H   0  0  0  0  0  0  0  0  0  0  0  0
   -1.8100  -18.3997   32.9210 H   0  0  0  0  0  0  0  0  0  0  0  0
   -1.4944  -18.3612   35.7089 H   0  0  0  0  0  0  0  0  0  0  0  0
   -0.2309  -18.4466   34.4016 H   0  0  0  0  0  0  0  0  0  0  0  0
    1.3557  -22.6764   35.5634 H   0  0  0  0  0  0  0  0  0  0  0  0
    0.4839  -22.1024   38.1955 H   0  0  0  0  0  0  0  0  0  0  0  0
   -1.2435  -22.3050   38.4797 H   0  0  0  0  0  0  0  0  0  0  0  0
    0.8717  -24.3800   37.9007 H   0  0  0  0  0  0  0  0  0  0  0  0
   -0.6129  -24.5858   38.8153 H   0  0  0  0  0  0  0  0  0  0  0  0
   -2.4780  -23.4873   35.9537 H   0  0  0  0  0  0  0  0  0  0  0  0
   -1.2368  -23.7621   34.7577 H   0  0  0  0  0  0  0  0  0  0  0  0
    2.2898  -29.0163   37.2576 H   0  0  0  0  0  0  0  0  0  0  0  0
   -1.1975  -27.3843   38.9893 H   0  0  0  0  0  0  0  0  0  0  0  0
  1  2  2  0
  1 11  1  0
  1 12  1  0
  2  3  1  0
  3 19  2  0
  4 21  1  0
  4 22  1  0
  4 26  1  0
  5 36  1  0
  5 37  1  0
  6 12  1  0
  6 13  1  0
  7  8  2  0
  8  9  1  0
  8 16  1  0
  9 10  1  0
 10 11  2  0
 10 19  1  0
 12 14  1  0
 14 15  1  0
 16 17  2  0
 16 20  1  0
 17 18  1  0
 17 19  1  0
 20 21  1  0
 22 23  2  0
 22 24  1  0
 25 24  1  6
 25 26  1  0
 25 28  1  0
 25 31  1  0
 26 27  2  0
 28 29  1  0
 29 30  1  0
 30 31  1  0
 30 32  1  0
 32 33  2  0
 32 34  1  0
 34 35  1  0
 34 37  2  0
 35 36  2  0
  2 38  1  0
  3 39  1  0
  5 40  1  0
  6 41  1  0
  6 42  1  0
 11 43  1  0
 13 44  1  0
 13 45  1  0
 13 46  1  0
 14 47  1  0
 14 48  1  0
 15 49  1  0
 15 50  1  0
 15 51  1  0
 18 52  1  0
 18 53  1  0
 18 54  1  0
 20 55  1  0
 20 56  1  0
 21 57  1  0
 21 58  1  0
 24 59  1  0
 28 60  1  0
 28 61  1  0
 29 62  1  0
 29 63  1  0
 31 64  1  0
 31 65  1  0
 36 66  1  0
 37 67  1  0
M  END
>  <filename_input>  (22) 
7LMO_NYO_docked.sdf

>  <pdb_id>  (22) 
7LMO_NYO

>  <pose_rank>  (22) 
21

>  <num_atoms_heavy>  (22) 
37

>  <num_torsions>  (22) 
7

>  <pose>  (22) 
[-1.1156103752552164, -18.92687420040368, 34.84490589898677, -3.3965577505043156, -2.9563004755515476, 1.8199881245324845, -0.2138420925913261, 1.2108374553986037, 3.1478114588373756, -2.625610888442365, -4.104315825152465, -3.0390568299372522, -1.9771191655379436]

>  <energy>  (22) 
-380.1391677560448

>  <inter_energy>  (22) 
-544.6386086590086

>  <intra_energy>  (22) 
168.2682101851743

>  <rmsd>  (22) 
9.57505

>  <sdf_rank>  (22) 
0

$$$$

     RDKit          3D

 67 71  0  0  0  0  0  0  0  0999 V2000
   -4.5190  -16.4168   34.8858 C   0  0  0  0  0  0  0  0  0  0  0  0
   -5.2607  -17.2692   35.6921 C   0  0  0  0  0  0  0  0  0  0  0  0
   -4.7571  -18.4946   36.0819 C   0  0  0  0  0  0  0  0  0  0  0  0
    0.3787  -22.2479   37.5363 N   0  0  0  0  0  0  0  0  0  0  0  0
    0.8153  -22.7458   46.4842 N   0  0  0  0  0  0  0  0  0  0  0  0
   -5.9120  -14.4263   35.4082 C   0  0  0  0  0  0  0  0  0  0  0  0
    0.1853  -19.7759   34.3026 O   0  0  0  0  0  0  0  0  0  0  0  0
   -0.9528  -19.6182   34.6891 C   0  0  0  0  0  0  0  0  0  0  0  0
   -1.5445  -18.4092   34.3800 O   0  0  0  0  0  0  0  0  0  0  0  0
   -2.7796  -18.0680   34.8507 C   0  0  0  0  0  0  0  0  0  0  0  0
   -3.2558  -16.8380   34.4687 C   0  0  0  0  0  0  0  0  0  0  0  0
   -4.9904  -15.1381   34.5591 N   0  0  0  0  0  0  0  0  0  0  0  0
   -7.1516  -14.0538   34.6987 C   0  0  0  0  0  0  0  0  0  0  0  0
   -4.4535  -14.3985   33.3999 C   0  0  0  0  0  0  0  0  0  0  0  0
   -5.0420  -15.0108   32.2169 C   0  0  0  0  0  0  0  0  0  0  0  0
   -1.7112  -20.5687   35.4978 C   0  0  0  0  0  0  0  0  0  0  0  0
   -2.9409  -20.2403   35.9941 C   0  0  0  0  0  0  0  0  0  0  0  0
   -3.7353  -21.1578   36.8719 C   0  0  0  0  0  0  0  0  0  0  0  0
   -3.5061  -18.9301   35.6611 C   0  0  0  0  0  0  0  0  0  0  0  0
   -1.1201  -21.9614   35.5744 C   0  0  0  0  0  0  0  0  0  0  0  0
    0.3118  -22.0317   36.0909 C   0  0  0  0  0  0  0  0  0  0  0  0
   -0.1955  -23.3500   38.1950 C   0  0  0  0  0  0  0  0  0  0  0  0
   -0.8035  -24.2737   37.6720 O   0  0  0  0  0  0  0  0  0  0  0  0
    0.1025  -23.2358   39.4865 N   0  0  0  0  0  0  0  0  0  0  0  0
    0.8913  -22.0527   39.7978 C   0  0  2  0  0  0  0  0  0  0  0  0
    1.0887  -21.4621   38.4226 C   0  0  0  0  0  0  0  0  0  0  0  0
    1.7369  -20.4624   38.1618 O   0  0  0  0  0  0  0  0  0  0  0  0
    2.2242  -22.3824   40.4995 C   0  0  0  0  0  0  0  0  0  0  0  0
    1.8978  -22.3528   41.9795 C   0  0  0  0  0  0  0  0  0  0  0  0
    0.6883  -21.5330   42.0525 N   0  0  0  0  0  0  0  0  0  0  0  0
    0.1833  -21.0977   40.7598 C   0  0  0  0  0  0  0  0  0  0  0  0
    0.0019  -21.2265   43.1534 C   0  0  0  0  0  0  0  0  0  0  0  0
   -1.0118  -20.5158   43.0934 O   0  0  0  0  0  0  0  0  0  0  0  0
    0.4401  -21.8145   44.4562 C   0  0  0  0  0  0  0  0  0  0  0  0
    1.7932  -21.9402   44.6681 N   0  0  0  0  0  0  0  0  0  0  0  0
    1.9667  -22.5016   45.8852 C   0  0  0  0  0  0  0  0  0  0  0  0
   -0.1359  -22.3110   45.5972 C   0  0  0  0  0  0  0  0  0  0  0  0
   -6.2637  -16.9643   36.0253 H   0  0  0  0  0  0  0  0  0  0  0  0
   -5.3587  -19.1395   36.7393 H   0  0  0  0  0  0  0  0  0  0  0  0
    0.6652  -23.1688   47.4113 H   0  0  0  0  0  0  0  0  0  0  0  0
   -6.1726  -15.0671   36.2635 H   0  0  0  0  0  0  0  0  0  0  0  0
   -5.4201  -13.4991   35.7371 H   0  0  0  0  0  0  0  0  0  0  0  0
   -2.6408  -16.1839   33.8332 H   0  0  0  0  0  0  0  0  0  0  0  0
   -7.9370  -13.8178   35.4319 H   0  0  0  0  0  0  0  0  0  0  0  0
   -6.9624  -13.1729   34.0678 H   0  0  0  0  0  0  0  0  0  0  0  0
   -7.4794  -14.8932   34.0678 H   0  0  0  0  0  0  0  0  0  0  0  0
   -4.7369  -13.3373   33.4605 H   0  0  0  0  0  0  0  0  0  0  0  0
   -3.3549  -14.4447   33.3697 H   0  0  0  0  0  0  0  0  0  0  0  0
   -5.7740  -15.7724   32.5239 H   0  0  0  0  0  0  0  0  0  0  0  0
   -5.5459  -14.2389   31.6166 H   0  0  0  0  0  0  0  0  0  0  0  0
   -4.2507  -15.4836   31.6166 H   0  0  0  0  0  0  0  0  0  0  0  0
   -3.5320  -20.9229   37.9272 H   0  0  0  0  0  0  0  0  0  0  0  0
   -4.8077  -21.0243   36.6667 H   0  0  0  0  0  0  0  0  0  0  0  0
   -3.4497  -22.2001   36.6667 H   0  0  0  0  0  0  0  0  0  0  0  0
   -1.7529  -22.5633   36.2432 H   0  0  0  0  0  0  0  0  0  0  0  0
   -1.0904  -22.3373   34.5410 H   0  0  0  0  0  0  0  0  0  0  0  0
    0.8192  -21.0853   35.8524 H   0  0  0  0  0  0  0  0  0  0  0  0
    0.8001  -22.8882   35.6031 H   0  0  0  0  0  0  0  0  0  0  0  0
   -0.1960  -23.9187   40.1975 H   0  0  0  0  0  0  0  0  0  0  0  0
    2.5834  -23.3784   40.2013 H   0  0  0  0  0  0  0  0  0  0  0  0
    3.0207  -21.6714   40.2348 H   0  0  0  0  0  0  0  0  0  0  0  0
    1.7073  -23.3674   42.3593 H   0  0  0  0  0  0  0  0  0  0  0  0
    2.7211  -21.9525   42.5893 H   0  0  0  0  0  0  0  0  0  0  0  0
    0.4564  -20.0518   40.5565 H   0  0  0  0  0  0  0  0  0  0  0  0
   -0.9136  -21.1259   40.6821 H   0  0  0  0  0  0  0  0  0  0  0  0
    2.9494  -22.7280   46.3243 H   0  0  0  0  0  0  0  0  0  0  0  0
   -1.2202  -22.3549   45.7776 H   0  0  0  0  0  0  0  0  0  0  0  0
  1  2  2  0
  1 11  1  0
  1 12  1  0
  2  3  1  0
  3 19  2  0
  4 21  1  0
  4 22  1  0
  4 26  1  0
  5 36  1  0
  5 37  1  0
  6 12  1  0
  6 13  1  0
  7  8  2  0
  8  9  1  0
  8 16  1  0
  9 10  1  0
 10 11  2  0
 10 19  1  0
 12 14  1  0
 14 15  1  0
 16 17  2  0
 16 20  1  0
 17 18  1  0
 17 19  1  0
 20 21  1  0
 22 23  2  0
 22 24  1  0
 25 24  1  6
 25 26  1  0
 25 28  1  0
 25 31  1  0
 26 27  2  0
 28 29  1  0
 29 30  1  0
 30 31  1  0
 30 32  1  0
 32 33  2  0
 32 34  1  0
 34 35  1  0
 34 37  2  0
 35 36  2  0
  2 38  1  0
  3 39  1  0
  5 40  1  0
  6 41  1  0
  6 42  1  0
 11 43  1  0
 13 44  1  0
 13 45  1  0
 13 46  1  0
 14 47  1  0
 14 48  1  0
 15 49  1  0
 15 50  1  0
 15 51  1  0
 18 52  1  0
 18 53  1  0
 18 54  1  0
 20 55  1  0
 20 56  1  0
 21 57  1  0
 21 58  1  0
 24 59  1  0
 28 60  1  0
 28 61  1  0
 29 62  1  0
 29 63  1  0
 31 64  1  0
 31 65  1  0
 36 66  1  0
 37 67  1  0
M  END
>  <filename_input>  (23) 
7LMO_NYO_docked.sdf

>  <pdb_id>  (23) 
7LMO_NYO

>  <pose_rank>  (23) 
22

>  <num_atoms_heavy>  (23) 
37

>  <num_torsions>  (23) 
7

>  <pose>  (23) 
[0.3117735628237806, -22.031738123072056, 36.09090854651529, -0.2725545053882185, -0.7615019246827694, 4.481550512703347, -13.679407975252595, -2.5459392278279194, -3.5752181166053516, -19.597480811474068, 0.35986055991801336, -0.5298964804879857, 0.07773948447358452]

>  <energy>  (23) 
-443.5296196637083

>  <inter_energy>  (23) 
-505.0919082547839

>  <intra_energy>  (23) 
60.159280761709816

>  <rmsd>  (23) 
8.43211

>  <sdf_rank>  (23) 
0

$$$$

     RDKit          3D

 67 71  0  0  0  0  0  0  0  0999 V2000
   -4.3322  -20.5402   45.4123 C   0  0  0  0  0  0  0  0  0  0  0  0
   -3.8258  -20.5867   44.1207 C   0  0  0  0  0  0  0  0  0  0  0  0
   -4.5784  -20.1527   43.0471 C   0  0  0  0  0  0  0  0  0  0  0  0
   -8.9140  -16.9411   39.5025 N   0  0  0  0  0  0  0  0  0  0  0  0
   -7.4080  -16.0876   30.8365 N   0  0  0  0  0  0  0  0  0  0  0  0
   -2.1237  -21.1269   46.3890 C   0  0  0  0  0  0  0  0  0  0  0  0
   -9.5420  -18.3067   44.1381 O   0  0  0  0  0  0  0  0  0  0  0  0
   -8.4803  -18.7696   43.7802 C   0  0  0  0  0  0  0  0  0  0  0  0
   -7.6329  -19.2070   44.7792 O   0  0  0  0  0  0  0  0  0  0  0  0
   -6.3683  -19.6463   44.5130 C   0  0  0  0  0  0  0  0  0  0  0  0
   -5.6278  -20.0554   45.5947 C   0  0  0  0  0  0  0  0  0  0  0  0
   -3.5413  -20.8986   46.5123 N   0  0  0  0  0  0  0  0  0  0  0  0
   -1.8005  -22.5579   46.2259 C   0  0  0  0  0  0  0  0  0  0  0  0
   -4.0977  -20.9192   47.8795 C   0  0  0  0  0  0  0  0  0  0  0  0
   -5.1194  -21.9568   47.8888 C   0  0  0  0  0  0  0  0  0  0  0  0
   -8.0105  -18.8407   42.3993 C   0  0  0  0  0  0  0  0  0  0  0  0
   -6.7423  -19.2597   42.1124 C   0  0  0  0  0  0  0  0  0  0  0  0
   -6.1947  -19.3000   40.7188 C   0  0  0  0  0  0  0  0  0  0  0  0
   -5.8749  -19.6812   43.2155 C   0  0  0  0  0  0  0  0  0  0  0  0
   -9.0730  -18.5999   41.3466 C   0  0  0  0  0  0  0  0  0  0  0  0
   -9.2408  -17.1487   40.9133 C   0  0  0  0  0  0  0  0  0  0  0  0
   -8.0414  -15.9418   39.0353 C   0  0  0  0  0  0  0  0  0  0  0  0
   -7.4304  -15.1322   39.7191 O   0  0  0  0  0  0  0  0  0  0  0  0
   -7.9522  -16.0826   37.7154 N   0  0  0  0  0  0  0  0  0  0  0  0
   -8.7566  -17.1775   37.1928 C   0  0  2  0  0  0  0  0  0  0  0  0
   -9.3348  -17.7492   38.4648 C   0  0  0  0  0  0  0  0  0  0  0  0
  -10.0578  -18.7284   38.5427 O   0  0  0  0  0  0  0  0  0  0  0  0
   -7.9300  -18.2097   36.3999 C   0  0  0  0  0  0  0  0  0  0  0  0
   -7.9685  -17.7153   34.9674 C   0  0  0  0  0  0  0  0  0  0  0  0
   -9.1546  -16.8599   34.9267 N   0  0  0  0  0  0  0  0  0  0  0  0
   -9.8296  -16.7139   36.2068 C   0  0  0  0  0  0  0  0  0  0  0  0
   -9.6051  -16.1764   33.8745 C   0  0  0  0  0  0  0  0  0  0  0  0
  -10.6297  -15.4839   33.9574 O   0  0  0  0  0  0  0  0  0  0  0  0
   -8.8104  -16.2067   32.6085 C   0  0  0  0  0  0  0  0  0  0  0  0
   -9.2993  -16.9713   31.5751 N   0  0  0  0  0  0  0  0  0  0  0  0
   -8.4301  -16.8716   30.5451 C   0  0  0  0  0  0  0  0  0  0  0  0
   -7.6485  -15.6672   32.1195 C   0  0  0  0  0  0  0  0  0  0  0  0
   -2.8107  -20.9747   43.9499 H   0  0  0  0  0  0  0  0  0  0  0  0
   -4.1426  -20.1809   42.0376 H   0  0  0  0  0  0  0  0  0  0  0  0
   -6.6083  -15.8456   30.2341 H   0  0  0  0  0  0  0  0  0  0  0  0
   -1.7517  -20.5777   45.5115 H   0  0  0  0  0  0  0  0  0  0  0  0
   -1.6439  -20.7762   47.3146 H   0  0  0  0  0  0  0  0  0  0  0  0
   -6.0566  -20.0009   46.6062 H   0  0  0  0  0  0  0  0  0  0  0  0
   -1.6949  -23.0251   47.2162 H   0  0  0  0  0  0  0  0  0  0  0  0
   -2.6088  -23.0554   45.6701 H   0  0  0  0  0  0  0  0  0  0  0  0
   -0.8567  -22.6596   45.6701 H   0  0  0  0  0  0  0  0  0  0  0  0
   -3.3084  -21.1551   48.6085 H   0  0  0  0  0  0  0  0  0  0  0  0
   -4.5186  -19.9409   48.1550 H   0  0  0  0  0  0  0  0  0  0  0  0
   -5.3720  -22.2134   48.9283 H   0  0  0  0  0  0  0  0  0  0  0  0
   -6.0189  -21.5903   47.3727 H   0  0  0  0  0  0  0  0  0  0  0  0
   -4.7389  -22.8506   47.3727 H   0  0  0  0  0  0  0  0  0  0  0  0
   -5.0983  -19.3807   40.7578 H   0  0  0  0  0  0  0  0  0  0  0  0
   -6.6077  -20.1702   40.1875 H   0  0  0  0  0  0  0  0  0  0  0  0
   -6.4759  -18.3787   40.1875 H   0  0  0  0  0  0  0  0  0  0  0  0
   -8.8113  -19.1923   40.4575 H   0  0  0  0  0  0  0  0  0  0  0  0
  -10.0287  -18.8938   41.8052 H   0  0  0  0  0  0  0  0  0  0  0  0
   -8.5774  -16.5195   41.5249 H   0  0  0  0  0  0  0  0  0  0  0  0
  -10.2982  -16.8795   41.0533 H   0  0  0  0  0  0  0  0  0  0  0  0
   -7.3701  -15.4756   37.1207 H   0  0  0  0  0  0  0  0  0  0  0  0
   -6.8949  -18.2449   36.7704 H   0  0  0  0  0  0  0  0  0  0  0  0
   -8.3315  -19.2290   36.4992 H   0  0  0  0  0  0  0  0  0  0  0  0
   -7.0621  -17.1406   34.7265 H   0  0  0  0  0  0  0  0  0  0  0  0
   -8.0092  -18.5350   34.2349 H   0  0  0  0  0  0  0  0  0  0  0  0
  -10.7238  -17.3522   36.2612 H   0  0  0  0  0  0  0  0  0  0  0  0
  -10.1952  -15.6944   36.3994 H   0  0  0  0  0  0  0  0  0  0  0  0
   -8.5585  -17.3825   29.5795 H   0  0  0  0  0  0  0  0  0  0  0  0
   -6.9944  -14.9858   32.6832 H   0  0  0  0  0  0  0  0  0  0  0  0
  1  2  2  0
  1 11  1  0
  1 12  1  0
  2  3  1  0
  3 19  2  0
  4 21  1  0
  4 22  1  0
  4 26  1  0
  5 36  1  0
  5 37  1  0
  6 12  1  0
  6 13  1  0
  7  8  2  0
  8  9  1  0
  8 16  1  0
  9 10  1  0
 10 11  2  0
 10 19  1  0
 12 14  1  0
 14 15  1  0
 16 17  2  0
 16 20  1  0
 17 18  1  0
 17 19  1  0
 20 21  1  0
 22 23  2  0
 22 24  1  0
 25 24  1  1
 25 26  1  0
 25 28  1  0
 25 31  1  0
 26 27  2  0
 28 29  1  0
 29 30  1  0
 30 31  1  0
 30 32  1  0
 32 33  2  0
 32 34  1  0
 34 35  1  0
 34 37  2  0
 35 36  2  0
  2 38  1  0
  3 39  1  0
  5 40  1  0
  6 41  1  0
  6 42  1  0
 11 43  1  0
 13 44  1  0
 13 45  1  0
 13 46  1  0
 14 47  1  0
 14 48  1  0
 15 49  1  0
 15 50  1  0
 15 51  1  0
 18 52  1  0
 18 53  1  0
 18 54  1  0
 20 55  1  0
 20 56  1  0
 21 57  1  0
 21 58  1  0
 24 59  1  0
 28 60  1  0
 28 61  1  0
 29 62  1  0
 29 63  1  0
 31 64  1  0
 31 65  1  0
 36 66  1  0
 37 67  1  0
M  END
>  <filename_input>  (24) 
7LMO_NYO_docked.sdf

>  <pdb_id>  (24) 
7LMO_NYO

>  <pose_rank>  (24) 
23

>  <num_atoms_heavy>  (24) 
37

>  <num_torsions>  (24) 
7

>  <pose>  (24) 
[-9.240847158460095, -17.148672984450663, 40.913321153228175, -0.5457649098905736, 2.9412588492942264, 0.22382836774374756, 1.894205583025095, -1.3575900564213825, 3.1221876754920452, -0.1573500839685879, 0.07772883608181959, -0.06694564065625751, -0.11723818958981164]

>  <energy>  (24) 
-442.6149741123455

>  <inter_energy>  (24) 
-470.19428322654574

>  <intra_energy>  (24) 
35.397446964416346

>  <rmsd>  (24) 
8.95088

>  <sdf_rank>  (24) 
0

$$$$

     RDKit          3D

 67 71  0  0  0  0  0  0  0  0999 V2000
   -6.3869  -13.7737   32.6730 C   0  0  0  0  0  0  0  0  0  0  0  0
   -6.6384  -13.0077   33.8030 C   0  0  0  0  0  0  0  0  0  0  0  0
   -6.4685  -13.5330   35.0689 C   0  0  0  0  0  0  0  0  0  0  0  0
   -7.6257  -17.7888   39.3151 N   0  0  0  0  0  0  0  0  0  0  0  0
  -12.4265  -14.2363   45.8475 N   0  0  0  0  0  0  0  0  0  0  0  0
   -6.6313  -11.8015   31.1810 C   0  0  0  0  0  0  0  0  0  0  0  0
   -4.8114  -18.6707   35.3733 O   0  0  0  0  0  0  0  0  0  0  0  0
   -5.2558  -17.5436   35.4143 C   0  0  0  0  0  0  0  0  0  0  0  0
   -5.4362  -16.9101   34.2004 O   0  0  0  0  0  0  0  0  0  0  0  0
   -5.8258  -15.6044   34.1177 C   0  0  0  0  0  0  0  0  0  0  0  0
   -5.9707  -15.0935   32.8513 C   0  0  0  0  0  0  0  0  0  0  0  0
   -6.4750  -13.2190   31.3891 N   0  0  0  0  0  0  0  0  0  0  0  0
   -7.9914  -11.4500   30.7279 C   0  0  0  0  0  0  0  0  0  0  0  0
   -6.2675  -14.0452   30.1835 C   0  0  0  0  0  0  0  0  0  0  0  0
   -5.0990  -13.4969   29.5091 C   0  0  0  0  0  0  0  0  0  0  0  0
   -5.5507  -16.7939   36.6323 C   0  0  0  0  0  0  0  0  0  0  0  0
   -5.9241  -15.4812   36.5728 C   0  0  0  0  0  0  0  0  0  0  0  0
   -6.1856  -14.6537   37.7937 C   0  0  0  0  0  0  0  0  0  0  0  0
   -6.0679  -14.8503   35.2582 C   0  0  0  0  0  0  0  0  0  0  0  0
   -5.5884  -17.6203   37.9014 C   0  0  0  0  0  0  0  0  0  0  0  0
   -6.9044  -18.3409   38.1683 C   0  0  0  0  0  0  0  0  0  0  0  0
   -7.3637  -18.1377   40.6523 C   0  0  0  0  0  0  0  0  0  0  0  0
   -6.5078  -18.9182   41.0457 O   0  0  0  0  0  0  0  0  0  0  0  0
   -8.1757  -17.4108   41.4152 N   0  0  0  0  0  0  0  0  0  0  0  0
   -9.0466  -16.5249   40.6565 C   0  0  2  0  0  0  0  0  0  0  0  0
   -8.5794  -16.7925   39.2460 C   0  0  0  0  0  0  0  0  0  0  0  0
   -8.9942  -16.2409   38.2405 O   0  0  0  0  0  0  0  0  0  0  0  0
   -8.9009  -15.0437   41.0593 C   0  0  0  0  0  0  0  0  0  0  0  0
   -9.9255  -14.8410   42.1579 C   0  0  0  0  0  0  0  0  0  0  0  0
  -10.8848  -15.9244   41.9430 N   0  0  0  0  0  0  0  0  0  0  0  0
  -10.5317  -16.8281   40.8593 C   0  0  0  0  0  0  0  0  0  0  0  0
  -11.9702  -16.1808   42.6732 C   0  0  0  0  0  0  0  0  0  0  0  0
  -12.7163  -17.1296   42.3920 O   0  0  0  0  0  0  0  0  0  0  0  0
  -12.2333  -15.3414   43.8821 C   0  0  0  0  0  0  0  0  0  0  0  0
  -13.1131  -14.2935   43.7430 N   0  0  0  0  0  0  0  0  0  0  0  0
  -13.1929  -13.6645   44.9365 C   0  0  0  0  0  0  0  0  0  0  0  0
  -11.8342  -15.2857   45.1928 C   0  0  0  0  0  0  0  0  0  0  0  0
   -6.9777  -11.9676   33.6885 H   0  0  0  0  0  0  0  0  0  0  0  0
   -6.6542  -12.8954   35.9458 H   0  0  0  0  0  0  0  0  0  0  0  0
  -12.3016  -13.9565   46.8308 H   0  0  0  0  0  0  0  0  0  0  0  0
   -6.4278  -11.2801   32.1280 H   0  0  0  0  0  0  0  0  0  0  0  0
   -5.9247  -11.4961   30.3953 H   0  0  0  0  0  0  0  0  0  0  0  0
   -5.7584  -15.7255   31.9764 H   0  0  0  0  0  0  0  0  0  0  0  0
   -8.6375  -11.2830   31.6024 H   0  0  0  0  0  0  0  0  0  0  0  0
   -7.9504  -10.5329   30.1218 H   0  0  0  0  0  0  0  0  0  0  0  0
   -8.3999  -12.2720   30.1218 H   0  0  0  0  0  0  0  0  0  0  0  0
   -6.0876  -15.0929   30.4660 H   0  0  0  0  0  0  0  0  0  0  0  0
   -7.1517  -14.0276   29.5294 H   0  0  0  0  0  0  0  0  0  0  0  0
   -4.3700  -13.1548   30.2585 H   0  0  0  0  0  0  0  0  0  0  0  0
   -4.6407  -14.2739   28.8797 H   0  0  0  0  0  0  0  0  0  0  0  0
   -5.4037  -12.6478   28.8797 H   0  0  0  0  0  0  0  0  0  0  0  0
   -5.9949  -15.2572   38.6934 H   0  0  0  0  0  0  0  0  0  0  0  0
   -5.5206  -13.7775   37.7921 H   0  0  0  0  0  0  0  0  0  0  0  0
   -7.2334  -14.3189   37.7921 H   0  0  0  0  0  0  0  0  0  0  0  0
   -4.7929  -18.3773   37.8382 H   0  0  0  0  0  0  0  0  0  0  0  0
   -5.4554  -16.9108   38.7314 H   0  0  0  0  0  0  0  0  0  0  0  0
   -6.6915  -19.4022   38.3637 H   0  0  0  0  0  0  0  0  0  0  0  0
   -7.5410  -18.2114   37.2806 H   0  0  0  0  0  0  0  0  0  0  0  0
   -8.1871  -17.4693   42.4435 H   0  0  0  0  0  0  0  0  0  0  0  0
   -7.8863  -14.8414   41.4331 H   0  0  0  0  0  0  0  0  0  0  0  0
   -9.0617  -14.3637   40.2098 H   0  0  0  0  0  0  0  0  0  0  0  0
   -9.4578  -14.9226   43.1502 H   0  0  0  0  0  0  0  0  0  0  0  0
  -10.3929  -13.8457   42.1261 H   0  0  0  0  0  0  0  0  0  0  0  0
  -11.1115  -16.6073   39.9509 H   0  0  0  0  0  0  0  0  0  0  0  0
  -10.7402  -17.8853   41.0804 H   0  0  0  0  0  0  0  0  0  0  0  0
  -13.8210  -12.7817   45.1264 H   0  0  0  0  0  0  0  0  0  0  0  0
  -11.1303  -15.9912   45.6585 H   0  0  0  0  0  0  0  0  0  0  0  0
  1  2  2  0
  1 11  1  0
  1 12  1  0
  2  3  1  0
  3 19  2  0
  4 21  1  0
  4 22  1  0
  4 26  1  0
  5 36  1  0
  5 37  1  0
  6 12  1  0
  6 13  1  0
  7  8  2  0
  8  9  1  0
  8 16  1  0
  9 10  1  0
 10 11  2  0
 10 19  1  0
 12 14  1  0
 14 15  1  0
 16 17  2  0
 16 20  1  0
 17 18  1  0
 17 19  1  0
 20 21  1  0
 22 23  2  0
 22 24  1  0
 25 24  1  1
 25 26  1  0
 25 28  1  0
 25 31  1  0
 26 27  2  0
 28 29  1  0
 29 30  1  0
 30 31  1  0
 30 32  1  0
 32 33  2  0
 32 34  1  0
 34 35  1  0
 34 37  2  0
 35 36  2  0
  2 38  1  0
  3 39  1  0
  5 40  1  0
  6 41  1  0
  6 42  1  0
 11 43  1  0
 13 44  1  0
 13 45  1  0
 13 46  1  0
 14 47  1  0
 14 48  1  0
 15 49  1  0
 15 50  1  0
 15 51  1  0
 18 52  1  0
 18 53  1  0
 18 54  1  0
 20 55  1  0
 20 56  1  0
 21 57  1  0
 21 58  1  0
 24 59  1  0
 28 60  1  0
 28 61  1  0
 29 62  1  0
 29 63  1  0
 31 64  1  0
 31 65  1  0
 36 66  1  0
 37 67  1  0
M  END
>  <filename_input>  (25) 
7LMO_NYO_docked.sdf

>  <pdb_id>  (25) 
7LMO_NYO

>  <pose_rank>  (25) 
24

>  <num_atoms_heavy>  (25) 
37

>  <num_torsions>  (25) 
7

>  <pose>  (25) 
[-6.9043633524043555, -18.340856553738195, 38.16831015390255, 1.7342177387165547, -0.1848292721557716, -3.684347760518678, 2.706317235521412, -1.5005033067966465, -13.413899465625553, -3.181037545148581, 0.0686237546779867, -0.26043391996686693, 2.991899687361612]

>  <energy>  (25) 
-437.19752864371753

>  <inter_energy>  (25) 
-446.54845648220964

>  <intra_energy>  (25) 
8.00628132121802

>  <rmsd>  (25) 
6.71006

>  <sdf_rank>  (25) 
0

$$$$

     RDKit          3D

 67 71  0  0  0  0  0  0  0  0999 V2000
   -0.8060  -20.7600   35.7940 C   0  0  0  0  0  0  0  0  0  0  0  0
   -0.6080  -19.7580   34.8540 C   0  0  0  0  0  0  0  0  0  0  0  0
   -1.6200  -18.8740   34.5350 C   0  0  0  0  0  0  0  0  0  0  0  0
   -6.9090  -16.3870   37.0930 N   0  0  0  0  0  0  0  0  0  0  0  0
   -8.5020  -17.4990   45.6910 N   0  0  0  0  0  0  0  0  0  0  0  0
    1.5930  -21.4040   35.7200 C   0  0  0  0  0  0  0  0  0  0  0  0
   -6.3330  -19.5360   37.1010 O   0  0  0  0  0  0  0  0  0  0  0  0
   -5.3480  -19.3510   36.4190 C   0  0  0  0  0  0  0  0  0  0  0  0
   -4.2610  -20.1630   36.6770 O   0  0  0  0  0  0  0  0  0  0  0  0
   -3.0600  -19.9820   36.0540 C   0  0  0  0  0  0  0  0  0  0  0  0
   -2.0600  -20.8580   36.3980 C   0  0  0  0  0  0  0  0  0  0  0  0
    0.2430  -21.6040   36.1830 N   0  0  0  0  0  0  0  0  0  0  0  0
    1.8840  -22.1760   34.4960 C   0  0  0  0  0  0  0  0  0  0  0  0
    0.0420  -22.6540   37.2010 C   0  0  0  0  0  0  0  0  0  0  0  0
   -0.7820  -23.6780   36.5740 C   0  0  0  0  0  0  0  0  0  0  0  0
   -5.2040  -18.3100   35.4050 C   0  0  0  0  0  0  0  0  0  0  0  0
   -4.0060  -18.1000   34.7830 C   0  0  0  0  0  0  0  0  0  0  0  0
   -3.7920  -17.0120   33.7760 C   0  0  0  0  0  0  0  0  0  0  0  0
   -2.8770  -18.9710   35.1200 C   0  0  0  0  0  0  0  0  0  0  0  0
   -6.4960  -17.6390   34.9860 C   0  0  0  0  0  0  0  0  0  0  0  0
   -6.7690  -16.2900   35.6400 C   0  0  0  0  0  0  0  0  0  0  0  0
   -6.1060  -15.6850   38.0100 C   0  0  0  0  0  0  0  0  0  0  0  0
   -5.2090  -14.8990   37.7380 O   0  0  0  0  0  0  0  0  0  0  0  0
   -6.5470  -15.9840   39.2290 N   0  0  0  0  0  0  0  0  0  0  0  0
   -7.6710  -16.9090   39.2290 C   0  0  2  0  0  0  0  0  0  0  0  0
   -7.8980  -17.0940   37.7480 C   0  0  0  0  0  0  0  0  0  0  0  0
   -8.7800  -17.7660   37.2400 O   0  0  0  0  0  0  0  0  0  0  0  0
   -8.9120  -16.3520   39.9550 C   0  0  0  0  0  0  0  0  0  0  0  0
   -8.7520  -16.8040   41.3930 C   0  0  0  0  0  0  0  0  0  0  0  0
   -7.8450  -17.9480   41.2990 N   0  0  0  0  0  0  0  0  0  0  0  0
   -7.3660  -18.2210   39.9530 C   0  0  0  0  0  0  0  0  0  0  0  0
   -7.3860  -18.6830   42.3120 C   0  0  0  0  0  0  0  0  0  0  0  0
   -6.6210  -19.6370   42.1100 O   0  0  0  0  0  0  0  0  0  0  0  0
   -7.7580  -18.2910   43.7060 C   0  0  0  0  0  0  0  0  0  0  0  0
   -7.2140  -19.0250   44.7340 N   0  0  0  0  0  0  0  0  0  0  0  0
   -7.6880  -18.5190   45.8940 C   0  0  0  0  0  0  0  0  0  0  0  0
   -8.5400  -17.3520   44.3280 C   0  0  0  0  0  0  0  0  0  0  0  0
    0.3687  -19.6668   34.3562 H   0  0  0  0  0  0  0  0  0  0  0  0
   -1.4271  -18.0763   33.8025 H   0  0  0  0  0  0  0  0  0  0  0  0
   -8.9979  -16.9387   46.3988 H   0  0  0  0  0  0  0  0  0  0  0  0
    1.7396  -20.3347   35.5074 H   0  0  0  0  0  0  0  0  0  0  0  0
    2.2753  -21.7531   36.5090 H   0  0  0  0  0  0  0  0  0  0  0  0
   -2.2478  -21.6379   37.1506 H   0  0  0  0  0  0  0  0  0  0  0  0
    2.2596  -23.1725   34.7716 H   0  0  0  0  0  0  0  0  0  0  0  0
    0.9642  -22.2822   33.9021 H   0  0  0  0  0  0  0  0  0  0  0  0
    2.6450  -21.6486   33.9021 H   0  0  0  0  0  0  0  0  0  0  0  0
    1.0097  -23.0782   37.5069 H   0  0  0  0  0  0  0  0  0  0  0  0
   -0.4402  -22.2495   38.1031 H   0  0  0  0  0  0  0  0  0  0  0  0
   -1.2694  -24.2837   37.3522 H   0  0  0  0  0  0  0  0  0  0  0  0
   -1.5492  -23.1988   35.9481 H   0  0  0  0  0  0  0  0  0  0  0  0
   -0.1498  -24.3249   35.9481 H   0  0  0  0  0  0  0  0  0  0  0  0
   -3.6051  -16.0615   34.2972 H   0  0  0  0  0  0  0  0  0  0  0  0
   -2.9256  -17.2611   33.1456 H   0  0  0  0  0  0  0  0  0  0  0  0
   -4.6882  -16.9144   33.1456 H   0  0  0  0  0  0  0  0  0  0  0  0
   -6.4636  -17.4886   33.8968 H   0  0  0  0  0  0  0  0  0  0  0  0
   -7.3066  -18.3065   35.3139 H   0  0  0  0  0  0  0  0  0  0  0  0
   -7.7000  -15.8784   35.2231 H   0  0  0  0  0  0  0  0  0  0  0  0
   -5.9078  -15.6383   35.4311 H   0  0  0  0  0  0  0  0  0  0  0  0
   -6.1331  -15.5982   40.0897 H   0  0  0  0  0  0  0  0  0  0  0  0
   -8.9367  -15.2540   39.8940 H   0  0  0  0  0  0  0  0  0  0  0  0
   -9.8512  -16.7103   39.5083 H   0  0  0  0  0  0  0  0  0  0  0  0
   -8.3129  -16.0051   42.0086 H   0  0  0  0  0  0  0  0  0  0  0  0
   -9.7106  -17.0585   41.8687 H   0  0  0  0  0  0  0  0  0  0  0  0
   -7.9098  -19.0626   39.4992 H   0  0  0  0  0  0  0  0  0  0  0  0
   -6.3059  -18.5117   39.9122 H   0  0  0  0  0  0  0  0  0  0  0  0
   -7.4270  -18.9100   46.8885 H   0  0  0  0  0  0  0  0  0  0  0  0
   -9.1222  -16.5810   43.8021 H   0  0  0  0  0  0  0  0  0  0  0  0
  1  2  2  0
  1 11  1  0
  1 12  1  0
  2  3  1  0
  3 19  2  0
  4 21  1  0
  4 22  1  0
  4 26  1  0
  5 36  1  0
  5 37  1  0
  6 12  1  0
  6 13  1  0
  7  8  2  0
  8  9  1  0
  8 16  1  0
  9 10  1  0
 10 11  2  0
 10 19  1  0
 12 14  1  0
 14 15  1  0
 16 17  2  0
 16 20  1  0
 17 18  1  0
 17 19  1  0
 20 21  1  0
 22 23  2  0
 22 24  1  0
 25 24  1  6
 25 26  1  0
 25 28  1  0
 25 31  1  0
 26 27  2  0
 28 29  1  0
 29 30  1  0
 30 31  1  0
 30 32  1  0
 32 33  2  0
 32 34  1  0
 34 35  1  0
 34 37  2  0
 35 36  2  0
  2 38  1  0
  3 39  1  0
  5 40  1  0
  6 41  1  0
  6 42  1  0
 11 43  1  0
 13 44  1  0
 13 45  1  0
 13 46  1  0
 14 47  1  0
 14 48  1  0
 15 49  1  0
 15 50  1  0
 15 51  1  0
 18 52  1  0
 18 53  1  0
 18 54  1  0
 20 55  1  0
 20 56  1  0
 21 57  1  0
 21 58  1  0
 24 59  1  0
 28 60  1  0
 28 61  1  0
 29 62  1  0
 29 63  1  0
 31 64  1  0
 31 65  1  0
 36 66  1  0
 37 67  1  0
M  END
>  <filename_input>  (26) 
7LMO_NYO_docked.sdf

>  <pdb_id>  (26) 
7LMO_NYO

>  <pose_rank>  (26) 
25

>  <num_atoms_heavy>  (26) 
37

>  <num_torsions>  (26) 
7

>  <pose>  (26) 
[-6.769, -16.29, 35.64, 1e-06, 1e-06, 1e-06, 0.0, 0.0, 0.0, 0.0, 0.0, 0.0, 0.0]

>  <energy>  (26) 
-841.5299229222425

>  <inter_energy>  (26) 
-910.7947783260493

>  <intra_energy>  (26) 
67.6895380894957

>  <rmsd>  (26) 
0.0

>  <sdf_rank>  (26) 
0

$$$$
