
     RDKit          3D

 18 19  0  0  0  0  0  0  0  0999 V2000
   39.9078  -20.3424   13.6289 C   0  0  0  0  0  0  0  0  0  0  0  0
   42.0752  -19.9661   12.5290 C   0  0  0  0  0  0  0  0  0  0  0  0
   42.8211  -19.4960   11.4559 C   0  0  0  0  0  0  0  0  0  0  0  0
   42.1734  -18.9193   10.3624 C   0  0  0  0  0  0  0  0  0  0  0  0
   40.7868  -18.8123   10.3509 C   0  0  0  0  0  0  0  0  0  0  0  0
   40.0229  -19.2943   11.4541 C   0  0  0  0  0  0  0  0  0  0  0  0
   38.6013  -19.1869   11.4560 C   0  0  0  0  0  0  0  0  0  0  0  0
   37.8697  -19.6603   12.5399 C   0  0  0  0  0  0  0  0  0  0  0  0
   38.5233  -20.2356   13.6294 C   0  0  0  0  0  0  0  0  0  0  0  0
   40.6574  -19.8583   12.5200 C   0  0  0  0  0  0  0  0  0  0  0  0
   42.6851  -20.5341   13.6082 F   0  0  0  0  0  0  0  0  0  0  0  0
   40.4248  -20.8009   14.4848 H   0  0  0  0  0  0  0  0  0  0  0  0
   43.9180  -19.5780   11.4678 H   0  0  0  0  0  0  0  0  0  0  0  0
   42.7601  -18.5489    9.5088 H   0  0  0  0  0  0  0  0  0  0  0  0
   40.2785  -18.3550    9.4892 H   0  0  0  0  0  0  0  0  0  0  0  0
   38.0830  -18.7297   10.6003 H   0  0  0  0  0  0  0  0  0  0  0  0
   36.7725  -19.5807   12.5379 H   0  0  0  0  0  0  0  0  0  0  0  0
   37.9428  -20.6042   14.4880 H   0  0  0  0  0  0  0  0  0  0  0  0
  1  9  2  0
  1 10  1  0
  2  3  1  0
  2 10  2  0
  2 11  1  0
  3  4  2  0
  4  5  1  0
  5  6  2  0
  6  7  1  0
  6 10  1  0
  7  8  2  0
  8  9  1  0
  1 12  1  0
  3 13  1  0
  4 14  1  0
  5 15  1  0
  7 16  1  0
  8 17  1  0
  9 18  1  0
M  END
>  <filename_input>  (1) 
7LOE_Y84_docked.sdf

>  <pdb_id>  (1) 
7LOE_Y84

>  <pose_rank>  (1) 
0

>  <num_atoms_heavy>  (1) 
11

>  <num_torsions>  (1) 
0

>  <pose>  (1) 
[39.907772730694056, -20.34244037617014, 13.628876696722173, -1.7910031288965147, -1.0258673953968807, -5.858526107617441]

>  <energy>  (1) 
-685.458618138853

>  <inter_energy>  (1) 
-666.0901643437118

>  <intra_energy>  (1) 
0.0

>  <rmsd>  (1) 
0.287158

>  <sdf_rank>  (1) 
0

$$$$

     RDKit          3D

 18 19  0  0  0  0  0  0  0  0999 V2000
   39.8062  -19.8845   13.3033 C   0  0  0  0  0  0  0  0  0  0  0  0
   39.7620  -19.0420   10.9931 C   0  0  0  0  0  0  0  0  0  0  0  0
   40.4113  -18.7440    9.8020 C   0  0  0  0  0  0  0  0  0  0  0  0
   41.7832  -18.9728    9.6855 C   0  0  0  0  0  0  0  0  0  0  0  0
   42.4949  -19.5012   10.7572 C   0  0  0  0  0  0  0  0  0  0  0  0
   41.8264  -19.8075   11.9786 C   0  0  0  0  0  0  0  0  0  0  0  0
   42.5439  -20.3532   13.0831 C   0  0  0  0  0  0  0  0  0  0  0  0
   41.8778  -20.6483   14.2677 C   0  0  0  0  0  0  0  0  0  0  0  0
   40.5068  -20.4173   14.3773 C   0  0  0  0  0  0  0  0  0  0  0  0
   40.4871  -19.5821   12.0905 C   0  0  0  0  0  0  0  0  0  0  0  0
   38.4227  -18.8266   11.1313 F   0  0  0  0  0  0  0  0  0  0  0  0
   38.7258  -19.6964   13.3897 H   0  0  0  0  0  0  0  0  0  0  0  0
   39.8466  -18.3295    8.9539 H   0  0  0  0  0  0  0  0  0  0  0  0
   42.3020  -18.7349    8.7451 H   0  0  0  0  0  0  0  0  0  0  0  0
   43.5756  -19.6830   10.6623 H   0  0  0  0  0  0  0  0  0  0  0  0
   43.6245  -20.5407   12.9983 H   0  0  0  0  0  0  0  0  0  0  0  0
   42.4338  -21.0651   15.1204 H   0  0  0  0  0  0  0  0  0  0  0  0
   39.9811  -20.6567   15.3134 H   0  0  0  0  0  0  0  0  0  0  0  0
  1  9  2  0
  1 10  1  0
  2  3  1  0
  2 10  2  0
  2 11  1  0
  3  4  2  0
  4  5  1  0
  5  6  2  0
  6  7  1  0
  6 10  1  0
  7  8  2  0
  8  9  1  0
  1 12  1  0
  3 13  1  0
  4 14  1  0
  5 15  1  0
  7 16  1  0
  8 17  1  0
  9 18  1  0
M  END
>  <filename_input>  (2) 
7LOE_Y84_docked.sdf

>  <pdb_id>  (2) 
7LOE_Y84

>  <pose_rank>  (2) 
1

>  <num_atoms_heavy>  (2) 
11

>  <num_torsions>  (2) 
0

>  <pose>  (2) 
[39.80618417661217, -19.884512964760457, 13.303270917617679, 1.634480370533608, 0.7881270029186059, -2.5738958725482393]

>  <energy>  (2) 
-625.2473091429297

>  <inter_energy>  (2) 
-588.4796138893124

>  <intra_energy>  (2) 
0.0

>  <rmsd>  (2) 
3.01598

>  <sdf_rank>  (2) 
0

$$$$

     RDKit          3D

 18 19  0  0  0  0  0  0  0  0999 V2000
   39.2948  -19.0012   11.5924 C   0  0  0  0  0  0  0  0  0  0  0  0
   41.7531  -19.0774   11.5864 C   0  0  0  0  0  0  0  0  0  0  0  0
   42.9505  -19.5210   12.1329 C   0  0  0  0  0  0  0  0  0  0  0  0
   42.9341  -20.3448   13.2595 C   0  0  0  0  0  0  0  0  0  0  0  0
   41.7227  -20.7228   13.8286 C   0  0  0  0  0  0  0  0  0  0  0  0
   40.4946  -20.2675   13.2654 C   0  0  0  0  0  0  0  0  0  0  0  0
   39.2462  -20.6511   13.8371 C   0  0  0  0  0  0  0  0  0  0  0  0
   38.0564  -20.2002   13.2758 C   0  0  0  0  0  0  0  0  0  0  0  0
   38.0800  -19.3772   12.1500 C   0  0  0  0  0  0  0  0  0  0  0  0
   40.5131  -19.4621   12.1663 C   0  0  0  0  0  0  0  0  0  0  0  0
   41.7434  -18.2714   10.4867 F   0  0  0  0  0  0  0  0  0  0  0  0
   39.3157  -18.3476   10.7078 H   0  0  0  0  0  0  0  0  0  0  0  0
   43.9078  -19.2242   11.6797 H   0  0  0  0  0  0  0  0  0  0  0  0
   43.8802  -20.6954   13.6976 H   0  0  0  0  0  0  0  0  0  0  0  0
   41.7120  -21.3742   14.7149 H   0  0  0  0  0  0  0  0  0  0  0  0
   39.2241  -21.3037   14.7224 H   0  0  0  0  0  0  0  0  0  0  0  0
   37.0941  -20.4934   13.7208 H   0  0  0  0  0  0  0  0  0  0  0  0
   37.1374  -19.0264   11.7045 H   0  0  0  0  0  0  0  0  0  0  0  0
  1  9  2  0
  1 10  1  0
  2  3  1  0
  2 10  2  0
  2 11  1  0
  3  4  2  0
  4  5  1  0
  5  6  2  0
  6  7  1  0
  6 10  1  0
  7  8  2  0
  8  9  1  0
  1 12  1  0
  3 13  1  0
  4 14  1  0
  5 15  1  0
  7 16  1  0
  8 17  1  0
  9 18  1  0
M  END
>  <filename_input>  (3) 
7LOE_Y84_docked.sdf

>  <pdb_id>  (3) 
7LOE_Y84

>  <pose_rank>  (3) 
2

>  <num_atoms_heavy>  (3) 
11

>  <num_torsions>  (3) 
0

>  <pose>  (3) 
[39.2948341235745, -19.00116461364938, 11.592401001708687, -2.892207987610178, -0.13959687158198175, 0.6587332825938197]

>  <energy>  (3) 
-618.458863932291

>  <inter_energy>  (3) 
-590.0706994639866

>  <intra_energy>  (3) 
0.0

>  <rmsd>  (3) 
2.48292

>  <sdf_rank>  (3) 
0

$$$$

     RDKit          3D

 18 19  0  0  0  0  0  0  0  0999 V2000
   39.7608  -18.9369   10.9364 C   0  0  0  0  0  0  0  0  0  0  0  0
   39.8347  -20.1317   13.0848 C   0  0  0  0  0  0  0  0  0  0  0  0
   40.5517  -20.7580   14.0961 C   0  0  0  0  0  0  0  0  0  0  0  0
   41.9417  -20.8467   14.0063 C   0  0  0  0  0  0  0  0  0  0  0  0
   42.6050  -20.3056   12.9101 C   0  0  0  0  0  0  0  0  0  0  0  0
   41.8673  -19.6620   11.8737 C   0  0  0  0  0  0  0  0  0  0  0  0
   42.5358  -19.1001   10.7468 C   0  0  0  0  0  0  0  0  0  0  0  0
   41.8028  -18.4740    9.7444 C   0  0  0  0  0  0  0  0  0  0  0  0
   40.4140  -18.3889    9.8404 C   0  0  0  0  0  0  0  0  0  0  0  0
   40.5101  -19.5779   11.9628 C   0  0  0  0  0  0  0  0  0  0  0  0
   38.4763  -20.0333   13.1496 F   0  0  0  0  0  0  0  0  0  0  0  0
   38.6650  -18.8757   11.0112 H   0  0  0  0  0  0  0  0  0  0  0  0
   40.0263  -21.1823   14.9643 H   0  0  0  0  0  0  0  0  0  0  0  0
   42.5132  -21.3450   14.8033 H   0  0  0  0  0  0  0  0  0  0  0  0
   43.7008  -20.3744   12.8427 H   0  0  0  0  0  0  0  0  0  0  0  0
   43.6314  -19.1616   10.6703 H   0  0  0  0  0  0  0  0  0  0  0  0
   42.3197  -18.0449    8.8734 H   0  0  0  0  0  0  0  0  0  0  0  0
   39.8369  -17.8884    9.0489 H   0  0  0  0  0  0  0  0  0  0  0  0
  1  9  2  0
  1 10  1  0
  2  3  1  0
  2 10  2  0
  2 11  1  0
  3  4  2  0
  4  5  1  0
  5  6  2  0
  6  7  1  0
  6 10  1  0
  7  8  2  0
  8  9  1  0
  1 12  1  0
  3 13  1  0
  4 14  1  0
  5 15  1  0
  7 16  1  0
  8 17  1  0
  9 18  1  0
M  END
>  <filename_input>  (4) 
7LOE_Y84_docked.sdf

>  <pdb_id>  (4) 
7LOE_Y84

>  <pose_rank>  (4) 
3

>  <num_atoms_heavy>  (4) 
11

>  <num_torsions>  (4) 
0

>  <pose>  (4) 
[39.7607539559066, -18.93691056762029, 10.936371271677102, -0.160457468838951, -1.7721831387610938, -0.8746254599780413]

>  <energy>  (4) 
-547.5602099593641

>  <inter_energy>  (4) 
-548.5085617874996

>  <intra_energy>  (4) 
0.0

>  <rmsd>  (4) 
3.55388

>  <sdf_rank>  (4) 
0

$$$$

     RDKit          3D

 18 19  0  0  0  0  0  0  0  0999 V2000
   41.5843  -19.9198   11.6811 C   0  0  0  0  0  0  0  0  0  0  0  0
   40.0505  -20.4213   13.5371 C   0  0  0  0  0  0  0  0  0  0  0  0
   38.8069  -20.3020   14.1440 C   0  0  0  0  0  0  0  0  0  0  0  0
   37.8053  -19.5500   13.5280 C   0  0  0  0  0  0  0  0  0  0  0  0
   38.0517  -18.9271   12.3091 C   0  0  0  0  0  0  0  0  0  0  0  0
   39.3285  -19.0518   11.6871 C   0  0  0  0  0  0  0  0  0  0  0  0
   39.5924  -18.4214   10.4360 C   0  0  0  0  0  0  0  0  0  0  0  0
   40.8423  -18.5533    9.8407 C   0  0  0  0  0  0  0  0  0  0  0  0
   41.8387  -19.3061   10.4617 C   0  0  0  0  0  0  0  0  0  0  0  0
   40.3053  -19.7854   12.2912 C   0  0  0  0  0  0  0  0  0  0  0  0
   41.0450  -21.1498   14.1197 F   0  0  0  0  0  0  0  0  0  0  0  0
   42.3706  -20.5095   12.1752 H   0  0  0  0  0  0  0  0  0  0  0  0
   38.6121  -20.7981   15.1062 H   0  0  0  0  0  0  0  0  0  0  0  0
   36.8201  -19.4499   14.0069 H   0  0  0  0  0  0  0  0  0  0  0  0
   37.2601  -18.3371   11.8241 H   0  0  0  0  0  0  0  0  0  0  0  0
   38.8073  -17.8306    9.9414 H   0  0  0  0  0  0  0  0  0  0  0  0
   41.0457  -18.0625    8.8775 H   0  0  0  0  0  0  0  0  0  0  0  0
   42.8247  -19.4136    9.9862 H   0  0  0  0  0  0  0  0  0  0  0  0
  1  9  2  0
  1 10  1  0
  2  3  1  0
  2 10  2  0
  2 11  1  0
  3  4  2  0
  4  5  1  0
  5  6  2  0
  6  7  1  0
  6 10  1  0
  7  8  2  0
  8  9  1  0
  1 12  1  0
  3 13  1  0
  4 14  1  0
  5 15  1  0
  7 16  1  0
  8 17  1  0
  9 18  1  0
M  END
>  <filename_input>  (5) 
7LOE_Y84_docked.sdf

>  <pdb_id>  (5) 
7LOE_Y84

>  <pose_rank>  (5) 
4

>  <num_atoms_heavy>  (5) 
11

>  <num_torsions>  (5) 
0

>  <pose>  (5) 
[41.584278579783444, -19.919826313056433, 11.681079124287228, 1.8094227947565187, -1.479840215039963, 1.9445301628384708]

>  <energy>  (5) 
-593.0299007999831

>  <inter_energy>  (5) 
-574.2247571889404

>  <intra_energy>  (5) 
0.0

>  <rmsd>  (5) 
3.34345

>  <sdf_rank>  (5) 
0

$$$$

     RDKit          3D

 18 19  0  0  0  0  0  0  0  0999 V2000
   41.1872  -18.8071   10.6070 C   0  0  0  0  0  0  0  0  0  0  0  0
   42.3501  -19.9860   12.4254 C   0  0  0  0  0  0  0  0  0  0  0  0
   42.3258  -20.6592   13.6400 C   0  0  0  0  0  0  0  0  0  0  0  0
   41.1121  -20.8470   14.3032 C   0  0  0  0  0  0  0  0  0  0  0  0
   39.9322  -20.3654   13.7463 C   0  0  0  0  0  0  0  0  0  0  0  0
   39.9591  -19.6758   12.4988 C   0  0  0  0  0  0  0  0  0  0  0  0
   38.7559  -19.1808   11.9157 C   0  0  0  0  0  0  0  0  0  0  0  0
   38.7978  -18.5113   10.6975 C   0  0  0  0  0  0  0  0  0  0  0  0
   40.0140  -18.3270   10.0402 C   0  0  0  0  0  0  0  0  0  0  0  0
   41.1454  -19.4924   11.8539 C   0  0  0  0  0  0  0  0  0  0  0  0
   43.5234  -19.7895   11.7591 F   0  0  0  0  0  0  0  0  0  0  0  0
   42.1481  -18.6579   10.0929 H   0  0  0  0  0  0  0  0  0  0  0  0
   43.2593  -21.0427   14.0776 H   0  0  0  0  0  0  0  0  0  0  0  0
   41.0888  -21.3764   15.2671 H   0  0  0  0  0  0  0  0  0  0  0  0
   38.9764  -20.5169   14.2694 H   0  0  0  0  0  0  0  0  0  0  0  0
   37.7945  -19.3284   12.4295 H   0  0  0  0  0  0  0  0  0  0  0  0
   37.8691  -18.1260   10.2511 H   0  0  0  0  0  0  0  0  0  0  0  0
   40.0438  -17.8020    9.0740 H   0  0  0  0  0  0  0  0  0  0  0  0
  1  9  2  0
  1 10  1  0
  2  3  1  0
  2 10  2  0
  2 11  1  0
  3  4  2  0
  4  5  1  0
  5  6  2  0
  6  7  1  0
  6 10  1  0
  7  8  2  0
  8  9  1  0
  1 12  1  0
  3 13  1  0
  4 14  1  0
  5 15  1  0
  7 16  1  0
  8 17  1  0
  9 18  1  0
M  END
>  <filename_input>  (6) 
7LOE_Y84_docked.sdf

>  <pdb_id>  (6) 
7LOE_Y84

>  <pose_rank>  (6) 
5

>  <num_atoms_heavy>  (6) 
11

>  <num_torsions>  (6) 
0

>  <pose>  (6) 
[41.18719837555216, -18.807065463507023, 10.607030515037387, 3.0273424953522183, -0.7857921997070278, 0.7077293971213958]

>  <energy>  (6) 
-529.2895180115742

>  <inter_energy>  (6) 
-528.6911595913522

>  <intra_energy>  (6) 
0.0

>  <rmsd>  (6) 
2.7816

>  <sdf_rank>  (6) 
0

$$$$

     RDKit          3D

 18 19  0  0  0  0  0  0  0  0999 V2000
   42.1012  -19.8077   11.2887 C   0  0  0  0  0  0  0  0  0  0  0  0
   39.7938  -18.9761   11.1057 C   0  0  0  0  0  0  0  0  0  0  0  0
   38.5281  -18.7924   11.6473 C   0  0  0  0  0  0  0  0  0  0  0  0
   38.2519  -19.2567   12.9342 C   0  0  0  0  0  0  0  0  0  0  0  0
   39.2424  -19.8964   13.6717 C   0  0  0  0  0  0  0  0  0  0  0  0
   40.5415  -20.0828   13.1145 C   0  0  0  0  0  0  0  0  0  0  0  0
   41.5665  -20.7336   13.8617 C   0  0  0  0  0  0  0  0  0  0  0  0
   42.8292  -20.9069   13.3053 C   0  0  0  0  0  0  0  0  0  0  0  0
   43.0985  -20.4406   12.0188 C   0  0  0  0  0  0  0  0  0  0  0  0
   40.8084  -19.6299   11.8572 C   0  0  0  0  0  0  0  0  0  0  0  0
   40.0876  -18.5321    9.8504 F   0  0  0  0  0  0  0  0  0  0  0  0
   42.3100  -19.4442   10.2717 H   0  0  0  0  0  0  0  0  0  0  0  0
   37.7466  -18.2831   11.0644 H   0  0  0  0  0  0  0  0  0  0  0  0
   37.2498  -19.1165   13.3656 H   0  0  0  0  0  0  0  0  0  0  0  0
   39.0233  -20.2592   14.6868 H   0  0  0  0  0  0  0  0  0  0  0  0
   41.3586  -21.0986   14.8783 H   0  0  0  0  0  0  0  0  0  0  0  0
   43.6177  -21.4131   13.8815 H   0  0  0  0  0  0  0  0  0  0  0  0
   44.0997  -20.5739   11.5831 H   0  0  0  0  0  0  0  0  0  0  0  0
  1  9  2  0
  1 10  1  0
  2  3  1  0
  2 10  2  0
  2 11  1  0
  3  4  2  0
  4  5  1  0
  5  6  2  0
  6  7  1  0
  6 10  1  0
  7  8  2  0
  8  9  1  0
  1 12  1  0
  3 13  1  0
  4 14  1  0
  5 15  1  0
  7 16  1  0
  8 17  1  0
  9 18  1  0
M  END
>  <filename_input>  (7) 
7LOE_Y84_docked.sdf

>  <pdb_id>  (7) 
7LOE_Y84

>  <pose_rank>  (7) 
6

>  <num_atoms_heavy>  (7) 
11

>  <num_torsions>  (7) 
0

>  <pose>  (7) 
[42.101157721768494, -19.8077471970681, 11.288690675854783, 0.497485356441915, 2.252134941571945, 0.9289186740539138]

>  <energy>  (7) 
-582.285284408606

>  <inter_energy>  (7) 
-556.2524717960679

>  <intra_energy>  (7) 
0.0

>  <rmsd>  (7) 
3.97704

>  <sdf_rank>  (7) 
0

$$$$

     RDKit          3D

 18 19  0  0  0  0  0  0  0  0999 V2000
   38.9790  -19.7090   12.5576 C   0  0  0  0  0  0  0  0  0  0  0  0
   41.0356  -20.4882   13.6587 C   0  0  0  0  0  0  0  0  0  0  0  0
   42.4192  -20.6039   13.6936 C   0  0  0  0  0  0  0  0  0  0  0  0
   43.1851  -20.0661   12.6581 C   0  0  0  0  0  0  0  0  0  0  0  0
   42.5640  -19.4132   11.5988 C   0  0  0  0  0  0  0  0  0  0  0  0
   41.1436  -19.2943   11.5655 C   0  0  0  0  0  0  0  0  0  0  0  0
   40.4953  -18.6240   10.4871 C   0  0  0  0  0  0  0  0  0  0  0  0
   39.1090  -18.5147   10.4691 C   0  0  0  0  0  0  0  0  0  0  0  0
   38.3497  -19.0545   11.5070 C   0  0  0  0  0  0  0  0  0  0  0  0
   40.3978  -19.8215   12.5769 C   0  0  0  0  0  0  0  0  0  0  0  0
   40.2660  -21.0061   14.6581 F   0  0  0  0  0  0  0  0  0  0  0  0
   38.3816  -20.1403   13.3744 H   0  0  0  0  0  0  0  0  0  0  0  0
   42.9094  -21.1174   14.5338 H   0  0  0  0  0  0  0  0  0  0  0  0
   44.2810  -20.1586   12.6800 H   0  0  0  0  0  0  0  0  0  0  0  0
   43.1697  -18.9877   10.7851 H   0  0  0  0  0  0  0  0  0  0  0  0
   41.0916  -18.1934    9.6692 H   0  0  0  0  0  0  0  0  0  0  0  0
   38.6100  -18.0011    9.6341 H   0  0  0  0  0  0  0  0  0  0  0  0
   37.2537  -18.9619   11.4934 H   0  0  0  0  0  0  0  0  0  0  0  0
  1  9  2  0
  1 10  1  0
  2  3  1  0
  2 10  2  0
  2 11  1  0
  3  4  2  0
  4  5  1  0
  5  6  2  0
  6  7  1  0
  6 10  1  0
  7  8  2  0
  8  9  1  0
  1 12  1  0
  3 13  1  0
  4 14  1  0
  5 15  1  0
  7 16  1  0
  8 17  1  0
  9 18  1  0
M  END
>  <filename_input>  (8) 
7LOE_Y84_docked.sdf

>  <pdb_id>  (8) 
7LOE_Y84

>  <pose_rank>  (8) 
7

>  <num_atoms_heavy>  (8) 
11

>  <num_torsions>  (8) 
0

>  <pose>  (8) 
[38.97904208890267, -19.709030533581622, 12.557621890838924, 0.08102989505585027, 4.7913176320731425, 2.169531484399252]

>  <energy>  (8) 
-575.3586017129182

>  <inter_energy>  (8) 
-580.600008650893

>  <intra_energy>  (8) 
0.0

>  <rmsd>  (8) 
2.05818

>  <sdf_rank>  (8) 
0

$$$$

     RDKit          3D

 18 19  0  0  0  0  0  0  0  0999 V2000
   41.6183  -20.4207   13.0238 C   0  0  0  0  0  0  0  0  0  0  0  0
   39.2083  -20.2254   12.5739 C   0  0  0  0  0  0  0  0  0  0  0  0
   38.1559  -19.7261   11.8173 C   0  0  0  0  0  0  0  0  0  0  0  0
   38.4202  -18.8959   10.7269 C   0  0  0  0  0  0  0  0  0  0  0  0
   39.7327  -18.5746   10.3978 C   0  0  0  0  0  0  0  0  0  0  0  0
   40.8116  -19.0893   11.1749 C   0  0  0  0  0  0  0  0  0  0  0  0
   42.1616  -18.7704   10.8455 C   0  0  0  0  0  0  0  0  0  0  0  0
   43.2036  -19.2811   11.6120 C   0  0  0  0  0  0  0  0  0  0  0  0
   42.9325  -20.1101   12.7003 C   0  0  0  0  0  0  0  0  0  0  0  0
   40.5511  -19.8984   12.2399 C   0  0  0  0  0  0  0  0  0  0  0  0
   38.9753  -21.0376   13.6441 F   0  0  0  0  0  0  0  0  0  0  0  0
   41.4021  -21.0698   13.8851 H   0  0  0  0  0  0  0  0  0  0  0  0
   37.1184  -19.9839   12.0765 H   0  0  0  0  0  0  0  0  0  0  0  0
   37.5895  -18.4954   10.1272 H   0  0  0  0  0  0  0  0  0  0  0  0
   39.9388  -17.9223    9.5364 H   0  0  0  0  0  0  0  0  0  0  0  0
   42.3789  -18.1205    9.9851 H   0  0  0  0  0  0  0  0  0  0  0  0
   44.2444  -19.0306   11.3592 H   0  0  0  0  0  0  0  0  0  0  0  0
   43.7587  -20.5173   13.3017 H   0  0  0  0  0  0  0  0  0  0  0  0
  1  9  2  0
  1 10  1  0
  2  3  1  0
  2 10  2  0
  2 11  1  0
  3  4  2  0
  4  5  1  0
  5  6  2  0
  6  7  1  0
  6 10  1  0
  7  8  2  0
  8  9  1  0
  1 12  1  0
  3 13  1  0
  4 14  1  0
  5 15  1  0
  7 16  1  0
  8 17  1  0
  9 18  1  0
M  END
>  <filename_input>  (9) 
7LOE_Y84_docked.sdf

>  <pdb_id>  (9) 
7LOE_Y84

>  <pose_rank>  (9) 
8

>  <num_atoms_heavy>  (9) 
11

>  <num_torsions>  (9) 
0

>  <pose>  (9) 
[41.61829689796119, -20.420684760352145, 13.023777149950654, 0.3914263187678617, -1.7096835135372253, 2.8346389219151047]

>  <energy>  (9) 
-533.9717819881062

>  <inter_energy>  (9) 
-530.0979505546534

>  <intra_energy>  (9) 
0.0

>  <rmsd>  (9) 
3.42127

>  <sdf_rank>  (9) 
0

$$$$

     RDKit          3D

 18 19  0  0  0  0  0  0  0  0999 V2000
   42.6152  -19.8122   11.4243 C   0  0  0  0  0  0  0  0  0  0  0  0
   41.0097  -20.0558   13.2714 C   0  0  0  0  0  0  0  0  0  0  0  0
   39.7320  -19.8960   13.7920 C   0  0  0  0  0  0  0  0  0  0  0  0
   38.7322  -19.3188   13.0076 C   0  0  0  0  0  0  0  0  0  0  0  0
   39.0146  -18.9100   11.7086 C   0  0  0  0  0  0  0  0  0  0  0  0
   40.3265  -19.0762   11.1756 C   0  0  0  0  0  0  0  0  0  0  0  0
   40.6277  -18.6648    9.8442 C   0  0  0  0  0  0  0  0  0  0  0  0
   41.9116  -18.8347    9.3376 C   0  0  0  0  0  0  0  0  0  0  0  0
   42.9060  -19.4121   10.1268 C   0  0  0  0  0  0  0  0  0  0  0  0
   41.3014  -19.6387   11.9438 C   0  0  0  0  0  0  0  0  0  0  0  0
   42.0032  -20.6163   14.0184 F   0  0  0  0  0  0  0  0  0  0  0  0
   43.3995  -20.2628   12.0503 H   0  0  0  0  0  0  0  0  0  0  0  0
   39.5089  -20.2230   14.8183 H   0  0  0  0  0  0  0  0  0  0  0  0
   37.7198  -19.1870   13.4173 H   0  0  0  0  0  0  0  0  0  0  0  0
   38.2245  -18.4577   11.0913 H   0  0  0  0  0  0  0  0  0  0  0  0
   39.8445  -18.2131    9.2177 H   0  0  0  0  0  0  0  0  0  0  0  0
   42.1435  -18.5127    8.3116 H   0  0  0  0  0  0  0  0  0  0  0  0
   43.9194  -19.5505    9.7219 H   0  0  0  0  0  0  0  0  0  0  0  0
  1  9  2  0
  1 10  1  0
  2  3  1  0
  2 10  2  0
  2 11  1  0
  3  4  2  0
  4  5  1  0
  5  6  2  0
  6  7  1  0
  6 10  1  0
  7  8  2  0
  8  9  1  0
  1 12  1  0
  3 13  1  0
  4 14  1  0
  5 15  1  0
  7 16  1  0
  8 17  1  0
  9 18  1  0
M  END
>  <filename_input>  (10) 
7LOE_Y84_docked.sdf

>  <pdb_id>  (10) 
7LOE_Y84

>  <pose_rank>  (10) 
9

>  <num_atoms_heavy>  (10) 
11

>  <num_torsions>  (10) 
0

>  <pose>  (10) 
[42.61520270291002, -19.81217663143942, 11.424337342668187, 1.7485333916899402, -1.2390853385817482, 2.082947866690471]

>  <energy>  (10) 
-542.0271326624278

>  <inter_energy>  (10) 
-533.5947348831595

>  <intra_energy>  (10) 
0.0

>  <rmsd>  (10) 
3.35121

>  <sdf_rank>  (10) 
0

$$$$

     RDKit          3D

 18 19  0  0  0  0  0  0  0  0999 V2000
   38.3742  -19.3371   11.0233 C   0  0  0  0  0  0  0  0  0  0  0  0
   40.4510  -18.4950   10.0100 C   0  0  0  0  0  0  0  0  0  0  0  0
   41.8365  -18.4965    9.9136 C   0  0  0  0  0  0  0  0  0  0  0  0
   42.5868  -19.3377   10.7366 C   0  0  0  0  0  0  0  0  0  0  0  0
   41.9478  -20.1739   11.6459 C   0  0  0  0  0  0  0  0  0  0  0  0
   40.5254  -20.1719   11.7425 C   0  0  0  0  0  0  0  0  0  0  0  0
   39.8584  -21.0271   12.6678 C   0  0  0  0  0  0  0  0  0  0  0  0
   38.4701  -21.0151   12.7496 C   0  0  0  0  0  0  0  0  0  0  0  0
   37.7264  -20.1719   11.9242 C   0  0  0  0  0  0  0  0  0  0  0  0
   39.7950  -19.3486   10.9389 C   0  0  0  0  0  0  0  0  0  0  0  0
   39.6965  -17.6816    9.2173 F   0  0  0  0  0  0  0  0  0  0  0  0
   37.7897  -18.6673   10.3753 H   0  0  0  0  0  0  0  0  0  0  0  0
   42.3405  -17.8373    9.1914 H   0  0  0  0  0  0  0  0  0  0  0  0
   43.6845  -19.3394   10.6660 H   0  0  0  0  0  0  0  0  0  0  0  0
   42.5410  -20.8380   12.2918 H   0  0  0  0  0  0  0  0  0  0  0  0
   40.4418  -21.6964   13.3171 H   0  0  0  0  0  0  0  0  0  0  0  0
   37.9572  -21.6723   13.4672 H   0  0  0  0  0  0  0  0  0  0  0  0
   36.6282  -20.1683   11.9869 H   0  0  0  0  0  0  0  0  0  0  0  0
  1  9  2  0
  1 10  1  0
  2  3  1  0
  2 10  2  0
  2 11  1  0
  3  4  2  0
  4  5  1  0
  5  6  2  0
  6  7  1  0
  6 10  1  0
  7  8  2  0
  8  9  1  0
  1 12  1  0
  3 13  1  0
  4 14  1  0
  5 15  1  0
  7 16  1  0
  8 17  1  0
  9 18  1  0
M  END
>  <filename_input>  (11) 
7LOE_Y84_docked.sdf

>  <pdb_id>  (11) 
7LOE_Y84

>  <pose_rank>  (11) 
10

>  <num_atoms_heavy>  (11) 
11

>  <num_torsions>  (11) 
0

>  <pose>  (11) 
[38.37416587520052, -19.337063199990144, 11.023277061023414, 2.952157507268238, 0.730195285974921, -1.5092599908109146]

>  <energy>  (11) 
-465.45773638567596

>  <inter_energy>  (11) 
-473.8704305717951

>  <intra_energy>  (11) 
0.0

>  <rmsd>  (11) 
2.89538

>  <sdf_rank>  (11) 
0

$$$$

     RDKit          3D

 18 19  0  0  0  0  0  0  0  0999 V2000
   41.9228  -19.2070   12.5839 C   0  0  0  0  0  0  0  0  0  0  0  0
   39.9900  -20.2727   13.6688 C   0  0  0  0  0  0  0  0  0  0  0  0
   38.7052  -20.7967   13.6064 C   0  0  0  0  0  0  0  0  0  0  0  0
   38.0142  -20.7929   12.3937 C   0  0  0  0  0  0  0  0  0  0  0  0
   38.6130  -20.2703   11.2523 C   0  0  0  0  0  0  0  0  0  0  0  0
   39.9324  -19.7341   11.3182 C   0  0  0  0  0  0  0  0  0  0  0  0
   40.5585  -19.1991   10.1545 C   0  0  0  0  0  0  0  0  0  0  0  0
   41.8466  -18.6808   10.2339 C   0  0  0  0  0  0  0  0  0  0  0  0
   42.5314  -18.6877   11.4489 C   0  0  0  0  0  0  0  0  0  0  0  0
   40.6045  -19.7376   12.5036 C   0  0  0  0  0  0  0  0  0  0  0  0
   40.6847  -20.2645   14.8420 F   0  0  0  0  0  0  0  0  0  0  0  0
   42.4592  -19.2083   13.5443 H   0  0  0  0  0  0  0  0  0  0  0  0
   38.2341  -21.2130   14.5091 H   0  0  0  0  0  0  0  0  0  0  0  0
   36.9952  -21.2036   12.3407 H   0  0  0  0  0  0  0  0  0  0  0  0
   38.0676  -20.2707   10.2971 H   0  0  0  0  0  0  0  0  0  0  0  0
   40.0228  -19.1962    9.1938 H   0  0  0  0  0  0  0  0  0  0  0  0
   42.3266  -18.2643    9.3361 H   0  0  0  0  0  0  0  0  0  0  0  0
   43.5522  -18.2822   11.5080 H   0  0  0  0  0  0  0  0  0  0  0  0
  1  9  2  0
  1 10  1  0
  2  3  1  0
  2 10  2  0
  2 11  1  0
  3  4  2  0
  4  5  1  0
  5  6  2  0
  6  7  1  0
  6 10  1  0
  7  8  2  0
  8  9  1  0
  1 12  1  0
  3 13  1  0
  4 14  1  0
  5 15  1  0
  7 16  1  0
  8 17  1  0
  9 18  1  0
M  END
>  <filename_input>  (12) 
7LOE_Y84_docked.sdf

>  <pdb_id>  (12) 
7LOE_Y84

>  <pose_rank>  (12) 
11

>  <num_atoms_heavy>  (12) 
11

>  <num_torsions>  (12) 
0

>  <pose>  (12) 
[41.92283104947171, -19.20696993343104, 12.58389813805393, 1.7604246140749031, -0.7743132716852952, 2.9058322892690507]

>  <energy>  (12) 
-476.21819238229733

>  <inter_energy>  (12) 
-470.6475320058013

>  <intra_energy>  (12) 
0.0

>  <rmsd>  (12) 
3.35459

>  <sdf_rank>  (12) 
0

$$$$

     RDKit          3D

 18 19  0  0  0  0  0  0  0  0999 V2000
   41.1948  -18.4774   12.0845 C   0  0  0  0  0  0  0  0  0  0  0  0
   38.9515  -18.9950   12.9498 C   0  0  0  0  0  0  0  0  0  0  0  0
   37.6697  -19.4966   12.7638 C   0  0  0  0  0  0  0  0  0  0  0  0
   37.2963  -19.9961   11.5152 C   0  0  0  0  0  0  0  0  0  0  0  0
   38.2067  -19.9950   10.4637 C   0  0  0  0  0  0  0  0  0  0  0  0
   39.5224  -19.4809   10.6570 C   0  0  0  0  0  0  0  0  0  0  0  0
   40.4659  -19.4779    9.5883 C   0  0  0  0  0  0  0  0  0  0  0  0
   41.7462  -18.9744    9.7924 C   0  0  0  0  0  0  0  0  0  0  0  0
   42.1127  -18.4767   11.0426 C   0  0  0  0  0  0  0  0  0  0  0  0
   39.8842  -18.9924   11.8766 C   0  0  0  0  0  0  0  0  0  0  0  0
   39.3394  -18.5009   14.1600 F   0  0  0  0  0  0  0  0  0  0  0  0
   41.4802  -18.0802   13.0698 H   0  0  0  0  0  0  0  0  0  0  0  0
   36.9518  -19.5001   13.5972 H   0  0  0  0  0  0  0  0  0  0  0  0
   36.2811  -20.3909   11.3626 H   0  0  0  0  0  0  0  0  0  0  0  0
   37.9111  -20.3916    9.4812 H   0  0  0  0  0  0  0  0  0  0  0  0
   40.1813  -19.8737    8.6022 H   0  0  0  0  0  0  0  0  0  0  0  0
   42.4716  -18.9687    8.9655 H   0  0  0  0  0  0  0  0  0  0  0  0
   43.1277  -18.0841   11.2031 H   0  0  0  0  0  0  0  0  0  0  0  0
  1  9  2  0
  1 10  1  0
  2  3  1  0
  2 10  2  0
  2 11  1  0
  3  4  2  0
  4  5  1  0
  5  6  2  0
  6  7  1  0
  6 10  1  0
  7  8  2  0
  8  9  1  0
  1 12  1  0
  3 13  1  0
  4 14  1  0
  5 15  1  0
  7 16  1  0
  8 17  1  0
  9 18  1  0
M  END
>  <filename_input>  (13) 
7LOE_Y84_docked.sdf

>  <pdb_id>  (13) 
7LOE_Y84

>  <pose_rank>  (13) 
12

>  <num_atoms_heavy>  (13) 
11

>  <num_torsions>  (13) 
0

>  <pose>  (13) 
[41.194780240349914, -18.4774009181926, 12.084530942525042, 1.3257467690372535, -0.10203875582915395, 2.9902592309615406]

>  <energy>  (13) 
-385.3888410532786

>  <inter_energy>  (13) 
-387.46589452332086

>  <intra_energy>  (13) 
0.0

>  <rmsd>  (13) 
3.77034

>  <sdf_rank>  (13) 
0

$$$$

     RDKit          3D

 18 19  0  0  0  0  0  0  0  0999 V2000
   40.2239  -20.0789   13.8381 C   0  0  0  0  0  0  0  0  0  0  0  0
   42.4801  -19.8996   12.8758 C   0  0  0  0  0  0  0  0  0  0  0  0
   43.3212  -19.5888   11.8151 C   0  0  0  0  0  0  0  0  0  0  0  0
   42.7786  -19.1402   10.6100 C   0  0  0  0  0  0  0  0  0  0  0  0
   41.4013  -19.0013   10.4749 C   0  0  0  0  0  0  0  0  0  0  0  0
   40.5398  -19.3197   11.5653 C   0  0  0  0  0  0  0  0  0  0  0  0
   39.1267  -19.1778   11.4407 C   0  0  0  0  0  0  0  0  0  0  0  0
   38.2990  -19.4909   12.5136 C   0  0  0  0  0  0  0  0  0  0  0  0
   38.8478  -19.9386   13.7150 C   0  0  0  0  0  0  0  0  0  0  0  0
   41.0717  -19.7588   12.7405 C   0  0  0  0  0  0  0  0  0  0  0  0
   42.9864  -20.3403   14.0627 F   0  0  0  0  0  0  0  0  0  0  0  0
   40.6583  -20.4372   14.7830 H   0  0  0  0  0  0  0  0  0  0  0  0
   44.4105  -19.6956   11.9244 H   0  0  0  0  0  0  0  0  0  0  0  0
   43.4408  -18.8964    9.7662 H   0  0  0  0  0  0  0  0  0  0  0  0
   40.9760  -18.6452    9.5250 H   0  0  0  0  0  0  0  0  0  0  0  0
   38.6910  -18.8207   10.4959 H   0  0  0  0  0  0  0  0  0  0  0  0
   37.2086  -19.3851   12.4143 H   0  0  0  0  0  0  0  0  0  0  0  0
   38.1915  -20.1803   14.5640 H   0  0  0  0  0  0  0  0  0  0  0  0
  1  9  2  0
  1 10  1  0
  2  3  1  0
  2 10  2  0
  2 11  1  0
  3  4  2  0
  4  5  1  0
  5  6  2  0
  6  7  1  0
  6 10  1  0
  7  8  2  0
  8  9  1  0
  1 12  1  0
  3 13  1  0
  4 14  1  0
  5 15  1  0
  7 16  1  0
  8 17  1  0
  9 18  1  0
M  END
>  <filename_input>  (14) 
7LOE_Y84_docked.sdf

>  <pdb_id>  (14) 
7LOE_Y84

>  <pose_rank>  (14) 
13

>  <num_atoms_heavy>  (14) 
11

>  <num_torsions>  (14) 
0

>  <pose>  (14) 
[40.22385077059609, -20.07890934092506, 13.838073525212153, -5.327904886193979, -3.0517180102596195, 1.8540649400710418]

>  <energy>  (14) 
-599.5748460817781

>  <inter_energy>  (14) 
-583.8766717361541

>  <intra_energy>  (14) 
0.0

>  <rmsd>  (14) 
0.467192

>  <sdf_rank>  (14) 
0

$$$$

     RDKit          3D

 18 19  0  0  0  0  0  0  0  0999 V2000
   38.9835  -19.5969   11.3704 C   0  0  0  0  0  0  0  0  0  0  0  0
   40.8704  -18.6637   10.0985 C   0  0  0  0  0  0  0  0  0  0  0  0
   42.2294  -18.4119    9.9610 C   0  0  0  0  0  0  0  0  0  0  0  0
   43.1144  -18.8260   10.9577 C   0  0  0  0  0  0  0  0  0  0  0  0
   42.6363  -19.4919   12.0813 C   0  0  0  0  0  0  0  0  0  0  0  0
   41.2411  -19.7506   12.2199 C   0  0  0  0  0  0  0  0  0  0  0  0
   40.7390  -20.4357   13.3649 C   0  0  0  0  0  0  0  0  0  0  0  0
   39.3756  -20.6822   13.4854 C   0  0  0  0  0  0  0  0  0  0  0  0
   38.4968  -20.2657   12.4858 C   0  0  0  0  0  0  0  0  0  0  0  0
   40.3788  -19.3442   11.2461 C   0  0  0  0  0  0  0  0  0  0  0  0
   39.9862  -18.2684    9.1387 F   0  0  0  0  0  0  0  0  0  0  0  0
   38.2914  -19.2627   10.5835 H   0  0  0  0  0  0  0  0  0  0  0  0
   42.6067  -17.8883    9.0703 H   0  0  0  0  0  0  0  0  0  0  0  0
   44.1910  -18.6254   10.8546 H   0  0  0  0  0  0  0  0  0  0  0  0
   43.3358  -19.8196   12.8643 H   0  0  0  0  0  0  0  0  0  0  0  0
   41.4300  -20.7694   14.1530 H   0  0  0  0  0  0  0  0  0  0  0  0
   38.9893  -21.2070   14.3716 H   0  0  0  0  0  0  0  0  0  0  0  0
   37.4195  -20.4667   12.5808 H   0  0  0  0  0  0  0  0  0  0  0  0
  1  9  2  0
  1 10  1  0
  2  3  1  0
  2 10  2  0
  2 11  1  0
  3  4  2  0
  4  5  1  0
  5  6  2  0
  6  7  1  0
  6 10  1  0
  7  8  2  0
  8  9  1  0
  1 12  1  0
  3 13  1  0
  4 14  1  0
  5 15  1  0
  7 16  1  0
  8 17  1  0
  9 18  1  0
M  END
>  <filename_input>  (15) 
7LOE_Y84_docked.sdf

>  <pdb_id>  (15) 
7LOE_Y84

>  <pose_rank>  (15) 
14

>  <num_atoms_heavy>  (15) 
11

>  <num_torsions>  (15) 
0

>  <pose>  (15) 
[38.98351709391501, -19.59688656423206, 11.370379769899746, -18.651073673243722, -5.240362740782111, 10.575064306340114]

>  <energy>  (15) 
-513.6916122260359

>  <inter_energy>  (15) 
-524.494855601095

>  <intra_energy>  (15) 
0.0

>  <rmsd>  (15) 
2.77957

>  <sdf_rank>  (15) 
0

$$$$

     RDKit          3D

 18 19  0  0  0  0  0  0  0  0999 V2000
   37.7310  -19.3046   13.4282 C   0  0  0  0  0  0  0  0  0  0  0  0
   39.1427  -20.1018   11.5787 C   0  0  0  0  0  0  0  0  0  0  0  0
   40.0576  -19.8559   10.5631 C   0  0  0  0  0  0  0  0  0  0  0  0
   40.5070  -18.5541   10.3364 C   0  0  0  0  0  0  0  0  0  0  0  0
   40.0429  -17.5091   11.1282 C   0  0  0  0  0  0  0  0  0  0  0  0
   39.1047  -17.7637   12.1712 C   0  0  0  0  0  0  0  0  0  0  0  0
   38.6245  -16.7018   12.9922 C   0  0  0  0  0  0  0  0  0  0  0  0
   37.7105  -16.9658   14.0066 C   0  0  0  0  0  0  0  0  0  0  0  0
   37.2656  -18.2690   14.2276 C   0  0  0  0  0  0  0  0  0  0  0  0
   38.6664  -19.0354   12.3897 C   0  0  0  0  0  0  0  0  0  0  0  0
   38.6884  -21.3648   11.8189 F   0  0  0  0  0  0  0  0  0  0  0  0
   37.3771  -20.3323   13.5974 H   0  0  0  0  0  0  0  0  0  0  0  0
   40.4266  -20.6838    9.9399 H   0  0  0  0  0  0  0  0  0  0  0  0
   41.2288  -18.3544    9.5308 H   0  0  0  0  0  0  0  0  0  0  0  0
   40.4004  -16.4842   10.9495 H   0  0  0  0  0  0  0  0  0  0  0  0
   38.9768  -15.6735   12.8232 H   0  0  0  0  0  0  0  0  0  0  0  0
   37.3375  -16.1446   14.6363 H   0  0  0  0  0  0  0  0  0  0  0  0
   36.5469  -18.4762   15.0342 H   0  0  0  0  0  0  0  0  0  0  0  0
  1  9  2  0
  1 10  1  0
  2  3  1  0
  2 10  2  0
  2 11  1  0
  3  4  2  0
  4  5  1  0
  5  6  2  0
  6  7  1  0
  6 10  1  0
  7  8  2  0
  8  9  1  0
  1 12  1  0
  3 13  1  0
  4 14  1  0
  5 15  1  0
  7 16  1  0
  8 17  1  0
  9 18  1  0
M  END
>  <filename_input>  (16) 
7LOE_Y84_docked.sdf

>  <pdb_id>  (16) 
7LOE_Y84

>  <pose_rank>  (16) 
15

>  <num_atoms_heavy>  (16) 
11

>  <num_torsions>  (16) 
0

>  <pose>  (16) 
[37.73098797862926, -19.304647714900767, 13.428205383846969, -2.7957320158153287, -0.8474594807062182, 3.968953142915792]

>  <energy>  (16) 
-310.0477277782261

>  <inter_energy>  (16) 
-311.9341124020678

>  <intra_energy>  (16) 
0.0

>  <rmsd>  (16) 
2.70416

>  <sdf_rank>  (16) 
0

$$$$

     RDKit          3D

 18 19  0  0  0  0  0  0  0  0999 V2000
   45.6409  -13.0029   15.5789 C   0  0  0  0  0  0  0  0  0  0  0  0
   47.3304  -12.0609   14.0599 C   0  0  0  0  0  0  0  0  0  0  0  0
   47.8046  -11.0159   13.2776 C   0  0  0  0  0  0  0  0  0  0  0  0
   47.0775   -9.8275   13.1953 C   0  0  0  0  0  0  0  0  0  0  0  0
   45.8852   -9.6901   13.8982 C   0  0  0  0  0  0  0  0  0  0  0  0
   45.4007  -10.7635   14.7018 C   0  0  0  0  0  0  0  0  0  0  0  0
   44.1820  -10.6337   15.4301 C   0  0  0  0  0  0  0  0  0  0  0  0
   43.7228  -11.6889   16.2110 C   0  0  0  0  0  0  0  0  0  0  0  0
   44.4544  -12.8738   16.2887 C   0  0  0  0  0  0  0  0  0  0  0  0
   46.1117  -11.9234   14.7794 C   0  0  0  0  0  0  0  0  0  0  0  0
   48.0225  -13.2318   14.1555 F   0  0  0  0  0  0  0  0  0  0  0  0
   46.2165  -13.9386   15.6345 H   0  0  0  0  0  0  0  0  0  0  0  0
   48.7496  -11.1245   12.7250 H   0  0  0  0  0  0  0  0  0  0  0  0
   47.4476   -8.9986   12.5740 H   0  0  0  0  0  0  0  0  0  0  0  0
   45.3151   -8.7516   13.8340 H   0  0  0  0  0  0  0  0  0  0  0  0
   43.6050   -9.6989   15.3745 H   0  0  0  0  0  0  0  0  0  0  0  0
   42.7800  -11.5888   16.7688 H   0  0  0  0  0  0  0  0  0  0  0  0
   44.0919  -13.7050   16.9114 H   0  0  0  0  0  0  0  0  0  0  0  0
  1  9  2  0
  1 10  1  0
  2  3  1  0
  2 10  2  0
  2 11  1  0
  3  4  2  0
  4  5  1  0
  5  6  2  0
  6  7  1  0
  6 10  1  0
  7  8  2  0
  8  9  1  0
  1 12  1  0
  3 13  1  0
  4 14  1  0
  5 15  1  0
  7 16  1  0
  8 17  1  0
  9 18  1  0
M  END
>  <filename_input>  (17) 
7LOE_Y84_docked.sdf

>  <pdb_id>  (17) 
7LOE_Y84

>  <pose_rank>  (17) 
16

>  <num_atoms_heavy>  (17) 
11

>  <num_torsions>  (17) 
0

>  <pose>  (17) 
[45.640903034695924, -13.002874634652816, 15.578917608980468, -4.611930749422381, -2.6453004480755262, 0.9290377736509698]

>  <energy>  (17) 
-126.2085478620336

>  <inter_energy>  (17) 
-111.45227661747258

>  <intra_energy>  (17) 
0.0

>  <rmsd>  (17) 
10.1107

>  <sdf_rank>  (17) 
0

$$$$

     RDKit          3D

 18 19  0  0  0  0  0  0  0  0999 V2000
   47.7212  -11.6492    5.4918 C   0  0  0  0  0  0  0  0  0  0  0  0
   46.6160  -12.9716    3.7371 C   0  0  0  0  0  0  0  0  0  0  0  0
   46.6055  -14.0494    2.8612 C   0  0  0  0  0  0  0  0  0  0  0  0
   47.6940  -14.9222    2.8243 C   0  0  0  0  0  0  0  0  0  0  0  0
   48.7821  -14.7147    3.6653 C   0  0  0  0  0  0  0  0  0  0  0  0
   48.7905  -13.6085    4.5647 C   0  0  0  0  0  0  0  0  0  0  0  0
   49.8982  -13.3872    5.4345 C   0  0  0  0  0  0  0  0  0  0  0  0
   49.8915  -12.3046    6.3075 C   0  0  0  0  0  0  0  0  0  0  0  0
   48.8005  -11.4364    6.3391 C   0  0  0  0  0  0  0  0  0  0  0  0
   47.7272  -12.7569    4.5979 C   0  0  0  0  0  0  0  0  0  0  0  0
   45.5648  -12.1049    3.7909 F   0  0  0  0  0  0  0  0  0  0  0  0
   46.8622  -10.9623    5.5113 H   0  0  0  0  0  0  0  0  0  0  0  0
   45.7426  -14.2145    2.1991 H   0  0  0  0  0  0  0  0  0  0  0  0
   47.6913  -15.7750    2.1295 H   0  0  0  0  0  0  0  0  0  0  0  0
   49.6378  -15.4053    3.6364 H   0  0  0  0  0  0  0  0  0  0  0  0
   50.7582  -14.0728    5.4151 H   0  0  0  0  0  0  0  0  0  0  0  0
   50.7488  -12.1328    6.9748 H   0  0  0  0  0  0  0  0  0  0  0  0
   48.7950  -10.5840    7.0344 H   0  0  0  0  0  0  0  0  0  0  0  0
  1  9  2  0
  1 10  1  0
  2  3  1  0
  2 10  2  0
  2 11  1  0
  3  4  2  0
  4  5  1  0
  5  6  2  0
  6  7  1  0
  6 10  1  0
  7  8  2  0
  8  9  1  0
  1 12  1  0
  3 13  1  0
  4 14  1  0
  5 15  1  0
  7 16  1  0
  8 17  1  0
  9 18  1  0
M  END
>  <filename_input>  (18) 
7LOE_Y84_docked.sdf

>  <pdb_id>  (18) 
7LOE_Y84

>  <pose_rank>  (18) 
17

>  <num_atoms_heavy>  (18) 
11

>  <num_torsions>  (18) 
0

>  <pose>  (18) 
[47.72118890155286, -11.649212581055368, 5.491773236152016, -1.0377939981052322, 0.9533019598986213, 2.9246073822020344]

>  <energy>  (18) 
-63.09782317313696

>  <inter_energy>  (18) 
-62.03883270968599

>  <intra_energy>  (18) 
0.0

>  <rmsd>  (18) 
13.1405

>  <sdf_rank>  (18) 
0

$$$$

     RDKit          3D

 18 19  0  0  0  0  0  0  0  0999 V2000
   42.8401  -22.1457    3.3958 C   0  0  0  0  0  0  0  0  0  0  0  0
   40.8553  -23.5877    3.2223 C   0  0  0  0  0  0  0  0  0  0  0  0
   40.2751  -24.8176    2.9399 C   0  0  0  0  0  0  0  0  0  0  0  0
   41.0774  -25.8836    2.5299 C   0  0  0  0  0  0  0  0  0  0  0  0
   42.4526  -25.7144    2.4094 C   0  0  0  0  0  0  0  0  0  0  0  0
   43.0464  -24.4515    2.7010 C   0  0  0  0  0  0  0  0  0  0  0  0
   44.4552  -24.2664    2.5851 C   0  0  0  0  0  0  0  0  0  0  0  0
   45.0202  -23.0290    2.8744 C   0  0  0  0  0  0  0  0  0  0  0  0
   44.2127  -21.9681    3.2836 C   0  0  0  0  0  0  0  0  0  0  0  0
   42.2609  -23.4118    3.0999 C   0  0  0  0  0  0  0  0  0  0  0  0
   40.0924  -22.5313    3.6238 F   0  0  0  0  0  0  0  0  0  0  0  0
   42.2008  -21.3086    3.7130 H   0  0  0  0  0  0  0  0  0  0  0  0
   39.1878  -24.9511    3.0390 H   0  0  0  0  0  0  0  0  0  0  0  0
   40.6216  -26.8583    2.3017 H   0  0  0  0  0  0  0  0  0  0  0  0
   43.0833  -26.5566    2.0886 H   0  0  0  0  0  0  0  0  0  0  0  0
   45.0954  -25.1024    2.2669 H   0  0  0  0  0  0  0  0  0  0  0  0
   46.1069  -22.8867    2.7802 H   0  0  0  0  0  0  0  0  0  0  0  0
   44.6626  -20.9918    3.5172 H   0  0  0  0  0  0  0  0  0  0  0  0
  1  9  2  0
  1 10  1  0
  2  3  1  0
  2 10  2  0
  2 11  1  0
  3  4  2  0
  4  5  1  0
  5  6  2  0
  6  7  1  0
  6 10  1  0
  7  8  2  0
  8  9  1  0
  1 12  1  0
  3 13  1  0
  4 14  1  0
  5 15  1  0
  7 16  1  0
  8 17  1  0
  9 18  1  0
M  END
>  <filename_input>  (19) 
7LOE_Y84_docked.sdf

>  <pdb_id>  (19) 
7LOE_Y84

>  <pose_rank>  (19) 
18

>  <num_atoms_heavy>  (19) 
11

>  <num_torsions>  (19) 
0

>  <pose>  (19) 
[42.840069460699766, -22.145694332998527, 3.39575991643433, -0.09766647785941301, -1.1803607409199457, -2.5965507928837273]

>  <energy>  (19) 
-109.236935516211

>  <inter_energy>  (19) 
-106.21432998273777

>  <intra_energy>  (19) 
0.0

>  <rmsd>  (19) 
11.1246

>  <sdf_rank>  (19) 
0

$$$$

     RDKit          3D

 18 19  0  0  0  0  0  0  0  0999 V2000
   31.6306  -24.9203    9.5568 C   0  0  0  0  0  0  0  0  0  0  0  0
   32.1851  -27.0474   10.6599 C   0  0  0  0  0  0  0  0  0  0  0  0
   32.2523  -28.4346   10.6472 C   0  0  0  0  0  0  0  0  0  0  0  0
   31.8274  -29.1379    9.5189 C   0  0  0  0  0  0  0  0  0  0  0  0
   31.3432  -28.4506    8.4110 C   0  0  0  0  0  0  0  0  0  0  0  0
   31.2763  -27.0265    8.4255 C   0  0  0  0  0  0  0  0  0  0  0  0
   30.7855  -26.3103    7.2948 C   0  0  0  0  0  0  0  0  0  0  0  0
   30.7275  -24.9211    7.3231 C   0  0  0  0  0  0  0  0  0  0  0  0
   31.1537  -24.2245    8.4538 C   0  0  0  0  0  0  0  0  0  0  0  0
   31.6903  -26.3421    9.5288 C   0  0  0  0  0  0  0  0  0  0  0  0
   32.5935  -26.3383   11.7506 F   0  0  0  0  0  0  0  0  0  0  0  0
   31.9620  -24.3730   10.4516 H   0  0  0  0  0  0  0  0  0  0  0  0
   32.6389  -28.9768   11.5227 H   0  0  0  0  0  0  0  0  0  0  0  0
   31.8756  -30.2367    9.5060 H   0  0  0  0  0  0  0  0  0  0  0  0
   31.0113  -29.0068    7.5219 H   0  0  0  0  0  0  0  0  0  0  0  0
   30.4528  -26.8565    6.3998 H   0  0  0  0  0  0  0  0  0  0  0  0
   30.3445  -24.3701    6.4515 H   0  0  0  0  0  0  0  0  0  0  0  0
   31.1120  -23.1255    8.4717 H   0  0  0  0  0  0  0  0  0  0  0  0
  1  9  2  0
  1 10  1  0
  2  3  1  0
  2 10  2  0
  2 11  1  0
  3  4  2  0
  4  5  1  0
  5  6  2  0
  6  7  1  0
  6 10  1  0
  7  8  2  0
  8  9  1  0
  1 12  1  0
  3 13  1  0
  4 14  1  0
  5 15  1  0
  7 16  1  0
  8 17  1  0
  9 18  1  0
M  END
>  <filename_input>  (20) 
7LOE_Y84_docked.sdf

>  <pdb_id>  (20) 
7LOE_Y84

>  <pose_rank>  (20) 
19

>  <num_atoms_heavy>  (20) 
11

>  <num_torsions>  (20) 
0

>  <pose>  (20) 
[31.63062737901111, -24.92025005613145, 9.556837847596338, -1.3652190891624307, -0.16462276621546632, -1.2049782097261224]

>  <energy>  (20) 
-129.5894938232623

>  <inter_energy>  (20) 
-101.16220395537691

>  <intra_energy>  (20) 
0.0

>  <rmsd>  (20) 
12.1145

>  <sdf_rank>  (20) 
0

$$$$

     RDKit          3D

 18 19  0  0  0  0  0  0  0  0999 V2000
   47.5390  -11.6517    4.1255 C   0  0  0  0  0  0  0  0  0  0  0  0
   47.4524  -10.2561    6.1488 C   0  0  0  0  0  0  0  0  0  0  0  0
   48.0629   -9.7211    7.2758 C   0  0  0  0  0  0  0  0  0  0  0  0
   49.3946  -10.0319    7.5550 C   0  0  0  0  0  0  0  0  0  0  0  0
   50.1074  -10.8705    6.7047 C   0  0  0  0  0  0  0  0  0  0  0  0
   49.4792  -11.4177    5.5476 C   0  0  0  0  0  0  0  0  0  0  0  0
   50.2002  -12.2754    4.6661 C   0  0  0  0  0  0  0  0  0  0  0  0
   49.5744  -12.8004    3.5405 C   0  0  0  0  0  0  0  0  0  0  0  0
   48.2435  -12.4858    3.2675 C   0  0  0  0  0  0  0  0  0  0  0  0
   48.1785  -11.1139    5.2778 C   0  0  0  0  0  0  0  0  0  0  0  0
   46.1524   -9.9678    5.8554 F   0  0  0  0  0  0  0  0  0  0  0  0
   46.4875  -11.4067    3.9149 H   0  0  0  0  0  0  0  0  0  0  0  0
   47.4992   -9.0550    7.9456 H   0  0  0  0  0  0  0  0  0  0  0  0
   49.8809   -9.6132    8.4484 H   0  0  0  0  0  0  0  0  0  0  0  0
   51.1576  -11.1121    6.9252 H   0  0  0  0  0  0  0  0  0  0  0  0
   51.2514  -12.5220    4.8763 H   0  0  0  0  0  0  0  0  0  0  0  0
   50.1308  -13.4656    2.8638 H   0  0  0  0  0  0  0  0  0  0  0  0
   47.7524  -12.8978    2.3736 H   0  0  0  0  0  0  0  0  0  0  0  0
  1  9  2  0
  1 10  1  0
  2  3  1  0
  2 10  2  0
  2 11  1  0
  3  4  2  0
  4  5  1  0
  5  6  2  0
  6  7  1  0
  6 10  1  0
  7  8  2  0
  8  9  1  0
  1 12  1  0
  3 13  1  0
  4 14  1  0
  5 15  1  0
  7 16  1  0
  8 17  1  0
  9 18  1  0
M  END
>  <filename_input>  (21) 
7LOE_Y84_docked.sdf

>  <pdb_id>  (21) 
7LOE_Y84

>  <pose_rank>  (21) 
20

>  <num_atoms_heavy>  (21) 
11

>  <num_torsions>  (21) 
0

>  <pose>  (21) 
[47.53895563283854, -11.65167108150098, 4.1255177327790165, -1.0544940569422263, -2.16132614553243, 0.05152746157089412]

>  <energy>  (21) 
-122.89668156256839

>  <inter_energy>  (21) 
-104.20592641380304

>  <intra_energy>  (21) 
0.0

>  <rmsd>  (21) 
14.0645

>  <sdf_rank>  (21) 
0

$$$$

     RDKit          3D

 18 19  0  0  0  0  0  0  0  0999 V2000
   41.7262  -18.5652   12.4215 C   0  0  0  0  0  0  0  0  0  0  0  0
   39.3873  -18.5127   11.6630 C   0  0  0  0  0  0  0  0  0  0  0  0
   38.1347  -19.1046   11.5635 C   0  0  0  0  0  0  0  0  0  0  0  0
   37.9211  -20.3694   12.1137 C   0  0  0  0  0  0  0  0  0  0  0  0
   38.9581  -21.0310   12.7627 C   0  0  0  0  0  0  0  0  0  0  0  0
   40.2428  -20.4212   12.8649 C   0  0  0  0  0  0  0  0  0  0  0  0
   41.3128  -21.0874   13.5310 C   0  0  0  0  0  0  0  0  0  0  0  0
   42.5601  -20.4793   13.6240 C   0  0  0  0  0  0  0  0  0  0  0  0
   42.7667  -19.2153   13.0720 C   0  0  0  0  0  0  0  0  0  0  0  0
   40.4494  -19.1869   12.3257 C   0  0  0  0  0  0  0  0  0  0  0  0
   39.6206  -17.2783   11.1329 F   0  0  0  0  0  0  0  0  0  0  0  0
   41.8887  -17.5706   11.9806 H   0  0  0  0  0  0  0  0  0  0  0  0
   37.3144  -18.5787   11.0531 H   0  0  0  0  0  0  0  0  0  0  0  0
   36.9317  -20.8433   12.0340 H   0  0  0  0  0  0  0  0  0  0  0  0
   38.7869  -22.0267   13.1979 H   0  0  0  0  0  0  0  0  0  0  0  0
   41.1519  -22.0825   13.9713 H   0  0  0  0  0  0  0  0  0  0  0  0
   43.3859  -20.9966   14.1344 H   0  0  0  0  0  0  0  0  0  0  0  0
   43.7526  -18.7340   13.1517 H   0  0  0  0  0  0  0  0  0  0  0  0
  1  9  2  0
  1 10  1  0
  2  3  1  0
  2 10  2  0
  2 11  1  0
  3  4  2  0
  4  5  1  0
  5  6  2  0
  6  7  1  0
  6 10  1  0
  7  8  2  0
  8  9  1  0
  1 12  1  0
  3 13  1  0
  4 14  1  0
  5 15  1  0
  7 16  1  0
  8 17  1  0
  9 18  1  0
M  END
>  <filename_input>  (22) 
7LOE_Y84_docked.sdf

>  <pdb_id>  (22) 
7LOE_Y84

>  <pose_rank>  (22) 
21

>  <num_atoms_heavy>  (22) 
11

>  <num_torsions>  (22) 
0

>  <pose>  (22) 
[41.726234779123494, -18.56522568356281, 12.421521299452344, -0.8646351308945687, -19.336994397876392, -21.435822474273863]

>  <energy>  (22) 
-481.9196670604867

>  <inter_energy>  (22) 
-466.8350009296675

>  <intra_energy>  (22) 
0.0

>  <rmsd>  (22) 
3.89748

>  <sdf_rank>  (22) 
0

$$$$

     RDKit          3D

 18 19  0  0  0  0  0  0  0  0999 V2000
   49.5927  -27.9238    7.6466 C   0  0  0  0  0  0  0  0  0  0  0  0
   49.2245  -26.7937    5.4935 C   0  0  0  0  0  0  0  0  0  0  0  0
   48.4328  -26.5397    4.3809 C   0  0  0  0  0  0  0  0  0  0  0  0
   47.1875  -27.1586    4.2617 C   0  0  0  0  0  0  0  0  0  0  0  0
   46.7407  -28.0223    5.2560 C   0  0  0  0  0  0  0  0  0  0  0  0
   47.5543  -28.2807    6.3979 C   0  0  0  0  0  0  0  0  0  0  0  0
   47.1060  -29.1610    7.4258 C   0  0  0  0  0  0  0  0  0  0  0  0
   47.9101  -29.4022    8.5345 C   0  0  0  0  0  0  0  0  0  0  0  0
   49.1535  -28.7805    8.6473 C   0  0  0  0  0  0  0  0  0  0  0  0
   48.7704  -27.6764    6.5115 C   0  0  0  0  0  0  0  0  0  0  0  0
   50.4450  -26.2017    5.6321 F   0  0  0  0  0  0  0  0  0  0  0  0
   50.5754  -27.4368    7.7311 H   0  0  0  0  0  0  0  0  0  0  0  0
   48.7858  -25.8536    3.5969 H   0  0  0  0  0  0  0  0  0  0  0  0
   46.5588  -26.9631    3.3805 H   0  0  0  0  0  0  0  0  0  0  0  0
   45.7578  -28.5070    5.1612 H   0  0  0  0  0  0  0  0  0  0  0  0
   46.1240  -29.6495    7.3419 H   0  0  0  0  0  0  0  0  0  0  0  0
   47.5647  -30.0851    9.3246 H   0  0  0  0  0  0  0  0  0  0  0  0
   49.7853  -28.9685    9.5279 H   0  0  0  0  0  0  0  0  0  0  0  0
  1  9  2  0
  1 10  1  0
  2  3  1  0
  2 10  2  0
  2 11  1  0
  3  4  2  0
  4  5  1  0
  5  6  2  0
  6  7  1  0
  6 10  1  0
  7  8  2  0
  8  9  1  0
  1 12  1  0
  3 13  1  0
  4 14  1  0
  5 15  1  0
  7 16  1  0
  8 17  1  0
  9 18  1  0
M  END
>  <filename_input>  (23) 
7LOE_Y84_docked.sdf

>  <pdb_id>  (23) 
7LOE_Y84

>  <pose_rank>  (23) 
22

>  <num_atoms_heavy>  (23) 
11

>  <num_torsions>  (23) 
0

>  <pose>  (23) 
[49.59273207681436, -27.923809615660623, 7.646626121854092, 0.38160106477246, -3.2181935612361747, -3.6845470882105853]

>  <energy>  (23) 
-115.29253806570259

>  <inter_energy>  (23) 
-77.5013896108083

>  <intra_energy>  (23) 
0.0

>  <rmsd>  (23) 
13.0227

>  <sdf_rank>  (23) 
0

$$$$

     RDKit          3D

 18 19  0  0  0  0  0  0  0  0999 V2000
   31.1069  -11.8482   19.1655 C   0  0  0  0  0  0  0  0  0  0  0  0
   32.1581  -10.2704   17.5989 C   0  0  0  0  0  0  0  0  0  0  0  0
   33.2502   -9.5120   17.1971 C   0  0  0  0  0  0  0  0  0  0  0  0
   34.4253   -9.5377   17.9497 C   0  0  0  0  0  0  0  0  0  0  0  0
   34.5024  -10.3237   19.0945 C   0  0  0  0  0  0  0  0  0  0  0  0
   33.3808  -11.1025   19.5046 C   0  0  0  0  0  0  0  0  0  0  0  0
   33.4486  -11.9151   20.6739 C   0  0  0  0  0  0  0  0  0  0  0  0
   32.3468  -12.6705   21.0606 C   0  0  0  0  0  0  0  0  0  0  0  0
   31.1755  -12.6402   20.3040 C   0  0  0  0  0  0  0  0  0  0  0  0
   32.2340  -11.0747   18.7690 C   0  0  0  0  0  0  0  0  0  0  0  0
   30.9991  -10.2611   16.8807 F   0  0  0  0  0  0  0  0  0  0  0  0
   30.1821  -11.8186   18.5705 H   0  0  0  0  0  0  0  0  0  0  0  0
   33.1891   -8.8936   16.2894 H   0  0  0  0  0  0  0  0  0  0  0  0
   35.2913   -8.9358   17.6370 H   0  0  0  0  0  0  0  0  0  0  0  0
   35.4305  -10.3445   19.6847 H   0  0  0  0  0  0  0  0  0  0  0  0
   34.3724  -11.9447   21.2704 H   0  0  0  0  0  0  0  0  0  0  0  0
   32.3992  -13.2936   21.9656 H   0  0  0  0  0  0  0  0  0  0  0  0
   30.3072  -13.2428   20.6088 H   0  0  0  0  0  0  0  0  0  0  0  0
  1  9  2  0
  1 10  1  0
  2  3  1  0
  2 10  2  0
  2 11  1  0
  3  4  2  0
  4  5  1  0
  5  6  2  0
  6  7  1  0
  6 10  1  0
  7  8  2  0
  8  9  1  0
  1 12  1  0
  3 13  1  0
  4 14  1  0
  5 15  1  0
  7 16  1  0
  8 17  1  0
  9 18  1  0
M  END
>  <filename_input>  (24) 
7LOE_Y84_docked.sdf

>  <pdb_id>  (24) 
7LOE_Y84

>  <pose_rank>  (24) 
23

>  <num_atoms_heavy>  (24) 
11

>  <num_torsions>  (24) 
0

>  <pose>  (24) 
[31.106872611434127, -11.848161346584543, 19.165508940914073, 2.1439413117681183, 1.2176659279601323, -1.6284891194877555]

>  <energy>  (24) 
-110.17260178676088

>  <inter_energy>  (24) 
-105.76675439430286

>  <intra_energy>  (24) 
0.0

>  <rmsd>  (24) 
13.7378

>  <sdf_rank>  (24) 
0

$$$$

     RDKit          3D

 18 19  0  0  0  0  0  0  0  0999 V2000
   32.1684  -11.0325   18.0066 C   0  0  0  0  0  0  0  0  0  0  0  0
   31.3955  -13.1619   18.9643 C   0  0  0  0  0  0  0  0  0  0  0  0
   30.9561  -14.4700   18.8066 C   0  0  0  0  0  0  0  0  0  0  0  0
   30.8261  -15.0067   17.5247 C   0  0  0  0  0  0  0  0  0  0  0  0
   31.1399  -14.2349   16.4111 C   0  0  0  0  0  0  0  0  0  0  0  0
   31.5920  -12.8928   16.5752 C   0  0  0  0  0  0  0  0  0  0  0  0
   31.9205  -12.0927   15.4419 C   0  0  0  0  0  0  0  0  0  0  0  0
   32.3616  -10.7855   15.6177 C   0  0  0  0  0  0  0  0  0  0  0  0
   32.4893  -10.2555   16.9014 C   0  0  0  0  0  0  0  0  0  0  0  0
   31.7169  -12.3704   17.8276 C   0  0  0  0  0  0  0  0  0  0  0  0
   31.5298  -12.6152   20.2062 F   0  0  0  0  0  0  0  0  0  0  0  0
   32.2632  -10.6144   19.0196 H   0  0  0  0  0  0  0  0  0  0  0  0
   30.7117  -15.0806   19.6883 H   0  0  0  0  0  0  0  0  0  0  0  0
   30.4750  -16.0411   17.3952 H   0  0  0  0  0  0  0  0  0  0  0  0
   31.0391  -14.6608   15.4019 H   0  0  0  0  0  0  0  0  0  0  0  0
   31.8251  -12.5093   14.4283 H   0  0  0  0  0  0  0  0  0  0  0  0
   32.6105  -10.1681   14.7421 H   0  0  0  0  0  0  0  0  0  0  0  0
   32.8437   -9.2231   17.0382 H   0  0  0  0  0  0  0  0  0  0  0  0
  1  9  2  0
  1 10  1  0
  2  3  1  0
  2 10  2  0
  2 11  1  0
  3  4  2  0
  4  5  1  0
  5  6  2  0
  6  7  1  0
  6 10  1  0
  7  8  2  0
  8  9  1  0
  1 12  1  0
  3 13  1  0
  4 14  1  0
  5 15  1  0
  7 16  1  0
  8 17  1  0
  9 18  1  0
M  END
>  <filename_input>  (25) 
7LOE_Y84_docked.sdf

>  <pdb_id>  (25) 
7LOE_Y84

>  <pose_rank>  (25) 
24

>  <num_atoms_heavy>  (25) 
11

>  <num_torsions>  (25) 
0

>  <pose>  (25) 
[32.16844562187596, -11.032518883357763, 18.00661378901554, -1.1059564270991504, -0.18232497237752204, -1.822545406888529]

>  <energy>  (25) 
-108.54468310606178

>  <inter_energy>  (25) 
-97.98241050818447

>  <intra_energy>  (25) 
0.0

>  <rmsd>  (25) 
12.8513

>  <sdf_rank>  (25) 
0

$$$$

     RDKit          3D

 18 19  0  0  0  0  0  0  0  0999 V2000
   39.8780  -20.2690   13.8870 C   0  0  0  0  0  0  0  0  0  0  0  0
   42.0780  -20.0630   12.8070 C   0  0  0  0  0  0  0  0  0  0  0  0
   42.8660  -19.6670   11.7340 C   0  0  0  0  0  0  0  0  0  0  0  0
   42.2710  -19.0710   10.6210 C   0  0  0  0  0  0  0  0  0  0  0  0
   40.8950  -18.8710   10.5900 C   0  0  0  0  0  0  0  0  0  0  0  0
   40.0880  -19.2770   11.6930 C   0  0  0  0  0  0  0  0  0  0  0  0
   38.6770  -19.0740   11.6750 C   0  0  0  0  0  0  0  0  0  0  0  0
   37.9030  -19.4740   12.7590 C   0  0  0  0  0  0  0  0  0  0  0  0
   38.5040  -20.0690   13.8680 C   0  0  0  0  0  0  0  0  0  0  0  0
   40.6710  -19.8600   12.7780 C   0  0  0  0  0  0  0  0  0  0  0  0
   42.6360  -20.6480   13.9050 F   0  0  0  0  0  0  0  0  0  0  0  0
   40.3532  -20.7431   14.7584 H   0  0  0  0  0  0  0  0  0  0  0  0
   43.9546  -19.8225   11.7613 H   0  0  0  0  0  0  0  0  0  0  0  0
   42.8909  -18.7592    9.7675 H   0  0  0  0  0  0  0  0  0  0  0  0
   40.4285  -18.3987    9.7129 H   0  0  0  0  0  0  0  0  0  0  0  0
   38.2005  -18.6010   10.8037 H   0  0  0  0  0  0  0  0  0  0  0  0
   36.8139  -19.3207   12.7417 H   0  0  0  0  0  0  0  0  0  0  0  0
   37.8904  -20.3795   14.7265 H   0  0  0  0  0  0  0  0  0  0  0  0
  1  9  2  0
  1 10  1  0
  2  3  1  0
  2 10  2  0
  2 11  1  0
  3  4  2  0
  4  5  1  0
  5  6  2  0
  6  7  1  0
  6 10  1  0
  7  8  2  0
  8  9  1  0
  1 12  1  0
  3 13  1  0
  4 14  1  0
  5 15  1  0
  7 16  1  0
  8 17  1  0
  9 18  1  0
M  END
>  <filename_input>  (26) 
7LOE_Y84_docked.sdf

>  <pdb_id>  (26) 
7LOE_Y84

>  <pose_rank>  (26) 
25

>  <num_atoms_heavy>  (26) 
11

>  <num_torsions>  (26) 
0

>  <pose>  (26) 
[39.878, -20.269, 13.887, 1e-06, 1e-06, 1e-06]

>  <energy>  (26) 
-631.5636255192258

>  <inter_energy>  (26) 
-631.7277855227476

>  <intra_energy>  (26) 
0.0

>  <rmsd>  (26) 
0.0

>  <sdf_rank>  (26) 
0

$$$$
