
     RDKit          3D

 24 24  0  0  0  0  0  0  0  0999 V2000
  -17.8073    1.7145   88.5539 O   0  0  0  0  0  0  0  0  0  0  0  0
  -17.5580    0.2996   88.6592 C   0  0  1  0  0  0  0  0  0  0  0  0
  -18.4065   -0.4776   87.6570 C   0  0  2  0  0  0  0  0  0  0  0  0
  -19.7881   -0.3269   87.9412 O   0  0  0  0  0  0  0  0  0  0  0  0
  -18.0841   -1.9606   87.7309 C   0  0  0  0  0  0  0  0  0  0  0  0
  -16.6446   -2.2246   87.5481 N   0  0  0  0  0  0  0  0  0  0  0  0
  -15.8496   -1.5344   88.5736 C   0  0  0  0  0  0  0  0  0  0  0  0
  -16.0772   -0.0274   88.4459 C   0  0  2  0  0  0  0  0  0  0  0  0
  -15.1604    0.7542   89.3646 C   0  0  0  0  0  0  0  0  0  0  0  0
  -14.6814   -0.0417   90.4387 O   0  0  0  0  0  0  0  0  0  0  0  0
  -17.8762    2.1057   89.4607 H   0  0  0  0  0  0  0  0  0  0  0  0
  -17.8370   -0.0047   89.6788 H   0  0  0  0  0  0  0  0  0  0  0  0
  -18.1794   -0.0795   86.6570 H   0  0  0  0  0  0  0  0  0  0  0  0
  -19.9237   -0.3122   88.9217 H   0  0  0  0  0  0  0  0  0  0  0  0
  -18.3925   -2.3422   88.7154 H   0  0  0  0  0  0  0  0  0  0  0  0
  -18.6272   -2.4665   86.9191 H   0  0  0  0  0  0  0  0  0  0  0  0
  -16.4764   -3.2384   87.6170 H   0  0  0  0  0  0  0  0  0  0  0  0
  -16.3613   -1.8746   86.6218 H   0  0  0  0  0  0  0  0  0  0  0  0
  -16.1628   -1.8717   89.5727 H   0  0  0  0  0  0  0  0  0  0  0  0
  -14.7827   -1.7632   88.4346 H   0  0  0  0  0  0  0  0  0  0  0  0
  -15.8151    0.2876   87.4251 H   0  0  0  0  0  0  0  0  0  0  0  0
  -14.3016    1.1197   88.7826 H   0  0  0  0  0  0  0  0  0  0  0  0
  -15.7362    1.5893   89.7901 H   0  0  0  0  0  0  0  0  0  0  0  0
  -14.9341    0.3782   91.2989 H   0  0  0  0  0  0  0  0  0  0  0  0
  2  1  1  0
  2  3  1  0
  2  8  1  0
  3  4  1  0
  3  5  1  0
  5  6  1  0
  6  7  1  0
  7  8  1  0
  8  9  1  0
  9 10  1  0
  1 11  1  0
  2 12  1  1
  3 13  1  6
  4 14  1  0
  5 15  1  0
  5 16  1  0
  6 17  1  0
  6 18  1  0
  7 19  1  0
  7 20  1  0
  8 21  1  6
  9 22  1  0
  9 23  1  0
 10 24  1  0
M  CHG  1   6   1
M  END
>  <filename_input>  (1) 
7LOU_IFM_docked.sdf

>  <pdb_id>  (1) 
7LOU_IFM

>  <pose_rank>  (1) 
0

>  <num_atoms_heavy>  (1) 
10

>  <num_torsions>  (1) 
1

>  <pose>  (1) 
[-17.807296475357276, 1.7144544023167587, 88.55391651410177, 4.794965457419312, 2.622544978726187, 2.8265862040440504, -5.687616625400837]

>  <energy>  (1) 
-554.2824759380226

>  <inter_energy>  (1) 
-538.9443495370247

>  <intra_energy>  (1) 
0.0

>  <rmsd>  (1) 
0.344075

>  <sdf_rank>  (1) 
0

$$$$

     RDKit          3D

 24 24  0  0  0  0  0  0  0  0999 V2000
  -16.7361   -2.7196   88.9293 O   0  0  0  0  0  0  0  0  0  0  0  0
  -17.0178   -1.4431   88.3241 C   0  0  1  0  0  0  0  0  0  0  0  0
  -18.5029   -1.1085   88.4279 C   0  0  2  0  0  0  0  0  0  0  0  0
  -19.2829   -2.0407   87.6966 O   0  0  0  0  0  0  0  0  0  0  0  0
  -18.7750    0.2693   87.8478 C   0  0  0  0  0  0  0  0  0  0  0  0
  -17.9361    1.3091   88.4724 N   0  0  0  0  0  0  0  0  0  0  0  0
  -16.5084    1.0122   88.2894 C   0  0  0  0  0  0  0  0  0  0  0  0
  -16.1900   -0.3238   88.9622 C   0  0  2  0  0  0  0  0  0  0  0  0
  -14.7023   -0.6105   88.9549 C   0  0  0  0  0  0  0  0  0  0  0  0
  -14.0371    0.0100   90.0454 O   0  0  0  0  0  0  0  0  0  0  0  0
  -16.7561   -2.6291   89.9150 H   0  0  0  0  0  0  0  0  0  0  0  0
  -16.7396   -1.5182   87.2625 H   0  0  0  0  0  0  0  0  0  0  0  0
  -18.7727   -1.1420   89.4938 H   0  0  0  0  0  0  0  0  0  0  0  0
  -19.7732   -2.6267   88.3263 H   0  0  0  0  0  0  0  0  0  0  0  0
  -18.5672    0.2469   86.7679 H   0  0  0  0  0  0  0  0  0  0  0  0
  -19.8279    0.5187   88.0462 H   0  0  0  0  0  0  0  0  0  0  0  0
  -18.1493    2.2191   88.0396 H   0  0  0  0  0  0  0  0  0  0  0  0
  -18.1400    1.3337   89.4817 H   0  0  0  0  0  0  0  0  0  0  0  0
  -16.2791    0.9488   87.2154 H   0  0  0  0  0  0  0  0  0  0  0  0
  -15.9009    1.8107   88.7405 H   0  0  0  0  0  0  0  0  0  0  0  0
  -16.4772   -0.2666   90.0225 H   0  0  0  0  0  0  0  0  0  0  0  0
  -14.5496   -1.6980   89.0178 H   0  0  0  0  0  0  0  0  0  0  0  0
  -14.2818   -0.2035   88.0235 H   0  0  0  0  0  0  0  0  0  0  0  0
  -14.4066   -0.3346   90.8967 H   0  0  0  0  0  0  0  0  0  0  0  0
  2  1  1  0
  2  3  1  0
  2  8  1  0
  3  4  1  0
  3  5  1  0
  5  6  1  0
  6  7  1  0
  7  8  1  0
  8  9  1  0
  9 10  1  0
  1 11  1  0
  2 12  1  6
  3 13  1  1
  4 14  1  0
  5 15  1  0
  5 16  1  0
  6 17  1  0
  6 18  1  0
  7 19  1  0
  7 20  1  0
  8 21  1  1
  9 22  1  0
  9 23  1  0
 10 24  1  0
M  CHG  1   6   1
M  END
>  <filename_input>  (2) 
7LOU_IFM_docked.sdf

>  <pdb_id>  (2) 
7LOU_IFM

>  <pose_rank>  (2) 
1

>  <num_atoms_heavy>  (2) 
10

>  <num_torsions>  (2) 
1

>  <pose>  (2) 
[-16.73611662486076, -2.7195968891107127, 88.92932124166079, 2.4880462936544707, 0.7175555472619292, 0.7004183702842768, 2.443244619808033]

>  <energy>  (2) 
-477.0843650084171

>  <inter_energy>  (2) 
-477.6103954495488

>  <intra_energy>  (2) 
0.0

>  <rmsd>  (2) 
2.44152

>  <sdf_rank>  (2) 
0

$$$$

     RDKit          3D

 24 24  0  0  0  0  0  0  0  0999 V2000
  -18.0401   -2.5306   86.9997 O   0  0  0  0  0  0  0  0  0  0  0  0
  -17.2152   -1.5731   87.6911 C   0  0  1  0  0  0  0  0  0  0  0  0
  -17.9827   -0.9235   88.8388 C   0  0  2  0  0  0  0  0  0  0  0  0
  -19.0830   -0.1735   88.3499 O   0  0  0  0  0  0  0  0  0  0  0  0
  -17.0811    0.0327   89.6017 C   0  0  0  0  0  0  0  0  0  0  0  0
  -15.8480   -0.6251   90.0727 N   0  0  0  0  0  0  0  0  0  0  0  0
  -15.0806   -1.1719   88.9448 C   0  0  0  0  0  0  0  0  0  0  0  0
  -15.9336   -2.2183   88.2262 C   0  0  2  0  0  0  0  0  0  0  0  0
  -15.1430   -2.9409   87.1546 C   0  0  0  0  0  0  0  0  0  0  0  0
  -15.0910   -4.3409   87.3868 O   0  0  0  0  0  0  0  0  0  0  0  0
  -18.5214   -3.0893   87.6601 H   0  0  0  0  0  0  0  0  0  0  0  0
  -16.9353   -0.7986   86.9619 H   0  0  0  0  0  0  0  0  0  0  0  0
  -18.3366   -1.7319   89.4955 H   0  0  0  0  0  0  0  0  0  0  0  0
  -19.6048    0.1821   89.1124 H   0  0  0  0  0  0  0  0  0  0  0  0
  -16.8074    0.8670   88.9392 H   0  0  0  0  0  0  0  0  0  0  0  0
  -17.6337    0.3885   90.4838 H   0  0  0  0  0  0  0  0  0  0  0  0
  -15.2681    0.0641   90.5723 H   0  0  0  0  0  0  0  0  0  0  0  0
  -16.1076   -1.3997   90.6999 H   0  0  0  0  0  0  0  0  0  0  0  0
  -14.8233   -0.3622   88.2462 H   0  0  0  0  0  0  0  0  0  0  0  0
  -14.1544   -1.6361   89.3145 H   0  0  0  0  0  0  0  0  0  0  0  0
  -16.2324   -2.9922   88.9486 H   0  0  0  0  0  0  0  0  0  0  0  0
  -15.6183   -2.7598   86.1793 H   0  0  0  0  0  0  0  0  0  0  0  0
  -14.1133   -2.5544   87.1725 H   0  0  0  0  0  0  0  0  0  0  0  0
  -15.0846   -4.5138   88.3615 H   0  0  0  0  0  0  0  0  0  0  0  0
  2  1  1  0
  2  3  1  0
  2  8  1  0
  3  4  1  0
  3  5  1  0
  5  6  1  0
  6  7  1  0
  7  8  1  0
  8  9  1  0
  9 10  1  0
  1 11  1  0
  2 12  1  6
  3 13  1  1
  4 14  1  0
  5 15  1  0
  5 16  1  0
  6 17  1  0
  6 18  1  0
  7 19  1  0
  7 20  1  0
  8 21  1  1
  9 22  1  0
  9 23  1  0
 10 24  1  0
M  CHG  1   6   1
M  END
>  <filename_input>  (3) 
7LOU_IFM_docked.sdf

>  <pdb_id>  (3) 
7LOU_IFM

>  <pose_rank>  (3) 
2

>  <num_atoms_heavy>  (3) 
10

>  <num_torsions>  (3) 
1

>  <pose>  (3) 
[-18.040064941226035, -2.530566192574943, 86.99968107148662, 3.4328812232312047, -0.8334050114975116, 0.37994164969113103, -3.2074721709707856]

>  <energy>  (3) 
-377.5975804488228

>  <inter_energy>  (3) 
-375.7407443252453

>  <intra_energy>  (3) 
0.0

>  <rmsd>  (3) 
3.14847

>  <sdf_rank>  (3) 
0

$$$$

     RDKit          3D

 24 24  0  0  0  0  0  0  0  0999 V2000
  -14.9004    0.9623   88.3914 O   0  0  0  0  0  0  0  0  0  0  0  0
  -16.1716    0.2846   88.3959 C   0  0  1  0  0  0  0  0  0  0  0  0
  -17.2165    1.0847   87.6238 C   0  0  2  0  0  0  0  0  0  0  0  0
  -17.4640    2.3317   88.2531 O   0  0  0  0  0  0  0  0  0  0  0  0
  -18.5328    0.3271   87.5777 C   0  0  0  0  0  0  0  0  0  0  0  0
  -18.3710   -1.0323   87.0290 N   0  0  0  0  0  0  0  0  0  0  0  0
  -17.4235   -1.8149   87.8351 C   0  0  0  0  0  0  0  0  0  0  0  0
  -16.0594   -1.1240   87.8056 C   0  0  2  0  0  0  0  0  0  0  0  0
  -14.9945   -1.9650   88.4797 C   0  0  0  0  0  0  0  0  0  0  0  0
  -14.7173   -3.1529   87.7526 O   0  0  0  0  0  0  0  0  0  0  0  0
  -14.6066    1.1189   89.3237 H   0  0  0  0  0  0  0  0  0  0  0  0
  -16.4893    0.1966   89.4453 H   0  0  0  0  0  0  0  0  0  0  0  0
  -16.8235    1.2436   86.6088 H   0  0  0  0  0  0  0  0  0  0  0  0
  -17.4410    2.2156   89.2360 H   0  0  0  0  0  0  0  0  0  0  0  0
  -18.9349    0.2519   88.5988 H   0  0  0  0  0  0  0  0  0  0  0  0
  -19.2189    0.8792   86.9186 H   0  0  0  0  0  0  0  0  0  0  0  0
  -19.2853   -1.5066   87.0285 H   0  0  0  0  0  0  0  0  0  0  0  0
  -18.0033   -0.9579   86.0697 H   0  0  0  0  0  0  0  0  0  0  0  0
  -17.7840   -1.8761   88.8725 H   0  0  0  0  0  0  0  0  0  0  0  0
  -17.3354   -2.8314   87.4242 H   0  0  0  0  0  0  0  0  0  0  0  0
  -15.7363   -1.0170   86.7596 H   0  0  0  0  0  0  0  0  0  0  0  0
  -14.0710   -1.3727   88.5585 H   0  0  0  0  0  0  0  0  0  0  0  0
  -15.3673   -2.2535   89.4736 H   0  0  0  0  0  0  0  0  0  0  0  0
  -14.5442   -3.8943   88.3853 H   0  0  0  0  0  0  0  0  0  0  0  0
  2  1  1  0
  2  3  1  0
  2  8  1  0
  3  4  1  0
  3  5  1  0
  5  6  1  0
  6  7  1  0
  7  8  1  0
  8  9  1  0
  9 10  1  0
  1 11  1  0
  2 12  1  1
  3 13  1  6
  4 14  1  0
  5 15  1  0
  5 16  1  0
  6 17  1  0
  6 18  1  0
  7 19  1  0
  7 20  1  0
  8 21  1  6
  9 22  1  0
  9 23  1  0
 10 24  1  0
M  CHG  1   6   1
M  END
>  <filename_input>  (4) 
7LOU_IFM_docked.sdf

>  <pdb_id>  (4) 
7LOU_IFM

>  <pose_rank>  (4) 
3

>  <num_atoms_heavy>  (4) 
10

>  <num_torsions>  (4) 
1

>  <pose>  (4) 
[-14.900399588172927, 0.9622525597313689, 88.39138945240755, 0.05518089672070577, 0.22850698765367075, -1.3066140601628802, 8.42970732325097]

>  <energy>  (4) 
-417.98571273727384

>  <inter_energy>  (4) 
-419.8115604580236

>  <intra_energy>  (4) 
0.0

>  <rmsd>  (4) 
2.62784

>  <sdf_rank>  (4) 
0

$$$$

     RDKit          3D

 24 24  0  0  0  0  0  0  0  0999 V2000
  -17.3917    2.0286   88.3725 O   0  0  0  0  0  0  0  0  0  0  0  0
  -16.5079    0.8925   88.4310 C   0  0  1  0  0  0  0  0  0  0  0  0
  -15.1572    1.2850   89.0224 C   0  0  2  0  0  0  0  0  0  0  0  0
  -14.4942    2.2222   88.1892 O   0  0  0  0  0  0  0  0  0  0  0  0
  -14.2592    0.0650   89.1421 C   0  0  0  0  0  0  0  0  0  0  0  0
  -14.8976   -1.0196   89.9111 N   0  0  0  0  0  0  0  0  0  0  0  0
  -16.1560   -1.4410   89.2796 C   0  0  0  0  0  0  0  0  0  0  0  0
  -17.1166   -0.2514   89.2471 C   0  0  2  0  0  0  0  0  0  0  0  0
  -18.4919   -0.6594   88.7597 C   0  0  0  0  0  0  0  0  0  0  0  0
  -18.4322   -1.7559   87.8593 O   0  0  0  0  0  0  0  0  0  0  0  0
  -17.6174    2.3187   89.2917 H   0  0  0  0  0  0  0  0  0  0  0  0
  -16.3603    0.5420   87.3989 H   0  0  0  0  0  0  0  0  0  0  0  0
  -15.3482    1.7259   90.0119 H   0  0  0  0  0  0  0  0  0  0  0  0
  -14.0234    2.8879   88.7507 H   0  0  0  0  0  0  0  0  0  0  0  0
  -14.0269   -0.3050   88.1326 H   0  0  0  0  0  0  0  0  0  0  0  0
  -13.3462    0.3672   89.6761 H   0  0  0  0  0  0  0  0  0  0  0  0
  -14.2563   -1.8244   89.9547 H   0  0  0  0  0  0  0  0  0  0  0  0
  -15.1052   -0.6728   90.8584 H   0  0  0  0  0  0  0  0  0  0  0  0
  -15.9575   -1.7835   88.2533 H   0  0  0  0  0  0  0  0  0  0  0  0
  -16.6033   -2.2657   89.8540 H   0  0  0  0  0  0  0  0  0  0  0  0
  -17.2617    0.1180   90.2730 H   0  0  0  0  0  0  0  0  0  0  0  0
  -19.1062   -0.9444   89.6265 H   0  0  0  0  0  0  0  0  0  0  0  0
  -18.9314    0.1960   88.2256 H   0  0  0  0  0  0  0  0  0  0  0  0
  -18.3860   -2.6016   88.3718 H   0  0  0  0  0  0  0  0  0  0  0  0
  2  1  1  0
  2  3  1  0
  2  8  1  0
  3  4  1  0
  3  5  1  0
  5  6  1  0
  6  7  1  0
  7  8  1  0
  8  9  1  0
  9 10  1  0
  1 11  1  0
  2 12  1  6
  3 13  1  1
  4 14  1  0
  5 15  1  0
  5 16  1  0
  6 17  1  0
  6 18  1  0
  7 19  1  0
  7 20  1  0
  8 21  1  1
  9 22  1  0
  9 23  1  0
 10 24  1  0
M  CHG  1   6   1
M  END
>  <filename_input>  (5) 
7LOU_IFM_docked.sdf

>  <pdb_id>  (5) 
7LOU_IFM

>  <pose_rank>  (5) 
4

>  <num_atoms_heavy>  (5) 
10

>  <num_torsions>  (5) 
1

>  <pose>  (5) 
[-17.391692006132047, 2.0285612898590726, 88.37247899151696, 1.1818365098969583, -2.5067288783777593, 0.11613063510026372, 0.4551398518281283]

>  <energy>  (5) 
-394.03187024374006

>  <inter_energy>  (5) 
-391.7267317683519

>  <intra_energy>  (5) 
0.0

>  <rmsd>  (5) 
3.53511

>  <sdf_rank>  (5) 
0

$$$$

     RDKit          3D

 24 24  0  0  0  0  0  0  0  0999 V2000
  -18.1348    0.8935   88.2700 O   0  0  0  0  0  0  0  0  0  0  0  0
  -16.9925    0.0609   87.9925 C   0  0  1  0  0  0  0  0  0  0  0  0
  -15.7906    0.4914   88.8282 C   0  0  2  0  0  0  0  0  0  0  0  0
  -15.3795    1.8043   88.4826 O   0  0  0  0  0  0  0  0  0  0  0  0
  -14.6139   -0.4366   88.5771 C   0  0  0  0  0  0  0  0  0  0  0  0
  -14.9632   -1.8503   88.8109 N   0  0  0  0  0  0  0  0  0  0  0  0
  -16.0681   -2.2698   87.9372 C   0  0  0  0  0  0  0  0  0  0  0  0
  -17.2986   -1.4172   88.2506 C   0  0  2  0  0  0  0  0  0  0  0  0
  -18.5212   -1.9077   87.5022 C   0  0  0  0  0  0  0  0  0  0  0  0
  -18.1838   -2.4577   86.2372 O   0  0  0  0  0  0  0  0  0  0  0  0
  -18.2512    0.9783   89.2495 H   0  0  0  0  0  0  0  0  0  0  0  0
  -16.7517    0.1842   86.9263 H   0  0  0  0  0  0  0  0  0  0  0  0
  -16.0959    0.4553   89.8844 H   0  0  0  0  0  0  0  0  0  0  0  0
  -15.2159    2.3268   89.3075 H   0  0  0  0  0  0  0  0  0  0  0  0
  -14.2864   -0.3200   87.5335 H   0  0  0  0  0  0  0  0  0  0  0  0
  -13.8120   -0.1650   89.2794 H   0  0  0  0  0  0  0  0  0  0  0  0
  -14.1393   -2.4375   88.6178 H   0  0  0  0  0  0  0  0  0  0  0  0
  -15.2604   -1.9577   89.7912 H   0  0  0  0  0  0  0  0  0  0  0  0
  -15.7803   -2.1299   86.8848 H   0  0  0  0  0  0  0  0  0  0  0  0
  -16.2969   -3.3318   88.1096 H   0  0  0  0  0  0  0  0  0  0  0  0
  -17.5416   -1.5207   89.3184 H   0  0  0  0  0  0  0  0  0  0  0  0
  -19.0199   -2.6814   88.1045 H   0  0  0  0  0  0  0  0  0  0  0  0
  -19.1848   -1.0469   87.3331 H   0  0  0  0  0  0  0  0  0  0  0  0
  -17.6706   -3.2942   86.3673 H   0  0  0  0  0  0  0  0  0  0  0  0
  2  1  1  0
  2  3  1  0
  2  8  1  0
  3  4  1  0
  3  5  1  0
  5  6  1  0
  6  7  1  0
  7  8  1  0
  8  9  1  0
  9 10  1  0
  1 11  1  0
  2 12  1  6
  3 13  1  1
  4 14  1  0
  5 15  1  0
  5 16  1  0
  6 17  1  0
  6 18  1  0
  7 19  1  0
  7 20  1  0
  8 21  1  1
  9 22  1  0
  9 23  1  0
 10 24  1  0
M  CHG  1   6   1
M  END
>  <filename_input>  (6) 
7LOU_IFM_docked.sdf

>  <pdb_id>  (6) 
7LOU_IFM

>  <pose_rank>  (6) 
5

>  <num_atoms_heavy>  (6) 
10

>  <num_torsions>  (6) 
1

>  <pose>  (6) 
[-18.13479716257352, 0.8934522556979669, 88.2700334408472, 1.6681774286972533, -2.4917401477095154, -0.30017542297440586, 0.40113370676167215]

>  <energy>  (6) 
-315.6298652543848

>  <inter_energy>  (6) 
-314.3414403766319

>  <intra_energy>  (6) 
0.0

>  <rmsd>  (6) 
3.3892

>  <sdf_rank>  (6) 
0

$$$$

     RDKit          3D

 24 24  0  0  0  0  0  0  0  0999 V2000
  -18.3713   -0.4818   87.4117 O   0  0  0  0  0  0  0  0  0  0  0  0
  -16.9932   -0.2036   87.7258 C   0  0  1  0  0  0  0  0  0  0  0  0
  -16.8772    1.0315   88.6142 C   0  0  2  0  0  0  0  0  0  0  0  0
  -17.3385    2.1878   87.9342 O   0  0  0  0  0  0  0  0  0  0  0  0
  -15.4260    1.2736   88.9941 C   0  0  0  0  0  0  0  0  0  0  0  0
  -14.8128    0.0889   89.6233 N   0  0  0  0  0  0  0  0  0  0  0  0
  -14.8596   -1.0692   88.7196 C   0  0  0  0  0  0  0  0  0  0  0  0
  -16.3209   -1.3973   88.4100 C   0  0  2  0  0  0  0  0  0  0  0  0
  -16.4472   -2.6821   87.6170 C   0  0  0  0  0  0  0  0  0  0  0  0
  -15.3143   -3.5220   87.7833 O   0  0  0  0  0  0  0  0  0  0  0  0
  -18.8865   -0.5858   88.2507 H   0  0  0  0  0  0  0  0  0  0  0  0
  -16.4752   -0.0122   86.7745 H   0  0  0  0  0  0  0  0  0  0  0  0
  -17.4886    0.8494   89.5103 H   0  0  0  0  0  0  0  0  0  0  0  0
  -17.6116    2.8724   88.5951 H   0  0  0  0  0  0  0  0  0  0  0  0
  -14.8589    1.5266   88.0861 H   0  0  0  0  0  0  0  0  0  0  0  0
  -15.3992    2.0967   89.7233 H   0  0  0  0  0  0  0  0  0  0  0  0
  -13.8306    0.2989   89.8516 H   0  0  0  0  0  0  0  0  0  0  0  0
  -15.3404   -0.1395   90.4779 H   0  0  0  0  0  0  0  0  0  0  0  0
  -14.3289   -0.8308   87.7861 H   0  0  0  0  0  0  0  0  0  0  0  0
  -14.3765   -1.9343   89.1973 H   0  0  0  0  0  0  0  0  0  0  0  0
  -16.8541   -1.5772   89.3552 H   0  0  0  0  0  0  0  0  0  0  0  0
  -17.3432   -3.2225   87.9563 H   0  0  0  0  0  0  0  0  0  0  0  0
  -16.5221   -2.4185   86.5516 H   0  0  0  0  0  0  0  0  0  0  0  0
  -15.1388   -3.6520   88.7489 H   0  0  0  0  0  0  0  0  0  0  0  0
  2  1  1  0
  2  3  1  0
  2  8  1  0
  3  4  1  0
  3  5  1  0
  5  6  1  0
  6  7  1  0
  7  8  1  0
  8  9  1  0
  9 10  1  0
  1 11  1  0
  2 12  1  6
  3 13  1  1
  4 14  1  0
  5 15  1  0
  5 16  1  0
  6 17  1  0
  6 18  1  0
  7 19  1  0
  7 20  1  0
  8 21  1  1
  9 22  1  0
  9 23  1  0
 10 24  1  0
M  CHG  1   6   1
M  END
>  <filename_input>  (7) 
7LOU_IFM_docked.sdf

>  <pdb_id>  (7) 
7LOU_IFM

>  <pose_rank>  (7) 
6

>  <num_atoms_heavy>  (7) 
10

>  <num_torsions>  (7) 
1

>  <pose>  (7) 
[-18.371288877466736, -0.48178412121044584, 87.41172472351822, -2.6165696419148676, 1.7196445158267433, -0.42555177314101145, 1.3638846708876113]

>  <energy>  (7) 
-350.7522637769007

>  <inter_energy>  (7) 
-331.98539706616765

>  <intra_energy>  (7) 
0.0

>  <rmsd>  (7) 
3.15027

>  <sdf_rank>  (7) 
0

$$$$

     RDKit          3D

 24 24  0  0  0  0  0  0  0  0999 V2000
  -17.8919    0.0749   86.7197 O   0  0  0  0  0  0  0  0  0  0  0  0
  -16.6430   -0.0229   87.4309 C   0  0  1  0  0  0  0  0  0  0  0  0
  -16.5535    1.0416   88.5204 C   0  0  2  0  0  0  0  0  0  0  0  0
  -16.5527    2.3430   87.9560 O   0  0  0  0  0  0  0  0  0  0  0  0
  -15.2631    0.8840   89.3071 C   0  0  0  0  0  0  0  0  0  0  0  0
  -15.1127   -0.4756   89.8585 N   0  0  0  0  0  0  0  0  0  0  0  0
  -15.1176   -1.4808   88.7863 C   0  0  0  0  0  0  0  0  0  0  0  0
  -16.4555   -1.4116   88.0486 C   0  0  2  0  0  0  0  0  0  0  0  0
  -16.5928   -2.5321   87.0380 C   0  0  0  0  0  0  0  0  0  0  0  0
  -15.5358   -3.4746   87.1439 O   0  0  0  0  0  0  0  0  0  0  0  0
  -18.6374    0.1332   87.3684 H   0  0  0  0  0  0  0  0  0  0  0  0
  -15.8385    0.1428   86.6994 H   0  0  0  0  0  0  0  0  0  0  0  0
  -17.4271    0.9134   89.1765 H   0  0  0  0  0  0  0  0  0  0  0  0
  -16.5522    3.0171   88.6810 H   0  0  0  0  0  0  0  0  0  0  0  0
  -14.4134    1.0926   88.6404 H   0  0  0  0  0  0  0  0  0  0  0  0
  -15.2915    1.5904   90.1499 H   0  0  0  0  0  0  0  0  0  0  0  0
  -14.2215   -0.5345   90.3717 H   0  0  0  0  0  0  0  0  0  0  0  0
  -15.9048   -0.6640   90.4894 H   0  0  0  0  0  0  0  0  0  0  0  0
  -14.2971   -1.2747   88.0832 H   0  0  0  0  0  0  0  0  0  0  0  0
  -14.9802   -2.4842   89.2156 H   0  0  0  0  0  0  0  0  0  0  0  0
  -17.2701   -1.5619   88.7723 H   0  0  0  0  0  0  0  0  0  0  0  0
  -17.5486   -3.0492   87.2084 H   0  0  0  0  0  0  0  0  0  0  0  0
  -16.5546   -2.0895   86.0317 H   0  0  0  0  0  0  0  0  0  0  0  0
  -15.3422   -3.6473   88.0993 H   0  0  0  0  0  0  0  0  0  0  0  0
  2  1  1  0
  2  3  1  0
  2  8  1  0
  3  4  1  0
  3  5  1  0
  5  6  1  0
  6  7  1  0
  7  8  1  0
  8  9  1  0
  9 10  1  0
  1 11  1  0
  2 12  1  6
  3 13  1  1
  4 14  1  0
  5 15  1  0
  5 16  1  0
  6 17  1  0
  6 18  1  0
  7 19  1  0
  7 20  1  0
  8 21  1  1
  9 22  1  0
  9 23  1  0
 10 24  1  0
M  CHG  1   6   1
M  END
>  <filename_input>  (8) 
7LOU_IFM_docked.sdf

>  <pdb_id>  (8) 
7LOU_IFM

>  <pose_rank>  (8) 
7

>  <num_atoms_heavy>  (8) 
10

>  <num_torsions>  (8) 
1

>  <pose>  (8) 
[-17.89190528574699, 0.07486672256606325, 86.71967475608271, 7.118110194574541, -6.194320820786614, 2.0401440715136894, 1.1079239954234286]

>  <energy>  (8) 
-318.3956692245951

>  <inter_energy>  (8) 
-325.6179700342112

>  <intra_energy>  (8) 
0.0

>  <rmsd>  (8) 
3.29205

>  <sdf_rank>  (8) 
0

$$$$

     RDKit          3D

 24 24  0  0  0  0  0  0  0  0999 V2000
  -17.5999    1.3406   88.5467 O   0  0  0  0  0  0  0  0  0  0  0  0
  -17.2553   -0.0570   88.4908 C   0  0  1  0  0  0  0  0  0  0  0  0
  -18.1037   -0.7846   87.4521 C   0  0  2  0  0  0  0  0  0  0  0  0
  -19.4753   -0.7598   87.8132 O   0  0  0  0  0  0  0  0  0  0  0  0
  -17.6834   -2.2416   87.3545 C   0  0  0  0  0  0  0  0  0  0  0  0
  -16.2416   -2.3852   87.0795 N   0  0  0  0  0  0  0  0  0  0  0  0
  -15.4397   -1.7500   88.1347 C   0  0  0  0  0  0  0  0  0  0  0  0
  -15.7698   -0.2573   88.1769 C   0  0  2  0  0  0  0  0  0  0  0  0
  -14.8580    0.4880   89.1301 C   0  0  0  0  0  0  0  0  0  0  0  0
  -13.7457   -0.3010   89.5265 O   0  0  0  0  0  0  0  0  0  0  0  0
  -17.6702    1.6256   89.4922 H   0  0  0  0  0  0  0  0  0  0  0  0
  -17.4603   -0.4823   89.4844 H   0  0  0  0  0  0  0  0  0  0  0  0
  -17.9555   -0.2718   86.4903 H   0  0  0  0  0  0  0  0  0  0  0  0
  -19.5568   -0.7583   88.7999 H   0  0  0  0  0  0  0  0  0  0  0  0
  -17.9147   -2.7421   88.3064 H   0  0  0  0  0  0  0  0  0  0  0  0
  -18.2350   -2.6983   86.5196 H   0  0  0  0  0  0  0  0  0  0  0  0
  -16.0054   -3.3867   87.0335 H   0  0  0  0  0  0  0  0  0  0  0  0
  -16.0304   -1.9237   86.1833 H   0  0  0  0  0  0  0  0  0  0  0  0
  -15.6777   -2.2084   89.1059 H   0  0  0  0  0  0  0  0  0  0  0  0
  -14.3691   -1.8891   87.9238 H   0  0  0  0  0  0  0  0  0  0  0  0
  -15.5824    0.1777   87.1841 H   0  0  0  0  0  0  0  0  0  0  0  0
  -14.4895    1.3969   88.6319 H   0  0  0  0  0  0  0  0  0  0  0  0
  -15.4376    0.7364   90.0314 H   0  0  0  0  0  0  0  0  0  0  0  0
  -13.6997   -0.3336   90.5148 H   0  0  0  0  0  0  0  0  0  0  0  0
  2  1  1  0
  2  3  1  0
  2  8  1  0
  3  4  1  0
  3  5  1  0
  5  6  1  0
  6  7  1  0
  7  8  1  0
  8  9  1  0
  9 10  1  0
  1 11  1  0
  2 12  1  1
  3 13  1  6
  4 14  1  0
  5 15  1  0
  5 16  1  0
  6 17  1  0
  6 18  1  0
  7 19  1  0
  7 20  1  0
  8 21  1  6
  9 22  1  0
  9 23  1  0
 10 24  1  0
M  CHG  1   6   1
M  END
>  <filename_input>  (9) 
7LOU_IFM_docked.sdf

>  <pdb_id>  (9) 
7LOU_IFM

>  <pose_rank>  (9) 
8

>  <num_atoms_heavy>  (9) 
10

>  <num_torsions>  (9) 
1

>  <pose>  (9) 
[-17.599896220513855, 1.3405870074289998, 88.5467162632697, 1.8951454903691092, -4.2197620291488365, 4.266512277038695, 1.1941729616076253]

>  <energy>  (9) 
-470.70108049863444

>  <inter_energy>  (9) 
-474.51655766782875

>  <intra_energy>  (9) 
0.0

>  <rmsd>  (9) 
0.607125

>  <sdf_rank>  (9) 
0

$$$$

     RDKit          3D

 24 24  0  0  0  0  0  0  0  0999 V2000
  -14.0018   -6.7319   84.4065 O   0  0  0  0  0  0  0  0  0  0  0  0
  -13.8133   -7.7219   83.3771 C   0  0  1  0  0  0  0  0  0  0  0  0
  -14.5735   -9.0025   83.7093 C   0  0  2  0  0  0  0  0  0  0  0  0
  -14.0637   -9.6005   84.8903 O   0  0  0  0  0  0  0  0  0  0  0  0
  -14.4225  -10.0125   82.5841 C   0  0  0  0  0  0  0  0  0  0  0  0
  -14.8328   -9.4562   81.2813 N   0  0  0  0  0  0  0  0  0  0  0  0
  -14.0323   -8.2718   80.9401 C   0  0  0  0  0  0  0  0  0  0  0  0
  -14.2551   -7.1991   82.0072 C   0  0  2  0  0  0  0  0  0  0  0  0
  -13.5892   -5.8916   81.6300 C   0  0  0  0  0  0  0  0  0  0  0  0
  -14.5317   -4.9216   81.1968 O   0  0  0  0  0  0  0  0  0  0  0  0
  -13.9202   -7.1603   85.2953 H   0  0  0  0  0  0  0  0  0  0  0  0
  -12.7368   -7.9440   83.3329 H   0  0  0  0  0  0  0  0  0  0  0  0
  -15.6301   -8.7298   83.8479 H   0  0  0  0  0  0  0  0  0  0  0  0
  -14.4493   -9.1482   85.6821 H   0  0  0  0  0  0  0  0  0  0  0  0
  -13.3681  -10.3199   82.5224 H   0  0  0  0  0  0  0  0  0  0  0  0
  -15.0752  -10.8692   82.8077 H   0  0  0  0  0  0  0  0  0  0  0  0
  -14.7023  -10.1725   80.5528 H   0  0  0  0  0  0  0  0  0  0  0  0
  -15.8229   -9.1781   81.3398 H   0  0  0  0  0  0  0  0  0  0  0  0
  -12.9669   -8.5435   80.9064 H   0  0  0  0  0  0  0  0  0  0  0  0
  -14.3369   -7.8871   79.9556 H   0  0  0  0  0  0  0  0  0  0  0  0
  -15.3307   -6.9779   82.0714 H   0  0  0  0  0  0  0  0  0  0  0  0
  -13.0534   -5.4996   82.5071 H   0  0  0  0  0  0  0  0  0  0  0  0
  -12.8976   -6.0895   80.7978 H   0  0  0  0  0  0  0  0  0  0  0  0
  -14.9492   -4.4921   81.9851 H   0  0  0  0  0  0  0  0  0  0  0  0
  2  1  1  0
  2  3  1  0
  2  8  1  0
  3  4  1  0
  3  5  1  0
  5  6  1  0
  6  7  1  0
  7  8  1  0
  8  9  1  0
  9 10  1  0
  1 11  1  0
  2 12  1  6
  3 13  1  1
  4 14  1  0
  5 15  1  0
  5 16  1  0
  6 17  1  0
  6 18  1  0
  7 19  1  0
  7 20  1  0
  8 21  1  1
  9 22  1  0
  9 23  1  0
 10 24  1  0
M  CHG  1   6   1
M  END
>  <filename_input>  (10) 
7LOU_IFM_docked.sdf

>  <pdb_id>  (10) 
7LOU_IFM

>  <pose_rank>  (10) 
9

>  <num_atoms_heavy>  (10) 
10

>  <num_torsions>  (10) 
1

>  <pose>  (10) 
[-14.00179434524576, -6.731914683372381, 84.40648559274642, -0.6982370584104726, -4.200698726729603, -1.66105450094854, -9.761295562592814]

>  <energy>  (10) 
-66.77723057271379

>  <inter_energy>  (10) 
-64.93850740601003

>  <intra_energy>  (10) 
0.0

>  <rmsd>  (10) 
10.0705

>  <sdf_rank>  (10) 
0

$$$$

     RDKit          3D

 24 24  0  0  0  0  0  0  0  0999 V2000
  -18.4263   -2.1494   87.0778 O   0  0  0  0  0  0  0  0  0  0  0  0
  -17.6761   -0.9370   87.2840 C   0  0  1  0  0  0  0  0  0  0  0  0
  -18.4772    0.0634   88.1120 C   0  0  2  0  0  0  0  0  0  0  0  0
  -19.6469    0.4697   87.4199 O   0  0  0  0  0  0  0  0  0  0  0  0
  -17.6492    1.3090   88.3801 C   0  0  0  0  0  0  0  0  0  0  0  0
  -16.3556    0.9891   89.0120 N   0  0  0  0  0  0  0  0  0  0  0  0
  -15.5631    0.0905   88.1609 C   0  0  0  0  0  0  0  0  0  0  0  0
  -16.3341   -1.2160   87.9670 C   0  0  2  0  0  0  0  0  0  0  0  0
  -15.5022   -2.2505   87.2367 C   0  0  0  0  0  0  0  0  0  0  0  0
  -15.5074   -3.5036   87.9049 O   0  0  0  0  0  0  0  0  0  0  0  0
  -18.6684   -2.5407   87.9544 H   0  0  0  0  0  0  0  0  0  0  0  0
  -17.4772   -0.5052   86.2920 H   0  0  0  0  0  0  0  0  0  0  0  0
  -18.7480   -0.4341   89.0550 H   0  0  0  0  0  0  0  0  0  0  0  0
  -20.3491    0.7136   88.0737 H   0  0  0  0  0  0  0  0  0  0  0  0
  -17.4606    1.8219   87.4255 H   0  0  0  0  0  0  0  0  0  0  0  0
  -18.2153    1.9498   89.0722 H   0  0  0  0  0  0  0  0  0  0  0  0
  -15.8293    1.8616   89.1629 H   0  0  0  0  0  0  0  0  0  0  0  0
  -16.5360    0.5174   89.9097 H   0  0  0  0  0  0  0  0  0  0  0  0
  -15.3893    0.5651   87.1840 H   0  0  0  0  0  0  0  0  0  0  0  0
  -14.5938   -0.1161   88.6381 H   0  0  0  0  0  0  0  0  0  0  0  0
  -16.5519   -1.6514   88.9535 H   0  0  0  0  0  0  0  0  0  0  0  0
  -15.9115   -2.3856   86.2247 H   0  0  0  0  0  0  0  0  0  0  0  0
  -14.4641   -1.8885   87.2003 H   0  0  0  0  0  0  0  0  0  0  0  0
  -15.5068   -3.3556   88.8838 H   0  0  0  0  0  0  0  0  0  0  0  0
  2  1  1  0
  2  3  1  0
  2  8  1  0
  3  4  1  0
  3  5  1  0
  5  6  1  0
  6  7  1  0
  7  8  1  0
  8  9  1  0
  9 10  1  0
  1 11  1  0
  2 12  1  6
  3 13  1  1
  4 14  1  0
  5 15  1  0
  5 16  1  0
  6 17  1  0
  6 18  1  0
  7 19  1  0
  7 20  1  0
  8 21  1  1
  9 22  1  0
  9 23  1  0
 10 24  1  0
M  CHG  1   6   1
M  END
>  <filename_input>  (11) 
7LOU_IFM_docked.sdf

>  <pdb_id>  (11) 
7LOU_IFM

>  <pose_rank>  (11) 
10

>  <num_atoms_heavy>  (11) 
10

>  <num_torsions>  (11) 
1

>  <pose>  (11) 
[-18.42625548350831, -2.149407410041272, 87.07780983061862, -9.206296645882382, 1.5802471349342755, -1.1750255405154681, 3.2449546123916777]

>  <energy>  (11) 
-394.3146057537677

>  <inter_energy>  (11) 
-393.61505522568723

>  <intra_energy>  (11) 
0.18138094646329544

>  <rmsd>  (11) 
2.88522

>  <sdf_rank>  (11) 
0

$$$$

     RDKit          3D

 24 24  0  0  0  0  0  0  0  0999 V2000
   -9.7593   -6.9840   89.6032 O   0  0  0  0  0  0  0  0  0  0  0  0
  -10.3906   -7.9509   90.4643 C   0  0  1  0  0  0  0  0  0  0  0  0
   -9.4591   -8.3538   91.6037 C   0  0  2  0  0  0  0  0  0  0  0  0
   -8.3036   -9.0076   91.1040 O   0  0  0  0  0  0  0  0  0  0  0  0
  -10.1611   -9.3208   92.5422 C   0  0  0  0  0  0  0  0  0  0  0  0
  -11.4362   -8.7771   93.0458 N   0  0  0  0  0  0  0  0  0  0  0  0
  -12.3520   -8.4731   91.9373 C   0  0  0  0  0  0  0  0  0  0  0  0
  -11.7072   -7.4182   91.0371 C   0  0  2  0  0  0  0  0  0  0  0  0
  -12.6663   -6.9375   89.9672 C   0  0  0  0  0  0  0  0  0  0  0  0
  -13.4592   -7.9964   89.4508 O   0  0  0  0  0  0  0  0  0  0  0  0
   -9.3096   -6.2953   90.1541 H   0  0  0  0  0  0  0  0  0  0  0  0
  -10.6124   -8.8367   89.8510 H   0  0  0  0  0  0  0  0  0  0  0  0
   -9.1742   -7.4337   92.1351 H   0  0  0  0  0  0  0  0  0  0  0  0
   -7.7486   -9.3216   91.8614 H   0  0  0  0  0  0  0  0  0  0  0  0
  -10.3636  -10.2567   92.0009 H   0  0  0  0  0  0  0  0  0  0  0  0
   -9.5019   -9.4941   93.4056 H   0  0  0  0  0  0  0  0  0  0  0  0
  -11.8769   -9.4711   93.6664 H   0  0  0  0  0  0  0  0  0  0  0  0
  -11.2419   -7.9061   93.5600 H   0  0  0  0  0  0  0  0  0  0  0  0
  -12.5443   -9.3870   91.3560 H   0  0  0  0  0  0  0  0  0  0  0  0
  -13.3045   -8.0922   92.3345 H   0  0  0  0  0  0  0  0  0  0  0  0
  -11.4672   -6.5315   91.6421 H   0  0  0  0  0  0  0  0  0  0  0  0
  -13.3302   -6.1756   90.4015 H   0  0  0  0  0  0  0  0  0  0  0  0
  -12.0726   -6.5219   89.1397 H   0  0  0  0  0  0  0  0  0  0  0  0
  -13.8469   -8.5142   90.2002 H   0  0  0  0  0  0  0  0  0  0  0  0
  2  1  1  0
  2  3  1  0
  2  8  1  0
  3  4  1  0
  3  5  1  0
  5  6  1  0
  6  7  1  0
  7  8  1  0
  8  9  1  0
  9 10  1  0
  1 11  1  0
  2 12  1  6
  3 13  1  1
  4 14  1  0
  5 15  1  0
  5 16  1  0
  6 17  1  0
  6 18  1  0
  7 19  1  0
  7 20  1  0
  8 21  1  1
  9 22  1  0
  9 23  1  0
 10 24  1  0
M  CHG  1   6   1
M  END
>  <filename_input>  (12) 
7LOU_IFM_docked.sdf

>  <pdb_id>  (12) 
7LOU_IFM

>  <pose_rank>  (12) 
11

>  <num_atoms_heavy>  (12) 
10

>  <num_torsions>  (12) 
1

>  <pose>  (12) 
[-9.75929623231161, -6.98399907202398, 89.60316744810483, 0.5515538952595017, 3.1950921486642914, -0.9295774392798108, 0.2938596465096432]

>  <energy>  (12) 
-143.77590545503048

>  <inter_energy>  (12) 
-132.80886664227845

>  <intra_energy>  (12) 
0.0

>  <rmsd>  (12) 
10.7638

>  <sdf_rank>  (12) 
0

$$$$

     RDKit          3D

 24 24  0  0  0  0  0  0  0  0999 V2000
  -10.3630   -8.0551   93.6190 O   0  0  0  0  0  0  0  0  0  0  0  0
  -11.4699   -8.8415   93.1380 C   0  0  1  0  0  0  0  0  0  0  0  0
  -12.5008   -9.0605   94.2414 C   0  0  2  0  0  0  0  0  0  0  0  0
  -11.9481   -9.8183   95.3056 O   0  0  0  0  0  0  0  0  0  0  0  0
  -13.6940   -9.8319   93.7029 C   0  0  0  0  0  0  0  0  0  0  0  0
  -14.2888   -9.1791   92.5218 N   0  0  0  0  0  0  0  0  0  0  0  0
  -13.3028   -9.0524   91.4393 C   0  0  0  0  0  0  0  0  0  0  0  0
  -12.1403   -8.1864   91.9270 C   0  0  2  0  0  0  0  0  0  0  0  0
  -11.1675   -7.8780   90.8071 C   0  0  0  0  0  0  0  0  0  0  0  0
  -11.7738   -8.0009   89.5288 O   0  0  0  0  0  0  0  0  0  0  0  0
  -10.3634   -8.0554   94.6090 H   0  0  0  0  0  0  0  0  0  0  0  0
  -11.0651   -9.8155   92.8256 H   0  0  0  0  0  0  0  0  0  0  0  0
  -12.8098   -8.0686   94.6028 H   0  0  0  0  0  0  0  0  0  0  0  0
  -12.2322   -9.4288   96.1703 H   0  0  0  0  0  0  0  0  0  0  0  0
  -13.3651  -10.8431   93.4214 H   0  0  0  0  0  0  0  0  0  0  0  0
  -14.4593   -9.8669   94.4923 H   0  0  0  0  0  0  0  0  0  0  0  0
  -15.0837   -9.7434   92.1893 H   0  0  0  0  0  0  0  0  0  0  0  0
  -14.6041   -8.2363   92.7912 H   0  0  0  0  0  0  0  0  0  0  0  0
  -12.9295  -10.0491   91.1613 H   0  0  0  0  0  0  0  0  0  0  0  0
  -13.7719   -8.5859   90.5606 H   0  0  0  0  0  0  0  0  0  0  0  0
  -12.5339   -7.2134   92.2560 H   0  0  0  0  0  0  0  0  0  0  0  0
  -10.8004   -6.8483   90.9288 H   0  0  0  0  0  0  0  0  0  0  0  0
  -10.3424   -8.6032   90.8636 H   0  0  0  0  0  0  0  0  0  0  0  0
  -12.7381   -8.1964   89.6383 H   0  0  0  0  0  0  0  0  0  0  0  0
  2  1  1  0
  2  3  1  0
  2  8  1  0
  3  4  1  0
  3  5  1  0
  5  6  1  0
  6  7  1  0
  7  8  1  0
  8  9  1  0
  9 10  1  0
  1 11  1  0
  2 12  1  6
  3 13  1  1
  4 14  1  0
  5 15  1  0
  5 16  1  0
  6 17  1  0
  6 18  1  0
  7 19  1  0
  7 20  1  0
  8 21  1  1
  9 22  1  0
  9 23  1  0
 10 24  1  0
M  CHG  1   6   1
M  END
>  <filename_input>  (13) 
7LOU_IFM_docked.sdf

>  <pdb_id>  (13) 
7LOU_IFM

>  <pose_rank>  (13) 
12

>  <num_atoms_heavy>  (13) 
10

>  <num_torsions>  (13) 
1

>  <pose>  (13) 
[-10.362968076111441, -8.055056737298461, 93.61897319341584, -1.8085201458186135, -3.7349537244775113, 0.7407276330719867, 1.3597324856940622]

>  <energy>  (13) 
-135.8654112365019

>  <inter_energy>  (13) 
-110.63155796575194

>  <intra_energy>  (13) 
0.0

>  <rmsd>  (13) 
10.967

>  <sdf_rank>  (13) 
0

$$$$

     RDKit          3D

 24 24  0  0  0  0  0  0  0  0999 V2000
  -18.7347    2.8677   79.9584 O   0  0  0  0  0  0  0  0  0  0  0  0
  -19.6269    3.8288   79.3621 C   0  0  1  0  0  0  0  0  0  0  0  0
  -21.0726    3.3462   79.4350 C   0  0  2  0  0  0  0  0  0  0  0  0
  -21.2486    2.1619   78.6742 O   0  0  0  0  0  0  0  0  0  0  0  0
  -22.0092    4.3984   78.8653 C   0  0  0  0  0  0  0  0  0  0  0  0
  -21.8369    5.7077   79.5220 N   0  0  0  0  0  0  0  0  0  0  0  0
  -20.4587    6.1947   79.3693 C   0  0  0  0  0  0  0  0  0  0  0  0
  -19.5053    5.2000   80.0331 C   0  0  2  0  0  0  0  0  0  0  0  0
  -18.0835    5.7227   80.0575 C   0  0  0  0  0  0  0  0  0  0  0  0
  -17.3358    5.2796   78.9345 O   0  0  0  0  0  0  0  0  0  0  0  0
  -18.7932    2.9307   80.9446 H   0  0  0  0  0  0  0  0  0  0  0  0
  -19.3351    3.9320   78.3066 H   0  0  0  0  0  0  0  0  0  0  0  0
  -21.3011    3.1543   80.4937 H   0  0  0  0  0  0  0  0  0  0  0  0
  -21.3631    1.3913   79.2850 H   0  0  0  0  0  0  0  0  0  0  0  0
  -21.8046    4.5110   77.7904 H   0  0  0  0  0  0  0  0  0  0  0  0
  -23.0422    4.0640   79.0418 H   0  0  0  0  0  0  0  0  0  0  0  0
  -22.4835    6.3865   79.0954 H   0  0  0  0  0  0  0  0  0  0  0  0
  -22.0383    5.6007   80.5265 H   0  0  0  0  0  0  0  0  0  0  0  0
  -20.2146    6.2829   78.3003 H   0  0  0  0  0  0  0  0  0  0  0  0
  -20.3574    7.1817   79.8441 H   0  0  0  0  0  0  0  0  0  0  0  0
  -19.7955    5.0768   81.0870 H   0  0  0  0  0  0  0  0  0  0  0  0
  -18.1091    6.8224   80.0560 H   0  0  0  0  0  0  0  0  0  0  0  0
  -17.5950    5.3381   80.9650 H   0  0  0  0  0  0  0  0  0  0  0  0
  -16.5270    4.8003   79.2448 H   0  0  0  0  0  0  0  0  0  0  0  0
  2  1  1  0
  2  3  1  0
  2  8  1  0
  3  4  1  0
  3  5  1  0
  5  6  1  0
  6  7  1  0
  7  8  1  0
  8  9  1  0
  9 10  1  0
  1 11  1  0
  2 12  1  6
  3 13  1  1
  4 14  1  0
  5 15  1  0
  5 16  1  0
  6 17  1  0
  6 18  1  0
  7 19  1  0
  7 20  1  0
  8 21  1  1
  9 22  1  0
  9 23  1  0
 10 24  1  0
M  CHG  1   6   1
M  END
>  <filename_input>  (14) 
7LOU_IFM_docked.sdf

>  <pdb_id>  (14) 
7LOU_IFM

>  <pose_rank>  (14) 
13

>  <num_atoms_heavy>  (14) 
10

>  <num_torsions>  (14) 
1

>  <pose>  (14) 
[-18.734743878060957, 2.8676765865832436, 79.95837759819509, -2.775640757292375, -1.6953192684659626, -1.100364821217808, -0.6596989834418205]

>  <energy>  (14) 
-103.19056879453859

>  <inter_energy>  (14) 
-101.55459417324158

>  <intra_energy>  (14) 
5.538586054621004

>  <rmsd>  (14) 
10.8881

>  <sdf_rank>  (14) 
0

$$$$

     RDKit          3D

 24 24  0  0  0  0  0  0  0  0999 V2000
  -19.8261    4.0391   97.6794 O   0  0  0  0  0  0  0  0  0  0  0  0
  -19.2084    2.8593   98.2287 C   0  0  1  0  0  0  0  0  0  0  0  0
  -19.9917    1.6073   97.8451 C   0  0  2  0  0  0  0  0  0  0  0  0
  -21.2938    1.6344   98.4071 O   0  0  0  0  0  0  0  0  0  0  0  0
  -19.2924    0.3655   98.3722 C   0  0  0  0  0  0  0  0  0  0  0  0
  -17.8885    0.2890   97.9270 N   0  0  0  0  0  0  0  0  0  0  0  0
  -17.1297    1.4642   98.3775 C   0  0  0  0  0  0  0  0  0  0  0  0
  -17.7544    2.7204   97.7685 C   0  0  2  0  0  0  0  0  0  0  0  0
  -16.9218    3.9528   98.0581 C   0  0  0  0  0  0  0  0  0  0  0  0
  -15.5465    3.7429   97.7736 O   0  0  0  0  0  0  0  0  0  0  0  0
  -20.1326    4.6247   98.4164 H   0  0  0  0  0  0  0  0  0  0  0  0
  -19.2170    2.9675   99.3233 H   0  0  0  0  0  0  0  0  0  0  0  0
  -20.0530    1.5826   96.7471 H   0  0  0  0  0  0  0  0  0  0  0  0
  -21.2270    1.6330   99.3949 H   0  0  0  0  0  0  0  0  0  0  0  0
  -19.3154    0.3852   99.4718 H   0  0  0  0  0  0  0  0  0  0  0  0
  -19.8216   -0.5146   97.9779 H   0  0  0  0  0  0  0  0  0  0  0  0
  -17.4569   -0.5609   98.3175 H   0  0  0  0  0  0  0  0  0  0  0  0
  -17.8712    0.2613   96.8975 H   0  0  0  0  0  0  0  0  0  0  0  0
  -17.1659    1.5287   99.4750 H   0  0  0  0  0  0  0  0  0  0  0  0
  -16.0812    1.3763   98.0566 H   0  0  0  0  0  0  0  0  0  0  0  0
  -17.7647    2.6186   96.6733 H   0  0  0  0  0  0  0  0  0  0  0  0
  -17.2901    4.7840   97.4388 H   0  0  0  0  0  0  0  0  0  0  0  0
  -17.0165    4.1835   99.1294 H   0  0  0  0  0  0  0  0  0  0  0  0
  -15.0420    3.6659   98.6219 H   0  0  0  0  0  0  0  0  0  0  0  0
  2  1  1  0
  2  3  1  0
  2  8  1  0
  3  4  1  0
  3  5  1  0
  5  6  1  0
  6  7  1  0
  7  8  1  0
  8  9  1  0
  9 10  1  0
  1 11  1  0
  2 12  1  1
  3 13  1  6
  4 14  1  0
  5 15  1  0
  5 16  1  0
  6 17  1  0
  6 18  1  0
  7 19  1  0
  7 20  1  0
  8 21  1  6
  9 22  1  0
  9 23  1  0
 10 24  1  0
M  CHG  1   6   1
M  END
>  <filename_input>  (15) 
7LOU_IFM_docked.sdf

>  <pdb_id>  (15) 
7LOU_IFM

>  <pose_rank>  (15) 
14

>  <num_atoms_heavy>  (15) 
10

>  <num_torsions>  (15) 
1

>  <pose>  (15) 
[-19.826074376433127, 4.039132511342101, 97.6793922437791, 5.182047685226189, -1.5389249468063277, -1.8666375836515934, 1.8115842726303037]

>  <energy>  (15) 
-127.32199835580809

>  <inter_energy>  (15) 
-110.17435520324071

>  <intra_energy>  (15) 
0.0

>  <rmsd>  (15) 
10.3321

>  <sdf_rank>  (15) 
0

$$$$

     RDKit          3D

 24 24  0  0  0  0  0  0  0  0999 V2000
  -18.9760    5.0666   98.1825 O   0  0  0  0  0  0  0  0  0  0  0  0
  -17.7203    5.7711   98.1383 C   0  0  1  0  0  0  0  0  0  0  0  0
  -16.7293    5.0580   97.2232 C   0  0  2  0  0  0  0  0  0  0  0  0
  -16.4100    3.7718   97.7292 O   0  0  0  0  0  0  0  0  0  0  0  0
  -15.4340    5.8471   97.1314 C   0  0  0  0  0  0  0  0  0  0  0  0
  -15.6631    7.2410   96.7075 N   0  0  0  0  0  0  0  0  0  0  0  0
  -16.5539    7.9362   97.6472 C   0  0  0  0  0  0  0  0  0  0  0  0
  -17.9042    7.2184   97.6731 C   0  0  2  0  0  0  0  0  0  0  0  0
  -18.9238    7.9794   98.4958 C   0  0  0  0  0  0  0  0  0  0  0  0
  -19.4214    9.1160   97.8050 O   0  0  0  0  0  0  0  0  0  0  0  0
  -19.2387    4.9192   99.1256 H   0  0  0  0  0  0  0  0  0  0  0  0
  -17.3187    5.7843   99.1623 H   0  0  0  0  0  0  0  0  0  0  0  0
  -17.2018    4.9697   96.2338 H   0  0  0  0  0  0  0  0  0  0  0  0
  -16.4159    3.7957   98.7188 H   0  0  0  0  0  0  0  0  0  0  0  0
  -14.9505    5.8517   98.1195 H   0  0  0  0  0  0  0  0  0  0  0  0
  -14.7954    5.3641   96.3772 H   0  0  0  0  0  0  0  0  0  0  0  0
  -14.7600    7.7350   96.6710 H   0  0  0  0  0  0  0  0  0  0  0  0
  -16.1072    7.2332   95.7782 H   0  0  0  0  0  0  0  0  0  0  0  0
  -16.1104    7.9247   98.6538 H   0  0  0  0  0  0  0  0  0  0  0  0
  -16.6925    8.9794   97.3270 H   0  0  0  0  0  0  0  0  0  0  0  0
  -18.3104    7.1859   96.6513 H   0  0  0  0  0  0  0  0  0  0  0  0
  -19.7642    7.3090   98.7288 H   0  0  0  0  0  0  0  0  0  0  0  0
  -18.4282    8.3289   99.4135 H   0  0  0  0  0  0  0  0  0  0  0  0
  -19.7192    9.7960   98.4600 H   0  0  0  0  0  0  0  0  0  0  0  0
  2  1  1  0
  2  3  1  0
  2  8  1  0
  3  4  1  0
  3  5  1  0
  5  6  1  0
  6  7  1  0
  7  8  1  0
  8  9  1  0
  9 10  1  0
  1 11  1  0
  2 12  1  1
  3 13  1  6
  4 14  1  0
  5 15  1  0
  5 16  1  0
  6 17  1  0
  6 18  1  0
  7 19  1  0
  7 20  1  0
  8 21  1  6
  9 22  1  0
  9 23  1  0
 10 24  1  0
M  CHG  1   6   1
M  END
>  <filename_input>  (16) 
7LOU_IFM_docked.sdf

>  <pdb_id>  (16) 
7LOU_IFM

>  <pose_rank>  (16) 
15

>  <num_atoms_heavy>  (16) 
10

>  <num_torsions>  (16) 
1

>  <pose>  (16) 
[-18.976025005478974, 5.066571905716294, 98.18254302558164, 0.2772498613977696, -0.100740855995782, -4.420395197200119, 2.2924255082214016]

>  <energy>  (16) 
-126.96181562025107

>  <inter_energy>  (16) 
-115.03257177330649

>  <intra_energy>  (16) 
0.0

>  <rmsd>  (16) 
12.1402

>  <sdf_rank>  (16) 
0

$$$$

     RDKit          3D

 24 24  0  0  0  0  0  0  0  0999 V2000
  -19.8804    6.1009   98.4177 O   0  0  0  0  0  0  0  0  0  0  0  0
  -19.2618    4.8065   98.2881 C   0  0  1  0  0  0  0  0  0  0  0  0
  -20.2201    3.8083   97.6450 C   0  0  2  0  0  0  0  0  0  0  0  0
  -21.3529    3.5919   98.4710 O   0  0  0  0  0  0  0  0  0  0  0  0
  -19.5330    2.4670   97.4514 C   0  0  0  0  0  0  0  0  0  0  0  0
  -18.2794    2.5920   96.6846 N   0  0  0  0  0  0  0  0  0  0  0  0
  -17.3365    3.4927   97.3627 C   0  0  0  0  0  0  0  0  0  0  0  0
  -17.9686    4.8811   97.4713 C   0  0  2  0  0  0  0  0  0  0  0  0
  -16.9857    5.8998   98.0113 C   0  0  0  0  0  0  0  0  0  0  0  0
  -16.6885    6.9083   97.0567 O   0  0  0  0  0  0  0  0  0  0  0  0
  -19.9859    6.3217   99.3770 H   0  0  0  0  0  0  0  0  0  0  0  0
  -19.0120    4.4626   99.3026 H   0  0  0  0  0  0  0  0  0  0  0  0
  -20.5312    4.2292   96.6775 H   0  0  0  0  0  0  0  0  0  0  0  0
  -21.0827    3.6435   99.4219 H   0  0  0  0  0  0  0  0  0  0  0  0
  -19.3038    2.0399   98.4389 H   0  0  0  0  0  0  0  0  0  0  0  0
  -20.2141    1.8160   96.8837 H   0  0  0  0  0  0  0  0  0  0  0  0
  -17.8479    1.6615   96.5900 H   0  0  0  0  0  0  0  0  0  0  0  0
  -18.4988    2.9833   95.7575 H   0  0  0  0  0  0  0  0  0  0  0  0
  -17.1166    3.1073   98.3692 H   0  0  0  0  0  0  0  0  0  0  0  0
  -16.4004    3.5533   96.7882 H   0  0  0  0  0  0  0  0  0  0  0  0
  -18.2364    5.2309   96.4634 H   0  0  0  0  0  0  0  0  0  0  0  0
  -17.4190    6.3728   98.9049 H   0  0  0  0  0  0  0  0  0  0  0  0
  -16.0501    5.3746   98.2541 H   0  0  0  0  0  0  0  0  0  0  0  0
  -16.4421    7.7445   97.5259 H   0  0  0  0  0  0  0  0  0  0  0  0
  2  1  1  0
  2  3  1  0
  2  8  1  0
  3  4  1  0
  3  5  1  0
  5  6  1  0
  6  7  1  0
  7  8  1  0
  8  9  1  0
  9 10  1  0
  1 11  1  0
  2 12  1  1
  3 13  1  6
  4 14  1  0
  5 15  1  0
  5 16  1  0
  6 17  1  0
  6 18  1  0
  7 19  1  0
  7 20  1  0
  8 21  1  6
  9 22  1  0
  9 23  1  0
 10 24  1  0
M  CHG  1   6   1
M  END
>  <filename_input>  (17) 
7LOU_IFM_docked.sdf

>  <pdb_id>  (17) 
7LOU_IFM

>  <pose_rank>  (17) 
16

>  <num_atoms_heavy>  (17) 
10

>  <num_torsions>  (17) 
1

>  <pose>  (17) 
[-19.88044476697425, 6.100936405046726, 98.41769623141688, 0.9558755695608165, -4.834118362420739, -3.161432133665975, 9.271015206376543]

>  <energy>  (17) 
-123.67133255990734

>  <inter_energy>  (17) 
-117.78242681630728

>  <intra_energy>  (17) 
0.0

>  <rmsd>  (17) 
10.8464

>  <sdf_rank>  (17) 
0

$$$$

     RDKit          3D

 24 24  0  0  0  0  0  0  0  0999 V2000
  -19.2423    4.0995   79.9204 O   0  0  0  0  0  0  0  0  0  0  0  0
  -19.2219    5.5366   80.0183 C   0  0  1  0  0  0  0  0  0  0  0  0
  -17.8543    6.0885   79.6269 C   0  0  2  0  0  0  0  0  0  0  0  0
  -16.8538    5.6457   80.5299 O   0  0  0  0  0  0  0  0  0  0  0  0
  -17.8669    7.6074   79.6682 C   0  0  0  0  0  0  0  0  0  0  0  0
  -18.9436    8.1755   78.8356 N   0  0  0  0  0  0  0  0  0  0  0  0
  -20.2600    7.6972   79.2810 C   0  0  0  0  0  0  0  0  0  0  0  0
  -20.3060    6.1746   79.1448 C   0  0  2  0  0  0  0  0  0  0  0  0
  -21.6913    5.6315   79.4301 C   0  0  0  0  0  0  0  0  0  0  0  0
  -22.0260    5.7281   80.8068 O   0  0  0  0  0  0  0  0  0  0  0  0
  -19.2478    3.7069   80.8292 H   0  0  0  0  0  0  0  0  0  0  0  0
  -19.4265    5.7938   81.0681 H   0  0  0  0  0  0  0  0  0  0  0  0
  -17.6342    5.7288   78.6110 H   0  0  0  0  0  0  0  0  0  0  0  0
  -17.1644    5.7831   81.4598 H   0  0  0  0  0  0  0  0  0  0  0  0
  -18.0137    7.9328   80.7086 H   0  0  0  0  0  0  0  0  0  0  0  0
  -16.9059    7.9653   79.2702 H   0  0  0  0  0  0  0  0  0  0  0  0
  -18.9170    9.2028   78.9051 H   0  0  0  0  0  0  0  0  0  0  0  0
  -18.7978    7.8765   77.8608 H   0  0  0  0  0  0  0  0  0  0  0  0
  -20.4188    7.9788   80.3324 H   0  0  0  0  0  0  0  0  0  0  0  0
  -21.0496    8.1506   78.6638 H   0  0  0  0  0  0  0  0  0  0  0  0
  -20.0888    5.9031   78.1012 H   0  0  0  0  0  0  0  0  0  0  0  0
  -22.4253    6.2049   78.8448 H   0  0  0  0  0  0  0  0  0  0  0  0
  -21.7042    4.5677   79.1505 H   0  0  0  0  0  0  0  0  0  0  0  0
  -21.2344    5.4997   81.3557 H   0  0  0  0  0  0  0  0  0  0  0  0
  2  1  1  0
  2  3  1  0
  2  8  1  0
  3  4  1  0
  3  5  1  0
  5  6  1  0
  6  7  1  0
  7  8  1  0
  8  9  1  0
  9 10  1  0
  1 11  1  0
  2 12  1  1
  3 13  1  6
  4 14  1  0
  5 15  1  0
  5 16  1  0
  6 17  1  0
  6 18  1  0
  7 19  1  0
  7 20  1  0
  8 21  1  6
  9 22  1  0
  9 23  1  0
 10 24  1  0
M  CHG  1   6   1
M  END
>  <filename_input>  (18) 
7LOU_IFM_docked.sdf

>  <pdb_id>  (18) 
7LOU_IFM

>  <pose_rank>  (18) 
17

>  <num_atoms_heavy>  (18) 
10

>  <num_torsions>  (18) 
1

>  <pose>  (18) 
[-19.24226787234742, 4.099500178387781, 79.92041156858795, 0.7922408318390645, 0.26381057131989943, -3.2858678739108393, -0.26522436586336695]

>  <energy>  (18) 
-121.08729344322602

>  <inter_energy>  (18) 
-108.29893932503926

>  <intra_energy>  (18) 
0.09157943105407296

>  <rmsd>  (18) 
11.778

>  <sdf_rank>  (18) 
0

$$$$

     RDKit          3D

 24 24  0  0  0  0  0  0  0  0999 V2000
  -25.8534    4.8100   94.2405 O   0  0  0  0  0  0  0  0  0  0  0  0
  -25.5849    6.1560   93.8031 C   0  0  1  0  0  0  0  0  0  0  0  0
  -26.3708    6.4827   92.5366 C   0  0  2  0  0  0  0  0  0  0  0  0
  -25.9574    5.6580   91.4590 O   0  0  0  0  0  0  0  0  0  0  0  0
  -26.1321    7.9258   92.1251 C   0  0  0  0  0  0  0  0  0  0  0  0
  -26.4368    8.8707   93.2157 N   0  0  0  0  0  0  0  0  0  0  0  0
  -25.6101    8.5921   94.3985 C   0  0  0  0  0  0  0  0  0  0  0  0
  -25.9157    7.1780   94.8946 C   0  0  2  0  0  0  0  0  0  0  0  0
  -25.2202    6.8863   96.2086 C   0  0  0  0  0  0  0  0  0  0  0  0
  -24.8342    8.0765   96.8803 O   0  0  0  0  0  0  0  0  0  0  0  0
  -25.8595    4.7796   95.2300 H   0  0  0  0  0  0  0  0  0  0  0  0
  -24.5087    6.2182   93.5844 H   0  0  0  0  0  0  0  0  0  0  0  0
  -27.4348    6.3123   92.7580 H   0  0  0  0  0  0  0  0  0  0  0  0
  -25.5434    4.8323   91.8153 H   0  0  0  0  0  0  0  0  0  0  0  0
  -25.0765    8.0431   91.8386 H   0  0  0  0  0  0  0  0  0  0  0  0
  -26.8017    8.1532   91.2826 H   0  0  0  0  0  0  0  0  0  0  0  0
  -26.2496    9.8305   92.8922 H   0  0  0  0  0  0  0  0  0  0  0  0
  -27.4279    8.7648   93.4751 H   0  0  0  0  0  0  0  0  0  0  0  0
  -24.5458    8.6677   94.1313 H   0  0  0  0  0  0  0  0  0  0  0  0
  -25.8349    9.3216   95.1905 H   0  0  0  0  0  0  0  0  0  0  0  0
  -26.9927    7.0983   95.1036 H   0  0  0  0  0  0  0  0  0  0  0  0
  -25.9059    6.3195   96.8555 H   0  0  0  0  0  0  0  0  0  0  0  0
  -24.3102    6.3078   95.9910 H   0  0  0  0  0  0  0  0  0  0  0  0
  -24.8807    7.9331   97.8588 H   0  0  0  0  0  0  0  0  0  0  0  0
  2  1  1  0
  2  3  1  0
  2  8  1  0
  3  4  1  0
  3  5  1  0
  5  6  1  0
  6  7  1  0
  7  8  1  0
  8  9  1  0
  9 10  1  0
  1 11  1  0
  2 12  1  6
  3 13  1  1
  4 14  1  0
  5 15  1  0
  5 16  1  0
  6 17  1  0
  6 18  1  0
  7 19  1  0
  7 20  1  0
  8 21  1  1
  9 22  1  0
  9 23  1  0
 10 24  1  0
M  CHG  1   6   1
M  END
>  <filename_input>  (19) 
7LOU_IFM_docked.sdf

>  <pdb_id>  (19) 
7LOU_IFM

>  <pose_rank>  (19) 
18

>  <num_atoms_heavy>  (19) 
10

>  <num_torsions>  (19) 
1

>  <pose>  (19) 
[-25.85342835401327, 4.810044450130998, 94.2404948657749, 1.711763579894635, 0.3100247279135377, 1.9235382187755428, 1.3100990016485377]

>  <energy>  (19) 
-117.21369874634813

>  <inter_energy>  (19) 
-85.32540866481476

>  <intra_energy>  (19) 
0.0

>  <rmsd>  (19) 
13.2096

>  <sdf_rank>  (19) 
0

$$$$

     RDKit          3D

 24 24  0  0  0  0  0  0  0  0999 V2000
  -17.2131   -3.1313   87.7795 O   0  0  0  0  0  0  0  0  0  0  0  0
  -16.9400   -1.7196   87.6906 C   0  0  1  0  0  0  0  0  0  0  0  0
  -17.9951   -0.9138   88.4426 C   0  0  2  0  0  0  0  0  0  0  0  0
  -19.2732   -1.0776   87.8495 O   0  0  0  0  0  0  0  0  0  0  0  0
  -17.6578    0.5672   88.3991 C   0  0  0  0  0  0  0  0  0  0  0  0
  -16.2993    0.8412   88.9036 N   0  0  0  0  0  0  0  0  0  0  0  0
  -15.2904    0.1213   88.1137 C   0  0  0  0  0  0  0  0  0  0  0  0
  -15.5481   -1.3815   88.2324 C   0  0  2  0  0  0  0  0  0  0  0  0
  -14.4460   -2.1890   87.5776 C   0  0  0  0  0  0  0  0  0  0  0  0
  -14.9195   -2.9223   86.4574 O   0  0  0  0  0  0  0  0  0  0  0  0
  -17.2647   -3.3981   88.7315 H   0  0  0  0  0  0  0  0  0  0  0  0
  -16.9726   -1.4487   86.6250 H   0  0  0  0  0  0  0  0  0  0  0  0
  -18.0088   -1.2792   89.4801 H   0  0  0  0  0  0  0  0  0  0  0  0
  -19.9576   -1.1653   88.5594 H   0  0  0  0  0  0  0  0  0  0  0  0
  -17.7269    0.9164   87.3583 H   0  0  0  0  0  0  0  0  0  0  0  0
  -18.3728    1.0969   89.0458 H   0  0  0  0  0  0  0  0  0  0  0  0
  -16.1152    1.8529   88.8438 H   0  0  0  0  0  0  0  0  0  0  0  0
  -16.2409    0.5216   89.8810 H   0  0  0  0  0  0  0  0  0  0  0  0
  -15.3609    0.4259   87.0591 H   0  0  0  0  0  0  0  0  0  0  0  0
  -14.2842    0.3578   88.4900 H   0  0  0  0  0  0  0  0  0  0  0  0
  -15.5322   -1.6632   89.2956 H   0  0  0  0  0  0  0  0  0  0  0  0
  -13.6532   -1.5033   87.2441 H   0  0  0  0  0  0  0  0  0  0  0  0
  -14.0644   -2.9073   88.3181 H   0  0  0  0  0  0  0  0  0  0  0  0
  -15.4288   -3.7113   86.7708 H   0  0  0  0  0  0  0  0  0  0  0  0
  2  1  1  0
  2  3  1  0
  2  8  1  0
  3  4  1  0
  3  5  1  0
  5  6  1  0
  6  7  1  0
  7  8  1  0
  8  9  1  0
  9 10  1  0
  1 11  1  0
  2 12  1  6
  3 13  1  1
  4 14  1  0
  5 15  1  0
  5 16  1  0
  6 17  1  0
  6 18  1  0
  7 19  1  0
  7 20  1  0
  8 21  1  1
  9 22  1  0
  9 23  1  0
 10 24  1  0
M  CHG  1   6   1
M  END
>  <filename_input>  (20) 
7LOU_IFM_docked.sdf

>  <pdb_id>  (20) 
7LOU_IFM

>  <pose_rank>  (20) 
19

>  <num_atoms_heavy>  (20) 
10

>  <num_torsions>  (20) 
1

>  <pose>  (20) 
[-17.213113260566793, -3.131254211087934, 87.77953049964327, -40.806105716348185, -0.943422105387408, -3.654455961483269, 5.245138631156173]

>  <energy>  (20) 
-376.30172470351005

>  <inter_energy>  (20) 
-395.142392258867

>  <intra_energy>  (20) 
16.621313741648965

>  <rmsd>  (20) 
3.00439

>  <sdf_rank>  (20) 
0

$$$$

     RDKit          3D

 24 24  0  0  0  0  0  0  0  0999 V2000
  -19.7525   -9.2619   95.6911 O   0  0  0  0  0  0  0  0  0  0  0  0
  -20.8747   -8.3943   95.9423 C   0  0  1  0  0  0  0  0  0  0  0  0
  -22.1286   -9.2051   96.2566 C   0  0  2  0  0  0  0  0  0  0  0  0
  -22.5153   -9.9902   95.1402 O   0  0  0  0  0  0  0  0  0  0  0  0
  -23.2869   -8.2786   96.5866 C   0  0  0  0  0  0  0  0  0  0  0  0
  -22.9545   -7.3425   97.6767 N   0  0  0  0  0  0  0  0  0  0  0  0
  -21.7949   -6.5124   97.3211 C   0  0  0  0  0  0  0  0  0  0  0  0
  -20.5872   -7.4217   97.0897 C   0  0  2  0  0  0  0  0  0  0  0  0
  -19.3184   -6.6201   96.8819 C   0  0  0  0  0  0  0  0  0  0  0  0
  -18.2609   -7.0755   97.7132 O   0  0  0  0  0  0  0  0  0  0  0  0
  -19.3667   -9.5602   96.5527 H   0  0  0  0  0  0  0  0  0  0  0  0
  -21.0449   -7.8096   95.0263 H   0  0  0  0  0  0  0  0  0  0  0  0
  -21.8932   -9.8539   97.1132 H   0  0  0  0  0  0  0  0  0  0  0  0
  -22.9298  -10.8318   95.4564 H   0  0  0  0  0  0  0  0  0  0  0  0
  -23.5451   -7.6994   95.6879 H   0  0  0  0  0  0  0  0  0  0  0  0
  -24.1329   -8.8985   96.9183 H   0  0  0  0  0  0  0  0  0  0  0  0
  -23.7643   -6.7315   97.8550 H   0  0  0  0  0  0  0  0  0  0  0  0
  -22.7224   -7.8879   98.5191 H   0  0  0  0  0  0  0  0  0  0  0  0
  -22.0130   -5.9473   96.4029 H   0  0  0  0  0  0  0  0  0  0  0  0
  -21.5787   -5.8057   98.1358 H   0  0  0  0  0  0  0  0  0  0  0  0
  -20.4147   -8.0229   97.9945 H   0  0  0  0  0  0  0  0  0  0  0  0
  -19.0084   -6.7116   95.8304 H   0  0  0  0  0  0  0  0  0  0  0  0
  -19.5305   -5.5730   97.1437 H   0  0  0  0  0  0  0  0  0  0  0  0
  -18.5170   -6.9652   98.6631 H   0  0  0  0  0  0  0  0  0  0  0  0
  2  1  1  0
  2  3  1  0
  2  8  1  0
  3  4  1  0
  3  5  1  0
  5  6  1  0
  6  7  1  0
  7  8  1  0
  8  9  1  0
  9 10  1  0
  1 11  1  0
  2 12  1  6
  3 13  1  1
  4 14  1  0
  5 15  1  0
  5 16  1  0
  6 17  1  0
  6 18  1  0
  7 19  1  0
  7 20  1  0
  8 21  1  1
  9 22  1  0
  9 23  1  0
 10 24  1  0
M  CHG  1   6   1
M  END
>  <filename_input>  (21) 
7LOU_IFM_docked.sdf

>  <pdb_id>  (21) 
7LOU_IFM

>  <pose_rank>  (21) 
20

>  <num_atoms_heavy>  (21) 
10

>  <num_torsions>  (21) 
1

>  <pose>  (21) 
[-19.752533408402307, -9.261918684588435, 95.69112645570485, -2.3210293092798024, -1.3881984392849367, -0.767937876179064, -3.0472303334417994]

>  <energy>  (21) 
-86.81419778512752

>  <inter_energy>  (21) 
-78.34538971679363

>  <intra_energy>  (21) 
0.14350950000378554

>  <rmsd>  (21) 
12.2675

>  <sdf_rank>  (21) 
0

$$$$

     RDKit          3D

 24 24  0  0  0  0  0  0  0  0999 V2000
  -23.2859   -6.4206   97.2414 O   0  0  0  0  0  0  0  0  0  0  0  0
  -22.9155   -7.8124   97.2118 C   0  0  1  0  0  0  0  0  0  0  0  0
  -23.7595   -8.5776   96.1968 C   0  0  2  0  0  0  0  0  0  0  0  0
  -25.1280   -8.5707   96.5703 O   0  0  0  0  0  0  0  0  0  0  0  0
  -23.3127  -10.0283   96.1260 C   0  0  0  0  0  0  0  0  0  0  0  0
  -21.8710  -10.1508   95.8404 N   0  0  0  0  0  0  0  0  0  0  0  0
  -21.0716   -9.4784   96.8742 C   0  0  0  0  0  0  0  0  0  0  0  0
  -21.4295   -7.9915   96.8881 C   0  0  2  0  0  0  0  0  0  0  0  0
  -20.5232   -7.2092   97.8166 C   0  0  0  0  0  0  0  0  0  0  0  0
  -19.5480   -6.4636   97.1025 O   0  0  0  0  0  0  0  0  0  0  0  0
  -23.3658   -6.1203   98.1814 H   0  0  0  0  0  0  0  0  0  0  0  0
  -23.1034   -8.2202   98.2160 H   0  0  0  0  0  0  0  0  0  0  0  0
  -23.6297   -8.0828   95.2230 H   0  0  0  0  0  0  0  0  0  0  0  0
  -25.2005   -8.5703   97.5577 H   0  0  0  0  0  0  0  0  0  0  0  0
  -23.5258  -10.5126   97.0904 H   0  0  0  0  0  0  0  0  0  0  0  0
  -23.8631  -10.5129   95.3061 H   0  0  0  0  0  0  0  0  0  0  0  0
  -21.6164  -11.1485   95.8133 H   0  0  0  0  0  0  0  0  0  0  0  0
  -21.6767   -9.7046   94.9326 H   0  0  0  0  0  0  0  0  0  0  0  0
  -21.2921   -9.9204   97.8571 H   0  0  0  0  0  0  0  0  0  0  0  0
  -20.0006   -9.6019   96.6562 H   0  0  0  0  0  0  0  0  0  0  0  0
  -21.2593   -7.5743   95.8846 H   0  0  0  0  0  0  0  0  0  0  0  0
  -21.1363   -6.5154   98.4105 H   0  0  0  0  0  0  0  0  0  0  0  0
  -19.9968   -7.9270   98.4630 H   0  0  0  0  0  0  0  0  0  0  0  0
  -18.9486   -6.0053   97.7434 H   0  0  0  0  0  0  0  0  0  0  0  0
  2  1  1  0
  2  3  1  0
  2  8  1  0
  3  4  1  0
  3  5  1  0
  5  6  1  0
  6  7  1  0
  7  8  1  0
  8  9  1  0
  9 10  1  0
  1 11  1  0
  2 12  1  1
  3 13  1  6
  4 14  1  0
  5 15  1  0
  5 16  1  0
  6 17  1  0
  6 18  1  0
  7 19  1  0
  7 20  1  0
  8 21  1  6
  9 22  1  0
  9 23  1  0
 10 24  1  0
M  CHG  1   6   1
M  END
>  <filename_input>  (22) 
7LOU_IFM_docked.sdf

>  <pdb_id>  (22) 
7LOU_IFM

>  <pose_rank>  (22) 
21

>  <num_atoms_heavy>  (22) 
10

>  <num_torsions>  (22) 
1

>  <pose>  (22) 
[-23.285908456144142, -6.420586459287095, 97.24144040250438, 3.6201046971562447, -0.5704393023789351, -5.065014050830484, -3.4993502806343377]

>  <energy>  (22) 
-110.65105129845128

>  <inter_energy>  (22) 
-109.32597805416013

>  <intra_energy>  (22) 
0.0

>  <rmsd>  (22) 
12.7424

>  <sdf_rank>  (22) 
0

$$$$

     RDKit          3D

 24 24  0  0  0  0  0  0  0  0999 V2000
  -11.6615    7.8316   83.7808 O   0  0  0  0  0  0  0  0  0  0  0  0
  -12.6358    7.4883   82.7768 C   0  0  1  0  0  0  0  0  0  0  0  0
  -13.9191    8.2914   82.9680 C   0  0  2  0  0  0  0  0  0  0  0  0
  -14.5371    7.9690   84.2035 O   0  0  0  0  0  0  0  0  0  0  0  0
  -14.9118    7.9704   81.8633 C   0  0  0  0  0  0  0  0  0  0  0  0
  -14.3338    8.1759   80.5220 N   0  0  0  0  0  0  0  0  0  0  0  0
  -13.1468    7.3317   80.3265 C   0  0  0  0  0  0  0  0  0  0  0  0
  -12.0903    7.7146   81.3639 C   0  0  2  0  0  0  0  0  0  0  0  0
  -10.7790    6.9978   81.1141 C   0  0  0  0  0  0  0  0  0  0  0  0
  -10.9346    5.9015   80.2250 O   0  0  0  0  0  0  0  0  0  0  0  0
  -12.0519    7.6941   84.6801 H   0  0  0  0  0  0  0  0  0  0  0  0
  -12.8606    6.4180   82.8945 H   0  0  0  0  0  0  0  0  0  0  0  0
  -13.6453    9.3566   82.9475 H   0  0  0  0  0  0  0  0  0  0  0  0
  -13.9601    8.2700   84.9495 H   0  0  0  0  0  0  0  0  0  0  0  0
  -15.2215    6.9193   81.9589 H   0  0  0  0  0  0  0  0  0  0  0  0
  -15.7698    8.6503   81.9705 H   0  0  0  0  0  0  0  0  0  0  0  0
  -15.0391    7.9358   79.8107 H   0  0  0  0  0  0  0  0  0  0  0  0
  -14.0536    9.1630   80.4326 H   0  0  0  0  0  0  0  0  0  0  0  0
  -13.4212    6.2739   80.4521 H   0  0  0  0  0  0  0  0  0  0  0  0
  -12.7457    7.4815   79.3133 H   0  0  0  0  0  0  0  0  0  0  0  0
  -11.8666    8.7872   81.2661 H   0  0  0  0  0  0  0  0  0  0  0  0
  -10.0622    7.7096   80.6786 H   0  0  0  0  0  0  0  0  0  0  0  0
  -10.4161    6.6071   82.0761 H   0  0  0  0  0  0  0  0  0  0  0  0
  -11.0529    5.0681   80.7462 H   0  0  0  0  0  0  0  0  0  0  0  0
  2  1  1  0
  2  3  1  0
  2  8  1  0
  3  4  1  0
  3  5  1  0
  5  6  1  0
  6  7  1  0
  7  8  1  0
  8  9  1  0
  9 10  1  0
  1 11  1  0
  2 12  1  6
  3 13  1  1
  4 14  1  0
  5 15  1  0
  5 16  1  0
  6 17  1  0
  6 18  1  0
  7 19  1  0
  7 20  1  0
  8 21  1  1
  9 22  1  0
  9 23  1  0
 10 24  1  0
M  CHG  1   6   1
M  END
>  <filename_input>  (23) 
7LOU_IFM_docked.sdf

>  <pdb_id>  (23) 
7LOU_IFM

>  <pose_rank>  (23) 
22

>  <num_atoms_heavy>  (23) 
10

>  <num_torsions>  (23) 
1

>  <pose>  (23) 
[-11.661538331542742, 7.8316229934658415, 83.78080129654394, 1.1633301260921458, 0.8491548420510302, -0.6587817678571489, 0.6980319021250334]

>  <energy>  (23) 
-110.08459518376344

>  <inter_energy>  (23) 
-103.54543055037614

>  <intra_energy>  (23) 
0.0

>  <rmsd>  (23) 
11.3375

>  <sdf_rank>  (23) 
0

$$$$

     RDKit          3D

 24 24  0  0  0  0  0  0  0  0999 V2000
  -11.5233    8.3945   85.1313 O   0  0  0  0  0  0  0  0  0  0  0  0
  -11.8466    8.0518   83.7700 C   0  0  1  0  0  0  0  0  0  0  0  0
  -13.0547    8.8459   83.2822 C   0  0  2  0  0  0  0  0  0  0  0  0
  -14.2136    8.5119   84.0290 O   0  0  0  0  0  0  0  0  0  0  0  0
  -13.3426    8.5262   81.8248 C   0  0  0  0  0  0  0  0  0  0  0  0
  -12.1633    8.7438   80.9663 N   0  0  0  0  0  0  0  0  0  0  0  0
  -11.0354    7.9080   81.4013 C   0  0  0  0  0  0  0  0  0  0  0  0
  -10.6588    8.2906   82.8334 C   0  0  2  0  0  0  0  0  0  0  0  0
   -9.3974    7.5833   83.2853 C   0  0  0  0  0  0  0  0  0  0  0  0
   -8.7527    6.9113   82.2132 O   0  0  0  0  0  0  0  0  0  0  0  0
  -12.0546    7.8314   85.7484 H   0  0  0  0  0  0  0  0  0  0  0  0
  -12.0909    6.9794   83.7540 H   0  0  0  0  0  0  0  0  0  0  0  0
  -12.8177    9.9129   83.4068 H   0  0  0  0  0  0  0  0  0  0  0  0
  -14.0110    8.5703   84.9963 H   0  0  0  0  0  0  0  0  0  0  0  0
  -13.6489    7.4726   81.7466 H   0  0  0  0  0  0  0  0  0  0  0  0
  -14.1411    9.2003   81.4812 H   0  0  0  0  0  0  0  0  0  0  0  0
  -12.4053    8.5041   79.9942 H   0  0  0  0  0  0  0  0  0  0  0  0
  -11.8850    9.7331   81.0347 H   0  0  0  0  0  0  0  0  0  0  0  0
  -11.3265    6.8478   81.3667 H   0  0  0  0  0  0  0  0  0  0  0  0
  -10.1750    8.0668   80.7346 H   0  0  0  0  0  0  0  0  0  0  0  0
  -10.4256    9.3651   82.8659 H   0  0  0  0  0  0  0  0  0  0  0  0
   -8.7047    8.3266   83.7067 H   0  0  0  0  0  0  0  0  0  0  0  0
   -9.6794    6.8319   84.0376 H   0  0  0  0  0  0  0  0  0  0  0  0
   -8.1150    6.2466   82.5761 H   0  0  0  0  0  0  0  0  0  0  0  0
  2  1  1  0
  2  3  1  0
  2  8  1  0
  3  4  1  0
  3  5  1  0
  5  6  1  0
  6  7  1  0
  7  8  1  0
  8  9  1  0
  9 10  1  0
  1 11  1  0
  2 12  1  1
  3 13  1  6
  4 14  1  0
  5 15  1  0
  5 16  1  0
  6 17  1  0
  6 18  1  0
  7 19  1  0
  7 20  1  0
  8 21  1  6
  9 22  1  0
  9 23  1  0
 10 24  1  0
M  CHG  1   6   1
M  END
>  <filename_input>  (24) 
7LOU_IFM_docked.sdf

>  <pdb_id>  (24) 
7LOU_IFM

>  <pose_rank>  (24) 
23

>  <num_atoms_heavy>  (24) 
10

>  <num_torsions>  (24) 
1

>  <pose>  (24) 
[-11.523296525230556, 8.394490826725493, 85.13134462518535, 1.2597894194969734, 0.3998817101840934, -0.3108997318111342, 1.1353098132082988]

>  <energy>  (24) 
-101.64985900994014

>  <inter_energy>  (24) 
-88.17162690447844

>  <intra_energy>  (24) 
0.0

>  <rmsd>  (24) 
11.7046

>  <sdf_rank>  (24) 
0

$$$$

     RDKit          3D

 24 24  0  0  0  0  0  0  0  0999 V2000
   -9.2605    8.0678   82.9539 O   0  0  0  0  0  0  0  0  0  0  0  0
   -9.3173    7.0066   81.9815 C   0  0  1  0  0  0  0  0  0  0  0  0
   -9.8553    7.5191   80.6488 C   0  0  2  0  0  0  0  0  0  0  0  0
  -11.1953    7.9649   80.7830 O   0  0  0  0  0  0  0  0  0  0  0  0
   -9.8454    6.4072   79.6132 C   0  0  0  0  0  0  0  0  0  0  0  0
   -8.5099    5.7994   79.4654 N   0  0  0  0  0  0  0  0  0  0  0  0
   -8.0444    5.2373   80.7411 C   0  0  0  0  0  0  0  0  0  0  0  0
   -7.9436    6.3632   81.7712 C   0  0  2  0  0  0  0  0  0  0  0  0
   -7.3116    5.8825   83.0615 C   0  0  0  0  0  0  0  0  0  0  0  0
   -7.0847    4.4807   83.0513 O   0  0  0  0  0  0  0  0  0  0  0  0
   -9.2812    7.6817   83.8653 H   0  0  0  0  0  0  0  0  0  0  0  0
  -10.0022    6.2411   82.3752 H   0  0  0  0  0  0  0  0  0  0  0  0
   -9.2088    8.3510   80.3325 H   0  0  0  0  0  0  0  0  0  0  0  0
  -11.4232    8.0408   81.7435 H   0  0  0  0  0  0  0  0  0  0  0  0
  -10.5576    5.6280   79.9225 H   0  0  0  0  0  0  0  0  0  0  0  0
  -10.1282    6.8440   78.6441 H   0  0  0  0  0  0  0  0  0  0  0  0
   -8.5576    5.0474   78.7631 H   0  0  0  0  0  0  0  0  0  0  0  0
   -7.8476    6.5296   79.1668 H   0  0  0  0  0  0  0  0  0  0  0  0
   -8.7586    4.4781   81.0925 H   0  0  0  0  0  0  0  0  0  0  0  0
   -7.0589    4.7681   80.6041 H   0  0  0  0  0  0  0  0  0  0  0  0
   -7.2718    7.1428   81.3828 H   0  0  0  0  0  0  0  0  0  0  0  0
   -6.3493    6.3973   83.1992 H   0  0  0  0  0  0  0  0  0  0  0  0
   -8.0047    6.1092   83.8851 H   0  0  0  0  0  0  0  0  0  0  0  0
   -7.0309    4.1483   83.9823 H   0  0  0  0  0  0  0  0  0  0  0  0
  2  1  1  0
  2  3  1  0
  2  8  1  0
  3  4  1  0
  3  5  1  0
  5  6  1  0
  6  7  1  0
  7  8  1  0
  8  9  1  0
  9 10  1  0
  1 11  1  0
  2 12  1  1
  3 13  1  6
  4 14  1  0
  5 15  1  0
  5 16  1  0
  6 17  1  0
  6 18  1  0
  7 19  1  0
  7 20  1  0
  8 21  1  6
  9 22  1  0
  9 23  1  0
 10 24  1  0
M  CHG  1   6   1
M  END
>  <filename_input>  (25) 
7LOU_IFM_docked.sdf

>  <pdb_id>  (25) 
7LOU_IFM

>  <pose_rank>  (25) 
24

>  <num_atoms_heavy>  (25) 
10

>  <num_torsions>  (25) 
1

>  <pose>  (25) 
[-9.260542152561383, 8.067792414443124, 82.95394630732439, -4.418456941955453, 1.7680459154929444, 2.536724622630985, 0.8706956120580086]

>  <energy>  (25) 
-66.67842348876187

>  <inter_energy>  (25) 
-59.533952725944594

>  <intra_energy>  (25) 
0.0

>  <rmsd>  (25) 
12.792

>  <sdf_rank>  (25) 
0

$$$$

     RDKit          3D

 24 24  0  0  0  0  0  0  0  0999 V2000
  -17.8240    1.5310   88.5540 O   0  0  0  0  0  0  0  0  0  0  0  0
  -17.4890    0.1310   88.5000 C   0  0  1  0  0  0  0  0  0  0  0  0
  -18.3490   -0.5940   87.4690 C   0  0  2  0  0  0  0  0  0  0  0  0
  -19.7180   -0.5590   87.8390 O   0  0  0  0  0  0  0  0  0  0  0  0
  -17.9390   -2.0540   87.3730 C   0  0  0  0  0  0  0  0  0  0  0  0
  -16.5000   -2.2080   87.0890 N   0  0  0  0  0  0  0  0  0  0  0  0
  -15.6870   -1.5750   88.1370 C   0  0  0  0  0  0  0  0  0  0  0  0
  -16.0070   -0.0800   88.1770 C   0  0  2  0  0  0  0  0  0  0  0  0
  -15.0840    0.6620   89.1220 C   0  0  0  0  0  0  0  0  0  0  0  0
  -15.1110    0.1120   90.4310 O   0  0  0  0  0  0  0  0  0  0  0  0
  -17.8926    1.8177   89.4991 H   0  0  0  0  0  0  0  0  0  0  0  0
  -17.6903   -0.2901   89.4961 H   0  0  0  0  0  0  0  0  0  0  0  0
  -18.2037   -0.0850   86.5047 H   0  0  0  0  0  0  0  0  0  0  0  0
  -19.7931   -0.5571   88.8261 H   0  0  0  0  0  0  0  0  0  0  0  0
  -18.1673   -2.5502   88.3278 H   0  0  0  0  0  0  0  0  0  0  0  0
  -18.4990   -2.5095   86.5430 H   0  0  0  0  0  0  0  0  0  0  0  0
  -16.2707   -3.2112   87.0443 H   0  0  0  0  0  0  0  0  0  0  0  0
  -16.2916   -1.7505   86.1900 H   0  0  0  0  0  0  0  0  0  0  0  0
  -15.9216   -2.0290   89.1111 H   0  0  0  0  0  0  0  0  0  0  0  0
  -14.6187   -1.7218   87.9196 H   0  0  0  0  0  0  0  0  0  0  0  0
  -15.8232    0.3509   87.1817 H   0  0  0  0  0  0  0  0  0  0  0  0
  -14.0565    0.6045   88.7334 H   0  0  0  0  0  0  0  0  0  0  0  0
  -15.4273    1.7052   89.1840 H   0  0  0  0  0  0  0  0  0  0  0  0
  -15.0751    0.8435   91.0971 H   0  0  0  0  0  0  0  0  0  0  0  0
  2  1  1  0
  2  3  1  0
  2  8  1  0
  3  4  1  0
  3  5  1  0
  5  6  1  0
  6  7  1  0
  7  8  1  0
  8  9  1  0
  9 10  1  0
  1 11  1  0
  2 12  1  1
  3 13  1  6
  4 14  1  0
  5 15  1  0
  5 16  1  0
  6 17  1  0
  6 18  1  0
  7 19  1  0
  7 20  1  0
  8 21  1  6
  9 22  1  0
  9 23  1  0
 10 24  1  0
M  CHG  1   6   1
M  END
>  <filename_input>  (26) 
7LOU_IFM_docked.sdf

>  <pdb_id>  (26) 
7LOU_IFM

>  <pose_rank>  (26) 
25

>  <num_atoms_heavy>  (26) 
10

>  <num_torsions>  (26) 
1

>  <pose>  (26) 
[-17.824, 1.531, 88.554, 1e-06, 1e-06, 1e-06, 0.0]

>  <energy>  (26) 
-487.72028128719523

>  <inter_energy>  (26) 
-493.0994146191663

>  <intra_energy>  (26) 
0.0

>  <rmsd>  (26) 
0.0

>  <sdf_rank>  (26) 
0

$$$$
