
     RDKit          3D

 57 60  0  0  0  0  0  0  0  0999 V2000
  -11.4933   34.4738    9.0971 C   0  0  0  0  0  0  0  0  0  0  0  0
  -10.0637   34.2487    9.4539 N   0  0  1  0  0  0  0  0  0  0  0  0
   -9.8199   34.6971   10.8528 C   0  0  0  0  0  0  0  0  0  0  0  0
   -9.5776   32.8564    9.1688 C   0  0  2  0  0  0  0  0  0  0  0  0
   -8.2047   32.6088    9.8037 C   0  0  0  0  0  0  0  0  0  0  0  0
   -7.5901   31.2725    9.3829 C   0  0  0  0  0  0  0  0  0  0  0  0
   -9.0022   31.1945    7.3518 C   0  0  0  0  0  0  0  0  0  0  0  0
   -7.6892   30.8908    7.9593 N   0  0  0  0  0  0  0  0  0  0  0  0
   -9.4085   32.6383    7.6598 C   0  0  0  0  0  0  0  0  0  0  0  0
   -7.0838   29.6351    7.6363 C   0  0  0  0  0  0  0  0  0  0  0  0
   -6.0976   29.0737    8.4843 C   0  0  0  0  0  0  0  0  0  0  0  0
   -5.4547   27.8724    8.1954 C   0  0  0  0  0  0  0  0  0  0  0  0
   -5.7987   27.1889    7.0395 C   0  0  0  0  0  0  0  0  0  0  0  0
   -6.7811   27.6989    6.2163 C   0  0  0  0  0  0  0  0  0  0  0  0
   -7.4100   28.8969    6.4911 C   0  0  0  0  0  0  0  0  0  0  0  0
   -4.4698   27.4529    9.0927 N   0  0  0  0  0  0  0  0  0  0  0  0
   -4.6640   26.5221   10.0471 C   0  0  0  0  0  0  0  0  0  0  0  0
   -5.7462   25.9417   10.2049 O   0  0  0  0  0  0  0  0  0  0  0  0
   -3.5543   26.1703   10.9277 C   0  0  0  0  0  0  0  0  0  0  0  0
   -2.7662   26.9755   11.6908 C   0  0  0  0  0  0  0  0  0  0  0  0
   -1.8474   26.1410   12.3662 C   0  0  0  0  0  0  0  0  0  0  0  0
   -2.1268   24.8169   11.9725 C   0  0  0  0  0  0  0  0  0  0  0  0
   -1.3943   23.7414   12.4730 C   0  0  0  0  0  0  0  0  0  0  0  0
   -1.7527   22.3468   11.9931 C   0  0  0  0  0  0  0  0  0  0  0  0
   -0.3689   23.9768   13.3432 C   0  0  0  0  0  0  0  0  0  0  0  0
   -0.0835   25.2986   13.7384 C   0  0  0  0  0  0  0  0  0  0  0  0
   -0.8022   26.3760   13.2578 C   0  0  0  0  0  0  0  0  0  0  0  0
   -0.5130   27.6594   13.6464 F   0  0  0  0  0  0  0  0  0  0  0  0
   -3.1807   24.8583   11.1128 N   0  0  0  0  0  0  0  0  0  0  0  0
  -12.0902   34.5678   10.0163 H   0  0  0  0  0  0  0  0  0  0  0  0
  -11.5827   35.3971    8.5059 H   0  0  0  0  0  0  0  0  0  0  0  0
  -11.8621   33.6226    8.5059 H   0  0  0  0  0  0  0  0  0  0  0  0
   -9.4865   34.8299    8.8295 H   0  0  0  0  0  0  0  0  0  0  0  0
  -10.2253   33.9517   11.5527 H   0  0  0  0  0  0  0  0  0  0  0  0
   -8.7381   34.8063   11.0195 H   0  0  0  0  0  0  0  0  0  0  0  0
  -10.3160   35.6646   11.0195 H   0  0  0  0  0  0  0  0  0  0  0  0
  -10.3288   32.1701    9.5868 H   0  0  0  0  0  0  0  0  0  0  0  0
   -7.5256   33.4193    9.5003 H   0  0  0  0  0  0  0  0  0  0  0  0
   -8.3440   32.5808   10.8945 H   0  0  0  0  0  0  0  0  0  0  0  0
   -6.5212   31.3065    9.6405 H   0  0  0  0  0  0  0  0  0  0  0  0
   -8.1809   30.5136    9.9167 H   0  0  0  0  0  0  0  0  0  0  0  0
   -8.9376   31.0602    6.2620 H   0  0  0  0  0  0  0  0  0  0  0  0
   -9.7569   30.5130    7.7712 H   0  0  0  0  0  0  0  0  0  0  0  0
  -10.3615   32.8581    7.1563 H   0  0  0  0  0  0  0  0  0  0  0  0
   -8.6152   33.3086    7.2973 H   0  0  0  0  0  0  0  0  0  0  0  0
   -5.8289   29.6077    9.4077 H   0  0  0  0  0  0  0  0  0  0  0  0
   -5.2922   26.2474    6.7807 H   0  0  0  0  0  0  0  0  0  0  0  0
   -7.0713   27.1359    5.3169 H   0  0  0  0  0  0  0  0  0  0  0  0
   -8.1778   29.2771    5.8012 H   0  0  0  0  0  0  0  0  0  0  0  0
   -3.5364   27.8822    9.0201 H   0  0  0  0  0  0  0  0  0  0  0  0
   -2.8320   28.0709   11.7675 H   0  0  0  0  0  0  0  0  0  0  0  0
   -1.9210   21.6924   12.8611 H   0  0  0  0  0  0  0  0  0  0  0  0
   -2.6684   22.3923   11.3852 H   0  0  0  0  0  0  0  0  0  0  0  0
   -0.9287   21.9451   11.3852 H   0  0  0  0  0  0  0  0  0  0  0  0
    0.2300   23.1405   13.7329 H   0  0  0  0  0  0  0  0  0  0  0  0
    0.7356   25.4780   14.4505 H   0  0  0  0  0  0  0  0  0  0  0  0
   -3.6264   24.0410   10.6721 H   0  0  0  0  0  0  0  0  0  0  0  0
  2  1  1  0
  2  3  1  0
  2  4  1  0
  4  5  1  0
  4  9  1  0
  5  6  1  0
  6  8  1  0
  7  8  1  0
  7  9  1  0
  8 10  1  0
 10 11  2  0
 10 15  1  0
 11 12  1  0
 12 13  2  0
 12 16  1  0
 13 14  1  0
 14 15  2  0
 16 17  1  0
 17 18  2  0
 17 19  1  0
 19 20  2  0
 19 29  1  0
 20 21  1  0
 21 22  2  0
 21 27  1  0
 22 23  1  0
 22 29  1  0
 23 24  1  0
 23 25  2  0
 25 26  1  0
 26 27  2  0
 27 28  1  0
  1 30  1  0
  1 31  1  0
  1 32  1  0
  2 33  1  6
  3 34  1  0
  3 35  1  0
  3 36  1  0
  4 37  1  1
  5 38  1  0
  5 39  1  0
  6 40  1  0
  6 41  1  0
  7 42  1  0
  7 43  1  0
  9 44  1  0
  9 45  1  0
 11 46  1  0
 13 47  1  0
 14 48  1  0
 15 49  1  0
 16 50  1  0
 20 51  1  0
 24 52  1  0
 24 53  1  0
 24 54  1  0
 25 55  1  0
 26 56  1  0
 29 57  1  0
M  CHG  1   2   1
M  END
>  <filename_input>  (1) 
7LZD_YHY_docked.sdf

>  <pdb_id>  (1) 
7LZD_YHY

>  <pose_rank>  (1) 
0

>  <num_atoms_heavy>  (1) 
29

>  <num_torsions>  (1) 
4

>  <pose>  (1) 
[-7.083757170215892, 29.635116386467818, 7.636291267377051, -3.713022645394459, -0.4799991480564465, -4.997532653416762, 0.2246629970299606, 0.04247414934553553, 5.4868103885433, 0.6936061364428363]

>  <energy>  (1) 
-1032.0486152039136

>  <inter_energy>  (1) 
-1020.468650435766

>  <intra_energy>  (1) 
1.1705958979093944

>  <rmsd>  (1) 
0.675743

>  <sdf_rank>  (1) 
0

$$$$

     RDKit          3D

 57 60  0  0  0  0  0  0  0  0999 V2000
  -10.8228   34.8762    8.7553 C   0  0  0  0  0  0  0  0  0  0  0  0
   -9.6814   34.5622    9.6611 N   0  0  1  0  0  0  0  0  0  0  0  0
  -10.1951   34.2375   11.0205 C   0  0  0  0  0  0  0  0  0  0  0  0
   -8.7315   33.5375    9.1098 C   0  0  2  0  0  0  0  0  0  0  0  0
   -9.2694   32.9266    7.8110 C   0  0  0  0  0  0  0  0  0  0  0  0
   -8.4266   31.7491    7.3172 C   0  0  0  0  0  0  0  0  0  0  0  0
   -7.5136   31.3733    9.5866 C   0  0  0  0  0  0  0  0  0  0  0  0
   -7.9709   30.7645    8.3196 N   0  0  0  0  0  0  0  0  0  0  0  0
   -8.5501   32.3779   10.0976 C   0  0  0  0  0  0  0  0  0  0  0  0
   -7.1975   29.6856    7.7853 C   0  0  0  0  0  0  0  0  0  0  0  0
   -6.2409   29.0197    8.5905 C   0  0  0  0  0  0  0  0  0  0  0  0
   -5.4400   27.9881    8.1065 C   0  0  0  0  0  0  0  0  0  0  0  0
   -5.5896   27.5850    6.7887 C   0  0  0  0  0  0  0  0  0  0  0  0
   -6.5391   28.1954    5.9957 C   0  0  0  0  0  0  0  0  0  0  0  0
   -7.3244   29.2286    6.4670 C   0  0  0  0  0  0  0  0  0  0  0  0
   -4.5056   27.4469    8.9925 N   0  0  0  0  0  0  0  0  0  0  0  0
   -4.7529   26.4025    9.8067 C   0  0  0  0  0  0  0  0  0  0  0  0
   -5.8435   25.8168    9.8308 O   0  0  0  0  0  0  0  0  0  0  0  0
   -3.6928   25.9293   10.6916 C   0  0  0  0  0  0  0  0  0  0  0  0
   -3.3027   24.6559   10.9709 C   0  0  0  0  0  0  0  0  0  0  0  0
   -2.2230   24.7401   11.8787 C   0  0  0  0  0  0  0  0  0  0  0  0
   -1.9934   26.1095   12.1200 C   0  0  0  0  0  0  0  0  0  0  0  0
   -0.9779   26.5350   12.9754 C   0  0  0  0  0  0  0  0  0  0  0  0
   -0.8006   28.0273   13.1882 C   0  0  0  0  0  0  0  0  0  0  0  0
   -0.2058   25.6063   13.6120 C   0  0  0  0  0  0  0  0  0  0  0  0
   -0.4324   24.2359   13.3765 C   0  0  0  0  0  0  0  0  0  0  0  0
   -1.4297   23.7958   12.5280 C   0  0  0  0  0  0  0  0  0  0  0  0
   -1.6442   22.4587   12.3089 F   0  0  0  0  0  0  0  0  0  0  0  0
   -2.8865   26.8132   11.3725 N   0  0  0  0  0  0  0  0  0  0  0  0
  -11.7112   35.1206    9.3562 H   0  0  0  0  0  0  0  0  0  0  0  0
  -10.5616   35.7359    8.1207 H   0  0  0  0  0  0  0  0  0  0  0  0
  -11.0380   34.0039    8.1207 H   0  0  0  0  0  0  0  0  0  0  0  0
   -9.0959   35.4063    9.7366 H   0  0  0  0  0  0  0  0  0  0  0  0
   -9.5214   34.6634   11.7785 H   0  0  0  0  0  0  0  0  0  0  0  0
  -11.2017   34.6637   11.1436 H   0  0  0  0  0  0  0  0  0  0  0  0
  -10.2419   33.1454   11.1436 H   0  0  0  0  0  0  0  0  0  0  0  0
   -7.7791   34.0575    8.9296 H   0  0  0  0  0  0  0  0  0  0  0  0
  -10.2965   32.5744    7.9871 H   0  0  0  0  0  0  0  0  0  0  0  0
   -9.2334   33.7077    7.0373 H   0  0  0  0  0  0  0  0  0  0  0  0
   -9.0256   31.2060    6.5714 H   0  0  0  0  0  0  0  0  0  0  0  0
   -7.5020   32.2082    6.9371 H   0  0  0  0  0  0  0  0  0  0  0  0
   -7.3724   30.5832   10.3388 H   0  0  0  0  0  0  0  0  0  0  0  0
   -6.5634   31.8984    9.4090 H   0  0  0  0  0  0  0  0  0  0  0  0
   -8.2141   32.7796   11.0649 H   0  0  0  0  0  0  0  0  0  0  0  0
   -9.5139   31.8592   10.2071 H   0  0  0  0  0  0  0  0  0  0  0  0
   -6.1260   29.3297    9.6396 H   0  0  0  0  0  0  0  0  0  0  0  0
   -4.9561   26.7847    6.3785 H   0  0  0  0  0  0  0  0  0  0  0  0
   -6.6743   27.8497    4.9603 H   0  0  0  0  0  0  0  0  0  0  0  0
   -8.0598   29.6994    5.7982 H   0  0  0  0  0  0  0  0  0  0  0  0
   -3.5685   27.8731    9.0254 H   0  0  0  0  0  0  0  0  0  0  0  0
   -3.7449   23.7337   10.5659 H   0  0  0  0  0  0  0  0  0  0  0  0
   -0.7749   28.2434   14.2665 H   0  0  0  0  0  0  0  0  0  0  0  0
    0.1427   28.3540   12.7262 H   0  0  0  0  0  0  0  0  0  0  0  0
   -1.6410   28.5660   12.7262 H   0  0  0  0  0  0  0  0  0  0  0  0
    0.5875   25.9258   14.3039 H   0  0  0  0  0  0  0  0  0  0  0  0
    0.2033   23.4947   13.8830 H   0  0  0  0  0  0  0  0  0  0  0  0
   -2.9491   27.8401   11.3241 H   0  0  0  0  0  0  0  0  0  0  0  0
  2  1  1  0
  2  3  1  0
  2  4  1  0
  4  5  1  0
  4  9  1  0
  5  6  1  0
  6  8  1  0
  7  8  1  0
  7  9  1  0
  8 10  1  0
 10 11  2  0
 10 15  1  0
 11 12  1  0
 12 13  2  0
 12 16  1  0
 13 14  1  0
 14 15  2  0
 16 17  1  0
 17 18  2  0
 17 19  1  0
 19 20  2  0
 19 29  1  0
 20 21  1  0
 21 22  2  0
 21 27  1  0
 22 23  1  0
 22 29  1  0
 23 24  1  0
 23 25  2  0
 25 26  1  0
 26 27  2  0
 27 28  1  0
  1 30  1  0
  1 31  1  0
  1 32  1  0
  2 33  1  1
  3 34  1  0
  3 35  1  0
  3 36  1  0
  4 37  1  6
  5 38  1  0
  5 39  1  0
  6 40  1  0
  6 41  1  0
  7 42  1  0
  7 43  1  0
  9 44  1  0
  9 45  1  0
 11 46  1  0
 13 47  1  0
 14 48  1  0
 15 49  1  0
 16 50  1  0
 20 51  1  0
 24 52  1  0
 24 53  1  0
 24 54  1  0
 25 55  1  0
 26 56  1  0
 29 57  1  0
M  CHG  1   2   1
M  END
>  <filename_input>  (2) 
7LZD_YHY_docked.sdf

>  <pdb_id>  (2) 
7LZD_YHY

>  <pose_rank>  (2) 
1

>  <num_atoms_heavy>  (2) 
29

>  <num_torsions>  (2) 
4

>  <pose>  (2) 
[-7.197510884352171, 29.685622296640584, 7.785328761716052, 0.2666295842089227, -0.11094858234660773, 0.1346216185058849, 3.2545619647193886, 2.8616695628719793, -0.9649077399055404, 3.665291404464458]

>  <energy>  (2) 
-1008.8145206193918

>  <inter_energy>  (2) 
-999.7404029918812

>  <intra_energy>  (2) 
0.7644739524001856

>  <rmsd>  (2) 
1.96538

>  <sdf_rank>  (2) 
0

$$$$

     RDKit          3D

 57 60  0  0  0  0  0  0  0  0999 V2000
   -9.5157   31.1619    5.5544 C   0  0  0  0  0  0  0  0  0  0  0  0
   -9.9458   31.4643    6.9492 N   0  0  1  0  0  0  0  0  0  0  0  0
  -11.0868   30.5838    7.3236 C   0  0  0  0  0  0  0  0  0  0  0  0
   -8.8225   31.4601    7.9464 C   0  0  2  0  0  0  0  0  0  0  0  0
   -7.9412   32.7047    7.7923 C   0  0  0  0  0  0  0  0  0  0  0  0
   -6.6819   32.6493    8.6594 C   0  0  0  0  0  0  0  0  0  0  0  0
   -6.8143   30.1819    8.7994 C   0  0  0  0  0  0  0  0  0  0  0  0
   -5.9419   31.3720    8.7121 N   0  0  0  0  0  0  0  0  0  0  0  0
   -7.9091   30.2466    7.7309 C   0  0  0  0  0  0  0  0  0  0  0  0
   -4.7699   31.3967    9.5328 C   0  0  0  0  0  0  0  0  0  0  0  0
   -4.1489   30.1886    9.9350 C   0  0  0  0  0  0  0  0  0  0  0  0
   -3.0281   30.1596   10.7613 C   0  0  0  0  0  0  0  0  0  0  0  0
   -2.4876   31.3582   11.2005 C   0  0  0  0  0  0  0  0  0  0  0  0
   -3.0546   32.5480   10.7934 C   0  0  0  0  0  0  0  0  0  0  0  0
   -4.1747   32.5809    9.9868 C   0  0  0  0  0  0  0  0  0  0  0  0
   -2.5410   28.9002   11.1188 N   0  0  0  0  0  0  0  0  0  0  0  0
   -3.3130   27.8895   11.5629 C   0  0  0  0  0  0  0  0  0  0  0  0
   -4.5413   27.9889   11.6828 O   0  0  0  0  0  0  0  0  0  0  0  0
   -2.6839   26.6184   11.9083 C   0  0  0  0  0  0  0  0  0  0  0  0
   -2.9474   25.3674   11.4419 C   0  0  0  0  0  0  0  0  0  0  0  0
   -2.0500   24.4852   12.0846 C   0  0  0  0  0  0  0  0  0  0  0  0
   -1.2496   25.2649   12.9435 C   0  0  0  0  0  0  0  0  0  0  0  0
   -0.2482   24.6885   13.7238 C   0  0  0  0  0  0  0  0  0  0  0  0
    0.5648   25.5962   14.6287 C   0  0  0  0  0  0  0  0  0  0  0  0
   -0.0548   23.3379   13.6743 C   0  0  0  0  0  0  0  0  0  0  0  0
   -0.8535   22.5531   12.8193 C   0  0  0  0  0  0  0  0  0  0  0  0
   -1.8462   23.1073   12.0345 C   0  0  0  0  0  0  0  0  0  0  0  0
   -2.6208   22.3330   11.2085 F   0  0  0  0  0  0  0  0  0  0  0  0
   -1.6406   26.5608   12.8046 N   0  0  0  0  0  0  0  0  0  0  0  0
   -8.6160   30.5295    5.5770 H   0  0  0  0  0  0  0  0  0  0  0  0
  -10.3234   30.6319    5.0284 H   0  0  0  0  0  0  0  0  0  0  0  0
   -9.2904   32.1014    5.0284 H   0  0  0  0  0  0  0  0  0  0  0  0
  -10.2763   32.4395    6.9741 H   0  0  0  0  0  0  0  0  0  0  0  0
  -11.1613   30.5263    8.4196 H   0  0  0  0  0  0  0  0  0  0  0  0
  -12.0197   30.9984    6.9139 H   0  0  0  0  0  0  0  0  0  0  0  0
  -10.9224   29.5763    6.9139 H   0  0  0  0  0  0  0  0  0  0  0  0
   -9.2878   31.4340    8.9428 H   0  0  0  0  0  0  0  0  0  0  0  0
   -7.6388   32.7931    6.7384 H   0  0  0  0  0  0  0  0  0  0  0  0
   -8.5322   33.5722    8.1210 H   0  0  0  0  0  0  0  0  0  0  0  0
   -5.9889   33.4156    8.2819 H   0  0  0  0  0  0  0  0  0  0  0  0
   -7.0438   32.8044    9.6865 H   0  0  0  0  0  0  0  0  0  0  0  0
   -6.2093   29.2763    8.6449 H   0  0  0  0  0  0  0  0  0  0  0  0
   -7.2850   30.1553    9.7932 H   0  0  0  0  0  0  0  0  0  0  0  0
   -8.5137   29.3290    7.7805 H   0  0  0  0  0  0  0  0  0  0  0  0
   -7.4295   30.3418    6.7456 H   0  0  0  0  0  0  0  0  0  0  0  0
   -4.5685   29.2356    9.5806 H   0  0  0  0  0  0  0  0  0  0  0  0
   -1.6136   31.3605   11.8683 H   0  0  0  0  0  0  0  0  0  0  0  0
   -2.6022   33.4960   11.1200 H   0  0  0  0  0  0  0  0  0  0  0  0
   -4.6058   33.5505    9.6967 H   0  0  0  0  0  0  0  0  0  0  0  0
   -1.5277   28.7339   11.0378 H   0  0  0  0  0  0  0  0  0  0  0  0
   -3.7151   25.0942   10.7031 H   0  0  0  0  0  0  0  0  0  0  0  0
    0.3487   25.3549   15.6799 H   0  0  0  0  0  0  0  0  0  0  0  0
    1.6365   25.4465   14.4310 H   0  0  0  0  0  0  0  0  0  0  0  0
    0.2985   26.6450   14.4310 H   0  0  0  0  0  0  0  0  0  0  0  0
    0.7192   22.8659   14.2974 H   0  0  0  0  0  0  0  0  0  0  0  0
   -0.6817   21.4675   12.7753 H   0  0  0  0  0  0  0  0  0  0  0  0
   -1.2239   27.3674   13.2910 H   0  0  0  0  0  0  0  0  0  0  0  0
  2  1  1  0
  2  3  1  0
  2  4  1  0
  4  5  1  0
  4  9  1  0
  5  6  1  0
  6  8  1  0
  7  8  1  0
  7  9  1  0
  8 10  1  0
 10 11  2  0
 10 15  1  0
 11 12  1  0
 12 13  2  0
 12 16  1  0
 13 14  1  0
 14 15  2  0
 16 17  1  0
 17 18  2  0
 17 19  1  0
 19 20  2  0
 19 29  1  0
 20 21  1  0
 21 22  2  0
 21 27  1  0
 22 23  1  0
 22 29  1  0
 23 24  1  0
 23 25  2  0
 25 26  1  0
 26 27  2  0
 27 28  1  0
  1 30  1  0
  1 31  1  0
  1 32  1  0
  2 33  1  6
  3 34  1  0
  3 35  1  0
  3 36  1  0
  4 37  1  1
  5 38  1  0
  5 39  1  0
  6 40  1  0
  6 41  1  0
  7 42  1  0
  7 43  1  0
  9 44  1  0
  9 45  1  0
 11 46  1  0
 13 47  1  0
 14 48  1  0
 15 49  1  0
 16 50  1  0
 20 51  1  0
 24 52  1  0
 24 53  1  0
 24 54  1  0
 25 55  1  0
 26 56  1  0
 29 57  1  0
M  CHG  1   2   1
M  END
>  <filename_input>  (3) 
7LZD_YHY_docked.sdf

>  <pdb_id>  (3) 
7LZD_YHY

>  <pose_rank>  (3) 
2

>  <num_atoms_heavy>  (3) 
29

>  <num_torsions>  (3) 
4

>  <pose>  (3) 
[-4.769916708721627, 31.396671956820487, 9.53283786335258, -2.384640755030211, 2.377101187206868, -1.4927415110224456, 3.4653730587483285, -2.0108339031773736, 2.918414854521005, -2.4054554332694282]

>  <energy>  (3) 
-730.5856601686288

>  <inter_energy>  (3) 
-751.588977970783

>  <intra_energy>  (3) 
17.47420821731239

>  <rmsd>  (3) 
3.68397

>  <sdf_rank>  (3) 
0

$$$$

     RDKit          3D

 57 60  0  0  0  0  0  0  0  0999 V2000
   -0.1234   24.7502   13.4236 C   0  0  0  0  0  0  0  0  0  0  0  0
   -0.9538   25.9111   13.8534 N   0  0  1  0  0  0  0  0  0  0  0  0
   -0.0809   27.0972   14.0737 C   0  0  0  0  0  0  0  0  0  0  0  0
   -2.1310   26.1807   12.9602 C   0  0  2  0  0  0  0  0  0  0  0  0
   -2.1317   25.2432   11.7476 C   0  0  0  0  0  0  0  0  0  0  0  0
   -3.2044   25.6066   10.7191 C   0  0  0  0  0  0  0  0  0  0  0  0
   -3.3206   27.9272   11.5714 C   0  0  0  0  0  0  0  0  0  0  0  0
   -3.3855   27.0361   10.3938 N   0  0  0  0  0  0  0  0  0  0  0  0
   -2.0781   27.6112   12.4086 C   0  0  0  0  0  0  0  0  0  0  0  0
   -4.3974   27.3006    9.4172 C   0  0  0  0  0  0  0  0  0  0  0  0
   -5.3365   28.3418    9.6194 C   0  0  0  0  0  0  0  0  0  0  0  0
   -6.3603   28.6153    8.7156 C   0  0  0  0  0  0  0  0  0  0  0  0
   -6.4613   27.8491    7.5648 C   0  0  0  0  0  0  0  0  0  0  0  0
   -5.5369   26.8525    7.3297 C   0  0  0  0  0  0  0  0  0  0  0  0
   -4.5299   26.5681    8.2303 C   0  0  0  0  0  0  0  0  0  0  0  0
   -7.2454   29.6405    9.0572 N   0  0  0  0  0  0  0  0  0  0  0  0
   -6.8766   30.9194    9.2650 C   0  0  0  0  0  0  0  0  0  0  0  0
   -5.7043   31.3033    9.1577 O   0  0  0  0  0  0  0  0  0  0  0  0
   -7.8970   31.9007    9.6206 C   0  0  0  0  0  0  0  0  0  0  0  0
   -8.9273   32.3865    8.8760 C   0  0  0  0  0  0  0  0  0  0  0  0
   -9.6314   33.3046    9.6872 C   0  0  0  0  0  0  0  0  0  0  0  0
   -8.9773   33.3380   10.9351 C   0  0  0  0  0  0  0  0  0  0  0  0
   -9.4349   34.1494   11.9725 C   0  0  0  0  0  0  0  0  0  0  0  0
   -8.6699   34.1338   13.2833 C   0  0  0  0  0  0  0  0  0  0  0  0
  -10.5241   34.9469   11.7682 C   0  0  0  0  0  0  0  0  0  0  0  0
  -11.1805   34.9195   10.5218 C   0  0  0  0  0  0  0  0  0  0  0  0
  -10.7452   34.1177    9.4846 C   0  0  0  0  0  0  0  0  0  0  0  0
  -11.3897   34.1019    8.2737 F   0  0  0  0  0  0  0  0  0  0  0  0
   -7.9377   32.4620   10.8769 N   0  0  0  0  0  0  0  0  0  0  0  0
    0.2548   24.2215   14.3109 H   0  0  0  0  0  0  0  0  0  0  0  0
   -0.7367   24.0638   12.8213 H   0  0  0  0  0  0  0  0  0  0  0  0
    0.7243   25.1088   12.8213 H   0  0  0  0  0  0  0  0  0  0  0  0
   -1.3938   25.6697   14.7528 H   0  0  0  0  0  0  0  0  0  0  0  0
    0.0431   27.2657   15.1536 H   0  0  0  0  0  0  0  0  0  0  0  0
    0.9029   26.9187   13.6151 H   0  0  0  0  0  0  0  0  0  0  0  0
   -0.5438   27.9834   13.6151 H   0  0  0  0  0  0  0  0  0  0  0  0
   -3.0314   26.0251   13.5726 H   0  0  0  0  0  0  0  0  0  0  0  0
   -1.1463   25.2962   11.2616 H   0  0  0  0  0  0  0  0  0  0  0  0
   -2.3522   24.2292   12.1125 H   0  0  0  0  0  0  0  0  0  0  0  0
   -2.9526   25.0858    9.7834 H   0  0  0  0  0  0  0  0  0  0  0  0
   -4.1530   25.3049   11.1872 H   0  0  0  0  0  0  0  0  0  0  0  0
   -3.2740   28.9729   11.2332 H   0  0  0  0  0  0  0  0  0  0  0  0
   -4.2175   27.7707   12.1887 H   0  0  0  0  0  0  0  0  0  0  0  0
   -2.0224   28.3183   13.2494 H   0  0  0  0  0  0  0  0  0  0  0  0
   -1.1910   27.7040   11.7648 H   0  0  0  0  0  0  0  0  0  0  0  0
   -5.2539   28.9587   10.5264 H   0  0  0  0  0  0  0  0  0  0  0  0
   -7.2720   28.0344    6.8449 H   0  0  0  0  0  0  0  0  0  0  0  0
   -5.6040   26.2688    6.3997 H   0  0  0  0  0  0  0  0  0  0  0  0
   -3.8216   25.7549    8.0130 H   0  0  0  0  0  0  0  0  0  0  0  0
   -8.2429   29.4038    9.1564 H   0  0  0  0  0  0  0  0  0  0  0  0
   -9.1670   32.1154    7.8373 H   0  0  0  0  0  0  0  0  0  0  0  0
   -9.3806   34.1483   14.1228 H   0  0  0  0  0  0  0  0  0  0  0  0
   -8.0556   33.2230   13.3386 H   0  0  0  0  0  0  0  0  0  0  0  0
   -8.0192   35.0189   13.3386 H   0  0  0  0  0  0  0  0  0  0  0  0
  -10.8864   35.6060   12.5708 H   0  0  0  0  0  0  0  0  0  0  0  0
  -12.0654   35.5551   10.3703 H   0  0  0  0  0  0  0  0  0  0  0  0
   -7.2871   32.2529   11.6475 H   0  0  0  0  0  0  0  0  0  0  0  0
  2  1  1  0
  2  3  1  0
  2  4  1  0
  4  5  1  0
  4  9  1  0
  5  6  1  0
  6  8  1  0
  7  8  1  0
  7  9  1  0
  8 10  1  0
 10 11  2  0
 10 15  1  0
 11 12  1  0
 12 13  2  0
 12 16  1  0
 13 14  1  0
 14 15  2  0
 16 17  1  0
 17 18  2  0
 17 19  1  0
 19 20  2  0
 19 29  1  0
 20 21  1  0
 21 22  2  0
 21 27  1  0
 22 23  1  0
 22 29  1  0
 23 24  1  0
 23 25  2  0
 25 26  1  0
 26 27  2  0
 27 28  1  0
  1 30  1  0
  1 31  1  0
  1 32  1  0
  2 33  1  1
  3 34  1  0
  3 35  1  0
  3 36  1  0
  4 37  1  1
  5 38  1  0
  5 39  1  0
  6 40  1  0
  6 41  1  0
  7 42  1  0
  7 43  1  0
  9 44  1  0
  9 45  1  0
 11 46  1  0
 13 47  1  0
 14 48  1  0
 15 49  1  0
 16 50  1  0
 20 51  1  0
 24 52  1  0
 24 53  1  0
 24 54  1  0
 25 55  1  0
 26 56  1  0
 29 57  1  0
M  CHG  1   2   1
M  END
>  <filename_input>  (4) 
7LZD_YHY_docked.sdf

>  <pdb_id>  (4) 
7LZD_YHY

>  <pose_rank>  (4) 
3

>  <num_atoms_heavy>  (4) 
29

>  <num_torsions>  (4) 
4

>  <pose>  (4) 
[-4.397411264065587, 27.30064252956504, 9.417159733764535, -0.4994835676949156, -1.5869978137843497, -2.4306702400747398, 2.938520922008221, -3.368205777174805, 4.78932505692526, 4.871578280912122]

>  <energy>  (4) 
-729.9708992310167

>  <inter_energy>  (4) 
-721.0075407138737

>  <intra_energy>  (4) 
10.100891325744037

>  <rmsd>  (4) 
9.88227

>  <sdf_rank>  (4) 
0

$$$$

     RDKit          3D

 57 60  0  0  0  0  0  0  0  0999 V2000
   -3.7624   36.1711    5.0514 C   0  0  0  0  0  0  0  0  0  0  0  0
   -4.4221   36.5378    6.3367 N   0  0  1  0  0  0  0  0  0  0  0  0
   -5.2957   37.7259    6.1304 C   0  0  0  0  0  0  0  0  0  0  0  0
   -5.1101   35.3887    7.0169 C   0  0  2  0  0  0  0  0  0  0  0  0
   -4.1219   34.5698    7.8549 C   0  0  0  0  0  0  0  0  0  0  0  0
   -4.7400   33.2862    8.4122 C   0  0  0  0  0  0  0  0  0  0  0  0
   -6.4939   33.3015    6.6661 C   0  0  0  0  0  0  0  0  0  0  0  0
   -5.5921   32.4872    7.5079 N   0  0  0  0  0  0  0  0  0  0  0  0
   -5.7112   34.4270    5.9839 C   0  0  0  0  0  0  0  0  0  0  0  0
   -6.1270   31.2957    8.0925 C   0  0  0  0  0  0  0  0  0  0  0  0
   -5.3194   30.4752    8.9179 C   0  0  0  0  0  0  0  0  0  0  0  0
   -5.7833   29.2888    9.4810 C   0  0  0  0  0  0  0  0  0  0  0  0
   -7.0905   28.8971    9.2370 C   0  0  0  0  0  0  0  0  0  0  0  0
   -7.9062   29.6979    8.4648 C   0  0  0  0  0  0  0  0  0  0  0  0
   -7.4457   30.8668    7.8922 C   0  0  0  0  0  0  0  0  0  0  0  0
   -4.8705   28.5513   10.2385 N   0  0  0  0  0  0  0  0  0  0  0  0
   -4.5454   27.2677    9.9907 C   0  0  0  0  0  0  0  0  0  0  0  0
   -5.0274   26.6257    9.0480 O   0  0  0  0  0  0  0  0  0  0  0  0
   -3.5776   26.6032   10.8582 C   0  0  0  0  0  0  0  0  0  0  0  0
   -3.3066   25.2769   10.9962 C   0  0  0  0  0  0  0  0  0  0  0  0
   -2.2761   25.1594   11.9559 C   0  0  0  0  0  0  0  0  0  0  0  0
   -1.9517   26.4656   12.3743 C   0  0  0  0  0  0  0  0  0  0  0  0
   -0.9550   26.6974   13.3212 C   0  0  0  0  0  0  0  0  0  0  0  0
   -0.6713   28.1330   13.7240 C   0  0  0  0  0  0  0  0  0  0  0  0
   -0.2962   25.6367   13.8733 C   0  0  0  0  0  0  0  0  0  0  0  0
   -0.6180   24.3286   13.4607 C   0  0  0  0  0  0  0  0  0  0  0  0
   -1.5982   24.0799   12.5197 C   0  0  0  0  0  0  0  0  0  0  0  0
   -1.9061   22.8017   12.1281 F   0  0  0  0  0  0  0  0  0  0  0  0
   -2.7426   27.3273   11.6790 N   0  0  0  0  0  0  0  0  0  0  0  0
   -2.8184   35.6463    5.2605 H   0  0  0  0  0  0  0  0  0  0  0  0
   -4.4273   35.5131    4.4727 H   0  0  0  0  0  0  0  0  0  0  0  0
   -3.5545   37.0831    4.4727 H   0  0  0  0  0  0  0  0  0  0  0  0
   -3.6853   36.7987    7.0075 H   0  0  0  0  0  0  0  0  0  0  0  0
   -5.5959   38.1343    7.1067 H   0  0  0  0  0  0  0  0  0  0  0  0
   -4.7446   38.4926    5.5660 H   0  0  0  0  0  0  0  0  0  0  0  0
   -6.1918   37.4285    5.5660 H   0  0  0  0  0  0  0  0  0  0  0  0
   -5.8928   35.8250    7.6549 H   0  0  0  0  0  0  0  0  0  0  0  0
   -3.2631   34.3007    7.2224 H   0  0  0  0  0  0  0  0  0  0  0  0
   -3.8189   35.1907    8.7109 H   0  0  0  0  0  0  0  0  0  0  0  0
   -3.9136   32.6395    8.7420 H   0  0  0  0  0  0  0  0  0  0  0  0
   -5.4198   33.6265    9.2072 H   0  0  0  0  0  0  0  0  0  0  0  0
   -6.9511   32.6602    5.8981 H   0  0  0  0  0  0  0  0  0  0  0  0
   -7.2753   33.7433    7.3018 H   0  0  0  0  0  0  0  0  0  0  0  0
   -6.3898   34.9874    5.3240 H   0  0  0  0  0  0  0  0  0  0  0  0
   -4.8899   33.9793    5.4050 H   0  0  0  0  0  0  0  0  0  0  0  0
   -4.2846   30.7875    9.1223 H   0  0  0  0  0  0  0  0  0  0  0  0
   -7.4743   27.9551    9.6559 H   0  0  0  0  0  0  0  0  0  0  0  0
   -8.9515   29.3971    8.3008 H   0  0  0  0  0  0  0  0  0  0  0  0
   -8.1235   31.4697    7.2702 H   0  0  0  0  0  0  0  0  0  0  0  0
   -4.4173   29.0184   11.0369 H   0  0  0  0  0  0  0  0  0  0  0  0
   -3.7976   24.4509   10.4609 H   0  0  0  0  0  0  0  0  0  0  0  0
   -0.6561   28.2098   14.8212 H   0  0  0  0  0  0  0  0  0  0  0  0
    0.3051   28.4407   13.3214 H   0  0  0  0  0  0  0  0  0  0  0  0
   -1.4572   28.7890   13.3214 H   0  0  0  0  0  0  0  0  0  0  0  0
    0.4801   25.8022   14.6348 H   0  0  0  0  0  0  0  0  0  0  0  0
   -0.0727   23.4806   13.9007 H   0  0  0  0  0  0  0  0  0  0  0  0
   -2.7202   28.3542   11.7546 H   0  0  0  0  0  0  0  0  0  0  0  0
  2  1  1  0
  2  3  1  0
  2  4  1  0
  4  5  1  0
  4  9  1  0
  5  6  1  0
  6  8  1  0
  7  8  1  0
  7  9  1  0
  8 10  1  0
 10 11  2  0
 10 15  1  0
 11 12  1  0
 12 13  2  0
 12 16  1  0
 13 14  1  0
 14 15  2  0
 16 17  1  0
 17 18  2  0
 17 19  1  0
 19 20  2  0
 19 29  1  0
 20 21  1  0
 21 22  2  0
 21 27  1  0
 22 23  1  0
 22 29  1  0
 23 24  1  0
 23 25  2  0
 25 26  1  0
 26 27  2  0
 27 28  1  0
  1 30  1  0
  1 31  1  0
  1 32  1  0
  2 33  1  1
  3 34  1  0
  3 35  1  0
  3 36  1  0
  4 37  1  1
  5 38  1  0
  5 39  1  0
  6 40  1  0
  6 41  1  0
  7 42  1  0
  7 43  1  0
  9 44  1  0
  9 45  1  0
 11 46  1  0
 13 47  1  0
 14 48  1  0
 15 49  1  0
 16 50  1  0
 20 51  1  0
 24 52  1  0
 24 53  1  0
 24 54  1  0
 25 55  1  0
 26 56  1  0
 29 57  1  0
M  CHG  1   2   1
M  END
>  <filename_input>  (5) 
7LZD_YHY_docked.sdf

>  <pdb_id>  (5) 
7LZD_YHY

>  <pose_rank>  (5) 
4

>  <num_atoms_heavy>  (5) 
29

>  <num_torsions>  (5) 
4

>  <pose>  (5) 
[-6.127022067057865, 31.295658348539856, 8.09251570860814, -0.63113261059717, 0.533811393906978, -0.8478418319059218, -0.14192302674804666, -1.8312888507454743, 1.5910390457372743, 2.631019095282862]

>  <energy>  (5) 
-670.9283821780425

>  <inter_energy>  (5) 
-695.4330371104027

>  <intra_energy>  (5) 
8.29138899533071

>  <rmsd>  (5) 
3.67547

>  <sdf_rank>  (5) 
0

$$$$

     RDKit          3D

 57 60  0  0  0  0  0  0  0  0999 V2000
   -0.2064   24.6041   13.8359 C   0  0  0  0  0  0  0  0  0  0  0  0
   -0.5974   26.0372   13.9594 N   0  0  1  0  0  0  0  0  0  0  0  0
    0.5895   26.8488   14.3467 C   0  0  0  0  0  0  0  0  0  0  0  0
   -1.3351   26.5715   12.7650 C   0  0  2  0  0  0  0  0  0  0  0  0
   -1.7227   28.0408   12.9657 C   0  0  0  0  0  0  0  0  0  0  0  0
   -2.6354   28.5690   11.8574 C   0  0  0  0  0  0  0  0  0  0  0  0
   -3.3568   26.2742   11.2755 C   0  0  0  0  0  0  0  0  0  0  0  0
   -3.7378   27.6967   11.4037 N   0  0  0  0  0  0  0  0  0  0  0  0
   -2.6422   25.7995   12.5438 C   0  0  0  0  0  0  0  0  0  0  0  0
   -4.5565   28.2593   10.3736 C   0  0  0  0  0  0  0  0  0  0  0  0
   -5.4452   29.3237   10.6631 C   0  0  0  0  0  0  0  0  0  0  0  0
   -6.2869   29.8811    9.7036 C   0  0  0  0  0  0  0  0  0  0  0  0
   -6.2485   29.3862    8.4093 C   0  0  0  0  0  0  0  0  0  0  0  0
   -5.3660   28.3733    8.0958 C   0  0  0  0  0  0  0  0  0  0  0  0
   -4.5409   27.8078    9.0474 C   0  0  0  0  0  0  0  0  0  0  0  0
   -7.1463   30.8955   10.1317 N   0  0  0  0  0  0  0  0  0  0  0  0
   -7.1030   32.1637    9.6793 C   0  0  0  0  0  0  0  0  0  0  0  0
   -6.2921   32.5410    8.8231 O   0  0  0  0  0  0  0  0  0  0  0  0
   -8.0554   33.1357   10.2074 C   0  0  0  0  0  0  0  0  0  0  0  0
   -8.0030   33.8621   11.3569 C   0  0  0  0  0  0  0  0  0  0  0  0
   -9.1649   34.6654   11.3960 C   0  0  0  0  0  0  0  0  0  0  0  0
   -9.8995   34.3845   10.2265 C   0  0  0  0  0  0  0  0  0  0  0  0
  -11.1076   35.0263    9.9571 C   0  0  0  0  0  0  0  0  0  0  0  0
  -11.8416   34.6621    8.6795 C   0  0  0  0  0  0  0  0  0  0  0  0
  -11.6022   35.9271   10.8560 C   0  0  0  0  0  0  0  0  0  0  0  0
  -10.8733   36.2100   12.0280 C   0  0  0  0  0  0  0  0  0  0  0  0
   -9.6720   35.5885   12.3088 C   0  0  0  0  0  0  0  0  0  0  0  0
   -8.9725   35.8687   13.4551 F   0  0  0  0  0  0  0  0  0  0  0  0
   -9.1957   33.4661    9.5106 N   0  0  0  0  0  0  0  0  0  0  0  0
   -0.0876   24.1688   14.8391 H   0  0  0  0  0  0  0  0  0  0  0  0
   -0.9880   24.0566   13.2888 H   0  0  0  0  0  0  0  0  0  0  0  0
    0.7450   24.5295   13.2888 H   0  0  0  0  0  0  0  0  0  0  0  0
   -1.2928   26.1115   14.7155 H   0  0  0  0  0  0  0  0  0  0  0  0
    0.6591   26.8964   15.4434 H   0  0  0  0  0  0  0  0  0  0  0  0
    1.5001   26.3834   13.9414 H   0  0  0  0  0  0  0  0  0  0  0  0
    0.4861   27.8662   13.9414 H   0  0  0  0  0  0  0  0  0  0  0  0
   -0.6593   26.4617   11.9040 H   0  0  0  0  0  0  0  0  0  0  0  0
   -2.2460   28.1380   13.9284 H   0  0  0  0  0  0  0  0  0  0  0  0
   -0.7966   28.6340   12.9435 H   0  0  0  0  0  0  0  0  0  0  0  0
   -3.0849   29.5053   12.2199 H   0  0  0  0  0  0  0  0  0  0  0  0
   -1.9795   28.6685   10.9800 H   0  0  0  0  0  0  0  0  0  0  0  0
   -4.2620   25.6686   11.1206 H   0  0  0  0  0  0  0  0  0  0  0  0
   -2.6771   26.1615   10.4180 H   0  0  0  0  0  0  0  0  0  0  0  0
   -2.4142   24.7277   12.4475 H   0  0  0  0  0  0  0  0  0  0  0  0
   -3.3032   25.9792   13.4044 H   0  0  0  0  0  0  0  0  0  0  0  0
   -5.4716   29.7262   11.6866 H   0  0  0  0  0  0  0  0  0  0  0  0
   -6.9164   29.7979    7.6383 H   0  0  0  0  0  0  0  0  0  0  0  0
   -5.3183   28.0065    7.0598 H   0  0  0  0  0  0  0  0  0  0  0  0
   -3.8619   26.9913    8.7604 H   0  0  0  0  0  0  0  0  0  0  0  0
   -7.8580   30.6591   10.8378 H   0  0  0  0  0  0  0  0  0  0  0  0
   -7.2055   33.8301   12.1139 H   0  0  0  0  0  0  0  0  0  0  0  0
  -12.8009   34.1861    8.9307 H   0  0  0  0  0  0  0  0  0  0  0  0
  -12.0271   35.5727    8.0909 H   0  0  0  0  0  0  0  0  0  0  0  0
  -11.2287   33.9636    8.0909 H   0  0  0  0  0  0  0  0  0  0  0  0
  -12.5629   36.4283   10.6665 H   0  0  0  0  0  0  0  0  0  0  0  0
  -11.2725   36.9472   12.7402 H   0  0  0  0  0  0  0  0  0  0  0  0
   -9.4713   33.0808    8.5960 H   0  0  0  0  0  0  0  0  0  0  0  0
  2  1  1  0
  2  3  1  0
  2  4  1  0
  4  5  1  0
  4  9  1  0
  5  6  1  0
  6  8  1  0
  7  8  1  0
  7  9  1  0
  8 10  1  0
 10 11  2  0
 10 15  1  0
 11 12  1  0
 12 13  2  0
 12 16  1  0
 13 14  1  0
 14 15  2  0
 16 17  1  0
 17 18  2  0
 17 19  1  0
 19 20  2  0
 19 29  1  0
 20 21  1  0
 21 22  2  0
 21 27  1  0
 22 23  1  0
 22 29  1  0
 23 24  1  0
 23 25  2  0
 25 26  1  0
 26 27  2  0
 27 28  1  0
  1 30  1  0
  1 31  1  0
  1 32  1  0
  2 33  1  1
  3 34  1  0
  3 35  1  0
  3 36  1  0
  4 37  1  6
  5 38  1  0
  5 39  1  0
  6 40  1  0
  6 41  1  0
  7 42  1  0
  7 43  1  0
  9 44  1  0
  9 45  1  0
 11 46  1  0
 13 47  1  0
 14 48  1  0
 15 49  1  0
 16 50  1  0
 20 51  1  0
 24 52  1  0
 24 53  1  0
 24 54  1  0
 25 55  1  0
 26 56  1  0
 29 57  1  0
M  CHG  1   2   1
M  END
>  <filename_input>  (6) 
7LZD_YHY_docked.sdf

>  <pdb_id>  (6) 
7LZD_YHY

>  <pose_rank>  (6) 
5

>  <num_atoms_heavy>  (6) 
29

>  <num_torsions>  (6) 
4

>  <pose>  (6) 
[-4.556461752109223, 28.25925292033172, 10.373606447261212, -0.35202129948950817, -1.3554634133236614, -2.7248025282113764, -0.6575062357923034, -0.16634294511179928, -0.500912141404398, 1.2026936243798994]

>  <energy>  (6) 
-655.842337957818

>  <inter_energy>  (6) 
-649.8768238742722

>  <intra_energy>  (6) 
5.237157638716102

>  <rmsd>  (6) 
10.3568

>  <sdf_rank>  (6) 
0

$$$$

     RDKit          3D

 57 60  0  0  0  0  0  0  0  0999 V2000
   -9.5367   30.2805    5.4969 C   0  0  0  0  0  0  0  0  0  0  0  0
   -9.9439   30.8868    6.7963 N   0  0  1  0  0  0  0  0  0  0  0  0
  -11.1069   30.1425    7.3538 C   0  0  0  0  0  0  0  0  0  0  0  0
   -8.8116   31.0606    7.7678 C   0  0  2  0  0  0  0  0  0  0  0  0
   -8.0903   32.3944    7.5439 C   0  0  0  0  0  0  0  0  0  0  0  0
   -6.8190   32.5283    8.3844 C   0  0  0  0  0  0  0  0  0  0  0  0
   -6.6490   30.0712    8.6273 C   0  0  0  0  0  0  0  0  0  0  0  0
   -5.9288   31.3528    8.4725 N   0  0  0  0  0  0  0  0  0  0  0  0
   -7.7617   29.9577    7.5815 C   0  0  0  0  0  0  0  0  0  0  0  0
   -4.7547   31.5535    9.2654 C   0  0  0  0  0  0  0  0  0  0  0  0
   -4.0714   30.4484    9.8300 C   0  0  0  0  0  0  0  0  0  0  0  0
   -2.9456   30.5944   10.6369 C   0  0  0  0  0  0  0  0  0  0  0  0
   -2.4633   31.8689   10.8907 C   0  0  0  0  0  0  0  0  0  0  0  0
   -3.0917   32.9580   10.3232 C   0  0  0  0  0  0  0  0  0  0  0  0
   -4.2169   32.8187    9.5353 C   0  0  0  0  0  0  0  0  0  0  0  0
   -2.3937   29.4255   11.1664 N   0  0  0  0  0  0  0  0  0  0  0  0
   -3.0972   28.4965   11.8424 C   0  0  0  0  0  0  0  0  0  0  0  0
   -4.3147   28.5959   12.0448 O   0  0  0  0  0  0  0  0  0  0  0  0
   -2.4045   27.3163   12.3502 C   0  0  0  0  0  0  0  0  0  0  0  0
   -1.5266   27.2060   13.3840 C   0  0  0  0  0  0  0  0  0  0  0  0
   -1.1552   25.8455   13.4725 C   0  0  0  0  0  0  0  0  0  0  0  0
   -1.8488   25.1619   12.4537 C   0  0  0  0  0  0  0  0  0  0  0  0
   -1.7056   23.7865   12.2757 C   0  0  0  0  0  0  0  0  0  0  0  0
   -2.4815   23.1264   11.1506 C   0  0  0  0  0  0  0  0  0  0  0  0
   -0.8573   23.0909   13.0884 C   0  0  0  0  0  0  0  0  0  0  0  0
   -0.1594   23.7695   14.1070 C   0  0  0  0  0  0  0  0  0  0  0  0
   -0.2932   25.1304   14.3021 C   0  0  0  0  0  0  0  0  0  0  0  0
    0.3943   25.7818   15.2946 F   0  0  0  0  0  0  0  0  0  0  0  0
   -2.6165   26.0735   11.7973 N   0  0  0  0  0  0  0  0  0  0  0  0
   -8.9324   29.3809    5.6854 H   0  0  0  0  0  0  0  0  0  0  0  0
  -10.4341   30.0058    4.9232 H   0  0  0  0  0  0  0  0  0  0  0  0
   -8.9430   31.0075    4.9232 H   0  0  0  0  0  0  0  0  0  0  0  0
  -10.2450   31.8546    6.6133 H   0  0  0  0  0  0  0  0  0  0  0  0
  -11.0662   30.1685    8.4528 H   0  0  0  0  0  0  0  0  0  0  0  0
  -12.0409   30.6110    7.0103 H   0  0  0  0  0  0  0  0  0  0  0  0
  -11.0726   29.0980    7.0103 H   0  0  0  0  0  0  0  0  0  0  0  0
   -9.2532   31.0216    8.7745 H   0  0  0  0  0  0  0  0  0  0  0  0
   -7.8189   32.4733    6.4808 H   0  0  0  0  0  0  0  0  0  0  0  0
   -8.7764   33.1979    7.8501 H   0  0  0  0  0  0  0  0  0  0  0  0
   -6.2304   33.3555    7.9609 H   0  0  0  0  0  0  0  0  0  0  0  0
   -7.1794   32.6826    9.4122 H   0  0  0  0  0  0  0  0  0  0  0  0
   -5.9415   29.2392    8.4962 H   0  0  0  0  0  0  0  0  0  0  0  0
   -7.0961   30.0308    9.6315 H   0  0  0  0  0  0  0  0  0  0  0  0
   -8.2497   28.9770    7.6816 H   0  0  0  0  0  0  0  0  0  0  0  0
   -7.3140   30.0676    6.5828 H   0  0  0  0  0  0  0  0  0  0  0  0
   -4.4448   29.4347    9.6228 H   0  0  0  0  0  0  0  0  0  0  0  0
   -1.5865   32.0108   11.5396 H   0  0  0  0  0  0  0  0  0  0  0  0
   -2.6855   33.9642   10.5032 H   0  0  0  0  0  0  0  0  0  0  0  0
   -4.6979   33.7136    9.1136 H   0  0  0  0  0  0  0  0  0  0  0  0
   -1.3855   29.2638   11.0316 H   0  0  0  0  0  0  0  0  0  0  0  0
   -1.1724   28.0230   14.0299 H   0  0  0  0  0  0  0  0  0  0  0  0
   -3.2545   22.4688   11.5748 H   0  0  0  0  0  0  0  0  0  0  0  0
   -2.9582   23.9001   10.5307 H   0  0  0  0  0  0  0  0  0  0  0  0
   -1.7942   22.5320   10.5307 H   0  0  0  0  0  0  0  0  0  0  0  0
   -0.7198   22.0085   12.9490 H   0  0  0  0  0  0  0  0  0  0  0  0
    0.5115   23.1989   14.7660 H   0  0  0  0  0  0  0  0  0  0  0  0
   -3.2528   25.8673   11.0140 H   0  0  0  0  0  0  0  0  0  0  0  0
  2  1  1  0
  2  3  1  0
  2  4  1  0
  4  5  1  0
  4  9  1  0
  5  6  1  0
  6  8  1  0
  7  8  1  0
  7  9  1  0
  8 10  1  0
 10 11  2  0
 10 15  1  0
 11 12  1  0
 12 13  2  0
 12 16  1  0
 13 14  1  0
 14 15  2  0
 16 17  1  0
 17 18  2  0
 17 19  1  0
 19 20  2  0
 19 29  1  0
 20 21  1  0
 21 22  2  0
 21 27  1  0
 22 23  1  0
 22 29  1  0
 23 24  1  0
 23 25  2  0
 25 26  1  0
 26 27  2  0
 27 28  1  0
  1 30  1  0
  1 31  1  0
  1 32  1  0
  2 33  1  6
  3 34  1  0
  3 35  1  0
  3 36  1  0
  4 37  1  1
  5 38  1  0
  5 39  1  0
  6 40  1  0
  6 41  1  0
  7 42  1  0
  7 43  1  0
  9 44  1  0
  9 45  1  0
 11 46  1  0
 13 47  1  0
 14 48  1  0
 15 49  1  0
 16 50  1  0
 20 51  1  0
 24 52  1  0
 24 53  1  0
 24 54  1  0
 25 55  1  0
 26 56  1  0
 29 57  1  0
M  CHG  1   2   1
M  END
>  <filename_input>  (7) 
7LZD_YHY_docked.sdf

>  <pdb_id>  (7) 
7LZD_YHY

>  <pose_rank>  (7) 
6

>  <num_atoms_heavy>  (7) 
29

>  <num_torsions>  (7) 
4

>  <pose>  (7) 
[-4.7546691761461926, 31.55348650732018, 9.265441742637138, 1.6410840616227806, -1.5219553663755438, 1.1601097914831147, 3.339144313604963, -1.7802269284308314, 2.8359313306143004, 1.0203509698754447]

>  <energy>  (7) 
-697.3439402760393

>  <inter_energy>  (7) 
-695.9080016853773

>  <intra_energy>  (7) 
14.796046694943703

>  <rmsd>  (7) 
3.46942

>  <sdf_rank>  (7) 
0

$$$$

     RDKit          3D

 57 60  0  0  0  0  0  0  0  0999 V2000
   -1.0137   23.7706   13.2413 C   0  0  0  0  0  0  0  0  0  0  0  0
   -1.0361   25.1542   13.7954 N   0  0  1  0  0  0  0  0  0  0  0  0
    0.2376   25.4253   14.5177 C   0  0  0  0  0  0  0  0  0  0  0  0
   -1.3990   26.2072   12.7876 C   0  0  2  0  0  0  0  0  0  0  0  0
   -1.2158   27.6143   13.3673 C   0  0  0  0  0  0  0  0  0  0  0  0
   -1.7502   28.7097   12.4425 C   0  0  0  0  0  0  0  0  0  0  0  0
   -3.2315   27.0968   11.2894 C   0  0  0  0  0  0  0  0  0  0  0  0
   -3.0533   28.4774   11.7868 N   0  0  0  0  0  0  0  0  0  0  0  0
   -2.8742   26.0878   12.3843 C   0  0  0  0  0  0  0  0  0  0  0  0
   -3.4954   29.5474   10.9457 C   0  0  0  0  0  0  0  0  0  0  0  0
   -4.7883   30.1026   11.1092 C   0  0  0  0  0  0  0  0  0  0  0  0
   -5.2769   31.1205   10.2936 C   0  0  0  0  0  0  0  0  0  0  0  0
   -4.4650   31.6220    9.2882 C   0  0  0  0  0  0  0  0  0  0  0  0
   -3.1892   31.1209    9.1325 C   0  0  0  0  0  0  0  0  0  0  0  0
   -2.7067   30.1014    9.9289 C   0  0  0  0  0  0  0  0  0  0  0  0
   -6.5852   31.5472   10.5334 N   0  0  0  0  0  0  0  0  0  0  0  0
   -7.2352   32.4529    9.7771 C   0  0  0  0  0  0  0  0  0  0  0  0
   -6.7239   32.9841    8.7824 O   0  0  0  0  0  0  0  0  0  0  0  0
   -8.6026   32.8198   10.1325 C   0  0  0  0  0  0  0  0  0  0  0  0
   -9.7132   32.8828    9.3487 C   0  0  0  0  0  0  0  0  0  0  0  0
  -10.7870   33.2777   10.1780 C   0  0  0  0  0  0  0  0  0  0  0  0
  -10.2657   33.4423   11.4770 C   0  0  0  0  0  0  0  0  0  0  0  0
  -11.0798   33.8245   12.5424 C   0  0  0  0  0  0  0  0  0  0  0  0
  -10.4398   33.9874   13.9089 C   0  0  0  0  0  0  0  0  0  0  0  0
  -12.4043   34.0687   12.3188 C   0  0  0  0  0  0  0  0  0  0  0  0
  -12.9306   33.9082   11.0218 C   0  0  0  0  0  0  0  0  0  0  0  0
  -12.1406   33.5246    9.9554 C   0  0  0  0  0  0  0  0  0  0  0  0
  -12.6628   33.3751    8.6957 F   0  0  0  0  0  0  0  0  0  0  0  0
   -8.9400   33.1396   11.4283 N   0  0  0  0  0  0  0  0  0  0  0  0
   -1.0020   23.0448   14.0678 H   0  0  0  0  0  0  0  0  0  0  0  0
   -1.9094   23.6085   12.6236 H   0  0  0  0  0  0  0  0  0  0  0  0
   -0.1133   23.6375   12.6236 H   0  0  0  0  0  0  0  0  0  0  0  0
   -1.8056   25.2094   14.4779 H   0  0  0  0  0  0  0  0  0  0  0  0
    0.0592   25.3873   15.6025 H   0  0  0  0  0  0  0  0  0  0  0  0
    0.9842   24.6660   14.2421 H   0  0  0  0  0  0  0  0  0  0  0  0
    0.6102   26.4229   14.2421 H   0  0  0  0  0  0  0  0  0  0  0  0
   -0.7377   26.0541   11.9220 H   0  0  0  0  0  0  0  0  0  0  0  0
   -1.7512   27.6719   14.3265 H   0  0  0  0  0  0  0  0  0  0  0  0
   -0.1361   27.7835   13.4923 H   0  0  0  0  0  0  0  0  0  0  0  0
   -1.8419   29.6286   13.0400 H   0  0  0  0  0  0  0  0  0  0  0  0
   -1.0261   28.7540   11.6156 H   0  0  0  0  0  0  0  0  0  0  0  0
   -4.2800   26.9515   10.9900 H   0  0  0  0  0  0  0  0  0  0  0  0
   -2.5680   26.9387   10.4264 H   0  0  0  0  0  0  0  0  0  0  0  0
   -3.0629   25.0706   12.0104 H   0  0  0  0  0  0  0  0  0  0  0  0
   -3.4953   26.2973   13.2677 H   0  0  0  0  0  0  0  0  0  0  0  0
   -5.4321   29.7144   11.9122 H   0  0  0  0  0  0  0  0  0  0  0  0
   -4.8351   32.4134    8.6199 H   0  0  0  0  0  0  0  0  0  0  0  0
   -2.5390   31.5447    8.3531 H   0  0  0  0  0  0  0  0  0  0  0  0
   -1.6888   29.7190    9.7627 H   0  0  0  0  0  0  0  0  0  0  0  0
   -7.0843   31.1439   11.3391 H   0  0  0  0  0  0  0  0  0  0  0  0
   -9.7653   32.6668    8.2714 H   0  0  0  0  0  0  0  0  0  0  0  0
  -11.1901   33.7964   14.6903 H   0  0  0  0  0  0  0  0  0  0  0  0
   -9.6111   33.2716   14.0134 H   0  0  0  0  0  0  0  0  0  0  0  0
  -10.0543   35.0123   14.0134 H   0  0  0  0  0  0  0  0  0  0  0  0
  -13.0559   34.3885   13.1453 H   0  0  0  0  0  0  0  0  0  0  0  0
  -14.0016   34.0939   10.8533 H   0  0  0  0  0  0  0  0  0  0  0  0
   -8.2939   33.1483   12.2304 H   0  0  0  0  0  0  0  0  0  0  0  0
  2  1  1  0
  2  3  1  0
  2  4  1  0
  4  5  1  0
  4  9  1  0
  5  6  1  0
  6  8  1  0
  7  8  1  0
  7  9  1  0
  8 10  1  0
 10 11  2  0
 10 15  1  0
 11 12  1  0
 12 13  2  0
 12 16  1  0
 13 14  1  0
 14 15  2  0
 16 17  1  0
 17 18  2  0
 17 19  1  0
 19 20  2  0
 19 29  1  0
 20 21  1  0
 21 22  2  0
 21 27  1  0
 22 23  1  0
 22 29  1  0
 23 24  1  0
 23 25  2  0
 25 26  1  0
 26 27  2  0
 27 28  1  0
  1 30  1  0
  1 31  1  0
  1 32  1  0
  2 33  1  1
  3 34  1  0
  3 35  1  0
  3 36  1  0
  4 37  1  6
  5 38  1  0
  5 39  1  0
  6 40  1  0
  6 41  1  0
  7 42  1  0
  7 43  1  0
  9 44  1  0
  9 45  1  0
 11 46  1  0
 13 47  1  0
 14 48  1  0
 15 49  1  0
 16 50  1  0
 20 51  1  0
 24 52  1  0
 24 53  1  0
 24 54  1  0
 25 55  1  0
 26 56  1  0
 29 57  1  0
M  CHG  1   2   1
M  END
>  <filename_input>  (8) 
7LZD_YHY_docked.sdf

>  <pdb_id>  (8) 
7LZD_YHY

>  <pose_rank>  (8) 
7

>  <num_atoms_heavy>  (8) 
29

>  <num_torsions>  (8) 
4

>  <pose>  (8) 
[-3.495367162155503, 29.547377139842755, 10.94566247173922, -0.775506578207944, 0.4025714236191427, 3.148802780688394, 4.640701019943176, -0.015972789348598887, 0.682061600658655, -8.801726789888072]

>  <energy>  (8) 
-560.5016830975326

>  <inter_energy>  (8) 
-584.3661475654592

>  <intra_energy>  (8) 
25.06791107896774

>  <rmsd>  (8) 
10.5592

>  <sdf_rank>  (8) 
0

$$$$

     RDKit          3D

 57 60  0  0  0  0  0  0  0  0999 V2000
   -0.9869   20.6485   14.8705 C   0  0  0  0  0  0  0  0  0  0  0  0
   -0.2398   21.5444   13.9426 N   0  0  1  0  0  0  0  0  0  0  0  0
   -0.1510   20.9110   12.5978 C   0  0  0  0  0  0  0  0  0  0  0  0
   -0.7518   22.9563   13.9164 C   0  0  2  0  0  0  0  0  0  0  0  0
   -1.3546   23.3010   12.5499 C   0  0  0  0  0  0  0  0  0  0  0  0
   -1.7168   24.7817   12.4193 C   0  0  0  0  0  0  0  0  0  0  0  0
   -0.1355   25.3894   14.2235 C   0  0  0  0  0  0  0  0  0  0  0  0
   -0.7492   25.7719   12.9343 N   0  0  0  0  0  0  0  0  0  0  0  0
    0.3897   23.9527   14.1561 C   0  0  0  0  0  0  0  0  0  0  0  0
   -1.1486   27.1360   12.7689 C   0  0  0  0  0  0  0  0  0  0  0  0
   -2.2754   27.4636   11.9753 C   0  0  0  0  0  0  0  0  0  0  0  0
   -2.6828   28.7773   11.7559 C   0  0  0  0  0  0  0  0  0  0  0  0
   -1.9677   29.8082   12.3452 C   0  0  0  0  0  0  0  0  0  0  0  0
   -0.8876   29.5115   13.1505 C   0  0  0  0  0  0  0  0  0  0  0  0
   -0.4713   28.2116   13.3581 C   0  0  0  0  0  0  0  0  0  0  0  0
   -3.7838   28.9640   10.9168 N   0  0  0  0  0  0  0  0  0  0  0  0
   -4.0617   30.1183   10.2804 C   0  0  0  0  0  0  0  0  0  0  0  0
   -3.3468   31.1246   10.3775 O   0  0  0  0  0  0  0  0  0  0  0  0
   -5.2465   30.1898    9.4308 C   0  0  0  0  0  0  0  0  0  0  0  0
   -5.9057   29.1933    8.7794 C   0  0  0  0  0  0  0  0  0  0  0  0
   -6.9965   29.7864    8.1047 C   0  0  0  0  0  0  0  0  0  0  0  0
   -6.9536   31.1668    8.3858 C   0  0  0  0  0  0  0  0  0  0  0  0
   -7.9085   32.0421    7.8700 C   0  0  0  0  0  0  0  0  0  0  0  0
   -7.7877   33.5155    8.2135 C   0  0  0  0  0  0  0  0  0  0  0  0
   -8.8911   31.5568    7.0557 C   0  0  0  0  0  0  0  0  0  0  0  0
   -8.9374   30.1781    6.7693 C   0  0  0  0  0  0  0  0  0  0  0  0
   -8.0037   29.2952    7.2760 C   0  0  0  0  0  0  0  0  0  0  0  0
   -8.0560   27.9551    6.9873 F   0  0  0  0  0  0  0  0  0  0  0  0
   -5.8927   31.3850    9.2093 N   0  0  0  0  0  0  0  0  0  0  0  0
   -0.7571   20.9240   15.9104 H   0  0  0  0  0  0  0  0  0  0  0  0
   -2.0672   20.7554   14.6930 H   0  0  0  0  0  0  0  0  0  0  0  0
   -0.6876   19.6050   14.6930 H   0  0  0  0  0  0  0  0  0  0  0  0
    0.7176   21.6501   14.3071 H   0  0  0  0  0  0  0  0  0  0  0  0
    0.0010   19.8276   12.7122 H   0  0  0  0  0  0  0  0  0  0  0  0
   -1.0836   21.0940   12.0440 H   0  0  0  0  0  0  0  0  0  0  0  0
    0.6953   21.3435   12.0440 H   0  0  0  0  0  0  0  0  0  0  0  0
   -1.5135   23.0284   14.7068 H   0  0  0  0  0  0  0  0  0  0  0  0
   -0.6226   23.0479   11.7688 H   0  0  0  0  0  0  0  0  0  0  0  0
   -2.2833   22.7217   12.4415 H   0  0  0  0  0  0  0  0  0  0  0  0
   -1.8637   24.9911   11.3494 H   0  0  0  0  0  0  0  0  0  0  0  0
   -2.6078   24.9075   13.0520 H   0  0  0  0  0  0  0  0  0  0  0  0
    0.6992   26.0709   14.4446 H   0  0  0  0  0  0  0  0  0  0  0  0
   -0.8959   25.4559   15.0156 H   0  0  0  0  0  0  0  0  0  0  0  0
    0.8867   23.7072   15.1062 H   0  0  0  0  0  0  0  0  0  0  0  0
    1.0982   23.8794   13.3179 H   0  0  0  0  0  0  0  0  0  0  0  0
   -2.8516   26.6480   11.5141 H   0  0  0  0  0  0  0  0  0  0  0  0
   -2.2592   30.8547   12.1721 H   0  0  0  0  0  0  0  0  0  0  0  0
   -0.3435   30.3326   13.6402 H   0  0  0  0  0  0  0  0  0  0  0  0
    0.4042   28.0178   13.9951 H   0  0  0  0  0  0  0  0  0  0  0  0
   -4.4234   28.1691   10.7759 H   0  0  0  0  0  0  0  0  0  0  0  0
   -5.6394   28.1260    8.7783 H   0  0  0  0  0  0  0  0  0  0  0  0
   -7.7777   33.6375    9.3067 H   0  0  0  0  0  0  0  0  0  0  0  0
   -6.8537   33.9150    7.7914 H   0  0  0  0  0  0  0  0  0  0  0  0
   -8.6440   34.0618    7.7914 H   0  0  0  0  0  0  0  0  0  0  0  0
   -9.6411   32.2373    6.6264 H   0  0  0  0  0  0  0  0  0  0  0  0
   -9.7405   29.7936    6.1233 H   0  0  0  0  0  0  0  0  0  0  0  0
   -5.6177   32.2962    9.6030 H   0  0  0  0  0  0  0  0  0  0  0  0
  2  1  1  0
  2  3  1  0
  2  4  1  0
  4  5  1  0
  4  9  1  0
  5  6  1  0
  6  8  1  0
  7  8  1  0
  7  9  1  0
  8 10  1  0
 10 11  2  0
 10 15  1  0
 11 12  1  0
 12 13  2  0
 12 16  1  0
 13 14  1  0
 14 15  2  0
 16 17  1  0
 17 18  2  0
 17 19  1  0
 19 20  2  0
 19 29  1  0
 20 21  1  0
 21 22  2  0
 21 27  1  0
 22 23  1  0
 22 29  1  0
 23 24  1  0
 23 25  2  0
 25 26  1  0
 26 27  2  0
 27 28  1  0
  1 30  1  0
  1 31  1  0
  1 32  1  0
  2 33  1  1
  3 34  1  0
  3 35  1  0
  3 36  1  0
  4 37  1  1
  5 38  1  0
  5 39  1  0
  6 40  1  0
  6 41  1  0
  7 42  1  0
  7 43  1  0
  9 44  1  0
  9 45  1  0
 11 46  1  0
 13 47  1  0
 14 48  1  0
 15 49  1  0
 16 50  1  0
 20 51  1  0
 24 52  1  0
 24 53  1  0
 24 54  1  0
 25 55  1  0
 26 56  1  0
 29 57  1  0
M  CHG  1   2   1
M  END
>  <filename_input>  (9) 
7LZD_YHY_docked.sdf

>  <pdb_id>  (9) 
7LZD_YHY

>  <pose_rank>  (9) 
8

>  <num_atoms_heavy>  (9) 
29

>  <num_torsions>  (9) 
4

>  <pose>  (9) 
[-1.1485662006621709, 27.13598935963218, 12.768869367125452, -2.190316735616144, -0.9089846849392853, 2.2722180697039756, 0.4183357690590661, 0.9988180725214716, 0.9644129163370041, -0.6824343251638113]

>  <energy>  (9) 
-627.5079879492902

>  <inter_energy>  (9) 
-639.3749381496441

>  <intra_energy>  (9) 
22.19868055706235

>  <rmsd>  (9) 
10.6458

>  <sdf_rank>  (9) 
0

$$$$

     RDKit          3D

 57 60  0  0  0  0  0  0  0  0999 V2000
   -9.3223   37.0418   17.1843 C   0  0  0  0  0  0  0  0  0  0  0  0
  -10.3035   37.2933   16.0909 N   0  0  1  0  0  0  0  0  0  0  0  0
  -10.2487   38.7258   15.6881 C   0  0  0  0  0  0  0  0  0  0  0  0
  -10.1914   36.3341   14.9404 C   0  0  2  0  0  0  0  0  0  0  0  0
   -8.8160   36.4313   14.2710 C   0  0  0  0  0  0  0  0  0  0  0  0
   -8.7248   35.6096   12.9837 C   0  0  0  0  0  0  0  0  0  0  0  0
  -11.1859   35.6322   12.7240 C   0  0  0  0  0  0  0  0  0  0  0  0
   -9.8697   35.6662   12.0521 N   0  0  0  0  0  0  0  0  0  0  0  0
  -11.2295   36.6592   13.8588 C   0  0  0  0  0  0  0  0  0  0  0  0
   -9.7106   34.8826   10.8654 C   0  0  0  0  0  0  0  0  0  0  0  0
   -8.8330   33.7707   10.8509 C   0  0  0  0  0  0  0  0  0  0  0  0
   -8.6179   32.9988    9.7117 C   0  0  0  0  0  0  0  0  0  0  0  0
   -9.2966   33.3198    8.5464 C   0  0  0  0  0  0  0  0  0  0  0  0
  -10.1827   34.3770    8.5462 C   0  0  0  0  0  0  0  0  0  0  0  0
  -10.3873   35.1541    9.6690 C   0  0  0  0  0  0  0  0  0  0  0  0
   -7.6931   31.9578    9.8209 N   0  0  0  0  0  0  0  0  0  0  0  0
   -7.5589   30.9681    8.9169 C   0  0  0  0  0  0  0  0  0  0  0  0
   -8.2473   30.9025    7.8898 O   0  0  0  0  0  0  0  0  0  0  0  0
   -6.5552   29.9331    9.1453 C   0  0  0  0  0  0  0  0  0  0  0  0
   -5.7332   29.7454   10.2134 C   0  0  0  0  0  0  0  0  0  0  0  0
   -4.9596   28.5933    9.9469 C   0  0  0  0  0  0  0  0  0  0  0  0
   -5.3593   28.1116    8.6842 C   0  0  0  0  0  0  0  0  0  0  0  0
   -4.7858   26.9683    8.1293 C   0  0  0  0  0  0  0  0  0  0  0  0
   -5.2663   26.5191    6.7614 C   0  0  0  0  0  0  0  0  0  0  0  0
   -3.7994   26.3156    8.8111 C   0  0  0  0  0  0  0  0  0  0  0  0
   -3.3940   26.7941   10.0727 C   0  0  0  0  0  0  0  0  0  0  0  0
   -3.9548   27.9215   10.6409 C   0  0  0  0  0  0  0  0  0  0  0  0
   -3.5496   28.3809   11.8684 F   0  0  0  0  0  0  0  0  0  0  0  0
   -6.3437   28.9312    8.2253 N   0  0  0  0  0  0  0  0  0  0  0  0
   -9.8178   37.1688   18.1581 H   0  0  0  0  0  0  0  0  0  0  0  0
   -8.9354   36.0155   17.1009 H   0  0  0  0  0  0  0  0  0  0  0  0
   -8.4894   37.7555   17.1009 H   0  0  0  0  0  0  0  0  0  0  0  0
  -11.2457   37.1040   16.4615 H   0  0  0  0  0  0  0  0  0  0  0  0
  -10.2244   39.3589   16.5874 H   0  0  0  0  0  0  0  0  0  0  0  0
   -9.3430   38.9040   15.0897 H   0  0  0  0  0  0  0  0  0  0  0  0
  -11.1380   38.9728   15.0897 H   0  0  0  0  0  0  0  0  0  0  0  0
  -10.3522   35.3277   15.3544 H   0  0  0  0  0  0  0  0  0  0  0  0
   -8.6160   37.4858   14.0300 H   0  0  0  0  0  0  0  0  0  0  0  0
   -8.0748   36.0267   14.9759 H   0  0  0  0  0  0  0  0  0  0  0  0
   -7.8367   35.9560   12.4348 H   0  0  0  0  0  0  0  0  0  0  0  0
   -8.6926   34.5636   13.3225 H   0  0  0  0  0  0  0  0  0  0  0  0
  -11.9732   35.8662   11.9922 H   0  0  0  0  0  0  0  0  0  0  0  0
  -11.3479   34.6282   13.1434 H   0  0  0  0  0  0  0  0  0  0  0  0
  -12.2325   36.6528   14.3104 H   0  0  0  0  0  0  0  0  0  0  0  0
  -10.9990   37.6504   13.4411 H   0  0  0  0  0  0  0  0  0  0  0  0
   -8.3001   33.5063   11.7762 H   0  0  0  0  0  0  0  0  0  0  0  0
   -9.1298   32.7362    7.6290 H   0  0  0  0  0  0  0  0  0  0  0  0
  -10.7414   34.6071    7.6270 H   0  0  0  0  0  0  0  0  0  0  0  0
  -11.0913   35.9980    9.6236 H   0  0  0  0  0  0  0  0  0  0  0  0
   -7.0747   31.9461   10.6446 H   0  0  0  0  0  0  0  0  0  0  0  0
   -5.6808   30.3729   11.1154 H   0  0  0  0  0  0  0  0  0  0  0  0
   -6.0651   25.7723    6.8803 H   0  0  0  0  0  0  0  0  0  0  0  0
   -5.6543   27.3858    6.2062 H   0  0  0  0  0  0  0  0  0  0  0  0
   -4.4276   26.0737    6.2062 H   0  0  0  0  0  0  0  0  0  0  0  0
   -3.3245   25.4227    8.3786 H   0  0  0  0  0  0  0  0  0  0  0  0
   -2.6081   26.2542   10.6213 H   0  0  0  0  0  0  0  0  0  0  0  0
   -6.8485   28.8200    7.3344 H   0  0  0  0  0  0  0  0  0  0  0  0
  2  1  1  0
  2  3  1  0
  2  4  1  0
  4  5  1  0
  4  9  1  0
  5  6  1  0
  6  8  1  0
  7  8  1  0
  7  9  1  0
  8 10  1  0
 10 11  2  0
 10 15  1  0
 11 12  1  0
 12 13  2  0
 12 16  1  0
 13 14  1  0
 14 15  2  0
 16 17  1  0
 17 18  2  0
 17 19  1  0
 19 20  2  0
 19 29  1  0
 20 21  1  0
 21 22  2  0
 21 27  1  0
 22 23  1  0
 22 29  1  0
 23 24  1  0
 23 25  2  0
 25 26  1  0
 26 27  2  0
 27 28  1  0
  1 30  1  0
  1 31  1  0
  1 32  1  0
  2 33  1  1
  3 34  1  0
  3 35  1  0
  3 36  1  0
  4 37  1  1
  5 38  1  0
  5 39  1  0
  6 40  1  0
  6 41  1  0
  7 42  1  0
  7 43  1  0
  9 44  1  0
  9 45  1  0
 11 46  1  0
 13 47  1  0
 14 48  1  0
 15 49  1  0
 16 50  1  0
 20 51  1  0
 24 52  1  0
 24 53  1  0
 24 54  1  0
 25 55  1  0
 26 56  1  0
 29 57  1  0
M  CHG  1   2   1
M  END
>  <filename_input>  (10) 
7LZD_YHY_docked.sdf

>  <pdb_id>  (10) 
7LZD_YHY

>  <pose_rank>  (10) 
9

>  <num_atoms_heavy>  (10) 
29

>  <num_torsions>  (10) 
4

>  <pose>  (10) 
[-9.71061318863185, 34.882580750918066, 10.865370161799508, 0.7405913101823407, 0.22483291164016342, -0.21267529591030138, 13.57880775419313, -4.369271025678237, 6.6456896888177095, -0.16328179475176294]

>  <energy>  (10) 
-528.9006415975105

>  <inter_energy>  (10) 
-536.961389537623

>  <intra_energy>  (10) 
23.455844700515474

>  <rmsd>  (10) 
6.05756

>  <sdf_rank>  (10) 
0

$$$$

     RDKit          3D

 57 60  0  0  0  0  0  0  0  0999 V2000
  -15.0820   35.5061    7.2641 C   0  0  0  0  0  0  0  0  0  0  0  0
  -14.1939   36.5347    7.8765 N   0  0  1  0  0  0  0  0  0  0  0  0
  -15.0071   37.4748    8.6965 C   0  0  0  0  0  0  0  0  0  0  0  0
  -13.0108   35.9619    8.6034 C   0  0  2  0  0  0  0  0  0  0  0  0
  -13.3949   34.6922    9.3714 C   0  0  0  0  0  0  0  0  0  0  0  0
  -12.2693   34.1828   10.2736 C   0  0  0  0  0  0  0  0  0  0  0  0
  -11.2149   36.4213   10.3232 C   0  0  0  0  0  0  0  0  0  0  0  0
  -11.5214   35.1804   11.0657 N   0  0  0  0  0  0  0  0  0  0  0  0
  -12.4766   36.9573    9.6411 C   0  0  0  0  0  0  0  0  0  0  0  0
  -10.4915   34.6318   11.8940 C   0  0  0  0  0  0  0  0  0  0  0  0
   -9.6514   33.6001   11.4075 C   0  0  0  0  0  0  0  0  0  0  0  0
   -8.6587   33.0104   12.1863 C   0  0  0  0  0  0  0  0  0  0  0  0
   -8.4732   33.4555   13.4859 C   0  0  0  0  0  0  0  0  0  0  0  0
   -9.2563   34.4829   13.9698 C   0  0  0  0  0  0  0  0  0  0  0  0
  -10.2515   35.0598   13.2063 C   0  0  0  0  0  0  0  0  0  0  0  0
   -7.9305   31.9728   11.5996 N   0  0  0  0  0  0  0  0  0  0  0  0
   -7.1900   32.1069   10.4822 C   0  0  0  0  0  0  0  0  0  0  0  0
   -7.0810   33.1816    9.8771 O   0  0  0  0  0  0  0  0  0  0  0  0
   -6.4751   30.9446    9.9640 C   0  0  0  0  0  0  0  0  0  0  0  0
   -5.2934   30.4043   10.3684 C   0  0  0  0  0  0  0  0  0  0  0  0
   -5.0470   29.2796    9.5491 C   0  0  0  0  0  0  0  0  0  0  0  0
   -6.1284   29.1794    8.6508 C   0  0  0  0  0  0  0  0  0  0  0  0
   -6.1925   28.1579    7.7040 C   0  0  0  0  0  0  0  0  0  0  0  0
   -7.3868   28.1243    6.7680 C   0  0  0  0  0  0  0  0  0  0  0  0
   -5.1754   27.2503    7.6283 C   0  0  0  0  0  0  0  0  0  0  0  0
   -4.0906   27.3471    8.5221 C   0  0  0  0  0  0  0  0  0  0  0  0
   -4.0129   28.3485    9.4705 C   0  0  0  0  0  0  0  0  0  0  0  0
   -2.9499   28.4356   10.3333 F   0  0  0  0  0  0  0  0  0  0  0  0
   -6.9930   30.1908    8.9351 N   0  0  0  0  0  0  0  0  0  0  0  0
  -15.5789   34.9306    8.0589 H   0  0  0  0  0  0  0  0  0  0  0  0
  -15.8410   36.0013    6.6407 H   0  0  0  0  0  0  0  0  0  0  0  0
  -14.4814   34.8274    6.6407 H   0  0  0  0  0  0  0  0  0  0  0  0
  -13.7603   37.0734    7.1131 H   0  0  0  0  0  0  0  0  0  0  0  0
  -14.8337   37.2743    9.7641 H   0  0  0  0  0  0  0  0  0  0  0  0
  -14.7149   38.5098    8.4655 H   0  0  0  0  0  0  0  0  0  0  0  0
  -16.0734   37.3346    8.4655 H   0  0  0  0  0  0  0  0  0  0  0  0
  -12.2510   35.7395    7.8396 H   0  0  0  0  0  0  0  0  0  0  0  0
  -14.2739   34.9112    9.9954 H   0  0  0  0  0  0  0  0  0  0  0  0
  -13.6065   33.9075    8.6301 H   0  0  0  0  0  0  0  0  0  0  0  0
  -12.7134   33.4671   10.9811 H   0  0  0  0  0  0  0  0  0  0  0  0
  -11.5254   33.7625    9.5808 H   0  0  0  0  0  0  0  0  0  0  0  0
  -10.8315   37.1780   11.0235 H   0  0  0  0  0  0  0  0  0  0  0  0
  -10.4586   36.2014    9.5553 H   0  0  0  0  0  0  0  0  0  0  0  0
  -12.2374   37.9061    9.1385 H   0  0  0  0  0  0  0  0  0  0  0  0
  -13.2499   37.1096   10.4085 H   0  0  0  0  0  0  0  0  0  0  0  0
   -9.7886   33.2509   10.3734 H   0  0  0  0  0  0  0  0  0  0  0  0
   -7.7077   32.9930   14.1263 H   0  0  0  0  0  0  0  0  0  0  0  0
   -9.0831   34.8525   14.9913 H   0  0  0  0  0  0  0  0  0  0  0  0
  -10.8645   35.8667   13.6343 H   0  0  0  0  0  0  0  0  0  0  0  0
   -7.9616   31.0468   12.0497 H   0  0  0  0  0  0  0  0  0  0  0  0
   -4.6504   30.7738   11.1808 H   0  0  0  0  0  0  0  0  0  0  0  0
   -8.3147   28.0983    7.3582 H   0  0  0  0  0  0  0  0  0  0  0  0
   -7.3809   29.0230    6.1337 H   0  0  0  0  0  0  0  0  0  0  0  0
   -7.3304   27.2274    6.1337 H   0  0  0  0  0  0  0  0  0  0  0  0
   -5.2026   26.4493    6.8749 H   0  0  0  0  0  0  0  0  0  0  0  0
   -3.2821   26.6036    8.4631 H   0  0  0  0  0  0  0  0  0  0  0  0
   -7.8892   30.3643    8.4580 H   0  0  0  0  0  0  0  0  0  0  0  0
  2  1  1  0
  2  3  1  0
  2  4  1  0
  4  5  1  0
  4  9  1  0
  5  6  1  0
  6  8  1  0
  7  8  1  0
  7  9  1  0
  8 10  1  0
 10 11  2  0
 10 15  1  0
 11 12  1  0
 12 13  2  0
 12 16  1  0
 13 14  1  0
 14 15  2  0
 16 17  1  0
 17 18  2  0
 17 19  1  0
 19 20  2  0
 19 29  1  0
 20 21  1  0
 21 22  2  0
 21 27  1  0
 22 23  1  0
 22 29  1  0
 23 24  1  0
 23 25  2  0
 25 26  1  0
 26 27  2  0
 27 28  1  0
  1 30  1  0
  1 31  1  0
  1 32  1  0
  2 33  1  6
  3 34  1  0
  3 35  1  0
  3 36  1  0
  4 37  1  6
  5 38  1  0
  5 39  1  0
  6 40  1  0
  6 41  1  0
  7 42  1  0
  7 43  1  0
  9 44  1  0
  9 45  1  0
 11 46  1  0
 13 47  1  0
 14 48  1  0
 15 49  1  0
 16 50  1  0
 20 51  1  0
 24 52  1  0
 24 53  1  0
 24 54  1  0
 25 55  1  0
 26 56  1  0
 29 57  1  0
M  CHG  1   2   1
M  END
>  <filename_input>  (11) 
7LZD_YHY_docked.sdf

>  <pdb_id>  (11) 
7LZD_YHY

>  <pose_rank>  (11) 
10

>  <num_atoms_heavy>  (11) 
29

>  <num_torsions>  (11) 
4

>  <pose>  (11) 
[-10.491502609911672, 34.63179503216596, 11.894017562692575, 2.3323214163490054, -2.3811456138411757, 0.5930284822960683, 1.314577480205928, 2.3053273525676903, -1.4928061850517156, -7.917646813843274]

>  <energy>  (11) 
-494.4068454903993

>  <inter_energy>  (11) 
-497.8665417999785

>  <intra_energy>  (11) 
10.071307025679758

>  <rmsd>  (11) 
6.6399

>  <sdf_rank>  (11) 
0

$$$$

     RDKit          3D

 57 60  0  0  0  0  0  0  0  0999 V2000
  -11.1406   36.0371   19.5619 C   0  0  0  0  0  0  0  0  0  0  0  0
  -10.1739   36.5898   18.5710 N   0  0  1  0  0  0  0  0  0  0  0  0
   -8.7964   36.5418   19.1343 C   0  0  0  0  0  0  0  0  0  0  0  0
  -10.2920   35.9826   17.2021 C   0  0  2  0  0  0  0  0  0  0  0  0
   -8.9285   35.9210   16.5046 C   0  0  0  0  0  0  0  0  0  0  0  0
   -9.0310   35.4842   15.0420 C   0  0  0  0  0  0  0  0  0  0  0  0
  -11.4056   36.1741   14.9399 C   0  0  0  0  0  0  0  0  0  0  0  0
  -10.1152   36.0688   14.2267 N   0  0  0  0  0  0  0  0  0  0  0  0
  -11.2041   36.8321   16.3078 C   0  0  0  0  0  0  0  0  0  0  0  0
  -10.1436   35.6235   12.8670 C   0  0  0  0  0  0  0  0  0  0  0  0
   -9.3980   34.4872   12.4674 C   0  0  0  0  0  0  0  0  0  0  0  0
   -9.3656   34.0358   11.1502 C   0  0  0  0  0  0  0  0  0  0  0  0
  -10.1003   34.7147   10.1905 C   0  0  0  0  0  0  0  0  0  0  0  0
  -10.8616   35.8032   10.5629 C   0  0  0  0  0  0  0  0  0  0  0  0
  -10.8844   36.2631   11.8645 C   0  0  0  0  0  0  0  0  0  0  0  0
   -8.5550   32.9302   10.8825 N   0  0  0  0  0  0  0  0  0  0  0  0
   -8.0902   32.6126    9.6586 C   0  0  0  0  0  0  0  0  0  0  0  0
   -8.3364   33.2913    8.6527 O   0  0  0  0  0  0  0  0  0  0  0  0
   -7.2520   31.4273    9.5064 C   0  0  0  0  0  0  0  0  0  0  0  0
   -6.2488   30.9686   10.3032 C   0  0  0  0  0  0  0  0  0  0  0  0
   -5.7657   29.7754    9.7203 C   0  0  0  0  0  0  0  0  0  0  0  0
   -6.5235   29.5505    8.5535 C   0  0  0  0  0  0  0  0  0  0  0  0
   -6.2976   28.4372    7.7452 C   0  0  0  0  0  0  0  0  0  0  0  0
   -7.1516   28.2712    6.5015 C   0  0  0  0  0  0  0  0  0  0  0  0
   -5.3056   27.5595    8.0764 C   0  0  0  0  0  0  0  0  0  0  0  0
   -4.5432   27.7806    9.2404 C   0  0  0  0  0  0  0  0  0  0  0  0
   -4.7566   28.8746   10.0564 C   0  0  0  0  0  0  0  0  0  0  0  0
   -4.0056   29.0822   11.1854 F   0  0  0  0  0  0  0  0  0  0  0  0
   -7.4334   30.5574    8.4549 N   0  0  0  0  0  0  0  0  0  0  0  0
  -10.7798   36.2434   20.5804 H   0  0  0  0  0  0  0  0  0  0  0  0
  -12.1234   36.5098   19.4183 H   0  0  0  0  0  0  0  0  0  0  0  0
  -11.2318   34.9504   19.4183 H   0  0  0  0  0  0  0  0  0  0  0  0
  -10.4163   37.5778   18.4096 H   0  0  0  0  0  0  0  0  0  0  0  0
   -8.8493   36.5436   20.2330 H   0  0  0  0  0  0  0  0  0  0  0  0
   -8.2924   35.6255   18.7930 H   0  0  0  0  0  0  0  0  0  0  0  0
   -8.2298   37.4207   18.7930 H   0  0  0  0  0  0  0  0  0  0  0  0
  -10.7034   34.9720   17.3417 H   0  0  0  0  0  0  0  0  0  0  0  0
   -8.4691   36.9198   16.5420 H   0  0  0  0  0  0  0  0  0  0  0  0
   -8.3196   35.1723   17.0324 H   0  0  0  0  0  0  0  0  0  0  0  0
   -8.0786   35.7403   14.5549 H   0  0  0  0  0  0  0  0  0  0  0  0
   -9.2646   34.4103   15.0876 H   0  0  0  0  0  0  0  0  0  0  0  0
  -12.1014   36.7826   14.3435 H   0  0  0  0  0  0  0  0  0  0  0  0
  -11.8177   35.1647   15.0855 H   0  0  0  0  0  0  0  0  0  0  0  0
  -12.1819   36.9470   16.7984 H   0  0  0  0  0  0  0  0  0  0  0  0
  -10.7289   37.8126   16.1565 H   0  0  0  0  0  0  0  0  0  0  0  0
   -8.8216   33.9397   13.2276 H   0  0  0  0  0  0  0  0  0  0  0  0
  -10.0764   34.3881    9.1404 H   0  0  0  0  0  0  0  0  0  0  0  0
  -11.4668   36.3184    9.8024 H   0  0  0  0  0  0  0  0  0  0  0  0
  -11.4926   37.1439   12.1179 H   0  0  0  0  0  0  0  0  0  0  0  0
   -8.2965   32.3193   11.6704 H   0  0  0  0  0  0  0  0  0  0  0  0
   -5.8825   31.4385   11.2279 H   0  0  0  0  0  0  0  0  0  0  0  0
   -8.1921   28.0691    6.7955 H   0  0  0  0  0  0  0  0  0  0  0  0
   -7.1121   29.1939    5.9038 H   0  0  0  0  0  0  0  0  0  0  0  0
   -6.7695   27.4305    5.9038 H   0  0  0  0  0  0  0  0  0  0  0  0
   -5.1031   26.6861    7.4391 H   0  0  0  0  0  0  0  0  0  0  0  0
   -3.7551   27.0611    9.5071 H   0  0  0  0  0  0  0  0  0  0  0  0
   -8.1426   30.6532    7.7141 H   0  0  0  0  0  0  0  0  0  0  0  0
  2  1  1  0
  2  3  1  0
  2  4  1  0
  4  5  1  0
  4  9  1  0
  5  6  1  0
  6  8  1  0
  7  8  1  0
  7  9  1  0
  8 10  1  0
 10 11  2  0
 10 15  1  0
 11 12  1  0
 12 13  2  0
 12 16  1  0
 13 14  1  0
 14 15  2  0
 16 17  1  0
 17 18  2  0
 17 19  1  0
 19 20  2  0
 19 29  1  0
 20 21  1  0
 21 22  2  0
 21 27  1  0
 22 23  1  0
 22 29  1  0
 23 24  1  0
 23 25  2  0
 25 26  1  0
 26 27  2  0
 27 28  1  0
  1 30  1  0
  1 31  1  0
  1 32  1  0
  2 33  1  6
  3 34  1  0
  3 35  1  0
  3 36  1  0
  4 37  1  1
  5 38  1  0
  5 39  1  0
  6 40  1  0
  6 41  1  0
  7 42  1  0
  7 43  1  0
  9 44  1  0
  9 45  1  0
 11 46  1  0
 13 47  1  0
 14 48  1  0
 15 49  1  0
 16 50  1  0
 20 51  1  0
 24 52  1  0
 24 53  1  0
 24 54  1  0
 25 55  1  0
 26 56  1  0
 29 57  1  0
M  CHG  1   2   1
M  END
>  <filename_input>  (12) 
7LZD_YHY_docked.sdf

>  <pdb_id>  (12) 
7LZD_YHY

>  <pose_rank>  (12) 
11

>  <num_atoms_heavy>  (12) 
29

>  <num_torsions>  (12) 
4

>  <pose>  (12) 
[-10.143566046097897, 35.623548395770705, 12.86701487578609, 1.0102628083033764, 0.31496171319600763, -0.31684524267059955, 0.84191089055409, 0.4161036614604483, 0.9620634837676767, -0.9606594119566416]

>  <energy>  (12) 
-475.49782414151974

>  <inter_energy>  (12) 
-507.8727065723279

>  <intra_energy>  (12) 
22.237099174566698

>  <rmsd>  (12) 
7.85065

>  <sdf_rank>  (12) 
0

$$$$

     RDKit          3D

 57 60  0  0  0  0  0  0  0  0999 V2000
   -7.6964   36.6898   19.0281 C   0  0  0  0  0  0  0  0  0  0  0  0
   -8.7175   37.6324   18.4891 N   0  0  1  0  0  0  0  0  0  0  0  0
   -8.2768   39.0355   18.7226 C   0  0  0  0  0  0  0  0  0  0  0  0
   -9.1170   37.3495   17.0690 C   0  0  2  0  0  0  0  0  0  0  0  0
   -9.3044   35.8462   16.8360 C   0  0  0  0  0  0  0  0  0  0  0  0
   -9.5276   35.4988   15.3629 C   0  0  0  0  0  0  0  0  0  0  0  0
   -8.4615   37.6124   14.6409 C   0  0  0  0  0  0  0  0  0  0  0  0
   -8.6781   36.1768   14.3626 N   0  0  0  0  0  0  0  0  0  0  0  0
   -8.0254   37.8114   16.0952 C   0  0  0  0  0  0  0  0  0  0  0  0
   -8.9345   35.7956   13.0074 C   0  0  0  0  0  0  0  0  0  0  0  0
   -8.2798   34.6747   12.4402 C   0  0  0  0  0  0  0  0  0  0  0  0
   -8.4695   34.2849   11.1166 C   0  0  0  0  0  0  0  0  0  0  0  0
   -9.3420   35.0121   10.3220 C   0  0  0  0  0  0  0  0  0  0  0  0
  -10.0174   36.0865   10.8628 C   0  0  0  0  0  0  0  0  0  0  0  0
   -9.8207   36.4855   12.1698 C   0  0  0  0  0  0  0  0  0  0  0  0
   -7.7286   33.1882   10.6701 N   0  0  0  0  0  0  0  0  0  0  0  0
   -8.2664   32.0005   10.3310 C   0  0  0  0  0  0  0  0  0  0  0  0
   -9.4840   31.7803   10.3759 O   0  0  0  0  0  0  0  0  0  0  0  0
   -7.3847   30.9279    9.8805 C   0  0  0  0  0  0  0  0  0  0  0  0
   -6.4011   30.2746   10.5568 C   0  0  0  0  0  0  0  0  0  0  0  0
   -5.8558   29.3142    9.6753 C   0  0  0  0  0  0  0  0  0  0  0  0
   -6.5570   29.4272    8.4580 C   0  0  0  0  0  0  0  0  0  0  0  0
   -6.2618   28.6043    7.3718 C   0  0  0  0  0  0  0  0  0  0  0  0
   -7.0577   28.7944    6.0935 C   0  0  0  0  0  0  0  0  0  0  0  0
   -5.2565   27.6870    7.4806 C   0  0  0  0  0  0  0  0  0  0  0  0
   -4.5506   27.5712    8.6943 C   0  0  0  0  0  0  0  0  0  0  0  0
   -4.8329   28.3736    9.7828 C   0  0  0  0  0  0  0  0  0  0  0  0
   -4.1364   28.2550   10.9587 F   0  0  0  0  0  0  0  0  0  0  0  0
   -7.4941   30.4014    8.6132 N   0  0  0  0  0  0  0  0  0  0  0  0
   -7.7207   36.7123   20.1276 H   0  0  0  0  0  0  0  0  0  0  0  0
   -7.9166   35.6708   18.6772 H   0  0  0  0  0  0  0  0  0  0  0  0
   -6.6982   36.9906   18.6772 H   0  0  0  0  0  0  0  0  0  0  0  0
   -9.5925   37.4837   19.0117 H   0  0  0  0  0  0  0  0  0  0  0  0
   -8.2171   39.2259   19.8043 H   0  0  0  0  0  0  0  0  0  0  0  0
   -7.2871   39.1895   18.2679 H   0  0  0  0  0  0  0  0  0  0  0  0
   -9.0009   39.7277   18.2679 H   0  0  0  0  0  0  0  0  0  0  0  0
  -10.0587   37.8905   16.8944 H   0  0  0  0  0  0  0  0  0  0  0  0
   -8.4047   35.3208   17.1887 H   0  0  0  0  0  0  0  0  0  0  0  0
  -10.2021   35.5342   17.3899 H   0  0  0  0  0  0  0  0  0  0  0  0
   -9.3658   34.4164   15.2522 H   0  0  0  0  0  0  0  0  0  0  0  0
  -10.5475   35.8487   15.1455 H   0  0  0  0  0  0  0  0  0  0  0  0
   -7.6785   37.9978   13.9713 H   0  0  0  0  0  0  0  0  0  0  0  0
   -9.4028   38.1558   14.4719 H   0  0  0  0  0  0  0  0  0  0  0  0
   -7.8205   38.8786   16.2656 H   0  0  0  0  0  0  0  0  0  0  0  0
   -7.1218   37.2101   16.2736 H   0  0  0  0  0  0  0  0  0  0  0  0
   -7.5942   34.0889   13.0702 H   0  0  0  0  0  0  0  0  0  0  0  0
   -9.4947   34.7346    9.2686 H   0  0  0  0  0  0  0  0  0  0  0  0
  -10.7318   36.6403   10.2358 H   0  0  0  0  0  0  0  0  0  0  0  0
  -10.3673   37.3572   12.5589 H   0  0  0  0  0  0  0  0  0  0  0  0
   -6.7068   33.2942   10.5955 H   0  0  0  0  0  0  0  0  0  0  0  0
   -6.0889   30.4595   11.5953 H   0  0  0  0  0  0  0  0  0  0  0  0
   -8.0995   29.0433    6.3438 H   0  0  0  0  0  0  0  0  0  0  0  0
   -6.6165   29.6125    5.5052 H   0  0  0  0  0  0  0  0  0  0  0  0
   -7.0338   27.8653    5.5052 H   0  0  0  0  0  0  0  0  0  0  0  0
   -4.9996   27.0429    6.6267 H   0  0  0  0  0  0  0  0  0  0  0  0
   -3.7513   26.8201    8.7776 H   0  0  0  0  0  0  0  0  0  0  0  0
   -8.1747   30.6969    7.8988 H   0  0  0  0  0  0  0  0  0  0  0  0
  2  1  1  0
  2  3  1  0
  2  4  1  0
  4  5  1  0
  4  9  1  0
  5  6  1  0
  6  8  1  0
  7  8  1  0
  7  9  1  0
  8 10  1  0
 10 11  2  0
 10 15  1  0
 11 12  1  0
 12 13  2  0
 12 16  1  0
 13 14  1  0
 14 15  2  0
 16 17  1  0
 17 18  2  0
 17 19  1  0
 19 20  2  0
 19 29  1  0
 20 21  1  0
 21 22  2  0
 21 27  1  0
 22 23  1  0
 22 29  1  0
 23 24  1  0
 23 25  2  0
 25 26  1  0
 26 27  2  0
 27 28  1  0
  1 30  1  0
  1 31  1  0
  1 32  1  0
  2 33  1  1
  3 34  1  0
  3 35  1  0
  3 36  1  0
  4 37  1  6
  5 38  1  0
  5 39  1  0
  6 40  1  0
  6 41  1  0
  7 42  1  0
  7 43  1  0
  9 44  1  0
  9 45  1  0
 11 46  1  0
 13 47  1  0
 14 48  1  0
 15 49  1  0
 16 50  1  0
 20 51  1  0
 24 52  1  0
 24 53  1  0
 24 54  1  0
 25 55  1  0
 26 56  1  0
 29 57  1  0
M  CHG  1   2   1
M  END
>  <filename_input>  (13) 
7LZD_YHY_docked.sdf

>  <pdb_id>  (13) 
7LZD_YHY

>  <pose_rank>  (13) 
12

>  <num_atoms_heavy>  (13) 
29

>  <num_torsions>  (13) 
4

>  <pose>  (13) 
[-8.93453346986212, 35.795554434796166, 13.007447637756115, 1.0332931386323139, 0.46807903848336124, -0.40420042502805187, -0.9336850712173589, -2.5510676334017557, -0.5730221581261196, 0.8754309811603204]

>  <energy>  (13) 
-432.8595683600697

>  <inter_energy>  (13) 
-430.93898586023573

>  <intra_energy>  (13) 
3.989658969102859

>  <rmsd>  (13) 
7.8742

>  <sdf_rank>  (13) 
0

$$$$

     RDKit          3D

 57 60  0  0  0  0  0  0  0  0999 V2000
   -0.4603   25.4561   14.3769 C   0  0  0  0  0  0  0  0  0  0  0  0
   -0.7141   25.1350   12.9437 N   0  0  1  0  0  0  0  0  0  0  0  0
   -1.5347   23.8963   12.8455 C   0  0  0  0  0  0  0  0  0  0  0  0
   -1.2572   26.2881   12.1489 C   0  0  2  0  0  0  0  0  0  0  0  0
   -1.0194   27.6188   12.8714 C   0  0  0  0  0  0  0  0  0  0  0  0
   -1.7196   28.7959   12.1898 C   0  0  0  0  0  0  0  0  0  0  0  0
   -3.3244   27.2749   11.0779 C   0  0  0  0  0  0  0  0  0  0  0  0
   -3.1038   28.5893   11.7171 N   0  0  0  0  0  0  0  0  0  0  0  0
   -2.7742   26.1542   11.9645 C   0  0  0  0  0  0  0  0  0  0  0  0
   -3.6991   29.7350   11.1000 C   0  0  0  0  0  0  0  0  0  0  0  0
   -2.9201   30.8830   10.8136 C   0  0  0  0  0  0  0  0  0  0  0  0
   -3.4605   32.0345   10.2462 C   0  0  0  0  0  0  0  0  0  0  0  0
   -4.8114   32.0587    9.9362 C   0  0  0  0  0  0  0  0  0  0  0  0
   -5.5826   30.9399   10.1739 C   0  0  0  0  0  0  0  0  0  0  0  0
   -5.0541   29.8021   10.7503 C   0  0  0  0  0  0  0  0  0  0  0  0
   -2.5914   33.1114   10.0568 N   0  0  0  0  0  0  0  0  0  0  0  0
   -2.6103   33.9170    8.9772 C   0  0  0  0  0  0  0  0  0  0  0  0
   -3.4205   33.7760    8.0516 O   0  0  0  0  0  0  0  0  0  0  0  0
   -1.6464   35.0099    8.8936 C   0  0  0  0  0  0  0  0  0  0  0  0
   -1.0139   35.5246    7.8041 C   0  0  0  0  0  0  0  0  0  0  0  0
   -0.1917   36.5800    8.2591 C   0  0  0  0  0  0  0  0  0  0  0  0
   -0.3666   36.6663    9.6549 C   0  0  0  0  0  0  0  0  0  0  0  0
    0.3068   37.6236   10.4125 C   0  0  0  0  0  0  0  0  0  0  0  0
    0.0697   37.6457   11.9114 C   0  0  0  0  0  0  0  0  0  0  0  0
    1.1725   38.4792    9.7940 C   0  0  0  0  0  0  0  0  0  0  0  0
    1.3531   38.3960    8.3992 C   0  0  0  0  0  0  0  0  0  0  0  0
    0.6902   37.4581    7.6316 C   0  0  0  0  0  0  0  0  0  0  0  0
    0.8766   37.3834    6.2746 F   0  0  0  0  0  0  0  0  0  0  0  0
   -1.2699   35.7145   10.0147 N   0  0  0  0  0  0  0  0  0  0  0  0
   -1.0162   24.7527   15.0143 H   0  0  0  0  0  0  0  0  0  0  0  0
    0.6160   25.3693   14.5871 H   0  0  0  0  0  0  0  0  0  0  0  0
   -0.7932   26.4832   14.5871 H   0  0  0  0  0  0  0  0  0  0  0  0
    0.1944   24.9498   12.4952 H   0  0  0  0  0  0  0  0  0  0  0  0
   -1.7746   23.5343   13.8561 H   0  0  0  0  0  0  0  0  0  0  0  0
   -2.4667   24.1159   12.3038 H   0  0  0  0  0  0  0  0  0  0  0  0
   -0.9692   23.1238   12.3038 H   0  0  0  0  0  0  0  0  0  0  0  0
   -0.7372   26.2735   11.1797 H   0  0  0  0  0  0  0  0  0  0  0  0
   -1.3979   27.5326   13.9007 H   0  0  0  0  0  0  0  0  0  0  0  0
    0.0621   27.8190   12.8503 H   0  0  0  0  0  0  0  0  0  0  0  0
   -1.7384   29.6283   12.9086 H   0  0  0  0  0  0  0  0  0  0  0  0
   -1.1363   28.9750   11.2745 H   0  0  0  0  0  0  0  0  0  0  0  0
   -4.4031   27.1214   10.9265 H   0  0  0  0  0  0  0  0  0  0  0  0
   -2.8017   27.2551   10.1102 H   0  0  0  0  0  0  0  0  0  0  0  0
   -2.9945   25.1842   11.4950 H   0  0  0  0  0  0  0  0  0  0  0  0
   -3.2530   26.2243   12.9523 H   0  0  0  0  0  0  0  0  0  0  0  0
   -1.8457   30.8643   11.0487 H   0  0  0  0  0  0  0  0  0  0  0  0
   -5.2648   32.9630    9.5041 H   0  0  0  0  0  0  0  0  0  0  0  0
   -6.6470   30.9548    9.8969 H   0  0  0  0  0  0  0  0  0  0  0  0
   -5.7061   28.9361   10.9376 H   0  0  0  0  0  0  0  0  0  0  0  0
   -1.8919   33.3016   10.7886 H   0  0  0  0  0  0  0  0  0  0  0  0
   -1.1224   35.1831    6.7641 H   0  0  0  0  0  0  0  0  0  0  0  0
    1.0323   37.5560   12.4363 H   0  0  0  0  0  0  0  0  0  0  0  0
   -0.4141   38.5928   12.1922 H   0  0  0  0  0  0  0  0  0  0  0  0
   -0.5808   36.8043   12.1922 H   0  0  0  0  0  0  0  0  0  0  0  0
    1.7249   39.2282   10.3804 H   0  0  0  0  0  0  0  0  0  0  0  0
    2.0421   39.0982    7.9071 H   0  0  0  0  0  0  0  0  0  0  0  0
   -1.6158   35.5482   10.9706 H   0  0  0  0  0  0  0  0  0  0  0  0
  2  1  1  0
  2  3  1  0
  2  4  1  0
  4  5  1  0
  4  9  1  0
  5  6  1  0
  6  8  1  0
  7  8  1  0
  7  9  1  0
  8 10  1  0
 10 11  2  0
 10 15  1  0
 11 12  1  0
 12 13  2  0
 12 16  1  0
 13 14  1  0
 14 15  2  0
 16 17  1  0
 17 18  2  0
 17 19  1  0
 19 20  2  0
 19 29  1  0
 20 21  1  0
 21 22  2  0
 21 27  1  0
 22 23  1  0
 22 29  1  0
 23 24  1  0
 23 25  2  0
 25 26  1  0
 26 27  2  0
 27 28  1  0
  1 30  1  0
  1 31  1  0
  1 32  1  0
  2 33  1  6
  3 34  1  0
  3 35  1  0
  3 36  1  0
  4 37  1  6
  5 38  1  0
  5 39  1  0
  6 40  1  0
  6 41  1  0
  7 42  1  0
  7 43  1  0
  9 44  1  0
  9 45  1  0
 11 46  1  0
 13 47  1  0
 14 48  1  0
 15 49  1  0
 16 50  1  0
 20 51  1  0
 24 52  1  0
 24 53  1  0
 24 54  1  0
 25 55  1  0
 26 56  1  0
 29 57  1  0
M  CHG  1   2   1
M  END
>  <filename_input>  (14) 
7LZD_YHY_docked.sdf

>  <pdb_id>  (14) 
7LZD_YHY

>  <pose_rank>  (14) 
13

>  <num_atoms_heavy>  (14) 
29

>  <num_torsions>  (14) 
4

>  <pose>  (14) 
[-3.699108145817294, 29.734951746097046, 11.099979987155383, 1.9413206158688918, 1.1099601537197596, 1.3440401969766436, 7.023764699589106, 3.295375175873333, 6.19896126514605, 2.2936007609510862]

>  <energy>  (14) 
-361.5714230102015

>  <inter_energy>  (14) 
-378.14467664245257

>  <intra_energy>  (14) 
14.518649946844413

>  <rmsd>  (14) 
10.3011

>  <sdf_rank>  (14) 
0

$$$$

     RDKit          3D

 57 60  0  0  0  0  0  0  0  0999 V2000
  -15.1267   37.8741    5.5008 C   0  0  0  0  0  0  0  0  0  0  0  0
  -14.2750   38.2573    6.6624 N   0  0  1  0  0  0  0  0  0  0  0  0
  -15.0229   39.1958    7.5440 C   0  0  0  0  0  0  0  0  0  0  0  0
  -13.6761   37.0875    7.3898 C   0  0  2  0  0  0  0  0  0  0  0  0
  -14.7542   36.2798    8.1211 C   0  0  0  0  0  0  0  0  0  0  0  0
  -14.1687   35.1928    9.0245 C   0  0  0  0  0  0  0  0  0  0  0  0
  -11.9984   36.3765    9.1431 C   0  0  0  0  0  0  0  0  0  0  0  0
  -12.9962   35.5466    9.8506 N   0  0  0  0  0  0  0  0  0  0  0  0
  -12.6836   37.5626    8.4586 C   0  0  0  0  0  0  0  0  0  0  0  0
  -12.5092   34.4855   10.6780 C   0  0  0  0  0  0  0  0  0  0  0  0
  -11.1535   34.0813   10.6042 C   0  0  0  0  0  0  0  0  0  0  0  0
  -10.6407   33.0318   11.3628 C   0  0  0  0  0  0  0  0  0  0  0  0
  -11.4834   32.3609   12.2353 C   0  0  0  0  0  0  0  0  0  0  0  0
  -12.7990   32.7596   12.3496 C   0  0  0  0  0  0  0  0  0  0  0  0
  -13.3151   33.7893   11.5883 C   0  0  0  0  0  0  0  0  0  0  0  0
   -9.2973   32.7063   11.1617 N   0  0  0  0  0  0  0  0  0  0  0  0
   -8.8230   32.1061   10.0527 C   0  0  0  0  0  0  0  0  0  0  0  0
   -9.5475   31.7976    9.0973 O   0  0  0  0  0  0  0  0  0  0  0  0
   -7.3956   31.8146    9.9622 C   0  0  0  0  0  0  0  0  0  0  0  0
   -6.3297   32.6293   10.1897 C   0  0  0  0  0  0  0  0  0  0  0  0
   -5.1637   31.8598    9.9775 C   0  0  0  0  0  0  0  0  0  0  0  0
   -5.5850   30.5636    9.6188 C   0  0  0  0  0  0  0  0  0  0  0  0
   -4.6657   29.5511    9.3478 C   0  0  0  0  0  0  0  0  0  0  0  0
   -5.2004   28.1843    8.9609 C   0  0  0  0  0  0  0  0  0  0  0  0
   -3.3297   29.8264    9.4065 C   0  0  0  0  0  0  0  0  0  0  0  0
   -2.9027   31.1211    9.7621 C   0  0  0  0  0  0  0  0  0  0  0  0
   -3.7988   32.1351   10.0398 C   0  0  0  0  0  0  0  0  0  0  0  0
   -3.3719   33.3933   10.3812 F   0  0  0  0  0  0  0  0  0  0  0  0
   -6.9456   30.5553    9.6351 N   0  0  0  0  0  0  0  0  0  0  0  0
  -16.0733   37.4481    5.8648 H   0  0  0  0  0  0  0  0  0  0  0  0
  -15.3363   38.7647    4.8901 H   0  0  0  0  0  0  0  0  0  0  0  0
  -14.5992   37.1266    4.8901 H   0  0  0  0  0  0  0  0  0  0  0  0
  -13.4490   38.7538    6.2990 H   0  0  0  0  0  0  0  0  0  0  0  0
  -14.8244   38.9467    8.5969 H   0  0  0  0  0  0  0  0  0  0  0  0
  -14.6960   40.2268    7.3432 H   0  0  0  0  0  0  0  0  0  0  0  0
  -16.1008   39.1073    7.3432 H   0  0  0  0  0  0  0  0  0  0  0  0
  -13.1751   36.4691    6.6304 H   0  0  0  0  0  0  0  0  0  0  0  0
  -15.3500   36.9675    8.7392 H   0  0  0  0  0  0  0  0  0  0  0  0
  -15.3694   35.7807    7.3579 H   0  0  0  0  0  0  0  0  0  0  0  0
  -14.9669   34.8684    9.7084 H   0  0  0  0  0  0  0  0  0  0  0  0
  -13.7989   34.4233    8.3310 H   0  0  0  0  0  0  0  0  0  0  0  0
  -11.2600   36.7522    9.8668 H   0  0  0  0  0  0  0  0  0  0  0  0
  -11.4986   35.7624    8.3795 H   0  0  0  0  0  0  0  0  0  0  0  0
  -11.9184   38.1934    7.9828 H   0  0  0  0  0  0  0  0  0  0  0  0
  -13.2370   38.1322    9.2197 H   0  0  0  0  0  0  0  0  0  0  0  0
  -10.4789   34.6176    9.9206 H   0  0  0  0  0  0  0  0  0  0  0  0
  -11.1060   31.5172   12.8318 H   0  0  0  0  0  0  0  0  0  0  0  0
  -13.4545   32.2434   13.0665 H   0  0  0  0  0  0  0  0  0  0  0  0
  -14.3738   34.0670   11.6980 H   0  0  0  0  0  0  0  0  0  0  0  0
   -8.6271   32.9398   11.9082 H   0  0  0  0  0  0  0  0  0  0  0  0
   -6.3685   33.6886   10.4838 H   0  0  0  0  0  0  0  0  0  0  0  0
   -5.4259   27.6080    9.8703 H   0  0  0  0  0  0  0  0  0  0  0  0
   -6.1179   28.3045    8.3660 H   0  0  0  0  0  0  0  0  0  0  0  0
   -4.4451   27.6500    8.3660 H   0  0  0  0  0  0  0  0  0  0  0  0
   -2.5921   29.0431    9.1778 H   0  0  0  0  0  0  0  0  0  0  0  0
   -1.8244   31.3305    9.8204 H   0  0  0  0  0  0  0  0  0  0  0  0
   -7.5418   29.7396    9.4352 H   0  0  0  0  0  0  0  0  0  0  0  0
  2  1  1  0
  2  3  1  0
  2  4  1  0
  4  5  1  0
  4  9  1  0
  5  6  1  0
  6  8  1  0
  7  8  1  0
  7  9  1  0
  8 10  1  0
 10 11  2  0
 10 15  1  0
 11 12  1  0
 12 13  2  0
 12 16  1  0
 13 14  1  0
 14 15  2  0
 16 17  1  0
 17 18  2  0
 17 19  1  0
 19 20  2  0
 19 29  1  0
 20 21  1  0
 21 22  2  0
 21 27  1  0
 22 23  1  0
 22 29  1  0
 23 24  1  0
 23 25  2  0
 25 26  1  0
 26 27  2  0
 27 28  1  0
  1 30  1  0
  1 31  1  0
  1 32  1  0
  2 33  1  6
  3 34  1  0
  3 35  1  0
  3 36  1  0
  4 37  1  6
  5 38  1  0
  5 39  1  0
  6 40  1  0
  6 41  1  0
  7 42  1  0
  7 43  1  0
  9 44  1  0
  9 45  1  0
 11 46  1  0
 13 47  1  0
 14 48  1  0
 15 49  1  0
 16 50  1  0
 20 51  1  0
 24 52  1  0
 24 53  1  0
 24 54  1  0
 25 55  1  0
 26 56  1  0
 29 57  1  0
M  CHG  1   2   1
M  END
>  <filename_input>  (15) 
7LZD_YHY_docked.sdf

>  <pdb_id>  (15) 
7LZD_YHY

>  <pose_rank>  (15) 
14

>  <num_atoms_heavy>  (15) 
29

>  <num_torsions>  (15) 
4

>  <pose>  (15) 
[-12.509202098313995, 34.485475875715814, 10.677968746430206, 3.331492865312829, -3.0545277324305746, 0.8380170687536894, 2.7738479197016286, 1.7921276076326524, 2.4946987340115903, -1.1048856897906336]

>  <energy>  (15) 
-374.9975998956398

>  <inter_energy>  (15) 
-373.9251355013107

>  <intra_energy>  (15) 
5.482282712621614

>  <rmsd>  (15) 
7.24838

>  <sdf_rank>  (15) 
0

$$$$

     RDKit          3D

 57 60  0  0  0  0  0  0  0  0999 V2000
   -0.8343   28.3639   14.1128 C   0  0  0  0  0  0  0  0  0  0  0  0
   -0.7965   27.4050   12.9723 N   0  0  1  0  0  0  0  0  0  0  0  0
   -0.9289   26.0127   13.4836 C   0  0  0  0  0  0  0  0  0  0  0  0
   -1.7547   27.7391   11.8647 C   0  0  2  0  0  0  0  0  0  0  0  0
   -1.8620   29.2549   11.6644 C   0  0  0  0  0  0  0  0  0  0  0  0
   -2.9634   29.6450   10.6768 C   0  0  0  0  0  0  0  0  0  0  0  0
   -4.1313   27.4929   11.0370 C   0  0  0  0  0  0  0  0  0  0  0  0
   -4.2591   28.9436   10.7833 N   0  0  0  0  0  0  0  0  0  0  0  0
   -3.1663   27.2399   12.1986 C   0  0  0  0  0  0  0  0  0  0  0  0
   -5.2445   29.3668    9.8360 C   0  0  0  0  0  0  0  0  0  0  0  0
   -6.1694   30.3870   10.1685 C   0  0  0  0  0  0  0  0  0  0  0  0
   -7.1682   30.8089    9.2943 C   0  0  0  0  0  0  0  0  0  0  0  0
   -7.2574   30.2186    8.0432 C   0  0  0  0  0  0  0  0  0  0  0  0
   -6.3459   29.2474    7.6843 C   0  0  0  0  0  0  0  0  0  0  0  0
   -5.3639   28.8156    8.5535 C   0  0  0  0  0  0  0  0  0  0  0  0
   -8.0423   31.7922    9.7633 N   0  0  0  0  0  0  0  0  0  0  0  0
   -7.6593   33.0294   10.1343 C   0  0  0  0  0  0  0  0  0  0  0  0
   -6.4823   33.4098   10.0790 O   0  0  0  0  0  0  0  0  0  0  0  0
   -8.6693   33.9690   10.6114 C   0  0  0  0  0  0  0  0  0  0  0  0
   -8.7037   34.6910   11.7643 C   0  0  0  0  0  0  0  0  0  0  0  0
   -9.8903   35.4579   11.7409 C   0  0  0  0  0  0  0  0  0  0  0  0
  -10.5495   35.1603   10.5313 C   0  0  0  0  0  0  0  0  0  0  0  0
  -11.7600   35.7659   10.1968 C   0  0  0  0  0  0  0  0  0  0  0  0
  -12.4099   35.3855    8.8790 C   0  0  0  0  0  0  0  0  0  0  0  0
  -12.3317   36.6466   11.0694 C   0  0  0  0  0  0  0  0  0  0  0  0
  -11.6785   36.9461   12.2812 C   0  0  0  0  0  0  0  0  0  0  0  0
  -10.4760   36.3605   12.6268 C   0  0  0  0  0  0  0  0  0  0  0  0
   -9.8505   36.6565   13.8114 F   0  0  0  0  0  0  0  0  0  0  0  0
   -9.7786   34.2675    9.8529 N   0  0  0  0  0  0  0  0  0  0  0  0
   -0.8124   27.8068   15.0611 H   0  0  0  0  0  0  0  0  0  0  0  0
    0.0382   29.0316   14.0596 H   0  0  0  0  0  0  0  0  0  0  0  0
   -1.7567   28.9609   14.0596 H   0  0  0  0  0  0  0  0  0  0  0  0
    0.1240   27.4898   12.5179 H   0  0  0  0  0  0  0  0  0  0  0  0
   -0.9277   26.0244   14.5835 H   0  0  0  0  0  0  0  0  0  0  0  0
   -1.8724   25.5776   13.1225 H   0  0  0  0  0  0  0  0  0  0  0  0
   -0.0842   25.4077   13.1225 H   0  0  0  0  0  0  0  0  0  0  0  0
   -1.3667   27.2534   10.9572 H   0  0  0  0  0  0  0  0  0  0  0  0
   -2.0785   29.7235   12.6357 H   0  0  0  0  0  0  0  0  0  0  0  0
   -0.9051   29.6029   11.2482 H   0  0  0  0  0  0  0  0  0  0  0  0
   -3.1591   30.7192   10.8101 H   0  0  0  0  0  0  0  0  0  0  0  0
   -2.5697   29.3551    9.6915 H   0  0  0  0  0  0  0  0  0  0  0  0
   -5.1193   27.0802   11.2894 H   0  0  0  0  0  0  0  0  0  0  0  0
   -3.7390   27.0046   10.1328 H   0  0  0  0  0  0  0  0  0  0  0  0
   -3.1261   26.1598   12.4031 H   0  0  0  0  0  0  0  0  0  0  0  0
   -3.5305   27.7879   13.0801 H   0  0  0  0  0  0  0  0  0  0  0  0
   -6.0957   30.8651   11.1565 H   0  0  0  0  0  0  0  0  0  0  0  0
   -8.0489   30.5223    7.3422 H   0  0  0  0  0  0  0  0  0  0  0  0
   -6.4029   28.8052    6.6787 H   0  0  0  0  0  0  0  0  0  0  0  0
   -4.6655   28.0278    8.2346 H   0  0  0  0  0  0  0  0  0  0  0  0
   -9.0428   31.5566    9.8298 H   0  0  0  0  0  0  0  0  0  0  0  0
   -7.9491   34.6799   12.5646 H   0  0  0  0  0  0  0  0  0  0  0  0
  -13.3440   34.8387    9.0752 H   0  0  0  0  0  0  0  0  0  0  0  0
  -12.6320   36.2961    8.3033 H   0  0  0  0  0  0  0  0  0  0  0  0
  -11.7246   34.7459    8.3033 H   0  0  0  0  0  0  0  0  0  0  0  0
  -13.2954   37.1189   10.8281 H   0  0  0  0  0  0  0  0  0  0  0  0
  -12.1394   37.6671   12.9723 H   0  0  0  0  0  0  0  0  0  0  0  0
   -9.9907   33.8783    8.9231 H   0  0  0  0  0  0  0  0  0  0  0  0
  2  1  1  0
  2  3  1  0
  2  4  1  0
  4  5  1  0
  4  9  1  0
  5  6  1  0
  6  8  1  0
  7  8  1  0
  7  9  1  0
  8 10  1  0
 10 11  2  0
 10 15  1  0
 11 12  1  0
 12 13  2  0
 12 16  1  0
 13 14  1  0
 14 15  2  0
 16 17  1  0
 17 18  2  0
 17 19  1  0
 19 20  2  0
 19 29  1  0
 20 21  1  0
 21 22  2  0
 21 27  1  0
 22 23  1  0
 22 29  1  0
 23 24  1  0
 23 25  2  0
 25 26  1  0
 26 27  2  0
 27 28  1  0
  1 30  1  0
  1 31  1  0
  1 32  1  0
  2 33  1  6
  3 34  1  0
  3 35  1  0
  3 36  1  0
  4 37  1  6
  5 38  1  0
  5 39  1  0
  6 40  1  0
  6 41  1  0
  7 42  1  0
  7 43  1  0
  9 44  1  0
  9 45  1  0
 11 46  1  0
 13 47  1  0
 14 48  1  0
 15 49  1  0
 16 50  1  0
 20 51  1  0
 24 52  1  0
 24 53  1  0
 24 54  1  0
 25 55  1  0
 26 56  1  0
 29 57  1  0
M  CHG  1   2   1
M  END
>  <filename_input>  (16) 
7LZD_YHY_docked.sdf

>  <pdb_id>  (16) 
7LZD_YHY

>  <pose_rank>  (16) 
15

>  <num_atoms_heavy>  (16) 
29

>  <num_torsions>  (16) 
4

>  <pose>  (16) 
[-5.24453917102433, 29.36675546055736, 9.835993883184548, 0.5291379033335298, 1.5906122708122745, 2.8828140704111593, 5.2552951255500115, 3.6283151829170626, 11.097802579856088, 1.9773373936803904]

>  <energy>  (16) 
-594.3775932437725

>  <inter_energy>  (16) 
-597.3068504944191

>  <intra_energy>  (16) 
9.400586902219246

>  <rmsd>  (16) 
10.4652

>  <sdf_rank>  (16) 
0

$$$$

     RDKit          3D

 57 60  0  0  0  0  0  0  0  0999 V2000
   -0.9928   28.0799   13.7343 C   0  0  0  0  0  0  0  0  0  0  0  0
   -1.3039   27.2753   12.5187 N   0  0  1  0  0  0  0  0  0  0  0  0
   -1.7949   25.9284   12.9215 C   0  0  0  0  0  0  0  0  0  0  0  0
   -2.1961   27.9783   11.5359 C   0  0  2  0  0  0  0  0  0  0  0  0
   -1.8744   29.4755   11.4691 C   0  0  0  0  0  0  0  0  0  0  0  0
   -2.8793   30.2597   10.6232 C   0  0  0  0  0  0  0  0  0  0  0  0
   -4.5921   28.4974   10.9162 C   0  0  0  0  0  0  0  0  0  0  0  0
   -4.3122   29.9437   10.7932 N   0  0  0  0  0  0  0  0  0  0  0  0
   -3.6663   27.8642   11.9586 C   0  0  0  0  0  0  0  0  0  0  0  0
   -5.1942   30.7227    9.9790 C   0  0  0  0  0  0  0  0  0  0  0  0
   -4.7063   31.8388    9.2556 C   0  0  0  0  0  0  0  0  0  0  0  0
   -5.5310   32.6480    8.4779 C   0  0  0  0  0  0  0  0  0  0  0  0
   -6.8815   32.3465    8.3954 C   0  0  0  0  0  0  0  0  0  0  0  0
   -7.3728   31.2440    9.0633 C   0  0  0  0  0  0  0  0  0  0  0  0
   -6.5617   30.4482    9.8475 C   0  0  0  0  0  0  0  0  0  0  0  0
   -4.9307   33.7429    7.8519 N   0  0  0  0  0  0  0  0  0  0  0  0
   -5.6019   34.6656    7.1357 C   0  0  0  0  0  0  0  0  0  0  0  0
   -6.8295   34.6273    6.9788 O   0  0  0  0  0  0  0  0  0  0  0  0
   -4.8597   35.7648    6.5261 C   0  0  0  0  0  0  0  0  0  0  0  0
   -5.3039   36.7671    5.7200 C   0  0  0  0  0  0  0  0  0  0  0  0
   -4.1896   37.5795    5.4120 C   0  0  0  0  0  0  0  0  0  0  0  0
   -3.0761   37.0178    6.0684 C   0  0  0  0  0  0  0  0  0  0  0  0
   -1.8103   37.5943    5.9719 C   0  0  0  0  0  0  0  0  0  0  0  0
   -0.6614   36.9237    6.7026 C   0  0  0  0  0  0  0  0  0  0  0  0
   -1.6401   38.7116    5.2060 C   0  0  0  0  0  0  0  0  0  0  0  0
   -2.7492   39.2761    4.5455 C   0  0  0  0  0  0  0  0  0  0  0  0
   -4.0116   38.7224    4.6343 C   0  0  0  0  0  0  0  0  0  0  0  0
   -5.0839   39.2782    3.9837 F   0  0  0  0  0  0  0  0  0  0  0  0
   -3.5118   35.9267    6.7547 N   0  0  0  0  0  0  0  0  0  0  0  0
   -1.2213   27.4890   14.6335 H   0  0  0  0  0  0  0  0  0  0  0  0
    0.0740   28.3484   13.7332 H   0  0  0  0  0  0  0  0  0  0  0  0
   -1.6015   28.9962   13.7332 H   0  0  0  0  0  0  0  0  0  0  0  0
   -0.4288   27.1489   11.9904 H   0  0  0  0  0  0  0  0  0  0  0  0
   -1.8197   25.8603   14.0191 H   0  0  0  0  0  0  0  0  0  0  0  0
   -2.8077   25.7727   12.5215 H   0  0  0  0  0  0  0  0  0  0  0  0
   -1.1200   25.1574   12.5215 H   0  0  0  0  0  0  0  0  0  0  0  0
   -2.0259   27.5001   10.5600 H   0  0  0  0  0  0  0  0  0  0  0  0
   -1.8815   29.8826   12.4909 H   0  0  0  0  0  0  0  0  0  0  0  0
   -0.8875   29.5817   10.9948 H   0  0  0  0  0  0  0  0  0  0  0  0
   -2.7474   31.3258   10.8601 H   0  0  0  0  0  0  0  0  0  0  0  0
   -2.6523   29.9748    9.5853 H   0  0  0  0  0  0  0  0  0  0  0  0
   -5.6381   28.3552   11.2256 H   0  0  0  0  0  0  0  0  0  0  0  0
   -4.4183   28.0151    9.9430 H   0  0  0  0  0  0  0  0  0  0  0  0
   -3.9261   26.8012   12.0709 H   0  0  0  0  0  0  0  0  0  0  0  0
   -3.7975   28.3979   12.9115 H   0  0  0  0  0  0  0  0  0  0  0  0
   -3.6335   32.0756    9.3103 H   0  0  0  0  0  0  0  0  0  0  0  0
   -7.5560   32.9813    7.8020 H   0  0  0  0  0  0  0  0  0  0  0  0
   -8.4394   30.9922    8.9685 H   0  0  0  0  0  0  0  0  0  0  0  0
   -6.9953   29.5866   10.3764 H   0  0  0  0  0  0  0  0  0  0  0  0
   -3.9105   33.8517    7.9435 H   0  0  0  0  0  0  0  0  0  0  0  0
   -6.3370   36.9168    5.3732 H   0  0  0  0  0  0  0  0  0  0  0  0
   -0.8151   37.0134    7.7882 H   0  0  0  0  0  0  0  0  0  0  0  0
   -0.6210   35.8602    6.4247 H   0  0  0  0  0  0  0  0  0  0  0  0
    0.2845   37.4115    6.4247 H   0  0  0  0  0  0  0  0  0  0  0  0
   -0.6442   39.1678    5.1052 H   0  0  0  0  0  0  0  0  0  0  0  0
   -2.6057   40.1843    3.9416 H   0  0  0  0  0  0  0  0  0  0  0  0
   -2.9282   35.3206    7.3488 H   0  0  0  0  0  0  0  0  0  0  0  0
  2  1  1  0
  2  3  1  0
  2  4  1  0
  4  5  1  0
  4  9  1  0
  5  6  1  0
  6  8  1  0
  7  8  1  0
  7  9  1  0
  8 10  1  0
 10 11  2  0
 10 15  1  0
 11 12  1  0
 12 13  2  0
 12 16  1  0
 13 14  1  0
 14 15  2  0
 16 17  1  0
 17 18  2  0
 17 19  1  0
 19 20  2  0
 19 29  1  0
 20 21  1  0
 21 22  2  0
 21 27  1  0
 22 23  1  0
 22 29  1  0
 23 24  1  0
 23 25  2  0
 25 26  1  0
 26 27  2  0
 27 28  1  0
  1 30  1  0
  1 31  1  0
  1 32  1  0
  2 33  1  6
  3 34  1  0
  3 35  1  0
  3 36  1  0
  4 37  1  6
  5 38  1  0
  5 39  1  0
  6 40  1  0
  6 41  1  0
  7 42  1  0
  7 43  1  0
  9 44  1  0
  9 45  1  0
 11 46  1  0
 13 47  1  0
 14 48  1  0
 15 49  1  0
 16 50  1  0
 20 51  1  0
 24 52  1  0
 24 53  1  0
 24 54  1  0
 25 55  1  0
 26 56  1  0
 29 57  1  0
M  CHG  1   2   1
M  END
>  <filename_input>  (17) 
7LZD_YHY_docked.sdf

>  <pdb_id>  (17) 
7LZD_YHY

>  <pose_rank>  (17) 
16

>  <num_atoms_heavy>  (17) 
29

>  <num_torsions>  (17) 
4

>  <pose>  (17) 
[-5.194191091596219, 30.722743947600772, 9.979040652498337, 1.7545461464897916, 1.5060427444163422, 1.0730001525939976, 6.701924568589606, 3.6330927255070358, 6.9561607620864345, 2.8465108806520023]

>  <energy>  (17) 
-377.8670658874655

>  <inter_energy>  (17) 
-396.79467333571483

>  <intra_energy>  (17) 
25.09515717853404

>  <rmsd>  (17) 
10.7293

>  <sdf_rank>  (17) 
0

$$$$

     RDKit          3D

 57 60  0  0  0  0  0  0  0  0999 V2000
   -0.1282   25.0040   14.9971 C   0  0  0  0  0  0  0  0  0  0  0  0
   -0.2336   24.6768   13.5467 N   0  0  1  0  0  0  0  0  0  0  0  0
   -0.9646   23.3910   13.3749 C   0  0  0  0  0  0  0  0  0  0  0  0
   -0.7737   25.7995   12.7076 C   0  0  2  0  0  0  0  0  0  0  0  0
   -0.7766   27.1200   13.4857 C   0  0  0  0  0  0  0  0  0  0  0  0
   -1.4899   28.2471   12.7364 C   0  0  0  0  0  0  0  0  0  0  0  0
   -2.7590   26.6180   11.3723 C   0  0  0  0  0  0  0  0  0  0  0  0
   -2.7654   27.9238   12.0652 N   0  0  0  0  0  0  0  0  0  0  0  0
   -2.2280   25.5251   12.3040 C   0  0  0  0  0  0  0  0  0  0  0  0
   -3.3813   29.0274   11.3941 C   0  0  0  0  0  0  0  0  0  0  0  0
   -2.6547   30.2201   11.1567 C   0  0  0  0  0  0  0  0  0  0  0  0
   -3.2200   31.3332   10.5393 C   0  0  0  0  0  0  0  0  0  0  0  0
   -4.5424   31.2724   10.1279 C   0  0  0  0  0  0  0  0  0  0  0  0
   -5.2593   30.1092   10.3171 C   0  0  0  0  0  0  0  0  0  0  0  0
   -4.7074   29.0089   10.9425 C   0  0  0  0  0  0  0  0  0  0  0  0
   -2.4067   32.4610   10.4060 N   0  0  0  0  0  0  0  0  0  0  0  0
   -2.6127   33.4388    9.5025 C   0  0  0  0  0  0  0  0  0  0  0  0
   -3.5626   33.4264    8.7083 O   0  0  0  0  0  0  0  0  0  0  0  0
   -1.6887   34.5679    9.4596 C   0  0  0  0  0  0  0  0  0  0  0  0
   -1.0253   35.1035    8.3990 C   0  0  0  0  0  0  0  0  0  0  0  0
   -0.2670   36.1912    8.8875 C   0  0  0  0  0  0  0  0  0  0  0  0
   -0.5114   36.2748   10.2730 C   0  0  0  0  0  0  0  0  0  0  0  0
    0.0878   37.2596   11.0571 C   0  0  0  0  0  0  0  0  0  0  0  0
   -0.2212   37.2769   12.5430 C   0  0  0  0  0  0  0  0  0  0  0  0
    0.9484   38.1463   10.4764 C   0  0  0  0  0  0  0  0  0  0  0  0
    1.1984   38.0660    9.0922 C   0  0  0  0  0  0  0  0  0  0  0  0
    0.6094   37.1010    8.2985 C   0  0  0  0  0  0  0  0  0  0  0  0
    0.8631   37.0296    6.9522 F   0  0  0  0  0  0  0  0  0  0  0  0
   -1.3936   35.2898   10.5940 N   0  0  0  0  0  0  0  0  0  0  0  0
   -0.4116   24.1239   15.5930 H   0  0  0  0  0  0  0  0  0  0  0  0
    0.9072   25.2896   15.2343 H   0  0  0  0  0  0  0  0  0  0  0  0
   -0.8026   25.8400   15.2343 H   0  0  0  0  0  0  0  0  0  0  0  0
    0.7209   24.5503   13.1807 H   0  0  0  0  0  0  0  0  0  0  0  0
   -1.2037   22.9704   14.3628 H   0  0  0  0  0  0  0  0  0  0  0  0
   -1.8958   23.5702   12.8176 H   0  0  0  0  0  0  0  0  0  0  0  0
   -0.3343   22.6824   12.8176 H   0  0  0  0  0  0  0  0  0  0  0  0
   -0.1236   25.8708   11.8231 H   0  0  0  0  0  0  0  0  0  0  0  0
   -1.2856   26.9602   14.4477 H   0  0  0  0  0  0  0  0  0  0  0  0
    0.2710   27.4254   13.6247 H   0  0  0  0  0  0  0  0  0  0  0  0
   -1.6943   29.0472   13.4631 H   0  0  0  0  0  0  0  0  0  0  0  0
   -0.8048   28.5153   11.9186 H   0  0  0  0  0  0  0  0  0  0  0  0
   -3.7843   26.3657   11.0640 H   0  0  0  0  0  0  0  0  0  0  0  0
   -2.1059   26.6844   10.4896 H   0  0  0  0  0  0  0  0  0  0  0  0
   -2.2802   24.5558   11.7866 H   0  0  0  0  0  0  0  0  0  0  0  0
   -2.8459   25.5123   13.2141 H   0  0  0  0  0  0  0  0  0  0  0  0
   -1.6022   30.2690   11.4725 H   0  0  0  0  0  0  0  0  0  0  0  0
   -5.0162   32.1448    9.6542 H   0  0  0  0  0  0  0  0  0  0  0  0
   -6.2985   30.0568    9.9603 H   0  0  0  0  0  0  0  0  0  0  0  0
   -5.3174   28.1051   11.0881 H   0  0  0  0  0  0  0  0  0  0  0  0
   -1.5986   32.5507   11.0383 H   0  0  0  0  0  0  0  0  0  0  0  0
   -1.0708   34.7550    7.3566 H   0  0  0  0  0  0  0  0  0  0  0  0
    0.7179   37.2244   13.1134 H   0  0  0  0  0  0  0  0  0  0  0  0
   -0.7525   38.2062   12.7963 H   0  0  0  0  0  0  0  0  0  0  0  0
   -0.8529   36.4127   12.7963 H   0  0  0  0  0  0  0  0  0  0  0  0
    1.4429   38.9178   11.0849 H   0  0  0  0  0  0  0  0  0  0  0  0
    1.8825   38.7930    8.6301 H   0  0  0  0  0  0  0  0  0  0  0  0
   -1.7780   35.1130   11.5331 H   0  0  0  0  0  0  0  0  0  0  0  0
  2  1  1  0
  2  3  1  0
  2  4  1  0
  4  5  1  0
  4  9  1  0
  5  6  1  0
  6  8  1  0
  7  8  1  0
  7  9  1  0
  8 10  1  0
 10 11  2  0
 10 15  1  0
 11 12  1  0
 12 13  2  0
 12 16  1  0
 13 14  1  0
 14 15  2  0
 16 17  1  0
 17 18  2  0
 17 19  1  0
 19 20  2  0
 19 29  1  0
 20 21  1  0
 21 22  2  0
 21 27  1  0
 22 23  1  0
 22 29  1  0
 23 24  1  0
 23 25  2  0
 25 26  1  0
 26 27  2  0
 27 28  1  0
  1 30  1  0
  1 31  1  0
  1 32  1  0
  2 33  1  6
  3 34  1  0
  3 35  1  0
  3 36  1  0
  4 37  1  6
  5 38  1  0
  5 39  1  0
  6 40  1  0
  6 41  1  0
  7 42  1  0
  7 43  1  0
  9 44  1  0
  9 45  1  0
 11 46  1  0
 13 47  1  0
 14 48  1  0
 15 49  1  0
 16 50  1  0
 20 51  1  0
 24 52  1  0
 24 53  1  0
 24 54  1  0
 25 55  1  0
 26 56  1  0
 29 57  1  0
M  CHG  1   2   1
M  END
>  <filename_input>  (18) 
7LZD_YHY_docked.sdf

>  <pdb_id>  (18) 
7LZD_YHY

>  <pose_rank>  (18) 
17

>  <num_atoms_heavy>  (18) 
29

>  <num_torsions>  (18) 
4

>  <pose>  (18) 
[-3.3813138347896405, 29.027425593485273, 11.394141044533445, 1.848916894683772, 1.1448129362410033, 1.4323176593872309, 7.109191689650199, 3.2241114190845654, 6.50259442223334, 2.0157708601836566]

>  <energy>  (18) 
-373.7354350411809

>  <inter_energy>  (18) 
-396.9821345826609

>  <intra_energy>  (18) 
21.196398011685698

>  <rmsd>  (18) 
10.2853

>  <sdf_rank>  (18) 
0

$$$$

     RDKit          3D

 57 60  0  0  0  0  0  0  0  0999 V2000
   -0.8064   36.5446   17.1155 C   0  0  0  0  0  0  0  0  0  0  0  0
   -1.4015   36.0841   18.4022 N   0  0  1  0  0  0  0  0  0  0  0  0
   -0.9865   36.9984   19.5018 C   0  0  0  0  0  0  0  0  0  0  0  0
   -2.8832   35.8463   18.3365 C   0  0  2  0  0  0  0  0  0  0  0  0
   -3.2717   34.5654   19.0833 C   0  0  0  0  0  0  0  0  0  0  0  0
   -4.7403   34.1862   18.8839 C   0  0  0  0  0  0  0  0  0  0  0  0
   -4.8613   35.5116   16.7972 C   0  0  0  0  0  0  0  0  0  0  0  0
   -5.2980   34.2987   17.5207 N   0  0  0  0  0  0  0  0  0  0  0  0
   -3.3400   35.6624   16.8836 C   0  0  0  0  0  0  0  0  0  0  0  0
   -6.6726   33.9176   17.4067 C   0  0  0  0  0  0  0  0  0  0  0  0
   -7.4152   34.2454   16.2457 C   0  0  0  0  0  0  0  0  0  0  0  0
   -8.7636   33.9274   16.1023 C   0  0  0  0  0  0  0  0  0  0  0  0
   -9.4061   33.2525   17.1286 C   0  0  0  0  0  0  0  0  0  0  0  0
   -8.6943   32.8921   18.2540 C   0  0  0  0  0  0  0  0  0  0  0  0
   -7.3616   33.2188   18.4066 C   0  0  0  0  0  0  0  0  0  0  0  0
   -9.3888   34.3477   14.9261 N   0  0  0  0  0  0  0  0  0  0  0  0
   -9.4424   33.6165   13.7959 C   0  0  0  0  0  0  0  0  0  0  0  0
   -8.9440   32.4867   13.7060 O   0  0  0  0  0  0  0  0  0  0  0  0
  -10.1240   34.1678   12.6288 C   0  0  0  0  0  0  0  0  0  0  0  0
   -9.9449   33.8874   11.3093 C   0  0  0  0  0  0  0  0  0  0  0  0
  -10.8625   34.6820   10.5858 C   0  0  0  0  0  0  0  0  0  0  0  0
  -11.5872   35.4373   11.5295 C   0  0  0  0  0  0  0  0  0  0  0  0
  -12.5872   36.3249   11.1344 C   0  0  0  0  0  0  0  0  0  0  0  0
  -13.3161   37.1067   12.2120 C   0  0  0  0  0  0  0  0  0  0  0  0
  -12.8533   36.4850    9.8049 C   0  0  0  0  0  0  0  0  0  0  0  0
  -12.1303   35.7345    8.8569 C   0  0  0  0  0  0  0  0  0  0  0  0
  -11.1404   34.8461    9.2299 C   0  0  0  0  0  0  0  0  0  0  0  0
  -10.4398   34.1232    8.2979 F   0  0  0  0  0  0  0  0  0  0  0  0
  -11.1339   35.0933   12.7655 N   0  0  0  0  0  0  0  0  0  0  0  0
    0.0480   37.2057   17.3225 H   0  0  0  0  0  0  0  0  0  0  0  0
   -0.4644   35.6736   16.5372 H   0  0  0  0  0  0  0  0  0  0  0  0
   -1.5637   37.0942   16.5372 H   0  0  0  0  0  0  0  0  0  0  0  0
   -1.0240   35.1482   18.6085 H   0  0  0  0  0  0  0  0  0  0  0  0
   -1.2008   36.5262   20.4719 H   0  0  0  0  0  0  0  0  0  0  0  0
    0.0918   37.2010   19.4229 H   0  0  0  0  0  0  0  0  0  0  0  0
   -1.5438   37.9434   19.4229 H   0  0  0  0  0  0  0  0  0  0  0  0
   -3.3623   36.7241   18.7946 H   0  0  0  0  0  0  0  0  0  0  0  0
   -2.6427   33.7405   18.7174 H   0  0  0  0  0  0  0  0  0  0  0  0
   -3.1195   34.7486   20.1572 H   0  0  0  0  0  0  0  0  0  0  0  0
   -4.8556   33.1392   19.2009 H   0  0  0  0  0  0  0  0  0  0  0  0
   -5.3016   34.9238   19.4763 H   0  0  0  0  0  0  0  0  0  0  0  0
   -5.1587   35.4311   15.7413 H   0  0  0  0  0  0  0  0  0  0  0  0
   -5.3350   36.3920   17.2559 H   0  0  0  0  0  0  0  0  0  0  0  0
   -3.0325   36.5406   16.2968 H   0  0  0  0  0  0  0  0  0  0  0  0
   -2.8758   34.7483   16.4852 H   0  0  0  0  0  0  0  0  0  0  0  0
   -6.9067   34.7721   15.4247 H   0  0  0  0  0  0  0  0  0  0  0  0
  -10.4750   33.0062   17.0463 H   0  0  0  0  0  0  0  0  0  0  0  0
   -9.2022   32.3293   19.0511 H   0  0  0  0  0  0  0  0  0  0  0  0
   -6.8334   32.9264   19.3261 H   0  0  0  0  0  0  0  0  0  0  0  0
   -9.8370   35.2751   14.9226 H   0  0  0  0  0  0  0  0  0  0  0  0
   -9.2214   33.1756   10.8853 H   0  0  0  0  0  0  0  0  0  0  0  0
  -12.9900   36.7570   13.2027 H   0  0  0  0  0  0  0  0  0  0  0  0
  -13.0863   38.1773   12.1071 H   0  0  0  0  0  0  0  0  0  0  0  0
  -14.4001   36.9524   12.1071 H   0  0  0  0  0  0  0  0  0  0  0  0
  -13.6267   37.1949    9.4764 H   0  0  0  0  0  0  0  0  0  0  0  0
  -12.3606   35.8596    7.7886 H   0  0  0  0  0  0  0  0  0  0  0  0
  -11.4887   35.4650   13.6582 H   0  0  0  0  0  0  0  0  0  0  0  0
  2  1  1  0
  2  3  1  0
  2  4  1  0
  4  5  1  0
  4  9  1  0
  5  6  1  0
  6  8  1  0
  7  8  1  0
  7  9  1  0
  8 10  1  0
 10 11  2  0
 10 15  1  0
 11 12  1  0
 12 13  2  0
 12 16  1  0
 13 14  1  0
 14 15  2  0
 16 17  1  0
 17 18  2  0
 17 19  1  0
 19 20  2  0
 19 29  1  0
 20 21  1  0
 21 22  2  0
 21 27  1  0
 22 23  1  0
 22 29  1  0
 23 24  1  0
 23 25  2  0
 25 26  1  0
 26 27  2  0
 27 28  1  0
  1 30  1  0
  1 31  1  0
  1 32  1  0
  2 33  1  1
  3 34  1  0
  3 35  1  0
  3 36  1  0
  4 37  1  1
  5 38  1  0
  5 39  1  0
  6 40  1  0
  6 41  1  0
  7 42  1  0
  7 43  1  0
  9 44  1  0
  9 45  1  0
 11 46  1  0
 13 47  1  0
 14 48  1  0
 15 49  1  0
 16 50  1  0
 20 51  1  0
 24 52  1  0
 24 53  1  0
 24 54  1  0
 25 55  1  0
 26 56  1  0
 29 57  1  0
M  CHG  1   2   1
M  END
>  <filename_input>  (19) 
7LZD_YHY_docked.sdf

>  <pdb_id>  (19) 
7LZD_YHY

>  <pose_rank>  (19) 
18

>  <num_atoms_heavy>  (19) 
29

>  <num_torsions>  (19) 
4

>  <pose>  (19) 
[-6.672628626206868, 33.91759444705066, 17.406666462072312, 1.203535312632785, 2.571530005922914, 0.12719489554187804, 3.4892138672909967, -0.8857361082139275, -0.9782176755167283, -3.8148490821452277]

>  <energy>  (19) 
-304.1444519728344

>  <inter_energy>  (19) 
-299.63242020111875

>  <intra_energy>  (19) 
0.8209401999789403

>  <rmsd>  (19) 
12.405

>  <sdf_rank>  (19) 
0

$$$$

     RDKit          3D

 57 60  0  0  0  0  0  0  0  0999 V2000
    4.6179   29.7178    2.3175 C   0  0  0  0  0  0  0  0  0  0  0  0
    3.5358   29.7660    3.3414 N   0  0  1  0  0  0  0  0  0  0  0  0
    2.3885   30.5599    2.8209 C   0  0  0  0  0  0  0  0  0  0  0  0
    3.1475   28.4187    3.8801 C   0  0  2  0  0  0  0  0  0  0  0  0
    3.7021   28.2070    5.2932 C   0  0  0  0  0  0  0  0  0  0  0  0
    3.4903   26.7808    5.8047 C   0  0  0  0  0  0  0  0  0  0  0  0
    3.2622   25.9221    3.4948 C   0  0  0  0  0  0  0  0  0  0  0  0
    3.7522   25.6703    4.8665 N   0  0  0  0  0  0  0  0  0  0  0  0
    3.7279   27.2974    3.0087 C   0  0  0  0  0  0  0  0  0  0  0  0
    3.5440   24.3655    5.4158 C   0  0  0  0  0  0  0  0  0  0  0  0
    2.9704   24.2103    6.7018 C   0  0  0  0  0  0  0  0  0  0  0  0
    2.7799   22.9640    7.2934 C   0  0  0  0  0  0  0  0  0  0  0  0
    3.1535   21.8262    6.5952 C   0  0  0  0  0  0  0  0  0  0  0  0
    3.6820   21.9509    5.3271 C   0  0  0  0  0  0  0  0  0  0  0  0
    3.8867   23.1852    4.7432 C   0  0  0  0  0  0  0  0  0  0  0  0
    2.2453   22.9539    8.5838 N   0  0  0  0  0  0  0  0  0  0  0  0
    0.9346   22.8058    8.8577 C   0  0  0  0  0  0  0  0  0  0  0  0
    0.0801   22.6520    7.9750 O   0  0  0  0  0  0  0  0  0  0  0  0
    0.4979   22.8150   10.2505 C   0  0  0  0  0  0  0  0  0  0  0  0
    0.6928   21.8851   11.2247 C   0  0  0  0  0  0  0  0  0  0  0  0
    0.0810   22.3773   12.3995 C   0  0  0  0  0  0  0  0  0  0  0  0
   -0.4782   23.6306   12.0788 C   0  0  0  0  0  0  0  0  0  0  0  0
   -1.1535   24.3894   13.0339 C   0  0  0  0  0  0  0  0  0  0  0  0
   -1.7335   25.7253   12.6065 C   0  0  0  0  0  0  0  0  0  0  0  0
   -1.2982   23.8980   14.2994 C   0  0  0  0  0  0  0  0  0  0  0  0
   -0.7435   22.6445   14.6250 C   0  0  0  0  0  0  0  0  0  0  0  0
   -0.0661   21.8815   13.6938 C   0  0  0  0  0  0  0  0  0  0  0  0
    0.4668   20.6604   14.0208 F   0  0  0  0  0  0  0  0  0  0  0  0
   -0.1952   23.8839   10.7722 N   0  0  0  0  0  0  0  0  0  0  0  0
    5.5958   29.6742    2.8194 H   0  0  0  0  0  0  0  0  0  0  0  0
    4.4883   28.8246    1.6888 H   0  0  0  0  0  0  0  0  0  0  0  0
    4.5683   30.6191    1.6888 H   0  0  0  0  0  0  0  0  0  0  0  0
    3.9065   30.2510    4.1711 H   0  0  0  0  0  0  0  0  0  0  0  0
    1.8079   30.9617    3.6644 H   0  0  0  0  0  0  0  0  0  0  0  0
    2.7661   31.3908    2.2069 H   0  0  0  0  0  0  0  0  0  0  0  0
    1.7440   29.9137    2.2069 H   0  0  0  0  0  0  0  0  0  0  0  0
    2.0480   28.3879    3.8852 H   0  0  0  0  0  0  0  0  0  0  0  0
    4.7812   28.4202    5.2831 H   0  0  0  0  0  0  0  0  0  0  0  0
    3.1589   28.8852    5.9676 H   0  0  0  0  0  0  0  0  0  0  0  0
    4.1518   26.6410    6.6725 H   0  0  0  0  0  0  0  0  0  0  0  0
    2.4128   26.7180    6.0171 H   0  0  0  0  0  0  0  0  0  0  0  0
    3.6554   25.1467    2.8209 H   0  0  0  0  0  0  0  0  0  0  0  0
    2.1625   25.8967    3.4971 H   0  0  0  0  0  0  0  0  0  0  0  0
    3.3965   27.4421    1.9698 H   0  0  0  0  0  0  0  0  0  0  0  0
    4.8252   27.3373    3.0745 H   0  0  0  0  0  0  0  0  0  0  0  0
    2.6632   25.1101    7.2550 H   0  0  0  0  0  0  0  0  0  0  0  0
    3.0296   20.8318    7.0488 H   0  0  0  0  0  0  0  0  0  0  0  0
    3.9475   21.0427    4.7661 H   0  0  0  0  0  0  0  0  0  0  0  0
    4.3249   23.2426    3.7359 H   0  0  0  0  0  0  0  0  0  0  0  0
    2.8940   23.0667    9.3759 H   0  0  0  0  0  0  0  0  0  0  0  0
    1.2265   20.9292   11.1177 H   0  0  0  0  0  0  0  0  0  0  0  0
   -1.9899   26.3159   13.4984 H   0  0  0  0  0  0  0  0  0  0  0  0
   -0.9916   26.2718   12.0057 H   0  0  0  0  0  0  0  0  0  0  0  0
   -2.6393   25.5564   12.0057 H   0  0  0  0  0  0  0  0  0  0  0  0
   -1.8440   24.4765   15.0593 H   0  0  0  0  0  0  0  0  0  0  0  0
   -0.8529   22.2623   15.6507 H   0  0  0  0  0  0  0  0  0  0  0  0
   -0.4569   24.7367   10.2573 H   0  0  0  0  0  0  0  0  0  0  0  0
  2  1  1  0
  2  3  1  0
  2  4  1  0
  4  5  1  0
  4  9  1  0
  5  6  1  0
  6  8  1  0
  7  8  1  0
  7  9  1  0
  8 10  1  0
 10 11  2  0
 10 15  1  0
 11 12  1  0
 12 13  2  0
 12 16  1  0
 13 14  1  0
 14 15  2  0
 16 17  1  0
 17 18  2  0
 17 19  1  0
 19 20  2  0
 19 29  1  0
 20 21  1  0
 21 22  2  0
 21 27  1  0
 22 23  1  0
 22 29  1  0
 23 24  1  0
 23 25  2  0
 25 26  1  0
 26 27  2  0
 27 28  1  0
  1 30  1  0
  1 31  1  0
  1 32  1  0
  2 33  1  1
  3 34  1  0
  3 35  1  0
  3 36  1  0
  4 37  1  1
  5 38  1  0
  5 39  1  0
  6 40  1  0
  6 41  1  0
  7 42  1  0
  7 43  1  0
  9 44  1  0
  9 45  1  0
 11 46  1  0
 13 47  1  0
 14 48  1  0
 15 49  1  0
 16 50  1  0
 20 51  1  0
 24 52  1  0
 24 53  1  0
 24 54  1  0
 25 55  1  0
 26 56  1  0
 29 57  1  0
M  CHG  1   2   1
M  END
>  <filename_input>  (20) 
7LZD_YHY_docked.sdf

>  <pdb_id>  (20) 
7LZD_YHY

>  <pose_rank>  (20) 
19

>  <num_atoms_heavy>  (20) 
29

>  <num_torsions>  (20) 
4

>  <pose>  (20) 
[3.5440487656493174, 24.36545021229923, 5.415784341320973, -0.4110780995037598, -1.103099006169616, -0.4100536219927601, 0.7210256371564862, -1.4627982271661462, -0.884708993061863, -1.465793848592129]

>  <energy>  (20) 
-272.7525166810464

>  <inter_energy>  (20) 
-267.70764381670676

>  <intra_energy>  (20) 
0.7006205391907951

>  <rmsd>  (20) 
10.387

>  <sdf_rank>  (20) 
0

$$$$

     RDKit          3D

 57 60  0  0  0  0  0  0  0  0999 V2000
    4.8694   22.2573    8.6585 C   0  0  0  0  0  0  0  0  0  0  0  0
    4.6137   22.1084    7.1976 N   0  0  1  0  0  0  0  0  0  0  0  0
    4.0581   20.7547    6.9216 C   0  0  0  0  0  0  0  0  0  0  0  0
    3.8079   23.2285    6.6039 C   0  0  2  0  0  0  0  0  0  0  0  0
    3.2865   22.8572    5.2112 C   0  0  0  0  0  0  0  0  0  0  0  0
    2.6215   24.0341    4.4949 C   0  0  0  0  0  0  0  0  0  0  0  0
    3.8369   25.6601    5.9106 C   0  0  0  0  0  0  0  0  0  0  0  0
    3.2887   25.3496    4.5733 N   0  0  0  0  0  0  0  0  0  0  0  0
    4.6705   24.4848    6.4287 C   0  0  0  0  0  0  0  0  0  0  0  0
    2.6169   26.4005    3.8718 C   0  0  0  0  0  0  0  0  0  0  0  0
    2.5046   27.6905    4.4463 C   0  0  0  0  0  0  0  0  0  0  0  0
    1.8307   28.7356    3.8189 C   0  0  0  0  0  0  0  0  0  0  0  0
    1.2558   28.5131    2.5773 C   0  0  0  0  0  0  0  0  0  0  0  0
    1.3824   27.2747    1.9828 C   0  0  0  0  0  0  0  0  0  0  0  0
    2.0363   26.2318    2.6080 C   0  0  0  0  0  0  0  0  0  0  0  0
    1.7556   29.9447    4.5143 N   0  0  0  0  0  0  0  0  0  0  0  0
    2.6275   30.9601    4.3611 C   0  0  0  0  0  0  0  0  0  0  0  0
    3.5783   30.9115    3.5695 O   0  0  0  0  0  0  0  0  0  0  0  0
    2.4437   32.1749    5.1492 C   0  0  0  0  0  0  0  0  0  0  0  0
    2.6661   32.3886    6.4746 C   0  0  0  0  0  0  0  0  0  0  0  0
    2.3444   33.7389    6.7391 C   0  0  0  0  0  0  0  0  0  0  0  0
    1.9269   34.3094    5.5199 C   0  0  0  0  0  0  0  0  0  0  0  0
    1.5442   35.6477    5.4387 C   0  0  0  0  0  0  0  0  0  0  0  0
    1.1000   36.1839    4.0901 C   0  0  0  0  0  0  0  0  0  0  0  0
    1.5499   36.4154    6.5677 C   0  0  0  0  0  0  0  0  0  0  0  0
    1.9640   35.8497    7.7897 C   0  0  0  0  0  0  0  0  0  0  0  0
    2.3522   34.5276    7.8882 C   0  0  0  0  0  0  0  0  0  0  0  0
    2.7499   33.9860    9.0842 F   0  0  0  0  0  0  0  0  0  0  0  0
    2.0141   33.3447    4.5643 N   0  0  0  0  0  0  0  0  0  0  0  0
    4.0539   21.7826    9.2238 H   0  0  0  0  0  0  0  0  0  0  0  0
    5.8235   21.7735    8.9149 H   0  0  0  0  0  0  0  0  0  0  0  0
    4.9196   23.3259    8.9149 H   0  0  0  0  0  0  0  0  0  0  0  0
    5.5169   22.1862    6.7087 H   0  0  0  0  0  0  0  0  0  0  0  0
    3.8483   20.2436    7.8728 H   0  0  0  0  0  0  0  0  0  0  0  0
    3.1269   20.8513    6.3441 H   0  0  0  0  0  0  0  0  0  0  0  0
    4.7886   20.1693    6.3441 H   0  0  0  0  0  0  0  0  0  0  0  0
    2.9725   23.4144    7.2950 H   0  0  0  0  0  0  0  0  0  0  0  0
    4.1321   22.5067    4.6011 H   0  0  0  0  0  0  0  0  0  0  0  0
    2.5248   22.0742    5.3401 H   0  0  0  0  0  0  0  0  0  0  0  0
    2.5419   23.7687    3.4304 H   0  0  0  0  0  0  0  0  0  0  0  0
    1.6649   24.1751    5.0194 H   0  0  0  0  0  0  0  0  0  0  0  0
    4.4733   26.5547    5.8432 H   0  0  0  0  0  0  0  0  0  0  0  0
    3.0038   25.8420    6.6055 H   0  0  0  0  0  0  0  0  0  0  0  0
    5.1099   24.7569    7.3997 H   0  0  0  0  0  0  0  0  0  0  0  0
    5.4595   24.2663    5.6940 H   0  0  0  0  0  0  0  0  0  0  0  0
    2.9680   27.8742    5.4268 H   0  0  0  0  0  0  0  0  0  0  0  0
    0.7031   29.3176    2.0702 H   0  0  0  0  0  0  0  0  0  0  0  0
    0.9508   27.1139    0.9839 H   0  0  0  0  0  0  0  0  0  0  0  0
    2.1023   25.2548    2.1069 H   0  0  0  0  0  0  0  0  0  0  0  0
    0.9849   30.0676    5.1865 H   0  0  0  0  0  0  0  0  0  0  0  0
    3.0284   31.6488    7.2036 H   0  0  0  0  0  0  0  0  0  0  0  0
    0.4049   37.0231    4.2400 H   0  0  0  0  0  0  0  0  0  0  0  0
    1.9783   36.5315    3.5264 H   0  0  0  0  0  0  0  0  0  0  0  0
    0.5949   35.3857    3.5264 H   0  0  0  0  0  0  0  0  0  0  0  0
    1.2335   37.4679    6.5235 H   0  0  0  0  0  0  0  0  0  0  0  0
    1.9786   36.4791    8.6918 H   0  0  0  0  0  0  0  0  0  0  0  0
    1.7945   33.4694    3.5658 H   0  0  0  0  0  0  0  0  0  0  0  0
  2  1  1  0
  2  3  1  0
  2  4  1  0
  4  5  1  0
  4  9  1  0
  5  6  1  0
  6  8  1  0
  7  8  1  0
  7  9  1  0
  8 10  1  0
 10 11  2  0
 10 15  1  0
 11 12  1  0
 12 13  2  0
 12 16  1  0
 13 14  1  0
 14 15  2  0
 16 17  1  0
 17 18  2  0
 17 19  1  0
 19 20  2  0
 19 29  1  0
 20 21  1  0
 21 22  2  0
 21 27  1  0
 22 23  1  0
 22 29  1  0
 23 24  1  0
 23 25  2  0
 25 26  1  0
 26 27  2  0
 27 28  1  0
  1 30  1  0
  1 31  1  0
  1 32  1  0
  2 33  1  6
  3 34  1  0
  3 35  1  0
  3 36  1  0
  4 37  1  1
  5 38  1  0
  5 39  1  0
  6 40  1  0
  6 41  1  0
  7 42  1  0
  7 43  1  0
  9 44  1  0
  9 45  1  0
 11 46  1  0
 13 47  1  0
 14 48  1  0
 15 49  1  0
 16 50  1  0
 20 51  1  0
 24 52  1  0
 24 53  1  0
 24 54  1  0
 25 55  1  0
 26 56  1  0
 29 57  1  0
M  CHG  1   2   1
M  END
>  <filename_input>  (21) 
7LZD_YHY_docked.sdf

>  <pdb_id>  (21) 
7LZD_YHY

>  <pose_rank>  (21) 
20

>  <num_atoms_heavy>  (21) 
29

>  <num_torsions>  (21) 
4

>  <pose>  (21) 
[2.6169086298712827, 26.40048263248336, 3.8718442973966045, 1.0579697829233792, 1.0043586138714855, 2.5187810552046366, 9.287769476396234, 0.09346855279754912, 5.379211137950138, 1.040935265497465]

>  <energy>  (21) 
-259.56524793570225

>  <inter_energy>  (21) 
-246.8492558263966

>  <intra_energy>  (21) 
0.6728739180078744

>  <rmsd>  (21) 
13.1709

>  <sdf_rank>  (21) 
0

$$$$

     RDKit          3D

 57 60  0  0  0  0  0  0  0  0999 V2000
    5.0844   35.1367    3.6503 C   0  0  0  0  0  0  0  0  0  0  0  0
    3.7279   34.7404    3.1765 N   0  0  1  0  0  0  0  0  0  0  0  0
    3.8284   33.5135    2.3387 C   0  0  0  0  0  0  0  0  0  0  0  0
    2.7045   34.6458    4.2719 C   0  0  2  0  0  0  0  0  0  0  0  0
    1.9645   35.9757    4.4541 C   0  0  0  0  0  0  0  0  0  0  0  0
    1.0481   35.9803    5.6791 C   0  0  0  0  0  0  0  0  0  0  0  0
    2.3324   34.1391    6.7212 C   0  0  0  0  0  0  0  0  0  0  0  0
    1.5706   35.3889    6.9279 N   0  0  0  0  0  0  0  0  0  0  0  0
    3.3742   34.3291    5.6152 C   0  0  0  0  0  0  0  0  0  0  0  0
    0.6642   35.4376    8.0341 C   0  0  0  0  0  0  0  0  0  0  0  0
   -0.5871   34.7768    7.9674 C   0  0  0  0  0  0  0  0  0  0  0  0
   -1.5170   34.8239    9.0032 C   0  0  0  0  0  0  0  0  0  0  0  0
   -1.2056   35.5341   10.1522 C   0  0  0  0  0  0  0  0  0  0  0  0
    0.0213   36.1566   10.2537 C   0  0  0  0  0  0  0  0  0  0  0  0
    0.9397   36.1252    9.2233 C   0  0  0  0  0  0  0  0  0  0  0  0
   -2.7306   34.1656    8.7911 N   0  0  0  0  0  0  0  0  0  0  0  0
   -3.2930   33.3151    9.6716 C   0  0  0  0  0  0  0  0  0  0  0  0
   -2.7792   33.0492   10.7663 O   0  0  0  0  0  0  0  0  0  0  0  0
   -4.5657   32.6859    9.3326 C   0  0  0  0  0  0  0  0  0  0  0  0
   -4.8068   31.4841    8.7415 C   0  0  0  0  0  0  0  0  0  0  0  0
   -6.2093   31.3385    8.6492 C   0  0  0  0  0  0  0  0  0  0  0  0
   -6.7817   32.4982    9.2093 C   0  0  0  0  0  0  0  0  0  0  0  0
   -8.1643   32.6636    9.2790 C   0  0  0  0  0  0  0  0  0  0  0  0
   -8.7014   33.9450    9.8900 C   0  0  0  0  0  0  0  0  0  0  0  0
   -8.9810   31.6941    8.7720 C   0  0  0  0  0  0  0  0  0  0  0  0
   -8.4143   30.5338    8.2086 C   0  0  0  0  0  0  0  0  0  0  0  0
   -7.0472   30.3498    8.1363 C   0  0  0  0  0  0  0  0  0  0  0  0
   -6.5060   29.2176    7.5820 F   0  0  0  0  0  0  0  0  0  0  0  0
   -5.7633   33.2937    9.6353 N   0  0  0  0  0  0  0  0  0  0  0  0
    5.1016   35.1417    4.7502 H   0  0  0  0  0  0  0  0  0  0  0  0
    5.8282   34.4182    3.2753 H   0  0  0  0  0  0  0  0  0  0  0  0
    5.3246   36.1425    3.2753 H   0  0  0  0  0  0  0  0  0  0  0  0
    3.3653   35.5005    2.5834 H   0  0  0  0  0  0  0  0  0  0  0  0
    3.9008   32.6298    2.9897 H   0  0  0  0  0  0  0  0  0  0  0  0
    2.9342   33.4288    1.7037 H   0  0  0  0  0  0  0  0  0  0  0  0
    4.7245   33.5755    1.7037 H   0  0  0  0  0  0  0  0  0  0  0  0
    2.0052   33.8486    3.9798 H   0  0  0  0  0  0  0  0  0  0  0  0
    2.7076   36.7788    4.5678 H   0  0  0  0  0  0  0  0  0  0  0  0
    1.3326   36.1278    3.5667 H   0  0  0  0  0  0  0  0  0  0  0  0
    0.7914   37.0281    5.8938 H   0  0  0  0  0  0  0  0  0  0  0  0
    0.2030   35.3349    5.3974 H   0  0  0  0  0  0  0  0  0  0  0  0
    2.8422   33.8659    7.6569 H   0  0  0  0  0  0  0  0  0  0  0  0
    1.6366   33.3406    6.4243 H   0  0  0  0  0  0  0  0  0  0  0  0
    3.9626   33.4052    5.5139 H   0  0  0  0  0  0  0  0  0  0  0  0
    4.0233   35.1739    5.8890 H   0  0  0  0  0  0  0  0  0  0  0  0
   -0.8341   34.2038    7.0616 H   0  0  0  0  0  0  0  0  0  0  0  0
   -1.9309   35.6008   10.9764 H   0  0  0  0  0  0  0  0  0  0  0  0
    0.2747   36.6923   11.1805 H   0  0  0  0  0  0  0  0  0  0  0  0
    1.9011   36.6474    9.3376 H   0  0  0  0  0  0  0  0  0  0  0  0
   -3.2268   34.3416    7.9058 H   0  0  0  0  0  0  0  0  0  0  0  0
   -4.0513   30.7613    8.3996 H   0  0  0  0  0  0  0  0  0  0  0  0
   -8.6698   33.8695   10.9870 H   0  0  0  0  0  0  0  0  0  0  0  0
   -8.0835   34.7942    9.5630 H   0  0  0  0  0  0  0  0  0  0  0  0
   -9.7402   34.0999    9.5630 H   0  0  0  0  0  0  0  0  0  0  0  0
  -10.0736   31.8180    8.8032 H   0  0  0  0  0  0  0  0  0  0  0  0
   -9.0800   29.7515    7.8149 H   0  0  0  0  0  0  0  0  0  0  0  0
   -5.8708   34.2028   10.1074 H   0  0  0  0  0  0  0  0  0  0  0  0
  2  1  1  0
  2  3  1  0
  2  4  1  0
  4  5  1  0
  4  9  1  0
  5  6  1  0
  6  8  1  0
  7  8  1  0
  7  9  1  0
  8 10  1  0
 10 11  2  0
 10 15  1  0
 11 12  1  0
 12 13  2  0
 12 16  1  0
 13 14  1  0
 14 15  2  0
 16 17  1  0
 17 18  2  0
 17 19  1  0
 19 20  2  0
 19 29  1  0
 20 21  1  0
 21 22  2  0
 21 27  1  0
 22 23  1  0
 22 29  1  0
 23 24  1  0
 23 25  2  0
 25 26  1  0
 26 27  2  0
 27 28  1  0
  1 30  1  0
  1 31  1  0
  1 32  1  0
  2 33  1  6
  3 34  1  0
  3 35  1  0
  3 36  1  0
  4 37  1  6
  5 38  1  0
  5 39  1  0
  6 40  1  0
  6 41  1  0
  7 42  1  0
  7 43  1  0
  9 44  1  0
  9 45  1  0
 11 46  1  0
 13 47  1  0
 14 48  1  0
 15 49  1  0
 16 50  1  0
 20 51  1  0
 24 52  1  0
 24 53  1  0
 24 54  1  0
 25 55  1  0
 26 56  1  0
 29 57  1  0
M  CHG  1   2   1
M  END
>  <filename_input>  (22) 
7LZD_YHY_docked.sdf

>  <pdb_id>  (22) 
7LZD_YHY

>  <pose_rank>  (22) 
21

>  <num_atoms_heavy>  (22) 
29

>  <num_torsions>  (22) 
4

>  <pose>  (22) 
[0.6641869396297106, 35.43763065404909, 8.03412503077036, -0.6386621821663704, -2.5650048272535257, 1.7663057667547908, -4.623653108801606, -1.6947204770203221, -0.2466391507420924, 1.3920525586257342]

>  <energy>  (22) 
-205.4108521686582

>  <inter_energy>  (22) 
-228.27685823958257

>  <intra_energy>  (22) 
10.632323049713651

>  <rmsd>  (22) 
10.7726

>  <sdf_rank>  (22) 
0

$$$$

     RDKit          3D

 57 60  0  0  0  0  0  0  0  0999 V2000
    5.0363   19.8352    7.7604 C   0  0  0  0  0  0  0  0  0  0  0  0
    4.4061   21.1361    8.1242 N   0  0  1  0  0  0  0  0  0  0  0  0
    5.0683   21.6919    9.3367 C   0  0  0  0  0  0  0  0  0  0  0  0
    4.3147   22.1079    6.9825 C   0  0  2  0  0  0  0  0  0  0  0  0
    3.9867   23.5193    7.4823 C   0  0  0  0  0  0  0  0  0  0  0  0
    3.7004   24.4991    6.3428 C   0  0  0  0  0  0  0  0  0  0  0  0
    3.1458   22.6413    4.8046 C   0  0  0  0  0  0  0  0  0  0  0  0
    2.8525   24.0264    5.2294 N   0  0  0  0  0  0  0  0  0  0  0  0
    3.1883   21.7108    6.0199 C   0  0  0  0  0  0  0  0  0  0  0  0
    2.6180   24.9983    4.2056 C   0  0  0  0  0  0  0  0  0  0  0  0
    2.8795   26.3701    4.4438 C   0  0  0  0  0  0  0  0  0  0  0  0
    2.6350   27.3572    3.4921 C   0  0  0  0  0  0  0  0  0  0  0  0
    2.1271   26.9864    2.2568 C   0  0  0  0  0  0  0  0  0  0  0  0
    1.8974   25.6526    1.9899 C   0  0  0  0  0  0  0  0  0  0  0  0
    2.1240   24.6726    2.9357 C   0  0  0  0  0  0  0  0  0  0  0  0
    2.8950   28.6763    3.8710 N   0  0  0  0  0  0  0  0  0  0  0  0
    1.9489   29.5485    4.2697 C   0  0  0  0  0  0  0  0  0  0  0  0
    0.7505   29.2466    4.3465 O   0  0  0  0  0  0  0  0  0  0  0  0
    2.3468   30.9036    4.6385 C   0  0  0  0  0  0  0  0  0  0  0  0
    2.1074   32.0804    3.9984 C   0  0  0  0  0  0  0  0  0  0  0  0
    2.6956   33.1044    4.7744 C   0  0  0  0  0  0  0  0  0  0  0  0
    3.2872   32.4851    5.8937 C   0  0  0  0  0  0  0  0  0  0  0  0
    3.9500   33.2295    6.8686 C   0  0  0  0  0  0  0  0  0  0  0  0
    4.5668   32.4863    8.0394 C   0  0  0  0  0  0  0  0  0  0  0  0
    4.0502   34.5834    6.7242 C   0  0  0  0  0  0  0  0  0  0  0  0
    3.4629   35.2077    5.6060 C   0  0  0  0  0  0  0  0  0  0  0  0
    2.7973   34.4873    4.6332 C   0  0  0  0  0  0  0  0  0  0  0  0
    2.2325   35.1051    3.5464 F   0  0  0  0  0  0  0  0  0  0  0  0
    3.0453   31.1494    5.7990 N   0  0  0  0  0  0  0  0  0  0  0  0
    5.3016   19.2874    8.6767 H   0  0  0  0  0  0  0  0  0  0  0  0
    4.3278   19.2375    7.1681 H   0  0  0  0  0  0  0  0  0  0  0  0
    5.9444   20.0205    7.1681 H   0  0  0  0  0  0  0  0  0  0  0  0
    3.4190   20.9556    8.3565 H   0  0  0  0  0  0  0  0  0  0  0  0
    4.5845   21.2858   10.2373 H   0  0  0  0  0  0  0  0  0  0  0  0
    6.1321   21.4123    9.3342 H   0  0  0  0  0  0  0  0  0  0  0  0
    4.9772   22.7881    9.3342 H   0  0  0  0  0  0  0  0  0  0  0  0
    5.2918   22.0915    6.4776 H   0  0  0  0  0  0  0  0  0  0  0  0
    3.0999   23.4654    8.1309 H   0  0  0  0  0  0  0  0  0  0  0  0
    4.8675   23.8915    8.0261 H   0  0  0  0  0  0  0  0  0  0  0  0
    3.2066   25.3787    6.7817 H   0  0  0  0  0  0  0  0  0  0  0  0
    4.6823   24.6882    5.8845 H   0  0  0  0  0  0  0  0  0  0  0  0
    2.3613   22.2998    4.1132 H   0  0  0  0  0  0  0  0  0  0  0  0
    4.1248   22.6204    4.3033 H   0  0  0  0  0  0  0  0  0  0  0  0
    3.3564   20.6794    5.6766 H   0  0  0  0  0  0  0  0  0  0  0  0
    2.2296   21.7902    6.5534 H   0  0  0  0  0  0  0  0  0  0  0  0
    3.2920   26.6675    5.4192 H   0  0  0  0  0  0  0  0  0  0  0  0
    1.9088   27.7497    1.4953 H   0  0  0  0  0  0  0  0  0  0  0  0
    1.5238   25.3620    0.9969 H   0  0  0  0  0  0  0  0  0  0  0  0
    1.9137   23.6216    2.6888 H   0  0  0  0  0  0  0  0  0  0  0  0
    3.8715   29.0026    3.8438 H   0  0  0  0  0  0  0  0  0  0  0  0
    1.5588   32.2101    3.0538 H   0  0  0  0  0  0  0  0  0  0  0  0
    4.2049   32.9224    8.9822 H   0  0  0  0  0  0  0  0  0  0  0  0
    4.2802   31.4254    7.9923 H   0  0  0  0  0  0  0  0  0  0  0  0
    5.6624   32.5726    7.9923 H   0  0  0  0  0  0  0  0  0  0  0  0
    4.5856   35.1825    7.4754 H   0  0  0  0  0  0  0  0  0  0  0  0
    3.5366   36.3005    5.5046 H   0  0  0  0  0  0  0  0  0  0  0  0
    3.3374   30.4380    6.4842 H   0  0  0  0  0  0  0  0  0  0  0  0
  2  1  1  0
  2  3  1  0
  2  4  1  0
  4  5  1  0
  4  9  1  0
  5  6  1  0
  6  8  1  0
  7  8  1  0
  7  9  1  0
  8 10  1  0
 10 11  2  0
 10 15  1  0
 11 12  1  0
 12 13  2  0
 12 16  1  0
 13 14  1  0
 14 15  2  0
 16 17  1  0
 17 18  2  0
 17 19  1  0
 19 20  2  0
 19 29  1  0
 20 21  1  0
 21 22  2  0
 21 27  1  0
 22 23  1  0
 22 29  1  0
 23 24  1  0
 23 25  2  0
 25 26  1  0
 26 27  2  0
 27 28  1  0
  1 30  1  0
  1 31  1  0
  1 32  1  0
  2 33  1  1
  3 34  1  0
  3 35  1  0
  3 36  1  0
  4 37  1  6
  5 38  1  0
  5 39  1  0
  6 40  1  0
  6 41  1  0
  7 42  1  0
  7 43  1  0
  9 44  1  0
  9 45  1  0
 11 46  1  0
 13 47  1  0
 14 48  1  0
 15 49  1  0
 16 50  1  0
 20 51  1  0
 24 52  1  0
 24 53  1  0
 24 54  1  0
 25 55  1  0
 26 56  1  0
 29 57  1  0
M  CHG  1   2   1
M  END
>  <filename_input>  (23) 
7LZD_YHY_docked.sdf

>  <pdb_id>  (23) 
7LZD_YHY

>  <pose_rank>  (23) 
22

>  <num_atoms_heavy>  (23) 
29

>  <num_torsions>  (23) 
4

>  <pose>  (23) 
[2.6180356434943968, 24.9983428807267, 4.205646252194147, -1.3430972249807194, -1.5155460140820622, -3.1950918077560435, 0.3108103313904533, -6.19250571279765, 1.996765738701723, 1.6907638767026412]

>  <energy>  (23) 
-232.91781001734913

>  <inter_energy>  (23) 
-238.56389720744014

>  <intra_energy>  (23) 
1.5719852289242517

>  <rmsd>  (23) 
13.3908

>  <sdf_rank>  (23) 
0

$$$$

     RDKit          3D

 57 60  0  0  0  0  0  0  0  0999 V2000
  -14.6048   26.1432   12.3046 C   0  0  0  0  0  0  0  0  0  0  0  0
  -14.2526   25.0638   13.2703 N   0  0  1  0  0  0  0  0  0  0  0  0
  -13.4237   24.0320   12.5879 C   0  0  0  0  0  0  0  0  0  0  0  0
  -13.6596   25.5670   14.5554 C   0  0  2  0  0  0  0  0  0  0  0  0
  -12.4568   26.4792   14.2899 C   0  0  0  0  0  0  0  0  0  0  0  0
  -11.7104   26.8620   15.5693 C   0  0  0  0  0  0  0  0  0  0  0  0
  -12.6232   24.8948   16.7617 C   0  0  0  0  0  0  0  0  0  0  0  0
  -11.4703   25.7991   16.5666 N   0  0  0  0  0  0  0  0  0  0  0  0
  -13.1456   24.4012   15.4097 C   0  0  0  0  0  0  0  0  0  0  0  0
  -10.7581   26.2263   17.7319 C   0  0  0  0  0  0  0  0  0  0  0  0
  -10.1359   27.4985   17.7676 C   0  0  0  0  0  0  0  0  0  0  0  0
   -9.4027   27.9451   18.8643 C   0  0  0  0  0  0  0  0  0  0  0  0
   -9.2842   27.1206   19.9723 C   0  0  0  0  0  0  0  0  0  0  0  0
   -9.9107   25.8916   19.9740 C   0  0  0  0  0  0  0  0  0  0  0  0
  -10.6257   25.4389   18.8831 C   0  0  0  0  0  0  0  0  0  0  0  0
   -8.8032   29.2018   18.7522 N   0  0  0  0  0  0  0  0  0  0  0  0
   -9.1776   30.2837   19.4621 C   0  0  0  0  0  0  0  0  0  0  0  0
  -10.0922   30.2527   20.2962 O   0  0  0  0  0  0  0  0  0  0  0  0
   -8.4734   31.5451   19.2529 C   0  0  0  0  0  0  0  0  0  0  0  0
   -8.8805   32.6648   18.5955 C   0  0  0  0  0  0  0  0  0  0  0  0
   -7.8336   33.6089   18.6918 C   0  0  0  0  0  0  0  0  0  0  0  0
   -6.7984   33.0023   19.4313 C   0  0  0  0  0  0  0  0  0  0  0  0
   -5.6138   33.6815   19.7128 C   0  0  0  0  0  0  0  0  0  0  0  0
   -4.5447   32.9552   20.5084 C   0  0  0  0  0  0  0  0  0  0  0  0
   -5.4420   34.9514   19.2417 C   0  0  0  0  0  0  0  0  0  0  0  0
   -6.4724   35.5620   18.4998 C   0  0  0  0  0  0  0  0  0  0  0  0
   -7.6551   34.9068   18.2163 C   0  0  0  0  0  0  0  0  0  0  0  0
   -8.6503   35.5096   17.4895 F   0  0  0  0  0  0  0  0  0  0  0  0
   -7.2183   31.7552   19.7778 N   0  0  0  0  0  0  0  0  0  0  0  0
  -14.8999   27.0475   12.8571 H   0  0  0  0  0  0  0  0  0  0  0  0
  -13.7334   26.3680   11.6720 H   0  0  0  0  0  0  0  0  0  0  0  0
  -15.4411   25.8108   11.6720 H   0  0  0  0  0  0  0  0  0  0  0  0
  -15.1278   24.6155   13.5769 H   0  0  0  0  0  0  0  0  0  0  0  0
  -12.9219   23.4074   13.3417 H   0  0  0  0  0  0  0  0  0  0  0  0
  -14.0686   23.4007   11.9590 H   0  0  0  0  0  0  0  0  0  0  0  0
  -12.6682   24.5256   11.9590 H   0  0  0  0  0  0  0  0  0  0  0  0
  -14.4579   26.1173   15.0748 H   0  0  0  0  0  0  0  0  0  0  0  0
  -11.7596   25.9556   13.6194 H   0  0  0  0  0  0  0  0  0  0  0  0
  -12.8377   27.4070   13.8380 H   0  0  0  0  0  0  0  0  0  0  0  0
  -10.7296   27.2607   15.2710 H   0  0  0  0  0  0  0  0  0  0  0  0
  -12.3759   27.5756   16.0772 H   0  0  0  0  0  0  0  0  0  0  0  0
  -12.3089   24.0314   17.3666 H   0  0  0  0  0  0  0  0  0  0  0  0
  -13.4254   25.4434   17.2769 H   0  0  0  0  0  0  0  0  0  0  0  0
  -13.9683   23.6912   15.5803 H   0  0  0  0  0  0  0  0  0  0  0  0
  -12.3183   23.9139   14.8730 H   0  0  0  0  0  0  0  0  0  0  0  0
  -10.2359   28.1600   16.8944 H   0  0  0  0  0  0  0  0  0  0  0  0
   -8.6953   27.4438   20.8433 H   0  0  0  0  0  0  0  0  0  0  0  0
   -9.8388   25.2554   20.8684 H   0  0  0  0  0  0  0  0  0  0  0  0
  -11.0979   24.4460   18.9183 H   0  0  0  0  0  0  0  0  0  0  0  0
   -8.0259   29.3079   18.0848 H   0  0  0  0  0  0  0  0  0  0  0  0
   -9.8442   32.8082   18.0847 H   0  0  0  0  0  0  0  0  0  0  0  0
   -4.7361   33.0852   21.5838 H   0  0  0  0  0  0  0  0  0  0  0  0
   -4.5663   31.8841   20.2590 H   0  0  0  0  0  0  0  0  0  0  0  0
   -3.5569   33.3699   20.2590 H   0  0  0  0  0  0  0  0  0  0  0  0
   -4.5059   35.4939   19.4399 H   0  0  0  0  0  0  0  0  0  0  0  0
   -6.3311   36.5903   18.1358 H   0  0  0  0  0  0  0  0  0  0  0  0
   -6.6839   31.0785   20.3411 H   0  0  0  0  0  0  0  0  0  0  0  0
  2  1  1  0
  2  3  1  0
  2  4  1  0
  4  5  1  0
  4  9  1  0
  5  6  1  0
  6  8  1  0
  7  8  1  0
  7  9  1  0
  8 10  1  0
 10 11  2  0
 10 15  1  0
 11 12  1  0
 12 13  2  0
 12 16  1  0
 13 14  1  0
 14 15  2  0
 16 17  1  0
 17 18  2  0
 17 19  1  0
 19 20  2  0
 19 29  1  0
 20 21  1  0
 21 22  2  0
 21 27  1  0
 22 23  1  0
 22 29  1  0
 23 24  1  0
 23 25  2  0
 25 26  1  0
 26 27  2  0
 27 28  1  0
  1 30  1  0
  1 31  1  0
  1 32  1  0
  2 33  1  1
  3 34  1  0
  3 35  1  0
  3 36  1  0
  4 37  1  1
  5 38  1  0
  5 39  1  0
  6 40  1  0
  6 41  1  0
  7 42  1  0
  7 43  1  0
  9 44  1  0
  9 45  1  0
 11 46  1  0
 13 47  1  0
 14 48  1  0
 15 49  1  0
 16 50  1  0
 20 51  1  0
 24 52  1  0
 24 53  1  0
 24 54  1  0
 25 55  1  0
 26 56  1  0
 29 57  1  0
M  CHG  1   2   1
M  END
>  <filename_input>  (24) 
7LZD_YHY_docked.sdf

>  <pdb_id>  (24) 
7LZD_YHY

>  <pose_rank>  (24) 
23

>  <num_atoms_heavy>  (24) 
29

>  <num_torsions>  (24) 
4

>  <pose>  (24) 
[-10.758085068352544, 26.226344714239467, 17.731911010544636, 4.18758706855634, 0.3886828503819627, -0.8729169779090493, 0.39351745805709154, 2.050173715080488, -0.5938297461703036, 1.605368253157782]

>  <energy>  (24) 
-237.18986969921767

>  <inter_energy>  (24) 
-227.87130637594433

>  <intra_energy>  (24) 
3.6583941180183936

>  <rmsd>  (24) 
11.5808

>  <sdf_rank>  (24) 
0

$$$$

     RDKit          3D

 57 60  0  0  0  0  0  0  0  0999 V2000
    3.0350   35.2791    9.2457 C   0  0  0  0  0  0  0  0  0  0  0  0
    3.5382   35.1667    7.8472 N   0  0  1  0  0  0  0  0  0  0  0  0
    4.9998   35.4501    7.8162 C   0  0  0  0  0  0  0  0  0  0  0  0
    3.1532   33.8859    7.1633 C   0  0  2  0  0  0  0  0  0  0  0  0
    4.3577   33.2504    6.4600 C   0  0  0  0  0  0  0  0  0  0  0  0
    3.9723   32.0473    5.5971 C   0  0  0  0  0  0  0  0  0  0  0  0
    1.6312   32.8344    5.4393 C   0  0  0  0  0  0  0  0  0  0  0  0
    2.7604   32.1640    4.7606 N   0  0  0  0  0  0  0  0  0  0  0  0
    2.0987   34.1444    6.0796 C   0  0  0  0  0  0  0  0  0  0  0  0
    2.4673   31.0060    3.9728 C   0  0  0  0  0  0  0  0  0  0  0  0
    2.5899   29.7088    4.5287 C   0  0  0  0  0  0  0  0  0  0  0  0
    2.3499   28.5509    3.7929 C   0  0  0  0  0  0  0  0  0  0  0  0
    1.9635   28.6673    2.4667 C   0  0  0  0  0  0  0  0  0  0  0  0
    1.8038   29.9210    1.9138 C   0  0  0  0  0  0  0  0  0  0  0  0
    2.0555   31.0709    2.6352 C   0  0  0  0  0  0  0  0  0  0  0  0
    2.5504   27.3342    4.4490 N   0  0  0  0  0  0  0  0  0  0  0  0
    3.7601   26.8515    4.7930 C   0  0  0  0  0  0  0  0  0  0  0  0
    4.8133   27.4607    4.5634 O   0  0  0  0  0  0  0  0  0  0  0  0
    3.8396   25.5631    5.4746 C   0  0  0  0  0  0  0  0  0  0  0  0
    4.2371   25.2790    6.7446 C   0  0  0  0  0  0  0  0  0  0  0  0
    4.1167   23.8816    6.9166 C   0  0  0  0  0  0  0  0  0  0  0  0
    3.6325   23.3571    5.7014 C   0  0  0  0  0  0  0  0  0  0  0  0
    3.3946   21.9924    5.5440 C   0  0  0  0  0  0  0  0  0  0  0  0
    2.8804   21.5062    4.2013 C   0  0  0  0  0  0  0  0  0  0  0  0
    3.6593   21.1428    6.5794 C   0  0  0  0  0  0  0  0  0  0  0  0
    4.1459   21.6612    7.7958 C   0  0  0  0  0  0  0  0  0  0  0  0
    4.3819   23.0108    7.9720 C   0  0  0  0  0  0  0  0  0  0  0  0
    4.8596   23.5044    9.1596 F   0  0  0  0  0  0  0  0  0  0  0  0
    3.4534   24.4005    4.8466 N   0  0  0  0  0  0  0  0  0  0  0  0
    3.8609   35.0946    9.9485 H   0  0  0  0  0  0  0  0  0  0  0  0
    2.6323   36.2895    9.4104 H   0  0  0  0  0  0  0  0  0  0  0  0
    2.2405   34.5364    9.4104 H   0  0  0  0  0  0  0  0  0  0  0  0
    3.0639   35.8849    7.2815 H   0  0  0  0  0  0  0  0  0  0  0  0
    5.3808   35.5240    8.8455 H   0  0  0  0  0  0  0  0  0  0  0  0
    5.5201   34.6361    7.2902 H   0  0  0  0  0  0  0  0  0  0  0  0
    5.1781   36.3996    7.2902 H   0  0  0  0  0  0  0  0  0  0  0  0
    2.7625   33.2180    7.9452 H   0  0  0  0  0  0  0  0  0  0  0  0
    4.8291   34.0079    5.8166 H   0  0  0  0  0  0  0  0  0  0  0  0
    5.0460   32.8924    7.2397 H   0  0  0  0  0  0  0  0  0  0  0  0
    4.8177   31.8410    4.9242 H   0  0  0  0  0  0  0  0  0  0  0  0
    3.7374   31.2508    6.3185 H   0  0  0  0  0  0  0  0  0  0  0  0
    0.8426   33.0511    4.7036 H   0  0  0  0  0  0  0  0  0  0  0  0
    1.2411   32.1710    6.2252 H   0  0  0  0  0  0  0  0  0  0  0  0
    1.2340   34.6506    6.5335 H   0  0  0  0  0  0  0  0  0  0  0  0
    2.5493   34.7733    5.2976 H   0  0  0  0  0  0  0  0  0  0  0  0
    2.8865   29.6122    5.5836 H   0  0  0  0  0  0  0  0  0  0  0  0
    1.7857   27.7671    1.8601 H   0  0  0  0  0  0  0  0  0  0  0  0
    1.4668   30.0067    0.8702 H   0  0  0  0  0  0  0  0  0  0  0  0
    1.9310   32.0518    2.1531 H   0  0  0  0  0  0  0  0  0  0  0  0
    1.7211   26.7706    4.6847 H   0  0  0  0  0  0  0  0  0  0  0  0
    4.5866   26.0018    7.4966 H   0  0  0  0  0  0  0  0  0  0  0  0
    2.0895   20.7585    4.3604 H   0  0  0  0  0  0  0  0  0  0  0  0
    2.4725   22.3566    3.6351 H   0  0  0  0  0  0  0  0  0  0  0  0
    3.7066   21.0513    3.6351 H   0  0  0  0  0  0  0  0  0  0  0  0
    3.4940   20.0614    6.4649 H   0  0  0  0  0  0  0  0  0  0  0  0
    4.3435   20.9712    8.6293 H   0  0  0  0  0  0  0  0  0  0  0  0
    3.0883   24.3317    3.8859 H   0  0  0  0  0  0  0  0  0  0  0  0
  2  1  1  0
  2  3  1  0
  2  4  1  0
  4  5  1  0
  4  9  1  0
  5  6  1  0
  6  8  1  0
  7  8  1  0
  7  9  1  0
  8 10  1  0
 10 11  2  0
 10 15  1  0
 11 12  1  0
 12 13  2  0
 12 16  1  0
 13 14  1  0
 14 15  2  0
 16 17  1  0
 17 18  2  0
 17 19  1  0
 19 20  2  0
 19 29  1  0
 20 21  1  0
 21 22  2  0
 21 27  1  0
 22 23  1  0
 22 29  1  0
 23 24  1  0
 23 25  2  0
 25 26  1  0
 26 27  2  0
 27 28  1  0
  1 30  1  0
  1 31  1  0
  1 32  1  0
  2 33  1  6
  3 34  1  0
  3 35  1  0
  3 36  1  0
  4 37  1  1
  5 38  1  0
  5 39  1  0
  6 40  1  0
  6 41  1  0
  7 42  1  0
  7 43  1  0
  9 44  1  0
  9 45  1  0
 11 46  1  0
 13 47  1  0
 14 48  1  0
 15 49  1  0
 16 50  1  0
 20 51  1  0
 24 52  1  0
 24 53  1  0
 24 54  1  0
 25 55  1  0
 26 56  1  0
 29 57  1  0
M  CHG  1   2   1
M  END
>  <filename_input>  (25) 
7LZD_YHY_docked.sdf

>  <pdb_id>  (25) 
7LZD_YHY

>  <pose_rank>  (25) 
24

>  <num_atoms_heavy>  (25) 
29

>  <num_torsions>  (25) 
4

>  <pose>  (25) 
[2.467301089205312, 31.00598631701231, 3.9727507518616973, 0.3993285897970008, -0.15402628756245898, -0.7308227545389407, 1.3338733487681946, 0.6683082785919593, 2.5071813912798255, 4.0677405515224505]

>  <energy>  (25) 
-233.3776273768832

>  <inter_energy>  (25) 
-234.248120526242

>  <intra_energy>  (25) 
5.752732903555204

>  <rmsd>  (25) 
10.4667

>  <sdf_rank>  (25) 
0

$$$$

     RDKit          3D

 57 60  0  0  0  0  0  0  0  0999 V2000
  -11.1980   35.2840    9.0820 C   0  0  0  0  0  0  0  0  0  0  0  0
   -9.9190   34.8980    9.7430 N   0  0  1  0  0  0  0  0  0  0  0  0
   -9.9880   35.2210   11.1950 C   0  0  0  0  0  0  0  0  0  0  0  0
   -9.4860   33.4890    9.4540 C   0  0  2  0  0  0  0  0  0  0  0  0
   -8.2920   33.0870   10.3270 C   0  0  0  0  0  0  0  0  0  0  0  0
   -7.7020   31.7310    9.9350 C   0  0  0  0  0  0  0  0  0  0  0  0
   -8.6740   31.8970    7.6650 C   0  0  0  0  0  0  0  0  0  0  0  0
   -7.5370   31.4460    8.4950 N   0  0  0  0  0  0  0  0  0  0  0  0
   -9.0300   33.3490    7.9960 C   0  0  0  0  0  0  0  0  0  0  0  0
   -6.9700   30.1650    8.2030 C   0  0  0  0  0  0  0  0  0  0  0  0
   -6.0040   29.5930    9.0670 C   0  0  0  0  0  0  0  0  0  0  0  0
   -5.3980   28.3660    8.8080 C   0  0  0  0  0  0  0  0  0  0  0  0
   -5.7600   27.6670    7.6670 C   0  0  0  0  0  0  0  0  0  0  0  0
   -6.7240   28.1880    6.8290 C   0  0  0  0  0  0  0  0  0  0  0  0
   -7.3160   29.4110    7.0740 C   0  0  0  0  0  0  0  0  0  0  0  0
   -4.4290   27.9370    9.7180 N   0  0  0  0  0  0  0  0  0  0  0  0
   -4.2230   26.6480   10.0510 C   0  0  0  0  0  0  0  0  0  0  0  0
   -4.8780   25.7180    9.5620 O   0  0  0  0  0  0  0  0  0  0  0  0
   -3.1790   26.3260   11.0190 C   0  0  0  0  0  0  0  0  0  0  0  0
   -2.4980   27.1480   11.8630 C   0  0  0  0  0  0  0  0  0  0  0  0
   -1.6040   26.3400   12.6010 C   0  0  0  0  0  0  0  0  0  0  0  0
   -1.7870   25.0140   12.1600 C   0  0  0  0  0  0  0  0  0  0  0  0
   -1.0520   23.9610   12.7030 C   0  0  0  0  0  0  0  0  0  0  0  0
   -1.3030   22.5630   12.1680 C   0  0  0  0  0  0  0  0  0  0  0  0
   -0.1180   24.2220   13.6640 C   0  0  0  0  0  0  0  0  0  0  0  0
    0.0710   25.5460   14.1070 C   0  0  0  0  0  0  0  0  0  0  0  0
   -0.6520   26.6010   13.5850 C   0  0  0  0  0  0  0  0  0  0  0  0
   -0.4570   27.8870   14.0210 F   0  0  0  0  0  0  0  0  0  0  0  0
   -2.7630   25.0280   11.2120 N   0  0  0  0  0  0  0  0  0  0  0  0
  -11.9529   35.5118    9.8490 H   0  0  0  0  0  0  0  0  0  0  0  0
  -11.0330   36.1723    8.4546 H   0  0  0  0  0  0  0  0  0  0  0  0
  -11.5520   34.4527    8.4546 H   0  0  0  0  0  0  0  0  0  0  0  0
   -9.1649   35.4636    9.3278 H   0  0  0  0  0  0  0  0  0  0  0  0
   -9.7937   34.3116   11.7826 H   0  0  0  0  0  0  0  0  0  0  0  0
   -9.2323   35.9826   11.4375 H   0  0  0  0  0  0  0  0  0  0  0  0
  -10.9889   35.6074   11.4375 H   0  0  0  0  0  0  0  0  0  0  0  0
  -10.3536   32.8454    9.6615 H   0  0  0  0  0  0  0  0  0  0  0  0
   -7.5092   33.8533   10.2266 H   0  0  0  0  0  0  0  0  0  0  0  0
   -8.6517   33.0050   11.3633 H   0  0  0  0  0  0  0  0  0  0  0  0
   -6.7081   31.6578   10.4007 H   0  0  0  0  0  0  0  0  0  0  0  0
   -8.4417   30.9944   10.2819 H   0  0  0  0  0  0  0  0  0  0  0  0
   -8.3992   31.8239    6.6024 H   0  0  0  0  0  0  0  0  0  0  0  0
   -9.5450   31.2584    7.8736 H   0  0  0  0  0  0  0  0  0  0  0  0
   -9.8427   33.6796    7.3324 H   0  0  0  0  0  0  0  0  0  0  0  0
   -8.1337   33.9697    7.8499 H   0  0  0  0  0  0  0  0  0  0  0  0
   -5.7213   30.1397    9.9787 H   0  0  0  0  0  0  0  0  0  0  0  0
   -5.2823   26.7045    7.4316 H   0  0  0  0  0  0  0  0  0  0  0  0
   -7.0292   27.6137    5.9419 H   0  0  0  0  0  0  0  0  0  0  0  0
   -8.0698   29.7988    6.3730 H   0  0  0  0  0  0  0  0  0  0  0  0
   -3.8345   28.6512   10.1624 H   0  0  0  0  0  0  0  0  0  0  0  0
   -2.6205   28.2374   11.9537 H   0  0  0  0  0  0  0  0  0  0  0  0
   -1.4282   21.8655   13.0093 H   0  0  0  0  0  0  0  0  0  0  0  0
   -2.2153   22.5639   11.5535 H   0  0  0  0  0  0  0  0  0  0  0  0
   -0.4473   22.2465   11.5535 H   0  0  0  0  0  0  0  0  0  0  0  0
    0.4826   23.4045   14.0893 H   0  0  0  0  0  0  0  0  0  0  0  0
    0.8160   25.7454   14.8914 H   0  0  0  0  0  0  0  0  0  0  0  0
   -3.1307   24.2018   10.7190 H   0  0  0  0  0  0  0  0  0  0  0  0
  2  1  1  0
  2  3  1  0
  2  4  1  0
  4  5  1  0
  4  9  1  0
  5  6  1  0
  6  8  1  0
  7  8  1  0
  7  9  1  0
  8 10  1  0
 10 11  2  0
 10 15  1  0
 11 12  1  0
 12 13  2  0
 12 16  1  0
 13 14  1  0
 14 15  2  0
 16 17  1  0
 17 18  2  0
 17 19  1  0
 19 20  2  0
 19 29  1  0
 20 21  1  0
 21 22  2  0
 21 27  1  0
 22 23  1  0
 22 29  1  0
 23 24  1  0
 23 25  2  0
 25 26  1  0
 26 27  2  0
 27 28  1  0
  1 30  1  0
  1 31  1  0
  1 32  1  0
  2 33  1  6
  3 34  1  0
  3 35  1  0
  3 36  1  0
  4 37  1  6
  5 38  1  0
  5 39  1  0
  6 40  1  0
  6 41  1  0
  7 42  1  0
  7 43  1  0
  9 44  1  0
  9 45  1  0
 11 46  1  0
 13 47  1  0
 14 48  1  0
 15 49  1  0
 16 50  1  0
 20 51  1  0
 24 52  1  0
 24 53  1  0
 24 54  1  0
 25 55  1  0
 26 56  1  0
 29 57  1  0
M  CHG  1   2   1
M  END
>  <filename_input>  (26) 
7LZD_YHY_docked.sdf

>  <pdb_id>  (26) 
7LZD_YHY

>  <pose_rank>  (26) 
25

>  <num_atoms_heavy>  (26) 
29

>  <num_torsions>  (26) 
4

>  <pose>  (26) 
[-6.97, 30.165, 8.203, 1e-06, 1e-06, 1e-06, 0.0, 0.0, 0.0, 0.0]

>  <energy>  (26) 
-995.2597698533822

>  <inter_energy>  (26) 
-1012.4904966413307

>  <intra_energy>  (26) 
16.521702945564247

>  <rmsd>  (26) 
0.0

>  <sdf_rank>  (26) 
0

$$$$
