
     RDKit          3D

 15 15  0  0  0  0  0  0  0  0999 V2000
   -3.3055  104.2075   27.6414 N   0  0  0  0  0  0  0  0  0  0  0  0
   -3.3619  104.2496   26.1922 C   0  0  0  0  0  0  0  0  0  0  0  0
   -4.3415  104.6288   25.6427 O   0  0  0  0  0  0  0  0  0  0  0  0
   -2.2422  103.8266   25.4328 N   0  0  0  0  0  0  0  0  0  0  0  0
   -1.0653  103.3738   26.0725 C   0  0  0  0  0  0  0  0  0  0  0  0
   -0.1394  103.0317   25.4174 O   0  0  0  0  0  0  0  0  0  0  0  0
   -1.0041  103.3399   27.5930 C   0  0  0  0  0  0  0  0  0  0  0  0
    0.2540  102.8465   28.3012 C   0  0  0  0  0  0  0  0  0  0  0  0
   -2.0729  103.7286   28.3149 C   0  0  0  0  0  0  0  0  0  0  0  0
   -4.1169  104.5084   28.2000 H   0  0  0  0  0  0  0  0  0  0  0  0
   -2.2864  103.8492   24.4040 H   0  0  0  0  0  0  0  0  0  0  0  0
    0.1082  102.9037   29.3900 H   0  0  0  0  0  0  0  0  0  0  0  0
    0.4526  101.8040   28.0121 H   0  0  0  0  0  0  0  0  0  0  0  0
    1.1083  103.4763   28.0121 H   0  0  0  0  0  0  0  0  0  0  0  0
   -2.0317  103.6907   29.4134 H   0  0  0  0  0  0  0  0  0  0  0  0
  1  2  1  0
  1  9  1  0
  2  3  2  0
  2  4  1  0
  4  5  1  0
  5  6  2  0
  5  7  1  0
  7  8  1  0
  7  9  2  0
  1 10  1  0
  4 11  1  0
  8 12  1  0
  8 13  1  0
  8 14  1  0
  9 15  1  0
M  END
>  <filename_input>  (1) 
7M31_TDR_docked.sdf

>  <pdb_id>  (1) 
7M31_TDR

>  <pose_rank>  (1) 
0

>  <num_atoms_heavy>  (1) 
9

>  <num_torsions>  (1) 
0

>  <pose>  (1) 
[-3.305532503517459, 104.20748595101881, 27.641425552512985, 1.0314359718246287, 1.9225405259258868, 0.7565876546236472]

>  <energy>  (1) 
-401.353346706833

>  <inter_energy>  (1) 
-393.48367834661127

>  <intra_energy>  (1) 
0.0

>  <rmsd>  (1) 
3.52104

>  <sdf_rank>  (1) 
0

$$$$

     RDKit          3D

 15 15  0  0  0  0  0  0  0  0999 V2000
   -1.8847  103.9523   28.6719 N   0  0  0  0  0  0  0  0  0  0  0  0
   -0.5937  103.3722   28.3525 C   0  0  0  0  0  0  0  0  0  0  0  0
    0.2634  103.3334   29.1707 O   0  0  0  0  0  0  0  0  0  0  0  0
   -0.3562  102.8585   27.0529 N   0  0  0  0  0  0  0  0  0  0  0  0
   -1.3683  102.8948   26.0661 C   0  0  0  0  0  0  0  0  0  0  0  0
   -1.1495  102.4532   24.9888 O   0  0  0  0  0  0  0  0  0  0  0  0
   -2.7255  103.4944   26.4059 C   0  0  0  0  0  0  0  0  0  0  0  0
   -3.8272  103.5501   25.3519 C   0  0  0  0  0  0  0  0  0  0  0  0
   -2.9469  103.9954   27.6365 C   0  0  0  0  0  0  0  0  0  0  0  0
   -2.0630  104.3322   29.6125 H   0  0  0  0  0  0  0  0  0  0  0  0
    0.5634  102.4544   26.8249 H   0  0  0  0  0  0  0  0  0  0  0  0
   -4.8075  103.5997   25.8484 H   0  0  0  0  0  0  0  0  0  0  0  0
   -3.6888  104.4424   24.7237 H   0  0  0  0  0  0  0  0  0  0  0  0
   -3.7796  102.6484   24.7237 H   0  0  0  0  0  0  0  0  0  0  0  0
   -3.9239  104.4404   27.8762 H   0  0  0  0  0  0  0  0  0  0  0  0
  1  2  1  0
  1  9  1  0
  2  3  2  0
  2  4  1  0
  4  5  1  0
  5  6  2  0
  5  7  1  0
  7  8  1  0
  7  9  2  0
  1 10  1  0
  4 11  1  0
  8 12  1  0
  8 13  1  0
  8 14  1  0
  9 15  1  0
M  END
>  <filename_input>  (2) 
7M31_TDR_docked.sdf

>  <pdb_id>  (2) 
7M31_TDR

>  <pose_rank>  (2) 
1

>  <num_atoms_heavy>  (2) 
9

>  <num_torsions>  (2) 
0

>  <pose>  (2) 
[-1.8846948615683152, 103.95225466967217, 28.671930417184594, -2.9918751331966, 2.0933481711548123, -0.9219262202723523]

>  <energy>  (2) 
-406.3972188314086

>  <inter_energy>  (2) 
-418.4244618878594

>  <intra_energy>  (2) 
0.0

>  <rmsd>  (2) 
2.84809

>  <sdf_rank>  (2) 
0

$$$$

     RDKit          3D

 15 15  0  0  0  0  0  0  0  0999 V2000
   -0.8064  103.0188   27.4897 N   0  0  0  0  0  0  0  0  0  0  0  0
   -0.7701  103.1796   26.0482 C   0  0  0  0  0  0  0  0  0  0  0  0
    0.1736  102.8163   25.4295 O   0  0  0  0  0  0  0  0  0  0  0  0
   -1.8658  103.7822   25.3806 N   0  0  0  0  0  0  0  0  0  0  0  0
   -3.0000  104.2189   26.1031 C   0  0  0  0  0  0  0  0  0  0  0  0
   -3.9070  104.7134   25.5232 O   0  0  0  0  0  0  0  0  0  0  0  0
   -3.0409  104.0401   27.6142 C   0  0  0  0  0  0  0  0  0  0  0  0
   -4.2524  104.5127   28.4120 C   0  0  0  0  0  0  0  0  0  0  0  0
   -1.9939  103.4803   28.2506 C   0  0  0  0  0  0  0  0  0  0  0  0
   -0.0119  102.5864   27.9825 H   0  0  0  0  0  0  0  0  0  0  0  0
   -1.8353  103.9033   24.3581 H   0  0  0  0  0  0  0  0  0  0  0  0
   -4.0384  104.4292   29.4877 H   0  0  0  0  0  0  0  0  0  0  0  0
   -4.4699  105.5616   28.1617 H   0  0  0  0  0  0  0  0  0  0  0  0
   -5.1226  103.8881   28.1617 H   0  0  0  0  0  0  0  0  0  0  0  0
   -2.0195  103.3641   29.3441 H   0  0  0  0  0  0  0  0  0  0  0  0
  1  2  1  0
  1  9  1  0
  2  3  2  0
  2  4  1  0
  4  5  1  0
  5  6  2  0
  5  7  1  0
  7  8  1  0
  7  9  2  0
  1 10  1  0
  4 11  1  0
  8 12  1  0
  8 13  1  0
  8 14  1  0
  9 15  1  0
M  END
>  <filename_input>  (3) 
7M31_TDR_docked.sdf

>  <pdb_id>  (3) 
7M31_TDR

>  <pose_rank>  (3) 
2

>  <num_atoms_heavy>  (3) 
9

>  <num_torsions>  (3) 
0

>  <pose>  (3) 
[-0.8063834081579084, 103.01875074613505, 27.489740609605064, -2.8347005512438255, 1.4963878801132138, 1.668434352631401]

>  <energy>  (3) 
-426.01769990701234

>  <inter_energy>  (3) 
-413.7840816837739

>  <intra_energy>  (3) 
0.0

>  <rmsd>  (3) 
2.20561

>  <sdf_rank>  (3) 
0

$$$$

     RDKit          3D

 15 15  0  0  0  0  0  0  0  0999 V2000
   -1.1707  103.8202   28.6124 N   0  0  0  0  0  0  0  0  0  0  0  0
   -2.2062  102.8809   28.2244 C   0  0  0  0  0  0  0  0  0  0  0  0
   -3.0586  102.5800   28.9915 O   0  0  0  0  0  0  0  0  0  0  0  0
   -2.1910  102.3154   26.9246 N   0  0  0  0  0  0  0  0  0  0  0  0
   -1.1830  102.6652   25.9968 C   0  0  0  0  0  0  0  0  0  0  0  0
   -1.1942  102.1853   24.9137 O   0  0  0  0  0  0  0  0  0  0  0  0
   -0.1031  103.6586   26.4020 C   0  0  0  0  0  0  0  0  0  0  0  0
    0.9976  104.0420   25.4175 C   0  0  0  0  0  0  0  0  0  0  0  0
   -0.1093  104.1855   27.6417 C   0  0  0  0  0  0  0  0  0  0  0  0
   -1.1723  104.2314   29.5567 H   0  0  0  0  0  0  0  0  0  0  0  0
   -2.9220  101.6424   26.6532 H   0  0  0  0  0  0  0  0  0  0  0  0
    1.8941  104.3542   25.9732 H   0  0  0  0  0  0  0  0  0  0  0  0
    1.2416  103.1759   24.7848 H   0  0  0  0  0  0  0  0  0  0  0  0
    0.6507  104.8722   24.7848 H   0  0  0  0  0  0  0  0  0  0  0  0
    0.6795  104.8929   27.9372 H   0  0  0  0  0  0  0  0  0  0  0  0
  1  2  1  0
  1  9  1  0
  2  3  2  0
  2  4  1  0
  4  5  1  0
  5  6  2  0
  5  7  1  0
  7  8  1  0
  7  9  2  0
  1 10  1  0
  4 11  1  0
  8 12  1  0
  8 13  1  0
  8 14  1  0
  9 15  1  0
M  END
>  <filename_input>  (4) 
7M31_TDR_docked.sdf

>  <pdb_id>  (4) 
7M31_TDR

>  <pose_rank>  (4) 
3

>  <num_atoms_heavy>  (4) 
9

>  <num_torsions>  (4) 
0

>  <pose>  (4) 
[-1.1707145627334665, 103.82018673006853, 28.61236187478562, 0.5085819012525316, 3.33157978401456, -0.14739939073841418]

>  <energy>  (4) 
-412.6385510378293

>  <inter_energy>  (4) 
-384.13411909330426

>  <intra_energy>  (4) 
0.0

>  <rmsd>  (4) 
3.66553

>  <sdf_rank>  (4) 
0

$$$$

     RDKit          3D

 15 15  0  0  0  0  0  0  0  0999 V2000
   -2.3974  103.9376   25.5325 N   0  0  0  0  0  0  0  0  0  0  0  0
   -1.5607  102.8980   26.1018 C   0  0  0  0  0  0  0  0  0  0  0  0
   -0.7452  102.3544   25.4347 O   0  0  0  0  0  0  0  0  0  0  0  0
   -1.7273  102.5266   27.4596 N   0  0  0  0  0  0  0  0  0  0  0  0
   -2.6936  103.1664   28.2697 C   0  0  0  0  0  0  0  0  0  0  0  0
   -2.8104  102.8444   29.4039 O   0  0  0  0  0  0  0  0  0  0  0  0
   -3.5637  104.2640   27.6737 C   0  0  0  0  0  0  0  0  0  0  0  0
   -4.6175  104.9600   28.5298 C   0  0  0  0  0  0  0  0  0  0  0  0
   -3.4152  104.6074   26.3797 C   0  0  0  0  0  0  0  0  0  0  0  0
   -2.2857  104.2093   24.5453 H   0  0  0  0  0  0  0  0  0  0  0  0
   -1.1382  101.7828   27.8604 H   0  0  0  0  0  0  0  0  0  0  0  0
   -4.3851  104.8065   29.5940 H   0  0  0  0  0  0  0  0  0  0  0  0
   -4.6185  106.0370   28.3063 H   0  0  0  0  0  0  0  0  0  0  0  0
   -5.6085  104.5382   28.3063 H   0  0  0  0  0  0  0  0  0  0  0  0
   -4.0540  105.3914   25.9471 H   0  0  0  0  0  0  0  0  0  0  0  0
  1  2  1  0
  1  9  1  0
  2  3  2  0
  2  4  1  0
  4  5  1  0
  5  6  2  0
  5  7  1  0
  7  8  1  0
  7  9  2  0
  1 10  1  0
  4 11  1  0
  8 12  1  0
  8 13  1  0
  8 14  1  0
  9 15  1  0
M  END
>  <filename_input>  (5) 
7M31_TDR_docked.sdf

>  <pdb_id>  (5) 
7M31_TDR

>  <pose_rank>  (5) 
4

>  <num_atoms_heavy>  (5) 
9

>  <num_torsions>  (5) 
0

>  <pose>  (5) 
[-2.3974439181882317, 103.9375553431845, 25.532471501256516, 0.8624413368627535, -5.162105270108079, -3.0509044584517464]

>  <energy>  (5) 
-351.4414397645698

>  <inter_energy>  (5) 
-354.530215750239

>  <intra_energy>  (5) 
0.0

>  <rmsd>  (5) 
0.536549

>  <sdf_rank>  (5) 
0

$$$$

     RDKit          3D

 15 15  0  0  0  0  0  0  0  0999 V2000
    0.2207  106.0262   30.0887 N   0  0  0  0  0  0  0  0  0  0  0  0
   -0.0734  107.4469   30.0798 C   0  0  0  0  0  0  0  0  0  0  0  0
   -0.7242  107.9283   30.9460 O   0  0  0  0  0  0  0  0  0  0  0  0
    0.4135  108.2589   29.0248 N   0  0  0  0  0  0  0  0  0  0  0  0
    1.1930  107.7012   27.9853 C   0  0  0  0  0  0  0  0  0  0  0  0
    1.5952  108.4003   27.1176 O   0  0  0  0  0  0  0  0  0  0  0  0
    1.5094  106.2124   28.0015 C   0  0  0  0  0  0  0  0  0  0  0  0
    2.3419  105.5909   26.8841 C   0  0  0  0  0  0  0  0  0  0  0  0
    1.0351  105.4380   28.9964 C   0  0  0  0  0  0  0  0  0  0  0  0
   -0.1339  105.4289   30.8492 H   0  0  0  0  0  0  0  0  0  0  0  0
    0.1971  109.2659   29.0154 H   0  0  0  0  0  0  0  0  0  0  0  0
    3.1506  104.9872   27.3218 H   0  0  0  0  0  0  0  0  0  0  0  0
    1.7003  104.9490   26.2625 H   0  0  0  0  0  0  0  0  0  0  0  0
    2.7749  106.3884   26.2625 H   0  0  0  0  0  0  0  0  0  0  0  0
    1.2534  104.3599   28.9993 H   0  0  0  0  0  0  0  0  0  0  0  0
  1  2  1  0
  1  9  1  0
  2  3  2  0
  2  4  1  0
  4  5  1  0
  5  6  2  0
  5  7  1  0
  7  8  1  0
  7  9  2  0
  1 10  1  0
  4 11  1  0
  8 12  1  0
  8 13  1  0
  8 14  1  0
  9 15  1  0
M  END
>  <filename_input>  (6) 
7M31_TDR_docked.sdf

>  <pdb_id>  (6) 
7M31_TDR

>  <pose_rank>  (6) 
5

>  <num_atoms_heavy>  (6) 
9

>  <num_torsions>  (6) 
0

>  <pose>  (6) 
[0.2207211026300812, 106.02620299764993, 30.088665055803503, -6.959292225190495, -3.6556876947881216, -4.68702777903681]

>  <energy>  (6) 
-134.35479191013383

>  <inter_energy>  (6) 
-139.71301147797084

>  <intra_energy>  (6) 
0.0

>  <rmsd>  (6) 
6.43884

>  <sdf_rank>  (6) 
0

$$$$

     RDKit          3D

 15 15  0  0  0  0  0  0  0  0999 V2000
   -4.0475  104.6197   26.6804 N   0  0  0  0  0  0  0  0  0  0  0  0
   -3.8270  105.4511   27.8489 C   0  0  0  0  0  0  0  0  0  0  0  0
   -4.5834  106.3252   28.1122 O   0  0  0  0  0  0  0  0  0  0  0  0
   -2.6965  105.2205   28.6723 N   0  0  0  0  0  0  0  0  0  0  0  0
   -1.7858  104.1808   28.3738 C   0  0  0  0  0  0  0  0  0  0  0  0
   -0.8517  104.0020   29.0801 O   0  0  0  0  0  0  0  0  0  0  0  0
   -2.0241  103.3029   27.1533 C   0  0  0  0  0  0  0  0  0  0  0  0
   -1.0481  102.1816   26.8102 C   0  0  0  0  0  0  0  0  0  0  0  0
   -3.0907  103.5307   26.3628 C   0  0  0  0  0  0  0  0  0  0  0  0
   -4.8639  104.7845   26.0745 H   0  0  0  0  0  0  0  0  0  0  0  0
   -2.5366  105.8166   29.4969 H   0  0  0  0  0  0  0  0  0  0  0  0
   -0.6604  101.7362   27.7383 H   0  0  0  0  0  0  0  0  0  0  0  0
   -1.5675  101.4104   26.2225 H   0  0  0  0  0  0  0  0  0  0  0  0
   -0.2126  102.5897   26.2225 H   0  0  0  0  0  0  0  0  0  0  0  0
   -3.2539  102.9039   25.4737 H   0  0  0  0  0  0  0  0  0  0  0  0
  1  2  1  0
  1  9  1  0
  2  3  2  0
  2  4  1  0
  4  5  1  0
  5  6  2  0
  5  7  1  0
  7  8  1  0
  7  9  2  0
  1 10  1  0
  4 11  1  0
  8 12  1  0
  8 13  1  0
  8 14  1  0
  9 15  1  0
M  END
>  <filename_input>  (7) 
7M31_TDR_docked.sdf

>  <pdb_id>  (7) 
7M31_TDR

>  <pose_rank>  (7) 
6

>  <num_atoms_heavy>  (7) 
9

>  <num_torsions>  (7) 
0

>  <pose>  (7) 
[-4.047466464330828, 104.61972501381986, 26.680408774955975, 0.8396422907571144, -0.5290338815869505, 2.7318481711546774]

>  <energy>  (7) 
-361.4774684071424

>  <inter_energy>  (7) 
-332.249221533255

>  <intra_energy>  (7) 
0.0

>  <rmsd>  (7) 
3.56176

>  <sdf_rank>  (7) 
0

$$$$

     RDKit          3D

 15 15  0  0  0  0  0  0  0  0999 V2000
   -2.2688  103.9847   28.8050 N   0  0  0  0  0  0  0  0  0  0  0  0
   -3.2250  104.9967   28.3967 C   0  0  0  0  0  0  0  0  0  0  0  0
   -3.8183  105.6219   29.2107 O   0  0  0  0  0  0  0  0  0  0  0  0
   -3.4551  105.2304   27.0176 N   0  0  0  0  0  0  0  0  0  0  0  0
   -2.7542  104.4952   26.0340 C   0  0  0  0  0  0  0  0  0  0  0  0
   -2.9577  104.7126   24.8873 O   0  0  0  0  0  0  0  0  0  0  0  0
   -1.7439  103.4410   26.4640 C   0  0  0  0  0  0  0  0  0  0  0  0
   -0.9842  102.6318   25.4172 C   0  0  0  0  0  0  0  0  0  0  0  0
   -1.5353  103.2089   27.7743 C   0  0  0  0  0  0  0  0  0  0  0  0
   -2.1000  103.8056   29.8052 H   0  0  0  0  0  0  0  0  0  0  0  0
   -4.1401  105.9434   26.7291 H   0  0  0  0  0  0  0  0  0  0  0  0
   -0.3146  101.9186   25.9202 H   0  0  0  0  0  0  0  0  0  0  0  0
   -1.6999  102.0819   24.7884 H   0  0  0  0  0  0  0  0  0  0  0  0
   -0.3903  103.3114   24.7884 H   0  0  0  0  0  0  0  0  0  0  0  0
   -0.8147  102.4373   28.0832 H   0  0  0  0  0  0  0  0  0  0  0  0
  1  2  1  0
  1  9  1  0
  2  3  2  0
  2  4  1  0
  4  5  1  0
  5  6  2  0
  5  7  1  0
  7  8  1  0
  7  9  2  0
  1 10  1  0
  4 11  1  0
  8 12  1  0
  8 13  1  0
  8 14  1  0
  9 15  1  0
M  END
>  <filename_input>  (8) 
7M31_TDR_docked.sdf

>  <pdb_id>  (8) 
7M31_TDR

>  <pose_rank>  (8) 
7

>  <num_atoms_heavy>  (8) 
9

>  <num_torsions>  (8) 
0

>  <pose>  (8) 
[-2.2688190872465035, 103.98466726981684, 28.805020810958084, 2.510433271897647, 2.1665504199387073, 0.7179223053351373]

>  <energy>  (8) 
-300.1989787511933

>  <inter_energy>  (8) 
-290.17772206135584

>  <intra_energy>  (8) 
0.0

>  <rmsd>  (8) 
3.94787

>  <sdf_rank>  (8) 
0

$$$$

     RDKit          3D

 15 15  0  0  0  0  0  0  0  0999 V2000
   -1.6967  103.6074   25.8850 N   0  0  0  0  0  0  0  0  0  0  0  0
   -1.2542  102.5758   26.8043 C   0  0  0  0  0  0  0  0  0  0  0  0
   -0.4601  101.7666   26.4579 O   0  0  0  0  0  0  0  0  0  0  0  0
   -1.7824  102.5326   28.1191 N   0  0  0  0  0  0  0  0  0  0  0  0
   -2.7285  103.4913   28.5490 C   0  0  0  0  0  0  0  0  0  0  0  0
   -3.1509  103.4399   29.6546 O   0  0  0  0  0  0  0  0  0  0  0  0
   -3.1839  104.5791   27.5866 C   0  0  0  0  0  0  0  0  0  0  0  0
   -4.2103  105.6174   28.0295 C   0  0  0  0  0  0  0  0  0  0  0  0
   -2.6928  104.6121   26.3327 C   0  0  0  0  0  0  0  0  0  0  0  0
   -1.3213  103.6422   24.9265 H   0  0  0  0  0  0  0  0  0  0  0  0
   -1.4736  101.7948   28.7682 H   0  0  0  0  0  0  0  0  0  0  0  0
   -4.2453  105.6528   29.1284 H   0  0  0  0  0  0  0  0  0  0  0  0
   -3.9241  106.6054   27.6398 H   0  0  0  0  0  0  0  0  0  0  0  0
   -5.2016  105.3426   27.6398 H   0  0  0  0  0  0  0  0  0  0  0  0
   -3.0332  105.3908   25.6343 H   0  0  0  0  0  0  0  0  0  0  0  0
  1  2  1  0
  1  9  1  0
  2  3  2  0
  2  4  1  0
  4  5  1  0
  5  6  2  0
  5  7  1  0
  7  8  1  0
  7  9  2  0
  1 10  1  0
  4 11  1  0
  8 12  1  0
  8 13  1  0
  8 14  1  0
  9 15  1  0
M  END
>  <filename_input>  (9) 
7M31_TDR_docked.sdf

>  <pdb_id>  (9) 
7M31_TDR

>  <pose_rank>  (9) 
8

>  <num_atoms_heavy>  (9) 
9

>  <num_torsions>  (9) 
0

>  <pose>  (9) 
[-1.6966697839854938, 103.60739651795224, 25.885005221722196, -5.685018452238855, -0.8132290139386236, -3.1011029409913577]

>  <energy>  (9) 
-300.74036747933445

>  <inter_energy>  (9) 
-310.7090821569595

>  <intra_energy>  (9) 
0.0

>  <rmsd>  (9) 
0.727499

>  <sdf_rank>  (9) 
0

$$$$

     RDKit          3D

 15 15  0  0  0  0  0  0  0  0999 V2000
    1.6499  103.7180   27.1965 N   0  0  0  0  0  0  0  0  0  0  0  0
    0.7816  104.1929   26.1356 C   0  0  0  0  0  0  0  0  0  0  0  0
    1.2431  104.6754   25.1560 O   0  0  0  0  0  0  0  0  0  0  0  0
   -0.6248  104.0862   26.2778 N   0  0  0  0  0  0  0  0  0  0  0  0
   -1.1915  103.5113   27.4387 C   0  0  0  0  0  0  0  0  0  0  0  0
   -2.3694  103.4261   27.5327 O   0  0  0  0  0  0  0  0  0  0  0  0
   -0.2788  103.0042   28.5463 C   0  0  0  0  0  0  0  0  0  0  0  0
   -0.8720  102.3884   29.8100 C   0  0  0  0  0  0  0  0  0  0  0  0
    1.0572  103.1181   28.4176 C   0  0  0  0  0  0  0  0  0  0  0  0
    2.6726  103.7967   27.1026 H   0  0  0  0  0  0  0  0  0  0  0  0
   -1.2404  104.4312   25.5276 H   0  0  0  0  0  0  0  0  0  0  0  0
   -0.4186  102.8591   30.6948 H   0  0  0  0  0  0  0  0  0  0  0  0
   -1.9593  102.5543   29.8231 H   0  0  0  0  0  0  0  0  0  0  0  0
   -0.6657  101.3081   29.8231 H   0  0  0  0  0  0  0  0  0  0  0  0
    1.7147  102.7634   29.2249 H   0  0  0  0  0  0  0  0  0  0  0  0
  1  2  1  0
  1  9  1  0
  2  3  2  0
  2  4  1  0
  4  5  1  0
  5  6  2  0
  5  7  1  0
  7  8  1  0
  7  9  2  0
  1 10  1  0
  4 11  1  0
  8 12  1  0
  8 13  1  0
  8 14  1  0
  9 15  1  0
M  END
>  <filename_input>  (10) 
7M31_TDR_docked.sdf

>  <pdb_id>  (10) 
7M31_TDR

>  <pose_rank>  (10) 
9

>  <num_atoms_heavy>  (10) 
9

>  <num_torsions>  (10) 
0

>  <pose>  (10) 
[1.64992221595106, 103.71797198399707, 27.196523683968543, -7.735317983597581, -0.20807019185104322, 6.329191326478157]

>  <energy>  (10) 
-211.0494930280353

>  <inter_energy>  (10) 
-218.62918599451234

>  <intra_energy>  (10) 
0.0

>  <rmsd>  (10) 
3.31272

>  <sdf_rank>  (10) 
0

$$$$

     RDKit          3D

 15 15  0  0  0  0  0  0  0  0999 V2000
   -1.8949  103.9368   25.5894 N   0  0  0  0  0  0  0  0  0  0  0  0
   -1.3006  102.7975   26.2632 C   0  0  0  0  0  0  0  0  0  0  0  0
   -0.4392  102.1748   25.7382 O   0  0  0  0  0  0  0  0  0  0  0  0
   -1.7603  102.4244   27.5512 N   0  0  0  0  0  0  0  0  0  0  0  0
   -2.7851  103.1577   28.1924 C   0  0  0  0  0  0  0  0  0  0  0  0
   -3.1485  102.8317   29.2719 O   0  0  0  0  0  0  0  0  0  0  0  0
   -3.4005  104.3589   27.4886 C   0  0  0  0  0  0  0  0  0  0  0  0
   -4.5132  105.1573   28.1609 C   0  0  0  0  0  0  0  0  0  0  0  0
   -2.9737  104.7052   26.2588 C   0  0  0  0  0  0  0  0  0  0  0  0
   -1.5697  104.2108   24.6513 H   0  0  0  0  0  0  0  0  0  0  0  0
   -1.3432  101.6105   28.0250 H   0  0  0  0  0  0  0  0  0  0  0  0
   -4.4093  105.0828   29.2535 H   0  0  0  0  0  0  0  0  0  0  0  0
   -4.4426  106.2122   27.8570 H   0  0  0  0  0  0  0  0  0  0  0  0
   -5.4899  104.7527   27.8570 H   0  0  0  0  0  0  0  0  0  0  0  0
   -3.4288  105.5654   25.7460 H   0  0  0  0  0  0  0  0  0  0  0  0
  1  2  1  0
  1  9  1  0
  2  3  2  0
  2  4  1  0
  4  5  1  0
  5  6  2  0
  5  7  1  0
  7  8  1  0
  7  9  2  0
  1 10  1  0
  4 11  1  0
  8 12  1  0
  8 13  1  0
  8 14  1  0
  9 15  1  0
M  END
>  <filename_input>  (11) 
7M31_TDR_docked.sdf

>  <pdb_id>  (11) 
7M31_TDR

>  <pose_rank>  (11) 
10

>  <num_atoms_heavy>  (11) 
9

>  <num_torsions>  (11) 
0

>  <pose>  (11) 
[-1.8949203212387349, 103.93676276670402, 25.589444013051164, -4.208980155594232, 4.498465936723327, -1.261532393555135]

>  <energy>  (11) 
-323.4748097338945

>  <inter_energy>  (11) 
-335.0137375876015

>  <intra_energy>  (11) 
0.0

>  <rmsd>  (11) 
0.308271

>  <sdf_rank>  (11) 
0

$$$$

     RDKit          3D

 15 15  0  0  0  0  0  0  0  0999 V2000
   -0.3623  104.9679   27.9719 N   0  0  0  0  0  0  0  0  0  0  0  0
    0.0875  103.6162   28.2473 C   0  0  0  0  0  0  0  0  0  0  0  0
    1.2296  103.3274   28.1145 O   0  0  0  0  0  0  0  0  0  0  0  0
   -0.8466  102.6367   28.6684 N   0  0  0  0  0  0  0  0  0  0  0  0
   -2.2119  102.9651   28.8341 C   0  0  0  0  0  0  0  0  0  0  0  0
   -2.9734  102.1319   29.1938 O   0  0  0  0  0  0  0  0  0  0  0  0
   -2.6805  104.3862   28.5546 C   0  0  0  0  0  0  0  0  0  0  0  0
   -4.1510  104.7575   28.7196 C   0  0  0  0  0  0  0  0  0  0  0  0
   -1.7955  105.3137   28.1410 C   0  0  0  0  0  0  0  0  0  0  0  0
    0.3096  105.6837   27.6606 H   0  0  0  0  0  0  0  0  0  0  0  0
   -0.5274  101.6755   28.8557 H   0  0  0  0  0  0  0  0  0  0  0  0
   -4.3957  104.8192   29.7903 H   0  0  0  0  0  0  0  0  0  0  0  0
   -4.3390  105.7312   28.2438 H   0  0  0  0  0  0  0  0  0  0  0  0
   -4.7787  103.9896   28.2438 H   0  0  0  0  0  0  0  0  0  0  0  0
   -2.1383  106.3367   27.9265 H   0  0  0  0  0  0  0  0  0  0  0  0
  1  2  1  0
  1  9  1  0
  2  3  2  0
  2  4  1  0
  4  5  1  0
  5  6  2  0
  5  7  1  0
  7  8  1  0
  7  9  2  0
  1 10  1  0
  4 11  1  0
  8 12  1  0
  8 13  1  0
  8 14  1  0
  9 15  1  0
M  END
>  <filename_input>  (12) 
7M31_TDR_docked.sdf

>  <pdb_id>  (12) 
7M31_TDR

>  <pose_rank>  (12) 
11

>  <num_atoms_heavy>  (12) 
9

>  <num_torsions>  (12) 
0

>  <pose>  (12) 
[-0.3623380678966165, 104.96785379438005, 27.97191050967976, -3.5997547396988074, 3.994299068808362, -0.8221345623196633]

>  <energy>  (12) 
-266.6538681959257

>  <inter_energy>  (12) 
-252.32223840164852

>  <intra_energy>  (12) 
0.0

>  <rmsd>  (12) 
2.10471

>  <sdf_rank>  (12) 
0

$$$$

     RDKit          3D

 15 15  0  0  0  0  0  0  0  0999 V2000
    0.3598  110.2145   27.5764 N   0  0  0  0  0  0  0  0  0  0  0  0
    0.7198  108.8193   27.7468 C   0  0  0  0  0  0  0  0  0  0  0  0
    1.6662  108.3735   27.1890 O   0  0  0  0  0  0  0  0  0  0  0  0
   -0.0705  107.9860   28.5776 N   0  0  0  0  0  0  0  0  0  0  0  0
   -1.2010  108.5023   29.2520 C   0  0  0  0  0  0  0  0  0  0  0  0
   -1.8427  107.7889   29.9468 O   0  0  0  0  0  0  0  0  0  0  0  0
   -1.5714  109.9687   29.0803 C   0  0  0  0  0  0  0  0  0  0  0  0
   -2.7925  110.5419   29.7931 C   0  0  0  0  0  0  0  0  0  0  0  0
   -0.8288  110.7574   28.2798 C   0  0  0  0  0  0  0  0  0  0  0  0
    0.9263  110.8249   26.9703 H   0  0  0  0  0  0  0  0  0  0  0  0
    0.1814  106.9937   28.6913 H   0  0  0  0  0  0  0  0  0  0  0  0
   -2.6473  110.4738   30.8813 H   0  0  0  0  0  0  0  0  0  0  0  0
   -2.9236  111.5957   29.5059 H   0  0  0  0  0  0  0  0  0  0  0  0
   -3.6869  109.9696   29.5059 H   0  0  0  0  0  0  0  0  0  0  0  0
   -1.1058  111.8136   28.1463 H   0  0  0  0  0  0  0  0  0  0  0  0
  1  2  1  0
  1  9  1  0
  2  3  2  0
  2  4  1  0
  4  5  1  0
  5  6  2  0
  5  7  1  0
  7  8  1  0
  7  9  2  0
  1 10  1  0
  4 11  1  0
  8 12  1  0
  8 13  1  0
  8 14  1  0
  9 15  1  0
M  END
>  <filename_input>  (13) 
7M31_TDR_docked.sdf

>  <pdb_id>  (13) 
7M31_TDR

>  <pose_rank>  (13) 
12

>  <num_atoms_heavy>  (13) 
9

>  <num_torsions>  (13) 
0

>  <pose>  (13) 
[0.3597831817791079, 110.21447451606832, 27.57643077175338, -10.524614629858593, 5.393238330344725, 2.155075589982161]

>  <energy>  (13) 
-100.84766026254295

>  <inter_energy>  (13) 
-101.90957182555266

>  <intra_energy>  (13) 
0.0

>  <rmsd>  (13) 
6.39348

>  <sdf_rank>  (13) 
0

$$$$

     RDKit          3D

 15 15  0  0  0  0  0  0  0  0999 V2000
    0.4033  105.3961   28.2755 N   0  0  0  0  0  0  0  0  0  0  0  0
   -0.0108  105.9730   27.0102 C   0  0  0  0  0  0  0  0  0  0  0  0
    0.3224  107.0722   26.7166 O   0  0  0  0  0  0  0  0  0  0  0  0
   -0.8246  105.2197   26.1272 N   0  0  0  0  0  0  0  0  0  0  0  0
   -1.2289  103.9065   26.4610 C   0  0  0  0  0  0  0  0  0  0  0  0
   -1.9032  103.2931   25.7044 O   0  0  0  0  0  0  0  0  0  0  0  0
   -0.7851  103.2990   27.7842 C   0  0  0  0  0  0  0  0  0  0  0  0
   -1.2182  101.8866   28.1656 C   0  0  0  0  0  0  0  0  0  0  0  0
   -0.0234  104.0197   28.6298 C   0  0  0  0  0  0  0  0  0  0  0  0
    0.9904  105.9392   28.9246 H   0  0  0  0  0  0  0  0  0  0  0  0
   -1.1246  105.6334   25.2330 H   0  0  0  0  0  0  0  0  0  0  0  0
   -1.2463  101.7951   29.2614 H   0  0  0  0  0  0  0  0  0  0  0  0
   -2.2190  101.6866   27.7552 H   0  0  0  0  0  0  0  0  0  0  0  0
   -0.5016  101.1600   27.7552 H   0  0  0  0  0  0  0  0  0  0  0  0
    0.2851  103.5839   29.5915 H   0  0  0  0  0  0  0  0  0  0  0  0
  1  2  1  0
  1  9  1  0
  2  3  2  0
  2  4  1  0
  4  5  1  0
  5  6  2  0
  5  7  1  0
  7  8  1  0
  7  9  2  0
  1 10  1  0
  4 11  1  0
  8 12  1  0
  8 13  1  0
  8 14  1  0
  9 15  1  0
M  END
>  <filename_input>  (14) 
7M31_TDR_docked.sdf

>  <pdb_id>  (14) 
7M31_TDR

>  <pose_rank>  (14) 
13

>  <num_atoms_heavy>  (14) 
9

>  <num_torsions>  (14) 
0

>  <pose>  (14) 
[0.4032743418604449, 105.3961010940907, 28.27550760295594, -9.279223169873033, -3.1385208881496913, 2.0405062954315043]

>  <energy>  (14) 
-248.1633139333302

>  <inter_energy>  (14) 
-263.7265596701378

>  <intra_energy>  (14) 
0.0

>  <rmsd>  (14) 
3.75814

>  <sdf_rank>  (14) 
0

$$$$

     RDKit          3D

 15 15  0  0  0  0  0  0  0  0999 V2000
   -0.5547  106.6050   28.8767 N   0  0  0  0  0  0  0  0  0  0  0  0
   -1.9916  106.7838   28.7850 C   0  0  0  0  0  0  0  0  0  0  0  0
   -2.5230  107.6665   29.3714 O   0  0  0  0  0  0  0  0  0  0  0  0
   -2.7619  105.8921   27.9970 N   0  0  0  0  0  0  0  0  0  0  0  0
   -2.1436  104.8356   27.2893 C   0  0  0  0  0  0  0  0  0  0  0  0
   -2.8065  104.1068   26.6313 O   0  0  0  0  0  0  0  0  0  0  0  0
   -0.6347  104.6556   27.3783 C   0  0  0  0  0  0  0  0  0  0  0  0
    0.0494  103.5164   26.6287 C   0  0  0  0  0  0  0  0  0  0  0  0
    0.0958  105.4943   28.1382 C   0  0  0  0  0  0  0  0  0  0  0  0
    0.0110  107.2458   29.4513 H   0  0  0  0  0  0  0  0  0  0  0  0
   -3.7829  106.0151   27.9392 H   0  0  0  0  0  0  0  0  0  0  0  0
    0.4762  102.8058   27.3518 H   0  0  0  0  0  0  0  0  0  0  0  0
   -0.6873  102.9987   25.9969 H   0  0  0  0  0  0  0  0  0  0  0  0
    0.8527  103.9235   25.9969 H   0  0  0  0  0  0  0  0  0  0  0  0
    1.1844  105.3545   28.2121 H   0  0  0  0  0  0  0  0  0  0  0  0
  1  2  1  0
  1  9  1  0
  2  3  2  0
  2  4  1  0
  4  5  1  0
  5  6  2  0
  5  7  1  0
  7  8  1  0
  7  9  2  0
  1 10  1  0
  4 11  1  0
  8 12  1  0
  8 13  1  0
  8 14  1  0
  9 15  1  0
M  END
>  <filename_input>  (15) 
7M31_TDR_docked.sdf

>  <pdb_id>  (15) 
7M31_TDR

>  <pose_rank>  (15) 
14

>  <num_atoms_heavy>  (15) 
9

>  <num_torsions>  (15) 
0

>  <pose>  (15) 
[-0.5546702265344367, 106.60501748734318, 28.87665353461783, 1.9696923816818743, 2.5023944355841863, -0.9110954421128052]

>  <energy>  (15) 
-224.08008206446436

>  <inter_energy>  (15) 
-218.77382171947642

>  <intra_energy>  (15) 
0.0

>  <rmsd>  (15) 
4.35733

>  <sdf_rank>  (15) 
0

$$$$

     RDKit          3D

 15 15  0  0  0  0  0  0  0  0999 V2000
   -0.6076  104.3166   27.8081 N   0  0  0  0  0  0  0  0  0  0  0  0
   -0.0746  103.6447   26.6377 C   0  0  0  0  0  0  0  0  0  0  0  0
   -0.2972  102.4947   26.4552 O   0  0  0  0  0  0  0  0  0  0  0  0
    0.7228  104.3672   25.7149 N   0  0  0  0  0  0  0  0  0  0  0  0
    0.9958  105.7398   25.9163 C   0  0  0  0  0  0  0  0  0  0  0  0
    1.6589  106.3251   25.1281 O   0  0  0  0  0  0  0  0  0  0  0  0
    0.4274  106.4457   27.1393 C   0  0  0  0  0  0  0  0  0  0  0  0
    0.7181  107.9243   27.3781 C   0  0  0  0  0  0  0  0  0  0  0  0
   -0.3187  105.7561   28.0237 C   0  0  0  0  0  0  0  0  0  0  0  0
   -1.1835  103.7970   28.4857 H   0  0  0  0  0  0  0  0  0  0  0  0
    1.1073  103.8871   24.8887 H   0  0  0  0  0  0  0  0  0  0  0  0
    0.7566  108.1203   28.4598 H   0  0  0  0  0  0  0  0  0  0  0  0
    1.6849  108.1860   26.9234 H   0  0  0  0  0  0  0  0  0  0  0  0
   -0.0776  108.5326   26.9234 H   0  0  0  0  0  0  0  0  0  0  0  0
   -0.7174  106.2646   28.9139 H   0  0  0  0  0  0  0  0  0  0  0  0
  1  2  1  0
  1  9  1  0
  2  3  2  0
  2  4  1  0
  4  5  1  0
  5  6  2  0
  5  7  1  0
  7  8  1  0
  7  9  2  0
  1 10  1  0
  4 11  1  0
  8 12  1  0
  8 13  1  0
  8 14  1  0
  9 15  1  0
M  END
>  <filename_input>  (16) 
7M31_TDR_docked.sdf

>  <pdb_id>  (16) 
7M31_TDR

>  <pose_rank>  (16) 
15

>  <num_atoms_heavy>  (16) 
9

>  <num_torsions>  (16) 
0

>  <pose>  (16) 
[-0.6075767008452957, 104.31660080592548, 27.80805423775572, 1.2795131898849468, -3.169723856195895, -0.8488523658135726]

>  <energy>  (16) 
-232.19348941301527

>  <inter_energy>  (16) 
-222.332036432201

>  <intra_energy>  (16) 
0.0

>  <rmsd>  (16) 
4.28975

>  <sdf_rank>  (16) 
0

$$$$

     RDKit          3D

 15 15  0  0  0  0  0  0  0  0999 V2000
   -0.0019  106.4326   28.0904 N   0  0  0  0  0  0  0  0  0  0  0  0
   -0.7182  105.3363   27.4657 C   0  0  0  0  0  0  0  0  0  0  0  0
   -1.4381  105.5394   26.5459 O   0  0  0  0  0  0  0  0  0  0  0  0
   -0.5614  104.0191   27.9653 N   0  0  0  0  0  0  0  0  0  0  0  0
    0.2950  103.7592   29.0600 C   0  0  0  0  0  0  0  0  0  0  0  0
    0.4160  102.6493   29.4562 O   0  0  0  0  0  0  0  0  0  0  0  0
    1.0537  104.9089   29.7077 C   0  0  0  0  0  0  0  0  0  0  0  0
    1.9758  104.6496   30.8952 C   0  0  0  0  0  0  0  0  0  0  0  0
    0.8941  106.1629   29.2422 C   0  0  0  0  0  0  0  0  0  0  0  0
   -0.1147  107.3932   27.7362 H   0  0  0  0  0  0  0  0  0  0  0  0
   -1.0768  103.2429   27.5262 H   0  0  0  0  0  0  0  0  0  0  0  0
    1.4204  104.8058   31.8318 H   0  0  0  0  0  0  0  0  0  0  0  0
    2.3427  103.6133   30.8551 H   0  0  0  0  0  0  0  0  0  0  0  0
    2.8292  105.3425   30.8551 H   0  0  0  0  0  0  0  0  0  0  0  0
    1.4328  106.9944   29.7201 H   0  0  0  0  0  0  0  0  0  0  0  0
  1  2  1  0
  1  9  1  0
  2  3  2  0
  2  4  1  0
  4  5  1  0
  5  6  2  0
  5  7  1  0
  7  8  1  0
  7  9  2  0
  1 10  1  0
  4 11  1  0
  8 12  1  0
  8 13  1  0
  8 14  1  0
  9 15  1  0
M  END
>  <filename_input>  (17) 
7M31_TDR_docked.sdf

>  <pdb_id>  (17) 
7M31_TDR

>  <pose_rank>  (17) 
16

>  <num_atoms_heavy>  (17) 
9

>  <num_torsions>  (17) 
0

>  <pose>  (17) 
[-0.001892622136028422, 106.43260304239338, 28.090400141230326, 0.8971441681943532, 1.3125969121596137, -0.8605921129717684]

>  <energy>  (17) 
-230.9329865693234

>  <inter_energy>  (17) 
-224.23836790165493

>  <intra_energy>  (17) 
0.0

>  <rmsd>  (17) 
4.33407

>  <sdf_rank>  (17) 
0

$$$$

     RDKit          3D

 15 15  0  0  0  0  0  0  0  0999 V2000
   -0.1668  106.3614   28.1107 N   0  0  0  0  0  0  0  0  0  0  0  0
    0.6884  106.0230   26.9885 C   0  0  0  0  0  0  0  0  0  0  0  0
    0.6761  106.6862   26.0060 O   0  0  0  0  0  0  0  0  0  0  0  0
    1.5349  104.8886   27.0670 N   0  0  0  0  0  0  0  0  0  0  0  0
    1.5634  104.0884   28.2324 C   0  0  0  0  0  0  0  0  0  0  0  0
    2.2839  103.1491   28.2782 O   0  0  0  0  0  0  0  0  0  0  0  0
    0.6732  104.4507   29.4127 C   0  0  0  0  0  0  0  0  0  0  0  0
    0.6839  103.5944   30.6754 C   0  0  0  0  0  0  0  0  0  0  0  0
   -0.1416  105.5204   29.3331 C   0  0  0  0  0  0  0  0  0  0  0  0
   -0.7883  107.1812   28.0591 H   0  0  0  0  0  0  0  0  0  0  0  0
    2.1355  104.6447   26.2666 H   0  0  0  0  0  0  0  0  0  0  0  0
    0.6757  104.2469   31.5610 H   0  0  0  0  0  0  0  0  0  0  0  0
   -0.2061  102.9482   30.6878 H   0  0  0  0  0  0  0  0  0  0  0  0
    1.5900  102.9708   30.6878 H   0  0  0  0  0  0  0  0  0  0  0  0
   -0.7941  105.7729   30.1819 H   0  0  0  0  0  0  0  0  0  0  0  0
  1  2  1  0
  1  9  1  0
  2  3  2  0
  2  4  1  0
  4  5  1  0
  5  6  2  0
  5  7  1  0
  7  8  1  0
  7  9  2  0
  1 10  1  0
  4 11  1  0
  8 12  1  0
  8 13  1  0
  8 14  1  0
  9 15  1  0
M  END
>  <filename_input>  (18) 
7M31_TDR_docked.sdf

>  <pdb_id>  (18) 
7M31_TDR

>  <pose_rank>  (18) 
17

>  <num_atoms_heavy>  (18) 
9

>  <num_torsions>  (18) 
0

>  <pose>  (18) 
[-0.16679776714166178, 106.36139420402043, 28.110697529442874, 5.433396563506542, 4.754292236015226, 2.9209194277111856]

>  <energy>  (18) 
-203.24947005193962

>  <inter_energy>  (18) 
-183.66171987281973

>  <intra_energy>  (18) 
0.0

>  <rmsd>  (18) 
4.64327

>  <sdf_rank>  (18) 
0

$$$$

     RDKit          3D

 15 15  0  0  0  0  0  0  0  0999 V2000
   -0.2613  106.9207   28.3949 N   0  0  0  0  0  0  0  0  0  0  0  0
    0.9413  106.8230   27.5891 C   0  0  0  0  0  0  0  0  0  0  0  0
    1.4887  107.8040   27.2103 O   0  0  0  0  0  0  0  0  0  0  0  0
    1.4566  105.5474   27.2475 N   0  0  0  0  0  0  0  0  0  0  0  0
    0.8174  104.3675   27.6931 C   0  0  0  0  0  0  0  0  0  0  0  0
    1.2700  103.3123   27.4013 O   0  0  0  0  0  0  0  0  0  0  0  0
   -0.4384  104.4719   28.5470 C   0  0  0  0  0  0  0  0  0  0  0  0
   -1.1470  103.2100   29.0301 C   0  0  0  0  0  0  0  0  0  0  0  0
   -0.9363  105.6837   28.8600 C   0  0  0  0  0  0  0  0  0  0  0  0
   -0.6446  107.8441   28.6428 H   0  0  0  0  0  0  0  0  0  0  0  0
    2.3058  105.4792   26.6686 H   0  0  0  0  0  0  0  0  0  0  0  0
   -1.1565  103.1931   30.1299 H   0  0  0  0  0  0  0  0  0  0  0  0
   -2.1808  103.2033   28.6543 H   0  0  0  0  0  0  0  0  0  0  0  0
   -0.6145  102.3238   28.6543 H   0  0  0  0  0  0  0  0  0  0  0  0
   -1.8515  105.7571   29.4659 H   0  0  0  0  0  0  0  0  0  0  0  0
  1  2  1  0
  1  9  1  0
  2  3  2  0
  2  4  1  0
  4  5  1  0
  5  6  2  0
  5  7  1  0
  7  8  1  0
  7  9  2  0
  1 10  1  0
  4 11  1  0
  8 12  1  0
  8 13  1  0
  8 14  1  0
  9 15  1  0
M  END
>  <filename_input>  (19) 
7M31_TDR_docked.sdf

>  <pdb_id>  (19) 
7M31_TDR

>  <pose_rank>  (19) 
18

>  <num_atoms_heavy>  (19) 
9

>  <num_torsions>  (19) 
0

>  <pose>  (19) 
[-0.2613015730453032, 106.92074439087428, 28.394891879333176, -9.579752518426506, -1.44372154427904, -4.971019140806077]

>  <energy>  (19) 
-212.42858967124346

>  <inter_energy>  (19) 
-202.6175589487047

>  <intra_energy>  (19) 
0.0

>  <rmsd>  (19) 
4.44918

>  <sdf_rank>  (19) 
0

$$$$

     RDKit          3D

 15 15  0  0  0  0  0  0  0  0999 V2000
    1.6015  105.8871   26.6248 N   0  0  0  0  0  0  0  0  0  0  0  0
    1.2455  104.5313   26.2502 C   0  0  0  0  0  0  0  0  0  0  0  0
    1.5811  104.0931   25.2010 O   0  0  0  0  0  0  0  0  0  0  0  0
    0.4854  103.7326   27.1411 N   0  0  0  0  0  0  0  0  0  0  0  0
    0.0790  104.2391   28.3972 C   0  0  0  0  0  0  0  0  0  0  0  0
   -0.5497  103.5510   29.1285 O   0  0  0  0  0  0  0  0  0  0  0  0
    0.4621  105.6581   28.7930 C   0  0  0  0  0  0  0  0  0  0  0  0
    0.0256  106.2249   30.1405 C   0  0  0  0  0  0  0  0  0  0  0  0
    1.1724  106.4221   27.9408 C   0  0  0  0  0  0  0  0  0  0  0  0
    2.1493  106.4752   25.9807 H   0  0  0  0  0  0  0  0  0  0  0  0
    0.2263  102.7732   26.8706 H   0  0  0  0  0  0  0  0  0  0  0  0
    0.4795  105.6354   30.9507 H   0  0  0  0  0  0  0  0  0  0  0  0
    0.3529  107.2720   30.2212 H   0  0  0  0  0  0  0  0  0  0  0  0
   -1.0703  106.1761   30.2212 H   0  0  0  0  0  0  0  0  0  0  0  0
    1.4368  107.4519   28.2230 H   0  0  0  0  0  0  0  0  0  0  0  0
  1  2  1  0
  1  9  1  0
  2  3  2  0
  2  4  1  0
  4  5  1  0
  5  6  2  0
  5  7  1  0
  7  8  1  0
  7  9  2  0
  1 10  1  0
  4 11  1  0
  8 12  1  0
  8 13  1  0
  8 14  1  0
  9 15  1  0
M  END
>  <filename_input>  (20) 
7M31_TDR_docked.sdf

>  <pdb_id>  (20) 
7M31_TDR

>  <pose_rank>  (20) 
19

>  <num_atoms_heavy>  (20) 
9

>  <num_torsions>  (20) 
0

>  <pose>  (20) 
[1.6015098662153304, 105.88705455309179, 26.624840709086453, -3.782119090932795, -0.6811701772446047, 3.569139447289649]

>  <energy>  (20) 
-208.11385501819416

>  <inter_energy>  (20) 
-194.8360246170936

>  <intra_energy>  (20) 
0.0

>  <rmsd>  (20) 
3.71851

>  <sdf_rank>  (20) 
0

$$$$

     RDKit          3D

 15 15  0  0  0  0  0  0  0  0999 V2000
    1.2277  102.9653   26.9850 N   0  0  0  0  0  0  0  0  0  0  0  0
    0.5964  103.8000   25.9801 C   0  0  0  0  0  0  0  0  0  0  0  0
    1.2525  104.5120   25.2959 O   0  0  0  0  0  0  0  0  0  0  0  0
   -0.8122  103.7685   25.8241 N   0  0  0  0  0  0  0  0  0  0  0  0
   -1.6091  102.9233   26.6303 C   0  0  0  0  0  0  0  0  0  0  0  0
   -2.7838  102.9083   26.4775 O   0  0  0  0  0  0  0  0  0  0  0  0
   -0.9443  102.0406   27.6771 C   0  0  0  0  0  0  0  0  0  0  0  0
   -1.7882  101.1284   28.5621 C   0  0  0  0  0  0  0  0  0  0  0  0
    0.3929  102.0807   27.8351 C   0  0  0  0  0  0  0  0  0  0  0  0
    2.2502  102.9866   27.1077 H   0  0  0  0  0  0  0  0  0  0  0  0
   -1.2599  104.3676   25.1160 H   0  0  0  0  0  0  0  0  0  0  0  0
   -1.5825  101.3507   29.6196 H   0  0  0  0  0  0  0  0  0  0  0  0
   -2.8546  101.2983   28.3524 H   0  0  0  0  0  0  0  0  0  0  0  0
   -1.5361  100.0784   28.3524 H   0  0  0  0  0  0  0  0  0  0  0  0
    0.8703  101.4521   28.6013 H   0  0  0  0  0  0  0  0  0  0  0  0
  1  2  1  0
  1  9  1  0
  2  3  2  0
  2  4  1  0
  4  5  1  0
  5  6  2  0
  5  7  1  0
  7  8  1  0
  7  9  2  0
  1 10  1  0
  4 11  1  0
  8 12  1  0
  8 13  1  0
  8 14  1  0
  9 15  1  0
M  END
>  <filename_input>  (21) 
7M31_TDR_docked.sdf

>  <pdb_id>  (21) 
7M31_TDR

>  <pose_rank>  (21) 
20

>  <num_atoms_heavy>  (21) 
9

>  <num_torsions>  (21) 
0

>  <pose>  (21) 
[1.2277309587744614, 102.96531155033234, 26.985010886608393, -13.476692044978156, -1.0722425487765552, 8.576197897394675]

>  <energy>  (21) 
-220.27967715845915

>  <inter_energy>  (21) 
-223.97630616785437

>  <intra_energy>  (21) 
0.0

>  <rmsd>  (21) 
3.18604

>  <sdf_rank>  (21) 
0

$$$$

     RDKit          3D

 15 15  0  0  0  0  0  0  0  0999 V2000
    3.2095  106.6375   27.1563 N   0  0  0  0  0  0  0  0  0  0  0  0
    3.6161  105.4046   27.8041 C   0  0  0  0  0  0  0  0  0  0  0  0
    4.7596  105.2043   28.0445 O   0  0  0  0  0  0  0  0  0  0  0  0
    2.6405  104.4333   28.1420 N   0  0  0  0  0  0  0  0  0  0  0  0
    1.2723  104.6574   27.8645 C   0  0  0  0  0  0  0  0  0  0  0  0
    0.4737  103.8345   28.1622 O   0  0  0  0  0  0  0  0  0  0  0  0
    0.8461  105.9559   27.1941 C   0  0  0  0  0  0  0  0  0  0  0  0
   -0.6245  106.2120   26.8790 C   0  0  0  0  0  0  0  0  0  0  0  0
    1.7745  106.8729   26.8602 C   0  0  0  0  0  0  0  0  0  0  0  0
    3.9132  107.3457   26.9032 H   0  0  0  0  0  0  0  0  0  0  0  0
    2.9314  103.5549   28.5945 H   0  0  0  0  0  0  0  0  0  0  0  0
   -1.1890  106.3104   27.8180 H   0  0  0  0  0  0  0  0  0  0  0  0
   -0.7184  107.1401   26.2959 H   0  0  0  0  0  0  0  0  0  0  0  0
   -1.0266  105.3704   26.2959 H   0  0  0  0  0  0  0  0  0  0  0  0
    1.4663  107.8048   26.3636 H   0  0  0  0  0  0  0  0  0  0  0  0
  1  2  1  0
  1  9  1  0
  2  3  2  0
  2  4  1  0
  4  5  1  0
  5  6  2  0
  5  7  1  0
  7  8  1  0
  7  9  2  0
  1 10  1  0
  4 11  1  0
  8 12  1  0
  8 13  1  0
  8 14  1  0
  9 15  1  0
M  END
>  <filename_input>  (22) 
7M31_TDR_docked.sdf

>  <pdb_id>  (22) 
7M31_TDR

>  <pose_rank>  (22) 
21

>  <num_atoms_heavy>  (22) 
9

>  <num_torsions>  (22) 
0

>  <pose>  (22) 
[3.2094935241218647, 106.63750777710334, 27.156300221570305, -2.0212476759639793, 4.562868400762059, -1.7663346900085]

>  <energy>  (22) 
-203.08112540613692

>  <inter_energy>  (22) 
-191.92834885812795

>  <intra_energy>  (22) 
0.0

>  <rmsd>  (22) 
5.07373

>  <sdf_rank>  (22) 
0

$$$$

     RDKit          3D

 15 15  0  0  0  0  0  0  0  0999 V2000
   -1.8773  103.7676   25.9881 N   0  0  0  0  0  0  0  0  0  0  0  0
   -0.5501  103.3763   26.4246 C   0  0  0  0  0  0  0  0  0  0  0  0
    0.3383  103.3008   25.6433 O   0  0  0  0  0  0  0  0  0  0  0  0
   -0.3199  103.0751   27.7905 N   0  0  0  0  0  0  0  0  0  0  0  0
   -1.3678  103.1625   28.7357 C   0  0  0  0  0  0  0  0  0  0  0  0
   -1.1505  102.9129   29.8732 O   0  0  0  0  0  0  0  0  0  0  0  0
   -2.7573  103.5831   28.2779 C   0  0  0  0  0  0  0  0  0  0  0  0
   -3.9026  103.6749   29.2816 C   0  0  0  0  0  0  0  0  0  0  0  0
   -2.9797  103.8558   26.9776 C   0  0  0  0  0  0  0  0  0  0  0  0
   -2.0535  103.9830   24.9964 H   0  0  0  0  0  0  0  0  0  0  0  0
    0.6209  102.7896   28.0977 H   0  0  0  0  0  0  0  0  0  0  0  0
   -3.4978  103.6425   30.3039 H   0  0  0  0  0  0  0  0  0  0  0  0
   -4.4462  104.6195   29.1323 H   0  0  0  0  0  0  0  0  0  0  0  0
   -4.5897  102.8290   29.1323 H   0  0  0  0  0  0  0  0  0  0  0  0
   -3.9875  104.1465   26.6464 H   0  0  0  0  0  0  0  0  0  0  0  0
  1  2  1  0
  1  9  1  0
  2  3  2  0
  2  4  1  0
  4  5  1  0
  5  6  2  0
  5  7  1  0
  7  8  1  0
  7  9  2  0
  1 10  1  0
  4 11  1  0
  8 12  1  0
  8 13  1  0
  8 14  1  0
  9 15  1  0
M  END
>  <filename_input>  (23) 
7M31_TDR_docked.sdf

>  <pdb_id>  (23) 
7M31_TDR

>  <pose_rank>  (23) 
22

>  <num_atoms_heavy>  (23) 
9

>  <num_torsions>  (23) 
0

>  <pose>  (23) 
[-1.877332682726409, 103.76755746332967, 25.98806392239066, -1.0647254272915316, 3.013723314296138, 6.27554827549232]

>  <energy>  (23) 
-332.9478508472284

>  <inter_energy>  (23) 
-328.53281536257526

>  <intra_energy>  (23) 
0.0

>  <rmsd>  (23) 
1.44395

>  <sdf_rank>  (23) 
0

$$$$

     RDKit          3D

 15 15  0  0  0  0  0  0  0  0999 V2000
    0.1299  106.9695   29.2720 N   0  0  0  0  0  0  0  0  0  0  0  0
   -1.2470  107.2042   29.6648 C   0  0  0  0  0  0  0  0  0  0  0  0
   -1.5858  108.2742   30.0467 O   0  0  0  0  0  0  0  0  0  0  0  0
   -2.1869  106.1451   29.5988 N   0  0  0  0  0  0  0  0  0  0  0  0
   -1.7999  104.8637   29.1435 C   0  0  0  0  0  0  0  0  0  0  0  0
   -2.6042  103.9954   29.0901 O   0  0  0  0  0  0  0  0  0  0  0  0
   -0.3574  104.6218   28.7220 C   0  0  0  0  0  0  0  0  0  0  0  0
    0.0810  103.2437   28.2360 C   0  0  0  0  0  0  0  0  0  0  0  0
    0.5392  105.6242   28.7979 C   0  0  0  0  0  0  0  0  0  0  0  0
    0.8197  107.7328   29.3220 H   0  0  0  0  0  0  0  0  0  0  0  0
   -3.1622  106.3109   29.8857 H   0  0  0  0  0  0  0  0  0  0  0  0
    0.2866  102.5976   29.1022 H   0  0  0  0  0  0  0  0  0  0  0  0
   -0.7196  102.7976   27.6276 H   0  0  0  0  0  0  0  0  0  0  0  0
    0.9922  103.3421   27.6276 H   0  0  0  0  0  0  0  0  0  0  0  0
    1.5843  105.4440   28.5057 H   0  0  0  0  0  0  0  0  0  0  0  0
  1  2  1  0
  1  9  1  0
  2  3  2  0
  2  4  1  0
  4  5  1  0
  5  6  2  0
  5  7  1  0
  7  8  1  0
  7  9  2  0
  1 10  1  0
  4 11  1  0
  8 12  1  0
  8 13  1  0
  8 14  1  0
  9 15  1  0
M  END
>  <filename_input>  (24) 
7M31_TDR_docked.sdf

>  <pdb_id>  (24) 
7M31_TDR

>  <pose_rank>  (24) 
23

>  <num_atoms_heavy>  (24) 
9

>  <num_torsions>  (24) 
0

>  <pose>  (24) 
[0.12988080038055544, 106.96950445489126, 29.272010664701767, 15.298246967031275, 18.87969334162743, -14.907323689401801]

>  <energy>  (24) 
-190.22918318218646

>  <inter_energy>  (24) 
-189.024844907763

>  <intra_energy>  (24) 
0.0

>  <rmsd>  (24) 
4.78251

>  <sdf_rank>  (24) 
0

$$$$

     RDKit          3D

 15 15  0  0  0  0  0  0  0  0999 V2000
   -0.8614  106.2811   26.7900 N   0  0  0  0  0  0  0  0  0  0  0  0
    0.0694  105.1684   26.7630 C   0  0  0  0  0  0  0  0  0  0  0  0
    0.9742  105.1641   25.9970 O   0  0  0  0  0  0  0  0  0  0  0  0
   -0.1118  104.0790   27.6516 N   0  0  0  0  0  0  0  0  0  0  0  0
   -1.1843  104.0694   28.5730 C   0  0  0  0  0  0  0  0  0  0  0  0
   -1.3119  103.1515   29.3110 O   0  0  0  0  0  0  0  0  0  0  0  0
   -2.1539  105.2423   28.6071 C   0  0  0  0  0  0  0  0  0  0  0  0
   -3.3221  105.2461   29.5884 C   0  0  0  0  0  0  0  0  0  0  0  0
   -1.9902  106.2712   27.7532 C   0  0  0  0  0  0  0  0  0  0  0  0
   -0.7392  107.0739   26.1438 H   0  0  0  0  0  0  0  0  0  0  0  0
    0.5449  103.2859   27.6259 H   0  0  0  0  0  0  0  0  0  0  0  0
   -2.9357  105.2449   30.6184 H   0  0  0  0  0  0  0  0  0  0  0  0
   -3.9334  106.1462   29.4272 H   0  0  0  0  0  0  0  0  0  0  0  0
   -3.9393  104.3500   29.4272 H   0  0  0  0  0  0  0  0  0  0  0  0
   -2.6997  107.1116   27.7701 H   0  0  0  0  0  0  0  0  0  0  0  0
  1  2  1  0
  1  9  1  0
  2  3  2  0
  2  4  1  0
  4  5  1  0
  5  6  2  0
  5  7  1  0
  7  8  1  0
  7  9  2  0
  1 10  1  0
  4 11  1  0
  8 12  1  0
  8 13  1  0
  8 14  1  0
  9 15  1  0
M  END
>  <filename_input>  (25) 
7M31_TDR_docked.sdf

>  <pdb_id>  (25) 
7M31_TDR

>  <pose_rank>  (25) 
24

>  <num_atoms_heavy>  (25) 
9

>  <num_torsions>  (25) 
0

>  <pose>  (25) 
[-0.8613822941750441, 106.28113050613496, 26.78995541719801, -10.667625901687435, -1.3397503744439623, -5.208659032504131]

>  <energy>  (25) 
-208.09689029170363

>  <inter_energy>  (25) 
-204.03990730759455

>  <intra_energy>  (25) 
0.0

>  <rmsd>  (25) 
2.5074

>  <sdf_rank>  (25) 
0

$$$$

     RDKit          3D

 15 15  0  0  0  0  0  0  0  0999 V2000
   -1.7390  103.7440   25.4120 N   0  0  0  0  0  0  0  0  0  0  0  0
   -1.1460  102.6030   26.0840 C   0  0  0  0  0  0  0  0  0  0  0  0
   -0.2820  101.9830   25.5600 O   0  0  0  0  0  0  0  0  0  0  0  0
   -1.6100  102.2250   27.3690 N   0  0  0  0  0  0  0  0  0  0  0  0
   -2.6380  102.9550   28.0090 C   0  0  0  0  0  0  0  0  0  0  0  0
   -3.0050  102.6250   29.0860 O   0  0  0  0  0  0  0  0  0  0  0  0
   -3.2520  104.1580   27.3070 C   0  0  0  0  0  0  0  0  0  0  0  0
   -4.3680  104.9530   27.9780 C   0  0  0  0  0  0  0  0  0  0  0  0
   -2.8210  104.5090   26.0800 C   0  0  0  0  0  0  0  0  0  0  0  0
   -1.4106  104.0216   24.4760 H   0  0  0  0  0  0  0  0  0  0  0  0
   -1.1939  101.4099   27.8415 H   0  0  0  0  0  0  0  0  0  0  0  0
   -4.2647  104.8794   29.0707 H   0  0  0  0  0  0  0  0  0  0  0  0
   -4.3008  106.0079   27.6736 H   0  0  0  0  0  0  0  0  0  0  0  0
   -5.3431  104.5449   27.6736 H   0  0  0  0  0  0  0  0  0  0  0  0
   -3.2752  105.3705   25.5686 H   0  0  0  0  0  0  0  0  0  0  0  0
  1  2  1  0
  1  9  1  0
  2  3  2  0
  2  4  1  0
  4  5  1  0
  5  6  2  0
  5  7  1  0
  7  8  1  0
  7  9  2  0
  1 10  1  0
  4 11  1  0
  8 12  1  0
  8 13  1  0
  8 14  1  0
  9 15  1  0
M  END
>  <filename_input>  (26) 
7M31_TDR_docked.sdf

>  <pdb_id>  (26) 
7M31_TDR

>  <pose_rank>  (26) 
25

>  <num_atoms_heavy>  (26) 
9

>  <num_torsions>  (26) 
0

>  <pose>  (26) 
[-1.739, 103.744, 25.412, 1e-06, 1e-06, 1e-06]

>  <energy>  (26) 
-334.7619519602989

>  <inter_energy>  (26) 
-339.40082257730575

>  <intra_energy>  (26) 
0.0

>  <rmsd>  (26) 
0.0

>  <sdf_rank>  (26) 
0

$$$$
