
     RDKit          3D

 42 43  0  0  0  0  0  0  0  0999 V2000
    1.7451    6.8818   17.4081 C   0  0  0  0  0  0  0  0  0  0  0  0
    1.7057    8.0954   18.0521 C   0  0  0  0  0  0  0  0  0  0  0  0
    2.7336    9.0272   17.9338 C   0  0  0  0  0  0  0  0  0  0  0  0
   -2.2527    8.2951   16.8850 C   0  0  0  0  0  0  0  0  0  0  0  0
   -3.5707   10.3179   16.0676 C   0  0  0  0  0  0  0  0  0  0  0  0
   -2.8723    8.9840   15.8628 C   0  0  0  0  0  0  0  0  0  0  0  0
   -2.7876    8.4276   14.6252 C   0  0  0  0  0  0  0  0  0  0  0  0
   -2.1435    7.2654   14.3496 C   0  0  0  0  0  0  0  0  0  0  0  0
   -1.5436    6.6201   15.4075 C   0  0  0  0  0  0  0  0  0  0  0  0
   -1.5811    7.0859   16.7300 C   0  0  0  0  0  0  0  0  0  0  0  0
    3.8639    8.7802   17.1906 C   0  0  0  0  0  0  0  0  0  0  0  0
    4.9385    9.8088   17.0630 C   0  0  0  0  0  0  0  0  0  0  0  0
    6.3247    9.2231   16.8528 C   0  0  0  0  0  0  0  0  0  0  0  0
    7.1637    8.8774   18.1171 C   0  0  0  0  0  0  0  0  0  0  0  0
    6.3429    8.9766   19.4837 C   0  0  0  0  0  0  0  0  0  0  0  0
    3.9207    7.5512   16.5272 C   0  0  0  0  0  0  0  0  0  0  0  0
    2.8752    6.6188   16.6553 C   0  0  0  0  0  0  0  0  0  0  0  0
    0.6921    5.9820   17.4718 N   0  0  0  0  0  0  0  0  0  0  0  0
   -4.6517   10.3645   16.7631 O   0  0  0  0  0  0  0  0  0  0  0  0
   -3.3928    9.0904   13.5509 O   0  0  0  0  0  0  0  0  0  0  0  0
   -0.7554    7.0073   19.1572 O   0  0  0  0  0  0  0  0  0  0  0  0
   -1.3722    4.8875   18.1260 O   0  0  0  0  0  0  0  0  0  0  0  0
   -3.0176   11.3457   15.5973 O   0  0  0  0  0  0  0  0  0  0  0  0
   -0.7987    6.2216   17.9653 S   0  0  1  0  0  0  0  0  0  0  0  0
    0.8357    8.3380   18.6799 H   0  0  0  0  0  0  0  0  0  0  0  0
    2.6383    9.9928   18.4520 H   0  0  0  0  0  0  0  0  0  0  0  0
   -2.2922    8.7323   17.8936 H   0  0  0  0  0  0  0  0  0  0  0  0
   -2.1027    6.8579   13.3287 H   0  0  0  0  0  0  0  0  0  0  0  0
   -1.0030    5.6840   15.2036 H   0  0  0  0  0  0  0  0  0  0  0  0
    4.7008   10.4544   16.2048 H   0  0  0  0  0  0  0  0  0  0  0  0
    4.9654   10.3641   18.0122 H   0  0  0  0  0  0  0  0  0  0  0  0
    6.2050    8.2953   16.2742 H   0  0  0  0  0  0  0  0  0  0  0  0
    6.8914   10.0228   16.3534 H   0  0  0  0  0  0  0  0  0  0  0  0
    7.5402    7.8491   18.0128 H   0  0  0  0  0  0  0  0  0  0  0  0
    7.9740    9.6190   18.1761 H   0  0  0  0  0  0  0  0  0  0  0  0
    7.0354    8.8929   20.3342 H   0  0  0  0  0  0  0  0  0  0  0  0
    5.8217    9.9442   19.5289 H   0  0  0  0  0  0  0  0  0  0  0  0
    5.6063    8.1609   19.5289 H   0  0  0  0  0  0  0  0  0  0  0  0
    4.7911    7.3109   15.8990 H   0  0  0  0  0  0  0  0  0  0  0  0
    2.9590    5.6503   16.1405 H   0  0  0  0  0  0  0  0  0  0  0  0
    0.9062    5.0255   17.1552 H   0  0  0  0  0  0  0  0  0  0  0  0
   -3.3443    8.7045   12.6405 H   0  0  0  0  0  0  0  0  0  0  0  0
  1  2  2  0
  1 17  1  0
  1 18  1  0
  2  3  1  0
  3 11  2  0
  4  6  2  0
  4 10  1  0
  5  6  1  0
  5 19  1  0
  5 23  2  0
  6  7  1  0
  7  8  2  0
  7 20  1  0
  8  9  1  0
  9 10  2  0
 10 24  1  0
 11 12  1  0
 11 16  1  0
 12 13  1  0
 13 14  1  0
 14 15  1  0
 16 17  2  0
 24 18  1  6
 21 24  2  0
 22 24  2  0
  2 25  1  0
  3 26  1  0
  4 27  1  0
  8 28  1  0
  9 29  1  0
 12 30  1  0
 12 31  1  0
 13 32  1  0
 13 33  1  0
 14 34  1  0
 14 35  1  0
 15 36  1  0
 15 37  1  0
 15 38  1  0
 16 39  1  0
 17 40  1  0
 18 41  1  0
 20 42  1  0
M  CHG  1  19  -1
M  END
>  <filename_input>  (1) 
7M3H_YPV_docked.sdf

>  <pdb_id>  (1) 
7M3H_YPV

>  <pose_rank>  (1) 
0

>  <num_atoms_heavy>  (1) 
24

>  <num_torsions>  (1) 
7

>  <pose>  (1) 
[-0.7553732423417016, 7.007309972168096, 19.157246394274384, -5.222629033786609, -3.061963673597128, -1.355326185548398, -24.973802383116332, 23.97240605403017, 6.5296317565665625, -16.091138167546823, -1.719025663675376, -8.660226711437522, -3.287361520785183]

>  <energy>  (1) 
-1003.7741736044983

>  <inter_energy>  (1) 
-1007.6235729787894

>  <intra_energy>  (1) 
23.253512482908658

>  <rmsd>  (1) 
0.680414

>  <sdf_rank>  (1) 
0

$$$$

     RDKit          3D

 42 43  0  0  0  0  0  0  0  0999 V2000
    1.6058    6.8463   17.4767 C   0  0  0  0  0  0  0  0  0  0  0  0
    1.7994    8.0691   18.0738 C   0  0  0  0  0  0  0  0  0  0  0  0
    2.8129    8.9347   17.6710 C   0  0  0  0  0  0  0  0  0  0  0  0
   -1.2527    6.3454   15.2697 C   0  0  0  0  0  0  0  0  0  0  0  0
   -1.4189    6.1325   12.7351 C   0  0  0  0  0  0  0  0  0  0  0  0
   -1.7124    6.8195   14.0584 C   0  0  0  0  0  0  0  0  0  0  0  0
   -2.4984    7.9278   14.1057 C   0  0  0  0  0  0  0  0  0  0  0  0
   -2.8459    8.5729   15.2479 C   0  0  0  0  0  0  0  0  0  0  0  0
   -2.3585    8.0566   16.4275 C   0  0  0  0  0  0  0  0  0  0  0  0
   -1.5235    6.9322   16.5024 C   0  0  0  0  0  0  0  0  0  0  0  0
    3.7004    8.6088   16.6724 C   0  0  0  0  0  0  0  0  0  0  0  0
    4.7620    9.5680   16.2459 C   0  0  0  0  0  0  0  0  0  0  0  0
    5.8575    9.7681   17.2796 C   0  0  0  0  0  0  0  0  0  0  0  0
    7.1002    8.8340   17.2072 C   0  0  0  0  0  0  0  0  0  0  0  0
    8.0852    8.9719   18.4568 C   0  0  0  0  0  0  0  0  0  0  0  0
    3.5177    7.3694   16.0525 C   0  0  0  0  0  0  0  0  0  0  0  0
    2.4896    6.5043   16.4693 C   0  0  0  0  0  0  0  0  0  0  0  0
    0.5559    6.0134   17.8322 N   0  0  0  0  0  0  0  0  0  0  0  0
   -2.3325    5.4189   12.1778 O   0  0  0  0  0  0  0  0  0  0  0  0
   -2.9979    8.4455   12.9048 O   0  0  0  0  0  0  0  0  0  0  0  0
   -1.0963    7.3996   18.9881 O   0  0  0  0  0  0  0  0  0  0  0  0
   -1.6296    5.1047   18.3665 O   0  0  0  0  0  0  0  0  0  0  0  0
   -0.3008    6.3483   12.1996 O   0  0  0  0  0  0  0  0  0  0  0  0
   -0.9830    6.3653   18.0096 S   0  0  1  0  0  0  0  0  0  0  0  0
    1.1334    8.3731   18.8948 H   0  0  0  0  0  0  0  0  0  0  0  0
    2.9067    9.9116   18.1679 H   0  0  0  0  0  0  0  0  0  0  0  0
   -0.6282    5.4400   15.2607 H   0  0  0  0  0  0  0  0  0  0  0  0
   -3.4870    9.4666   15.2320 H   0  0  0  0  0  0  0  0  0  0  0  0
   -2.6406    8.5554   17.3664 H   0  0  0  0  0  0  0  0  0  0  0  0
    5.2220    9.1881   15.3218 H   0  0  0  0  0  0  0  0  0  0  0  0
    4.2742   10.5435   16.1025 H   0  0  0  0  0  0  0  0  0  0  0  0
    6.2180   10.8026   17.1801 H   0  0  0  0  0  0  0  0  0  0  0  0
    5.3812    9.5230   18.2403 H   0  0  0  0  0  0  0  0  0  0  0  0
    6.7487    7.7929   17.1561 H   0  0  0  0  0  0  0  0  0  0  0  0
    7.6716    9.1302   16.3152 H   0  0  0  0  0  0  0  0  0  0  0  0
    7.5077    8.8910   19.3896 H   0  0  0  0  0  0  0  0  0  0  0  0
    8.8376    8.1703   18.4208 H   0  0  0  0  0  0  0  0  0  0  0  0
    8.5886    9.9492   18.4208 H   0  0  0  0  0  0  0  0  0  0  0  0
    4.1841    7.0675   15.2311 H   0  0  0  0  0  0  0  0  0  0  0  0
    2.3854    5.5253   15.9788 H   0  0  0  0  0  0  0  0  0  0  0  0
    0.8088    5.0300   18.0052 H   0  0  0  0  0  0  0  0  0  0  0  0
   -3.5723    9.2518   12.9143 H   0  0  0  0  0  0  0  0  0  0  0  0
  1  2  2  0
  1 17  1  0
  1 18  1  0
  2  3  1  0
  3 11  2  0
  4  6  2  0
  4 10  1  0
  5  6  1  0
  5 19  1  0
  5 23  2  0
  6  7  1  0
  7  8  2  0
  7 20  1  0
  8  9  1  0
  9 10  2  0
 10 24  1  0
 11 12  1  0
 11 16  1  0
 12 13  1  0
 13 14  1  0
 14 15  1  0
 16 17  2  0
 24 18  1  6
 21 24  2  0
 22 24  2  0
  2 25  1  0
  3 26  1  0
  4 27  1  0
  8 28  1  0
  9 29  1  0
 12 30  1  0
 12 31  1  0
 13 32  1  0
 13 33  1  0
 14 34  1  0
 14 35  1  0
 15 36  1  0
 15 37  1  0
 15 38  1  0
 16 39  1  0
 17 40  1  0
 18 41  1  0
 20 42  1  0
M  CHG  1  19  -1
M  END
>  <filename_input>  (2) 
7M3H_YPV_docked.sdf

>  <pdb_id>  (2) 
7M3H_YPV

>  <pose_rank>  (2) 
1

>  <num_atoms_heavy>  (2) 
24

>  <num_torsions>  (2) 
7

>  <pose>  (2) 
[-1.0962949214187054, 7.399611765453555, 18.98807428510529, -5.158429522028949, -3.927709373965396, -0.1666114165169613, 3.145182954102679, 1.8182482347154267, -0.0049824919992906055, 3.344226570848114, 3.1520495379097335, 0.747524065462981, -0.15508431163538627]

>  <energy>  (2) 
-780.1621161581945

>  <inter_energy>  (2) 
-777.6113070179028

>  <intra_energy>  (2) 
9.34062236709067

>  <rmsd>  (2) 
2.42332

>  <sdf_rank>  (2) 
0

$$$$

     RDKit          3D

 42 43  0  0  0  0  0  0  0  0999 V2000
    2.9097    7.2846   17.6271 C   0  0  0  0  0  0  0  0  0  0  0  0
    2.9885    8.3062   18.5432 C   0  0  0  0  0  0  0  0  0  0  0  0
    4.1489    9.0567   18.7135 C   0  0  0  0  0  0  0  0  0  0  0  0
   -1.1079    7.4773   14.8669 C   0  0  0  0  0  0  0  0  0  0  0  0
   -3.0216    8.5854   13.5992 C   0  0  0  0  0  0  0  0  0  0  0  0
   -2.3202    8.1360   14.8701 C   0  0  0  0  0  0  0  0  0  0  0  0
   -2.8969    8.3279   16.0862 C   0  0  0  0  0  0  0  0  0  0  0  0
   -2.3600    7.9166   17.2627 C   0  0  0  0  0  0  0  0  0  0  0  0
   -1.1488    7.2650   17.2003 C   0  0  0  0  0  0  0  0  0  0  0  0
   -0.4497    7.0276   16.0078 C   0  0  0  0  0  0  0  0  0  0  0  0
    5.2959    8.8042   17.9981 C   0  0  0  0  0  0  0  0  0  0  0  0
    6.5174    9.6418   18.1856 C   0  0  0  0  0  0  0  0  0  0  0  0
    7.8093    8.8425   18.2148 C   0  0  0  0  0  0  0  0  0  0  0  0
    9.0086    9.4342   19.0108 C   0  0  0  0  0  0  0  0  0  0  0  0
    9.5582    8.4716   20.1606 C   0  0  0  0  0  0  0  0  0  0  0  0
    5.2338    7.7694   17.0605 C   0  0  0  0  0  0  0  0  0  0  0  0
    4.0550    7.0190   16.8985 C   0  0  0  0  0  0  0  0  0  0  0  0
    1.7345    6.5815   17.4103 N   0  0  0  0  0  0  0  0  0  0  0  0
   -3.7015    9.6773   13.6056 O   0  0  0  0  0  0  0  0  0  0  0  0
   -4.1318    8.9845   16.1449 O   0  0  0  0  0  0  0  0  0  0  0  0
    0.8101    4.7932   16.0192 O   0  0  0  0  0  0  0  0  0  0  0  0
    1.9357    6.6962   14.9950 O   0  0  0  0  0  0  0  0  0  0  0  0
   -2.8501    7.8949   12.5613 O   0  0  0  0  0  0  0  0  0  0  0  0
    1.0354    6.2035   16.0348 S   0  0  1  0  0  0  0  0  0  0  0  0
    2.1081    8.5380   19.1606 H   0  0  0  0  0  0  0  0  0  0  0  0
    4.1481    9.8788   19.4444 H   0  0  0  0  0  0  0  0  0  0  0  0
   -0.6279    7.2946   13.8942 H   0  0  0  0  0  0  0  0  0  0  0  0
   -2.8688    8.0955   18.2214 H   0  0  0  0  0  0  0  0  0  0  0  0
   -0.7032    6.9096   18.1411 H   0  0  0  0  0  0  0  0  0  0  0  0
    6.5742   10.3629   17.3568 H   0  0  0  0  0  0  0  0  0  0  0  0
    6.4221   10.1335   19.1649 H   0  0  0  0  0  0  0  0  0  0  0  0
    7.5778    7.8600   18.6518 H   0  0  0  0  0  0  0  0  0  0  0  0
    8.1503    8.8272   17.1691 H   0  0  0  0  0  0  0  0  0  0  0  0
    9.8282    9.6342   18.3050 H   0  0  0  0  0  0  0  0  0  0  0  0
    8.6454   10.3476   19.5047 H   0  0  0  0  0  0  0  0  0  0  0  0
    9.3142    8.8990   21.1444 H   0  0  0  0  0  0  0  0  0  0  0  0
    9.0895    7.4811   20.0647 H   0  0  0  0  0  0  0  0  0  0  0  0
   10.6495    8.3717   20.0647 H   0  0  0  0  0  0  0  0  0  0  0  0
    6.1149    7.5397   16.4434 H   0  0  0  0  0  0  0  0  0  0  0  0
    4.0437    6.1952   16.1697 H   0  0  0  0  0  0  0  0  0  0  0  0
    1.2471    6.2597   18.2587 H   0  0  0  0  0  0  0  0  0  0  0  0
   -4.5710    9.1356   17.0192 H   0  0  0  0  0  0  0  0  0  0  0  0
  1  2  2  0
  1 17  1  0
  1 18  1  0
  2  3  1  0
  3 11  2  0
  4  6  2  0
  4 10  1  0
  5  6  1  0
  5 19  1  0
  5 23  2  0
  6  7  1  0
  7  8  2  0
  7 20  1  0
  8  9  1  0
  9 10  2  0
 10 24  1  0
 11 12  1  0
 11 16  1  0
 12 13  1  0
 13 14  1  0
 14 15  1  0
 16 17  2  0
 24 18  1  1
 21 24  2  0
 22 24  2  0
  2 25  1  0
  3 26  1  0
  4 27  1  0
  8 28  1  0
  9 29  1  0
 12 30  1  0
 12 31  1  0
 13 32  1  0
 13 33  1  0
 14 34  1  0
 14 35  1  0
 15 36  1  0
 15 37  1  0
 15 38  1  0
 16 39  1  0
 17 40  1  0
 18 41  1  0
 20 42  1  0
M  CHG  1  19  -1
M  END
>  <filename_input>  (3) 
7M3H_YPV_docked.sdf

>  <pdb_id>  (3) 
7M3H_YPV

>  <pose_rank>  (3) 
2

>  <num_atoms_heavy>  (3) 
24

>  <num_torsions>  (3) 
7

>  <pose>  (3) 
[0.8101246668815624, 4.7932054264804345, 16.019242896063993, -3.2133648640512353, 1.3193003439023283, -1.939027743482488, -1.3111078120776558, -2.511919330332117, -3.0776273146900883, -1.4605427621879223, -1.9363285986121825, 2.783119983058511, -1.3105051136179795]

>  <energy>  (3) 
-729.2611723327306

>  <inter_energy>  (3) 
-743.9911299907778

>  <intra_energy>  (3) 
32.24226942898214

>  <rmsd>  (3) 
2.41713

>  <sdf_rank>  (3) 
0

$$$$

     RDKit          3D

 42 43  0  0  0  0  0  0  0  0999 V2000
    2.4859    7.2735   16.8963 C   0  0  0  0  0  0  0  0  0  0  0  0
    3.7654    6.8707   16.5969 C   0  0  0  0  0  0  0  0  0  0  0  0
    4.8826    7.5806   17.0290 C   0  0  0  0  0  0  0  0  0  0  0  0
   -1.3338    7.8157   15.6011 C   0  0  0  0  0  0  0  0  0  0  0  0
   -3.2041    9.4568   16.1543 C   0  0  0  0  0  0  0  0  0  0  0  0
   -2.6689    8.1614   15.5669 C   0  0  0  0  0  0  0  0  0  0  0  0
   -3.4982    7.2946   14.9273 C   0  0  0  0  0  0  0  0  0  0  0  0
   -3.0941    6.1417   14.3365 C   0  0  0  0  0  0  0  0  0  0  0  0
   -1.7510    5.8463   14.4016 C   0  0  0  0  0  0  0  0  0  0  0  0
   -0.8042    6.6522   15.0507 C   0  0  0  0  0  0  0  0  0  0  0  0
    4.7754    8.7431   17.7559 C   0  0  0  0  0  0  0  0  0  0  0  0
    5.9923    9.4693   18.2259 C   0  0  0  0  0  0  0  0  0  0  0  0
    6.6937    8.7967   19.3939 C   0  0  0  0  0  0  0  0  0  0  0  0
    8.2137    8.4956   19.2491 C   0  0  0  0  0  0  0  0  0  0  0  0
    8.6349    7.0408   19.7564 C   0  0  0  0  0  0  0  0  0  0  0  0
    3.4814    9.1672   18.0711 C   0  0  0  0  0  0  0  0  0  0  0  0
    2.3613    8.4405   17.6282 C   0  0  0  0  0  0  0  0  0  0  0  0
    1.3759    6.5309   16.5235 N   0  0  0  0  0  0  0  0  0  0  0  0
   -3.7316    9.4476   17.3274 O   0  0  0  0  0  0  0  0  0  0  0  0
   -4.8621    7.6019   14.8570 O   0  0  0  0  0  0  0  0  0  0  0  0
    0.9586    4.8002   14.8448 O   0  0  0  0  0  0  0  0  0  0  0  0
    1.6223    7.0440   14.1648 O   0  0  0  0  0  0  0  0  0  0  0  0
   -3.0458   10.5111   15.4859 O   0  0  0  0  0  0  0  0  0  0  0  0
    0.8346    6.2058   15.0658 S   0  0  1  0  0  0  0  0  0  0  0  0
    3.9113    5.9599   15.9977 H   0  0  0  0  0  0  0  0  0  0  0  0
    5.8839    7.1990   16.7808 H   0  0  0  0  0  0  0  0  0  0  0  0
   -0.6388    8.5083   16.0984 H   0  0  0  0  0  0  0  0  0  0  0  0
   -3.8064    5.4743   13.8294 H   0  0  0  0  0  0  0  0  0  0  0  0
   -1.3997    4.9240   13.9159 H   0  0  0  0  0  0  0  0  0  0  0  0
    6.7013    9.5371   17.3876 H   0  0  0  0  0  0  0  0  0  0  0  0
    5.6605   10.4576   18.5769 H   0  0  0  0  0  0  0  0  0  0  0  0
    6.5702    9.4490   20.2710 H   0  0  0  0  0  0  0  0  0  0  0  0
    6.2203    7.8067   19.4696 H   0  0  0  0  0  0  0  0  0  0  0  0
    8.4850    8.5842   18.1868 H   0  0  0  0  0  0  0  0  0  0  0  0
    8.7454    9.2214   19.8820 H   0  0  0  0  0  0  0  0  0  0  0  0
    8.6399    7.0233   20.8562 H   0  0  0  0  0  0  0  0  0  0  0  0
    7.9146    6.2989   19.3811 H   0  0  0  0  0  0  0  0  0  0  0  0
    9.6401    6.7984   19.3811 H   0  0  0  0  0  0  0  0  0  0  0  0
    3.3375   10.0778   18.6712 H   0  0  0  0  0  0  0  0  0  0  0  0
    1.3549    8.8119   17.8715 H   0  0  0  0  0  0  0  0  0  0  0  0
    0.8260    6.1351   17.2993 H   0  0  0  0  0  0  0  0  0  0  0  0
   -5.4853    6.9859   14.3963 H   0  0  0  0  0  0  0  0  0  0  0  0
  1  2  2  0
  1 17  1  0
  1 18  1  0
  2  3  1  0
  3 11  2  0
  4  6  2  0
  4 10  1  0
  5  6  1  0
  5 19  1  0
  5 23  2  0
  6  7  1  0
  7  8  2  0
  7 20  1  0
  8  9  1  0
  9 10  2  0
 10 24  1  0
 11 12  1  0
 11 16  1  0
 12 13  1  0
 13 14  1  0
 14 15  1  0
 16 17  2  0
 24 18  1  1
 21 24  2  0
 22 24  2  0
  2 25  1  0
  3 26  1  0
  4 27  1  0
  8 28  1  0
  9 29  1  0
 12 30  1  0
 12 31  1  0
 13 32  1  0
 13 33  1  0
 14 34  1  0
 14 35  1  0
 15 36  1  0
 15 37  1  0
 15 38  1  0
 16 39  1  0
 17 40  1  0
 18 41  1  0
 20 42  1  0
M  CHG  1  19  -1
M  END
>  <filename_input>  (4) 
7M3H_YPV_docked.sdf

>  <pdb_id>  (4) 
7M3H_YPV

>  <pose_rank>  (4) 
3

>  <num_atoms_heavy>  (4) 
24

>  <num_torsions>  (4) 
7

>  <pose>  (4) 
[0.9585964445730604, 4.800209120591794, 14.844815166294323, -3.0538940693470678, 0.9840916162817399, -1.8943755796947317, 3.101945092170038, -1.6870109508007687, -3.2927932005783345, 1.369998830102481, 0.629616067931317, 1.3797315320905614, 0.4628320867630508]

>  <energy>  (4) 
-775.0823806292207

>  <inter_energy>  (4) 
-761.8698213663135

>  <intra_energy>  (4) 
4.154777648685594

>  <rmsd>  (4) 
2.06797

>  <sdf_rank>  (4) 
0

$$$$

     RDKit          3D

 42 43  0  0  0  0  0  0  0  0999 V2000
    2.3482    7.8253   17.1105 C   0  0  0  0  0  0  0  0  0  0  0  0
    3.2230    6.9109   16.5740 C   0  0  0  0  0  0  0  0  0  0  0  0
    4.5902    6.9576   16.8332 C   0  0  0  0  0  0  0  0  0  0  0  0
   -0.9503    6.1795   14.1503 C   0  0  0  0  0  0  0  0  0  0  0  0
   -1.7894    5.7545   11.7812 C   0  0  0  0  0  0  0  0  0  0  0  0
   -1.8160    6.4767   13.1180 C   0  0  0  0  0  0  0  0  0  0  0  0
   -2.7476    7.4338   13.3714 C   0  0  0  0  0  0  0  0  0  0  0  0
   -2.8687    8.0922   14.5518 C   0  0  0  0  0  0  0  0  0  0  0  0
   -1.9783    7.7560   15.5465 C   0  0  0  0  0  0  0  0  0  0  0  0
   -0.9627    6.8004   15.3959 C   0  0  0  0  0  0  0  0  0  0  0  0
    5.1539    7.9371   17.6168 C   0  0  0  0  0  0  0  0  0  0  0  0
    6.6204    7.9469   17.8965 C   0  0  0  0  0  0  0  0  0  0  0  0
    7.2748    9.3019   17.6856 C   0  0  0  0  0  0  0  0  0  0  0  0
    6.4518   10.3957   16.9453 C   0  0  0  0  0  0  0  0  0  0  0  0
    5.3305    9.8106   15.9700 C   0  0  0  0  0  0  0  0  0  0  0  0
    4.2790    8.8750   18.1723 C   0  0  0  0  0  0  0  0  0  0  0  0
    2.8997    8.8163   17.9023 C   0  0  0  0  0  0  0  0  0  0  0  0
    0.9794    7.7394   16.9069 N   0  0  0  0  0  0  0  0  0  0  0  0
   -1.7407    4.4694   11.7587 O   0  0  0  0  0  0  0  0  0  0  0  0
   -3.6559    7.7679   12.3599 O   0  0  0  0  0  0  0  0  0  0  0  0
   -0.6771    6.2232   17.8788 O   0  0  0  0  0  0  0  0  0  0  0  0
    1.0154    5.3800   16.3421 O   0  0  0  0  0  0  0  0  0  0  0  0
   -1.8850    6.4517   10.7380 O   0  0  0  0  0  0  0  0  0  0  0  0
    0.0806    6.4478   16.6891 S   0  0  1  0  0  0  0  0  0  0  0  0
    2.8310    6.1181   15.9200 H   0  0  0  0  0  0  0  0  0  0  0  0
    5.2409    6.1856   16.3968 H   0  0  0  0  0  0  0  0  0  0  0  0
   -0.1972    5.3967   13.9767 H   0  0  0  0  0  0  0  0  0  0  0  0
   -3.6423    8.8588   14.7067 H   0  0  0  0  0  0  0  0  0  0  0  0
   -2.0686    8.2668   16.5165 H   0  0  0  0  0  0  0  0  0  0  0  0
    6.7761    7.6454   18.9428 H   0  0  0  0  0  0  0  0  0  0  0  0
    7.0875    7.2507   17.1843 H   0  0  0  0  0  0  0  0  0  0  0  0
    7.5325    9.7002   18.6781 H   0  0  0  0  0  0  0  0  0  0  0  0
    8.1274    9.0983   17.0211 H   0  0  0  0  0  0  0  0  0  0  0  0
    5.9600   11.0287   17.6986 H   0  0  0  0  0  0  0  0  0  0  0  0
    7.1590   10.9587   16.3183 H   0  0  0  0  0  0  0  0  0  0  0  0
    4.5116    9.3832   16.5674 H   0  0  0  0  0  0  0  0  0  0  0  0
    4.9382   10.6189   15.3355 H   0  0  0  0  0  0  0  0  0  0  0  0
    5.7693    9.0265   15.3355 H   0  0  0  0  0  0  0  0  0  0  0  0
    4.6728    9.6666   18.8269 H   0  0  0  0  0  0  0  0  0  0  0  0
    2.2391    9.5824   18.3343 H   0  0  0  0  0  0  0  0  0  0  0  0
    0.4754    8.6376   16.8952 H   0  0  0  0  0  0  0  0  0  0  0  0
   -4.3432    8.4619   12.5212 H   0  0  0  0  0  0  0  0  0  0  0  0
  1  2  2  0
  1 17  1  0
  1 18  1  0
  2  3  1  0
  3 11  2  0
  4  6  2  0
  4 10  1  0
  5  6  1  0
  5 19  1  0
  5 23  2  0
  6  7  1  0
  7  8  2  0
  7 20  1  0
  8  9  1  0
  9 10  2  0
 10 24  1  0
 11 12  1  0
 11 16  1  0
 12 13  1  0
 13 14  1  0
 14 15  1  0
 16 17  2  0
 24 18  1  1
 21 24  2  0
 22 24  2  0
  2 25  1  0
  3 26  1  0
  4 27  1  0
  8 28  1  0
  9 29  1  0
 12 30  1  0
 12 31  1  0
 13 32  1  0
 13 33  1  0
 14 34  1  0
 14 35  1  0
 15 36  1  0
 15 37  1  0
 15 38  1  0
 16 39  1  0
 17 40  1  0
 18 41  1  0
 20 42  1  0
M  CHG  1  19  -1
M  END
>  <filename_input>  (5) 
7M3H_YPV_docked.sdf

>  <pdb_id>  (5) 
7M3H_YPV

>  <pose_rank>  (5) 
4

>  <num_atoms_heavy>  (5) 
24

>  <num_torsions>  (5) 
7

>  <pose>  (5) 
[-0.6770949965442623, 6.223237834884909, 17.87884132207437, 0.45684859117462845, -0.27045073626158644, 1.112008595799128, -1.9448767050942966, 0.857472029178897, -3.420248608626773, 3.0427490715102854, 4.2324730152946515, -1.0496053565511703, 2.3932966760453556]

>  <energy>  (5) 
-531.9462830661449

>  <inter_energy>  (5) 
-700.6684524267199

>  <intra_energy>  (5) 
179.14697383560738

>  <rmsd>  (5) 
3.08176

>  <sdf_rank>  (5) 
0

$$$$

     RDKit          3D

 42 43  0  0  0  0  0  0  0  0999 V2000
    1.1644    7.4074   17.1786 C   0  0  0  0  0  0  0  0  0  0  0  0
    1.9040    7.5703   16.0317 C   0  0  0  0  0  0  0  0  0  0  0  0
    3.0256    8.3941   15.9878 C   0  0  0  0  0  0  0  0  0  0  0  0
   -2.1540    7.1594   15.0334 C   0  0  0  0  0  0  0  0  0  0  0  0
   -2.7787    7.2626   12.5643 C   0  0  0  0  0  0  0  0  0  0  0  0
   -2.7600    7.8133   13.9805 C   0  0  0  0  0  0  0  0  0  0  0  0
   -3.3963    8.9764   14.2813 C   0  0  0  0  0  0  0  0  0  0  0  0
   -3.4664    9.5121   15.5262 C   0  0  0  0  0  0  0  0  0  0  0  0
   -2.8436    8.8176   16.5388 C   0  0  0  0  0  0  0  0  0  0  0  0
   -2.1400    7.6196   16.3469 C   0  0  0  0  0  0  0  0  0  0  0  0
    3.4456    9.1180   17.0789 C   0  0  0  0  0  0  0  0  0  0  0  0
    4.6665    9.9744   17.0081 C   0  0  0  0  0  0  0  0  0  0  0  0
    5.7999    9.3596   16.2042 C   0  0  0  0  0  0  0  0  0  0  0  0
    6.5055    8.1032   16.7920 C   0  0  0  0  0  0  0  0  0  0  0  0
    6.4674    6.8308   15.8274 C   0  0  0  0  0  0  0  0  0  0  0  0
    2.7062    8.9635   18.2550 C   0  0  0  0  0  0  0  0  0  0  0  0
    1.5749    8.1279   18.2855 C   0  0  0  0  0  0  0  0  0  0  0  0
    0.0878    6.5358   17.2408 N   0  0  0  0  0  0  0  0  0  0  0  0
   -1.7683    7.4655   11.7945 O   0  0  0  0  0  0  0  0  0  0  0  0
   -4.0345    9.6760   13.2503 O   0  0  0  0  0  0  0  0  0  0  0  0
   -1.3969    7.6976   18.8007 O   0  0  0  0  0  0  0  0  0  0  0  0
   -2.0159    5.5207   17.8977 O   0  0  0  0  0  0  0  0  0  0  0  0
   -3.7676    6.5640   12.2216 O   0  0  0  0  0  0  0  0  0  0  0  0
   -1.4142    6.8316   17.6651 S   0  0  1  0  0  0  0  0  0  0  0  0
    1.6006    7.0335   15.1207 H   0  0  0  0  0  0  0  0  0  0  0  0
    3.5946    8.4684   15.0492 H   0  0  0  0  0  0  0  0  0  0  0  0
   -1.6462    6.2073   14.8198 H   0  0  0  0  0  0  0  0  0  0  0  0
   -3.9960   10.4570   15.7173 H   0  0  0  0  0  0  0  0  0  0  0  0
   -2.9013    9.2264   17.5584 H   0  0  0  0  0  0  0  0  0  0  0  0
    4.3916   10.9328   16.5434 H   0  0  0  0  0  0  0  0  0  0  0  0
    5.0331   10.0963   18.0380 H   0  0  0  0  0  0  0  0  0  0  0  0
    5.3910    9.0776   15.2226 H   0  0  0  0  0  0  0  0  0  0  0  0
    6.5806   10.1343   16.1871 H   0  0  0  0  0  0  0  0  0  0  0  0
    7.5574    8.3570   16.9895 H   0  0  0  0  0  0  0  0  0  0  0  0
    5.9594    7.8279   17.7063 H   0  0  0  0  0  0  0  0  0  0  0  0
    6.4399    5.9126   16.4325 H   0  0  0  0  0  0  0  0  0  0  0  0
    5.5703    6.8786   15.1926 H   0  0  0  0  0  0  0  0  0  0  0  0
    7.3658    6.8248   15.1926 H   0  0  0  0  0  0  0  0  0  0  0  0
    3.0116    9.5005   19.1651 H   0  0  0  0  0  0  0  0  0  0  0  0
    0.9989    8.0449   19.2190 H   0  0  0  0  0  0  0  0  0  0  0  0
    0.2899    5.5614   16.9750 H   0  0  0  0  0  0  0  0  0  0  0  0
   -4.5043   10.5253   13.4453 H   0  0  0  0  0  0  0  0  0  0  0  0
  1  2  2  0
  1 17  1  0
  1 18  1  0
  2  3  1  0
  3 11  2  0
  4  6  2  0
  4 10  1  0
  5  6  1  0
  5 19  1  0
  5 23  2  0
  6  7  1  0
  7  8  2  0
  7 20  1  0
  8  9  1  0
  9 10  2  0
 10 24  1  0
 11 12  1  0
 11 16  1  0
 12 13  1  0
 13 14  1  0
 14 15  1  0
 16 17  2  0
 24 18  1  6
 21 24  2  0
 22 24  2  0
  2 25  1  0
  3 26  1  0
  4 27  1  0
  8 28  1  0
  9 29  1  0
 12 30  1  0
 12 31  1  0
 13 32  1  0
 13 33  1  0
 14 34  1  0
 14 35  1  0
 15 36  1  0
 15 37  1  0
 15 38  1  0
 16 39  1  0
 17 40  1  0
 18 41  1  0
 20 42  1  0
M  CHG  1  19  -1
M  END
>  <filename_input>  (6) 
7M3H_YPV_docked.sdf

>  <pdb_id>  (6) 
7M3H_YPV

>  <pose_rank>  (6) 
5

>  <num_atoms_heavy>  (6) 
24

>  <num_torsions>  (6) 
7

>  <pose>  (6) 
[-1.3968879199625361, 7.6975796670885295, 18.800731558316116, -2.7191980110692695, 5.599725123860764, 0.8961429975553379, 3.275319817454045, -1.4316925385191388, 12.839349801415773, 0.3306705184672488, 1.2518065109311196, -2.0278376583063515, -1.3096151400121063]

>  <energy>  (6) 
-777.2487842254529

>  <inter_energy>  (6) 
-785.4773134169033

>  <intra_energy>  (6) 
10.972920953193587

>  <rmsd>  (6) 
2.42949

>  <sdf_rank>  (6) 
0

$$$$

     RDKit          3D

 42 43  0  0  0  0  0  0  0  0999 V2000
    3.7312    8.1986   18.0570 C   0  0  0  0  0  0  0  0  0  0  0  0
    4.7299    7.4007   17.5521 C   0  0  0  0  0  0  0  0  0  0  0  0
    6.0509    7.5139   17.9775 C   0  0  0  0  0  0  0  0  0  0  0  0
   -1.0624    8.5948   16.0810 C   0  0  0  0  0  0  0  0  0  0  0  0
   -3.5740    8.8400   15.7216 C   0  0  0  0  0  0  0  0  0  0  0  0
   -2.3342    8.0624   16.1308 C   0  0  0  0  0  0  0  0  0  0  0  0
   -2.4277    6.7649   16.5259 C   0  0  0  0  0  0  0  0  0  0  0  0
   -1.3674    5.9878   16.8625 C   0  0  0  0  0  0  0  0  0  0  0  0
   -0.1219    6.5707   16.7952 C   0  0  0  0  0  0  0  0  0  0  0  0
    0.0973    7.9048   16.4217 C   0  0  0  0  0  0  0  0  0  0  0  0
    6.4435    8.4491   18.9061 C   0  0  0  0  0  0  0  0  0  0  0  0
    7.8633    8.5303   19.3605 C   0  0  0  0  0  0  0  0  0  0  0  0
    8.6539    9.6485   18.7022 C   0  0  0  0  0  0  0  0  0  0  0  0
    9.8020   10.3038   19.5234 C   0  0  0  0  0  0  0  0  0  0  0  0
   10.8366    9.2539   20.1383 C   0  0  0  0  0  0  0  0  0  0  0  0
    5.4406    9.2685   19.4319 C   0  0  0  0  0  0  0  0  0  0  0  0
    4.1099    9.1436   18.9932 C   0  0  0  0  0  0  0  0  0  0  0  0
    2.4053    8.0410   17.6830 N   0  0  0  0  0  0  0  0  0  0  0  0
   -3.5915    9.4501   14.5894 O   0  0  0  0  0  0  0  0  0  0  0  0
   -3.6951    6.1735   16.5862 O   0  0  0  0  0  0  0  0  0  0  0  0
    2.3711    7.9818   15.2370 O   0  0  0  0  0  0  0  0  0  0  0  0
    1.6745    9.9876   16.4324 O   0  0  0  0  0  0  0  0  0  0  0  0
   -4.5702    8.7982   16.4892 O   0  0  0  0  0  0  0  0  0  0  0  0
    1.6760    8.5284   16.3586 S   0  0  1  0  0  0  0  0  0  0  0  0
    4.4780    6.6499   16.7886 H   0  0  0  0  0  0  0  0  0  0  0  0
    6.8053    6.8327   17.5570 H   0  0  0  0  0  0  0  0  0  0  0  0
   -0.9576    9.6381   15.7485 H   0  0  0  0  0  0  0  0  0  0  0  0
   -1.4969    4.9410   17.1747 H   0  0  0  0  0  0  0  0  0  0  0  0
    0.7527    5.9539   17.0492 H   0  0  0  0  0  0  0  0  0  0  0  0
    7.8707    8.6940   20.4483 H   0  0  0  0  0  0  0  0  0  0  0  0
    8.3464    7.5844   19.0744 H   0  0  0  0  0  0  0  0  0  0  0  0
    9.0994    9.2389   17.7836 H   0  0  0  0  0  0  0  0  0  0  0  0
    7.9220   10.4563   18.5541 H   0  0  0  0  0  0  0  0  0  0  0  0
   10.3541   10.9880   18.8623 H   0  0  0  0  0  0  0  0  0  0  0  0
    9.3322   10.8242   20.3711 H   0  0  0  0  0  0  0  0  0  0  0  0
   10.7938    9.2973   21.2367 H   0  0  0  0  0  0  0  0  0  0  0  0
   10.5745    8.2403   19.8010 H   0  0  0  0  0  0  0  0  0  0  0  0
   11.8540    9.5011   19.8010 H   0  0  0  0  0  0  0  0  0  0  0  0
    5.6943   10.0181   20.1960 H   0  0  0  0  0  0  0  0  0  0  0  0
    3.3466    9.8186   19.4077 H   0  0  0  0  0  0  0  0  0  0  0  0
    1.8109    7.5382   18.3573 H   0  0  0  0  0  0  0  0  0  0  0  0
   -3.7881    5.2300   16.8710 H   0  0  0  0  0  0  0  0  0  0  0  0
  1  2  2  0
  1 17  1  0
  1 18  1  0
  2  3  1  0
  3 11  2  0
  4  6  2  0
  4 10  1  0
  5  6  1  0
  5 19  1  0
  5 23  2  0
  6  7  1  0
  7  8  2  0
  7 20  1  0
  8  9  1  0
  9 10  2  0
 10 24  1  0
 11 12  1  0
 11 16  1  0
 12 13  1  0
 13 14  1  0
 14 15  1  0
 16 17  2  0
 24 18  1  1
 21 24  2  0
 22 24  2  0
  2 25  1  0
  3 26  1  0
  4 27  1  0
  8 28  1  0
  9 29  1  0
 12 30  1  0
 12 31  1  0
 13 32  1  0
 13 33  1  0
 14 34  1  0
 14 35  1  0
 15 36  1  0
 15 37  1  0
 15 38  1  0
 16 39  1  0
 17 40  1  0
 18 41  1  0
 20 42  1  0
M  CHG  1  19  -1
M  END
>  <filename_input>  (7) 
7M3H_YPV_docked.sdf

>  <pdb_id>  (7) 
7M3H_YPV

>  <pose_rank>  (7) 
6

>  <num_atoms_heavy>  (7) 
24

>  <num_torsions>  (7) 
7

>  <pose>  (7) 
[2.3710865008156397, 7.981787468271756, 15.237013464546663, -2.52131035859779, 0.4896943306224931, -1.067744576081126, 4.749438233370847, 0.9004361356176965, 1.9843697774975282, 1.1332313046946503, -2.5927461091663773, 1.7751079259610119, -2.546411028519475]

>  <energy>  (7) 
-645.533651622027

>  <inter_energy>  (7) 
-661.2277587192045

>  <intra_energy>  (7) 
13.756354302584436

>  <rmsd>  (7) 
3.05339

>  <sdf_rank>  (7) 
0

$$$$

     RDKit          3D

 42 43  0  0  0  0  0  0  0  0999 V2000
   -0.9098    5.6575   15.3297 C   0  0  0  0  0  0  0  0  0  0  0  0
   -0.1858    5.9470   14.1978 C   0  0  0  0  0  0  0  0  0  0  0  0
   -0.7876    6.0698   12.9482 C   0  0  0  0  0  0  0  0  0  0  0  0
   -1.8296    8.5482   16.5874 C   0  0  0  0  0  0  0  0  0  0  0  0
   -3.4959   10.1319   15.4863 C   0  0  0  0  0  0  0  0  0  0  0  0
   -2.9481    9.3516   16.6696 C   0  0  0  0  0  0  0  0  0  0  0  0
   -3.5822    9.3780   17.8720 C   0  0  0  0  0  0  0  0  0  0  0  0
   -3.1858    8.6755   18.9632 C   0  0  0  0  0  0  0  0  0  0  0  0
   -2.0631    7.8907   18.8245 C   0  0  0  0  0  0  0  0  0  0  0  0
   -1.3152    7.7989   17.6415 C   0  0  0  0  0  0  0  0  0  0  0  0
   -2.1371    5.8804   12.7637 C   0  0  0  0  0  0  0  0  0  0  0  0
   -2.7576    6.0426   11.4155 C   0  0  0  0  0  0  0  0  0  0  0  0
   -3.4990    4.8083   10.9302 C   0  0  0  0  0  0  0  0  0  0  0  0
   -2.6617    3.5297   10.6369 C   0  0  0  0  0  0  0  0  0  0  0  0
   -3.3010    2.1900   11.2262 C   0  0  0  0  0  0  0  0  0  0  0  0
   -2.8898    5.5866   13.9043 C   0  0  0  0  0  0  0  0  0  0  0  0
   -2.2690    5.4654   15.1608 C   0  0  0  0  0  0  0  0  0  0  0  0
   -0.3210    5.6013   16.5838 N   0  0  0  0  0  0  0  0  0  0  0  0
   -3.2147   11.3816   15.3693 O   0  0  0  0  0  0  0  0  0  0  0  0
   -4.7274   10.1716   18.0071 O   0  0  0  0  0  0  0  0  0  0  0  0
    1.1534    7.5074   17.0085 O   0  0  0  0  0  0  0  0  0  0  0  0
    0.3156    6.1597   18.8576 O   0  0  0  0  0  0  0  0  0  0  0  0
   -4.1559    9.4977   14.6228 O   0  0  0  0  0  0  0  0  0  0  0  0
    0.0508    6.7920   17.5674 S   0  0  1  0  0  0  0  0  0  0  0  0
    0.9022    6.0859   14.2816 H   0  0  0  0  0  0  0  0  0  0  0  0
   -0.1630    6.3268   12.0800 H   0  0  0  0  0  0  0  0  0  0  0  0
   -1.3075    8.4961   15.6206 H   0  0  0  0  0  0  0  0  0  0  0  0
   -3.7358    8.7305   19.9143 H   0  0  0  0  0  0  0  0  0  0  0  0
   -1.7333    7.3010   19.6925 H   0  0  0  0  0  0  0  0  0  0  0  0
   -3.4695    6.8800   11.4596 H   0  0  0  0  0  0  0  0  0  0  0  0
   -1.9379    6.2246   10.7048 H   0  0  0  0  0  0  0  0  0  0  0  0
   -4.2399    4.5464   11.6999 H   0  0  0  0  0  0  0  0  0  0  0  0
   -3.9134    5.0992    9.9536 H   0  0  0  0  0  0  0  0  0  0  0  0
   -2.5686    3.4189    9.5464 H   0  0  0  0  0  0  0  0  0  0  0  0
   -1.6884    3.6642   11.1315 H   0  0  0  0  0  0  0  0  0  0  0  0
   -3.2830    2.2278   12.3254 H   0  0  0  0  0  0  0  0  0  0  0  0
   -4.3408    2.0966   10.8795 H   0  0  0  0  0  0  0  0  0  0  0  0
   -2.7196    1.3229   10.8795 H   0  0  0  0  0  0  0  0  0  0  0  0
   -3.9778    5.4489   13.8186 H   0  0  0  0  0  0  0  0  0  0  0  0
   -2.8838    5.2099   16.0364 H   0  0  0  0  0  0  0  0  0  0  0  0
   -0.0932    4.6565   16.9250 H   0  0  0  0  0  0  0  0  0  0  0  0
   -5.2060   10.2067   18.8730 H   0  0  0  0  0  0  0  0  0  0  0  0
  1  2  2  0
  1 17  1  0
  1 18  1  0
  2  3  1  0
  3 11  2  0
  4  6  2  0
  4 10  1  0
  5  6  1  0
  5 19  1  0
  5 23  2  0
  6  7  1  0
  7  8  2  0
  7 20  1  0
  8  9  1  0
  9 10  2  0
 10 24  1  0
 11 12  1  0
 11 16  1  0
 12 13  1  0
 13 14  1  0
 14 15  1  0
 16 17  2  0
 24 18  1  6
 21 24  2  0
 22 24  2  0
  2 25  1  0
  3 26  1  0
  4 27  1  0
  8 28  1  0
  9 29  1  0
 12 30  1  0
 12 31  1  0
 13 32  1  0
 13 33  1  0
 14 34  1  0
 14 35  1  0
 15 36  1  0
 15 37  1  0
 15 38  1  0
 16 39  1  0
 17 40  1  0
 18 41  1  0
 20 42  1  0
M  CHG  1  19  -1
M  END
>  <filename_input>  (8) 
7M3H_YPV_docked.sdf

>  <pdb_id>  (8) 
7M3H_YPV

>  <pose_rank>  (8) 
7

>  <num_atoms_heavy>  (8) 
24

>  <num_torsions>  (8) 
7

>  <pose>  (8) 
[1.1533980617981918, 7.507375540621717, 17.008503691037678, 1.5550311191787924, -4.120163389930161, 1.357924056193998, 1.1992625391857896, -1.7016671792018825, -0.23578997276002053, -2.3625266171942227, -2.2097590134109466, -1.9843219575768407, -1.0959094298518448]

>  <energy>  (8) 
-714.2168421791193

>  <inter_energy>  (8) 
-718.8379910072096

>  <intra_energy>  (8) 
15.185097079331939

>  <rmsd>  (8) 
6.33344

>  <sdf_rank>  (8) 
0

$$$$

     RDKit          3D

 42 43  0  0  0  0  0  0  0  0999 V2000
    1.5772    6.7769   17.3895 C   0  0  0  0  0  0  0  0  0  0  0  0
    1.7348    7.7796   18.3163 C   0  0  0  0  0  0  0  0  0  0  0  0
    2.7783    8.6983   18.2391 C   0  0  0  0  0  0  0  0  0  0  0  0
   -2.2439    8.2911   16.5641 C   0  0  0  0  0  0  0  0  0  0  0  0
   -3.3459   10.3533   15.5490 C   0  0  0  0  0  0  0  0  0  0  0  0
   -2.8102    8.9328   15.4820 C   0  0  0  0  0  0  0  0  0  0  0  0
   -2.8250    8.2399   14.3124 C   0  0  0  0  0  0  0  0  0  0  0  0
   -2.3257    6.9877   14.1569 C   0  0  0  0  0  0  0  0  0  0  0  0
   -1.7730    6.3951   15.2699 C   0  0  0  0  0  0  0  0  0  0  0  0
   -1.7192    7.0024   16.5331 C   0  0  0  0  0  0  0  0  0  0  0  0
    3.7316    8.6422   17.2496 C   0  0  0  0  0  0  0  0  0  0  0  0
    4.8252    9.6562   17.1790 C   0  0  0  0  0  0  0  0  0  0  0  0
    6.1749    9.0751   16.7925 C   0  0  0  0  0  0  0  0  0  0  0  0
    6.5851    7.7140   17.4260 C   0  0  0  0  0  0  0  0  0  0  0  0
    7.0317    7.8224   18.9556 C   0  0  0  0  0  0  0  0  0  0  0  0
    3.5863    7.6296   16.2971 C   0  0  0  0  0  0  0  0  0  0  0  0
    2.5274    6.7079   16.3869 C   0  0  0  0  0  0  0  0  0  0  0  0
    0.5008    5.9037   17.4281 N   0  0  0  0  0  0  0  0  0  0  0  0
   -3.3119   11.0913   14.4961 O   0  0  0  0  0  0  0  0  0  0  0  0
   -3.3814    8.8485   13.1812 O   0  0  0  0  0  0  0  0  0  0  0  0
   -0.9986    7.0374   18.9946 O   0  0  0  0  0  0  0  0  0  0  0  0
   -1.6083    4.8765   18.0478 O   0  0  0  0  0  0  0  0  0  0  0  0
   -3.8689   10.7305   16.6296 O   0  0  0  0  0  0  0  0  0  0  0  0
   -1.0051    6.1915   17.8438 S   0  0  1  0  0  0  0  0  0  0  0  0
    1.0148    7.8587   19.1441 H   0  0  0  0  0  0  0  0  0  0  0  0
    2.8422    9.4953   18.9946 H   0  0  0  0  0  0  0  0  0  0  0  0
   -2.2044    8.8363   17.5186 H   0  0  0  0  0  0  0  0  0  0  0  0
   -2.3609    6.4703   13.1868 H   0  0  0  0  0  0  0  0  0  0  0  0
   -1.3486    5.3860   15.1622 H   0  0  0  0  0  0  0  0  0  0  0  0
    4.5474   10.4148   16.4325 H   0  0  0  0  0  0  0  0  0  0  0  0
    4.9354   10.0799   18.1882 H   0  0  0  0  0  0  0  0  0  0  0  0
    6.1748    8.9424   15.7005 H   0  0  0  0  0  0  0  0  0  0  0  0
    6.9093    9.7954   17.1819 H   0  0  0  0  0  0  0  0  0  0  0  0
    5.7262    7.0296   17.3633 H   0  0  0  0  0  0  0  0  0  0  0  0
    7.4569    7.3490   16.8632 H   0  0  0  0  0  0  0  0  0  0  0  0
    6.1690    7.6131   19.6052 H   0  0  0  0  0  0  0  0  0  0  0  0
    7.8285    7.0914   19.1576 H   0  0  0  0  0  0  0  0  0  0  0  0
    7.4052    8.8371   19.1576 H   0  0  0  0  0  0  0  0  0  0  0  0
    4.3069    7.5526   15.4695 H   0  0  0  0  0  0  0  0  0  0  0  0
    2.4527    5.9074   15.6362 H   0  0  0  0  0  0  0  0  0  0  0  0
    0.7062    4.9339   17.1485 H   0  0  0  0  0  0  0  0  0  0  0  0
   -3.4034    8.3635   12.3184 H   0  0  0  0  0  0  0  0  0  0  0  0
  1  2  2  0
  1 17  1  0
  1 18  1  0
  2  3  1  0
  3 11  2  0
  4  6  2  0
  4 10  1  0
  5  6  1  0
  5 19  1  0
  5 23  2  0
  6  7  1  0
  7  8  2  0
  7 20  1  0
  8  9  1  0
  9 10  2  0
 10 24  1  0
 11 12  1  0
 11 16  1  0
 12 13  1  0
 13 14  1  0
 14 15  1  0
 16 17  2  0
 24 18  1  6
 21 24  2  0
 22 24  2  0
  2 25  1  0
  3 26  1  0
  4 27  1  0
  8 28  1  0
  9 29  1  0
 12 30  1  0
 12 31  1  0
 13 32  1  0
 13 33  1  0
 14 34  1  0
 14 35  1  0
 15 36  1  0
 15 37  1  0
 15 38  1  0
 16 39  1  0
 17 40  1  0
 18 41  1  0
 20 42  1  0
M  CHG  1  19  -1
M  END
>  <filename_input>  (9) 
7M3H_YPV_docked.sdf

>  <pdb_id>  (9) 
7M3H_YPV

>  <pose_rank>  (9) 
8

>  <num_atoms_heavy>  (9) 
24

>  <num_torsions>  (9) 
7

>  <pose>  (9) 
[-0.9985658418986365, 7.037365820672111, 18.99462781202651, 6.086394457544835, -1.5395448148401045, 0.5094178443118166, -5.992038413609193, 2.6404805413068244, 12.83773350476475, -3.145099672608947, -8.18277671928853, 11.010114630063484, 7.807673030897203]

>  <energy>  (9) 
-950.9549468246578

>  <inter_energy>  (9) 
-998.9050602343815

>  <intra_energy>  (9) 
43.95428420152077

>  <rmsd>  (9) 
0.61982

>  <sdf_rank>  (9) 
0

$$$$

     RDKit          3D

 42 43  0  0  0  0  0  0  0  0999 V2000
    1.7817    6.6350   17.3265 C   0  0  0  0  0  0  0  0  0  0  0  0
    1.9411    7.7541   18.1084 C   0  0  0  0  0  0  0  0  0  0  0  0
    2.9684    8.6678   17.8883 C   0  0  0  0  0  0  0  0  0  0  0  0
   -1.4893    6.5101   15.2945 C   0  0  0  0  0  0  0  0  0  0  0  0
   -2.0932    6.7065   12.8259 C   0  0  0  0  0  0  0  0  0  0  0  0
   -2.0650    7.2150   14.2576 C   0  0  0  0  0  0  0  0  0  0  0  0
   -2.6626    8.3904   14.5886 C   0  0  0  0  0  0  0  0  0  0  0  0
   -2.7225    8.8919   15.8482 C   0  0  0  0  0  0  0  0  0  0  0  0
   -2.1311    8.1471   16.8437 C   0  0  0  0  0  0  0  0  0  0  0  0
   -1.4682    6.9312   16.6209 C   0  0  0  0  0  0  0  0  0  0  0  0
    3.9036    8.4930   16.8954 C   0  0  0  0  0  0  0  0  0  0  0  0
    4.9797    9.5027   16.6681 C   0  0  0  0  0  0  0  0  0  0  0  0
    6.3559    9.0427   17.1189 C   0  0  0  0  0  0  0  0  0  0  0  0
    7.4094   10.1368   17.4584 C   0  0  0  0  0  0  0  0  0  0  0  0
    8.2119    9.8624   18.8118 C   0  0  0  0  0  0  0  0  0  0  0  0
    3.7563    7.3608   16.0890 C   0  0  0  0  0  0  0  0  0  0  0  0
    2.7137    6.4456   16.3223 C   0  0  0  0  0  0  0  0  0  0  0  0
    0.7200    5.7608   17.5030 N   0  0  0  0  0  0  0  0  0  0  0  0
   -1.0621    6.8751   12.0756 O   0  0  0  0  0  0  0  0  0  0  0  0
   -3.2691    9.1414   13.5748 O   0  0  0  0  0  0  0  0  0  0  0  0
   -0.7542    6.9067   19.0845 O   0  0  0  0  0  0  0  0  0  0  0  0
   -1.4167    4.7784   18.1002 O   0  0  0  0  0  0  0  0  0  0  0  0
   -3.1139    6.0737   12.4502 O   0  0  0  0  0  0  0  0  0  0  0  0
   -0.7792    6.0805   17.9196 S   0  0  1  0  0  0  0  0  0  0  0  0
    1.2356    7.9333   18.9332 H   0  0  0  0  0  0  0  0  0  0  0  0
    3.0340    9.5590   18.5297 H   0  0  0  0  0  0  0  0  0  0  0  0
   -1.0134    5.5475   15.0561 H   0  0  0  0  0  0  0  0  0  0  0  0
   -3.2203    9.8488   16.0638 H   0  0  0  0  0  0  0  0  0  0  0  0
   -2.1815    8.5279   17.8744 H   0  0  0  0  0  0  0  0  0  0  0  0
    5.0238    9.7265   15.5921 H   0  0  0  0  0  0  0  0  0  0  0  0
    4.7232   10.3861   17.2712 H   0  0  0  0  0  0  0  0  0  0  0  0
    6.2178    8.4285   18.0209 H   0  0  0  0  0  0  0  0  0  0  0  0
    6.7725    8.5169   16.2471 H   0  0  0  0  0  0  0  0  0  0  0  0
    8.1326   10.1901   16.6314 H   0  0  0  0  0  0  0  0  0  0  0  0
    6.8587   11.0787   17.5984 H   0  0  0  0  0  0  0  0  0  0  0  0
    7.5646   10.0837   19.6732 H   0  0  0  0  0  0  0  0  0  0  0  0
    8.5213    8.8074   18.8472 H   0  0  0  0  0  0  0  0  0  0  0  0
    9.1024   10.5071   18.8472 H   0  0  0  0  0  0  0  0  0  0  0  0
    4.4622    7.1838   15.2641 H   0  0  0  0  0  0  0  0  0  0  0  0
    2.6374    5.5514   15.6863 H   0  0  0  0  0  0  0  0  0  0  0  0
    0.9330    4.7660   17.3417 H   0  0  0  0  0  0  0  0  0  0  0  0
   -3.7104   10.0006   13.7918 H   0  0  0  0  0  0  0  0  0  0  0  0
  1  2  2  0
  1 17  1  0
  1 18  1  0
  2  3  1  0
  3 11  2  0
  4  6  2  0
  4 10  1  0
  5  6  1  0
  5 19  1  0
  5 23  2  0
  6  7  1  0
  7  8  2  0
  7 20  1  0
  8  9  1  0
  9 10  2  0
 10 24  1  0
 11 12  1  0
 11 16  1  0
 12 13  1  0
 13 14  1  0
 14 15  1  0
 16 17  2  0
 24 18  1  6
 21 24  2  0
 22 24  2  0
  2 25  1  0
  3 26  1  0
  4 27  1  0
  8 28  1  0
  9 29  1  0
 12 30  1  0
 12 31  1  0
 13 32  1  0
 13 33  1  0
 14 34  1  0
 14 35  1  0
 15 36  1  0
 15 37  1  0
 15 38  1  0
 16 39  1  0
 17 40  1  0
 18 41  1  0
 20 42  1  0
M  CHG  1  19  -1
M  END
>  <filename_input>  (10) 
7M3H_YPV_docked.sdf

>  <pdb_id>  (10) 
7M3H_YPV

>  <pose_rank>  (10) 
9

>  <num_atoms_heavy>  (10) 
24

>  <num_torsions>  (10) 
7

>  <pose>  (10) 
[-0.7541742594518595, 6.906705424187482, 19.08445729211062, -4.85667831678628, 1.0342019663486042, 3.7832401136861935, 3.2873795928893332, -1.4100941009987755, 6.403995816951823, -3.154887474457456, -2.4825189078847565, -3.563550876777977, -1.0966450642992975]

>  <energy>  (10) 
-827.2549559197395

>  <inter_energy>  (10) 
-839.6926168687569

>  <intra_energy>  (10) 
11.692132584055495

>  <rmsd>  (10) 
2.23088

>  <sdf_rank>  (10) 
0

$$$$

     RDKit          3D

 42 43  0  0  0  0  0  0  0  0999 V2000
   -0.0780    6.9988   16.8378 C   0  0  0  0  0  0  0  0  0  0  0  0
   -0.8350    6.1224   16.0975 C   0  0  0  0  0  0  0  0  0  0  0  0
   -2.1103    6.4496   15.6443 C   0  0  0  0  0  0  0  0  0  0  0  0
    5.0226    7.2766   17.3345 C   0  0  0  0  0  0  0  0  0  0  0  0
    7.3998    7.7160   18.1429 C   0  0  0  0  0  0  0  0  0  0  0  0
    5.9419    8.0997   17.9517 C   0  0  0  0  0  0  0  0  0  0  0  0
    5.4870    9.3180   18.3482 C   0  0  0  0  0  0  0  0  0  0  0  0
    4.2144    9.7553   18.1729 C   0  0  0  0  0  0  0  0  0  0  0  0
    3.3395    8.8925   17.5519 C   0  0  0  0  0  0  0  0  0  0  0  0
    3.6875    7.6049   17.1181 C   0  0  0  0  0  0  0  0  0  0  0  0
   -2.7029    7.6563   15.9334 C   0  0  0  0  0  0  0  0  0  0  0  0
   -4.0623    7.9880   15.4129 C   0  0  0  0  0  0  0  0  0  0  0  0
   -4.0450    8.8200   14.1416 C   0  0  0  0  0  0  0  0  0  0  0  0
   -2.7307    8.8410   13.3083 C   0  0  0  0  0  0  0  0  0  0  0  0
   -2.7113    7.7891   12.1066 C   0  0  0  0  0  0  0  0  0  0  0  0
   -1.9469    8.5610   16.6843 C   0  0  0  0  0  0  0  0  0  0  0  0
   -0.6597    8.2177   17.1359 C   0  0  0  0  0  0  0  0  0  0  0  0
    1.2171    6.6990   17.2319 N   0  0  0  0  0  0  0  0  0  0  0  0
    7.7366    7.0011   19.1577 O   0  0  0  0  0  0  0  0  0  0  0  0
    6.3814   10.1952   18.9728 O   0  0  0  0  0  0  0  0  0  0  0  0
    2.2407    7.1357   15.0527 O   0  0  0  0  0  0  0  0  0  0  0  0
    2.9364    5.2140   16.3797 O   0  0  0  0  0  0  0  0  0  0  0  0
    8.2174    8.0628   17.2514 O   0  0  0  0  0  0  0  0  0  0  0  0
    2.5366    6.6190   16.3509 S   0  0  1  0  0  0  0  0  0  0  0  0
   -0.4208    5.1325   15.8557 H   0  0  0  0  0  0  0  0  0  0  0  0
   -2.6619    5.7186   15.0348 H   0  0  0  0  0  0  0  0  0  0  0  0
    5.3693    6.2914   16.9891 H   0  0  0  0  0  0  0  0  0  0  0  0
    3.8967   10.7526   18.5113 H   0  0  0  0  0  0  0  0  0  0  0  0
    2.3068    9.2331   17.3862 H   0  0  0  0  0  0  0  0  0  0  0  0
   -4.5932    7.0473   15.2047 H   0  0  0  0  0  0  0  0  0  0  0  0
   -4.5629    8.5915   16.1844 H   0  0  0  0  0  0  0  0  0  0  0  0
   -4.8424    8.4373   13.4876 H   0  0  0  0  0  0  0  0  0  0  0  0
   -4.1720    9.8568   14.4863 H   0  0  0  0  0  0  0  0  0  0  0  0
   -2.6028    9.8495   12.8882 H   0  0  0  0  0  0  0  0  0  0  0  0
   -1.9146    8.5620   13.9910 H   0  0  0  0  0  0  0  0  0  0  0  0
   -2.6923    6.7674   12.5140 H   0  0  0  0  0  0  0  0  0  0  0  0
   -3.6120    7.9210   11.4892 H   0  0  0  0  0  0  0  0  0  0  0  0
   -1.8160    7.9542   11.4892 H   0  0  0  0  0  0  0  0  0  0  0  0
   -2.3625    9.5508   16.9243 H   0  0  0  0  0  0  0  0  0  0  0  0
   -0.0982    8.9412   17.7451 H   0  0  0  0  0  0  0  0  0  0  0  0
    1.3409    6.5008   18.2351 H   0  0  0  0  0  0  0  0  0  0  0  0
    6.0730   11.0878   19.2702 H   0  0  0  0  0  0  0  0  0  0  0  0
  1  2  2  0
  1 17  1  0
  1 18  1  0
  2  3  1  0
  3 11  2  0
  4  6  2  0
  4 10  1  0
  5  6  1  0
  5 19  1  0
  5 23  2  0
  6  7  1  0
  7  8  2  0
  7 20  1  0
  8  9  1  0
  9 10  2  0
 10 24  1  0
 11 12  1  0
 11 16  1  0
 12 13  1  0
 13 14  1  0
 14 15  1  0
 16 17  2  0
 24 18  1  1
 21 24  2  0
 22 24  2  0
  2 25  1  0
  3 26  1  0
  4 27  1  0
  8 28  1  0
  9 29  1  0
 12 30  1  0
 12 31  1  0
 13 32  1  0
 13 33  1  0
 14 34  1  0
 14 35  1  0
 15 36  1  0
 15 37  1  0
 15 38  1  0
 16 39  1  0
 17 40  1  0
 18 41  1  0
 20 42  1  0
M  CHG  1  19  -1
M  END
>  <filename_input>  (11) 
7M3H_YPV_docked.sdf

>  <pdb_id>  (11) 
7M3H_YPV

>  <pose_rank>  (11) 
10

>  <num_atoms_heavy>  (11) 
24

>  <num_torsions>  (11) 
7

>  <pose>  (11) 
[2.24065122789573, 7.135657520629064, 15.052689651494186, 0.21764897620069654, 3.3960011798749274, -0.5103243553486266, 11.002031323415181, 4.838712387658784, 26.300600215757097, 3.7610733485784875, 6.5225404378910765, -0.5035682340174944, -1.7782217737450754]

>  <energy>  (11) 
-667.1967347600992

>  <inter_energy>  (11) 
-677.7944071199289

>  <intra_energy>  (11) 
9.402901195077416

>  <rmsd>  (11) 
8.03996

>  <sdf_rank>  (11) 
0

$$$$

     RDKit          3D

 42 43  0  0  0  0  0  0  0  0999 V2000
    2.4893    7.7234   16.7861 C   0  0  0  0  0  0  0  0  0  0  0  0
    3.6004    6.9748   16.4794 C   0  0  0  0  0  0  0  0  0  0  0  0
    4.8545    7.2639   17.0107 C   0  0  0  0  0  0  0  0  0  0  0  0
   -1.7786    7.8888   15.3786 C   0  0  0  0  0  0  0  0  0  0  0  0
   -3.3509    8.9123   13.6531 C   0  0  0  0  0  0  0  0  0  0  0  0
   -2.9314    8.5837   15.0762 C   0  0  0  0  0  0  0  0  0  0  0  0
   -3.7193    8.9283   16.1291 C   0  0  0  0  0  0  0  0  0  0  0  0
   -3.4410    8.6324   17.4239 C   0  0  0  0  0  0  0  0  0  0  0  0
   -2.2774    7.9381   17.6677 C   0  0  0  0  0  0  0  0  0  0  0  0
   -1.3765    7.5468   16.6664 C   0  0  0  0  0  0  0  0  0  0  0  0
    5.0654    8.3321   17.8506 C   0  0  0  0  0  0  0  0  0  0  0  0
    6.4172    8.6025   18.4238 C   0  0  0  0  0  0  0  0  0  0  0  0
    7.5568    8.3453   17.4522 C   0  0  0  0  0  0  0  0  0  0  0  0
    8.8284    9.2339   17.5766 C   0  0  0  0  0  0  0  0  0  0  0  0
    8.6962   10.4027   18.6570 C   0  0  0  0  0  0  0  0  0  0  0  0
    3.9461    9.1039   18.1749 C   0  0  0  0  0  0  0  0  0  0  0  0
    2.6847    8.8008   17.6311 C   0  0  0  0  0  0  0  0  0  0  0  0
    1.2287    7.3957   16.3106 N   0  0  0  0  0  0  0  0  0  0  0  0
   -3.6892    7.9591   12.8584 O   0  0  0  0  0  0  0  0  0  0  0  0
   -4.9052    9.6279   15.8766 O   0  0  0  0  0  0  0  0  0  0  0  0
    0.2703    6.7713   18.4737 O   0  0  0  0  0  0  0  0  0  0  0  0
   -0.0121    5.3227   16.5348 O   0  0  0  0  0  0  0  0  0  0  0  0
   -3.4146   10.1263   13.3279 O   0  0  0  0  0  0  0  0  0  0  0  0
    0.0290    6.6820   17.0688 S   0  0  1  0  0  0  0  0  0  0  0  0
    3.4957    6.1214   15.7933 H   0  0  0  0  0  0  0  0  0  0  0  0
    5.7047    6.6164   16.7499 H   0  0  0  0  0  0  0  0  0  0  0  0
   -1.1315    7.5835   14.5430 H   0  0  0  0  0  0  0  0  0  0  0  0
   -4.1137    8.9333   18.2406 H   0  0  0  0  0  0  0  0  0  0  0  0
   -2.0404    7.6746   18.7091 H   0  0  0  0  0  0  0  0  0  0  0  0
    6.4577    9.6569   18.7348 H   0  0  0  0  0  0  0  0  0  0  0  0
    6.5524    7.9098   19.2675 H   0  0  0  0  0  0  0  0  0  0  0  0
    7.8723    7.3000   17.5854 H   0  0  0  0  0  0  0  0  0  0  0  0
    7.1408    8.5922   16.4643 H   0  0  0  0  0  0  0  0  0  0  0  0
    9.6738    8.5911   17.8631 H   0  0  0  0  0  0  0  0  0  0  0  0
    8.9781    9.7168   16.5996 H   0  0  0  0  0  0  0  0  0  0  0  0
    8.7447    9.9739   19.6688 H   0  0  0  0  0  0  0  0  0  0  0  0
    9.5188   11.1206   18.5232 H   0  0  0  0  0  0  0  0  0  0  0  0
    7.7339   10.9186   18.5232 H   0  0  0  0  0  0  0  0  0  0  0  0
    4.0527    9.9564   18.8619 H   0  0  0  0  0  0  0  0  0  0  0  0
    1.8269    9.4406   17.8858 H   0  0  0  0  0  0  0  0  0  0  0  0
    1.0446    7.6504   15.3297 H   0  0  0  0  0  0  0  0  0  0  0  0
   -5.4951    9.8896   16.6274 H   0  0  0  0  0  0  0  0  0  0  0  0
  1  2  2  0
  1 17  1  0
  1 18  1  0
  2  3  1  0
  3 11  2  0
  4  6  2  0
  4 10  1  0
  5  6  1  0
  5 19  1  0
  5 23  2  0
  6  7  1  0
  7  8  2  0
  7 20  1  0
  8  9  1  0
  9 10  2  0
 10 24  1  0
 11 12  1  0
 11 16  1  0
 12 13  1  0
 13 14  1  0
 14 15  1  0
 16 17  2  0
 24 18  1  6
 21 24  2  0
 22 24  2  0
  2 25  1  0
  3 26  1  0
  4 27  1  0
  8 28  1  0
  9 29  1  0
 12 30  1  0
 12 31  1  0
 13 32  1  0
 13 33  1  0
 14 34  1  0
 14 35  1  0
 15 36  1  0
 15 37  1  0
 15 38  1  0
 16 39  1  0
 17 40  1  0
 18 41  1  0
 20 42  1  0
M  CHG  1  19  -1
M  END
>  <filename_input>  (12) 
7M3H_YPV_docked.sdf

>  <pdb_id>  (12) 
7M3H_YPV

>  <pose_rank>  (12) 
11

>  <num_atoms_heavy>  (12) 
24

>  <num_torsions>  (12) 
7

>  <pose>  (12) 
[0.27029143412611356, 6.771309216059095, 18.473691258097958, -8.773929072800648, -4.738623271697627, -6.197520245687977, -3.0567047886178575, 1.1973091595239675, 1.3073088391305805, -1.990762492660919, -9.96565896412881, -4.5346556812505865, -9.821451828939065]

>  <energy>  (12) 
-803.1601767881714

>  <inter_energy>  (12) 
-806.0461309453991

>  <intra_energy>  (12) 
8.308572244134716

>  <rmsd>  (12) 
2.18769

>  <sdf_rank>  (12) 
0

$$$$

     RDKit          3D

 42 43  0  0  0  0  0  0  0  0999 V2000
    1.4442    6.8572   17.2232 C   0  0  0  0  0  0  0  0  0  0  0  0
    1.6288    8.0285   17.9183 C   0  0  0  0  0  0  0  0  0  0  0  0
    2.6344    8.9326   17.5867 C   0  0  0  0  0  0  0  0  0  0  0  0
   -2.5790    8.1249   16.4376 C   0  0  0  0  0  0  0  0  0  0  0  0
   -3.9391    9.9206   15.2447 C   0  0  0  0  0  0  0  0  0  0  0  0
   -3.1599    8.6166   15.2869 C   0  0  0  0  0  0  0  0  0  0  0  0
   -2.9595    7.8909   14.1549 C   0  0  0  0  0  0  0  0  0  0  0  0
   -2.2383    6.7428   14.0980 C   0  0  0  0  0  0  0  0  0  0  0  0
   -1.6817    6.2981   15.2762 C   0  0  0  0  0  0  0  0  0  0  0  0
   -1.8364    6.9499   16.5084 C   0  0  0  0  0  0  0  0  0  0  0  0
    3.5228    8.6971   16.5638 C   0  0  0  0  0  0  0  0  0  0  0  0
    4.5757    9.6969   16.2162 C   0  0  0  0  0  0  0  0  0  0  0  0
    5.9689    9.3047   16.6787 C   0  0  0  0  0  0  0  0  0  0  0  0
    6.1185    8.7271   18.1161 C   0  0  0  0  0  0  0  0  0  0  0  0
    5.8209    9.7879   19.2724 C   0  0  0  0  0  0  0  0  0  0  0  0
    3.3493    7.5111   15.8446 C   0  0  0  0  0  0  0  0  0  0  0  0
    2.3291    6.6063   16.1903 C   0  0  0  0  0  0  0  0  0  0  0  0
    0.4018    5.9891   17.5103 N   0  0  0  0  0  0  0  0  0  0  0  0
   -3.3291   11.0111   14.9396 O   0  0  0  0  0  0  0  0  0  0  0  0
   -3.5210    8.3501   12.9576 O   0  0  0  0  0  0  0  0  0  0  0  0
   -1.0800    7.3205   18.9313 O   0  0  0  0  0  0  0  0  0  0  0  0
   -1.6930    5.0495   18.2954 O   0  0  0  0  0  0  0  0  0  0  0  0
   -5.1798    9.8671   15.4478 O   0  0  0  0  0  0  0  0  0  0  0  0
   -1.0993    6.3264   17.9059 S   0  0  1  0  0  0  0  0  0  0  0  0
    0.9618    8.2586   18.7622 H   0  0  0  0  0  0  0  0  0  0  0  0
    2.7211    9.8662   18.1620 H   0  0  0  0  0  0  0  0  0  0  0  0
   -2.7121    8.7022   17.3645 H   0  0  0  0  0  0  0  0  0  0  0  0
   -2.1046    6.1931   13.1547 H   0  0  0  0  0  0  0  0  0  0  0  0
   -1.0803    5.3774   15.2495 H   0  0  0  0  0  0  0  0  0  0  0  0
    4.5937    9.8159   15.1228 H   0  0  0  0  0  0  0  0  0  0  0  0
    4.3159   10.6305   16.7366 H   0  0  0  0  0  0  0  0  0  0  0  0
    6.3456    8.5446   15.9785 H   0  0  0  0  0  0  0  0  0  0  0  0
    6.5312   10.2499   16.6992 H   0  0  0  0  0  0  0  0  0  0  0  0
    5.4166    7.8875   18.2270 H   0  0  0  0  0  0  0  0  0  0  0  0
    7.1678    8.4171   18.2287 H   0  0  0  0  0  0  0  0  0  0  0  0
    5.9554    9.3086   20.2533 H   0  0  0  0  0  0  0  0  0  0  0  0
    6.5159   10.6355   19.1801 H   0  0  0  0  0  0  0  0  0  0  0  0
    4.7864   10.1503   19.1801 H   0  0  0  0  0  0  0  0  0  0  0  0
    4.0167    7.2832   15.0005 H   0  0  0  0  0  0  0  0  0  0  0  0
    2.2321    5.6699   15.6212 H   0  0  0  0  0  0  0  0  0  0  0  0
    0.6328    4.9866   17.4602 H   0  0  0  0  0  0  0  0  0  0  0  0
   -3.3885    7.8383   12.1205 H   0  0  0  0  0  0  0  0  0  0  0  0
  1  2  2  0
  1 17  1  0
  1 18  1  0
  2  3  1  0
  3 11  2  0
  4  6  2  0
  4 10  1  0
  5  6  1  0
  5 19  1  0
  5 23  2  0
  6  7  1  0
  7  8  2  0
  7 20  1  0
  8  9  1  0
  9 10  2  0
 10 24  1  0
 11 12  1  0
 11 16  1  0
 12 13  1  0
 13 14  1  0
 14 15  1  0
 16 17  2  0
 24 18  1  6
 21 24  2  0
 22 24  2  0
  2 25  1  0
  3 26  1  0
  4 27  1  0
  8 28  1  0
  9 29  1  0
 12 30  1  0
 12 31  1  0
 13 32  1  0
 13 33  1  0
 14 34  1  0
 14 35  1  0
 15 36  1  0
 15 37  1  0
 15 38  1  0
 16 39  1  0
 17 40  1  0
 18 41  1  0
 20 42  1  0
M  CHG  1  19  -1
M  END
>  <filename_input>  (13) 
7M3H_YPV_docked.sdf

>  <pdb_id>  (13) 
7M3H_YPV

>  <pose_rank>  (13) 
12

>  <num_atoms_heavy>  (13) 
24

>  <num_torsions>  (13) 
7

>  <pose>  (13) 
[-1.0800165462634341, 7.320458172186469, 18.93130757462878, 6.129153388923341, -0.5712687861572545, -0.268596233350306, -6.209349221350485, 1.643921728391188, 12.728267294107987, -3.095454081670819, -8.805667986210917, 10.965833507549696, 7.939129685328145]

>  <energy>  (13) 
-916.3584385688378

>  <inter_energy>  (13) 
-926.9055675514633

>  <intra_energy>  (13) 
14.712540229399567

>  <rmsd>  (13) 
0.85363

>  <sdf_rank>  (13) 
0

$$$$

     RDKit          3D

 42 43  0  0  0  0  0  0  0  0999 V2000
    1.7416    6.7681   17.2525 C   0  0  0  0  0  0  0  0  0  0  0  0
    2.0932    7.7103   18.1894 C   0  0  0  0  0  0  0  0  0  0  0  0
    3.0915    8.6512   17.9511 C   0  0  0  0  0  0  0  0  0  0  0  0
   -2.3014    8.1105   16.6280 C   0  0  0  0  0  0  0  0  0  0  0  0
   -3.6900   10.0122   15.6519 C   0  0  0  0  0  0  0  0  0  0  0  0
   -2.8659    8.7405   15.5381 C   0  0  0  0  0  0  0  0  0  0  0  0
   -2.6066    8.1878   14.3233 C   0  0  0  0  0  0  0  0  0  0  0  0
   -1.8432    7.0825   14.1313 C   0  0  0  0  0  0  0  0  0  0  0  0
   -1.3056    6.4943   15.2540 C   0  0  0  0  0  0  0  0  0  0  0  0
   -1.5194    6.9612   16.5592 C   0  0  0  0  0  0  0  0  0  0  0  0
    3.8071    8.6780   16.7771 C   0  0  0  0  0  0  0  0  0  0  0  0
    4.8554    9.7145   16.5408 C   0  0  0  0  0  0  0  0  0  0  0  0
    6.2736    9.1703   16.5771 C   0  0  0  0  0  0  0  0  0  0  0  0
    6.7628    8.5126   17.9000 C   0  0  0  0  0  0  0  0  0  0  0  0
    6.9396    9.5437   19.1068 C   0  0  0  0  0  0  0  0  0  0  0  0
    3.4621    7.7279   15.8117 C   0  0  0  0  0  0  0  0  0  0  0  0
    2.4514    6.7829   16.0656 C   0  0  0  0  0  0  0  0  0  0  0  0
    0.7026    5.8744   17.4636 N   0  0  0  0  0  0  0  0  0  0  0  0
   -3.0922   11.1503   15.6938 O   0  0  0  0  0  0  0  0  0  0  0  0
   -3.1492    8.7928   13.1835 O   0  0  0  0  0  0  0  0  0  0  0  0
   -0.7894    7.0353   19.0171 O   0  0  0  0  0  0  0  0  0  0  0  0
   -1.4054    4.8602   18.1079 O   0  0  0  0  0  0  0  0  0  0  0  0
   -4.9432    9.9004   15.6327 O   0  0  0  0  0  0  0  0  0  0  0  0
   -0.8014    6.1709   17.8802 S   0  0  1  0  0  0  0  0  0  0  0  0
    1.5700    7.7213   19.1570 H   0  0  0  0  0  0  0  0  0  0  0  0
    3.3151    9.3977   18.7274 H   0  0  0  0  0  0  0  0  0  0  0  0
   -2.4822    8.5472   17.6212 H   0  0  0  0  0  0  0  0  0  0  0  0
   -1.6624    6.6754   13.1255 H   0  0  0  0  0  0  0  0  0  0  0  0
   -0.6709    5.6060   15.1195 H   0  0  0  0  0  0  0  0  0  0  0  0
    4.6817   10.1648   15.5524 H   0  0  0  0  0  0  0  0  0  0  0  0
    4.7720   10.4471   17.3571 H   0  0  0  0  0  0  0  0  0  0  0  0
    6.3550    8.4125   15.7839 H   0  0  0  0  0  0  0  0  0  0  0  0
    6.9143   10.0558   16.4535 H   0  0  0  0  0  0  0  0  0  0  0  0
    6.0289    7.7502   18.2002 H   0  0  0  0  0  0  0  0  0  0  0  0
    7.7557    8.0849   17.6966 H   0  0  0  0  0  0  0  0  0  0  0  0
    6.8478    9.0081   20.0632 H   0  0  0  0  0  0  0  0  0  0  0  0
    7.9316   10.0149   19.0442 H   0  0  0  0  0  0  0  0  0  0  0  0
    6.1611   10.3184   19.0442 H   0  0  0  0  0  0  0  0  0  0  0  0
    3.9858    7.7190   14.8444 H   0  0  0  0  0  0  0  0  0  0  0  0
    2.2183    6.0323   15.2960 H   0  0  0  0  0  0  0  0  0  0  0  0
    0.9387    4.8805   17.3320 H   0  0  0  0  0  0  0  0  0  0  0  0
   -2.9741    8.4084   12.2881 H   0  0  0  0  0  0  0  0  0  0  0  0
  1  2  2  0
  1 17  1  0
  1 18  1  0
  2  3  1  0
  3 11  2  0
  4  6  2  0
  4 10  1  0
  5  6  1  0
  5 19  1  0
  5 23  2  0
  6  7  1  0
  7  8  2  0
  7 20  1  0
  8  9  1  0
  9 10  2  0
 10 24  1  0
 11 12  1  0
 11 16  1  0
 12 13  1  0
 13 14  1  0
 14 15  1  0
 16 17  2  0
 24 18  1  6
 21 24  2  0
 22 24  2  0
  2 25  1  0
  3 26  1  0
  4 27  1  0
  8 28  1  0
  9 29  1  0
 12 30  1  0
 12 31  1  0
 13 32  1  0
 13 33  1  0
 14 34  1  0
 14 35  1  0
 15 36  1  0
 15 37  1  0
 15 38  1  0
 16 39  1  0
 17 40  1  0
 18 41  1  0
 20 42  1  0
M  CHG  1  19  -1
M  END
>  <filename_input>  (14) 
7M3H_YPV_docked.sdf

>  <pdb_id>  (14) 
7M3H_YPV

>  <pose_rank>  (14) 
13

>  <num_atoms_heavy>  (14) 
24

>  <num_torsions>  (14) 
7

>  <pose>  (14) 
[-0.7894431886974932, 7.035340585103646, 19.017127294336106, 6.2789102777830985, -0.01797242391103756, -0.19360169431038984, -6.258138782022828, 1.4901875728382932, 12.688758242545404, -2.850987992960495, -8.741497767915247, 10.671006268614812, 7.9231924155605284]

>  <energy>  (14) 
-962.8164799268444

>  <inter_energy>  (14) 
-968.333921341887

>  <intra_energy>  (14) 
10.257017994483407

>  <rmsd>  (14) 
0.623762

>  <sdf_rank>  (14) 
0

$$$$

     RDKit          3D

 42 43  0  0  0  0  0  0  0  0999 V2000
   -0.9766    6.1671   16.0527 C   0  0  0  0  0  0  0  0  0  0  0  0
   -0.7051    5.6398   14.8128 C   0  0  0  0  0  0  0  0  0  0  0  0
   -1.6462    5.6452   13.7866 C   0  0  0  0  0  0  0  0  0  0  0  0
    2.7397    7.3772   16.8788 C   0  0  0  0  0  0  0  0  0  0  0  0
    4.9338    7.2753   15.5855 C   0  0  0  0  0  0  0  0  0  0  0  0
    4.0624    7.7437   16.7389 C   0  0  0  0  0  0  0  0  0  0  0  0
    4.5507    8.6012   17.6740 C   0  0  0  0  0  0  0  0  0  0  0  0
    3.8270    9.1024   18.7068 C   0  0  0  0  0  0  0  0  0  0  0  0
    2.5128    8.7026   18.7981 C   0  0  0  0  0  0  0  0  0  0  0  0
    1.9046    7.8075   17.9057 C   0  0  0  0  0  0  0  0  0  0  0  0
   -2.9135    6.1507   13.9579 C   0  0  0  0  0  0  0  0  0  0  0  0
   -3.8931    6.1646   12.8313 C   0  0  0  0  0  0  0  0  0  0  0  0
   -3.2614    6.4237   11.4739 C   0  0  0  0  0  0  0  0  0  0  0  0
   -2.3355    7.6665   11.3319 C   0  0  0  0  0  0  0  0  0  0  0  0
   -2.0800    8.4416   12.7048 C   0  0  0  0  0  0  0  0  0  0  0  0
   -3.2070    6.6927   15.2125 C   0  0  0  0  0  0  0  0  0  0  0  0
   -2.2469    6.6808   16.2406 C   0  0  0  0  0  0  0  0  0  0  0  0
   -0.0182    6.2223   17.0533 N   0  0  0  0  0  0  0  0  0  0  0  0
    4.8066    7.8304   14.4321 O   0  0  0  0  0  0  0  0  0  0  0  0
    5.8855    9.0112   17.5738 O   0  0  0  0  0  0  0  0  0  0  0  0
    0.0517    6.8703   19.4118 O   0  0  0  0  0  0  0  0  0  0  0  0
   -0.6118    8.4818   17.7087 O   0  0  0  0  0  0  0  0  0  0  0  0
    5.8021    6.3974   15.8277 O   0  0  0  0  0  0  0  0  0  0  0  0
    0.2708    7.3842   18.0973 S   0  0  1  0  0  0  0  0  0  0  0  0
    0.2857    5.2002   14.6255 H   0  0  0  0  0  0  0  0  0  0  0  0
   -1.3666    5.2315   12.8064 H   0  0  0  0  0  0  0  0  0  0  0  0
    2.3152    6.6970   16.1257 H   0  0  0  0  0  0  0  0  0  0  0  0
    4.2698    9.7958   19.4370 H   0  0  0  0  0  0  0  0  0  0  0  0
    1.9039    9.1090   19.6191 H   0  0  0  0  0  0  0  0  0  0  0  0
   -4.3979    5.1878   12.7983 H   0  0  0  0  0  0  0  0  0  0  0  0
   -4.5914    6.9925   13.0235 H   0  0  0  0  0  0  0  0  0  0  0  0
   -2.6634    5.5373   11.2153 H   0  0  0  0  0  0  0  0  0  0  0  0
   -4.1111    6.6326   10.8073 H   0  0  0  0  0  0  0  0  0  0  0  0
   -1.3648    7.3322   10.9368 H   0  0  0  0  0  0  0  0  0  0  0  0
   -2.8455    8.3700   10.6574 H   0  0  0  0  0  0  0  0  0  0  0  0
   -2.3004    7.7728   13.5499 H   0  0  0  0  0  0  0  0  0  0  0  0
   -1.0289    8.7618   12.7550 H   0  0  0  0  0  0  0  0  0  0  0  0
   -2.7349    9.3240   12.7550 H   0  0  0  0  0  0  0  0  0  0  0  0
   -4.1980    7.1327   15.3976 H   0  0  0  0  0  0  0  0  0  0  0  0
   -2.5148    7.0929   17.2246 H   0  0  0  0  0  0  0  0  0  0  0  0
    0.5909    5.3952   17.1302 H   0  0  0  0  0  0  0  0  0  0  0  0
    6.2632    9.6352   18.2431 H   0  0  0  0  0  0  0  0  0  0  0  0
  1  2  2  0
  1 17  1  0
  1 18  1  0
  2  3  1  0
  3 11  2  0
  4  6  2  0
  4 10  1  0
  5  6  1  0
  5 19  1  0
  5 23  2  0
  6  7  1  0
  7  8  2  0
  7 20  1  0
  8  9  1  0
  9 10  2  0
 10 24  1  0
 11 12  1  0
 11 16  1  0
 12 13  1  0
 13 14  1  0
 14 15  1  0
 16 17  2  0
 24 18  1  6
 21 24  2  0
 22 24  2  0
  2 25  1  0
  3 26  1  0
  4 27  1  0
  8 28  1  0
  9 29  1  0
 12 30  1  0
 12 31  1  0
 13 32  1  0
 13 33  1  0
 14 34  1  0
 14 35  1  0
 15 36  1  0
 15 37  1  0
 15 38  1  0
 16 39  1  0
 17 40  1  0
 18 41  1  0
 20 42  1  0
M  CHG  1  19  -1
M  END
>  <filename_input>  (15) 
7M3H_YPV_docked.sdf

>  <pdb_id>  (15) 
7M3H_YPV

>  <pose_rank>  (15) 
14

>  <num_atoms_heavy>  (15) 
24

>  <num_torsions>  (15) 
7

>  <pose>  (15) 
[0.051658210090359036, 6.870279840836062, 19.411768797479063, 0.8396546552013119, -0.38117443638894, -1.8744678620468627, 2.526555812607875, 13.949155077856558, -3.2256624331432993, 4.950729418607664, 1.3082989050804552, -1.7366268894508063, 2.920886850125969]

>  <energy>  (15) 
-554.512233314504

>  <inter_energy>  (15) 
-633.816061272076

>  <intra_energy>  (15) 
88.47435672791221

>  <rmsd>  (15) 
7.38125

>  <sdf_rank>  (15) 
0

$$$$

     RDKit          3D

 42 43  0  0  0  0  0  0  0  0999 V2000
    1.5316    7.5402   16.9295 C   0  0  0  0  0  0  0  0  0  0  0  0
    0.6587    7.2716   17.9566 C   0  0  0  0  0  0  0  0  0  0  0  0
   -0.6563    6.8778   17.7235 C   0  0  0  0  0  0  0  0  0  0  0  0
    6.0585    8.9021   17.7206 C   0  0  0  0  0  0  0  0  0  0  0  0
    7.7407   10.2381   19.0927 C   0  0  0  0  0  0  0  0  0  0  0  0
    7.1660    8.9435   18.5423 C   0  0  0  0  0  0  0  0  0  0  0  0
    7.7053    7.7436   18.8852 C   0  0  0  0  0  0  0  0  0  0  0  0
    7.2253    6.5423   18.4755 C   0  0  0  0  0  0  0  0  0  0  0  0
    6.1187    6.5603   17.6567 C   0  0  0  0  0  0  0  0  0  0  0  0
    5.4889    7.7351   17.2200 C   0  0  0  0  0  0  0  0  0  0  0  0
   -1.1718    6.7616   16.4539 C   0  0  0  0  0  0  0  0  0  0  0  0
   -2.5790    6.3137   16.2349 C   0  0  0  0  0  0  0  0  0  0  0  0
   -2.9004    5.9912   14.7853 C   0  0  0  0  0  0  0  0  0  0  0  0
   -4.1212    6.7073   14.1380 C   0  0  0  0  0  0  0  0  0  0  0  0
   -4.0713    6.7532   12.5423 C   0  0  0  0  0  0  0  0  0  0  0  0
   -0.2977    7.0294   15.3965 C   0  0  0  0  0  0  0  0  0  0  0  0
    1.0285    7.4265   15.6461 C   0  0  0  0  0  0  0  0  0  0  0  0
    2.8591    7.8672   17.1603 N   0  0  0  0  0  0  0  0  0  0  0  0
    8.9685   10.5366   18.8520 O   0  0  0  0  0  0  0  0  0  0  0  0
    8.8261    7.7290   19.7238 O   0  0  0  0  0  0  0  0  0  0  0  0
    4.1510    8.7116   15.2614 O   0  0  0  0  0  0  0  0  0  0  0  0
    3.9558    6.3144   15.6524 O   0  0  0  0  0  0  0  0  0  0  0  0
    6.9611   11.0066   19.7133 O   0  0  0  0  0  0  0  0  0  0  0  0
    4.1198    7.6515   16.2181 S   0  0  1  0  0  0  0  0  0  0  0  0
    1.0096    7.3709   18.9944 H   0  0  0  0  0  0  0  0  0  0  0  0
   -1.3043    6.6521   18.5833 H   0  0  0  0  0  0  0  0  0  0  0  0
    5.5928    9.8588   17.4415 H   0  0  0  0  0  0  0  0  0  0  0  0
    7.6983    5.5980   18.7833 H   0  0  0  0  0  0  0  0  0  0  0  0
    5.7041    5.5968   17.3254 H   0  0  0  0  0  0  0  0  0  0  0  0
   -2.7536    5.4106   16.8382 H   0  0  0  0  0  0  0  0  0  0  0  0
   -3.2312    7.1490   16.5300 H   0  0  0  0  0  0  0  0  0  0  0  0
   -2.0137    6.2486   14.1873 H   0  0  0  0  0  0  0  0  0  0  0  0
   -3.1743    4.9259   14.7917 H   0  0  0  0  0  0  0  0  0  0  0  0
   -5.0354    6.1758   14.4411 H   0  0  0  0  0  0  0  0  0  0  0  0
   -4.1036    7.7497   14.4888 H   0  0  0  0  0  0  0  0  0  0  0  0
   -3.2977    7.4656   12.2200 H   0  0  0  0  0  0  0  0  0  0  0  0
   -3.8325    5.7521   12.1540 H   0  0  0  0  0  0  0  0  0  0  0  0
   -5.0494    7.0734   12.1540 H   0  0  0  0  0  0  0  0  0  0  0  0
   -0.6503    6.9287   14.3594 H   0  0  0  0  0  0  0  0  0  0  0  0
    1.6861    7.6536   14.7940 H   0  0  0  0  0  0  0  0  0  0  0  0
    3.0551    8.3116   18.0686 H   0  0  0  0  0  0  0  0  0  0  0  0
    9.2362    6.8673   19.9871 H   0  0  0  0  0  0  0  0  0  0  0  0
  1  2  2  0
  1 17  1  0
  1 18  1  0
  2  3  1  0
  3 11  2  0
  4  6  2  0
  4 10  1  0
  5  6  1  0
  5 19  1  0
  5 23  2  0
  6  7  1  0
  7  8  2  0
  7 20  1  0
  8  9  1  0
  9 10  2  0
 10 24  1  0
 11 12  1  0
 11 16  1  0
 12 13  1  0
 13 14  1  0
 14 15  1  0
 16 17  2  0
 24 18  1  1
 21 24  2  0
 22 24  2  0
  2 25  1  0
  3 26  1  0
  4 27  1  0
  8 28  1  0
  9 29  1  0
 12 30  1  0
 12 31  1  0
 13 32  1  0
 13 33  1  0
 14 34  1  0
 14 35  1  0
 15 36  1  0
 15 37  1  0
 15 38  1  0
 16 39  1  0
 17 40  1  0
 18 41  1  0
 20 42  1  0
M  CHG  1  19  -1
M  END
>  <filename_input>  (16) 
7M3H_YPV_docked.sdf

>  <pdb_id>  (16) 
7M3H_YPV

>  <pose_rank>  (16) 
15

>  <num_atoms_heavy>  (16) 
24

>  <num_torsions>  (16) 
7

>  <pose>  (16) 
[4.150951275532507, 8.711578118420723, 15.261416579517155, -0.6247231719476666, -2.6882522421678354, -0.25866450247218775, 0.9968557502431011, -2.1128798161595737, 2.41544302306371, -1.1037881054430716, -1.023150644586901, 3.2528021840802235, -0.6857783137267988]

>  <energy>  (16) 
-601.4894554997171

>  <inter_energy>  (16) 
-604.4808365626078

>  <intra_energy>  (16) 
14.063319203580747

>  <rmsd>  (16) 
8.65397

>  <sdf_rank>  (16) 
0

$$$$

     RDKit          3D

 42 43  0  0  0  0  0  0  0  0999 V2000
    0.0151    5.5263   11.7308 C   0  0  0  0  0  0  0  0  0  0  0  0
    0.2697    6.2455   10.5875 C   0  0  0  0  0  0  0  0  0  0  0  0
    0.5579    5.6254    9.3746 C   0  0  0  0  0  0  0  0  0  0  0  0
   -2.3562    7.7783   14.6195 C   0  0  0  0  0  0  0  0  0  0  0  0
   -3.7870    9.8842   14.7449 C   0  0  0  0  0  0  0  0  0  0  0  0
   -2.9490    8.7777   15.3634 C   0  0  0  0  0  0  0  0  0  0  0  0
   -2.7868    8.7006   16.7110 C   0  0  0  0  0  0  0  0  0  0  0  0
   -2.0943    7.7208   17.3450 C   0  0  0  0  0  0  0  0  0  0  0  0
   -1.5234    6.7498   16.5533 C   0  0  0  0  0  0  0  0  0  0  0  0
   -1.6053    6.7351   15.1532 C   0  0  0  0  0  0  0  0  0  0  0  0
    0.6348    4.2580    9.2514 C   0  0  0  0  0  0  0  0  0  0  0  0
    0.9221    3.6212    7.9319 C   0  0  0  0  0  0  0  0  0  0  0  0
    2.2064    2.8096    7.9104 C   0  0  0  0  0  0  0  0  0  0  0  0
    2.1684    1.4126    7.2256 C   0  0  0  0  0  0  0  0  0  0  0  0
    3.5935    0.9063    6.7120 C   0  0  0  0  0  0  0  0  0  0  0  0
    0.3773    3.5101   10.4038 C   0  0  0  0  0  0  0  0  0  0  0  0
    0.0873    4.1493   11.6229 C   0  0  0  0  0  0  0  0  0  0  0  0
   -0.3375    6.1415   12.9223 N   0  0  0  0  0  0  0  0  0  0  0  0
   -5.0607    9.7327   14.6482 O   0  0  0  0  0  0  0  0  0  0  0  0
   -3.3748    9.6858   17.5131 O   0  0  0  0  0  0  0  0  0  0  0  0
    0.2418    4.9630   14.9870 O   0  0  0  0  0  0  0  0  0  0  0  0
   -1.8568    4.4888   13.8430 O   0  0  0  0  0  0  0  0  0  0  0  0
   -3.1991   10.9450   14.4095 O   0  0  0  0  0  0  0  0  0  0  0  0
   -0.8748    5.4848   14.2653 S   0  0  1  0  0  0  0  0  0  0  0  0
    0.2451    7.3443   10.6321 H   0  0  0  0  0  0  0  0  0  0  0  0
    0.7297    6.2500    8.4856 H   0  0  0  0  0  0  0  0  0  0  0  0
   -2.4863    7.8082   13.5276 H   0  0  0  0  0  0  0  0  0  0  0  0
   -1.9938    7.7032   18.4402 H   0  0  0  0  0  0  0  0  0  0  0  0
   -0.9704    5.9377   17.0480 H   0  0  0  0  0  0  0  0  0  0  0  0
    0.0853    2.9533    7.6794 H   0  0  0  0  0  0  0  0  0  0  0  0
    1.0449    4.4356    7.2026 H   0  0  0  0  0  0  0  0  0  0  0  0
    2.9660    3.4105    7.3887 H   0  0  0  0  0  0  0  0  0  0  0  0
    2.4172    2.5949    8.9684 H   0  0  0  0  0  0  0  0  0  0  0  0
    1.7816    0.6816    7.9509 H   0  0  0  0  0  0  0  0  0  0  0  0
    1.5243    1.5082    6.3391 H   0  0  0  0  0  0  0  0  0  0  0  0
    4.2349    0.6784    7.5761 H   0  0  0  0  0  0  0  0  0  0  0  0
    3.4628   -0.0004    6.1031 H   0  0  0  0  0  0  0  0  0  0  0  0
    4.0642    1.6922    6.1031 H   0  0  0  0  0  0  0  0  0  0  0  0
    0.4015    2.4113   10.3570 H   0  0  0  0  0  0  0  0  0  0  0  0
   -0.0875    3.5348   12.5184 H   0  0  0  0  0  0  0  0  0  0  0  0
   -0.2372    7.1665   12.9390 H   0  0  0  0  0  0  0  0  0  0  0  0
   -3.2703    9.6506   18.4969 H   0  0  0  0  0  0  0  0  0  0  0  0
  1  2  2  0
  1 17  1  0
  1 18  1  0
  2  3  1  0
  3 11  2  0
  4  6  2  0
  4 10  1  0
  5  6  1  0
  5 19  1  0
  5 23  2  0
  6  7  1  0
  7  8  2  0
  7 20  1  0
  8  9  1  0
  9 10  2  0
 10 24  1  0
 11 12  1  0
 11 16  1  0
 12 13  1  0
 13 14  1  0
 14 15  1  0
 16 17  2  0
 24 18  1  6
 21 24  2  0
 22 24  2  0
  2 25  1  0
  3 26  1  0
  4 27  1  0
  8 28  1  0
  9 29  1  0
 12 30  1  0
 12 31  1  0
 13 32  1  0
 13 33  1  0
 14 34  1  0
 14 35  1  0
 15 36  1  0
 15 37  1  0
 15 38  1  0
 16 39  1  0
 17 40  1  0
 18 41  1  0
 20 42  1  0
M  CHG  1  19  -1
M  END
>  <filename_input>  (17) 
7M3H_YPV_docked.sdf

>  <pdb_id>  (17) 
7M3H_YPV

>  <pose_rank>  (17) 
16

>  <num_atoms_heavy>  (17) 
24

>  <num_torsions>  (17) 
7

>  <pose>  (17) 
[0.24177692745445442, 4.963029581005318, 14.987026385302164, -3.648184629292339, -3.097019986353081, 0.6221788725584007, -9.558122503305082, 1.6428678758061181, -10.166213639099649, -0.8103494981345878, -2.289603213405995, -4.74840959348651, -0.725410128310282]

>  <energy>  (17) 
-572.1149124650501

>  <inter_energy>  (17) 
-584.9752590676894

>  <intra_energy>  (17) 
12.675471101726092

>  <rmsd>  (17) 
6.96925

>  <sdf_rank>  (17) 
0

$$$$

     RDKit          3D

 42 43  0  0  0  0  0  0  0  0999 V2000
    3.6900    7.5121   16.6930 C   0  0  0  0  0  0  0  0  0  0  0  0
    2.6285    8.3622   16.4938 C   0  0  0  0  0  0  0  0  0  0  0  0
    1.3919    7.9060   16.0453 C   0  0  0  0  0  0  0  0  0  0  0  0
    7.7499   10.1409   18.1485 C   0  0  0  0  0  0  0  0  0  0  0  0
   10.0448   11.2432   18.0237 C   0  0  0  0  0  0  0  0  0  0  0  0
    9.1036   10.1156   18.4133 C   0  0  0  0  0  0  0  0  0  0  0  0
    9.5623    9.0336   19.0969 C   0  0  0  0  0  0  0  0  0  0  0  0
    8.7819    8.0079   19.5216 C   0  0  0  0  0  0  0  0  0  0  0  0
    7.4387    8.0851   19.2294 C   0  0  0  0  0  0  0  0  0  0  0  0
    6.8541    9.1402   18.5136 C   0  0  0  0  0  0  0  0  0  0  0  0
    1.1640    6.5833   15.7458 C   0  0  0  0  0  0  0  0  0  0  0  0
   -0.1800    6.1201   15.2898 C   0  0  0  0  0  0  0  0  0  0  0  0
   -1.2084    7.2338   15.1853 C   0  0  0  0  0  0  0  0  0  0  0  0
   -2.0961    7.5185   16.4315 C   0  0  0  0  0  0  0  0  0  0  0  0
   -1.5431    6.8666   17.7807 C   0  0  0  0  0  0  0  0  0  0  0  0
    2.2321    5.7037   15.9439 C   0  0  0  0  0  0  0  0  0  0  0  0
    3.4764    6.1780   16.3975 C   0  0  0  0  0  0  0  0  0  0  0  0
    4.9007    7.9557   17.2031 N   0  0  0  0  0  0  0  0  0  0  0  0
   10.3151   12.1643   18.8799 O   0  0  0  0  0  0  0  0  0  0  0  0
   10.9275    8.9622   19.3984 O   0  0  0  0  0  0  0  0  0  0  0  0
    4.4687    8.8900   19.4230 O   0  0  0  0  0  0  0  0  0  0  0  0
    4.7760   10.3601   17.5042 O   0  0  0  0  0  0  0  0  0  0  0  0
   10.5800   11.1914   16.8860 O   0  0  0  0  0  0  0  0  0  0  0  0
    5.1824    9.1490   18.2132 S   0  0  1  0  0  0  0  0  0  0  0  0
    2.7600    9.4357   16.6949 H   0  0  0  0  0  0  0  0  0  0  0  0
    0.5700    8.6274   15.9266 H   0  0  0  0  0  0  0  0  0  0  0  0
    7.3503   11.0135   17.6109 H   0  0  0  0  0  0  0  0  0  0  0  0
    9.2029    7.1546   20.0736 H   0  0  0  0  0  0  0  0  0  0  0  0
    6.7856    7.2715   19.5778 H   0  0  0  0  0  0  0  0  0  0  0  0
   -0.0693    5.6560   14.2987 H   0  0  0  0  0  0  0  0  0  0  0  0
   -0.5493    5.4124   16.0467 H   0  0  0  0  0  0  0  0  0  0  0  0
   -0.6656    8.1611   14.9499 H   0  0  0  0  0  0  0  0  0  0  0  0
   -1.9137    6.8893   14.4147 H   0  0  0  0  0  0  0  0  0  0  0  0
   -2.1567    8.6078   16.5724 H   0  0  0  0  0  0  0  0  0  0  0  0
   -3.0782    7.0635   16.2355 H   0  0  0  0  0  0  0  0  0  0  0  0
   -1.9828    7.3850   18.6455 H   0  0  0  0  0  0  0  0  0  0  0  0
   -1.8176    5.8019   17.8128 H   0  0  0  0  0  0  0  0  0  0  0  0
   -0.4479    6.9640   17.8128 H   0  0  0  0  0  0  0  0  0  0  0  0
    2.0984    4.6304   15.7431 H   0  0  0  0  0  0  0  0  0  0  0  0
    4.3053    5.4655   16.5211 H   0  0  0  0  0  0  0  0  0  0  0  0
    5.7327    7.4400   16.8827 H   0  0  0  0  0  0  0  0  0  0  0  0
   11.2846    8.1840   19.8954 H   0  0  0  0  0  0  0  0  0  0  0  0
  1  2  2  0
  1 17  1  0
  1 18  1  0
  2  3  1  0
  3 11  2  0
  4  6  2  0
  4 10  1  0
  5  6  1  0
  5 19  1  0
  5 23  2  0
  6  7  1  0
  7  8  2  0
  7 20  1  0
  8  9  1  0
  9 10  2  0
 10 24  1  0
 11 12  1  0
 11 16  1  0
 12 13  1  0
 13 14  1  0
 14 15  1  0
 16 17  2  0
 24 18  1  6
 21 24  2  0
 22 24  2  0
  2 25  1  0
  3 26  1  0
  4 27  1  0
  8 28  1  0
  9 29  1  0
 12 30  1  0
 12 31  1  0
 13 32  1  0
 13 33  1  0
 14 34  1  0
 14 35  1  0
 15 36  1  0
 15 37  1  0
 15 38  1  0
 16 39  1  0
 17 40  1  0
 18 41  1  0
 20 42  1  0
M  CHG  1  19  -1
M  END
>  <filename_input>  (18) 
7M3H_YPV_docked.sdf

>  <pdb_id>  (18) 
7M3H_YPV

>  <pose_rank>  (18) 
17

>  <num_atoms_heavy>  (18) 
24

>  <num_torsions>  (18) 
7

>  <pose>  (18) 
[4.468746645078863, 8.890039694381507, 19.42300241270241, -1.7547600112620758, 1.3430007298157602, 3.2516344333899165, 4.348258105861828, 1.672019386357516, 2.028308876660612, -3.2438732026422454, 1.9404264242633709, 3.8486767824998, 3.1077262453755488]

>  <energy>  (18) 
-547.0443108128125

>  <inter_energy>  (18) 
-546.6105404819533

>  <intra_energy>  (18) 
16.72681219999364

>  <rmsd>  (18) 
9.17237

>  <sdf_rank>  (18) 
0

$$$$

     RDKit          3D

 42 43  0  0  0  0  0  0  0  0999 V2000
    0.9594    7.6372   16.1117 C   0  0  0  0  0  0  0  0  0  0  0  0
    0.7941    7.1704   14.8296 C   0  0  0  0  0  0  0  0  0  0  0  0
   -0.4581    6.8323   14.3231 C   0  0  0  0  0  0  0  0  0  0  0  0
    6.0833    8.3002   17.1794 C   0  0  0  0  0  0  0  0  0  0  0  0
    8.4364    9.0889   17.7609 C   0  0  0  0  0  0  0  0  0  0  0  0
    6.9430    8.9779   18.0191 C   0  0  0  0  0  0  0  0  0  0  0  0
    6.3754    9.5976   19.0877 C   0  0  0  0  0  0  0  0  0  0  0  0
    5.0467    9.5865   19.3636 C   0  0  0  0  0  0  0  0  0  0  0  0
    4.2357    8.8946   18.4925 C   0  0  0  0  0  0  0  0  0  0  0  0
    4.7081    8.2003   17.3691 C   0  0  0  0  0  0  0  0  0  0  0  0
   -1.6018    6.9160   15.0819 C   0  0  0  0  0  0  0  0  0  0  0  0
   -2.9338    6.5693   14.5034 C   0  0  0  0  0  0  0  0  0  0  0  0
   -2.8707    6.0990   13.0600 C   0  0  0  0  0  0  0  0  0  0  0  0
   -3.3089    7.1008   11.9525 C   0  0  0  0  0  0  0  0  0  0  0  0
   -3.5356    8.5904   12.4824 C   0  0  0  0  0  0  0  0  0  0  0  0
   -1.4530    7.3904   16.3883 C   0  0  0  0  0  0  0  0  0  0  0  0
   -0.1820    7.7285   16.8874 C   0  0  0  0  0  0  0  0  0  0  0  0
    2.1964    8.0371   16.5940 N   0  0  0  0  0  0  0  0  0  0  0  0
    9.1631    8.0281   17.7921 O   0  0  0  0  0  0  0  0  0  0  0  0
    7.2024   10.3062   19.9673 O   0  0  0  0  0  0  0  0  0  0  0  0
    3.9850    7.5999   14.9824 O   0  0  0  0  0  0  0  0  0  0  0  0
    3.4805    5.9832   16.7343 O   0  0  0  0  0  0  0  0  0  0  0  0
    8.8947   10.2208   17.4572 O   0  0  0  0  0  0  0  0  0  0  0  0
    3.6236    7.3847   16.3474 S   0  0  1  0  0  0  0  0  0  0  0  0
    1.6779    7.0605   14.1839 H   0  0  0  0  0  0  0  0  0  0  0  0
   -0.5349    6.4868   13.2816 H   0  0  0  0  0  0  0  0  0  0  0  0
    6.5152    7.8038   16.2978 H   0  0  0  0  0  0  0  0  0  0  0  0
    4.6369   10.1062   20.2423 H   0  0  0  0  0  0  0  0  0  0  0  0
    3.1534    8.8857   18.6892 H   0  0  0  0  0  0  0  0  0  0  0  0
   -3.3777    5.7668   15.1108 H   0  0  0  0  0  0  0  0  0  0  0  0
   -3.5378    7.4886   14.5152 H   0  0  0  0  0  0  0  0  0  0  0  0
   -1.8284    5.8151   12.8523 H   0  0  0  0  0  0  0  0  0  0  0  0
   -3.6047    5.2818   13.0016 H   0  0  0  0  0  0  0  0  0  0  0  0
   -2.5287    7.1236   11.1774 H   0  0  0  0  0  0  0  0  0  0  0  0
   -4.2765    6.7478   11.5665 H   0  0  0  0  0  0  0  0  0  0  0  0
   -3.5359    8.5922   13.5824 H   0  0  0  0  0  0  0  0  0  0  0  0
   -2.7256    9.2375   12.1149 H   0  0  0  0  0  0  0  0  0  0  0  0
   -4.5015    8.9672   12.1149 H   0  0  0  0  0  0  0  0  0  0  0  0
   -2.3381    7.5004   17.0321 H   0  0  0  0  0  0  0  0  0  0  0  0
   -0.0931    8.0763   17.9272 H   0  0  0  0  0  0  0  0  0  0  0  0
    2.1887    8.8731   17.1956 H   0  0  0  0  0  0  0  0  0  0  0  0
    6.8118   10.7655   20.7524 H   0  0  0  0  0  0  0  0  0  0  0  0
  1  2  2  0
  1 17  1  0
  1 18  1  0
  2  3  1  0
  3 11  2  0
  4  6  2  0
  4 10  1  0
  5  6  1  0
  5 19  1  0
  5 23  2  0
  6  7  1  0
  7  8  2  0
  7 20  1  0
  8  9  1  0
  9 10  2  0
 10 24  1  0
 11 12  1  0
 11 16  1  0
 12 13  1  0
 13 14  1  0
 14 15  1  0
 16 17  2  0
 24 18  1  6
 21 24  2  0
 22 24  2  0
  2 25  1  0
  3 26  1  0
  4 27  1  0
  8 28  1  0
  9 29  1  0
 12 30  1  0
 12 31  1  0
 13 32  1  0
 13 33  1  0
 14 34  1  0
 14 35  1  0
 15 36  1  0
 15 37  1  0
 15 38  1  0
 16 39  1  0
 17 40  1  0
 18 41  1  0
 20 42  1  0
M  CHG  1  19  -1
M  END
>  <filename_input>  (19) 
7M3H_YPV_docked.sdf

>  <pdb_id>  (19) 
7M3H_YPV

>  <pose_rank>  (19) 
18

>  <num_atoms_heavy>  (19) 
24

>  <num_torsions>  (19) 
7

>  <pose>  (19) 
[3.984957006709606, 7.599903747405716, 14.982435004154594, -0.8261015020269185, -3.019558594655807, 0.6662494364514909, -0.3801910743702975, -1.1108571276730215, 2.2081251282323997, -4.461853927747486, 1.955599686956687, -2.640764634080223, 3.0063870534836212]

>  <energy>  (19) 
-614.4951168107059

>  <inter_energy>  (19) 
-616.4708935200965

>  <intra_energy>  (19) 
9.602995646872968

>  <rmsd>  (19) 
8.55436

>  <sdf_rank>  (19) 
0

$$$$

     RDKit          3D

 42 43  0  0  0  0  0  0  0  0999 V2000
   -2.6231    7.0687   13.0408 C   0  0  0  0  0  0  0  0  0  0  0  0
   -1.7089    6.0767   13.3041 C   0  0  0  0  0  0  0  0  0  0  0  0
   -0.6874    5.7592   12.4127 C   0  0  0  0  0  0  0  0  0  0  0  0
   -1.0233    8.1472   15.9776 C   0  0  0  0  0  0  0  0  0  0  0  0
    1.4086    7.8289   16.6720 C   0  0  0  0  0  0  0  0  0  0  0  0
   -0.0886    7.7977   16.9303 C   0  0  0  0  0  0  0  0  0  0  0  0
   -0.5748    7.4621   18.1548 C   0  0  0  0  0  0  0  0  0  0  0  0
   -1.8921    7.4542   18.4807 C   0  0  0  0  0  0  0  0  0  0  0  0
   -2.7804    7.8111   17.4912 C   0  0  0  0  0  0  0  0  0  0  0  0
   -2.3993    8.1565   16.1863 C   0  0  0  0  0  0  0  0  0  0  0  0
   -0.5472    6.3968   11.2024 C   0  0  0  0  0  0  0  0  0  0  0  0
    0.5729    6.0509   10.2780 C   0  0  0  0  0  0  0  0  0  0  0  0
    0.5627    4.6025    9.8188 C   0  0  0  0  0  0  0  0  0  0  0  0
   -0.7376    4.0626    9.1557 C   0  0  0  0  0  0  0  0  0  0  0  0
   -1.5246    2.9987   10.0499 C   0  0  0  0  0  0  0  0  0  0  0  0
   -1.4674    7.4099   10.9183 C   0  0  0  0  0  0  0  0  0  0  0  0
   -2.4946    7.7206   11.8278 C   0  0  0  0  0  0  0  0  0  0  0  0
   -3.5990    7.4302   13.9571 N   0  0  0  0  0  0  0  0  0  0  0  0
    2.0249    6.7337   16.3974 O   0  0  0  0  0  0  0  0  0  0  0  0
    0.3320    7.1068   19.1603 O   0  0  0  0  0  0  0  0  0  0  0  0
   -4.8582    8.6597   15.6571 O   0  0  0  0  0  0  0  0  0  0  0  0
   -3.1778    9.7942   14.3055 O   0  0  0  0  0  0  0  0  0  0  0  0
    1.9786    8.9507   16.6718 O   0  0  0  0  0  0  0  0  0  0  0  0
   -3.5726    8.5936   15.0385 S   0  0  1  0  0  0  0  0  0  0  0  0
   -1.7866    5.5166   14.2476 H   0  0  0  0  0  0  0  0  0  0  0  0
    0.0311    4.9723   12.6857 H   0  0  0  0  0  0  0  0  0  0  0  0
   -0.6550    8.4390   14.9830 H   0  0  0  0  0  0  0  0  0  0  0  0
   -2.2342    7.1758   19.4884 H   0  0  0  0  0  0  0  0  0  0  0  0
   -3.8521    7.8261   17.7386 H   0  0  0  0  0  0  0  0  0  0  0  0
    0.5023    6.6968    9.3904 H   0  0  0  0  0  0  0  0  0  0  0  0
    1.5084    6.2039   10.8360 H   0  0  0  0  0  0  0  0  0  0  0  0
    1.3773    4.4835    9.0892 H   0  0  0  0  0  0  0  0  0  0  0  0
    0.6666    4.0169   10.7441 H   0  0  0  0  0  0  0  0  0  0  0  0
   -1.4065    4.9139    8.9608 H   0  0  0  0  0  0  0  0  0  0  0  0
   -0.4352    3.5444    8.2338 H   0  0  0  0  0  0  0  0  0  0  0  0
   -1.3599    3.2213   11.1145 H   0  0  0  0  0  0  0  0  0  0  0  0
   -2.6000    3.0551    9.8256 H   0  0  0  0  0  0  0  0  0  0  0  0
   -1.1558    1.9869    9.8256 H   0  0  0  0  0  0  0  0  0  0  0  0
   -1.3875    7.9695    9.9746 H   0  0  0  0  0  0  0  0  0  0  0  0
   -3.2183    8.5065   11.5660 H   0  0  0  0  0  0  0  0  0  0  0  0
   -4.4606    6.8662   13.9332 H   0  0  0  0  0  0  0  0  0  0  0  0
    0.0014    6.8586   20.0599 H   0  0  0  0  0  0  0  0  0  0  0  0
  1  2  2  0
  1 17  1  0
  1 18  1  0
  2  3  1  0
  3 11  2  0
  4  6  2  0
  4 10  1  0
  5  6  1  0
  5 19  1  0
  5 23  2  0
  6  7  1  0
  7  8  2  0
  7 20  1  0
  8  9  1  0
  9 10  2  0
 10 24  1  0
 11 12  1  0
 11 16  1  0
 12 13  1  0
 13 14  1  0
 14 15  1  0
 16 17  2  0
 24 18  1  6
 21 24  2  0
 22 24  2  0
  2 25  1  0
  3 26  1  0
  4 27  1  0
  8 28  1  0
  9 29  1  0
 12 30  1  0
 12 31  1  0
 13 32  1  0
 13 33  1  0
 14 34  1  0
 14 35  1  0
 15 36  1  0
 15 37  1  0
 15 38  1  0
 16 39  1  0
 17 40  1  0
 18 41  1  0
 20 42  1  0
M  CHG  1  19  -1
M  END
>  <filename_input>  (20) 
7M3H_YPV_docked.sdf

>  <pdb_id>  (20) 
7M3H_YPV

>  <pose_rank>  (20) 
19

>  <num_atoms_heavy>  (20) 
24

>  <num_torsions>  (20) 
7

>  <pose>  (20) 
[-4.858230371873344, 8.659724964174275, 15.657076885914382, 1.5819550070611386, -1.3483084425341194, -1.8838422064906546, -2.695852532735014, -1.7152403857759058, 4.040239006655699, -2.121588417740411, 2.9882557448333795, 0.11871826762989386, 0.908667974836098]

>  <energy>  (20) 
-622.5679571665677

>  <inter_energy>  (20) 
-614.6503090933791

>  <intra_energy>  (20) 
11.151947552383515

>  <rmsd>  (20) 
6.96989

>  <sdf_rank>  (20) 
0

$$$$

     RDKit          3D

 42 43  0  0  0  0  0  0  0  0999 V2000
   -1.4196    6.4028   12.6521 C   0  0  0  0  0  0  0  0  0  0  0  0
   -0.6840    5.2659   12.4165 C   0  0  0  0  0  0  0  0  0  0  0  0
   -0.7254    4.6004   11.1942 C   0  0  0  0  0  0  0  0  0  0  0  0
   -0.1031    7.7741   16.5597 C   0  0  0  0  0  0  0  0  0  0  0  0
    2.0189    8.5074   17.7667 C   0  0  0  0  0  0  0  0  0  0  0  0
    0.6549    7.8398   17.7106 C   0  0  0  0  0  0  0  0  0  0  0  0
    0.0944    7.3111   18.8307 C   0  0  0  0  0  0  0  0  0  0  0  0
   -1.1358    6.7400   18.8759 C   0  0  0  0  0  0  0  0  0  0  0  0
   -1.8479    6.7011   17.6982 C   0  0  0  0  0  0  0  0  0  0  0  0
   -1.3662    7.1954   16.4771 C   0  0  0  0  0  0  0  0  0  0  0  0
   -1.5257    5.0211   10.1581 C   0  0  0  0  0  0  0  0  0  0  0  0
   -1.5305    4.3006    8.8505 C   0  0  0  0  0  0  0  0  0  0  0  0
   -0.1486    3.8832    8.3764 C   0  0  0  0  0  0  0  0  0  0  0  0
    0.6376    4.8774    7.4734 C   0  0  0  0  0  0  0  0  0  0  0  0
    1.7708    5.6947    8.2472 C   0  0  0  0  0  0  0  0  0  0  0  0
   -2.2800    6.1770   10.3793 C   0  0  0  0  0  0  0  0  0  0  0  0
   -2.2288    6.8397   11.6191 C   0  0  0  0  0  0  0  0  0  0  0  0
   -1.3275    7.1031   13.8453 N   0  0  0  0  0  0  0  0  0  0  0  0
    2.0961    9.7906   17.7238 O   0  0  0  0  0  0  0  0  0  0  0  0
    0.8185    7.3590   20.0278 O   0  0  0  0  0  0  0  0  0  0  0  0
   -3.0631    5.8862   15.0677 O   0  0  0  0  0  0  0  0  0  0  0  0
   -3.1352    8.3171   14.9156 O   0  0  0  0  0  0  0  0  0  0  0  0
    3.0255    7.7685   17.9223 O   0  0  0  0  0  0  0  0  0  0  0  0
   -2.3277    7.1106   15.0794 S   0  0  1  0  0  0  0  0  0  0  0  0
   -0.0431    4.8697   13.2180 H   0  0  0  0  0  0  0  0  0  0  0  0
   -0.0971    3.7086   11.0526 H   0  0  0  0  0  0  0  0  0  0  0  0
    0.3206    8.2097   15.6428 H   0  0  0  0  0  0  0  0  0  0  0  0
   -1.5450    6.3274   19.8099 H   0  0  0  0  0  0  0  0  0  0  0  0
   -2.8537    6.2562   17.7159 H   0  0  0  0  0  0  0  0  0  0  0  0
   -2.1493    3.3970    8.9545 H   0  0  0  0  0  0  0  0  0  0  0  0
   -1.9295    4.9994    8.1005 H   0  0  0  0  0  0  0  0  0  0  0  0
    0.4636    3.6978    9.2713 H   0  0  0  0  0  0  0  0  0  0  0  0
   -0.3275    3.0074    7.7353 H   0  0  0  0  0  0  0  0  0  0  0  0
    1.1143    4.3067    6.6627 H   0  0  0  0  0  0  0  0  0  0  0  0
   -0.0892    5.6136    7.0997 H   0  0  0  0  0  0  0  0  0  0  0  0
    1.6234    5.5884    9.3320 H   0  0  0  0  0  0  0  0  0  0  0  0
    2.7601    5.3009    7.9712 H   0  0  0  0  0  0  0  0  0  0  0  0
    1.7093    6.7578    7.9712 H   0  0  0  0  0  0  0  0  0  0  0  0
   -2.9196    6.5721    9.5763 H   0  0  0  0  0  0  0  0  0  0  0  0
   -2.8519    7.7332   11.7717 H   0  0  0  0  0  0  0  0  0  0  0  0
   -0.4951    7.7014   13.9453 H   0  0  0  0  0  0  0  0  0  0  0  0
    0.4308    6.9803   20.8563 H   0  0  0  0  0  0  0  0  0  0  0  0
  1  2  2  0
  1 17  1  0
  1 18  1  0
  2  3  1  0
  3 11  2  0
  4  6  2  0
  4 10  1  0
  5  6  1  0
  5 19  1  0
  5 23  2  0
  6  7  1  0
  7  8  2  0
  7 20  1  0
  8  9  1  0
  9 10  2  0
 10 24  1  0
 11 12  1  0
 11 16  1  0
 12 13  1  0
 13 14  1  0
 14 15  1  0
 16 17  2  0
 24 18  1  6
 21 24  2  0
 22 24  2  0
  2 25  1  0
  3 26  1  0
  4 27  1  0
  8 28  1  0
  9 29  1  0
 12 30  1  0
 12 31  1  0
 13 32  1  0
 13 33  1  0
 14 34  1  0
 14 35  1  0
 15 36  1  0
 15 37  1  0
 15 38  1  0
 16 39  1  0
 17 40  1  0
 18 41  1  0
 20 42  1  0
M  CHG  1  19  -1
M  END
>  <filename_input>  (21) 
7M3H_YPV_docked.sdf

>  <pdb_id>  (21) 
7M3H_YPV

>  <pose_rank>  (21) 
20

>  <num_atoms_heavy>  (21) 
24

>  <num_torsions>  (21) 
7

>  <pose>  (21) 
[-3.063089342709927, 5.8862308462122295, 15.067712961029914, 2.2115247433186873, -0.0342070046489378, -1.3755715731354428, 2.837889823724084, 1.3005236403386726, -4.857166044132562, 0.7229749232194046, 1.1991226469616805, -2.4173473542156327, -1.6725002575733727]

>  <energy>  (21) 
-620.7529983777323

>  <inter_energy>  (21) 
-604.7888652624346

>  <intra_energy>  (21) 
3.118215066852711

>  <rmsd>  (21) 
7.32916

>  <sdf_rank>  (21) 
0

$$$$

     RDKit          3D

 42 43  0  0  0  0  0  0  0  0999 V2000
   -0.7841    5.3721   14.7065 C   0  0  0  0  0  0  0  0  0  0  0  0
    0.1513    5.7283   13.7646 C   0  0  0  0  0  0  0  0  0  0  0  0
   -0.2112    6.2364   12.5200 C   0  0  0  0  0  0  0  0  0  0  0  0
   -2.2117    7.6053   16.7643 C   0  0  0  0  0  0  0  0  0  0  0  0
   -4.1829    9.1545   16.3041 C   0  0  0  0  0  0  0  0  0  0  0  0
   -2.7067    8.8711   16.5272 C   0  0  0  0  0  0  0  0  0  0  0  0
   -1.8011    9.8847   16.5500 C   0  0  0  0  0  0  0  0  0  0  0  0
   -0.4749    9.7226   16.7881 C   0  0  0  0  0  0  0  0  0  0  0  0
   -0.0360    8.4381   17.0177 C   0  0  0  0  0  0  0  0  0  0  0  0
   -0.8717    7.3117   16.9993 C   0  0  0  0  0  0  0  0  0  0  0  0
   -1.5257    6.3856   12.1446 C   0  0  0  0  0  0  0  0  0  0  0  0
   -1.8833    6.9559   10.8120 C   0  0  0  0  0  0  0  0  0  0  0  0
   -1.7129    5.9778    9.6617 C   0  0  0  0  0  0  0  0  0  0  0  0
   -0.2939    5.3864    9.4188 C   0  0  0  0  0  0  0  0  0  0  0  0
   -0.1678    4.5451    8.0671 C   0  0  0  0  0  0  0  0  0  0  0  0
   -2.4912    6.0297   13.0907 C   0  0  0  0  0  0  0  0  0  0  0  0
   -2.1111    5.5176   14.3446 C   0  0  0  0  0  0  0  0  0  0  0  0
   -0.4228    4.9295   15.9699 N   0  0  0  0  0  0  0  0  0  0  0  0
   -4.8449    9.7975   17.2001 O   0  0  0  0  0  0  0  0  0  0  0  0
   -2.2523   11.1904   16.3232 O   0  0  0  0  0  0  0  0  0  0  0  0
    1.1632    5.8631   17.5825 O   0  0  0  0  0  0  0  0  0  0  0  0
   -1.0169    5.0614   18.3187 O   0  0  0  0  0  0  0  0  0  0  0  0
   -4.6866    8.8015   15.2063 O   0  0  0  0  0  0  0  0  0  0  0  0
   -0.2349    5.7673   17.3064 S   0  0  1  0  0  0  0  0  0  0  0  0
    1.2188    5.6084   14.0013 H   0  0  0  0  0  0  0  0  0  0  0  0
    0.5800    6.5280   11.8136 H   0  0  0  0  0  0  0  0  0  0  0  0
   -2.9265    6.7692   16.7677 H   0  0  0  0  0  0  0  0  0  0  0  0
    0.2170   10.5777   16.7971 H   0  0  0  0  0  0  0  0  0  0  0  0
    1.0329    8.2861   17.2279 H   0  0  0  0  0  0  0  0  0  0  0  0
   -2.9353    7.2758   10.8425 H   0  0  0  0  0  0  0  0  0  0  0  0
   -1.1945    7.7931   10.6260 H   0  0  0  0  0  0  0  0  0  0  0  0
   -2.3937    5.1335    9.8449 H   0  0  0  0  0  0  0  0  0  0  0  0
   -1.9252    6.5702    8.7595 H   0  0  0  0  0  0  0  0  0  0  0  0
    0.4256    6.2174    9.3783 H   0  0  0  0  0  0  0  0  0  0  0  0
   -0.0904    4.6925   10.2477 H   0  0  0  0  0  0  0  0  0  0  0  0
   -0.0088    3.4840    8.3092 H   0  0  0  0  0  0  0  0  0  0  0  0
   -1.0922    4.6529    7.4806 H   0  0  0  0  0  0  0  0  0  0  0  0
    0.6843    4.9192    7.4806 H   0  0  0  0  0  0  0  0  0  0  0  0
   -3.5582    6.1511   12.8525 H   0  0  0  0  0  0  0  0  0  0  0  0
   -2.8937    5.2237   15.0595 H   0  0  0  0  0  0  0  0  0  0  0  0
   -0.2526    3.9171   16.0534 H   0  0  0  0  0  0  0  0  0  0  0  0
   -1.6112   11.9447   16.3350 H   0  0  0  0  0  0  0  0  0  0  0  0
  1  2  2  0
  1 17  1  0
  1 18  1  0
  2  3  1  0
  3 11  2  0
  4  6  2  0
  4 10  1  0
  5  6  1  0
  5 19  1  0
  5 23  2  0
  6  7  1  0
  7  8  2  0
  7 20  1  0
  8  9  1  0
  9 10  2  0
 10 24  1  0
 11 12  1  0
 11 16  1  0
 12 13  1  0
 13 14  1  0
 14 15  1  0
 16 17  2  0
 24 18  1  6
 21 24  2  0
 22 24  2  0
  2 25  1  0
  3 26  1  0
  4 27  1  0
  8 28  1  0
  9 29  1  0
 12 30  1  0
 12 31  1  0
 13 32  1  0
 13 33  1  0
 14 34  1  0
 14 35  1  0
 15 36  1  0
 15 37  1  0
 15 38  1  0
 16 39  1  0
 17 40  1  0
 18 41  1  0
 20 42  1  0
M  CHG  1  19  -1
M  END
>  <filename_input>  (22) 
7M3H_YPV_docked.sdf

>  <pdb_id>  (22) 
7M3H_YPV

>  <pose_rank>  (22) 
21

>  <num_atoms_heavy>  (22) 
24

>  <num_torsions>  (22) 
7

>  <pose>  (22) 
[1.1631901095189954, 5.863074157979516, 17.582507748931235, 0.09519616358412718, 1.090753998656403, -0.8178767321103734, 41.21174520930435, -16.89248865828854, 5.418730117363393, 35.535330134022864, -15.578622873125184, 29.544870061174475, 12.408845384045186]

>  <energy>  (22) 
-549.6508302346775

>  <inter_energy>  (22) 
-586.7779573946945

>  <intra_energy>  (22) 
34.3593875274304

>  <rmsd>  (22) 
5.87512

>  <sdf_rank>  (22) 
0

$$$$

     RDKit          3D

 42 43  0  0  0  0  0  0  0  0999 V2000
    1.8233    7.9102   16.1727 C   0  0  0  0  0  0  0  0  0  0  0  0
    0.7734    7.2982   15.5305 C   0  0  0  0  0  0  0  0  0  0  0  0
   -0.4439    7.0640   16.1645 C   0  0  0  0  0  0  0  0  0  0  0  0
    5.0502    8.6738   17.7393 C   0  0  0  0  0  0  0  0  0  0  0  0
    5.5012    9.8962   19.9302 C   0  0  0  0  0  0  0  0  0  0  0  0
    5.9404    9.1883   18.6593 C   0  0  0  0  0  0  0  0  0  0  0  0
    7.2592    8.9876   18.3969 C   0  0  0  0  0  0  0  0  0  0  0  0
    7.7326    8.3260   17.3108 C   0  0  0  0  0  0  0  0  0  0  0  0
    6.7997    7.8343   16.4257 C   0  0  0  0  0  0  0  0  0  0  0  0
    5.4151    7.9968   16.5794 C   0  0  0  0  0  0  0  0  0  0  0  0
   -0.6619    7.4029   17.4792 C   0  0  0  0  0  0  0  0  0  0  0  0
   -1.9862    7.1611   18.1247 C   0  0  0  0  0  0  0  0  0  0  0  0
   -2.0705    7.6637   19.5562 C   0  0  0  0  0  0  0  0  0  0  0  0
   -3.3049    8.5262   19.9489 C   0  0  0  0  0  0  0  0  0  0  0  0
   -3.8245    9.4805   18.7783 C   0  0  0  0  0  0  0  0  0  0  0  0
    0.3945    8.0279   18.1480 C   0  0  0  0  0  0  0  0  0  0  0  0
    1.6192    8.2586   17.4955 C   0  0  0  0  0  0  0  0  0  0  0  0
    3.0119    8.2039   15.5219 N   0  0  0  0  0  0  0  0  0  0  0  0
    4.9294    9.2208   20.8637 O   0  0  0  0  0  0  0  0  0  0  0  0
    8.2045    9.4827   19.3029 O   0  0  0  0  0  0  0  0  0  0  0  0
    4.8858    7.4848   14.1223 O   0  0  0  0  0  0  0  0  0  0  0  0
    3.9480    5.9821   15.7955 O   0  0  0  0  0  0  0  0  0  0  0  0
    5.7796   11.1179   20.0450 O   0  0  0  0  0  0  0  0  0  0  0  0
    4.3434    7.3418   15.4358 S   0  0  1  0  0  0  0  0  0  0  0  0
    0.8988    6.9839   14.4838 H   0  0  0  0  0  0  0  0  0  0  0  0
   -1.2581    6.5923   15.5948 H   0  0  0  0  0  0  0  0  0  0  0  0
    3.9764    8.8082   17.9366 H   0  0  0  0  0  0  0  0  0  0  0  0
    8.8114    8.1890   17.1453 H   0  0  0  0  0  0  0  0  0  0  0  0
    7.1616    7.2815   15.5462 H   0  0  0  0  0  0  0  0  0  0  0  0
   -2.7596    7.6712   17.5318 H   0  0  0  0  0  0  0  0  0  0  0  0
   -2.1326    6.0714   18.1582 H   0  0  0  0  0  0  0  0  0  0  0  0
   -2.0626    6.7826   20.2146 H   0  0  0  0  0  0  0  0  0  0  0  0
   -1.2117    8.3426   19.6633 H   0  0  0  0  0  0  0  0  0  0  0  0
   -4.1240    7.8496   20.2339 H   0  0  0  0  0  0  0  0  0  0  0  0
   -2.9893    9.1782   20.7768 H   0  0  0  0  0  0  0  0  0  0  0  0
   -4.3073   10.3671   19.2151 H   0  0  0  0  0  0  0  0  0  0  0  0
   -2.9733    9.7953   18.1568 H   0  0  0  0  0  0  0  0  0  0  0  0
   -4.5508    8.9363   18.1568 H   0  0  0  0  0  0  0  0  0  0  0  0
    0.2669    8.3424   19.1944 H   0  0  0  0  0  0  0  0  0  0  0  0
    2.4403    8.7308   18.0549 H   0  0  0  0  0  0  0  0  0  0  0  0
    3.0346    9.1060   15.0253 H   0  0  0  0  0  0  0  0  0  0  0  0
    9.1705    9.3487   19.1330 H   0  0  0  0  0  0  0  0  0  0  0  0
  1  2  2  0
  1 17  1  0
  1 18  1  0
  2  3  1  0
  3 11  2  0
  4  6  2  0
  4 10  1  0
  5  6  1  0
  5 19  1  0
  5 23  2  0
  6  7  1  0
  7  8  2  0
  7 20  1  0
  8  9  1  0
  9 10  2  0
 10 24  1  0
 11 12  1  0
 11 16  1  0
 12 13  1  0
 13 14  1  0
 14 15  1  0
 16 17  2  0
 24 18  1  6
 21 24  2  0
 22 24  2  0
  2 25  1  0
  3 26  1  0
  4 27  1  0
  8 28  1  0
  9 29  1  0
 12 30  1  0
 12 31  1  0
 13 32  1  0
 13 33  1  0
 14 34  1  0
 14 35  1  0
 15 36  1  0
 15 37  1  0
 15 38  1  0
 16 39  1  0
 17 40  1  0
 18 41  1  0
 20 42  1  0
M  CHG  1  19  -1
M  END
>  <filename_input>  (23) 
7M3H_YPV_docked.sdf

>  <pdb_id>  (23) 
7M3H_YPV

>  <pose_rank>  (23) 
22

>  <num_atoms_heavy>  (23) 
24

>  <num_torsions>  (23) 
7

>  <pose>  (23) 
[4.885795194749077, 7.484826697145597, 14.122255973504018, -1.1165917204449167, -3.0136140794525956, 0.6435063043278922, 2.822417944790438, 1.2259665101588992, -2.807886715059533, -5.405750048611625, -1.159508356695689, 1.459701813216022, 2.222079248374888]

>  <energy>  (23) 
-589.1707639544985

>  <inter_energy>  (23) 
-601.4571247278252

>  <intra_energy>  (23) 
8.99855880107359

>  <rmsd>  (23) 
7.89671

>  <sdf_rank>  (23) 
0

$$$$

     RDKit          3D

 42 43  0  0  0  0  0  0  0  0999 V2000
    0.0736    4.4215   12.0436 C   0  0  0  0  0  0  0  0  0  0  0  0
    0.1578    4.4397   10.6719 C   0  0  0  0  0  0  0  0  0  0  0  0
    1.0806    3.6606    9.9788 C   0  0  0  0  0  0  0  0  0  0  0  0
   -2.4986    8.3271   14.4249 C   0  0  0  0  0  0  0  0  0  0  0  0
   -3.7334    9.9425   15.9622 C   0  0  0  0  0  0  0  0  0  0  0  0
   -2.8571    8.7302   15.6948 C   0  0  0  0  0  0  0  0  0  0  0  0
   -2.4215    7.9491   16.7188 C   0  0  0  0  0  0  0  0  0  0  0  0
   -1.6758    6.8261   16.5627 C   0  0  0  0  0  0  0  0  0  0  0  0
   -1.3468    6.4713   15.2738 C   0  0  0  0  0  0  0  0  0  0  0  0
   -1.7209    7.2084   14.1407 C   0  0  0  0  0  0  0  0  0  0  0  0
    1.9836    2.8482   10.6234 C   0  0  0  0  0  0  0  0  0  0  0  0
    2.9452    2.0060    9.8520 C   0  0  0  0  0  0  0  0  0  0  0  0
    2.5098    0.5576    9.7056 C   0  0  0  0  0  0  0  0  0  0  0  0
    1.0094    0.2803    9.3993 C   0  0  0  0  0  0  0  0  0  0  0  0
    0.7562   -1.0656    8.5776 C   0  0  0  0  0  0  0  0  0  0  0  0
    1.9117    2.8158   12.0189 C   0  0  0  0  0  0  0  0  0  0  0  0
    0.9745    3.6080   12.7067 C   0  0  0  0  0  0  0  0  0  0  0  0
   -0.8891    5.1457   12.7301 N   0  0  0  0  0  0  0  0  0  0  0  0
   -3.5441   10.6353   17.0293 O   0  0  0  0  0  0  0  0  0  0  0  0
   -2.7642    8.3092   18.0274 O   0  0  0  0  0  0  0  0  0  0  0  0
   -2.3875    6.7833   11.7005 O   0  0  0  0  0  0  0  0  0  0  0  0
   -0.0560    7.3447   12.1320 O   0  0  0  0  0  0  0  0  0  0  0  0
   -4.5750   10.2610   15.0826 O   0  0  0  0  0  0  0  0  0  0  0  0
   -1.2743    6.6804   12.5893 S   0  0  1  0  0  0  0  0  0  0  0  0
   -0.5246    5.0894   10.1043 H   0  0  0  0  0  0  0  0  0  0  0  0
    1.0875    3.6963    8.8794 H   0  0  0  0  0  0  0  0  0  0  0  0
   -2.8522    8.9327   13.5774 H   0  0  0  0  0  0  0  0  0  0  0  0
   -1.3495    6.2273   17.4258 H   0  0  0  0  0  0  0  0  0  0  0  0
   -0.7557    5.5558   15.1239 H   0  0  0  0  0  0  0  0  0  0  0  0
    3.0561    2.4383    8.8466 H   0  0  0  0  0  0  0  0  0  0  0  0
    3.8906    2.0015   10.4144 H   0  0  0  0  0  0  0  0  0  0  0  0
    3.0988    0.1188    8.8867 H   0  0  0  0  0  0  0  0  0  0  0  0
    2.6770    0.1155   10.6989 H   0  0  0  0  0  0  0  0  0  0  0  0
    0.4678    0.2106   10.3542 H   0  0  0  0  0  0  0  0  0  0  0  0
    0.6523    1.1102    8.7718 H   0  0  0  0  0  0  0  0  0  0  0  0
    0.5994   -1.8990    9.2782 H   0  0  0  0  0  0  0  0  0  0  0  0
   -0.1353   -0.9464    7.9443 H   0  0  0  0  0  0  0  0  0  0  0  0
    1.6300   -1.2785    7.9443 H   0  0  0  0  0  0  0  0  0  0  0  0
    2.5943    2.1647   12.5847 H   0  0  0  0  0  0  0  0  0  0  0  0
    0.9575    3.5795   13.8062 H   0  0  0  0  0  0  0  0  0  0  0  0
   -1.4294    4.6150   13.4282 H   0  0  0  0  0  0  0  0  0  0  0  0
   -2.4584    7.7558   18.7892 H   0  0  0  0  0  0  0  0  0  0  0  0
  1  2  2  0
  1 17  1  0
  1 18  1  0
  2  3  1  0
  3 11  2  0
  4  6  2  0
  4 10  1  0
  5  6  1  0
  5 19  1  0
  5 23  2  0
  6  7  1  0
  7  8  2  0
  7 20  1  0
  8  9  1  0
  9 10  2  0
 10 24  1  0
 11 12  1  0
 11 16  1  0
 12 13  1  0
 13 14  1  0
 14 15  1  0
 16 17  2  0
 24 18  1  1
 21 24  2  0
 22 24  2  0
  2 25  1  0
  3 26  1  0
  4 27  1  0
  8 28  1  0
  9 29  1  0
 12 30  1  0
 12 31  1  0
 13 32  1  0
 13 33  1  0
 14 34  1  0
 14 35  1  0
 15 36  1  0
 15 37  1  0
 15 38  1  0
 16 39  1  0
 17 40  1  0
 18 41  1  0
 20 42  1  0
M  CHG  1  19  -1
M  END
>  <filename_input>  (24) 
7M3H_YPV_docked.sdf

>  <pdb_id>  (24) 
7M3H_YPV

>  <pose_rank>  (24) 
23

>  <num_atoms_heavy>  (24) 
24

>  <num_torsions>  (24) 
7

>  <pose>  (24) 
[-2.3875407401247295, 6.783316406820392, 11.700486694019775, -2.27642565215534, 2.2459507735630266, 0.4216015909660748, -0.4296955905600842, -2.5440055987812498, -3.6145697740860947, 1.6281608603542301, 0.20053350212994409, -0.10756191981073329, -0.8084009785014272]

>  <energy>  (24) 
-613.5988179235251

>  <inter_energy>  (24) 
-629.0384093160127

>  <intra_energy>  (24) 
24.595696462929354

>  <rmsd>  (24) 
7.04361

>  <sdf_rank>  (24) 
0

$$$$

     RDKit          3D

 42 43  0  0  0  0  0  0  0  0999 V2000
   -1.1010    5.0380   11.0604 C   0  0  0  0  0  0  0  0  0  0  0  0
   -0.0094    4.5221   11.7172 C   0  0  0  0  0  0  0  0  0  0  0  0
    0.8329    3.5847   11.1251 C   0  0  0  0  0  0  0  0  0  0  0  0
   -3.2579    8.0635   14.1903 C   0  0  0  0  0  0  0  0  0  0  0  0
   -3.4641   10.1920   15.5776 C   0  0  0  0  0  0  0  0  0  0  0  0
   -3.0052    8.7608   15.3537 C   0  0  0  0  0  0  0  0  0  0  0  0
   -2.3538    8.0795   16.3335 C   0  0  0  0  0  0  0  0  0  0  0  0
   -1.9520    6.7873   16.2315 C   0  0  0  0  0  0  0  0  0  0  0  0
   -2.2298    6.1404   15.0483 C   0  0  0  0  0  0  0  0  0  0  0  0
   -2.8770    6.7447   13.9606 C   0  0  0  0  0  0  0  0  0  0  0  0
    0.6092    3.0954    9.8596 C   0  0  0  0  0  0  0  0  0  0  0  0
    1.5440    2.1086    9.2419 C   0  0  0  0  0  0  0  0  0  0  0  0
    1.0556    0.6718    9.3185 C   0  0  0  0  0  0  0  0  0  0  0  0
    1.8144   -0.3009   10.2672 C   0  0  0  0  0  0  0  0  0  0  0  0
    1.0615   -1.6893   10.5050 C   0  0  0  0  0  0  0  0  0  0  0  0
   -0.4959    3.6101    9.1757 C   0  0  0  0  0  0  0  0  0  0  0  0
   -1.3388    4.5567    9.7857 C   0  0  0  0  0  0  0  0  0  0  0  0
   -1.9008    6.0204   11.6242 N   0  0  0  0  0  0  0  0  0  0  0  0
   -3.1071   11.1068   14.7468 O   0  0  0  0  0  0  0  0  0  0  0  0
   -2.0795    8.7384   17.5377 O   0  0  0  0  0  0  0  0  0  0  0  0
   -3.3354    4.4724   12.8624 O   0  0  0  0  0  0  0  0  0  0  0  0
   -4.2856    6.4387   11.7816 O   0  0  0  0  0  0  0  0  0  0  0  0
   -4.2403   10.4129   16.5431 O   0  0  0  0  0  0  0  0  0  0  0  0
   -3.1845    5.8569   12.5455 S   0  0  1  0  0  0  0  0  0  0  0  0
    0.2052    4.8599   12.7418 H   0  0  0  0  0  0  0  0  0  0  0  0
    1.7062    3.2238   11.6882 H   0  0  0  0  0  0  0  0  0  0  0  0
   -3.7984    8.5868   13.3878 H   0  0  0  0  0  0  0  0  0  0  0  0
   -1.4288    6.2804   17.0556 H   0  0  0  0  0  0  0  0  0  0  0  0
   -1.9263    5.0877   14.9503 H   0  0  0  0  0  0  0  0  0  0  0  0
    1.6780    2.3735    8.1828 H   0  0  0  0  0  0  0  0  0  0  0  0
    2.4845    2.1584    9.8101 H   0  0  0  0  0  0  0  0  0  0  0  0
    0.0060    0.6987    9.6467 H   0  0  0  0  0  0  0  0  0  0  0  0
    1.2263    0.2662    8.3104 H   0  0  0  0  0  0  0  0  0  0  0  0
    2.8013   -0.5123    9.8298 H   0  0  0  0  0  0  0  0  0  0  0  0
    1.8847    0.1965   11.2458 H   0  0  0  0  0  0  0  0  0  0  0  0
    0.9622   -1.8723   11.5851 H   0  0  0  0  0  0  0  0  0  0  0  0
    0.0623   -1.6478   10.0468 H   0  0  0  0  0  0  0  0  0  0  0  0
    1.6414   -2.5040   10.0468 H   0  0  0  0  0  0  0  0  0  0  0  0
   -0.7084    3.2717    8.1508 H   0  0  0  0  0  0  0  0  0  0  0  0
   -2.2145    4.9258    9.2317 H   0  0  0  0  0  0  0  0  0  0  0  0
   -1.6242    6.9906   11.4169 H   0  0  0  0  0  0  0  0  0  0  0  0
   -1.6063    8.2626   18.2656 H   0  0  0  0  0  0  0  0  0  0  0  0
  1  2  2  0
  1 17  1  0
  1 18  1  0
  2  3  1  0
  3 11  2  0
  4  6  2  0
  4 10  1  0
  5  6  1  0
  5 19  1  0
  5 23  2  0
  6  7  1  0
  7  8  2  0
  7 20  1  0
  8  9  1  0
  9 10  2  0
 10 24  1  0
 11 12  1  0
 11 16  1  0
 12 13  1  0
 13 14  1  0
 14 15  1  0
 16 17  2  0
 24 18  1  6
 21 24  2  0
 22 24  2  0
  2 25  1  0
  3 26  1  0
  4 27  1  0
  8 28  1  0
  9 29  1  0
 12 30  1  0
 12 31  1  0
 13 32  1  0
 13 33  1  0
 14 34  1  0
 14 35  1  0
 15 36  1  0
 15 37  1  0
 15 38  1  0
 16 39  1  0
 17 40  1  0
 18 41  1  0
 20 42  1  0
M  CHG  1  19  -1
M  END
>  <filename_input>  (25) 
7M3H_YPV_docked.sdf

>  <pdb_id>  (25) 
7M3H_YPV

>  <pose_rank>  (25) 
24

>  <num_atoms_heavy>  (25) 
24

>  <num_torsions>  (25) 
7

>  <pose>  (25) 
[-3.335401281220899, 4.472392693208287, 12.86236344777829, -3.919463522037467, -0.2561408254201571, 1.4785346576357727, -2.291822699342957, -0.9601955055428042, -11.450487242394624, 7.232393784745033, 3.672307274886272, 3.5279890532494735, -0.5112246607242537]

>  <energy>  (25) 
-543.6160187606357

>  <inter_energy>  (25) 
-543.8170208349114

>  <intra_energy>  (25) 
7.4338005280538875

>  <rmsd>  (25) 
7.33488

>  <sdf_rank>  (25) 
0

$$$$

     RDKit          3D

 42 43  0  0  0  0  0  0  0  0999 V2000
    1.9380    6.7520   17.1350 C   0  0  0  0  0  0  0  0  0  0  0  0
    2.8690    6.4700   16.1640 C   0  0  0  0  0  0  0  0  0  0  0  0
    3.9170    7.3390   15.8720 C   0  0  0  0  0  0  0  0  0  0  0  0
   -2.0930    8.0780   16.6420 C   0  0  0  0  0  0  0  0  0  0  0  0
   -3.5070    9.9640   15.6720 C   0  0  0  0  0  0  0  0  0  0  0  0
   -2.6570    8.7100   15.5530 C   0  0  0  0  0  0  0  0  0  0  0  0
   -2.3730    8.1770   14.3350 C   0  0  0  0  0  0  0  0  0  0  0  0
   -1.5860    7.0890   14.1390 C   0  0  0  0  0  0  0  0  0  0  0  0
   -1.0500    6.4980   15.2610 C   0  0  0  0  0  0  0  0  0  0  0  0
   -1.2880    6.9450   16.5690 C   0  0  0  0  0  0  0  0  0  0  0  0
    4.0690    8.5450   16.5150 C   0  0  0  0  0  0  0  0  0  0  0  0
    5.2170    9.4450   16.1970 C   0  0  0  0  0  0  0  0  0  0  0  0
    6.2380    9.5540   17.3170 C   0  0  0  0  0  0  0  0  0  0  0  0
    6.7320    8.2340   17.9770 C   0  0  0  0  0  0  0  0  0  0  0  0
    7.4340    8.4450   19.3960 C   0  0  0  0  0  0  0  0  0  0  0  0
    3.1320    8.8480   17.5070 C   0  0  0  0  0  0  0  0  0  0  0  0
    2.0780    7.9610   17.7920 C   0  0  0  0  0  0  0  0  0  0  0  0
    0.9340    5.8570   17.4720 N   0  0  0  0  0  0  0  0  0  0  0  0
   -3.7470   10.4560   16.8360 O   0  0  0  0  0  0  0  0  0  0  0  0
   -2.9140    8.7850   13.1960 O   0  0  0  0  0  0  0  0  0  0  0  0
   -0.5580    7.0160   19.0270 O   0  0  0  0  0  0  0  0  0  0  0  0
   -1.1740    4.8420   18.1150 O   0  0  0  0  0  0  0  0  0  0  0  0
   -3.8900   10.5140   14.6070 O   0  0  0  0  0  0  0  0  0  0  0  0
   -0.5700    6.1530   17.8890 S   0  0  1  0  0  0  0  0  0  0  0  0
    2.7836    5.5292   15.6004 H   0  0  0  0  0  0  0  0  0  0  0  0
    4.6475    7.0513   15.1015 H   0  0  0  0  0  0  0  0  0  0  0  0
   -2.2937    8.4993   17.6381 H   0  0  0  0  0  0  0  0  0  0  0  0
   -1.3857    6.6975   13.1307 H   0  0  0  0  0  0  0  0  0  0  0  0
   -0.3966    5.6238   15.1236 H   0  0  0  0  0  0  0  0  0  0  0  0
    5.7244    9.0570   15.3014 H   0  0  0  0  0  0  0  0  0  0  0  0
    4.8020   10.4519   16.0421 H   0  0  0  0  0  0  0  0  0  0  0  0
    7.1208   10.0671   16.9079 H   0  0  0  0  0  0  0  0  0  0  0  0
    5.7113   10.0871   18.1222 H   0  0  0  0  0  0  0  0  0  0  0  0
    5.8660    7.5698   18.1141 H   0  0  0  0  0  0  0  0  0  0  0  0
    7.4903    7.8049   17.3056 H   0  0  0  0  0  0  0  0  0  0  0  0
    6.7127    8.2282   20.1977 H   0  0  0  0  0  0  0  0  0  0  0  0
    8.2949    7.7659   19.4838 H   0  0  0  0  0  0  0  0  0  0  0  0
    7.7778    9.4862   19.4838 H   0  0  0  0  0  0  0  0  0  0  0  0
    3.2196    9.7889   18.0701 H   0  0  0  0  0  0  0  0  0  0  0  0
    1.3422    8.2376   18.5614 H   0  0  0  0  0  0  0  0  0  0  0  0
    1.2003    4.8623   17.4487 H   0  0  0  0  0  0  0  0  0  0  0  0
   -2.7211    8.4147   12.2984 H   0  0  0  0  0  0  0  0  0  0  0  0
  1  2  2  0
  1 17  1  0
  1 18  1  0
  2  3  1  0
  3 11  2  0
  4  6  2  0
  4 10  1  0
  5  6  1  0
  5 19  1  0
  5 23  2  0
  6  7  1  0
  7  8  2  0
  7 20  1  0
  8  9  1  0
  9 10  2  0
 10 24  1  0
 11 12  1  0
 11 16  1  0
 12 13  1  0
 13 14  1  0
 14 15  1  0
 16 17  2  0
 24 18  1  6
 21 24  2  0
 22 24  2  0
  2 25  1  0
  3 26  1  0
  4 27  1  0
  8 28  1  0
  9 29  1  0
 12 30  1  0
 12 31  1  0
 13 32  1  0
 13 33  1  0
 14 34  1  0
 14 35  1  0
 15 36  1  0
 15 37  1  0
 15 38  1  0
 16 39  1  0
 17 40  1  0
 18 41  1  0
 20 42  1  0
M  CHG  1  19  -1
M  END
>  <filename_input>  (26) 
7M3H_YPV_docked.sdf

>  <pdb_id>  (26) 
7M3H_YPV

>  <pose_rank>  (26) 
25

>  <num_atoms_heavy>  (26) 
24

>  <num_torsions>  (26) 
7

>  <pose>  (26) 
[-0.558, 7.016, 19.027, 1e-06, 1e-06, 1e-06, 0.0, 0.0, 0.0, 0.0, 0.0, 0.0, 0.0]

>  <energy>  (26) 
-963.1883882424239

>  <inter_energy>  (26) 
-1000.7446482051347

>  <intra_energy>  (26) 
40.20490189061526

>  <rmsd>  (26) 
0.0

>  <sdf_rank>  (26) 
0

$$$$
