
     RDKit          3D

 53 55  0  0  0  0  0  0  0  0999 V2000
   23.0356   -5.1604  -31.6863 C   0  0  0  0  0  0  0  0  0  0  0  0
   23.7881   -3.4632  -33.1348 C   0  0  0  0  0  0  0  0  0  0  0  0
   25.7231   -3.8519  -34.6619 C   0  0  0  0  0  0  0  0  0  0  0  0
   27.3243   -4.6527  -36.3368 C   0  0  0  0  0  0  0  0  0  0  0  0
   28.9328   -4.5497  -39.0504 C   0  0  0  0  0  0  0  0  0  0  0  0
   30.9129   -5.5296  -39.9096 C   0  0  0  0  0  0  0  0  0  0  0  0
   23.3737   -9.5445  -31.9744 C   0  0  1  0  0  0  0  0  0  0  0  0
   22.8903   -8.1068  -31.9438 C   0  0  2  0  0  0  0  0  0  0  0  0
   23.9855   -7.3548  -31.5874 C   0  0  2  0  0  0  0  0  0  0  0  0
   24.8258   -9.3142  -32.5673 C   0  0  1  0  0  0  0  0  0  0  0  0
   24.6811   -9.4144  -34.1067 C   0  0  0  0  0  0  0  0  0  0  0  0
   22.9455   -3.8911  -32.1754 C   0  0  0  0  0  0  0  0  0  0  0  0
   24.7252   -4.3767  -33.5830 C   0  0  0  0  0  0  0  0  0  0  0  0
   24.7873   -5.6456  -33.0634 C   0  0  0  0  0  0  0  0  0  0  0  0
   28.7460   -5.6551  -38.2284 C   0  0  0  0  0  0  0  0  0  0  0  0
   30.0343   -4.4846  -39.8742 C   0  0  0  0  0  0  0  0  0  0  0  0
   30.7064   -6.6503  -39.1227 C   0  0  0  0  0  0  0  0  0  0  0  0
   29.5964   -6.7202  -38.2864 C   0  0  0  0  0  0  0  0  0  0  0  0
   23.9639   -5.9988  -32.1417 N   0  0  0  0  0  0  0  0  0  0  0  0
   26.0274   -4.7839  -35.6948 N   0  0  0  0  0  0  0  0  0  0  0  0
   27.5380   -5.6574  -37.4244 N   0  0  0  0  0  0  0  0  0  0  0  0
   32.0412   -5.4523  -40.7768 N   0  0  0  0  0  0  0  0  0  0  0  0
   23.4575  -10.1265  -30.6757 O   0  0  0  0  0  0  0  0  0  0  0  0
   21.8480   -7.9602  -31.0663 O   0  0  0  0  0  0  0  0  0  0  0  0
   25.2328   -8.1046  -32.2254 O   0  0  0  0  0  0  0  0  0  0  0  0
   25.9520   -9.7091  -34.6061 O   0  0  0  0  0  0  0  0  0  0  0  0
   24.9714   -8.5455  -36.6880 O   0  0  0  0  0  0  0  0  0  0  0  0
   26.1456  -10.7318  -36.9515 O   0  0  0  0  0  0  0  0  0  0  0  0
   27.4879   -8.7223  -36.3205 O   0  0  0  0  0  0  0  0  0  0  0  0
   28.1078   -3.8506  -35.9926 O   0  0  0  0  0  0  0  0  0  0  0  0
   31.8643   -5.0993  -42.0999 O   0  0  0  0  0  0  0  0  0  0  0  0
   33.1103   -5.6533  -40.3567 O   0  0  0  0  0  0  0  0  0  0  0  0
   26.1478   -9.4083  -36.2099 P   0  0  2  0  0  0  0  0  0  0  0  0
   22.3342   -5.4951  -30.9078 H   0  0  0  0  0  0  0  0  0  0  0  0
   23.7341   -2.4420  -33.5402 H   0  0  0  0  0  0  0  0  0  0  0  0
   25.2853   -2.9562  -35.1267 H   0  0  0  0  0  0  0  0  0  0  0  0
   26.6688   -3.6494  -34.1379 H   0  0  0  0  0  0  0  0  0  0  0  0
   28.2016   -3.7279  -39.0428 H   0  0  0  0  0  0  0  0  0  0  0  0
   22.7174  -10.2293  -32.5315 H   0  0  0  0  0  0  0  0  0  0  0  0
   22.4978   -7.7811  -32.9184 H   0  0  0  0  0  0  0  0  0  0  0  0
   24.0130   -7.2567  -30.4921 H   0  0  0  0  0  0  0  0  0  0  0  0
   25.5549  -10.0477  -32.1923 H   0  0  0  0  0  0  0  0  0  0  0  0
   23.9741  -10.2147  -34.3706 H   0  0  0  0  0  0  0  0  0  0  0  0
   24.2943   -8.4765  -34.5318 H   0  0  0  0  0  0  0  0  0  0  0  0
   22.1767   -3.2096  -31.7824 H   0  0  0  0  0  0  0  0  0  0  0  0
   25.5391   -6.3578  -33.4344 H   0  0  0  0  0  0  0  0  0  0  0  0
   30.2055   -3.5963  -40.4999 H   0  0  0  0  0  0  0  0  0  0  0  0
   31.4206   -7.4861  -39.1587 H   0  0  0  0  0  0  0  0  0  0  0  0
   29.4078   -7.6196  -37.6819 H   0  0  0  0  0  0  0  0  0  0  0  0
   25.3595   -5.5166  -35.9738 H   0  0  0  0  0  0  0  0  0  0  0  0
   26.8126   -6.3657  -37.6063 H   0  0  0  0  0  0  0  0  0  0  0  0
   23.3557   -9.4197  -29.9901 H   0  0  0  0  0  0  0  0  0  0  0  0
   22.1888   -8.0081  -30.1380 H   0  0  0  0  0  0  0  0  0  0  0  0
  1 12  2  0
  1 19  1  0
  2 12  1  0
  2 13  2  0
  3 13  1  0
  3 20  1  0
  4 20  1  0
  4 21  1  0
  4 30  2  0
  5 15  2  0
  5 16  1  0
  6 16  2  0
  6 17  1  0
  6 22  1  0
  7  8  1  0
  7 10  1  0
  7 23  1  0
  8  9  1  0
  8 24  1  0
  9 19  1  0
  9 25  1  0
 10 11  1  0
 10 25  1  0
 11 26  1  0
 13 14  1  0
 14 19  2  0
 15 18  1  0
 15 21  1  0
 17 18  2  0
 22 31  1  0
 22 32  2  0
 26 33  1  0
 33 27  1  6
 28 33  2  0
 29 33  1  0
  1 34  1  0
  2 35  1  0
  3 36  1  0
  3 37  1  0
  5 38  1  0
  7 39  1  6
  8 40  1  6
  9 41  1  1
 10 42  1  1
 11 43  1  0
 11 44  1  0
 12 45  1  0
 14 46  1  0
 16 47  1  0
 17 48  1  0
 18 49  1  0
 20 50  1  0
 21 51  1  0
 23 52  1  0
 24 53  1  0
M  CHG  5  19   1  22   1  27  -1  29  -1  31  -1
M  END
>  <filename_input>  (1) 
7M6K_YRJ_docked.sdf

>  <pdb_id>  (1) 
7M6K_YRJ

>  <pose_rank>  (1) 
0

>  <num_atoms_heavy>  (1) 
33

>  <num_torsions>  (1) 
8

>  <pose>  (1) 
[23.03556346672088, -5.160423892994292, -31.68631725411482, -3.8237839707206183, 4.589714191459316, 1.4857476083455292, -0.07058492612253042, 0.3899950706260232, -0.04479038875292357, -0.7047486213167723, 0.3363778384098214, 0.09940952158479345, -0.4241485424581065, 1.8967046985704499]

>  <energy>  (1) 
-957.9315437745269

>  <inter_energy>  (1) 
-958.2847454294647

>  <intra_energy>  (1) 
13.490652641220429

>  <rmsd>  (1) 
0.788619

>  <sdf_rank>  (1) 
0

$$$$

     RDKit          3D

 53 55  0  0  0  0  0  0  0  0999 V2000
   24.4981   -5.8699  -32.5521 C   0  0  0  0  0  0  0  0  0  0  0  0
   24.9319   -4.6483  -34.5179 C   0  0  0  0  0  0  0  0  0  0  0  0
   24.5954   -5.6814  -36.7645 C   0  0  0  0  0  0  0  0  0  0  0  0
   26.8742   -6.0052  -37.6085 C   0  0  0  0  0  0  0  0  0  0  0  0
   29.2615   -5.7864  -39.7595 C   0  0  0  0  0  0  0  0  0  0  0  0
   31.6230   -5.9045  -39.5912 C   0  0  0  0  0  0  0  0  0  0  0  0
   23.2586   -8.9672  -30.4230 C   0  0  1  0  0  0  0  0  0  0  0  0
   24.2739   -8.2569  -31.2982 C   0  0  2  0  0  0  0  0  0  0  0  0
   23.6706   -8.1154  -32.5262 C   0  0  2  0  0  0  0  0  0  0  0  0
   21.9339   -8.2790  -30.9569 C   0  0  1  0  0  0  0  0  0  0  0  0
   21.7099   -7.0314  -30.0658 C   0  0  0  0  0  0  0  0  0  0  0  0
   24.9078   -4.7280  -33.1738 C   0  0  0  0  0  0  0  0  0  0  0  0
   24.5189   -5.7735  -35.2086 C   0  0  0  0  0  0  0  0  0  0  0  0
   24.1163   -6.9068  -34.5470 C   0  0  0  0  0  0  0  0  0  0  0  0
   29.1439   -6.6139  -38.6486 C   0  0  0  0  0  0  0  0  0  0  0  0
   30.5084   -5.4172  -40.2121 C   0  0  0  0  0  0  0  0  0  0  0  0
   31.5087   -6.7627  -38.5104 C   0  0  0  0  0  0  0  0  0  0  0  0
   30.2510   -7.1369  -38.0472 C   0  0  0  0  0  0  0  0  0  0  0  0
   24.1219   -6.9315  -33.2618 N   0  0  0  0  0  0  0  0  0  0  0  0
   25.5496   -6.5507  -37.3661 N   0  0  0  0  0  0  0  0  0  0  0  0
   27.7938   -6.9843  -38.2669 N   0  0  0  0  0  0  0  0  0  0  0  0
   32.9064   -5.5229  -40.0796 N   0  0  0  0  0  0  0  0  0  0  0  0
   23.2140  -10.3725  -30.6583 O   0  0  0  0  0  0  0  0  0  0  0  0
   25.4420   -8.9701  -31.3692 O   0  0  0  0  0  0  0  0  0  0  0  0
   22.1260   -7.9142  -32.2121 O   0  0  0  0  0  0  0  0  0  0  0  0
   20.3371   -6.9632  -29.8169 O   0  0  0  0  0  0  0  0  0  0  0  0
   18.8119   -4.9031  -29.5358 O   0  0  0  0  0  0  0  0  0  0  0  0
   18.5648   -6.3368  -31.5634 O   0  0  0  0  0  0  0  0  0  0  0  0
   20.6426   -4.9747  -31.3084 O   0  0  0  0  0  0  0  0  0  0  0  0
   27.1654   -4.9169  -37.2822 O   0  0  0  0  0  0  0  0  0  0  0  0
   33.9282   -6.4508  -40.1162 O   0  0  0  0  0  0  0  0  0  0  0  0
   33.0769   -4.4401  -40.4774 O   0  0  0  0  0  0  0  0  0  0  0  0
   19.5584   -5.7373  -30.5862 P   0  0  2  0  0  0  0  0  0  0  0  0
   24.4782   -5.9146  -31.4532 H   0  0  0  0  0  0  0  0  0  0  0  0
   25.2622   -3.7374  -35.0387 H   0  0  0  0  0  0  0  0  0  0  0  0
   23.6034   -5.9274  -37.1714 H   0  0  0  0  0  0  0  0  0  0  0  0
   24.9177   -4.6563  -36.9994 H   0  0  0  0  0  0  0  0  0  0  0  0
   28.3594   -5.4270  -40.2763 H   0  0  0  0  0  0  0  0  0  0  0  0
   23.4563   -8.8837  -29.3441 H   0  0  0  0  0  0  0  0  0  0  0  0
   24.5572   -7.2752  -30.8908 H   0  0  0  0  0  0  0  0  0  0  0  0
   23.9081   -8.9923  -33.1465 H   0  0  0  0  0  0  0  0  0  0  0  0
   21.0646   -8.9518  -30.9171 H   0  0  0  0  0  0  0  0  0  0  0  0
   22.2629   -7.1353  -29.1206 H   0  0  0  0  0  0  0  0  0  0  0  0
   22.0701   -6.1182  -30.5621 H   0  0  0  0  0  0  0  0  0  0  0  0
   25.2220   -3.8628  -32.5715 H   0  0  0  0  0  0  0  0  0  0  0  0
   23.7901   -7.7908  -35.1145 H   0  0  0  0  0  0  0  0  0  0  0  0
   30.6062   -4.7339  -41.0685 H   0  0  0  0  0  0  0  0  0  0  0  0
   32.4130   -7.1489  -38.0175 H   0  0  0  0  0  0  0  0  0  0  0  0
   30.1512   -7.8430  -37.2096 H   0  0  0  0  0  0  0  0  0  0  0  0
   25.3118   -7.5208  -37.6177 H   0  0  0  0  0  0  0  0  0  0  0  0
   27.4618   -7.9413  -38.4532 H   0  0  0  0  0  0  0  0  0  0  0  0
   23.1988  -10.8518  -29.7921 H   0  0  0  0  0  0  0  0  0  0  0  0
   25.7645   -9.1671  -30.4542 H   0  0  0  0  0  0  0  0  0  0  0  0
  1 12  2  0
  1 19  1  0
  2 12  1  0
  2 13  2  0
  3 13  1  0
  3 20  1  0
  4 20  1  0
  4 21  1  0
  4 30  2  0
  5 15  2  0
  5 16  1  0
  6 16  2  0
  6 17  1  0
  6 22  1  0
  7  8  1  0
  7 10  1  0
  7 23  1  0
  8  9  1  0
  8 24  1  0
  9 19  1  0
  9 25  1  0
 10 11  1  0
 10 25  1  0
 11 26  1  0
 13 14  1  0
 14 19  2  0
 15 18  1  0
 15 21  1  0
 17 18  2  0
 22 31  1  0
 22 32  2  0
 26 33  1  0
 33 27  1  1
 28 33  2  0
 29 33  1  0
  1 34  1  0
  2 35  1  0
  3 36  1  0
  3 37  1  0
  5 38  1  0
  7 39  1  1
  8 40  1  1
  9 41  1  6
 10 42  1  6
 11 43  1  0
 11 44  1  0
 12 45  1  0
 14 46  1  0
 16 47  1  0
 17 48  1  0
 18 49  1  0
 20 50  1  0
 21 51  1  0
 23 52  1  0
 24 53  1  0
M  CHG  5  19   1  22   1  27  -1  29  -1  31  -1
M  END
>  <filename_input>  (2) 
7M6K_YRJ_docked.sdf

>  <pdb_id>  (2) 
7M6K_YRJ

>  <pose_rank>  (2) 
1

>  <num_atoms_heavy>  (2) 
33

>  <num_torsions>  (2) 
8

>  <pose>  (2) 
[24.4981058895917, -5.86991013083486, -32.55209397838407, 0.030829888606706258, 0.6833371485310009, -0.7970281502627978, 4.497065214062896, 0.7178955448815966, 0.8816040293334598, -3.1295302056720615, 4.766523485997362, 1.1326464876683497, -0.5620102856130637, 0.29894237743869]

>  <energy>  (2) 
-836.0562291241673

>  <inter_energy>  (2) 
-815.6409444036099

>  <intra_energy>  (2) 
3.1107035172334143

>  <rmsd>  (2) 
3.95912

>  <sdf_rank>  (2) 
0

$$$$

     RDKit          3D

 53 55  0  0  0  0  0  0  0  0999 V2000
   23.9686   -7.1495  -32.7513 C   0  0  0  0  0  0  0  0  0  0  0  0
   24.5275   -8.7710  -34.3647 C   0  0  0  0  0  0  0  0  0  0  0  0
   25.5770   -8.1098  -36.5302 C   0  0  0  0  0  0  0  0  0  0  0  0
   27.5271   -7.2345  -37.7307 C   0  0  0  0  0  0  0  0  0  0  0  0
   29.6653   -5.1919  -40.0475 C   0  0  0  0  0  0  0  0  0  0  0  0
   31.9159   -5.9329  -40.1187 C   0  0  0  0  0  0  0  0  0  0  0  0
   23.1990   -2.8333  -33.0410 C   0  0  1  0  0  0  0  0  0  0  0  0
   23.8532   -3.9049  -33.8926 C   0  0  2  0  0  0  0  0  0  0  0  0
   24.3907   -4.8074  -33.0046 C   0  0  2  0  0  0  0  0  0  0  0  0
   22.6305   -3.7443  -31.8747 C   0  0  1  0  0  0  0  0  0  0  0  0
   21.2020   -4.1569  -32.3106 C   0  0  0  0  0  0  0  0  0  0  0  0
   24.0052   -8.4475  -33.1664 C   0  0  0  0  0  0  0  0  0  0  0  0
   25.0165   -7.7244  -35.1258 C   0  0  0  0  0  0  0  0  0  0  0  0
   24.9588   -6.4291  -34.6751 C   0  0  0  0  0  0  0  0  0  0  0  0
   29.4315   -6.0169  -38.9532 C   0  0  0  0  0  0  0  0  0  0  0  0
   30.9201   -5.1389  -40.6119 C   0  0  0  0  0  0  0  0  0  0  0  0
   31.6744   -6.7866  -39.0555 C   0  0  0  0  0  0  0  0  0  0  0  0
   30.4089   -6.8423  -38.4795 C   0  0  0  0  0  0  0  0  0  0  0  0
   24.4407   -6.1756  -33.5263 N   0  0  0  0  0  0  0  0  0  0  0  0
   26.1707   -7.0340  -37.2500 N   0  0  0  0  0  0  0  0  0  0  0  0
   28.0711   -6.0403  -38.4489 N   0  0  0  0  0  0  0  0  0  0  0  0
   33.2058   -5.8755  -40.7221 N   0  0  0  0  0  0  0  0  0  0  0  0
   24.1358   -1.8931  -32.5208 O   0  0  0  0  0  0  0  0  0  0  0  0
   24.7993   -3.3607  -34.7213 O   0  0  0  0  0  0  0  0  0  0  0  0
   23.3995   -4.8128  -31.7628 O   0  0  0  0  0  0  0  0  0  0  0  0
   20.4742   -4.3664  -31.1369 O   0  0  0  0  0  0  0  0  0  0  0  0
   20.7860   -6.8669  -30.5888 O   0  0  0  0  0  0  0  0  0  0  0  0
   19.2102   -6.2033  -32.4067 O   0  0  0  0  0  0  0  0  0  0  0  0
   18.6162   -5.6434  -30.0464 O   0  0  0  0  0  0  0  0  0  0  0  0
   28.0945   -8.2498  -37.5790 O   0  0  0  0  0  0  0  0  0  0  0  0
   34.1002   -4.8981  -40.3333 O   0  0  0  0  0  0  0  0  0  0  0  0
   33.5111   -6.6743  -41.5149 O   0  0  0  0  0  0  0  0  0  0  0  0
   19.7414   -5.8339  -31.0345 P   0  0  2  0  0  0  0  0  0  0  0  0
   23.5447   -6.9045  -31.7663 H   0  0  0  0  0  0  0  0  0  0  0  0
   24.5634   -9.8116  -34.7194 H   0  0  0  0  0  0  0  0  0  0  0  0
   26.3387   -8.8914  -36.3924 H   0  0  0  0  0  0  0  0  0  0  0  0
   24.7158   -8.4449  -37.1269 H   0  0  0  0  0  0  0  0  0  0  0  0
   28.8489   -4.5822  -40.4619 H   0  0  0  0  0  0  0  0  0  0  0  0
   22.4691   -2.2117  -33.5804 H   0  0  0  0  0  0  0  0  0  0  0  0
   23.1329   -4.4007  -34.5599 H   0  0  0  0  0  0  0  0  0  0  0  0
   25.4244   -4.5112  -32.7727 H   0  0  0  0  0  0  0  0  0  0  0  0
   22.6110   -3.2241  -30.9057 H   0  0  0  0  0  0  0  0  0  0  0  0
   20.7402   -3.3557  -32.9062 H   0  0  0  0  0  0  0  0  0  0  0  0
   21.2224   -5.0634  -32.9333 H   0  0  0  0  0  0  0  0  0  0  0  0
   23.6041   -9.2386  -32.5159 H   0  0  0  0  0  0  0  0  0  0  0  0
   25.3545   -5.6109  -35.2948 H   0  0  0  0  0  0  0  0  0  0  0  0
   31.1193   -4.4611  -41.4551 H   0  0  0  0  0  0  0  0  0  0  0  0
   32.4837   -7.4215  -38.6658 H   0  0  0  0  0  0  0  0  0  0  0  0
   30.2000   -7.5405  -37.6555 H   0  0  0  0  0  0  0  0  0  0  0  0
   25.6623   -6.1548  -37.4219 H   0  0  0  0  0  0  0  0  0  0  0  0
   27.4674   -5.2175  -38.5884 H   0  0  0  0  0  0  0  0  0  0  0  0
   24.1123   -1.9168  -31.5314 H   0  0  0  0  0  0  0  0  0  0  0  0
   25.5164   -2.9482  -34.1775 H   0  0  0  0  0  0  0  0  0  0  0  0
  1 12  2  0
  1 19  1  0
  2 12  1  0
  2 13  2  0
  3 13  1  0
  3 20  1  0
  4 20  1  0
  4 21  1  0
  4 30  2  0
  5 15  2  0
  5 16  1  0
  6 16  2  0
  6 17  1  0
  6 22  1  0
  7  8  1  0
  7 10  1  0
  7 23  1  0
  8  9  1  0
  8 24  1  0
  9 19  1  0
  9 25  1  0
 10 11  1  0
 10 25  1  0
 11 26  1  0
 13 14  1  0
 14 19  2  0
 15 18  1  0
 15 21  1  0
 17 18  2  0
 22 31  1  0
 22 32  2  0
 26 33  1  0
 33 27  1  1
 28 33  2  0
 29 33  1  0
  1 34  1  0
  2 35  1  0
  3 36  1  0
  3 37  1  0
  5 38  1  0
  7 39  1  6
  8 40  1  6
  9 41  1  1
 10 42  1  1
 11 43  1  0
 11 44  1  0
 12 45  1  0
 14 46  1  0
 16 47  1  0
 17 48  1  0
 18 49  1  0
 20 50  1  0
 21 51  1  0
 23 52  1  0
 24 53  1  0
M  CHG  5  19   1  22   1  27  -1  29  -1  31  -1
M  END
>  <filename_input>  (3) 
7M6K_YRJ_docked.sdf

>  <pdb_id>  (3) 
7M6K_YRJ

>  <pose_rank>  (3) 
2

>  <num_atoms_heavy>  (3) 
33

>  <num_torsions>  (3) 
8

>  <pose>  (3) 
[23.968550227168826, -7.149498205920721, -32.75129262380464, -1.434332645965896, 0.017098593237559738, 2.2043940307105925, 2.7414024143668527, 0.5071522306554891, 0.5809691277209769, 0.4577789046439745, -0.27194880311220115, 4.959885380062635, -2.887700459564496, -2.0516863127548306]

>  <energy>  (3) 
-717.0482648186846

>  <inter_energy>  (3) 
-745.2965326457247

>  <intra_energy>  (3) 
25.049532252005726

>  <rmsd>  (3) 
5.0332

>  <sdf_rank>  (3) 
0

$$$$

     RDKit          3D

 53 55  0  0  0  0  0  0  0  0999 V2000
   25.0074   -4.2655  -33.3818 C   0  0  0  0  0  0  0  0  0  0  0  0
   26.1396   -4.2704  -35.4466 C   0  0  0  0  0  0  0  0  0  0  0  0
   25.7957   -6.1186  -37.0878 C   0  0  0  0  0  0  0  0  0  0  0  0
   28.1088   -6.4167  -37.8432 C   0  0  0  0  0  0  0  0  0  0  0  0
   31.6738   -7.5957  -38.0401 C   0  0  0  0  0  0  0  0  0  0  0  0
   32.9066   -6.5131  -39.7511 C   0  0  0  0  0  0  0  0  0  0  0  0
   22.4547   -7.8758  -31.9279 C   0  0  1  0  0  0  0  0  0  0  0  0
   22.7624   -7.0527  -33.1645 C   0  0  2  0  0  0  0  0  0  0  0  0
   23.4359   -5.9418  -32.7125 C   0  0  2  0  0  0  0  0  0  0  0  0
   23.7891   -7.6199  -31.1110 C   0  0  1  0  0  0  0  0  0  0  0  0
   24.7665   -8.7498  -31.5219 C   0  0  0  0  0  0  0  0  0  0  0  0
   25.8875   -3.6973  -34.2543 C   0  0  0  0  0  0  0  0  0  0  0  0
   25.4591   -5.4428  -35.7220 C   0  0  0  0  0  0  0  0  0  0  0  0
   24.5827   -5.9866  -34.8162 C   0  0  0  0  0  0  0  0  0  0  0  0
   30.4995   -7.0477  -38.5436 C   0  0  0  0  0  0  0  0  0  0  0  0
   32.8739   -7.3407  -38.6651 C   0  0  0  0  0  0  0  0  0  0  0  0
   31.7439   -5.9324  -40.2291 C   0  0  0  0  0  0  0  0  0  0  0  0
   30.5279   -6.1887  -39.6030 C   0  0  0  0  0  0  0  0  0  0  0  0
   24.3865   -5.4024  -33.6882 N   0  0  0  0  0  0  0  0  0  0  0  0
   26.9758   -6.9157  -37.0828 N   0  0  0  0  0  0  0  0  0  0  0  0
   29.2882   -7.3360  -37.7985 N   0  0  0  0  0  0  0  0  0  0  0  0
   34.1584   -6.2493  -40.3791 N   0  0  0  0  0  0  0  0  0  0  0  0
   21.3302   -7.3837  -31.2028 O   0  0  0  0  0  0  0  0  0  0  0  0
   21.6118   -6.7291  -33.8350 O   0  0  0  0  0  0  0  0  0  0  0  0
   24.2783   -6.4439  -31.4622 O   0  0  0  0  0  0  0  0  0  0  0  0
   25.2575   -8.4097  -32.7846 O   0  0  0  0  0  0  0  0  0  0  0  0
   26.8096  -10.1494  -33.8863 O   0  0  0  0  0  0  0  0  0  0  0  0
   24.9440   -9.1621  -35.2177 O   0  0  0  0  0  0  0  0  0  0  0  0
   24.3828  -10.6931  -33.3259 O   0  0  0  0  0  0  0  0  0  0  0  0
   28.0766   -5.3834  -38.3972 O   0  0  0  0  0  0  0  0  0  0  0  0
   34.3480   -6.5996  -41.7011 O   0  0  0  0  0  0  0  0  0  0  0  0
   35.0030   -5.7083  -39.7841 O   0  0  0  0  0  0  0  0  0  0  0  0
   25.3547   -9.6614  -33.8452 P   0  0  2  0  0  0  0  0  0  0  0  0
   24.8084   -3.7796  -32.4152 H   0  0  0  0  0  0  0  0  0  0  0  0
   26.8485   -3.8298  -36.1630 H   0  0  0  0  0  0  0  0  0  0  0  0
   24.9490   -6.7617  -37.3696 H   0  0  0  0  0  0  0  0  0  0  0  0
   25.9757   -5.3018  -37.8023 H   0  0  0  0  0  0  0  0  0  0  0  0
   31.6442   -8.2322  -37.1435 H   0  0  0  0  0  0  0  0  0  0  0  0
   22.1989   -8.9251  -32.1366 H   0  0  0  0  0  0  0  0  0  0  0  0
   23.3750   -7.6082  -33.8899 H   0  0  0  0  0  0  0  0  0  0  0  0
   22.7094   -5.1455  -32.4936 H   0  0  0  0  0  0  0  0  0  0  0  0
   23.6235   -7.6194  -30.0236 H   0  0  0  0  0  0  0  0  0  0  0  0
   25.5927   -8.8191  -30.7990 H   0  0  0  0  0  0  0  0  0  0  0  0
   24.2602   -9.7261  -31.5417 H   0  0  0  0  0  0  0  0  0  0  0  0
   26.3969   -2.7613  -33.9815 H   0  0  0  0  0  0  0  0  0  0  0  0
   24.0502   -6.9191  -35.0549 H   0  0  0  0  0  0  0  0  0  0  0  0
   33.8007   -7.8008  -38.2920 H   0  0  0  0  0  0  0  0  0  0  0  0
   31.7815   -5.2677  -41.1048 H   0  0  0  0  0  0  0  0  0  0  0  0
   29.6046   -5.7066  -39.9566 H   0  0  0  0  0  0  0  0  0  0  0  0
   27.0238   -7.8045  -36.5644 H   0  0  0  0  0  0  0  0  0  0  0  0
   29.2394   -8.1914  -37.2269 H   0  0  0  0  0  0  0  0  0  0  0  0
   21.5048   -7.4601  -30.2314 H   0  0  0  0  0  0  0  0  0  0  0  0
   20.8952   -6.5275  -33.1824 H   0  0  0  0  0  0  0  0  0  0  0  0
  1 12  2  0
  1 19  1  0
  2 12  1  0
  2 13  2  0
  3 13  1  0
  3 20  1  0
  4 20  1  0
  4 21  1  0
  4 30  2  0
  5 15  2  0
  5 16  1  0
  6 16  2  0
  6 17  1  0
  6 22  1  0
  7  8  1  0
  7 10  1  0
  7 23  1  0
  8  9  1  0
  8 24  1  0
  9 19  1  0
  9 25  1  0
 10 11  1  0
 10 25  1  0
 11 26  1  0
 13 14  1  0
 14 19  2  0
 15 18  1  0
 15 21  1  0
 17 18  2  0
 22 31  1  0
 22 32  2  0
 26 33  1  0
 33 27  1  6
 28 33  2  0
 29 33  1  0
  1 34  1  0
  2 35  1  0
  3 36  1  0
  3 37  1  0
  5 38  1  0
  7 39  1  6
  8 40  1  6
  9 41  1  1
 10 42  1  1
 11 43  1  0
 11 44  1  0
 12 45  1  0
 14 46  1  0
 16 47  1  0
 17 48  1  0
 18 49  1  0
 20 50  1  0
 21 51  1  0
 23 52  1  0
 24 53  1  0
M  CHG  5  19   1  22   1  27  -1  29  -1  31  -1
M  END
>  <filename_input>  (4) 
7M6K_YRJ_docked.sdf

>  <pdb_id>  (4) 
7M6K_YRJ

>  <pose_rank>  (4) 
3

>  <num_atoms_heavy>  (4) 
33

>  <num_torsions>  (4) 
8

>  <pose>  (4) 
[25.007407892388603, -4.265450592413714, -33.381831148680206, 0.7314030648228462, -1.0217733639624467, 4.8542530549645555, 1.7945921203854873, -1.783394289518146, 0.37620030669473675, 3.5921552622518176, -2.0680054701751254, 0.8231192948740884, 3.413557261372231, -1.4398601012097179]

>  <energy>  (4) 
-722.8562599952843

>  <inter_energy>  (4) 
-782.4454365487043

>  <intra_energy>  (4) 
58.89892029460392

>  <rmsd>  (4) 
2.70698

>  <sdf_rank>  (4) 
0

$$$$

     RDKit          3D

 53 55  0  0  0  0  0  0  0  0999 V2000
   27.9526   -5.0864  -38.9378 C   0  0  0  0  0  0  0  0  0  0  0  0
   28.0129   -3.1466  -37.6043 C   0  0  0  0  0  0  0  0  0  0  0  0
   27.1469   -3.1776  -35.2640 C   0  0  0  0  0  0  0  0  0  0  0  0
   25.6813   -4.5258  -33.8342 C   0  0  0  0  0  0  0  0  0  0  0  0
   24.3488   -7.0585  -32.8688 C   0  0  0  0  0  0  0  0  0  0  0  0
   23.1774   -8.0131  -31.0424 C   0  0  0  0  0  0  0  0  0  0  0  0
   26.5341   -9.1904  -37.1740 C   0  0  1  0  0  0  0  0  0  0  0  0
   27.4899   -8.0132  -37.1263 C   0  0  2  0  0  0  0  0  0  0  0  0
   27.1369   -7.2057  -38.1824 C   0  0  2  0  0  0  0  0  0  0  0  0
   25.2163   -8.4325  -37.6238 C   0  0  1  0  0  0  0  0  0  0  0  0
   24.4998   -8.0066  -36.3177 C   0  0  0  0  0  0  0  0  0  0  0  0
   28.2524   -3.7665  -38.7756 C   0  0  0  0  0  0  0  0  0  0  0  0
   27.4603   -3.9208  -36.5999 C   0  0  0  0  0  0  0  0  0  0  0  0
   27.1688   -5.2469  -36.8023 C   0  0  0  0  0  0  0  0  0  0  0  0
   23.8915   -5.7986  -32.4997 C   0  0  0  0  0  0  0  0  0  0  0  0
   24.0042   -8.1610  -32.1193 C   0  0  0  0  0  0  0  0  0  0  0  0
   22.6866   -6.7650  -30.6976 C   0  0  0  0  0  0  0  0  0  0  0  0
   23.0337   -5.6470  -31.4498 C   0  0  0  0  0  0  0  0  0  0  0  0
   27.4095   -5.7861  -37.9441 N   0  0  0  0  0  0  0  0  0  0  0  0
   25.8397   -3.4070  -34.7476 N   0  0  0  0  0  0  0  0  0  0  0  0
   24.2700   -4.7006  -33.3695 N   0  0  0  0  0  0  0  0  0  0  0  0
   22.8201   -9.1659  -30.2844 N   0  0  0  0  0  0  0  0  0  0  0  0
   26.9025  -10.1615  -38.1505 O   0  0  0  0  0  0  0  0  0  0  0  0
   28.7910   -8.4366  -37.2046 O   0  0  0  0  0  0  0  0  0  0  0  0
   25.5622   -7.3659  -38.3226 O   0  0  0  0  0  0  0  0  0  0  0  0
   23.2151   -8.5522  -36.3740 O   0  0  0  0  0  0  0  0  0  0  0  0
   22.3337   -6.6026  -37.8133 O   0  0  0  0  0  0  0  0  0  0  0  0
   21.9523   -6.5684  -35.3473 O   0  0  0  0  0  0  0  0  0  0  0  0
   20.7503   -8.2744  -36.7194 O   0  0  0  0  0  0  0  0  0  0  0  0
   26.5917   -5.1831  -33.4957 O   0  0  0  0  0  0  0  0  0  0  0  0
   21.5138   -9.3344  -29.8700 O   0  0  0  0  0  0  0  0  0  0  0  0
   23.6242   -9.9767  -30.0483 O   0  0  0  0  0  0  0  0  0  0  0  0
   22.0094   -7.4540  -36.5778 P   0  0  2  0  0  0  0  0  0  0  0  0
   28.1617   -5.5781  -39.8993 H   0  0  0  0  0  0  0  0  0  0  0  0
   28.2444   -2.0817  -37.4542 H   0  0  0  0  0  0  0  0  0  0  0  0
   27.8761   -3.5074  -34.5094 H   0  0  0  0  0  0  0  0  0  0  0  0
   27.2091   -2.1019  -35.4852 H   0  0  0  0  0  0  0  0  0  0  0  0
   24.9851   -7.1745  -33.7586 H   0  0  0  0  0  0  0  0  0  0  0  0
   26.4769   -9.7632  -36.2367 H   0  0  0  0  0  0  0  0  0  0  0  0
   27.4204   -7.4615  -36.1772 H   0  0  0  0  0  0  0  0  0  0  0  0
   27.7148   -7.5021  -39.0702 H   0  0  0  0  0  0  0  0  0  0  0  0
   24.5608   -9.0604  -38.2451 H   0  0  0  0  0  0  0  0  0  0  0  0
   25.0405   -8.3971  -35.4429 H   0  0  0  0  0  0  0  0  0  0  0  0
   24.4630   -6.9113  -36.2231 H   0  0  0  0  0  0  0  0  0  0  0  0
   28.6943   -3.2020  -39.6099 H   0  0  0  0  0  0  0  0  0  0  0  0
   26.7309   -5.8459  -35.9903 H   0  0  0  0  0  0  0  0  0  0  0  0
   24.3926   -9.1549  -32.3864 H   0  0  0  0  0  0  0  0  0  0  0  0
   22.0216   -6.6572  -29.8280 H   0  0  0  0  0  0  0  0  0  0  0  0
   22.6230   -4.6571  -31.2020 H   0  0  0  0  0  0  0  0  0  0  0  0
   25.0438   -2.8079  -35.0094 H   0  0  0  0  0  0  0  0  0  0  0  0
   23.5521   -4.0274  -33.6734 H   0  0  0  0  0  0  0  0  0  0  0  0
   27.2146  -10.9840  -37.6965 H   0  0  0  0  0  0  0  0  0  0  0  0
   29.1549   -8.5550  -36.2916 H   0  0  0  0  0  0  0  0  0  0  0  0
  1 12  2  0
  1 19  1  0
  2 12  1  0
  2 13  2  0
  3 13  1  0
  3 20  1  0
  4 20  1  0
  4 21  1  0
  4 30  2  0
  5 15  2  0
  5 16  1  0
  6 16  2  0
  6 17  1  0
  6 22  1  0
  7  8  1  0
  7 10  1  0
  7 23  1  0
  8  9  1  0
  8 24  1  0
  9 19  1  0
  9 25  1  0
 10 11  1  0
 10 25  1  0
 11 26  1  0
 13 14  1  0
 14 19  2  0
 15 18  1  0
 15 21  1  0
 17 18  2  0
 22 31  1  0
 22 32  2  0
 26 33  1  0
 33 27  1  6
 28 33  2  0
 29 33  1  0
  1 34  1  0
  2 35  1  0
  3 36  1  0
  3 37  1  0
  5 38  1  0
  7 39  1  1
  8 40  1  1
  9 41  1  6
 10 42  1  6
 11 43  1  0
 11 44  1  0
 12 45  1  0
 14 46  1  0
 16 47  1  0
 17 48  1  0
 18 49  1  0
 20 50  1  0
 21 51  1  0
 23 52  1  0
 24 53  1  0
M  CHG  5  19   1  22   1  27  -1  29  -1  31  -1
M  END
>  <filename_input>  (5) 
7M6K_YRJ_docked.sdf

>  <pdb_id>  (5) 
7M6K_YRJ

>  <pose_rank>  (5) 
4

>  <num_atoms_heavy>  (5) 
33

>  <num_torsions>  (5) 
8

>  <pose>  (5) 
[27.952634450335008, -5.086419467477607, -38.93783191226588, 0.050988930276362004, -2.6741309381306673, 0.3184739974068524, 1.1324022624272911, 0.9997602577039733, 0.8590586006694454, -0.01098902311911182, 5.075506983763468, -1.949042504899863, -0.10759095065832631, 0.3701829400265881]

>  <energy>  (5) 
-778.6227640905537

>  <inter_energy>  (5) 
-781.8846774072886

>  <intra_energy>  (5) 
21.40814807702865

>  <rmsd>  (5) 
7.95465

>  <sdf_rank>  (5) 
0

$$$$

     RDKit          3D

 53 55  0  0  0  0  0  0  0  0999 V2000
   25.0969   -4.3797  -34.1312 C   0  0  0  0  0  0  0  0  0  0  0  0
   26.7532   -4.6492  -35.7831 C   0  0  0  0  0  0  0  0  0  0  0  0
   27.5958   -6.9186  -36.3891 C   0  0  0  0  0  0  0  0  0  0  0  0
   29.5702   -6.7998  -37.8374 C   0  0  0  0  0  0  0  0  0  0  0  0
   31.5850   -7.0452  -40.6365 C   0  0  0  0  0  0  0  0  0  0  0  0
   33.9430   -7.2090  -40.4576 C   0  0  0  0  0  0  0  0  0  0  0  0
   21.8490   -6.1412  -32.3228 C   0  0  1  0  0  0  0  0  0  0  0  0
   23.0580   -5.2990  -32.6841 C   0  0  2  0  0  0  0  0  0  0  0  0
   24.0643   -6.1946  -32.9618 C   0  0  2  0  0  0  0  0  0  0  0  0
   22.0487   -7.3310  -33.3514 C   0  0  1  0  0  0  0  0  0  0  0  0
   21.2808   -6.9225  -34.6336 C   0  0  0  0  0  0  0  0  0  0  0  0
   25.9584   -3.8505  -35.0456 C   0  0  0  0  0  0  0  0  0  0  0  0
   26.6365   -6.0094  -35.5596 C   0  0  0  0  0  0  0  0  0  0  0  0
   25.7594   -6.5047  -34.6271 C   0  0  0  0  0  0  0  0  0  0  0  0
   31.5433   -6.3641  -39.4253 C   0  0  0  0  0  0  0  0  0  0  0  0
   32.7947   -7.4455  -41.1581 C   0  0  0  0  0  0  0  0  0  0  0  0
   33.9000   -6.5680  -39.2307 C   0  0  0  0  0  0  0  0  0  0  0  0
   32.6805   -6.1589  -38.7001 C   0  0  0  0  0  0  0  0  0  0  0  0
   25.0307   -5.6959  -33.9436 N   0  0  0  0  0  0  0  0  0  0  0  0
   28.2828   -6.2531  -37.4442 N   0  0  0  0  0  0  0  0  0  0  0  0
   30.2237   -6.0167  -38.9318 N   0  0  0  0  0  0  0  0  0  0  0  0
   35.1858   -7.6408  -41.0052 N   0  0  0  0  0  0  0  0  0  0  0  0
   21.8976   -6.6318  -30.9852 O   0  0  0  0  0  0  0  0  0  0  0  0
   23.3840   -4.4477  -31.6609 O   0  0  0  0  0  0  0  0  0  0  0  0
   23.3387   -7.4504  -33.6110 O   0  0  0  0  0  0  0  0  0  0  0  0
   22.1435   -7.1623  -35.7058 O   0  0  0  0  0  0  0  0  0  0  0  0
   19.9123   -6.9665  -36.9837 O   0  0  0  0  0  0  0  0  0  0  0  0
   21.6011   -8.6466  -37.7274 O   0  0  0  0  0  0  0  0  0  0  0  0
   22.1159   -6.2211  -38.0264 O   0  0  0  0  0  0  0  0  0  0  0  0
   30.0068   -7.7715  -37.3468 O   0  0  0  0  0  0  0  0  0  0  0  0
   35.3885   -8.9809  -41.2692 O   0  0  0  0  0  0  0  0  0  0  0  0
   36.0110   -6.8571  -41.2595 O   0  0  0  0  0  0  0  0  0  0  0  0
   21.4095   -7.2471  -37.1739 P   0  0  2  0  0  0  0  0  0  0  0  0
   24.4500   -3.7125  -33.5426 H   0  0  0  0  0  0  0  0  0  0  0  0
   27.4573   -4.2419  -36.5236 H   0  0  0  0  0  0  0  0  0  0  0  0
   28.3462   -7.3399  -35.7039 H   0  0  0  0  0  0  0  0  0  0  0  0
   26.9647   -7.6844  -36.8638 H   0  0  0  0  0  0  0  0  0  0  0  0
   30.6525   -7.2639  -41.1776 H   0  0  0  0  0  0  0  0  0  0  0  0
   20.8918   -5.6016  -32.3742 H   0  0  0  0  0  0  0  0  0  0  0  0
   22.8667   -4.6506  -33.5518 H   0  0  0  0  0  0  0  0  0  0  0  0
   24.6216   -6.4068  -32.0375 H   0  0  0  0  0  0  0  0  0  0  0  0
   21.6800   -8.2911  -32.9612 H   0  0  0  0  0  0  0  0  0  0  0  0
   20.3675   -7.5266  -34.7383 H   0  0  0  0  0  0  0  0  0  0  0  0
   20.9772   -5.8659  -34.5960 H   0  0  0  0  0  0  0  0  0  0  0  0
   26.0049   -2.7601  -35.1823 H   0  0  0  0  0  0  0  0  0  0  0  0
   25.6805   -7.5898  -34.4652 H   0  0  0  0  0  0  0  0  0  0  0  0
   32.8361   -7.9529  -42.1333 H   0  0  0  0  0  0  0  0  0  0  0  0
   34.8310   -6.3822  -38.6751 H   0  0  0  0  0  0  0  0  0  0  0  0
   32.6340   -5.6777  -37.7120 H   0  0  0  0  0  0  0  0  0  0  0  0
   27.8855   -5.4231  -37.9070 H   0  0  0  0  0  0  0  0  0  0  0  0
   29.7265   -5.2141  -39.3437 H   0  0  0  0  0  0  0  0  0  0  0  0
   21.8224   -5.8738  -30.3528 H   0  0  0  0  0  0  0  0  0  0  0  0
   23.2133   -4.8935  -30.7936 H   0  0  0  0  0  0  0  0  0  0  0  0
  1 12  2  0
  1 19  1  0
  2 12  1  0
  2 13  2  0
  3 13  1  0
  3 20  1  0
  4 20  1  0
  4 21  1  0
  4 30  2  0
  5 15  2  0
  5 16  1  0
  6 16  2  0
  6 17  1  0
  6 22  1  0
  7  8  1  0
  7 10  1  0
  7 23  1  0
  8  9  1  0
  8 24  1  0
  9 19  1  0
  9 25  1  0
 10 11  1  0
 10 25  1  0
 11 26  1  0
 13 14  1  0
 14 19  2  0
 15 18  1  0
 15 21  1  0
 17 18  2  0
 22 31  1  0
 22 32  2  0
 26 33  1  0
 33 27  1  1
 28 33  2  0
 29 33  1  0
  1 34  1  0
  2 35  1  0
  3 36  1  0
  3 37  1  0
  5 38  1  0
  7 39  1  6
  8 40  1  6
  9 41  1  1
 10 42  1  1
 11 43  1  0
 11 44  1  0
 12 45  1  0
 14 46  1  0
 16 47  1  0
 17 48  1  0
 18 49  1  0
 20 50  1  0
 21 51  1  0
 23 52  1  0
 24 53  1  0
M  CHG  5  19   1  22   1  27  -1  29  -1  31  -1
M  END
>  <filename_input>  (6) 
7M6K_YRJ_docked.sdf

>  <pdb_id>  (6) 
7M6K_YRJ

>  <pose_rank>  (6) 
5

>  <num_atoms_heavy>  (6) 
33

>  <num_torsions>  (6) 
8

>  <pose>  (6) 
[25.09687080720778, -4.37969856268097, -34.13116499646405, -0.4571696556782438, -0.264982511061614, -0.859911240786264, -0.9008026707557785, -0.8074150442201165, -0.6749001943539528, -0.9023645879023503, 2.58800871739584, -0.8633442815663017, 2.5109946649870674, 1.7186405214238227]

>  <energy>  (6) 
-697.255024439817

>  <inter_energy>  (6) 
-706.8396968549113

>  <intra_energy>  (6) 
12.106557623108365

>  <rmsd>  (6) 
4.08724

>  <sdf_rank>  (6) 
0

$$$$

     RDKit          3D

 53 55  0  0  0  0  0  0  0  0999 V2000
   30.5219   -4.4271  -39.4824 C   0  0  0  0  0  0  0  0  0  0  0  0
   28.5154   -3.5103  -38.6589 C   0  0  0  0  0  0  0  0  0  0  0  0
   26.9418   -4.8920  -37.3015 C   0  0  0  0  0  0  0  0  0  0  0  0
   25.8555   -6.2259  -35.5549 C   0  0  0  0  0  0  0  0  0  0  0  0
   25.5717   -8.5826  -32.7938 C   0  0  0  0  0  0  0  0  0  0  0  0
   23.5764   -8.5457  -31.5146 C   0  0  0  0  0  0  0  0  0  0  0  0
   33.4614   -7.1221  -39.4890 C   0  0  1  0  0  0  0  0  0  0  0  0
   32.2312   -6.3757  -39.9695 C   0  0  2  0  0  0  0  0  0  0  0  0
   31.2402   -6.6710  -39.0624 C   0  0  2  0  0  0  0  0  0  0  0  0
   33.2741   -6.9449  -37.9248 C   0  0  1  0  0  0  0  0  0  0  0  0
   34.0183   -5.6388  -37.5492 C   0  0  0  0  0  0  0  0  0  0  0  0
   29.6560   -3.3809  -39.3629 C   0  0  0  0  0  0  0  0  0  0  0  0
   28.2887   -4.7439  -38.0756 C   0  0  0  0  0  0  0  0  0  0  0  0
   29.1829   -5.7751  -38.2213 C   0  0  0  0  0  0  0  0  0  0  0  0
   24.9369   -7.8624  -33.7993 C   0  0  0  0  0  0  0  0  0  0  0  0
   24.8888   -8.9016  -31.6415 C   0  0  0  0  0  0  0  0  0  0  0  0
   22.9297   -7.8650  -32.5325 C   0  0  0  0  0  0  0  0  0  0  0  0
   23.6158   -7.5376  -33.6981 C   0  0  0  0  0  0  0  0  0  0  0  0
   30.2524   -5.5995  -38.9124 N   0  0  0  0  0  0  0  0  0  0  0  0
   26.7306   -6.1717  -36.7134 N   0  0  0  0  0  0  0  0  0  0  0  0
   25.7194   -7.6061  -34.9941 N   0  0  0  0  0  0  0  0  0  0  0  0
   22.8801   -8.8944  -30.3210 N   0  0  0  0  0  0  0  0  0  0  0  0
   33.4385   -8.5048  -39.8352 O   0  0  0  0  0  0  0  0  0  0  0  0
   31.8997   -6.7500  -41.2455 O   0  0  0  0  0  0  0  0  0  0  0  0
   31.9839   -6.8248  -37.6666 O   0  0  0  0  0  0  0  0  0  0  0  0
   35.2422   -6.0245  -36.9974 O   0  0  0  0  0  0  0  0  0  0  0  0
   36.5438   -6.0203  -34.7713 O   0  0  0  0  0  0  0  0  0  0  0  0
   34.9487   -7.8793  -35.2487 O   0  0  0  0  0  0  0  0  0  0  0  0
   34.0321   -5.5908  -34.8480 O   0  0  0  0  0  0  0  0  0  0  0  0
   25.3069   -5.2726  -35.1475 O   0  0  0  0  0  0  0  0  0  0  0  0
   22.1193   -7.9436  -29.6701 O   0  0  0  0  0  0  0  0  0  0  0  0
   22.9285   -9.9884  -29.9200 O   0  0  0  0  0  0  0  0  0  0  0  0
   35.1905   -6.3888  -35.3956 P   0  0  2  0  0  0  0  0  0  0  0  0
   31.4524   -4.3012  -40.0553 H   0  0  0  0  0  0  0  0  0  0  0  0
   27.8021   -2.6795  -38.5533 H   0  0  0  0  0  0  0  0  0  0  0  0
   26.9230   -4.1392  -36.4996 H   0  0  0  0  0  0  0  0  0  0  0  0
   26.1409   -4.7549  -38.0429 H   0  0  0  0  0  0  0  0  0  0  0  0
   26.6184   -8.8971  -32.9186 H   0  0  0  0  0  0  0  0  0  0  0  0
   34.4066   -6.7560  -39.9162 H   0  0  0  0  0  0  0  0  0  0  0  0
   32.3989   -5.2897  -40.0195 H   0  0  0  0  0  0  0  0  0  0  0  0
   30.6983   -7.5663  -39.4011 H   0  0  0  0  0  0  0  0  0  0  0  0
   33.6670   -7.7993  -37.3542 H   0  0  0  0  0  0  0  0  0  0  0  0
   34.1828   -5.0238  -38.4462 H   0  0  0  0  0  0  0  0  0  0  0  0
   33.4329   -5.0379  -36.8378 H   0  0  0  0  0  0  0  0  0  0  0  0
   29.8915   -2.4214  -39.8464 H   0  0  0  0  0  0  0  0  0  0  0  0
   28.9850   -6.7483  -37.7482 H   0  0  0  0  0  0  0  0  0  0  0  0
   25.3973   -9.4400  -30.8281 H   0  0  0  0  0  0  0  0  0  0  0  0
   21.8726   -7.5828  -32.4197 H   0  0  0  0  0  0  0  0  0  0  0  0
   23.1012   -7.0253  -34.5243 H   0  0  0  0  0  0  0  0  0  0  0  0
   27.1774   -7.0192  -37.0917 H   0  0  0  0  0  0  0  0  0  0  0  0
   26.1909   -8.3909  -35.4661 H   0  0  0  0  0  0  0  0  0  0  0  0
   33.4294   -9.0515  -39.0099 H   0  0  0  0  0  0  0  0  0  0  0  0
   31.2438   -7.4908  -41.2122 H   0  0  0  0  0  0  0  0  0  0  0  0
  1 12  2  0
  1 19  1  0
  2 12  1  0
  2 13  2  0
  3 13  1  0
  3 20  1  0
  4 20  1  0
  4 21  1  0
  4 30  2  0
  5 15  2  0
  5 16  1  0
  6 16  2  0
  6 17  1  0
  6 22  1  0
  7  8  1  0
  7 10  1  0
  7 23  1  0
  8  9  1  0
  8 24  1  0
  9 19  1  0
  9 25  1  0
 10 11  1  0
 10 25  1  0
 11 26  1  0
 13 14  1  0
 14 19  2  0
 15 18  1  0
 15 21  1  0
 17 18  2  0
 22 31  1  0
 22 32  2  0
 26 33  1  0
 33 27  1  1
 28 33  2  0
 29 33  1  0
  1 34  1  0
  2 35  1  0
  3 36  1  0
  3 37  1  0
  5 38  1  0
  7 39  1  6
  8 40  1  6
  9 41  1  6
 10 42  1  1
 11 43  1  0
 11 44  1  0
 12 45  1  0
 14 46  1  0
 16 47  1  0
 17 48  1  0
 18 49  1  0
 20 50  1  0
 21 51  1  0
 23 52  1  0
 24 53  1  0
M  CHG  5  19   1  22   1  27  -1  29  -1  31  -1
M  END
>  <filename_input>  (7) 
7M6K_YRJ_docked.sdf

>  <pdb_id>  (7) 
7M6K_YRJ

>  <pose_rank>  (7) 
6

>  <num_atoms_heavy>  (7) 
33

>  <num_torsions>  (7) 
8

>  <pose>  (7) 
[30.521903609912876, -4.427080868381333, -39.48235471716204, 1.2921659772600762, -3.173003647223047, 0.46991554106734973, -1.4301771986618494, -4.889174744500213, 1.3075083050373564, 2.7437979233709657, -0.3578607651840535, -0.8326800902032644, -1.520445251864742, -1.2091710925226775]

>  <energy>  (7) 
-754.4573370405827

>  <inter_energy>  (7) 
-750.1279221486245

>  <intra_energy>  (7) 
13.141153117202924

>  <rmsd>  (7) 
10.0226

>  <sdf_rank>  (7) 
0

$$$$

     RDKit          3D

 53 55  0  0  0  0  0  0  0  0999 V2000
   24.8233   -9.8107  -34.2764 C   0  0  0  0  0  0  0  0  0  0  0  0
   26.0702   -8.9103  -36.0595 C   0  0  0  0  0  0  0  0  0  0  0  0
   25.8077   -6.5189  -36.7226 C   0  0  0  0  0  0  0  0  0  0  0  0
   28.0320   -6.4419  -37.7505 C   0  0  0  0  0  0  0  0  0  0  0  0
   31.5005   -7.1044  -38.0850 C   0  0  0  0  0  0  0  0  0  0  0  0
   32.5882   -6.8669  -40.1778 C   0  0  0  0  0  0  0  0  0  0  0  0
   22.2783   -7.1076  -31.4534 C   0  0  1  0  0  0  0  0  0  0  0  0
   23.6021   -7.5709  -32.0316 C   0  0  2  0  0  0  0  0  0  0  0  0
   23.2856   -8.5485  -32.9461 C   0  0  2  0  0  0  0  0  0  0  0  0
   21.3866   -7.1825  -32.7622 C   0  0  1  0  0  0  0  0  0  0  0  0
   21.4903   -5.7891  -33.4318 C   0  0  0  0  0  0  0  0  0  0  0  0
   25.7361   -9.9553  -35.2785 C   0  0  0  0  0  0  0  0  0  0  0  0
   25.4440   -7.7087  -35.7807 C   0  0  0  0  0  0  0  0  0  0  0  0
   24.5270   -7.6030  -34.7648 C   0  0  0  0  0  0  0  0  0  0  0  0
   30.4761   -6.2747  -38.5266 C   0  0  0  0  0  0  0  0  0  0  0  0
   32.5446   -7.4144  -38.9273 C   0  0  0  0  0  0  0  0  0  0  0  0
   31.5906   -6.0066  -40.6050 C   0  0  0  0  0  0  0  0  0  0  0  0
   30.5316   -5.6920  -39.7589 C   0  0  0  0  0  0  0  0  0  0  0  0
   24.2381   -8.6356  -34.0558 N   0  0  0  0  0  0  0  0  0  0  0  0
   27.1626   -6.0879  -36.6415 N   0  0  0  0  0  0  0  0  0  0  0  0
   29.4384   -5.9693  -37.5594 N   0  0  0  0  0  0  0  0  0  0  0  0
   33.6822   -7.1878  -41.0329 N   0  0  0  0  0  0  0  0  0  0  0  0
   21.7700   -7.9932  -30.4587 O   0  0  0  0  0  0  0  0  0  0  0  0
   24.4333   -8.0296  -31.0433 O   0  0  0  0  0  0  0  0  0  0  0  0
   21.8868   -8.1098  -33.5594 O   0  0  0  0  0  0  0  0  0  0  0  0
   21.2765   -4.8472  -32.4227 O   0  0  0  0  0  0  0  0  0  0  0  0
   22.4903   -3.1789  -30.8758 O   0  0  0  0  0  0  0  0  0  0  0  0
   22.0015   -2.5232  -33.2335 O   0  0  0  0  0  0  0  0  0  0  0  0
   23.6916   -4.3141  -32.8166 O   0  0  0  0  0  0  0  0  0  0  0  0
   27.6321   -7.0132  -38.6935 O   0  0  0  0  0  0  0  0  0  0  0  0
   33.4416   -7.7609  -42.2659 O   0  0  0  0  0  0  0  0  0  0  0  0
   34.7710   -6.9332  -40.7019 O   0  0  0  0  0  0  0  0  0  0  0  0
   22.4175   -3.6680  -32.3291 P   0  0  2  0  0  0  0  0  0  0  0  0
   24.5678  -10.6736  -33.6438 H   0  0  0  0  0  0  0  0  0  0  0  0
   26.8018   -9.0070  -36.8752 H   0  0  0  0  0  0  0  0  0  0  0  0
   25.6083   -6.8291  -37.7590 H   0  0  0  0  0  0  0  0  0  0  0  0
   25.1910   -5.6672  -36.3994 H   0  0  0  0  0  0  0  0  0  0  0  0
   31.4768   -7.5128  -37.0639 H   0  0  0  0  0  0  0  0  0  0  0  0
   22.3246   -6.1335  -30.9445 H   0  0  0  0  0  0  0  0  0  0  0  0
   24.1520   -6.7509  -32.5165 H   0  0  0  0  0  0  0  0  0  0  0  0
   23.2855   -9.5260  -32.4416 H   0  0  0  0  0  0  0  0  0  0  0  0
   20.3390   -7.4368  -32.5438 H   0  0  0  0  0  0  0  0  0  0  0  0
   22.4886   -5.6530  -33.8734 H   0  0  0  0  0  0  0  0  0  0  0  0
   20.7524   -5.6804  -34.2403 H   0  0  0  0  0  0  0  0  0  0  0  0
   26.2045  -10.9355  -35.4511 H   0  0  0  0  0  0  0  0  0  0  0  0
   24.0410   -6.6381  -34.5581 H   0  0  0  0  0  0  0  0  0  0  0  0
   33.3390   -8.0989  -38.5951 H   0  0  0  0  0  0  0  0  0  0  0  0
   31.6353   -5.5716  -41.6143 H   0  0  0  0  0  0  0  0  0  0  0  0
   29.7519   -4.9850  -40.0784 H   0  0  0  0  0  0  0  0  0  0  0  0
   27.5099   -5.5503  -35.8345 H   0  0  0  0  0  0  0  0  0  0  0  0
   29.6751   -5.4154  -36.7239 H   0  0  0  0  0  0  0  0  0  0  0  0
   21.9765   -7.6334  -29.5598 H   0  0  0  0  0  0  0  0  0  0  0  0
   24.0441   -7.8148  -30.1587 H   0  0  0  0  0  0  0  0  0  0  0  0
  1 12  2  0
  1 19  1  0
  2 12  1  0
  2 13  2  0
  3 13  1  0
  3 20  1  0
  4 20  1  0
  4 21  1  0
  4 30  2  0
  5 15  2  0
  5 16  1  0
  6 16  2  0
  6 17  1  0
  6 22  1  0
  7  8  1  0
  7 10  1  0
  7 23  1  0
  8  9  1  0
  8 24  1  0
  9 19  1  0
  9 25  1  0
 10 11  1  0
 10 25  1  0
 11 26  1  0
 13 14  1  0
 14 19  2  0
 15 18  1  0
 15 21  1  0
 17 18  2  0
 22 31  1  0
 22 32  2  0
 26 33  1  0
 33 27  1  1
 28 33  2  0
 29 33  1  0
  1 34  1  0
  2 35  1  0
  3 36  1  0
  3 37  1  0
  5 38  1  0
  7 39  1  1
  8 40  1  6
  9 41  1  1
 10 42  1  1
 11 43  1  0
 11 44  1  0
 12 45  1  0
 14 46  1  0
 16 47  1  0
 17 48  1  0
 18 49  1  0
 20 50  1  0
 21 51  1  0
 23 52  1  0
 24 53  1  0
M  CHG  5  19   1  22   1  27  -1  29  -1  31  -1
M  END
>  <filename_input>  (8) 
7M6K_YRJ_docked.sdf

>  <pdb_id>  (8) 
7M6K_YRJ

>  <pose_rank>  (8) 
7

>  <num_atoms_heavy>  (8) 
33

>  <num_torsions>  (8) 
8

>  <pose>  (8) 
[24.82331248834722, -9.810720166078953, -34.2764013758452, -1.2028474783548424, -1.6498162745061935, 2.2075638394722943, 0.9052363078298209, 2.326261723361404, -1.2503246717808858, -3.5970952442182313, 1.642064662416535, 4.610530912631589, -1.2708357645550383, -1.3867691921229837]

>  <energy>  (8) 
-685.7934431809518

>  <inter_energy>  (8) 
-694.6440809500667

>  <intra_energy>  (8) 
12.21427737853978

>  <rmsd>  (8) 
4.37797

>  <sdf_rank>  (8) 
0

$$$$

     RDKit          3D

 53 55  0  0  0  0  0  0  0  0999 V2000
   30.7642   -6.2976  -39.4748 C   0  0  0  0  0  0  0  0  0  0  0  0
   29.1243   -4.6980  -38.9300 C   0  0  0  0  0  0  0  0  0  0  0  0
   27.7316   -4.9454  -36.8741 C   0  0  0  0  0  0  0  0  0  0  0  0
   26.2437   -6.1792  -35.3662 C   0  0  0  0  0  0  0  0  0  0  0  0
   24.8088   -9.0115  -33.8052 C   0  0  0  0  0  0  0  0  0  0  0  0
   23.6148   -8.8167  -31.7667 C   0  0  0  0  0  0  0  0  0  0  0  0
   33.0192   -9.4989  -38.8986 C   0  0  1  0  0  0  0  0  0  0  0  0
   31.7176   -8.8176  -39.2773 C   0  0  2  0  0  0  0  0  0  0  0  0
   31.2687   -8.2103  -38.1276 C   0  0  2  0  0  0  0  0  0  0  0  0
   33.5949   -8.4131  -37.8971 C   0  0  1  0  0  0  0  0  0  0  0  0
   34.4452   -7.4447  -38.7572 C   0  0  0  0  0  0  0  0  0  0  0  0
   30.0862   -5.1493  -39.7575 C   0  0  0  0  0  0  0  0  0  0  0  0
   28.8794   -5.4566  -37.7994 C   0  0  0  0  0  0  0  0  0  0  0  0
   29.5810   -6.6099  -37.5506 C   0  0  0  0  0  0  0  0  0  0  0  0
   24.6050   -7.6583  -34.0504 C   0  0  0  0  0  0  0  0  0  0  0  0
   24.3282   -9.5796  -32.6467 C   0  0  0  0  0  0  0  0  0  0  0  0
   23.3744   -7.4784  -32.0289 C   0  0  0  0  0  0  0  0  0  0  0  0
   23.8600   -6.8984  -33.1968 C   0  0  0  0  0  0  0  0  0  0  0  0
   30.4827   -6.9998  -38.3795 N   0  0  0  0  0  0  0  0  0  0  0  0
   26.6408   -5.8487  -36.7241 N   0  0  0  0  0  0  0  0  0  0  0  0
   25.1101   -7.1540  -35.3138 N   0  0  0  0  0  0  0  0  0  0  0  0
   23.1135   -9.4227  -30.5782 N   0  0  0  0  0  0  0  0  0  0  0  0
   32.8175  -10.7371  -38.2215 O   0  0  0  0  0  0  0  0  0  0  0  0
   30.8182   -9.7240  -39.7747 O   0  0  0  0  0  0  0  0  0  0  0  0
   32.5812   -7.7663  -37.3497 O   0  0  0  0  0  0  0  0  0  0  0  0
   34.9553   -6.4818  -37.8833 O   0  0  0  0  0  0  0  0  0  0  0  0
   36.2168   -5.2748  -39.7810 O   0  0  0  0  0  0  0  0  0  0  0  0
   36.0025   -4.1620  -37.5575 O   0  0  0  0  0  0  0  0  0  0  0  0
   33.9509   -4.4517  -38.9520 O   0  0  0  0  0  0  0  0  0  0  0  0
   26.7605   -5.6914  -34.4332 O   0  0  0  0  0  0  0  0  0  0  0  0
   22.0891   -8.8148  -29.8799 O   0  0  0  0  0  0  0  0  0  0  0  0
   23.5467  -10.4448  -30.2212 O   0  0  0  0  0  0  0  0  0  0  0  0
   35.2936   -5.0316  -38.5787 P   0  0  2  0  0  0  0  0  0  0  0  0
   31.5517   -6.6474  -40.1585 H   0  0  0  0  0  0  0  0  0  0  0  0
   28.5634   -3.7757  -39.1418 H   0  0  0  0  0  0  0  0  0  0  0  0
   28.1554   -4.7516  -35.8777 H   0  0  0  0  0  0  0  0  0  0  0  0
   27.3241   -4.0434  -37.3542 H   0  0  0  0  0  0  0  0  0  0  0  0
   25.3532   -9.6276  -34.5359 H   0  0  0  0  0  0  0  0  0  0  0  0
   33.6554   -9.7643  -39.7558 H   0  0  0  0  0  0  0  0  0  0  0  0
   31.8560   -8.0761  -40.0779 H   0  0  0  0  0  0  0  0  0  0  0  0
   30.6194   -8.9104  -37.5814 H   0  0  0  0  0  0  0  0  0  0  0  0
   34.1995   -8.8598  -37.0940 H   0  0  0  0  0  0  0  0  0  0  0  0
   35.2674   -7.9903  -39.2433 H   0  0  0  0  0  0  0  0  0  0  0  0
   33.8400   -6.9814  -39.5504 H   0  0  0  0  0  0  0  0  0  0  0  0
   30.3271   -4.5855  -40.6708 H   0  0  0  0  0  0  0  0  0  0  0  0
   29.3722   -7.1983  -36.6449 H   0  0  0  0  0  0  0  0  0  0  0  0
   24.5177  -10.6415  -32.4312 H   0  0  0  0  0  0  0  0  0  0  0  0
   22.7990   -6.8730  -31.3130 H   0  0  0  0  0  0  0  0  0  0  0  0
   23.6466   -5.8444  -33.4281 H   0  0  0  0  0  0  0  0  0  0  0  0
   26.1561   -6.2489  -37.5401 H   0  0  0  0  0  0  0  0  0  0  0  0
   24.6791   -7.4739  -36.1929 H   0  0  0  0  0  0  0  0  0  0  0  0
   32.8421  -10.5861  -37.2434 H   0  0  0  0  0  0  0  0  0  0  0  0
   30.3630  -10.1828  -39.0247 H   0  0  0  0  0  0  0  0  0  0  0  0
  1 12  2  0
  1 19  1  0
  2 12  1  0
  2 13  2  0
  3 13  1  0
  3 20  1  0
  4 20  1  0
  4 21  1  0
  4 30  2  0
  5 15  2  0
  5 16  1  0
  6 16  2  0
  6 17  1  0
  6 22  1  0
  7  8  1  0
  7 10  1  0
  7 23  1  0
  8  9  1  0
  8 24  1  0
  9 19  1  0
  9 25  1  0
 10 11  1  0
 10 25  1  0
 11 26  1  0
 13 14  1  0
 14 19  2  0
 15 18  1  0
 15 21  1  0
 17 18  2  0
 22 31  1  0
 22 32  2  0
 26 33  1  0
 33 27  1  6
 28 33  2  0
 29 33  1  0
  1 34  1  0
  2 35  1  0
  3 36  1  0
  3 37  1  0
  5 38  1  0
  7 39  1  6
  8 40  1  6
  9 41  1  1
 10 42  1  1
 11 43  1  0
 11 44  1  0
 12 45  1  0
 14 46  1  0
 16 47  1  0
 17 48  1  0
 18 49  1  0
 20 50  1  0
 21 51  1  0
 23 52  1  0
 24 53  1  0
M  CHG  5  19   1  22   1  27  -1  29  -1  31  -1
M  END
>  <filename_input>  (9) 
7M6K_YRJ_docked.sdf

>  <pdb_id>  (9) 
7M6K_YRJ

>  <pose_rank>  (9) 
8

>  <num_atoms_heavy>  (9) 
33

>  <num_torsions>  (9) 
8

>  <pose>  (9) 
[30.7642340183365, -6.297620567520661, -39.4748043154707, 0.9981579229138842, -2.7255324978837736, 1.0080681198082664, -1.7714467648257073, 0.014382620149054077, 0.09872796733161844, -1.8829120708252336, 4.850894055177354, -1.3023277444548975, -1.2490163136782177, -0.050914987944354256]

>  <energy>  (9) 
-744.9167338094669

>  <inter_energy>  (9) 
-737.0393903992327

>  <intra_energy>  (9) 
2.2712159017718907

>  <rmsd>  (9) 
9.93767

>  <sdf_rank>  (9) 
0

$$$$

     RDKit          3D

 53 55  0  0  0  0  0  0  0  0999 V2000
   25.1570   -5.2248  -34.8400 C   0  0  0  0  0  0  0  0  0  0  0  0
   26.3502   -4.2849  -36.6394 C   0  0  0  0  0  0  0  0  0  0  0  0
   28.2040   -5.5427  -37.7389 C   0  0  0  0  0  0  0  0  0  0  0  0
   30.2536   -6.6771  -38.4619 C   0  0  0  0  0  0  0  0  0  0  0  0
   33.4931   -8.3211  -38.3780 C   0  0  0  0  0  0  0  0  0  0  0  0
   34.6146   -8.5243  -40.4566 C   0  0  0  0  0  0  0  0  0  0  0  0
   23.9111   -8.2778  -32.6014 C   0  0  1  0  0  0  0  0  0  0  0  0
   24.6898   -7.0298  -32.9723 C   0  0  2  0  0  0  0  0  0  0  0  0
   25.5585   -7.4163  -33.9663 C   0  0  2  0  0  0  0  0  0  0  0  0
   23.7628   -8.9248  -34.0412 C   0  0  1  0  0  0  0  0  0  0  0  0
   22.4396   -8.3701  -34.6261 C   0  0  0  0  0  0  0  0  0  0  0  0
   25.3896   -4.1930  -35.7001 C   0  0  0  0  0  0  0  0  0  0  0  0
   27.0647   -5.4689  -36.6752 C   0  0  0  0  0  0  0  0  0  0  0  0
   26.8036   -6.4847  -35.7896 C   0  0  0  0  0  0  0  0  0  0  0  0
   32.2907   -8.1296  -39.0488 C   0  0  0  0  0  0  0  0  0  0  0  0
   34.6502   -8.5409  -39.0914 C   0  0  0  0  0  0  0  0  0  0  0  0
   33.4255   -8.2918  -41.1272 C   0  0  0  0  0  0  0  0  0  0  0  0
   32.2527   -8.0718  -40.4113 C   0  0  0  0  0  0  0  0  0  0  0  0
   25.8808   -6.3400  -34.9065 N   0  0  0  0  0  0  0  0  0  0  0  0
   29.1112   -6.6267  -37.5655 N   0  0  0  0  0  0  0  0  0  0  0  0
   31.1303   -7.8646  -38.2189 N   0  0  0  0  0  0  0  0  0  0  0  0
   35.8231   -8.7410  -41.1802 N   0  0  0  0  0  0  0  0  0  0  0  0
   24.6417   -9.1493  -31.7417 O   0  0  0  0  0  0  0  0  0  0  0  0
   25.3402   -6.5170  -31.8805 O   0  0  0  0  0  0  0  0  0  0  0  0
   24.7861   -8.5394  -34.7829 O   0  0  0  0  0  0  0  0  0  0  0  0
   21.6027   -8.1114  -33.5380 O   0  0  0  0  0  0  0  0  0  0  0  0
   20.0865   -6.8333  -35.1864 O   0  0  0  0  0  0  0  0  0  0  0  0
   21.3703   -5.5569  -33.4688 O   0  0  0  0  0  0  0  0  0  0  0  0
   19.5000   -7.0296  -32.7133 O   0  0  0  0  0  0  0  0  0  0  0  0
   30.4519   -5.8414  -39.2606 O   0  0  0  0  0  0  0  0  0  0  0  0
   36.1502   -7.9072  -42.2310 O   0  0  0  0  0  0  0  0  0  0  0  0
   36.5452   -9.5986  -40.8594 O   0  0  0  0  0  0  0  0  0  0  0  0
   20.5916   -6.8310  -33.7367 P   0  0  2  0  0  0  0  0  0  0  0  0
   24.3634   -5.1349  -34.0837 H   0  0  0  0  0  0  0  0  0  0  0  0
   26.5558   -3.4626  -37.3405 H   0  0  0  0  0  0  0  0  0  0  0  0
   27.7402   -5.6396  -38.7316 H   0  0  0  0  0  0  0  0  0  0  0  0
   28.7951   -4.6219  -37.6253 H   0  0  0  0  0  0  0  0  0  0  0  0
   33.5202   -8.2972  -37.2786 H   0  0  0  0  0  0  0  0  0  0  0  0
   22.9788   -8.0811  -32.0518 H   0  0  0  0  0  0  0  0  0  0  0  0
   24.0328   -6.2213  -33.3255 H   0  0  0  0  0  0  0  0  0  0  0  0
   26.5049   -7.7420  -33.5098 H   0  0  0  0  0  0  0  0  0  0  0  0
   23.7482  -10.0242  -34.0092 H   0  0  0  0  0  0  0  0  0  0  0  0
   22.6311   -7.4434  -35.1870 H   0  0  0  0  0  0  0  0  0  0  0  0
   21.9793   -9.0888  -35.3200 H   0  0  0  0  0  0  0  0  0  0  0  0
   24.7865   -3.2761  -35.6261 H   0  0  0  0  0  0  0  0  0  0  0  0
   27.3820   -7.4192  -35.8355 H   0  0  0  0  0  0  0  0  0  0  0  0
   35.5976   -8.7286  -38.5648 H   0  0  0  0  0  0  0  0  0  0  0  0
   33.4080   -8.2810  -42.2270 H   0  0  0  0  0  0  0  0  0  0  0  0
   31.3102   -7.8549  -40.9355 H   0  0  0  0  0  0  0  0  0  0  0  0
   28.9643   -7.3416  -36.8387 H   0  0  0  0  0  0  0  0  0  0  0  0
   30.9056   -8.5076  -37.4462 H   0  0  0  0  0  0  0  0  0  0  0  0
   24.4492   -8.9196  -30.7982 H   0  0  0  0  0  0  0  0  0  0  0  0
   24.9128   -6.8540  -31.0535 H   0  0  0  0  0  0  0  0  0  0  0  0
  1 12  2  0
  1 19  1  0
  2 12  1  0
  2 13  2  0
  3 13  1  0
  3 20  1  0
  4 20  1  0
  4 21  1  0
  4 30  2  0
  5 15  2  0
  5 16  1  0
  6 16  2  0
  6 17  1  0
  6 22  1  0
  7  8  1  0
  7 10  1  0
  7 23  1  0
  8  9  1  0
  8 24  1  0
  9 19  1  0
  9 25  1  0
 10 11  1  0
 10 25  1  0
 11 26  1  0
 13 14  1  0
 14 19  2  0
 15 18  1  0
 15 21  1  0
 17 18  2  0
 22 31  1  0
 22 32  2  0
 26 33  1  0
 33 27  1  6
 28 33  2  0
 29 33  1  0
  1 34  1  0
  2 35  1  0
  3 36  1  0
  3 37  1  0
  5 38  1  0
  7 39  1  1
  8 40  1  6
  9 41  1  1
 10 42  1  1
 11 43  1  0
 11 44  1  0
 12 45  1  0
 14 46  1  0
 16 47  1  0
 17 48  1  0
 18 49  1  0
 20 50  1  0
 21 51  1  0
 23 52  1  0
 24 53  1  0
M  CHG  5  19   1  22   1  27  -1  29  -1  31  -1
M  END
>  <filename_input>  (10) 
7M6K_YRJ_docked.sdf

>  <pdb_id>  (10) 
7M6K_YRJ

>  <pose_rank>  (10) 
9

>  <num_atoms_heavy>  (10) 
33

>  <num_torsions>  (10) 
8

>  <pose>  (10) 
[25.15697894321799, -5.224776651694191, -34.84002900892526, 3.762882180247144, 2.8080534354053452, 3.5494208938837937, 11.120135416162176, 2.650758050906711, -0.9349034409695989, -0.2690027424028974, 11.97626701201308, -0.297059216090228, 2.9469004902753166, 0.4342885329170799]

>  <energy>  (10) 
-642.3512647623496

>  <inter_energy>  (10) 
-660.0489164828023

>  <intra_energy>  (10) 
15.459376015910813

>  <rmsd>  (10) 
4.62463

>  <sdf_rank>  (10) 
0

$$$$

     RDKit          3D

 53 55  0  0  0  0  0  0  0  0999 V2000
   24.3361   -4.6491  -34.9675 C   0  0  0  0  0  0  0  0  0  0  0  0
   25.8688   -4.9389  -36.7316 C   0  0  0  0  0  0  0  0  0  0  0  0
   27.7434   -6.5749  -36.5395 C   0  0  0  0  0  0  0  0  0  0  0  0
   29.8244   -6.2572  -37.7959 C   0  0  0  0  0  0  0  0  0  0  0  0
   32.0961   -6.8969  -39.5477 C   0  0  0  0  0  0  0  0  0  0  0  0
   34.3779   -6.4677  -40.0254 C   0  0  0  0  0  0  0  0  0  0  0  0
   22.9390   -7.2735  -31.7908 C   0  0  1  0  0  0  0  0  0  0  0  0
   23.0976   -6.3381  -32.9746 C   0  0  2  0  0  0  0  0  0  0  0  0
   24.3975   -5.8914  -32.9228 C   0  0  2  0  0  0  0  0  0  0  0  0
   24.3690   -7.9576  -31.8113 C   0  0  1  0  0  0  0  0  0  0  0  0
   24.2329   -9.2084  -32.7155 C   0  0  0  0  0  0  0  0  0  0  0  0
   24.7900   -4.3235  -36.2111 C   0  0  0  0  0  0  0  0  0  0  0  0
   26.4682   -5.9032  -35.9413 C   0  0  0  0  0  0  0  0  0  0  0  0
   25.9840   -6.2012  -34.6919 C   0  0  0  0  0  0  0  0  0  0  0  0
   31.9538   -5.5975  -39.0743 C   0  0  0  0  0  0  0  0  0  0  0  0
   33.3095   -7.3182  -40.0437 C   0  0  0  0  0  0  0  0  0  0  0  0
   34.2495   -5.1865  -39.5156 C   0  0  0  0  0  0  0  0  0  0  0  0
   33.0249   -4.7546  -39.0154 C   0  0  0  0  0  0  0  0  0  0  0  0
   24.9559   -5.5759  -34.2401 N   0  0  0  0  0  0  0  0  0  0  0  0
   28.5870   -5.6978  -37.2792 N   0  0  0  0  0  0  0  0  0  0  0  0
   30.6524   -5.2527  -38.5331 N   0  0  0  0  0  0  0  0  0  0  0  0
   35.6302   -6.9232  -40.5309 N   0  0  0  0  0  0  0  0  0  0  0  0
   22.7415   -6.5794  -30.5614 O   0  0  0  0  0  0  0  0  0  0  0  0
   22.1902   -5.3130  -32.9126 O   0  0  0  0  0  0  0  0  0  0  0  0
   25.2343   -7.1079  -32.3357 O   0  0  0  0  0  0  0  0  0  0  0  0
   24.4503   -8.7760  -34.0258 O   0  0  0  0  0  0  0  0  0  0  0  0
   24.8348  -11.2012  -34.8133 O   0  0  0  0  0  0  0  0  0  0  0  0
   26.8048   -9.7287  -34.3904 O   0  0  0  0  0  0  0  0  0  0  0  0
   25.3218   -9.2129  -36.3327 O   0  0  0  0  0  0  0  0  0  0  0  0
   30.0989   -7.3889  -37.6561 O   0  0  0  0  0  0  0  0  0  0  0  0
   35.7358   -8.1987  -41.0489 O   0  0  0  0  0  0  0  0  0  0  0  0
   36.5490   -6.2053  -40.5363 O   0  0  0  0  0  0  0  0  0  0  0  0
   25.3889   -9.7745  -34.9332 P   0  0  2  0  0  0  0  0  0  0  0  0
   23.4491   -4.1411  -34.5612 H   0  0  0  0  0  0  0  0  0  0  0  0
   26.2527   -4.6883  -37.7315 H   0  0  0  0  0  0  0  0  0  0  0  0
   28.3302   -6.9957  -35.7097 H   0  0  0  0  0  0  0  0  0  0  0  0
   27.3891   -7.3369  -37.2492 H   0  0  0  0  0  0  0  0  0  0  0  0
   31.2403   -7.5876  -39.5259 H   0  0  0  0  0  0  0  0  0  0  0  0
   22.0709   -7.9454  -31.8600 H   0  0  0  0  0  0  0  0  0  0  0  0
   22.9000   -6.8436  -33.9313 H   0  0  0  0  0  0  0  0  0  0  0  0
   24.4369   -4.9689  -32.3249 H   0  0  0  0  0  0  0  0  0  0  0  0
   24.7172   -8.2354  -30.8055 H   0  0  0  0  0  0  0  0  0  0  0  0
   24.9823   -9.9633  -32.4352 H   0  0  0  0  0  0  0  0  0  0  0  0
   23.2405   -9.6705  -32.6085 H   0  0  0  0  0  0  0  0  0  0  0  0
   24.2697   -3.5502  -36.7952 H   0  0  0  0  0  0  0  0  0  0  0  0
   26.4742   -6.9724  -34.0795 H   0  0  0  0  0  0  0  0  0  0  0  0
   33.4176   -8.3337  -40.4524 H   0  0  0  0  0  0  0  0  0  0  0  0
   35.1164   -4.5096  -39.5060 H   0  0  0  0  0  0  0  0  0  0  0  0
   32.9222   -3.7498  -38.5797 H   0  0  0  0  0  0  0  0  0  0  0  0
   28.3319   -4.7130  -37.4403 H   0  0  0  0  0  0  0  0  0  0  0  0
   30.2912   -4.2964  -38.6591 H   0  0  0  0  0  0  0  0  0  0  0  0
   22.9161   -7.1930  -29.8043 H   0  0  0  0  0  0  0  0  0  0  0  0
   21.9997   -5.0978  -31.9652 H   0  0  0  0  0  0  0  0  0  0  0  0
  1 12  2  0
  1 19  1  0
  2 12  1  0
  2 13  2  0
  3 13  1  0
  3 20  1  0
  4 20  1  0
  4 21  1  0
  4 30  2  0
  5 15  2  0
  5 16  1  0
  6 16  2  0
  6 17  1  0
  6 22  1  0
  7  8  1  0
  7 10  1  0
  7 23  1  0
  8  9  1  0
  8 24  1  0
  9 19  1  0
  9 25  1  0
 10 11  1  0
 10 25  1  0
 11 26  1  0
 13 14  1  0
 14 19  2  0
 15 18  1  0
 15 21  1  0
 17 18  2  0
 22 31  1  0
 22 32  2  0
 26 33  1  0
 33 27  1  6
 28 33  2  0
 29 33  1  0
  1 34  1  0
  2 35  1  0
  3 36  1  0
  3 37  1  0
  5 38  1  0
  7 39  1  6
  8 40  1  6
  9 41  1  1
 10 42  1  1
 11 43  1  0
 11 44  1  0
 12 45  1  0
 14 46  1  0
 16 47  1  0
 17 48  1  0
 18 49  1  0
 20 50  1  0
 21 51  1  0
 23 52  1  0
 24 53  1  0
M  CHG  5  19   1  22   1  27  -1  29  -1  31  -1
M  END
>  <filename_input>  (11) 
7M6K_YRJ_docked.sdf

>  <pdb_id>  (11) 
7M6K_YRJ

>  <pose_rank>  (11) 
10

>  <num_atoms_heavy>  (11) 
33

>  <num_torsions>  (11) 
8

>  <pose>  (11) 
[24.33611873844599, -4.649131844854727, -34.967510526571004, -0.8674851232211879, -0.43441876953032793, -0.2380327226103378, -0.2248255347024495, -1.6192133699281481, -1.0995639809890296, -0.06786316780355556, 3.4362000680192337, -0.44018190905152677, 1.323225069533189, 2.7823573903596315]

>  <energy>  (11) 
-654.6631802899498

>  <inter_energy>  (11) 
-720.3384136590755

>  <intra_energy>  (11) 
63.34095085644112

>  <rmsd>  (11) 
3.40736

>  <sdf_rank>  (11) 
0

$$$$

     RDKit          3D

 53 55  0  0  0  0  0  0  0  0999 V2000
   25.1359   -7.8236  -32.8080 C   0  0  0  0  0  0  0  0  0  0  0  0
   23.6758   -8.4103  -31.0562 C   0  0  0  0  0  0  0  0  0  0  0  0
   21.6506   -7.0368  -30.5668 C   0  0  0  0  0  0  0  0  0  0  0  0
   20.5464   -4.8513  -30.4458 C   0  0  0  0  0  0  0  0  0  0  0  0
   20.2156   -1.8085  -30.2659 C   0  0  0  0  0  0  0  0  0  0  0  0
   18.6743   -0.2597  -29.3468 C   0  0  0  0  0  0  0  0  0  0  0  0
   25.8957   -5.9904  -36.2923 C   0  0  1  0  0  0  0  0  0  0  0  0
   25.9841   -6.3652  -34.8250 C   0  0  2  0  0  0  0  0  0  0  0  0
   24.7962   -5.9558  -34.2653 C   0  0  2  0  0  0  0  0  0  0  0  0
   24.3622   -6.3033  -36.5449 C   0  0  1  0  0  0  0  0  0  0  0  0
   24.2960   -7.7825  -37.0013 C   0  0  0  0  0  0  0  0  0  0  0  0
   24.7925   -8.6412  -31.7726 C   0  0  0  0  0  0  0  0  0  0  0  0
   22.9167   -7.3175  -31.4346 C   0  0  0  0  0  0  0  0  0  0  0  0
   23.2972   -6.5149  -32.4812 C   0  0  0  0  0  0  0  0  0  0  0  0
   19.1699   -2.6832  -30.5379 C   0  0  0  0  0  0  0  0  0  0  0  0
   19.9557   -0.5856  -29.6888 C   0  0  0  0  0  0  0  0  0  0  0  0
   17.6363   -1.1467  -29.5783 C   0  0  0  0  0  0  0  0  0  0  0  0
   17.8929   -2.3828  -30.1636 C   0  0  0  0  0  0  0  0  0  0  0  0
   24.3784   -6.7760  -33.1255 N   0  0  0  0  0  0  0  0  0  0  0  0
   20.7286   -6.1149  -31.1396 N   0  0  0  0  0  0  0  0  0  0  0  0
   19.5401   -3.9648  -31.1088 N   0  0  0  0  0  0  0  0  0  0  0  0
   18.4236    1.0047  -28.7388 N   0  0  0  0  0  0  0  0  0  0  0  0
   26.1627   -4.6098  -36.5265 O   0  0  0  0  0  0  0  0  0  0  0  0
   27.0707   -5.7749  -34.2343 O   0  0  0  0  0  0  0  0  0  0  0  0
   23.7082   -6.1475  -35.4074 O   0  0  0  0  0  0  0  0  0  0  0  0
   25.5628   -8.1019  -37.4958 O   0  0  0  0  0  0  0  0  0  0  0  0
   25.4658  -10.5875  -38.1756 O   0  0  0  0  0  0  0  0  0  0  0  0
   25.5878   -9.9880  -35.7562 O   0  0  0  0  0  0  0  0  0  0  0  0
   27.5811   -9.5543  -37.1972 O   0  0  0  0  0  0  0  0  0  0  0  0
   21.1622   -4.5769  -29.4861 O   0  0  0  0  0  0  0  0  0  0  0  0
   18.5812    2.1616  -29.4760 O   0  0  0  0  0  0  0  0  0  0  0  0
   18.0538    1.0538  -27.6340 O   0  0  0  0  0  0  0  0  0  0  0  0
   26.0741   -9.6243  -37.1465 P   0  0  2  0  0  0  0  0  0  0  0  0
   26.0479   -8.0316  -33.3868 H   0  0  0  0  0  0  0  0  0  0  0  0
   23.3830   -9.0561  -30.2152 H   0  0  0  0  0  0  0  0  0  0  0  0
   21.1266   -7.9906  -30.4067 H   0  0  0  0  0  0  0  0  0  0  0  0
   22.0093   -6.5779  -29.6336 H   0  0  0  0  0  0  0  0  0  0  0  0
   21.2495   -2.0930  -30.5113 H   0  0  0  0  0  0  0  0  0  0  0  0
   26.6175   -6.5145  -36.9360 H   0  0  0  0  0  0  0  0  0  0  0  0
   26.1271   -7.4464  -34.6816 H   0  0  0  0  0  0  0  0  0  0  0  0
   24.9082   -4.9247  -33.8988 H   0  0  0  0  0  0  0  0  0  0  0  0
   23.9156   -5.6387  -37.2991 H   0  0  0  0  0  0  0  0  0  0  0  0
   24.0456   -8.4321  -36.1497 H   0  0  0  0  0  0  0  0  0  0  0  0
   23.5212   -7.9278  -37.7685 H   0  0  0  0  0  0  0  0  0  0  0  0
   25.4340   -9.4982  -31.5198 H   0  0  0  0  0  0  0  0  0  0  0  0
   22.6789   -5.6513  -32.7675 H   0  0  0  0  0  0  0  0  0  0  0  0
   20.7753    0.1246  -29.5045 H   0  0  0  0  0  0  0  0  0  0  0  0
   16.6079   -0.8738  -29.2992 H   0  0  0  0  0  0  0  0  0  0  0  0
   17.0792   -3.1059  -30.3219 H   0  0  0  0  0  0  0  0  0  0  0  0
   20.2150   -6.3336  -32.0052 H   0  0  0  0  0  0  0  0  0  0  0  0
   19.1008   -4.2707  -31.9888 H   0  0  0  0  0  0  0  0  0  0  0  0
   26.2536   -4.1397  -35.6600 H   0  0  0  0  0  0  0  0  0  0  0  0
   26.9789   -5.8247  -33.2499 H   0  0  0  0  0  0  0  0  0  0  0  0
  1 12  2  0
  1 19  1  0
  2 12  1  0
  2 13  2  0
  3 13  1  0
  3 20  1  0
  4 20  1  0
  4 21  1  0
  4 30  2  0
  5 15  2  0
  5 16  1  0
  6 16  2  0
  6 17  1  0
  6 22  1  0
  7  8  1  0
  7 10  1  0
  7 23  1  0
  8  9  1  0
  8 24  1  0
  9 19  1  0
  9 25  1  0
 10 11  1  0
 10 25  1  0
 11 26  1  0
 13 14  1  0
 14 19  2  0
 15 18  1  0
 15 21  1  0
 17 18  2  0
 22 31  1  0
 22 32  2  0
 26 33  1  0
 33 27  1  6
 28 33  2  0
 29 33  1  0
  1 34  1  0
  2 35  1  0
  3 36  1  0
  3 37  1  0
  5 38  1  0
  7 39  1  6
  8 40  1  6
  9 41  1  1
 10 42  1  6
 11 43  1  0
 11 44  1  0
 12 45  1  0
 14 46  1  0
 16 47  1  0
 17 48  1  0
 18 49  1  0
 20 50  1  0
 21 51  1  0
 23 52  1  0
 24 53  1  0
M  CHG  5  19   1  22   1  27  -1  29  -1  31  -1
M  END
>  <filename_input>  (12) 
7M6K_YRJ_docked.sdf

>  <pdb_id>  (12) 
7M6K_YRJ

>  <pose_rank>  (12) 
11

>  <num_atoms_heavy>  (12) 
33

>  <num_torsions>  (12) 
8

>  <pose>  (12) 
[25.135881613317352, -7.823592631011951, -32.80800804151791, -2.2146600905174036, -1.7451987040664276, -2.4375712897043975, -1.3054719449223797, -3.509612949812978, -1.0174521659691107, 0.49436407989323705, -6.399886298892116, 0.761227028307476, 1.6679661992197345, -2.3278924205727214]

>  <energy>  (12) 
-681.3346624548739

>  <inter_energy>  (12) 
-702.3758178068583

>  <intra_energy>  (12) 
22.220080796938284

>  <rmsd>  (12) 
9.77596

>  <sdf_rank>  (12) 
0

$$$$

     RDKit          3D

 53 55  0  0  0  0  0  0  0  0999 V2000
   22.2075   -7.2086  -34.7768 C   0  0  0  0  0  0  0  0  0  0  0  0
   23.7446   -7.4510  -36.5441 C   0  0  0  0  0  0  0  0  0  0  0  0
   26.0891   -8.1855  -36.1064 C   0  0  0  0  0  0  0  0  0  0  0  0
   27.9201   -7.3261  -37.4917 C   0  0  0  0  0  0  0  0  0  0  0  0
   30.7536   -7.1116  -38.4562 C   0  0  0  0  0  0  0  0  0  0  0  0
   32.1383   -6.3245  -40.2119 C   0  0  0  0  0  0  0  0  0  0  0  0
   22.4614   -6.4768  -30.5358 C   0  0  1  0  0  0  0  0  0  0  0  0
   23.4130   -6.8269  -31.6642 C   0  0  2  0  0  0  0  0  0  0  0  0
   22.7154   -7.6811  -32.4862 C   0  0  2  0  0  0  0  0  0  0  0  0
   21.1077   -6.3980  -31.3572 C   0  0  1  0  0  0  0  0  0  0  0  0
   20.9725   -4.9257  -31.8206 C   0  0  0  0  0  0  0  0  0  0  0  0
   22.5135   -7.1299  -36.1029 C   0  0  0  0  0  0  0  0  0  0  0  0
   24.6544   -7.8605  -35.5858 C   0  0  0  0  0  0  0  0  0  0  0  0
   24.3100   -7.9237  -34.2586 C   0  0  0  0  0  0  0  0  0  0  0  0
   29.8083   -6.1421  -38.7711 C   0  0  0  0  0  0  0  0  0  0  0  0
   31.9093   -7.2106  -39.1981 C   0  0  0  0  0  0  0  0  0  0  0  0
   31.2174   -5.3313  -40.5004 C   0  0  0  0  0  0  0  0  0  0  0  0
   30.0466   -5.2282  -39.7556 C   0  0  0  0  0  0  0  0  0  0  0  0
   23.1225   -7.5965  -33.8911 N   0  0  0  0  0  0  0  0  0  0  0  0
   26.8195   -7.0591  -36.5815 N   0  0  0  0  0  0  0  0  0  0  0  0
   28.6407   -6.0841  -37.9115 N   0  0  0  0  0  0  0  0  0  0  0  0
   33.3451   -6.4326  -40.9623 N   0  0  0  0  0  0  0  0  0  0  0  0
   22.3791   -7.4992  -29.5458 O   0  0  0  0  0  0  0  0  0  0  0  0
   24.5619   -7.3930  -31.1768 O   0  0  0  0  0  0  0  0  0  0  0  0
   21.2037   -7.1984  -32.4040 O   0  0  0  0  0  0  0  0  0  0  0  0
   21.6299   -4.1473  -30.8650 O   0  0  0  0  0  0  0  0  0  0  0  0
   22.1320   -1.7508  -31.6739 O   0  0  0  0  0  0  0  0  0  0  0  0
   21.2169   -2.0972  -29.3781 O   0  0  0  0  0  0  0  0  0  0  0  0
   19.7418   -2.5711  -31.3371 O   0  0  0  0  0  0  0  0  0  0  0  0
   28.1701   -8.4111  -37.8603 O   0  0  0  0  0  0  0  0  0  0  0  0
   34.4230   -7.1120  -40.4303 O   0  0  0  0  0  0  0  0  0  0  0  0
   33.4041   -5.9772  -42.0342 O   0  0  0  0  0  0  0  0  0  0  0  0
   21.1591   -2.5734  -30.8174 P   0  0  2  0  0  0  0  0  0  0  0  0
   21.1946   -6.9492  -34.4352 H   0  0  0  0  0  0  0  0  0  0  0  0
   24.0125   -7.3909  -37.6093 H   0  0  0  0  0  0  0  0  0  0  0  0
   26.6581   -8.6398  -35.2818 H   0  0  0  0  0  0  0  0  0  0  0  0
   25.9620   -8.8587  -36.9671 H   0  0  0  0  0  0  0  0  0  0  0  0
   30.5785   -7.7987  -37.6152 H   0  0  0  0  0  0  0  0  0  0  0  0
   22.7457   -5.5784  -29.9683 H   0  0  0  0  0  0  0  0  0  0  0  0
   23.7412   -5.9364  -32.2205 H   0  0  0  0  0  0  0  0  0  0  0  0
   22.8907   -8.7168  -32.1599 H   0  0  0  0  0  0  0  0  0  0  0  0
   20.2353   -6.7044  -30.7614 H   0  0  0  0  0  0  0  0  0  0  0  0
   21.4415   -4.7931  -32.8068 H   0  0  0  0  0  0  0  0  0  0  0  0
   19.9162   -4.6333  -31.9136 H   0  0  0  0  0  0  0  0  0  0  0  0
   21.7470   -6.8006  -36.8198 H   0  0  0  0  0  0  0  0  0  0  0  0
   25.0476   -8.2533  -33.5120 H   0  0  0  0  0  0  0  0  0  0  0  0
   32.6437   -7.9988  -38.9757 H   0  0  0  0  0  0  0  0  0  0  0  0
   31.4117   -4.6231  -41.3194 H   0  0  0  0  0  0  0  0  0  0  0  0
   29.3248   -4.4230  -39.9573 H   0  0  0  0  0  0  0  0  0  0  0  0
   26.5788   -6.0999  -36.2934 H   0  0  0  0  0  0  0  0  0  0  0  0
   28.3009   -5.1687  -37.5837 H   0  0  0  0  0  0  0  0  0  0  0  0
   22.4120   -7.0898  -28.6451 H   0  0  0  0  0  0  0  0  0  0  0  0
   24.5407   -7.3826  -30.1871 H   0  0  0  0  0  0  0  0  0  0  0  0
  1 12  2  0
  1 19  1  0
  2 12  1  0
  2 13  2  0
  3 13  1  0
  3 20  1  0
  4 20  1  0
  4 21  1  0
  4 30  2  0
  5 15  2  0
  5 16  1  0
  6 16  2  0
  6 17  1  0
  6 22  1  0
  7  8  1  0
  7 10  1  0
  7 23  1  0
  8  9  1  0
  8 24  1  0
  9 19  1  0
  9 25  1  0
 10 11  1  0
 10 25  1  0
 11 26  1  0
 13 14  1  0
 14 19  2  0
 15 18  1  0
 15 21  1  0
 17 18  2  0
 22 31  1  0
 22 32  2  0
 26 33  1  0
 33 27  1  6
 28 33  2  0
 29 33  1  0
  1 34  1  0
  2 35  1  0
  3 36  1  0
  3 37  1  0
  5 38  1  0
  7 39  1  1
  8 40  1  6
  9 41  1  1
 10 42  1  1
 11 43  1  0
 11 44  1  0
 12 45  1  0
 14 46  1  0
 16 47  1  0
 17 48  1  0
 18 49  1  0
 20 50  1  0
 21 51  1  0
 23 52  1  0
 24 53  1  0
M  CHG  5  19   1  22   1  27  -1  29  -1  31  -1
M  END
>  <filename_input>  (13) 
7M6K_YRJ_docked.sdf

>  <pdb_id>  (13) 
7M6K_YRJ

>  <pose_rank>  (13) 
12

>  <num_atoms_heavy>  (13) 
33

>  <num_torsions>  (13) 
8

>  <pose>  (13) 
[22.207507595458686, -7.208642658867353, -34.77675408975083, 4.375513823591387, 2.39553252491289, -0.8239281842955184, -3.314603648138205, -3.628624651093478, 0.023114011102475046, -2.6151892891018402, -2.3144896706480083, 6.272005550888389, -0.05662168886610404, 2.411449833055609]

>  <energy>  (13) 
-702.68337220526

>  <inter_energy>  (13) 
-711.3783202644736

>  <intra_energy>  (13) 
21.8231170374565

>  <rmsd>  (13) 
4.78764

>  <sdf_rank>  (13) 
0

$$$$

     RDKit          3D

 53 55  0  0  0  0  0  0  0  0999 V2000
   23.7998   -7.4601  -35.7569 C   0  0  0  0  0  0  0  0  0  0  0  0
   24.9275   -6.3972  -37.5299 C   0  0  0  0  0  0  0  0  0  0  0  0
   27.3473   -5.8177  -37.3402 C   0  0  0  0  0  0  0  0  0  0  0  0
   29.6100   -6.2890  -38.1577 C   0  0  0  0  0  0  0  0  0  0  0  0
   33.1709   -7.2992  -38.2552 C   0  0  0  0  0  0  0  0  0  0  0  0
   34.2852   -6.7436  -40.2724 C   0  0  0  0  0  0  0  0  0  0  0  0
   25.0218   -7.7190  -31.4385 C   0  0  1  0  0  0  0  0  0  0  0  0
   25.6940   -7.5383  -32.7865 C   0  0  2  0  0  0  0  0  0  0  0  0
   24.8444   -8.1108  -33.7043 C   0  0  2  0  0  0  0  0  0  0  0  0
   23.5133   -7.4963  -31.8723 C   0  0  1  0  0  0  0  0  0  0  0  0
   23.2415   -5.9790  -31.7145 C   0  0  0  0  0  0  0  0  0  0  0  0
   23.7996   -6.9137  -37.0058 C   0  0  0  0  0  0  0  0  0  0  0  0
   26.0595   -6.4607  -36.7374 C   0  0  0  0  0  0  0  0  0  0  0  0
   26.0196   -7.0157  -35.4826 C   0  0  0  0  0  0  0  0  0  0  0  0
   31.9458   -7.0838  -38.8761 C   0  0  0  0  0  0  0  0  0  0  0  0
   34.3386   -7.1482  -38.9690 C   0  0  0  0  0  0  0  0  0  0  0  0
   33.0679   -6.4877  -40.8809 C   0  0  0  0  0  0  0  0  0  0  0  0
   31.8845   -6.6412  -40.1651 C   0  0  0  0  0  0  0  0  0  0  0  0
   24.9132   -7.4859  -35.0277 N   0  0  0  0  0  0  0  0  0  0  0  0
   28.5086   -6.6396  -37.2773 N   0  0  0  0  0  0  0  0  0  0  0  0
   30.7700   -7.2259  -38.0378 N   0  0  0  0  0  0  0  0  0  0  0  0
   35.5034   -6.5799  -40.9937 N   0  0  0  0  0  0  0  0  0  0  0  0
   25.1940   -9.0306  -30.9072 O   0  0  0  0  0  0  0  0  0  0  0  0
   26.9369   -8.1154  -32.7941 O   0  0  0  0  0  0  0  0  0  0  0  0
   23.3824   -7.8537  -33.1375 O   0  0  0  0  0  0  0  0  0  0  0  0
   22.3799   -5.8419  -30.6237 O   0  0  0  0  0  0  0  0  0  0  0  0
   21.2169   -3.8032  -31.6918 O   0  0  0  0  0  0  0  0  0  0  0  0
   20.2114   -4.8591  -29.6665 O   0  0  0  0  0  0  0  0  0  0  0  0
   20.1956   -6.1358  -31.8130 O   0  0  0  0  0  0  0  0  0  0  0  0
   29.5705   -5.3463  -38.8544 O   0  0  0  0  0  0  0  0  0  0  0  0
   35.4670   -6.3477  -42.3542 O   0  0  0  0  0  0  0  0  0  0  0  0
   36.5217   -6.6084  -40.4261 O   0  0  0  0  0  0  0  0  0  0  0  0
   20.9398   -5.1292  -30.9696 P   0  0  2  0  0  0  0  0  0  0  0  0
   22.8708   -7.8838  -35.3477 H   0  0  0  0  0  0  0  0  0  0  0  0
   24.9475   -5.9490  -38.5342 H   0  0  0  0  0  0  0  0  0  0  0  0
   27.1507   -5.5827  -38.3966 H   0  0  0  0  0  0  0  0  0  0  0  0
   27.5638   -4.9272  -36.7316 H   0  0  0  0  0  0  0  0  0  0  0  0
   33.2073   -7.5899  -37.1950 H   0  0  0  0  0  0  0  0  0  0  0  0
   25.4096   -7.0585  -30.6489 H   0  0  0  0  0  0  0  0  0  0  0  0
   25.8644   -6.4781  -33.0255 H   0  0  0  0  0  0  0  0  0  0  0  0
   25.1137   -9.1697  -33.8316 H   0  0  0  0  0  0  0  0  0  0  0  0
   22.8097   -8.0868  -31.2672 H   0  0  0  0  0  0  0  0  0  0  0  0
   24.1827   -5.4420  -31.5253 H   0  0  0  0  0  0  0  0  0  0  0  0
   22.7969   -5.5574  -32.6281 H   0  0  0  0  0  0  0  0  0  0  0  0
   22.8687   -6.8946  -37.5915 H   0  0  0  0  0  0  0  0  0  0  0  0
   26.9313   -7.0579  -34.8686 H   0  0  0  0  0  0  0  0  0  0  0  0
   35.3088   -7.3523  -38.4923 H   0  0  0  0  0  0  0  0  0  0  0  0
   33.0363   -6.1627  -41.9313 H   0  0  0  0  0  0  0  0  0  0  0  0
   30.9154   -6.4095  -40.6310 H   0  0  0  0  0  0  0  0  0  0  0  0
   28.5650   -7.4450  -36.6377 H   0  0  0  0  0  0  0  0  0  0  0  0
   30.7333   -7.9879  -37.3457 H   0  0  0  0  0  0  0  0  0  0  0  0
   25.1885   -8.9893  -29.9181 H   0  0  0  0  0  0  0  0  0  0  0  0
   27.2409   -8.2566  -31.8626 H   0  0  0  0  0  0  0  0  0  0  0  0
  1 12  2  0
  1 19  1  0
  2 12  1  0
  2 13  2  0
  3 13  1  0
  3 20  1  0
  4 20  1  0
  4 21  1  0
  4 30  2  0
  5 15  2  0
  5 16  1  0
  6 16  2  0
  6 17  1  0
  6 22  1  0
  7  8  1  0
  7 10  1  0
  7 23  1  0
  8  9  1  0
  8 24  1  0
  9 19  1  0
  9 25  1  0
 10 11  1  0
 10 25  1  0
 11 26  1  0
 13 14  1  0
 14 19  2  0
 15 18  1  0
 15 21  1  0
 17 18  2  0
 22 31  1  0
 22 32  2  0
 26 33  1  0
 33 27  1  6
 28 33  2  0
 29 33  1  0
  1 34  1  0
  2 35  1  0
  3 36  1  0
  3 37  1  0
  5 38  1  0
  7 39  1  1
  8 40  1  6
  9 41  1  6
 10 42  1  1
 11 43  1  0
 11 44  1  0
 12 45  1  0
 14 46  1  0
 16 47  1  0
 17 48  1  0
 18 49  1  0
 20 50  1  0
 21 51  1  0
 23 52  1  0
 24 53  1  0
M  CHG  5  19   1  22   1  27  -1  29  -1  31  -1
M  END
>  <filename_input>  (14) 
7M6K_YRJ_docked.sdf

>  <pdb_id>  (14) 
7M6K_YRJ

>  <pose_rank>  (14) 
13

>  <num_atoms_heavy>  (14) 
33

>  <num_torsions>  (14) 
8

>  <pose>  (14) 
[23.799780023317076, -7.46011178881655, -35.756898624595856, 2.55522094184077, 3.4380594834207545, -2.7737897596898304, 2.4433909606621893, -5.0374150155881345, 0.6831446947369116, -1.8621310236945805, -5.783974915614552, -0.7001302881594422, 3.1664878293236765, -0.530391124789792]

>  <energy>  (14) 
-626.7738865335684

>  <inter_energy>  (14) 
-642.1794152539579

>  <intra_energy>  (14) 
21.574490421170612

>  <rmsd>  (14) 
4.78508

>  <sdf_rank>  (14) 
0

$$$$

     RDKit          3D

 53 55  0  0  0  0  0  0  0  0999 V2000
   23.4507   -5.5976  -34.0704 C   0  0  0  0  0  0  0  0  0  0  0  0
   24.7435   -4.3221  -35.5693 C   0  0  0  0  0  0  0  0  0  0  0  0
   26.8727   -5.2242  -36.5076 C   0  0  0  0  0  0  0  0  0  0  0  0
   28.9934   -6.2050  -37.2498 C   0  0  0  0  0  0  0  0  0  0  0  0
   31.9955   -6.4149  -37.9657 C   0  0  0  0  0  0  0  0  0  0  0  0
   33.3108   -7.6412  -39.5102 C   0  0  0  0  0  0  0  0  0  0  0  0
   23.9349   -8.7201  -31.2544 C   0  0  1  0  0  0  0  0  0  0  0  0
   24.7899   -7.9634  -32.2532 C   0  0  2  0  0  0  0  0  0  0  0  0
   24.0086   -7.8190  -33.3760 C   0  0  2  0  0  0  0  0  0  0  0  0
   22.5272   -8.0640  -31.5730 C   0  0  1  0  0  0  0  0  0  0  0  0
   22.4020   -6.8398  -30.6315 C   0  0  0  0  0  0  0  0  0  0  0  0
   23.6624   -4.4511  -34.7768 C   0  0  0  0  0  0  0  0  0  0  0  0
   25.6016   -5.4060  -35.6208 C   0  0  0  0  0  0  0  0  0  0  0  0
   25.3566   -6.5429  -34.8917 C   0  0  0  0  0  0  0  0  0  0  0  0
   31.1329   -7.4984  -37.8446 C   0  0  0  0  0  0  0  0  0  0  0  0
   33.0979   -6.5030  -38.7860 C   0  0  0  0  0  0  0  0  0  0  0  0
   32.4299   -8.7062  -39.4233 C   0  0  0  0  0  0  0  0  0  0  0  0
   31.3157   -8.6237  -38.5939 C   0  0  0  0  0  0  0  0  0  0  0  0
   24.3134   -6.6089  -34.1436 N   0  0  0  0  0  0  0  0  0  0  0  0
   27.8749   -6.2189  -36.3225 N   0  0  0  0  0  0  0  0  0  0  0  0
   29.9762   -7.3028  -36.9907 N   0  0  0  0  0  0  0  0  0  0  0  0
   34.4496   -7.7118  -40.3642 N   0  0  0  0  0  0  0  0  0  0  0  0
   23.8955  -10.1217  -31.5114 O   0  0  0  0  0  0  0  0  0  0  0  0
   25.9543   -8.6388  -32.5104 O   0  0  0  0  0  0  0  0  0  0  0  0
   22.5221   -7.6713  -32.8345 O   0  0  0  0  0  0  0  0  0  0  0  0
   21.0349   -6.6113  -30.4578 O   0  0  0  0  0  0  0  0  0  0  0  0
   19.1976   -4.8280  -30.7636 O   0  0  0  0  0  0  0  0  0  0  0  0
   19.9176   -6.1876  -32.7285 O   0  0  0  0  0  0  0  0  0  0  0  0
   21.5224   -4.5329  -31.7672 O   0  0  0  0  0  0  0  0  0  0  0  0
   29.0972   -5.3864  -38.0833 O   0  0  0  0  0  0  0  0  0  0  0  0
   35.2771   -6.6141  -40.4933 O   0  0  0  0  0  0  0  0  0  0  0  0
   34.6955   -8.7061  -40.9216 O   0  0  0  0  0  0  0  0  0  0  0  0
   20.3913   -5.4870  -31.4690 P   0  0  2  0  0  0  0  0  0  0  0  0
   22.5584   -5.6881  -33.4336 H   0  0  0  0  0  0  0  0  0  0  0  0
   24.9341   -3.4042  -36.1447 H   0  0  0  0  0  0  0  0  0  0  0  0
   26.5605   -5.2445  -37.5621 H   0  0  0  0  0  0  0  0  0  0  0  0
   27.3258   -4.2675  -36.2085 H   0  0  0  0  0  0  0  0  0  0  0  0
   31.7976   -5.4884  -37.4069 H   0  0  0  0  0  0  0  0  0  0  0  0
   24.2868   -8.6496  -30.2146 H   0  0  0  0  0  0  0  0  0  0  0  0
   25.1025   -6.9807  -31.8702 H   0  0  0  0  0  0  0  0  0  0  0  0
   24.1767   -8.6770  -34.0435 H   0  0  0  0  0  0  0  0  0  0  0  0
   21.6924   -8.7640  -31.4210 H   0  0  0  0  0  0  0  0  0  0  0  0
   22.8774   -7.0550  -29.6631 H   0  0  0  0  0  0  0  0  0  0  0  0
   22.9018   -5.9574  -31.0576 H   0  0  0  0  0  0  0  0  0  0  0  0
   22.9427   -3.6229  -34.6988 H   0  0  0  0  0  0  0  0  0  0  0  0
   26.0505   -7.3946  -34.9475 H   0  0  0  0  0  0  0  0  0  0  0  0
   33.8029   -5.6616  -38.8577 H   0  0  0  0  0  0  0  0  0  0  0  0
   32.6112   -9.6184  -40.0107 H   0  0  0  0  0  0  0  0  0  0  0  0
   30.5940   -9.4523  -38.5432 H   0  0  0  0  0  0  0  0  0  0  0  0
   27.8100   -6.9156  -35.5667 H   0  0  0  0  0  0  0  0  0  0  0  0
   29.8286   -7.9329  -36.1893 H   0  0  0  0  0  0  0  0  0  0  0  0
   23.8816  -10.6144  -30.6529 H   0  0  0  0  0  0  0  0  0  0  0  0
   26.3862   -8.8893  -31.6555 H   0  0  0  0  0  0  0  0  0  0  0  0
  1 12  2  0
  1 19  1  0
  2 12  1  0
  2 13  2  0
  3 13  1  0
  3 20  1  0
  4 20  1  0
  4 21  1  0
  4 30  2  0
  5 15  2  0
  5 16  1  0
  6 16  2  0
  6 17  1  0
  6 22  1  0
  7  8  1  0
  7 10  1  0
  7 23  1  0
  8  9  1  0
  8 24  1  0
  9 19  1  0
  9 25  1  0
 10 11  1  0
 10 25  1  0
 11 26  1  0
 13 14  1  0
 14 19  2  0
 15 18  1  0
 15 21  1  0
 17 18  2  0
 22 31  1  0
 22 32  2  0
 26 33  1  0
 33 27  1  1
 28 33  2  0
 29 33  1  0
  1 34  1  0
  2 35  1  0
  3 36  1  0
  3 37  1  0
  5 38  1  0
  7 39  1  1
  8 40  1  1
  9 41  1  6
 10 42  1  6
 11 43  1  0
 11 44  1  0
 12 45  1  0
 14 46  1  0
 16 47  1  0
 17 48  1  0
 18 49  1  0
 20 50  1  0
 21 51  1  0
 23 52  1  0
 24 53  1  0
M  CHG  5  19   1  22   1  27  -1  29  -1  31  -1
M  END
>  <filename_input>  (15) 
7M6K_YRJ_docked.sdf

>  <pdb_id>  (15) 
7M6K_YRJ

>  <pose_rank>  (15) 
14

>  <num_atoms_heavy>  (15) 
33

>  <num_torsions>  (15) 
8

>  <pose>  (15) 
[23.4507445063721, -5.5976484071239545, -34.07038384062867, 1.7807824190225687, 5.136860135245265, 2.3035443693470685, 3.1839411253335834, 0.4577840624282271, 1.118899435951425, -3.589320865365469, -0.5816161981594716, -0.5281639001733671, 1.7317745423727409, 2.7090171023121496]

>  <energy>  (15) 
-706.0892428392876

>  <inter_energy>  (15) 
-736.8506198976718

>  <intra_energy>  (15) 
30.425140497683

>  <rmsd>  (15) 
4.12629

>  <sdf_rank>  (15) 
0

$$$$

     RDKit          3D

 53 55  0  0  0  0  0  0  0  0999 V2000
   27.4756   -6.2503  -37.8563 C   0  0  0  0  0  0  0  0  0  0  0  0
   27.7682   -4.1264  -36.8824 C   0  0  0  0  0  0  0  0  0  0  0  0
   26.7572   -3.5872  -34.6655 C   0  0  0  0  0  0  0  0  0  0  0  0
   24.7292   -4.3254  -33.5026 C   0  0  0  0  0  0  0  0  0  0  0  0
   22.3740   -4.6134  -31.1300 C   0  0  0  0  0  0  0  0  0  0  0  0
   20.9896   -6.5100  -30.8047 C   0  0  0  0  0  0  0  0  0  0  0  0
   26.5854  -10.1449  -35.9272 C   0  0  1  0  0  0  0  0  0  0  0  0
   27.2640   -8.9723  -36.6098 C   0  0  2  0  0  0  0  0  0  0  0  0
   26.2727   -8.0428  -36.8230 C   0  0  2  0  0  0  0  0  0  0  0  0
   25.5657   -9.3516  -35.0084 C   0  0  1  0  0  0  0  0  0  0  0  0
   26.3019   -9.1008  -33.6683 C   0  0  0  0  0  0  0  0  0  0  0  0
   27.9782   -4.9839  -37.8994 C   0  0  0  0  0  0  0  0  0  0  0  0
   27.0303   -4.6063  -35.8152 C   0  0  0  0  0  0  0  0  0  0  0  0
   26.5375   -5.8875  -35.8096 C   0  0  0  0  0  0  0  0  0  0  0  0
   22.4375   -4.8967  -32.4895 C   0  0  0  0  0  0  0  0  0  0  0  0
   21.6272   -5.4147  -30.2956 C   0  0  0  0  0  0  0  0  0  0  0  0
   21.0858   -6.8182  -32.1513 C   0  0  0  0  0  0  0  0  0  0  0  0
   21.8370   -6.0104  -32.9996 C   0  0  0  0  0  0  0  0  0  0  0  0
   26.7601   -6.6613  -36.8116 N   0  0  0  0  0  0  0  0  0  0  0  0
   25.3794   -3.3671  -34.3799 N   0  0  0  0  0  0  0  0  0  0  0  0
   23.2799   -4.0241  -33.2861 N   0  0  0  0  0  0  0  0  0  0  0  0
   20.2309   -7.3363  -29.9256 N   0  0  0  0  0  0  0  0  0  0  0  0
   25.8792  -10.9817  -36.8399 O   0  0  0  0  0  0  0  0  0  0  0  0
   27.8686   -9.3677  -37.7744 O   0  0  0  0  0  0  0  0  0  0  0  0
   25.2792   -8.2020  -35.5932 O   0  0  0  0  0  0  0  0  0  0  0  0
   25.5462   -8.1548  -32.9717 O   0  0  0  0  0  0  0  0  0  0  0  0
   25.1588   -9.9373  -31.1489 O   0  0  0  0  0  0  0  0  0  0  0  0
   23.2786   -9.3167  -32.6680 O   0  0  0  0  0  0  0  0  0  0  0  0
   24.0813   -7.6311  -31.0091 O   0  0  0  0  0  0  0  0  0  0  0  0
   25.3169   -5.2130  -33.0102 O   0  0  0  0  0  0  0  0  0  0  0  0
   18.9315   -6.9900  -29.6123 O   0  0  0  0  0  0  0  0  0  0  0  0
   20.6991   -8.3174  -29.5037 O   0  0  0  0  0  0  0  0  0  0  0  0
   24.4735   -8.7861  -31.8984 P   0  0  2  0  0  0  0  0  0  0  0  0
   27.6631   -6.9394  -38.6929 H   0  0  0  0  0  0  0  0  0  0  0  0
   28.1622   -3.0996  -36.8994 H   0  0  0  0  0  0  0  0  0  0  0  0
   27.2405   -3.9638  -33.7519 H   0  0  0  0  0  0  0  0  0  0  0  0
   27.1624   -2.6220  -35.0033 H   0  0  0  0  0  0  0  0  0  0  0  0
   22.9196   -3.7502  -30.7213 H   0  0  0  0  0  0  0  0  0  0  0  0
   27.2769  -10.8313  -35.4165 H   0  0  0  0  0  0  0  0  0  0  0  0
   28.0696   -8.5446  -35.9949 H   0  0  0  0  0  0  0  0  0  0  0  0
   25.8214   -8.2191  -37.8106 H   0  0  0  0  0  0  0  0  0  0  0  0
   24.6287   -9.9041  -34.8449 H   0  0  0  0  0  0  0  0  0  0  0  0
   26.3681  -10.0345  -33.0905 H   0  0  0  0  0  0  0  0  0  0  0  0
   27.3280   -8.7429  -33.8390 H   0  0  0  0  0  0  0  0  0  0  0  0
   28.5612   -4.6590  -38.7738 H   0  0  0  0  0  0  0  0  0  0  0  0
   25.9542   -6.2507  -34.9507 H   0  0  0  0  0  0  0  0  0  0  0  0
   21.5446   -5.1741  -29.2254 H   0  0  0  0  0  0  0  0  0  0  0  0
   20.5679   -7.7025  -32.5509 H   0  0  0  0  0  0  0  0  0  0  0  0
   21.9447   -6.2656  -34.0641 H   0  0  0  0  0  0  0  0  0  0  0  0
   24.8679   -2.5660  -34.7767 H   0  0  0  0  0  0  0  0  0  0  0  0
   22.8715   -3.1796  -33.7113 H   0  0  0  0  0  0  0  0  0  0  0  0
   25.3302  -11.6322  -36.3342 H   0  0  0  0  0  0  0  0  0  0  0  0
   28.6779   -9.8971  -37.5628 H   0  0  0  0  0  0  0  0  0  0  0  0
  1 12  2  0
  1 19  1  0
  2 12  1  0
  2 13  2  0
  3 13  1  0
  3 20  1  0
  4 20  1  0
  4 21  1  0
  4 30  2  0
  5 15  2  0
  5 16  1  0
  6 16  2  0
  6 17  1  0
  6 22  1  0
  7  8  1  0
  7 10  1  0
  7 23  1  0
  8  9  1  0
  8 24  1  0
  9 19  1  0
  9 25  1  0
 10 11  1  0
 10 25  1  0
 11 26  1  0
 13 14  1  0
 14 19  2  0
 15 18  1  0
 15 21  1  0
 17 18  2  0
 22 31  1  0
 22 32  2  0
 26 33  1  0
 33 27  1  1
 28 33  2  0
 29 33  1  0
  1 34  1  0
  2 35  1  0
  3 36  1  0
  3 37  1  0
  5 38  1  0
  7 39  1  1
  8 40  1  1
  9 41  1  6
 10 42  1  1
 11 43  1  0
 11 44  1  0
 12 45  1  0
 14 46  1  0
 16 47  1  0
 17 48  1  0
 18 49  1  0
 20 50  1  0
 21 51  1  0
 23 52  1  0
 24 53  1  0
M  CHG  5  19   1  22   1  27  -1  29  -1  31  -1
M  END
>  <filename_input>  (16) 
7M6K_YRJ_docked.sdf

>  <pdb_id>  (16) 
7M6K_YRJ

>  <pose_rank>  (16) 
15

>  <num_atoms_heavy>  (16) 
33

>  <num_torsions>  (16) 
8

>  <pose>  (16) 
[27.475575680346317, -6.250316989334247, -37.85627116832758, 0.3010761961299669, 3.4512529961229466, -0.6678310998481862, 0.01452124849131735, -0.212846837316019, -1.8466774996707436, -0.2104829423382164, -1.3649265459212498, -2.0738418711282187, 2.291132057920983, -2.063398650117269]

>  <energy>  (16) 
-700.5440458881279

>  <inter_energy>  (16) 
-742.0362304652951

>  <intra_energy>  (16) 
42.033141231785045

>  <rmsd>  (16) 
8.17147

>  <sdf_rank>  (16) 
0

$$$$

     RDKit          3D

 53 55  0  0  0  0  0  0  0  0999 V2000
   25.1924   -7.6669  -37.4290 C   0  0  0  0  0  0  0  0  0  0  0  0
   24.7047   -8.5600  -35.3055 C   0  0  0  0  0  0  0  0  0  0  0  0
   26.1720   -8.0722  -33.3467 C   0  0  0  0  0  0  0  0  0  0  0  0
   23.9458   -7.6338  -32.4183 C   0  0  0  0  0  0  0  0  0  0  0  0
   20.6327   -7.5435  -32.1381 C   0  0  0  0  0  0  0  0  0  0  0  0
   19.3737   -5.9633  -30.8983 C   0  0  0  0  0  0  0  0  0  0  0  0
   28.9859   -5.0000  -38.1245 C   0  0  1  0  0  0  0  0  0  0  0  0
   27.7629   -5.2239  -37.2553 C   0  0  2  0  0  0  0  0  0  0  0  0
   27.0413   -6.2153  -37.8786 C   0  0  2  0  0  0  0  0  0  0  0  0
   29.2688   -6.4979  -38.5598 C   0  0  1  0  0  0  0  0  0  0  0  0
   30.2316   -7.0794  -37.4943 C   0  0  0  0  0  0  0  0  0  0  0  0
   24.4121   -8.4316  -36.6137 C   0  0  0  0  0  0  0  0  0  0  0  0
   25.8200   -7.8772  -34.8544 C   0  0  0  0  0  0  0  0  0  0  0  0
   26.5836   -7.1194  -35.7070 C   0  0  0  0  0  0  0  0  0  0  0  0
   21.6775   -7.4195  -31.2295 C   0  0  0  0  0  0  0  0  0  0  0  0
   19.4720   -6.8265  -31.9522 C   0  0  0  0  0  0  0  0  0  0  0  0
   20.4292   -5.8066  -30.0156 C   0  0  0  0  0  0  0  0  0  0  0  0
   21.6034   -6.5307  -30.1972 C   0  0  0  0  0  0  0  0  0  0  0  0
   26.2638   -7.0390  -36.9494 N   0  0  0  0  0  0  0  0  0  0  0  0
   25.0904   -8.5209  -32.5361 N   0  0  0  0  0  0  0  0  0  0  0  0
   22.8768   -8.1807  -31.5259 N   0  0  0  0  0  0  0  0  0  0  0  0
   18.1704   -5.2191  -30.7270 N   0  0  0  0  0  0  0  0  0  0  0  0
   28.7099   -4.1970  -39.2696 O   0  0  0  0  0  0  0  0  0  0  0  0
   27.0448   -4.0652  -37.1141 O   0  0  0  0  0  0  0  0  0  0  0  0
   28.1260   -7.1611  -38.5521 O   0  0  0  0  0  0  0  0  0  0  0  0
   31.5071   -6.6071  -37.8124 O   0  0  0  0  0  0  0  0  0  0  0  0
   31.8907   -9.0830  -38.4225 O   0  0  0  0  0  0  0  0  0  0  0  0
   33.4440   -7.9664  -36.8199 O   0  0  0  0  0  0  0  0  0  0  0  0
   33.4800   -7.2533  -39.2132 O   0  0  0  0  0  0  0  0  0  0  0  0
   23.8876   -6.6167  -32.9995 O   0  0  0  0  0  0  0  0  0  0  0  0
   16.9614   -5.8815  -30.6493 O   0  0  0  0  0  0  0  0  0  0  0  0
   18.2166   -4.0589  -30.6186 O   0  0  0  0  0  0  0  0  0  0  0  0
   32.6269   -7.7790  -38.0843 P   0  0  2  0  0  0  0  0  0  0  0  0
   24.9341   -7.5676  -38.4937 H   0  0  0  0  0  0  0  0  0  0  0  0
   24.0899   -9.1749  -34.6318 H   0  0  0  0  0  0  0  0  0  0  0  0
   26.9824   -8.8127  -33.2771 H   0  0  0  0  0  0  0  0  0  0  0  0
   26.4569   -7.0812  -32.9636 H   0  0  0  0  0  0  0  0  0  0  0  0
   20.7331   -8.2137  -33.0046 H   0  0  0  0  0  0  0  0  0  0  0  0
   29.8074   -4.4707  -37.6195 H   0  0  0  0  0  0  0  0  0  0  0  0
   28.0315   -5.5258  -36.2322 H   0  0  0  0  0  0  0  0  0  0  0  0
   26.3280   -5.7548  -38.5781 H   0  0  0  0  0  0  0  0  0  0  0  0
   29.7073   -6.5682  -39.5662 H   0  0  0  0  0  0  0  0  0  0  0  0
   29.9390   -6.7373  -36.4906 H   0  0  0  0  0  0  0  0  0  0  0  0
   30.2040   -8.1791  -37.4910 H   0  0  0  0  0  0  0  0  0  0  0  0
   23.5346   -8.9490  -37.0286 H   0  0  0  0  0  0  0  0  0  0  0  0
   27.4660   -6.5827  -35.3284 H   0  0  0  0  0  0  0  0  0  0  0  0
   18.6290   -6.9481  -32.6483 H   0  0  0  0  0  0  0  0  0  0  0  0
   20.3391   -5.1089  -29.1699 H   0  0  0  0  0  0  0  0  0  0  0  0
   22.4581   -6.3888  -29.5193 H   0  0  0  0  0  0  0  0  0  0  0  0
   25.1184   -9.4316  -32.0558 H   0  0  0  0  0  0  0  0  0  0  0  0
   22.9946   -9.1171  -31.1134 H   0  0  0  0  0  0  0  0  0  0  0  0
   28.4022   -3.3021  -38.9787 H   0  0  0  0  0  0  0  0  0  0  0  0
   26.9225   -3.8680  -36.1517 H   0  0  0  0  0  0  0  0  0  0  0  0
  1 12  2  0
  1 19  1  0
  2 12  1  0
  2 13  2  0
  3 13  1  0
  3 20  1  0
  4 20  1  0
  4 21  1  0
  4 30  2  0
  5 15  2  0
  5 16  1  0
  6 16  2  0
  6 17  1  0
  6 22  1  0
  7  8  1  0
  7 10  1  0
  7 23  1  0
  8  9  1  0
  8 24  1  0
  9 19  1  0
  9 25  1  0
 10 11  1  0
 10 25  1  0
 11 26  1  0
 13 14  1  0
 14 19  2  0
 15 18  1  0
 15 21  1  0
 17 18  2  0
 22 31  1  0
 22 32  2  0
 26 33  1  0
 33 27  1  6
 28 33  2  0
 29 33  1  0
  1 34  1  0
  2 35  1  0
  3 36  1  0
  3 37  1  0
  5 38  1  0
  7 39  1  1
  8 40  1  1
  9 41  1  6
 10 42  1  6
 11 43  1  0
 11 44  1  0
 12 45  1  0
 14 46  1  0
 16 47  1  0
 17 48  1  0
 18 49  1  0
 20 50  1  0
 21 51  1  0
 23 52  1  0
 24 53  1  0
M  CHG  5  19   1  22   1  27  -1  29  -1  31  -1
M  END
>  <filename_input>  (17) 
7M6K_YRJ_docked.sdf

>  <pdb_id>  (17) 
7M6K_YRJ

>  <pose_rank>  (17) 
16

>  <num_atoms_heavy>  (17) 
33

>  <num_torsions>  (17) 
8

>  <pose>  (17) 
[25.192385666937728, -7.66685324987453, -37.42902250974472, 2.695185812365464, -0.5451663873241931, 0.3861606748519731, -4.820550381302716, -4.50761105684866, 0.65589329830822, -0.5893106889670459, 2.4218944635572166, 7.9371571549474345, 2.2296121035972747, -2.561401996627389]

>  <energy>  (17) 
-634.4091838785084

>  <inter_energy>  (17) 
-656.9574192802585

>  <intra_energy>  (17) 
34.320108300400896

>  <rmsd>  (17) 
9.64861

>  <sdf_rank>  (17) 
0

$$$$

     RDKit          3D

 53 55  0  0  0  0  0  0  0  0999 V2000
   29.7331   -5.9672  -38.8716 C   0  0  0  0  0  0  0  0  0  0  0  0
   27.8481   -4.7653  -38.1320 C   0  0  0  0  0  0  0  0  0  0  0  0
   26.9540   -5.0846  -35.8241 C   0  0  0  0  0  0  0  0  0  0  0  0
   25.2435   -6.0450  -34.3538 C   0  0  0  0  0  0  0  0  0  0  0  0
   22.2183   -6.7609  -33.0347 C   0  0  0  0  0  0  0  0  0  0  0  0
   21.8587   -7.3968  -30.7796 C   0  0  0  0  0  0  0  0  0  0  0  0
   32.5800   -8.7214  -38.6122 C   0  0  1  0  0  0  0  0  0  0  0  0
   31.1002   -8.3922  -38.5551 C   0  0  2  0  0  0  0  0  0  0  0  0
   30.9567   -7.5090  -37.5104 C   0  0  2  0  0  0  0  0  0  0  0  0
   33.1737   -7.2969  -38.2491 C   0  0  1  0  0  0  0  0  0  0  0  0
   33.3680   -6.5573  -39.5967 C   0  0  0  0  0  0  0  0  0  0  0  0
   28.7350   -5.0670  -39.0994 C   0  0  0  0  0  0  0  0  0  0  0  0
   28.0161   -5.4106  -36.9200 C   0  0  0  0  0  0  0  0  0  0  0  0
   29.0318   -6.3140  -36.7296 C   0  0  0  0  0  0  0  0  0  0  0  0
   23.4854   -7.3312  -32.9904 C   0  0  0  0  0  0  0  0  0  0  0  0
   21.4003   -6.8180  -31.9286 C   0  0  0  0  0  0  0  0  0  0  0  0
   23.1362   -7.9282  -30.7199 C   0  0  0  0  0  0  0  0  0  0  0  0
   23.9661   -7.8756  -31.8356 C   0  0  0  0  0  0  0  0  0  0  0  0
   29.8452   -6.5718  -37.6910 N   0  0  0  0  0  0  0  0  0  0  0  0
   26.0035   -6.1189  -35.5899 N   0  0  0  0  0  0  0  0  0  0  0  0
   24.2933   -7.1884  -34.1872 N   0  0  0  0  0  0  0  0  0  0  0  0
   21.0044   -7.4367  -29.6396 N   0  0  0  0  0  0  0  0  0  0  0  0
   32.9700   -9.6824  -37.6342 O   0  0  0  0  0  0  0  0  0  0  0  0
   30.3530   -9.5284  -38.3849 O   0  0  0  0  0  0  0  0  0  0  0  0
   32.2962   -6.6544  -37.4988 O   0  0  0  0  0  0  0  0  0  0  0  0
   34.3665   -5.6037  -39.3853 O   0  0  0  0  0  0  0  0  0  0  0  0
   36.4423   -4.3448  -40.2548 O   0  0  0  0  0  0  0  0  0  0  0  0
   34.7332   -5.1518  -41.8844 O   0  0  0  0  0  0  0  0  0  0  0  0
   36.1223   -6.8388  -40.6753 O   0  0  0  0  0  0  0  0  0  0  0  0
   25.3669   -5.1526  -33.6029 O   0  0  0  0  0  0  0  0  0  0  0  0
   20.0471   -6.4567  -29.4674 O   0  0  0  0  0  0  0  0  0  0  0  0
   21.0951   -8.3146  -28.8775 O   0  0  0  0  0  0  0  0  0  0  0  0
   35.4683   -5.4805  -40.5987 P   0  0  2  0  0  0  0  0  0  0  0  0
   30.4529   -6.1961  -39.6713 H   0  0  0  0  0  0  0  0  0  0  0  0
   27.0337   -4.0444  -38.2967 H   0  0  0  0  0  0  0  0  0  0  0  0
   27.4845   -4.8870  -34.8810 H   0  0  0  0  0  0  0  0  0  0  0  0
   26.3854   -4.2175  -36.1909 H   0  0  0  0  0  0  0  0  0  0  0  0
   21.8696   -6.2646  -33.9524 H   0  0  0  0  0  0  0  0  0  0  0  0
   32.9074   -9.1628  -39.5651 H   0  0  0  0  0  0  0  0  0  0  0  0
   30.7389   -7.9445  -39.4927 H   0  0  0  0  0  0  0  0  0  0  0  0
   30.7579   -8.0735  -36.5874 H   0  0  0  0  0  0  0  0  0  0  0  0
   34.1228   -7.3646  -37.6973 H   0  0  0  0  0  0  0  0  0  0  0  0
   33.6790   -7.2665  -40.3780 H   0  0  0  0  0  0  0  0  0  0  0  0
   32.4318   -6.0858  -39.9303 H   0  0  0  0  0  0  0  0  0  0  0  0
   28.6532   -4.5821  -40.0834 H   0  0  0  0  0  0  0  0  0  0  0  0
   29.1494   -6.8156  -35.7577 H   0  0  0  0  0  0  0  0  0  0  0  0
   20.3837   -6.3999  -31.9701 H   0  0  0  0  0  0  0  0  0  0  0  0
   23.4952   -8.3924  -29.7895 H   0  0  0  0  0  0  0  0  0  0  0  0
   24.9931   -8.2667  -31.7872 H   0  0  0  0  0  0  0  0  0  0  0  0
   25.8614   -6.8835  -36.2653 H   0  0  0  0  0  0  0  0  0  0  0  0
   24.2109   -7.8890  -34.9378 H   0  0  0  0  0  0  0  0  0  0  0  0
   32.8195   -9.3115  -36.7287 H   0  0  0  0  0  0  0  0  0  0  0  0
   30.2367   -9.7051  -37.4178 H   0  0  0  0  0  0  0  0  0  0  0  0
  1 12  2  0
  1 19  1  0
  2 12  1  0
  2 13  2  0
  3 13  1  0
  3 20  1  0
  4 20  1  0
  4 21  1  0
  4 30  2  0
  5 15  2  0
  5 16  1  0
  6 16  2  0
  6 17  1  0
  6 22  1  0
  7  8  1  0
  7 10  1  0
  7 23  1  0
  8  9  1  0
  8 24  1  0
  9 19  1  0
  9 25  1  0
 10 11  1  0
 10 25  1  0
 11 26  1  0
 13 14  1  0
 14 19  2  0
 15 18  1  0
 15 21  1  0
 17 18  2  0
 22 31  1  0
 22 32  2  0
 26 33  1  0
 33 27  1  1
 28 33  2  0
 29 33  1  0
  1 34  1  0
  2 35  1  0
  3 36  1  0
  3 37  1  0
  5 38  1  0
  7 39  1  6
  8 40  1  6
  9 41  1  1
 10 42  1  1
 11 43  1  0
 11 44  1  0
 12 45  1  0
 14 46  1  0
 16 47  1  0
 17 48  1  0
 18 49  1  0
 20 50  1  0
 21 51  1  0
 23 52  1  0
 24 53  1  0
M  CHG  5  19   1  22   1  27  -1  29  -1  31  -1
M  END
>  <filename_input>  (18) 
7M6K_YRJ_docked.sdf

>  <pdb_id>  (18) 
7M6K_YRJ

>  <pose_rank>  (18) 
17

>  <num_atoms_heavy>  (18) 
33

>  <num_torsions>  (18) 
8

>  <pose>  (18) 
[29.733077939730602, -5.967161588927763, -38.87164312927567, -1.5538780171940303, 2.711029071719987, -1.144977061795851, -2.072308954415669, 0.4472392083203049, -1.1004909964440273, 2.138082098532183, 4.629410051488851, 5.603716547492581, 2.3367194785738694, 2.265063098161263]

>  <energy>  (18) 
-641.5301734359389

>  <inter_energy>  (18) 
-637.7751753640065

>  <intra_energy>  (18) 
0.30617096762171836

>  <rmsd>  (18) 
10.2299

>  <sdf_rank>  (18) 
0

$$$$

     RDKit          3D

 53 55  0  0  0  0  0  0  0  0999 V2000
   23.4944   -4.6510  -34.3307 C   0  0  0  0  0  0  0  0  0  0  0  0
   24.4518   -5.6205  -36.2512 C   0  0  0  0  0  0  0  0  0  0  0  0
   25.4890   -7.8882  -36.1558 C   0  0  0  0  0  0  0  0  0  0  0  0
   27.5392   -7.1747  -37.2951 C   0  0  0  0  0  0  0  0  0  0  0  0
   31.2214   -6.8113  -38.1423 C   0  0  0  0  0  0  0  0  0  0  0  0
   31.5719   -5.6266  -40.1653 C   0  0  0  0  0  0  0  0  0  0  0  0
   21.5856   -5.4919  -30.7715 C   0  0  1  0  0  0  0  0  0  0  0  0
   22.3434   -4.8711  -31.9299 C   0  0  2  0  0  0  0  0  0  0  0  0
   23.3806   -5.7334  -32.1993 C   0  0  2  0  0  0  0  0  0  0  0  0
   21.7067   -7.0202  -31.1756 C   0  0  1  0  0  0  0  0  0  0  0  0
   20.4660   -7.3320  -32.0497 C   0  0  0  0  0  0  0  0  0  0  0  0
   23.8264   -4.5896  -35.6514 C   0  0  0  0  0  0  0  0  0  0  0  0
   24.7240   -6.7207  -35.4581 C   0  0  0  0  0  0  0  0  0  0  0  0
   24.3772   -6.7440  -34.1302 C   0  0  0  0  0  0  0  0  0  0  0  0
   29.8508   -6.6161  -38.2689 C   0  0  0  0  0  0  0  0  0  0  0  0
   32.0758   -6.3313  -39.1095 C   0  0  0  0  0  0  0  0  0  0  0  0
   30.2108   -5.3945  -40.2718 C   0  0  0  0  0  0  0  0  0  0  0  0
   29.3425   -5.8797  -39.2987 C   0  0  0  0  0  0  0  0  0  0  0  0
   23.7897   -5.7279  -33.6061 N   0  0  0  0  0  0  0  0  0  0  0  0
   26.9080   -7.7699  -36.1296 N   0  0  0  0  0  0  0  0  0  0  0  0
   29.0300   -7.1199  -37.1835 N   0  0  0  0  0  0  0  0  0  0  0  0
   32.4707   -5.1255  -41.1514 N   0  0  0  0  0  0  0  0  0  0  0  0
   22.2157   -5.2627  -29.5135 O   0  0  0  0  0  0  0  0  0  0  0  0
   22.7804   -3.6124  -31.6095 O   0  0  0  0  0  0  0  0  0  0  0  0
   22.8129   -7.1827  -31.8795 O   0  0  0  0  0  0  0  0  0  0  0  0
   19.4242   -7.6292  -31.1680 O   0  0  0  0  0  0  0  0  0  0  0  0
   17.3863   -7.4582  -32.7387 O   0  0  0  0  0  0  0  0  0  0  0  0
   18.3228   -5.3793  -31.7241 O   0  0  0  0  0  0  0  0  0  0  0  0
   17.1797   -7.0264  -30.2347 O   0  0  0  0  0  0  0  0  0  0  0  0
   26.9123   -6.7644  -38.1975 O   0  0  0  0  0  0  0  0  0  0  0  0
   33.8091   -4.9783  -40.8455 O   0  0  0  0  0  0  0  0  0  0  0  0
   32.0779   -4.8757  -42.2205 O   0  0  0  0  0  0  0  0  0  0  0  0
   18.0141   -6.8444  -31.4794 P   0  0  2  0  0  0  0  0  0  0  0  0
   22.9775   -3.8022  -33.8591 H   0  0  0  0  0  0  0  0  0  0  0  0
   24.7311   -5.5893  -37.3147 H   0  0  0  0  0  0  0  0  0  0  0  0
   25.2142   -8.8269  -35.6525 H   0  0  0  0  0  0  0  0  0  0  0  0
   25.1948   -7.8628  -37.2154 H   0  0  0  0  0  0  0  0  0  0  0  0
   31.6229   -7.3487  -37.2705 H   0  0  0  0  0  0  0  0  0  0  0  0
   20.5676   -5.0979  -30.6355 H   0  0  0  0  0  0  0  0  0  0  0  0
   21.7079   -4.7408  -32.8182 H   0  0  0  0  0  0  0  0  0  0  0  0
   24.2579   -5.4368  -31.6056 H   0  0  0  0  0  0  0  0  0  0  0  0
   21.7482   -7.6850  -30.3002 H   0  0  0  0  0  0  0  0  0  0  0  0
   20.2054   -6.4583  -32.6651 H   0  0  0  0  0  0  0  0  0  0  0  0
   20.6614   -8.1722  -32.7323 H   0  0  0  0  0  0  0  0  0  0  0  0
   23.5810   -3.6888  -36.2332 H   0  0  0  0  0  0  0  0  0  0  0  0
   24.6012   -7.6292  -33.5167 H   0  0  0  0  0  0  0  0  0  0  0  0
   33.1577   -6.5142  -39.0322 H   0  0  0  0  0  0  0  0  0  0  0  0
   29.8156   -4.8260  -41.1266 H   0  0  0  0  0  0  0  0  0  0  0  0
   28.2639   -5.6728  -39.3588 H   0  0  0  0  0  0  0  0  0  0  0  0
   27.4610   -8.0912  -35.3221 H   0  0  0  0  0  0  0  0  0  0  0  0
   29.4832   -7.4465  -36.3182 H   0  0  0  0  0  0  0  0  0  0  0  0
   21.5875   -5.4913  -28.7833 H   0  0  0  0  0  0  0  0  0  0  0  0
   22.8140   -3.5154  -30.6249 H   0  0  0  0  0  0  0  0  0  0  0  0
  1 12  2  0
  1 19  1  0
  2 12  1  0
  2 13  2  0
  3 13  1  0
  3 20  1  0
  4 20  1  0
  4 21  1  0
  4 30  2  0
  5 15  2  0
  5 16  1  0
  6 16  2  0
  6 17  1  0
  6 22  1  0
  7  8  1  0
  7 10  1  0
  7 23  1  0
  8  9  1  0
  8 24  1  0
  9 19  1  0
  9 25  1  0
 10 11  1  0
 10 25  1  0
 11 26  1  0
 13 14  1  0
 14 19  2  0
 15 18  1  0
 15 21  1  0
 17 18  2  0
 22 31  1  0
 22 32  2  0
 26 33  1  0
 33 27  1  6
 28 33  2  0
 29 33  1  0
  1 34  1  0
  2 35  1  0
  3 36  1  0
  3 37  1  0
  5 38  1  0
  7 39  1  1
  8 40  1  6
  9 41  1  1
 10 42  1  1
 11 43  1  0
 11 44  1  0
 12 45  1  0
 14 46  1  0
 16 47  1  0
 17 48  1  0
 18 49  1  0
 20 50  1  0
 21 51  1  0
 23 52  1  0
 24 53  1  0
M  CHG  5  19   1  22   1  27  -1  29  -1  31  -1
M  END
>  <filename_input>  (19) 
7M6K_YRJ_docked.sdf

>  <pdb_id>  (19) 
7M6K_YRJ

>  <pose_rank>  (19) 
18

>  <num_atoms_heavy>  (19) 
33

>  <num_torsions>  (19) 
8

>  <pose>  (19) 
[23.494424113812602, -4.650952595999111, -34.33068410710348, 4.492163332661348, 0.4448395110291756, 2.3853058536896143, 5.419954791027105, 1.6864143366102593, -1.2040463043965093, 0.31677571523163994, -1.9765636504854673, 1.0930745269475894, 4.040519793241903, 2.4096946402160233]

>  <energy>  (19) 
-633.2042679324379

>  <inter_energy>  (19) 
-667.8996620304196

>  <intra_energy>  (19) 
34.49094915407849

>  <rmsd>  (19) 
4.56934

>  <sdf_rank>  (19) 
0

$$$$

     RDKit          3D

 53 55  0  0  0  0  0  0  0  0999 V2000
   27.5187   -4.4108  -36.1829 C   0  0  0  0  0  0  0  0  0  0  0  0
   26.3948   -2.8877  -34.7822 C   0  0  0  0  0  0  0  0  0  0  0  0
   23.9013   -2.8157  -34.7135 C   0  0  0  0  0  0  0  0  0  0  0  0
   23.5971   -4.6504  -33.1162 C   0  0  0  0  0  0  0  0  0  0  0  0
   24.2637   -7.1092  -31.3956 C   0  0  0  0  0  0  0  0  0  0  0  0
   23.1255   -9.0100  -30.5525 C   0  0  0  0  0  0  0  0  0  0  0  0
   26.4411   -8.3079  -37.7930 C   0  0  1  0  0  0  0  0  0  0  0  0
   27.0810   -7.1178  -37.1033 C   0  0  2  0  0  0  0  0  0  0  0  0
   26.4153   -6.0118  -37.5782 C   0  0  2  0  0  0  0  0  0  0  0  0
   24.9337   -7.8170  -37.8053 C   0  0  1  0  0  0  0  0  0  0  0  0
   24.3017   -8.3406  -36.4911 C   0  0  0  0  0  0  0  0  0  0  0  0
   27.5413   -3.3984  -35.2703 C   0  0  0  0  0  0  0  0  0  0  0  0
   25.2214   -3.4483  -35.2539 C   0  0  0  0  0  0  0  0  0  0  0  0
   25.2389   -4.4648  -36.1762 C   0  0  0  0  0  0  0  0  0  0  0  0
   23.1024   -6.3572  -31.2598 C   0  0  0  0  0  0  0  0  0  0  0  0
   24.2728   -8.4331  -31.0174 C   0  0  0  0  0  0  0  0  0  0  0  0
   21.9564   -8.2740  -30.4559 C   0  0  0  0  0  0  0  0  0  0  0  0
   21.9421   -6.9349  -30.8342 C   0  0  0  0  0  0  0  0  0  0  0  0
   26.3624   -4.9084  -36.6158 N   0  0  0  0  0  0  0  0  0  0  0  0
   23.5388   -3.2264  -33.3989 N   0  0  0  0  0  0  0  0  0  0  0  0
   23.1724   -4.9831  -31.7209 N   0  0  0  0  0  0  0  0  0  0  0  0
   23.1483  -10.3846  -30.1770 N   0  0  0  0  0  0  0  0  0  0  0  0
   26.9111   -8.4917  -39.1263 O   0  0  0  0  0  0  0  0  0  0  0  0
   28.4261   -7.0685  -37.3612 O   0  0  0  0  0  0  0  0  0  0  0  0
   24.9216   -6.4960  -37.8222 O   0  0  0  0  0  0  0  0  0  0  0  0
   24.9473   -9.5427  -36.1920 O   0  0  0  0  0  0  0  0  0  0  0  0
   25.7200   -8.1569  -34.1592 O   0  0  0  0  0  0  0  0  0  0  0  0
   27.0839  -10.1144  -34.8911 O   0  0  0  0  0  0  0  0  0  0  0  0
   24.8324  -10.5319  -33.8941 O   0  0  0  0  0  0  0  0  0  0  0  0
   23.9708   -5.4256  -33.9131 O   0  0  0  0  0  0  0  0  0  0  0  0
   21.9958  -11.1390  -30.2719 O   0  0  0  0  0  0  0  0  0  0  0  0
   24.1470  -10.8730  -29.8251 O   0  0  0  0  0  0  0  0  0  0  0  0
   25.6724   -9.5861  -34.7177 P   0  0  2  0  0  0  0  0  0  0  0  0
   28.4652   -4.8205  -36.5654 H   0  0  0  0  0  0  0  0  0  0  0  0
   26.3915   -2.0686  -34.0479 H   0  0  0  0  0  0  0  0  0  0  0  0
   24.0218   -1.7223  -34.7097 H   0  0  0  0  0  0  0  0  0  0  0  0
   23.0964   -3.1602  -35.3795 H   0  0  0  0  0  0  0  0  0  0  0  0
   25.1742   -6.6471  -31.8047 H   0  0  0  0  0  0  0  0  0  0  0  0
   26.6405   -9.2731  -37.3046 H   0  0  0  0  0  0  0  0  0  0  0  0
   26.9971   -7.1793  -36.0083 H   0  0  0  0  0  0  0  0  0  0  0  0
   26.9340   -5.6368  -38.4728 H   0  0  0  0  0  0  0  0  0  0  0  0
   24.3788   -8.1833  -38.6816 H   0  0  0  0  0  0  0  0  0  0  0  0
   24.4559   -7.6143  -35.6795 H   0  0  0  0  0  0  0  0  0  0  0  0
   23.2174   -8.4884  -36.6024 H   0  0  0  0  0  0  0  0  0  0  0  0
   28.5059   -2.9945  -34.9290 H   0  0  0  0  0  0  0  0  0  0  0  0
   24.2948   -4.8983  -36.5378 H   0  0  0  0  0  0  0  0  0  0  0  0
   25.1987   -9.0227  -31.0893 H   0  0  0  0  0  0  0  0  0  0  0  0
   21.0380   -8.7484  -30.0797 H   0  0  0  0  0  0  0  0  0  0  0  0
   21.0105   -6.3517  -30.7907 H   0  0  0  0  0  0  0  0  0  0  0  0
   23.2488   -2.5459  -32.6822 H   0  0  0  0  0  0  0  0  0  0  0  0
   22.9247   -4.2209  -31.0739 H   0  0  0  0  0  0  0  0  0  0  0  0
   27.8328   -8.8523  -39.1045 H   0  0  0  0  0  0  0  0  0  0  0  0
   28.9255   -7.0503  -36.5066 H   0  0  0  0  0  0  0  0  0  0  0  0
  1 12  2  0
  1 19  1  0
  2 12  1  0
  2 13  2  0
  3 13  1  0
  3 20  1  0
  4 20  1  0
  4 21  1  0
  4 30  2  0
  5 15  2  0
  5 16  1  0
  6 16  2  0
  6 17  1  0
  6 22  1  0
  7  8  1  0
  7 10  1  0
  7 23  1  0
  8  9  1  0
  8 24  1  0
  9 19  1  0
  9 25  1  0
 10 11  1  0
 10 25  1  0
 11 26  1  0
 13 14  1  0
 14 19  2  0
 15 18  1  0
 15 21  1  0
 17 18  2  0
 22 31  1  0
 22 32  2  0
 26 33  1  0
 33 27  1  1
 28 33  2  0
 29 33  1  0
  1 34  1  0
  2 35  1  0
  3 36  1  0
  3 37  1  0
  5 38  1  0
  7 39  1  1
  8 40  1  1
  9 41  1  6
 10 42  1  6
 11 43  1  0
 11 44  1  0
 12 45  1  0
 14 46  1  0
 16 47  1  0
 17 48  1  0
 18 49  1  0
 20 50  1  0
 21 51  1  0
 23 52  1  0
 24 53  1  0
M  CHG  5  19   1  22   1  27  -1  29  -1  31  -1
M  END
>  <filename_input>  (20) 
7M6K_YRJ_docked.sdf

>  <pdb_id>  (20) 
7M6K_YRJ

>  <pose_rank>  (20) 
19

>  <num_atoms_heavy>  (20) 
33

>  <num_torsions>  (20) 
8

>  <pose>  (20) 
[27.518672509109486, -4.410775253095303, -36.18290670309351, 0.4129404654034293, 2.4071902784735455, 0.28481588450200085, -0.22147857635144086, 2.609079064235132, -1.3599143105081113, -1.1678410328660958, -4.86578373030394, 1.938135793480525, -4.596119171707767, 0.11591492705017696]

>  <energy>  (20) 
-660.6998873813125

>  <inter_energy>  (20) 
-730.9072968299107

>  <intra_energy>  (20) 
87.37474559650546

>  <rmsd>  (20) 
7.86869

>  <sdf_rank>  (20) 
0

$$$$

     RDKit          3D

 53 55  0  0  0  0  0  0  0  0999 V2000
   27.4089   -5.3509  -36.2651 C   0  0  0  0  0  0  0  0  0  0  0  0
   26.8462   -3.4184  -35.0429 C   0  0  0  0  0  0  0  0  0  0  0  0
   24.8214   -3.3733  -33.5849 C   0  0  0  0  0  0  0  0  0  0  0  0
   22.7747   -3.6280  -32.2596 C   0  0  0  0  0  0  0  0  0  0  0  0
   20.9107   -3.5492  -29.4937 C   0  0  0  0  0  0  0  0  0  0  0  0
   18.5510   -3.4304  -29.3021 C   0  0  0  0  0  0  0  0  0  0  0  0
   24.9247   -9.3026  -35.8131 C   0  0  1  0  0  0  0  0  0  0  0  0
   25.7527   -8.2136  -35.1574 C   0  0  2  0  0  0  0  0  0  0  0  0
   26.1684   -7.3959  -36.1824 C   0  0  2  0  0  0  0  0  0  0  0  0
   24.2045   -8.4392  -36.9308 C   0  0  1  0  0  0  0  0  0  0  0  0
   22.8860   -7.9301  -36.2960 C   0  0  0  0  0  0  0  0  0  0  0  0
   27.6559   -4.0588  -35.9076 C   0  0  0  0  0  0  0  0  0  0  0  0
   25.7758   -4.1430  -34.5502 C   0  0  0  0  0  0  0  0  0  0  0  0
   25.5576   -5.4420  -34.9366 C   0  0  0  0  0  0  0  0  0  0  0  0
   20.7762   -4.1613  -30.7346 C   0  0  0  0  0  0  0  0  0  0  0  0
   19.7899   -3.1655  -28.7920 C   0  0  0  0  0  0  0  0  0  0  0  0
   18.4140   -4.0778  -30.5186 C   0  0  0  0  0  0  0  0  0  0  0  0
   19.5433   -4.4654  -31.2332 C   0  0  0  0  0  0  0  0  0  0  0  0
   26.3574   -6.0020  -35.7728 N   0  0  0  0  0  0  0  0  0  0  0  0
   24.0102   -4.2051  -32.7613 N   0  0  0  0  0  0  0  0  0  0  0  0
   22.0083   -4.5683  -31.3841 N   0  0  0  0  0  0  0  0  0  0  0  0
   17.4008   -3.0381  -28.5576 N   0  0  0  0  0  0  0  0  0  0  0  0
   25.7246  -10.3185  -36.4133 O   0  0  0  0  0  0  0  0  0  0  0  0
   26.8025   -8.7511  -34.4595 O   0  0  0  0  0  0  0  0  0  0  0  0
   24.9844   -7.4191  -37.2419 O   0  0  0  0  0  0  0  0  0  0  0  0
   21.8724   -8.1966  -37.2196 O   0  0  0  0  0  0  0  0  0  0  0  0
   20.2053   -7.0887  -35.5939 O   0  0  0  0  0  0  0  0  0  0  0  0
   19.3931   -7.8992  -37.8100 O   0  0  0  0  0  0  0  0  0  0  0  0
   20.9346   -5.9351  -37.7471 O   0  0  0  0  0  0  0  0  0  0  0  0
   22.4315   -2.5460  -32.5546 O   0  0  0  0  0  0  0  0  0  0  0  0
   17.3595   -1.7895  -27.9696 O   0  0  0  0  0  0  0  0  0  0  0  0
   16.4878   -3.7592  -28.4781 O   0  0  0  0  0  0  0  0  0  0  0  0
   20.5470   -7.2343  -37.0834 P   0  0  2  0  0  0  0  0  0  0  0  0
   28.0851   -5.8605  -36.9672 H   0  0  0  0  0  0  0  0  0  0  0  0
   27.0263   -2.3751  -34.7444 H   0  0  0  0  0  0  0  0  0  0  0  0
   25.4359   -2.7379  -32.9303 H   0  0  0  0  0  0  0  0  0  0  0  0
   24.1319   -2.7999  -34.2219 H   0  0  0  0  0  0  0  0  0  0  0  0
   21.9114   -3.3717  -29.0729 H   0  0  0  0  0  0  0  0  0  0  0  0
   24.2720   -9.8525  -35.1191 H   0  0  0  0  0  0  0  0  0  0  0  0
   25.1737   -7.6421  -34.4171 H   0  0  0  0  0  0  0  0  0  0  0  0
   27.1366   -7.7567  -36.5598 H   0  0  0  0  0  0  0  0  0  0  0  0
   24.0034   -9.0173  -37.8448 H   0  0  0  0  0  0  0  0  0  0  0  0
   22.6891   -8.4600  -35.3524 H   0  0  0  0  0  0  0  0  0  0  0  0
   22.9434   -6.8557  -36.0674 H   0  0  0  0  0  0  0  0  0  0  0  0
   28.5256   -3.5339  -36.3298 H   0  0  0  0  0  0  0  0  0  0  0  0
   24.7014   -6.0017  -34.5322 H   0  0  0  0  0  0  0  0  0  0  0  0
   19.8917   -2.6487  -27.8263 H   0  0  0  0  0  0  0  0  0  0  0  0
   17.4114   -4.2859  -30.9204 H   0  0  0  0  0  0  0  0  0  0  0  0
   19.4436   -5.0082  -32.1848 H   0  0  0  0  0  0  0  0  0  0  0  0
   24.2864   -5.1705  -32.5320 H   0  0  0  0  0  0  0  0  0  0  0  0
   22.3626   -5.5245  -31.2393 H   0  0  0  0  0  0  0  0  0  0  0  0
   26.1529  -10.8625  -35.7056 H   0  0  0  0  0  0  0  0  0  0  0  0
   26.6321   -8.6639  -33.4882 H   0  0  0  0  0  0  0  0  0  0  0  0
  1 12  2  0
  1 19  1  0
  2 12  1  0
  2 13  2  0
  3 13  1  0
  3 20  1  0
  4 20  1  0
  4 21  1  0
  4 30  2  0
  5 15  2  0
  5 16  1  0
  6 16  2  0
  6 17  1  0
  6 22  1  0
  7  8  1  0
  7 10  1  0
  7 23  1  0
  8  9  1  0
  8 24  1  0
  9 19  1  0
  9 25  1  0
 10 11  1  0
 10 25  1  0
 11 26  1  0
 13 14  1  0
 14 19  2  0
 15 18  1  0
 15 21  1  0
 17 18  2  0
 22 31  1  0
 22 32  2  0
 26 33  1  0
 33 27  1  1
 28 33  2  0
 29 33  1  0
  1 34  1  0
  2 35  1  0
  3 36  1  0
  3 37  1  0
  5 38  1  0
  7 39  1  1
  8 40  1  1
  9 41  1  6
 10 42  1  6
 11 43  1  0
 11 44  1  0
 12 45  1  0
 14 46  1  0
 16 47  1  0
 17 48  1  0
 18 49  1  0
 20 50  1  0
 21 51  1  0
 23 52  1  0
 24 53  1  0
M  CHG  5  19   1  22   1  27  -1  29  -1  31  -1
M  END
>  <filename_input>  (21) 
7M6K_YRJ_docked.sdf

>  <pdb_id>  (21) 
7M6K_YRJ

>  <pose_rank>  (21) 
20

>  <num_atoms_heavy>  (21) 
33

>  <num_torsions>  (21) 
8

>  <pose>  (21) 
[27.408907575859743, -5.350885654661935, -36.265093792267635, -0.16797671268016798, -3.2534030181963765, 0.31792798378812487, 1.184390303578549, 0.8588217692202623, 0.06325969508366089, -1.698415378608253, -0.013932852415574654, 0.03430504179760242, -0.8033921137564897, -2.7529790934050857]

>  <energy>  (21) 
-631.844568375584

>  <inter_energy>  (21) 
-637.625004276072

>  <intra_energy>  (21) 
0.07458305994325823

>  <rmsd>  (21) 
9.47286

>  <sdf_rank>  (21) 
0

$$$$

     RDKit          3D

 53 55  0  0  0  0  0  0  0  0999 V2000
   33.7286   -7.9786  -36.9069 C   0  0  0  0  0  0  0  0  0  0  0  0
   31.7948   -6.6393  -36.7987 C   0  0  0  0  0  0  0  0  0  0  0  0
   29.6571   -7.3955  -37.8409 C   0  0  0  0  0  0  0  0  0  0  0  0
   27.9356   -7.0221  -36.1359 C   0  0  0  0  0  0  0  0  0  0  0  0
   25.3356   -5.2479  -34.0595 C   0  0  0  0  0  0  0  0  0  0  0  0
   24.0657   -6.7100  -32.6924 C   0  0  0  0  0  0  0  0  0  0  0  0
   34.5870  -11.3932  -39.7089 C   0  0  1  0  0  0  0  0  0  0  0  0
   33.3722  -10.7070  -39.1132 C   0  0  2  0  0  0  0  0  0  0  0  0
   33.8069  -10.1362  -37.9396 C   0  0  2  0  0  0  0  0  0  0  0  0
   35.6991  -10.3350  -39.3129 C   0  0  1  0  0  0  0  0  0  0  0  0
   35.7823   -9.3376  -40.4956 C   0  0  0  0  0  0  0  0  0  0  0  0
   33.0976   -6.8341  -36.5192 C   0  0  0  0  0  0  0  0  0  0  0  0
   31.1540   -7.6554  -37.4848 C   0  0  0  0  0  0  0  0  0  0  0  0
   31.8242   -8.7925  -37.8617 C   0  0  0  0  0  0  0  0  0  0  0  0
   26.1607   -6.3069  -34.4205 C   0  0  0  0  0  0  0  0  0  0  0  0
   24.2736   -5.4633  -33.2100 C   0  0  0  0  0  0  0  0  0  0  0  0
   24.9114   -7.7574  -33.0174 C   0  0  0  0  0  0  0  0  0  0  0  0
   25.9846   -7.5460  -33.8775 C   0  0  0  0  0  0  0  0  0  0  0  0
   33.0710   -8.9224  -37.5770 N   0  0  0  0  0  0  0  0  0  0  0  0
   28.9896   -6.4811  -36.9769 N   0  0  0  0  0  0  0  0  0  0  0  0
   27.2783   -5.9806  -35.2866 N   0  0  0  0  0  0  0  0  0  0  0  0
   22.9696   -6.9137  -31.8046 N   0  0  0  0  0  0  0  0  0  0  0  0
   34.8642  -12.6519  -39.0997 O   0  0  0  0  0  0  0  0  0  0  0  0
   32.3543  -11.6024  -38.9128 O   0  0  0  0  0  0  0  0  0  0  0  0
   35.3126   -9.7094  -38.2152 O   0  0  0  0  0  0  0  0  0  0  0  0
   36.1417   -8.1034  -39.9490 O   0  0  0  0  0  0  0  0  0  0  0  0
   33.7553   -7.2301  -40.3872 O   0  0  0  0  0  0  0  0  0  0  0  0
   35.6091   -6.5282  -41.9033 O   0  0  0  0  0  0  0  0  0  0  0  0
   35.6062   -5.6895  -39.5508 O   0  0  0  0  0  0  0  0  0  0  0  0
   27.6744   -8.1656  -36.1282 O   0  0  0  0  0  0  0  0  0  0  0  0
   21.7208   -6.4272  -32.1365 O   0  0  0  0  0  0  0  0  0  0  0  0
   23.1254   -7.5194  -30.8204 O   0  0  0  0  0  0  0  0  0  0  0  0
   35.2360   -6.8325  -40.4646 P   0  0  2  0  0  0  0  0  0  0  0  0
   34.7915   -8.1237  -36.6637 H   0  0  0  0  0  0  0  0  0  0  0  0
   31.2683   -5.7216  -36.4977 H   0  0  0  0  0  0  0  0  0  0  0  0
   29.6130   -6.9943  -38.8642 H   0  0  0  0  0  0  0  0  0  0  0  0
   29.1399   -8.3601  -37.7314 H   0  0  0  0  0  0  0  0  0  0  0  0
   25.5308   -4.2391  -34.4521 H   0  0  0  0  0  0  0  0  0  0  0  0
   34.4917  -11.6301  -40.7789 H   0  0  0  0  0  0  0  0  0  0  0  0
   32.9577   -9.9414  -39.7856 H   0  0  0  0  0  0  0  0  0  0  0  0
   33.6708  -10.8552  -37.1184 H   0  0  0  0  0  0  0  0  0  0  0  0
   36.6766  -10.8026  -39.1233 H   0  0  0  0  0  0  0  0  0  0  0  0
   36.5420   -9.6685  -41.2191 H   0  0  0  0  0  0  0  0  0  0  0  0
   34.8225   -9.2721  -41.0290 H   0  0  0  0  0  0  0  0  0  0  0  0
   33.6585   -6.0617  -35.9724 H   0  0  0  0  0  0  0  0  0  0  0  0
   31.2963   -9.5897  -38.4054 H   0  0  0  0  0  0  0  0  0  0  0  0
   23.5966   -4.6363  -32.9498 H   0  0  0  0  0  0  0  0  0  0  0  0
   24.7346   -8.7576  -32.5951 H   0  0  0  0  0  0  0  0  0  0  0  0
   26.6796   -8.3646  -34.1158 H   0  0  0  0  0  0  0  0  0  0  0  0
   29.2423   -5.4830  -36.9494 H   0  0  0  0  0  0  0  0  0  0  0  0
   27.6263   -5.0117  -35.3174 H   0  0  0  0  0  0  0  0  0  0  0  0
   34.8425  -12.5537  -38.1148 H   0  0  0  0  0  0  0  0  0  0  0  0
   32.2116  -11.7279  -37.9412 H   0  0  0  0  0  0  0  0  0  0  0  0
  1 12  2  0
  1 19  1  0
  2 12  1  0
  2 13  2  0
  3 13  1  0
  3 20  1  0
  4 20  1  0
  4 21  1  0
  4 30  2  0
  5 15  2  0
  5 16  1  0
  6 16  2  0
  6 17  1  0
  6 22  1  0
  7  8  1  0
  7 10  1  0
  7 23  1  0
  8  9  1  0
  8 24  1  0
  9 19  1  0
  9 25  1  0
 10 11  1  0
 10 25  1  0
 11 26  1  0
 13 14  1  0
 14 19  2  0
 15 18  1  0
 15 21  1  0
 17 18  2  0
 22 31  1  0
 22 32  2  0
 26 33  1  0
 33 27  1  6
 28 33  2  0
 29 33  1  0
  1 34  1  0
  2 35  1  0
  3 36  1  0
  3 37  1  0
  5 38  1  0
  7 39  1  6
  8 40  1  6
  9 41  1  1
 10 42  1  1
 11 43  1  0
 11 44  1  0
 12 45  1  0
 14 46  1  0
 16 47  1  0
 17 48  1  0
 18 49  1  0
 20 50  1  0
 21 51  1  0
 23 52  1  0
 24 53  1  0
M  CHG  5  19   1  22   1  27  -1  29  -1  31  -1
M  END
>  <filename_input>  (22) 
7M6K_YRJ_docked.sdf

>  <pdb_id>  (22) 
7M6K_YRJ

>  <pose_rank>  (22) 
21

>  <num_atoms_heavy>  (22) 
33

>  <num_torsions>  (22) 
8

>  <pose>  (22) 
[33.72856640274436, -7.978628180510972, -36.906912456567674, 0.2924859130367083, -4.309801011249178, -0.21391062301649438, 2.4299660582615434, -0.525520411780497, 0.467601841350003, -0.12999994045036503, -3.9442238441226762, 0.7907673028123534, -2.0285459487455735, 3.5893911680135067]

>  <energy>  (22) 
-492.7083206115794

>  <inter_energy>  (22) 
-510.0125686388447

>  <intra_energy>  (22) 
26.12888551111992

>  <rmsd>  (22) 
10.5056

>  <sdf_rank>  (22) 
0

$$$$

     RDKit          3D

 53 55  0  0  0  0  0  0  0  0999 V2000
   29.7691   -5.9636  -38.3076 C   0  0  0  0  0  0  0  0  0  0  0  0
   27.5127   -6.4834  -37.8796 C   0  0  0  0  0  0  0  0  0  0  0  0
   26.8537   -8.7549  -37.0836 C   0  0  0  0  0  0  0  0  0  0  0  0
   25.3507   -8.1166  -35.2551 C   0  0  0  0  0  0  0  0  0  0  0  0
   24.1564   -7.2720  -31.7721 C   0  0  0  0  0  0  0  0  0  0  0  0
   21.9565   -6.3902  -31.7302 C   0  0  0  0  0  0  0  0  0  0  0  0
   33.3265   -8.1444  -39.3362 C   0  0  1  0  0  0  0  0  0  0  0  0
   31.9119   -8.4649  -38.8916 C   0  0  2  0  0  0  0  0  0  0  0  0
   31.5811   -7.4918  -37.9774 C   0  0  2  0  0  0  0  0  0  0  0  0
   33.2369   -6.5617  -39.3554 C   0  0  1  0  0  0  0  0  0  0  0  0
   32.7852   -6.1752  -40.7862 C   0  0  0  0  0  0  0  0  0  0  0  0
   28.4536   -5.6073  -38.2805 C   0  0  0  0  0  0  0  0  0  0  0  0
   27.9598   -7.7369  -37.5022 C   0  0  0  0  0  0  0  0  0  0  0  0
   29.2932   -8.0599  -37.5464 C   0  0  0  0  0  0  0  0  0  0  0  0
   24.0283   -7.5190  -33.1342 C   0  0  0  0  0  0  0  0  0  0  0  0
   23.1208   -6.6850  -31.0801 C   0  0  0  0  0  0  0  0  0  0  0  0
   21.8111   -6.6738  -33.0778 C   0  0  0  0  0  0  0  0  0  0  0  0
   22.8554   -7.2646  -33.7827 C   0  0  0  0  0  0  0  0  0  0  0  0
   30.1483   -7.1875  -37.9465 N   0  0  0  0  0  0  0  0  0  0  0  0
   26.5670   -8.7825  -35.6889 N   0  0  0  0  0  0  0  0  0  0  0  0
   25.1526   -8.1769  -33.7735 N   0  0  0  0  0  0  0  0  0  0  0  0
   20.8895   -5.7943  -30.9969 N   0  0  0  0  0  0  0  0  0  0  0  0
   34.3105   -8.5717  -38.3974 O   0  0  0  0  0  0  0  0  0  0  0  0
   31.8404   -9.7263  -38.3607 O   0  0  0  0  0  0  0  0  0  0  0  0
   32.3304   -6.1811  -38.4727 O   0  0  0  0  0  0  0  0  0  0  0  0
   33.4527   -4.9907  -41.1064 O   0  0  0  0  0  0  0  0  0  0  0  0
   35.4268   -6.5979  -41.5183 O   0  0  0  0  0  0  0  0  0  0  0  0
   35.6984   -4.7226  -39.8942 O   0  0  0  0  0  0  0  0  0  0  0  0
   35.4861   -4.1795  -42.3227 O   0  0  0  0  0  0  0  0  0  0  0  0
   24.6104   -7.6200  -36.0173 O   0  0  0  0  0  0  0  0  0  0  0  0
   21.1716   -4.9009  -29.9826 O   0  0  0  0  0  0  0  0  0  0  0  0
   19.7847   -6.0374  -31.2799 O   0  0  0  0  0  0  0  0  0  0  0  0
   35.0862   -5.1308  -41.2210 P   0  0  2  0  0  0  0  0  0  0  0  0
   30.5248   -5.2326  -38.6312 H   0  0  0  0  0  0  0  0  0  0  0  0
   26.4458   -6.2166  -37.8537 H   0  0  0  0  0  0  0  0  0  0  0  0
   25.9284   -8.4946  -37.6185 H   0  0  0  0  0  0  0  0  0  0  0  0
   27.2368   -9.7532  -37.3417 H   0  0  0  0  0  0  0  0  0  0  0  0
   25.0840   -7.5453  -31.2477 H   0  0  0  0  0  0  0  0  0  0  0  0
   33.6253   -8.6319  -40.2760 H   0  0  0  0  0  0  0  0  0  0  0  0
   31.2029   -8.4629  -39.7326 H   0  0  0  0  0  0  0  0  0  0  0  0
   31.8613   -7.8346  -36.9704 H   0  0  0  0  0  0  0  0  0  0  0  0
   34.1943   -6.0827  -39.1024 H   0  0  0  0  0  0  0  0  0  0  0  0
   33.0568   -6.9688  -41.4978 H   0  0  0  0  0  0  0  0  0  0  0  0
   31.6943   -6.0433  -40.8370 H   0  0  0  0  0  0  0  0  0  0  0  0
   28.1576   -4.5939  -38.5892 H   0  0  0  0  0  0  0  0  0  0  0  0
   29.6288   -9.0618  -37.2406 H   0  0  0  0  0  0  0  0  0  0  0  0
   23.2307   -6.4548  -30.0101 H   0  0  0  0  0  0  0  0  0  0  0  0
   20.8691   -6.4318  -33.5917 H   0  0  0  0  0  0  0  0  0  0  0  0
   22.7370   -7.5222  -34.8455 H   0  0  0  0  0  0  0  0  0  0  0  0
   27.1925   -9.2525  -35.0191 H   0  0  0  0  0  0  0  0  0  0  0  0
   25.8283   -8.6963  -33.1951 H   0  0  0  0  0  0  0  0  0  0  0  0
   33.9744   -8.4257  -37.4777 H   0  0  0  0  0  0  0  0  0  0  0  0
   31.8437   -9.6691  -37.3724 H   0  0  0  0  0  0  0  0  0  0  0  0
  1 12  2  0
  1 19  1  0
  2 12  1  0
  2 13  2  0
  3 13  1  0
  3 20  1  0
  4 20  1  0
  4 21  1  0
  4 30  2  0
  5 15  2  0
  5 16  1  0
  6 16  2  0
  6 17  1  0
  6 22  1  0
  7  8  1  0
  7 10  1  0
  7 23  1  0
  8  9  1  0
  8 24  1  0
  9 19  1  0
  9 25  1  0
 10 11  1  0
 10 25  1  0
 11 26  1  0
 13 14  1  0
 14 19  2  0
 15 18  1  0
 15 21  1  0
 17 18  2  0
 22 31  1  0
 22 32  2  0
 26 33  1  0
 33 27  1  6
 28 33  2  0
 29 33  1  0
  1 34  1  0
  2 35  1  0
  3 36  1  0
  3 37  1  0
  5 38  1  0
  7 39  1  6
  8 40  1  6
  9 41  1  1
 10 42  1  1
 11 43  1  0
 11 44  1  0
 12 45  1  0
 14 46  1  0
 16 47  1  0
 17 48  1  0
 18 49  1  0
 20 50  1  0
 21 51  1  0
 23 52  1  0
 24 53  1  0
M  CHG  5  19   1  22   1  27  -1  29  -1  31  -1
M  END
>  <filename_input>  (23) 
7M6K_YRJ_docked.sdf

>  <pdb_id>  (23) 
7M6K_YRJ

>  <pose_rank>  (23) 
22

>  <num_atoms_heavy>  (23) 
33

>  <num_torsions>  (23) 
8

>  <pose>  (23) 
[29.769136333169175, -5.963603706339649, -38.30763492107891, -1.5575101896029298, 1.9735990241610042, -0.09912210114353673, 3.0053826765408447, -11.918607945621297, -14.930892981980119, -0.5427669680154369, 7.45268632346862, 10.842905638652457, -2.0738871731199704, 3.3707885650198137]

>  <energy>  (23) 
-563.0574347424271

>  <inter_energy>  (23) 
-588.0468831134316

>  <intra_energy>  (23) 
39.15838886747016

>  <rmsd>  (23) 
10.3727

>  <sdf_rank>  (23) 
0

$$$$

     RDKit          3D

 53 55  0  0  0  0  0  0  0  0999 V2000
   26.0181   -3.7233  -34.1724 C   0  0  0  0  0  0  0  0  0  0  0  0
   26.9950   -4.8716  -35.9813 C   0  0  0  0  0  0  0  0  0  0  0  0
   26.0688   -7.0545  -36.7589 C   0  0  0  0  0  0  0  0  0  0  0  0
   23.7399   -7.6676  -37.2174 C   0  0  0  0  0  0  0  0  0  0  0  0
   20.5013   -7.7152  -36.6873 C   0  0  0  0  0  0  0  0  0  0  0  0
   18.6979   -8.1887  -38.1512 C   0  0  0  0  0  0  0  0  0  0  0  0
   22.1031   -5.3066  -32.1363 C   0  0  1  0  0  0  0  0  0  0  0  0
   22.8136   -4.8354  -33.3911 C   0  0  2  0  0  0  0  0  0  0  0  0
   24.0824   -4.4869  -32.9902 C   0  0  2  0  0  0  0  0  0  0  0  0
   23.3070   -6.0538  -31.4252 C   0  0  1  0  0  0  0  0  0  0  0  0
   23.2483   -7.5230  -31.9137 C   0  0  0  0  0  0  0  0  0  0  0  0
   26.9737   -3.8205  -35.1397 C   0  0  0  0  0  0  0  0  0  0  0  0
   26.0039   -5.8206  -35.8059 C   0  0  0  0  0  0  0  0  0  0  0  0
   25.0603   -5.6897  -34.8176 C   0  0  0  0  0  0  0  0  0  0  0  0
   21.3303   -8.5301  -37.4498 C   0  0  0  0  0  0  0  0  0  0  0  0
   19.1882   -7.5316  -37.0589 C   0  0  0  0  0  0  0  0  0  0  0  0
   19.5105   -9.0340  -38.8879 C   0  0  0  0  0  0  0  0  0  0  0  0
   20.8390   -9.2212  -38.5185 C   0  0  0  0  0  0  0  0  0  0  0  0
   25.0924   -4.6701  -34.0356 N   0  0  0  0  0  0  0  0  0  0  0  0
   25.0103   -7.9924  -36.5916 N   0  0  0  0  0  0  0  0  0  0  0  0
   22.6863   -8.6985  -36.9617 N   0  0  0  0  0  0  0  0  0  0  0  0
   17.3333   -7.9978  -38.5152 N   0  0  0  0  0  0  0  0  0  0  0  0
   21.6428   -4.2289  -31.3246 O   0  0  0  0  0  0  0  0  0  0  0  0
   22.1427   -3.7895  -33.9691 O   0  0  0  0  0  0  0  0  0  0  0  0
   24.4382   -5.4902  -31.8105 O   0  0  0  0  0  0  0  0  0  0  0  0
   24.4717   -7.7834  -32.5354 O   0  0  0  0  0  0  0  0  0  0  0  0
   24.9685  -10.2111  -31.8216 O   0  0  0  0  0  0  0  0  0  0  0  0
   25.8410   -9.3787  -34.0065 O   0  0  0  0  0  0  0  0  0  0  0  0
   23.3765   -9.6852  -33.7420 O   0  0  0  0  0  0  0  0  0  0  0  0
   23.5997   -6.7043  -37.8716 O   0  0  0  0  0  0  0  0  0  0  0  0
   16.3914   -8.9423  -38.1586 O   0  0  0  0  0  0  0  0  0  0  0  0
   17.0142   -7.0295  -39.0813 O   0  0  0  0  0  0  0  0  0  0  0  0
   24.6684   -9.3335  -33.0450 P   0  0  2  0  0  0  0  0  0  0  0  0
   26.0119   -2.8541  -33.4984 H   0  0  0  0  0  0  0  0  0  0  0  0
   27.7594   -4.9703  -36.7661 H   0  0  0  0  0  0  0  0  0  0  0  0
   26.0414   -6.6883  -37.7958 H   0  0  0  0  0  0  0  0  0  0  0  0
   26.9985   -7.5884  -36.5128 H   0  0  0  0  0  0  0  0  0  0  0  0
   20.8938   -7.2177  -35.7882 H   0  0  0  0  0  0  0  0  0  0  0  0
   21.1981   -5.9021  -32.3270 H   0  0  0  0  0  0  0  0  0  0  0  0
   22.8530   -5.6177  -34.1633 H   0  0  0  0  0  0  0  0  0  0  0  0
   24.0920   -3.4223  -32.7134 H   0  0  0  0  0  0  0  0  0  0  0  0
   23.2459   -6.0014  -30.3281 H   0  0  0  0  0  0  0  0  0  0  0  0
   23.1035   -8.2018  -31.0603 H   0  0  0  0  0  0  0  0  0  0  0  0
   22.4086   -7.6783  -32.6072 H   0  0  0  0  0  0  0  0  0  0  0  0
   27.7353   -3.0323  -35.2338 H   0  0  0  0  0  0  0  0  0  0  0  0
   24.2793   -6.4547  -34.6954 H   0  0  0  0  0  0  0  0  0  0  0  0
   18.5380   -6.8596  -36.4795 H   0  0  0  0  0  0  0  0  0  0  0  0
   19.1054   -9.5581  -39.7661 H   0  0  0  0  0  0  0  0  0  0  0  0
   21.4826   -9.9151  -39.0791 H   0  0  0  0  0  0  0  0  0  0  0  0
   25.1392   -8.8603  -36.0522 H   0  0  0  0  0  0  0  0  0  0  0  0
   22.9286   -9.5455  -36.4281 H   0  0  0  0  0  0  0  0  0  0  0  0
   21.7449   -4.4681  -30.3694 H   0  0  0  0  0  0  0  0  0  0  0  0
   21.7685   -3.2063  -33.2620 H   0  0  0  0  0  0  0  0  0  0  0  0
  1 12  2  0
  1 19  1  0
  2 12  1  0
  2 13  2  0
  3 13  1  0
  3 20  1  0
  4 20  1  0
  4 21  1  0
  4 30  2  0
  5 15  2  0
  5 16  1  0
  6 16  2  0
  6 17  1  0
  6 22  1  0
  7  8  1  0
  7 10  1  0
  7 23  1  0
  8  9  1  0
  8 24  1  0
  9 19  1  0
  9 25  1  0
 10 11  1  0
 10 25  1  0
 11 26  1  0
 13 14  1  0
 14 19  2  0
 15 18  1  0
 15 21  1  0
 17 18  2  0
 22 31  1  0
 22 32  2  0
 26 33  1  0
 33 27  1  1
 28 33  2  0
 29 33  1  0
  1 34  1  0
  2 35  1  0
  3 36  1  0
  3 37  1  0
  5 38  1  0
  7 39  1  6
  8 40  1  6
  9 41  1  1
 10 42  1  1
 11 43  1  0
 11 44  1  0
 12 45  1  0
 14 46  1  0
 16 47  1  0
 17 48  1  0
 18 49  1  0
 20 50  1  0
 21 51  1  0
 23 52  1  0
 24 53  1  0
M  CHG  5  19   1  22   1  27  -1  29  -1  31  -1
M  END
>  <filename_input>  (24) 
7M6K_YRJ_docked.sdf

>  <pdb_id>  (24) 
7M6K_YRJ

>  <pose_rank>  (24) 
23

>  <num_atoms_heavy>  (24) 
33

>  <num_torsions>  (24) 
8

>  <pose>  (24) 
[26.018096846296878, -3.723342152713145, -34.17242355526572, -0.5216595924253867, 0.015248870795820293, -1.5600790154495665, 1.159281371457183, -7.296187411300932, -0.4297074536824637, -2.2736812151783816, 12.249591986605267, -14.69331512539095, -0.6899962501654459, 1.022598983125842]

>  <energy>  (24) 
-551.6772038629873

>  <inter_energy>  (24) 
-573.2629972251455

>  <intra_energy>  (24) 
23.593500826378982

>  <rmsd>  (24) 
7.29648

>  <sdf_rank>  (24) 
0

$$$$

     RDKit          3D

 53 55  0  0  0  0  0  0  0  0999 V2000
   30.1142   -6.3206  -37.0885 C   0  0  0  0  0  0  0  0  0  0  0  0
   27.9130   -5.7629  -36.4652 C   0  0  0  0  0  0  0  0  0  0  0  0
   25.9842   -6.3286  -37.9442 C   0  0  0  0  0  0  0  0  0  0  0  0
   24.4631   -6.2324  -36.0240 C   0  0  0  0  0  0  0  0  0  0  0  0
   23.1011   -5.4175  -32.8084 C   0  0  0  0  0  0  0  0  0  0  0  0
   21.3384   -6.7749  -31.9898 C   0  0  0  0  0  0  0  0  0  0  0  0
   32.9430   -7.7675  -39.4532 C   0  0  1  0  0  0  0  0  0  0  0  0
   31.8415   -6.7569  -39.1947 C   0  0  2  0  0  0  0  0  0  0  0  0
   30.6812   -7.4894  -39.0985 C   0  0  2  0  0  0  0  0  0  0  0  0
   32.4279   -8.9496  -38.5309 C   0  0  1  0  0  0  0  0  0  0  0  0
   33.0735   -8.7214  -37.1410 C   0  0  0  0  0  0  0  0  0  0  0  0
   29.2356   -5.7566  -36.2119 C   0  0  0  0  0  0  0  0  0  0  0  0
   27.5148   -6.3692  -37.6431 C   0  0  0  0  0  0  0  0  0  0  0  0
   28.4300   -6.9236  -38.5028 C   0  0  0  0  0  0  0  0  0  0  0  0
   22.8037   -5.8189  -34.1057 C   0  0  0  0  0  0  0  0  0  0  0  0
   22.3469   -5.8842  -31.7551 C   0  0  0  0  0  0  0  0  0  0  0  0
   21.0674   -7.2087  -33.2767 C   0  0  0  0  0  0  0  0  0  0  0  0
   21.8247   -6.7383  -34.3452 C   0  0  0  0  0  0  0  0  0  0  0  0
   29.6823   -6.8812  -38.2160 N   0  0  0  0  0  0  0  0  0  0  0  0
   25.2215   -5.5299  -37.0449 N   0  0  0  0  0  0  0  0  0  0  0  0
   23.6753   -5.3101  -35.1484 N   0  0  0  0  0  0  0  0  0  0  0  0
   20.5752   -7.2580  -30.8875 N   0  0  0  0  0  0  0  0  0  0  0  0
   32.9963   -8.1903  -40.8136 O   0  0  0  0  0  0  0  0  0  0  0  0
   31.7888   -5.8242  -40.1974 O   0  0  0  0  0  0  0  0  0  0  0  0
   31.1122   -8.8703  -38.4410 O   0  0  0  0  0  0  0  0  0  0  0  0
   34.3200   -8.1355  -37.3741 O   0  0  0  0  0  0  0  0  0  0  0  0
   36.5109   -8.1895  -36.0152 O   0  0  0  0  0  0  0  0  0  0  0  0
   36.3689   -9.4696  -38.1527 O   0  0  0  0  0  0  0  0  0  0  0  0
   35.0088  -10.2405  -36.2050 O   0  0  0  0  0  0  0  0  0  0  0  0
   24.5105   -7.3987  -35.9093 O   0  0  0  0  0  0  0  0  0  0  0  0
   20.7884   -6.7368  -29.6268 O   0  0  0  0  0  0  0  0  0  0  0  0
   19.7518   -8.0652  -31.0617 O   0  0  0  0  0  0  0  0  0  0  0  0
   35.6064   -9.0475  -36.9109 P   0  0  2  0  0  0  0  0  0  0  0  0
   31.1905   -6.3125  -36.8618 H   0  0  0  0  0  0  0  0  0  0  0  0
   27.1881   -5.3103  -35.7725 H   0  0  0  0  0  0  0  0  0  0  0  0
   25.8453   -5.9288  -38.9595 H   0  0  0  0  0  0  0  0  0  0  0  0
   25.6179   -7.3596  -37.8309 H   0  0  0  0  0  0  0  0  0  0  0  0
   23.9379   -4.7279  -32.6235 H   0  0  0  0  0  0  0  0  0  0  0  0
   33.9568   -7.3914  -39.2511 H   0  0  0  0  0  0  0  0  0  0  0  0
   32.0143   -6.1827  -38.2725 H   0  0  0  0  0  0  0  0  0  0  0  0
   30.2248   -7.5722  -40.0959 H   0  0  0  0  0  0  0  0  0  0  0  0
   32.6923   -9.9403  -38.9293 H   0  0  0  0  0  0  0  0  0  0  0  0
   32.4456   -8.0508  -36.5358 H   0  0  0  0  0  0  0  0  0  0  0  0
   33.1756   -9.6676  -36.5895 H   0  0  0  0  0  0  0  0  0  0  0  0
   29.6108   -5.2915  -35.2884 H   0  0  0  0  0  0  0  0  0  0  0  0
   28.0930   -7.4025  -39.4340 H   0  0  0  0  0  0  0  0  0  0  0  0
   22.5554   -5.5417  -30.7308 H   0  0  0  0  0  0  0  0  0  0  0  0
   20.2526   -7.9259  -33.4545 H   0  0  0  0  0  0  0  0  0  0  0  0
   21.6369   -7.1018  -35.3662 H   0  0  0  0  0  0  0  0  0  0  0  0
   25.2082   -4.5024  -37.1150 H   0  0  0  0  0  0  0  0  0  0  0  0
   23.7531   -4.2927  -35.2885 H   0  0  0  0  0  0  0  0  0  0  0  0
   33.1199   -9.1719  -40.8494 H   0  0  0  0  0  0  0  0  0  0  0  0
   31.7376   -4.9178  -39.8026 H   0  0  0  0  0  0  0  0  0  0  0  0
  1 12  2  0
  1 19  1  0
  2 12  1  0
  2 13  2  0
  3 13  1  0
  3 20  1  0
  4 20  1  0
  4 21  1  0
  4 30  2  0
  5 15  2  0
  5 16  1  0
  6 16  2  0
  6 17  1  0
  6 22  1  0
  7  8  1  0
  7 10  1  0
  7 23  1  0
  8  9  1  0
  8 24  1  0
  9 19  1  0
  9 25  1  0
 10 11  1  0
 10 25  1  0
 11 26  1  0
 13 14  1  0
 14 19  2  0
 15 18  1  0
 15 21  1  0
 17 18  2  0
 22 31  1  0
 22 32  2  0
 26 33  1  0
 33 27  1  1
 28 33  2  0
 29 33  1  0
  1 34  1  0
  2 35  1  0
  3 36  1  0
  3 37  1  0
  5 38  1  0
  7 39  1  1
  8 40  1  1
  9 41  1  6
 10 42  1  6
 11 43  1  0
 11 44  1  0
 12 45  1  0
 14 46  1  0
 16 47  1  0
 17 48  1  0
 18 49  1  0
 20 50  1  0
 21 51  1  0
 23 52  1  0
 24 53  1  0
M  CHG  5  19   1  22   1  27  -1  29  -1  31  -1
M  END
>  <filename_input>  (25) 
7M6K_YRJ_docked.sdf

>  <pdb_id>  (25) 
7M6K_YRJ

>  <pose_rank>  (25) 
24

>  <num_atoms_heavy>  (25) 
33

>  <num_torsions>  (25) 
8

>  <pose>  (25) 
[30.114185743217394, -6.320646817935554, -37.08847249056293, 0.022109508851651218, -3.9241797678689516, -1.7707700154743953, -1.9551420463423557, -3.690171577326193, 0.7608289900912336, -3.1821072206592724, 2.9138327375951314, 0.9696916271160905, -3.4666518444229775, 2.8588086045564807]

>  <energy>  (25) 
-499.75192002868414

>  <inter_energy>  (25) 
-509.3099363008607

>  <intra_energy>  (25) 
9.821404961984197

>  <rmsd>  (25) 
10.0439

>  <sdf_rank>  (25) 
0

$$$$

     RDKit          3D

 53 55  0  0  0  0  0  0  0  0999 V2000
   22.8770   -5.4090  -31.1150 C   0  0  0  0  0  0  0  0  0  0  0  0
   23.4320   -3.8140  -32.7560 C   0  0  0  0  0  0  0  0  0  0  0  0
   25.2280   -4.2720  -34.4270 C   0  0  0  0  0  0  0  0  0  0  0  0
   26.9980   -4.9980  -35.9600 C   0  0  0  0  0  0  0  0  0  0  0  0
   28.6840   -4.8880  -38.4150 C   0  0  0  0  0  0  0  0  0  0  0  0
   30.6680   -5.6540  -39.4620 C   0  0  0  0  0  0  0  0  0  0  0  0
   23.4190   -9.8070  -31.1400 C   0  0  1  0  0  0  0  0  0  0  0  0
   22.8500   -8.4020  -31.2010 C   0  0  2  0  0  0  0  0  0  0  0  0
   23.9070   -7.5620  -30.9380 C   0  0  2  0  0  0  0  0  0  0  0  0
   24.8370   -9.5380  -31.7960 C   0  0  1  0  0  0  0  0  0  0  0  0
   24.6550   -9.7640  -33.3180 C   0  0  0  0  0  0  0  0  0  0  0  0
   22.6980   -4.1860  -31.6900 C   0  0  0  0  0  0  0  0  0  0  0  0
   24.3540   -4.7350  -33.2200 C   0  0  0  0  0  0  0  0  0  0  0  0
   24.5080   -5.9560  -32.6120 C   0  0  0  0  0  0  0  0  0  0  0  0
   28.6660   -6.0290  -37.6210 C   0  0  0  0  0  0  0  0  0  0  0  0
   29.7040   -4.6970  -39.3200 C   0  0  0  0  0  0  0  0  0  0  0  0
   30.6290   -6.8110  -38.7020 C   0  0  0  0  0  0  0  0  0  0  0  0
   29.6020   -7.0080  -37.7840 C   0  0  0  0  0  0  0  0  0  0  0  0
   23.7870   -6.2560  -31.5910 N   0  0  0  0  0  0  0  0  0  0  0  0
   25.8240   -5.3300  -35.1710 N   0  0  0  0  0  0  0  0  0  0  0  0
   27.5330   -6.1670  -36.7250 N   0  0  0  0  0  0  0  0  0  0  0  0
   31.7100   -5.4470  -40.4120 N   0  0  0  0  0  0  0  0  0  0  0  0
   23.5750  -10.2820  -29.8050 O   0  0  0  0  0  0  0  0  0  0  0  0
   21.8260   -8.2500  -30.3030 O   0  0  0  0  0  0  0  0  0  0  0  0
   25.1790   -8.2840  -31.5590 O   0  0  0  0  0  0  0  0  0  0  0  0
   25.8950   -9.5080  -33.9080 O   0  0  0  0  0  0  0  0  0  0  0  0
   24.8540   -8.0020  -35.7240 O   0  0  0  0  0  0  0  0  0  0  0  0
   25.3370  -10.3930  -36.2510 O   0  0  0  0  0  0  0  0  0  0  0  0
   27.2570   -8.8350  -35.8990 O   0  0  0  0  0  0  0  0  0  0  0  0
   27.4670   -3.9230  -35.9510 O   0  0  0  0  0  0  0  0  0  0  0  0
   32.4140   -6.5290  -40.9020 O   0  0  0  0  0  0  0  0  0  0  0  0
   31.9390   -4.3700  -40.7960 O   0  0  0  0  0  0  0  0  0  0  0  0
   25.8350   -9.1640  -35.5140 P   0  0  2  0  0  0  0  0  0  0  0  0
   22.2635   -5.6988  -30.2492 H   0  0  0  0  0  0  0  0  0  0  0  0
   23.3052   -2.8306  -33.2322 H   0  0  0  0  0  0  0  0  0  0  0  0
   24.5900   -3.6907  -35.1089 H   0  0  0  0  0  0  0  0  0  0  0  0
   26.0564   -3.6851  -34.0035 H   0  0  0  0  0  0  0  0  0  0  0  0
   27.8843   -4.1386  -38.3204 H   0  0  0  0  0  0  0  0  0  0  0  0
   22.7901  -10.5697  -31.6226 H   0  0  0  0  0  0  0  0  0  0  0  0
   22.4108   -8.1753  -32.1837 H   0  0  0  0  0  0  0  0  0  0  0  0
   23.9595   -7.3790  -29.8546 H   0  0  0  0  0  0  0  0  0  0  0  0
   25.6197  -10.1966  -31.3915 H   0  0  0  0  0  0  0  0  0  0  0  0
   24.3479  -10.8019  -33.5140 H   0  0  0  0  0  0  0  0  0  0  0  0
   23.8758   -9.1045  -33.7277 H   0  0  0  0  0  0  0  0  0  0  0  0
   21.9463   -3.4960  -31.2790 H   0  0  0  0  0  0  0  0  0  0  0  0
   25.2458   -6.6752  -32.9972 H   0  0  0  0  0  0  0  0  0  0  0  0
   29.7422   -3.7791  -39.9250 H   0  0  0  0  0  0  0  0  0  0  0  0
   31.4108   -7.5751  -38.8242 H   0  0  0  0  0  0  0  0  0  0  0  0
   29.5458   -7.9380  -37.1993 H   0  0  0  0  0  0  0  0  0  0  0  0
   25.4407   -6.2858  -35.1507 H   0  0  0  0  0  0  0  0  0  0  0  0
   27.0878   -7.0891  -36.6134 H   0  0  0  0  0  0  0  0  0  0  0  0
   23.3384   -9.5615  -29.1686 H   0  0  0  0  0  0  0  0  0  0  0  0
   22.1844   -8.3032  -29.3817 H   0  0  0  0  0  0  0  0  0  0  0  0
  1 12  2  0
  1 19  1  0
  2 12  1  0
  2 13  2  0
  3 13  1  0
  3 20  1  0
  4 20  1  0
  4 21  1  0
  4 30  2  0
  5 15  2  0
  5 16  1  0
  6 16  2  0
  6 17  1  0
  6 22  1  0
  7  8  1  0
  7 10  1  0
  7 23  1  0
  8  9  1  0
  8 24  1  0
  9 19  1  0
  9 25  1  0
 10 11  1  0
 10 25  1  0
 11 26  1  0
 13 14  1  0
 14 19  2  0
 15 18  1  0
 15 21  1  0
 17 18  2  0
 22 31  1  0
 22 32  2  0
 26 33  1  0
 33 27  1  1
 28 33  2  0
 29 33  1  0
  1 34  1  0
  2 35  1  0
  3 36  1  0
  3 37  1  0
  5 38  1  0
  7 39  1  6
  8 40  1  6
  9 41  1  1
 10 42  1  1
 11 43  1  0
 11 44  1  0
 12 45  1  0
 14 46  1  0
 16 47  1  0
 17 48  1  0
 18 49  1  0
 20 50  1  0
 21 51  1  0
 23 52  1  0
 24 53  1  0
M  CHG  5  19   1  22   1  27  -1  29  -1  31  -1
M  END
>  <filename_input>  (26) 
7M6K_YRJ_docked.sdf

>  <pdb_id>  (26) 
7M6K_YRJ

>  <pose_rank>  (26) 
25

>  <num_atoms_heavy>  (26) 
33

>  <num_torsions>  (26) 
8

>  <pose>  (26) 
[22.877, -5.409, -31.115, 1e-06, 1e-06, 1e-06, 0.0, 0.0, 0.0, 0.0, 0.0, 0.0, 0.0, 0.0]

>  <energy>  (26) 
-921.1396068952688

>  <inter_energy>  (26) 
-972.2994009575815

>  <intra_energy>  (26) 
48.82425186705042

>  <rmsd>  (26) 
0.0

>  <sdf_rank>  (26) 
0

$$$$
