
     RDKit          3D

 79 82  0  0  0  0  0  0  0  0999 V2000
  -78.8179   -8.1588   19.2693 O   0  0  0  0  0  0  0  0  0  0  0  0
  -79.4542   -9.1571   19.7139 C   0  0  0  0  0  0  0  0  0  0  0  0
  -79.6741  -10.2950   18.9295 C   0  0  0  0  0  0  0  0  0  0  0  0
  -80.4049  -11.3620   19.4674 C   0  0  0  0  0  0  0  0  0  0  0  0
  -79.9485   -9.1474   20.9663 N   0  0  0  0  0  0  0  0  0  0  0  0
  -80.6936  -10.1464   21.4692 C   0  0  0  0  0  0  0  0  0  0  0  0
  -81.1502  -10.0556   22.6225 O   0  0  0  0  0  0  0  0  0  0  0  0
  -80.9429  -11.3082   20.7115 N   0  0  0  0  0  0  0  0  0  0  0  0
  -81.7516  -12.4112   21.2567 C   0  0  2  0  0  0  0  0  0  0  0  0
  -81.2972  -13.6838   20.8040 O   0  0  0  0  0  0  0  0  0  0  0  0
  -83.1646  -12.3337   20.6651 C   0  0  2  0  0  0  0  0  0  0  0  0
  -84.0993  -11.4404   21.3099 O   0  0  0  0  0  0  0  0  0  0  0  0
  -83.6543  -13.7460   20.7723 C   0  0  2  0  0  0  0  0  0  0  0  0
  -84.1756  -14.0030   22.0979 O   0  0  0  0  0  0  0  0  0  0  0  0
  -82.3849  -14.5693   20.6564 C   0  0  1  0  0  0  0  0  0  0  0  0
  -82.2465  -15.2578   19.3226 C   0  0  0  0  0  0  0  0  0  0  0  0
  -81.3181  -14.5721   18.5106 O   0  0  0  0  0  0  0  0  0  0  0  0
  -79.8147  -15.0665   18.3931 P   0  0  1  0  0  0  0  0  0  0  0  0
  -78.8060  -13.9549   18.4672 O   0  0  0  0  0  0  0  0  0  0  0  0
  -79.5209  -16.1487   19.3645 O   0  0  0  0  0  0  0  0  0  0  0  0
  -79.8078  -15.7559   16.9193 O   0  0  0  0  0  0  0  0  0  0  0  0
  -79.3404  -17.2103   16.4223 P   0  0  1  0  0  0  0  0  0  0  0  0
  -79.7405  -18.2803   17.4297 O   0  0  0  0  0  0  0  0  0  0  0  0
  -79.6615  -17.4836   15.0133 O   0  0  0  0  0  0  0  0  0  0  0  0
  -77.7176  -17.0748   16.3940 O   0  0  0  0  0  0  0  0  0  0  0  0
  -77.1842  -16.1270   17.2969 C   0  0  1  0  0  0  0  0  0  0  0  0
  -76.6806  -16.8767   18.3932 O   0  0  0  0  0  0  0  0  0  0  0  0
  -75.5374  -17.6832   18.0464 C   0  0  2  0  0  0  0  0  0  0  0  0
  -75.2479  -18.6177   19.2056 C   0  0  0  0  0  0  0  0  0  0  0  0
  -74.3745  -16.7917   17.6525 C   0  0  2  0  0  0  0  0  0  0  0  0
  -74.7483  -15.8683   16.4745 C   0  0  2  0  0  0  0  0  0  0  0  0
  -73.7625  -14.8188   16.4117 O   0  0  0  0  0  0  0  0  0  0  0  0
  -76.1143  -15.2069   16.6547 C   0  0  1  0  0  0  0  0  0  0  0  0
  -76.5811  -14.6722   15.4168 O   0  0  0  0  0  0  0  0  0  0  0  0
  -73.2492  -17.6847   17.3277 N   0  0  0  0  0  0  0  0  0  0  0  0
  -72.0336  -17.3665   17.3627 C   0  0  0  0  0  0  0  0  0  0  0  0
  -71.0292  -18.3708   17.0808 C   0  0  0  0  0  0  0  0  0  0  0  0
  -70.6616  -19.3967   18.0935 C   0  0  0  0  0  0  0  0  0  0  0  0
  -71.2410  -19.4550   19.3014 O   0  0  0  0  0  0  0  0  0  0  0  0
  -69.6203  -20.4077   17.7505 C   0  0  0  0  0  0  0  0  0  0  0  0
  -69.2644  -21.4939   18.7381 C   0  0  0  0  0  0  0  0  0  0  0  0
  -70.2884  -18.3898   15.8139 C   0  0  0  0  0  0  0  0  0  0  0  0
  -69.3247  -19.3872   15.6262 C   0  0  0  0  0  0  0  0  0  0  0  0
  -69.0444  -20.3433   16.5476 N   0  0  0  0  0  0  0  0  0  0  0  0
  -70.5522  -17.3893   14.6969 C   0  0  0  0  0  0  0  0  0  0  0  0
  -70.0357  -16.0964   15.0725 O   0  0  0  0  0  0  0  0  0  0  0  0
  -70.8878  -14.8274   14.5768 P   0  0  2  0  0  0  0  0  0  0  0  0
  -70.0128  -14.1351   13.5650 O   0  0  0  0  0  0  0  0  0  0  0  0
  -70.9903  -13.9734   15.8793 O   0  0  0  0  0  0  0  0  0  0  0  0
  -72.2821  -15.1551   14.0996 O   0  0  0  0  0  0  0  0  0  0  0  0
  -79.2785  -10.3508   17.9046 H   0  0  0  0  0  0  0  0  0  0  0  0
  -80.5466  -12.2702   18.8633 H   0  0  0  0  0  0  0  0  0  0  0  0
  -79.7459   -8.3358   21.5674 H   0  0  0  0  0  0  0  0  0  0  0  0
  -81.6974  -12.3160   22.3512 H   0  0  0  0  0  0  0  0  0  0  0  0
  -83.1058  -11.9131   19.6503 H   0  0  0  0  0  0  0  0  0  0  0  0
  -84.0117  -11.5241   22.2924 H   0  0  0  0  0  0  0  0  0  0  0  0
  -84.4340  -13.9618   20.0269 H   0  0  0  0  0  0  0  0  0  0  0  0
  -83.5277  -13.6836   22.7749 H   0  0  0  0  0  0  0  0  0  0  0  0
  -82.4140  -15.3522   21.4286 H   0  0  0  0  0  0  0  0  0  0  0  0
  -81.8976  -16.2889   19.4812 H   0  0  0  0  0  0  0  0  0  0  0  0
  -83.2250  -15.2637   18.8202 H   0  0  0  0  0  0  0  0  0  0  0  0
  -77.9622  -15.4217   17.6246 H   0  0  0  0  0  0  0  0  0  0  0  0
  -75.7315  -18.3116   17.1646 H   0  0  0  0  0  0  0  0  0  0  0  0
  -75.4125  -18.0864   20.1547 H   0  0  0  0  0  0  0  0  0  0  0  0
  -75.9187  -19.4878   19.1515 H   0  0  0  0  0  0  0  0  0  0  0  0
  -74.2028  -18.9564   19.1515 H   0  0  0  0  0  0  0  0  0  0  0  0
  -74.0968  -16.1159   18.4748 H   0  0  0  0  0  0  0  0  0  0  0  0
  -74.7838  -16.4809   15.5616 H   0  0  0  0  0  0  0  0  0  0  0  0
  -73.5089  -14.5488   17.3299 H   0  0  0  0  0  0  0  0  0  0  0  0
  -75.9590  -14.3881   17.3727 H   0  0  0  0  0  0  0  0  0  0  0  0
  -77.2216  -13.9386   15.5948 H   0  0  0  0  0  0  0  0  0  0  0  0
  -71.7358  -16.3356   17.6051 H   0  0  0  0  0  0  0  0  0  0  0  0
  -70.9684  -20.1534   19.9480 H   0  0  0  0  0  0  0  0  0  0  0  0
  -69.3891  -21.1132   19.7626 H   0  0  0  0  0  0  0  0  0  0  0  0
  -69.9259  -22.3594   18.5855 H   0  0  0  0  0  0  0  0  0  0  0  0
  -68.2189  -21.8000   18.5855 H   0  0  0  0  0  0  0  0  0  0  0  0
  -68.7637  -19.3967   14.6801 H   0  0  0  0  0  0  0  0  0  0  0  0
  -70.0547  -17.7288   13.7764 H   0  0  0  0  0  0  0  0  0  0  0  0
  -71.6358  -17.3131   14.5235 H   0  0  0  0  0  0  0  0  0  0  0  0
  1  2  2  0
  2  3  1  0
  2  5  1  0
  3  4  2  0
  4  8  1  0
  5  6  1  0
  6  7  2  0
  6  8  1  0
  9  8  1  0
  9 10  1  0
  9 11  1  0
 10 15  1  0
 11 12  1  0
 11 13  1  0
 13 14  1  0
 13 15  1  0
 15 16  1  0
 16 17  1  0
 17 18  1  0
 18 19  2  0
 18 20  1  1
 18 21  1  0
 21 22  1  0
 22 23  2  0
 22 24  1  6
 22 25  1  0
 26 25  1  0
 26 27  1  0
 26 33  1  0
 27 28  1  0
 28 29  1  0
 28 30  1  0
 30 31  1  0
 30 35  1  0
 31 32  1  0
 31 33  1  0
 33 34  1  0
 35 36  2  3
 36 37  1  0
 37 38  2  0
 37 42  1  0
 38 39  1  0
 38 40  1  0
 40 41  1  0
 40 44  2  0
 42 43  2  0
 42 45  1  0
 43 44  1  0
 45 46  1  0
 46 47  1  0
 47 48  1  6
 47 49  2  0
 47 50  1  0
  3 51  1  0
  4 52  1  0
  5 53  1  0
  9 54  1  1
 11 55  1  6
 12 56  1  0
 13 57  1  6
 14 58  1  0
 15 59  1  1
 16 60  1  0
 16 61  1  0
 26 62  1  1
 28 63  1  6
 29 64  1  0
 29 65  1  0
 29 66  1  0
 30 67  1  1
 31 68  1  6
 32 69  1  0
 33 70  1  1
 34 71  1  0
 36 72  1  0
 39 73  1  0
 41 74  1  0
 41 75  1  0
 41 76  1  0
 43 77  1  0
 45 78  1  0
 45 79  1  0
M  CHG  4  20  -1  24  -1  48  -1  50  -1
M  END
>  <filename_input>  (1) 
7MFP_Z7P_docked.sdf

>  <pdb_id>  (1) 
7MFP_Z7P

>  <pose_rank>  (1) 
0

>  <num_atoms_heavy>  (1) 
50

>  <num_torsions>  (1) 
13

>  <pose>  (1) 
[-77.71755802483132, -17.074820777933223, 16.394003490643616, 5.437097065673534, -2.9293113580553487, 0.8253456426096448, -0.026684825223922244, 1.0356623900945048, -1.2615402406907401, 0.1355547827334604, 0.19749539849909445, 1.0265308666706952, -0.31412782113694837, 1.3457360577221396, 2.2480389000555157, 3.4142610184203432, -2.1902207481899953, 0.6633607845026551, -0.19407922056349075]

>  <energy>  (1) 
-952.1630421827696

>  <inter_energy>  (1) 
-1056.7856288180997

>  <intra_energy>  (1) 
109.06394965447808

>  <rmsd>  (1) 
0.969744

>  <sdf_rank>  (1) 
0

$$$$

     RDKit          3D

 79 82  0  0  0  0  0  0  0  0999 V2000
  -68.1094  -20.9343   14.9930 O   0  0  0  0  0  0  0  0  0  0  0  0
  -68.7044  -19.8684   15.3233 C   0  0  0  0  0  0  0  0  0  0  0  0
  -70.0577  -19.8643   15.6797 C   0  0  0  0  0  0  0  0  0  0  0  0
  -70.6698  -18.6500   16.0152 C   0  0  0  0  0  0  0  0  0  0  0  0
  -68.0444  -18.6948   15.3335 N   0  0  0  0  0  0  0  0  0  0  0  0
  -68.6391  -17.5205   15.6047 C   0  0  0  0  0  0  0  0  0  0  0  0
  -67.9771  -16.4685   15.5600 O   0  0  0  0  0  0  0  0  0  0  0  0
  -70.0010  -17.4710   15.9637 N   0  0  0  0  0  0  0  0  0  0  0  0
  -70.6593  -16.1902   16.2700 C   0  0  2  0  0  0  0  0  0  0  0  0
  -71.8816  -16.3719   16.9800 O   0  0  0  0  0  0  0  0  0  0  0  0
  -71.1293  -15.5449   14.9602 C   0  0  2  0  0  0  0  0  0  0  0  0
  -70.1566  -14.7730   14.2216 O   0  0  0  0  0  0  0  0  0  0  0  0
  -72.2521  -14.6572   15.4041 C   0  0  2  0  0  0  0  0  0  0  0  0
  -71.7384  -13.3954   15.8931 O   0  0  0  0  0  0  0  0  0  0  0  0
  -72.8129  -15.3772   16.6165 C   0  0  1  0  0  0  0  0  0  0  0  0
  -74.1327  -16.0528   16.3447 C   0  0  0  0  0  0  0  0  0  0  0  0
  -74.8571  -16.2151   17.5448 O   0  0  0  0  0  0  0  0  0  0  0  0
  -74.7852  -17.5721   18.3646 P   0  0  1  0  0  0  0  0  0  0  0  0
  -73.7392  -18.5268   17.8615 O   0  0  0  0  0  0  0  0  0  0  0  0
  -74.6538  -17.3211   19.8209 O   0  0  0  0  0  0  0  0  0  0  0  0
  -76.2782  -18.1766   18.1342 O   0  0  0  0  0  0  0  0  0  0  0  0
  -77.3457  -17.9655   16.9524 P   0  0  1  0  0  0  0  0  0  0  0  0
  -76.6446  -17.6125   15.6472 O   0  0  0  0  0  0  0  0  0  0  0  0
  -78.3662  -19.0224   16.8835 O   0  0  0  0  0  0  0  0  0  0  0  0
  -78.2033  -16.6810   17.4695 O   0  0  0  0  0  0  0  0  0  0  0  0
  -79.5859  -16.9195   17.6416 C   0  0  1  0  0  0  0  0  0  0  0  0
  -79.8240  -16.8276   19.0389 O   0  0  0  0  0  0  0  0  0  0  0  0
  -79.6520  -15.4920   19.5531 C   0  0  2  0  0  0  0  0  0  0  0  0
  -79.6796  -15.5608   21.0682 C   0  0  0  0  0  0  0  0  0  0  0  0
  -80.6897  -14.5657   18.9471 C   0  0  2  0  0  0  0  0  0  0  0  0
  -80.6027  -14.5556   17.4068 C   0  0  2  0  0  0  0  0  0  0  0  0
  -81.8237  -13.9782   16.9037 O   0  0  0  0  0  0  0  0  0  0  0  0
  -80.4786  -15.9590   16.8144 C   0  0  1  0  0  0  0  0  0  0  0  0
  -80.0363  -15.8952   15.4593 O   0  0  0  0  0  0  0  0  0  0  0  0
  -80.4569  -13.2329   19.5290 N   0  0  0  0  0  0  0  0  0  0  0  0
  -81.3308  -12.5155   20.0785 C   0  0  0  0  0  0  0  0  0  0  0  0
  -80.9426  -11.2508   20.6674 C   0  0  0  0  0  0  0  0  0  0  0  0
  -80.1727  -10.2437   19.8887 C   0  0  0  0  0  0  0  0  0  0  0  0
  -79.8121  -10.4434   18.6127 O   0  0  0  0  0  0  0  0  0  0  0  0
  -79.7986   -8.9576   20.5444 C   0  0  0  0  0  0  0  0  0  0  0  0
  -79.0637   -7.8942   19.7628 C   0  0  0  0  0  0  0  0  0  0  0  0
  -81.2361  -10.9273   22.0686 C   0  0  0  0  0  0  0  0  0  0  0  0
  -80.8145   -9.6879   22.5634 C   0  0  0  0  0  0  0  0  0  0  0  0
  -80.1575   -8.7651   21.8160 N   0  0  0  0  0  0  0  0  0  0  0  0
  -82.0026  -11.8729   22.9833 C   0  0  0  0  0  0  0  0  0  0  0  0
  -82.5317  -11.1383   24.1057 O   0  0  0  0  0  0  0  0  0  0  0  0
  -84.1241  -11.2133   24.3076 P   0  0  2  0  0  0  0  0  0  0  0  0
  -84.4332  -10.2080   25.3859 O   0  0  0  0  0  0  0  0  0  0  0  0
  -84.3172  -12.6646   24.8484 O   0  0  0  0  0  0  0  0  0  0  0  0
  -84.9261  -11.0571   23.0381 O   0  0  0  0  0  0  0  0  0  0  0  0
  -70.6328  -20.8018   15.6961 H   0  0  0  0  0  0  0  0  0  0  0  0
  -71.7238  -18.6525   16.3299 H   0  0  0  0  0  0  0  0  0  0  0  0
  -67.0360  -18.6972   15.1235 H   0  0  0  0  0  0  0  0  0  0  0  0
  -69.9285  -15.6023   16.8447 H   0  0  0  0  0  0  0  0  0  0  0  0
  -71.3880  -16.3376   14.2428 H   0  0  0  0  0  0  0  0  0  0  0  0
  -69.5606  -14.3001   14.8551 H   0  0  0  0  0  0  0  0  0  0  0  0
  -72.9652  -14.4678   14.5882 H   0  0  0  0  0  0  0  0  0  0  0  0
  -71.7402  -13.3998   16.8831 H   0  0  0  0  0  0  0  0  0  0  0  0
  -72.9822  -14.6323   17.4079 H   0  0  0  0  0  0  0  0  0  0  0  0
  -74.7191  -15.4361   15.6477 H   0  0  0  0  0  0  0  0  0  0  0  0
  -73.9434  -17.0431   15.9048 H   0  0  0  0  0  0  0  0  0  0  0  0
  -79.8594  -17.9137   17.2586 H   0  0  0  0  0  0  0  0  0  0  0  0
  -78.6800  -15.0644   19.2661 H   0  0  0  0  0  0  0  0  0  0  0  0
  -79.2997  -14.6164   21.4851 H   0  0  0  0  0  0  0  0  0  0  0  0
  -80.7129  -15.7226   21.4091 H   0  0  0  0  0  0  0  0  0  0  0  0
  -79.0464  -16.3931   21.4091 H   0  0  0  0  0  0  0  0  0  0  0  0
  -81.7094  -14.9073   19.1785 H   0  0  0  0  0  0  0  0  0  0  0  0
  -79.7068  -13.9845   17.1217 H   0  0  0  0  0  0  0  0  0  0  0  0
  -82.3978  -13.7067   17.6632 H   0  0  0  0  0  0  0  0  0  0  0  0
  -81.4898  -16.3905   16.8504 H   0  0  0  0  0  0  0  0  0  0  0  0
  -79.0567  -15.7540   15.4382 H   0  0  0  0  0  0  0  0  0  0  0  0
  -82.3797  -12.8451   20.1118 H   0  0  0  0  0  0  0  0  0  0  0  0
  -79.2999   -9.7483   18.1285 H   0  0  0  0  0  0  0  0  0  0  0  0
  -78.5802   -7.1946   20.4605 H   0  0  0  0  0  0  0  0  0  0  0  0
  -78.2991   -8.3675   19.1293 H   0  0  0  0  0  0  0  0  0  0  0  0
  -79.7768   -7.3462   19.1293 H   0  0  0  0  0  0  0  0  0  0  0  0
  -81.0273   -9.4486   23.6158 H   0  0  0  0  0  0  0  0  0  0  0  0
  -82.8305  -12.3325   22.4235 H   0  0  0  0  0  0  0  0  0  0  0  0
  -81.3238  -12.6579   23.3481 H   0  0  0  0  0  0  0  0  0  0  0  0
  1  2  2  0
  2  3  1  0
  2  5  1  0
  3  4  2  0
  4  8  1  0
  5  6  1  0
  6  7  2  0
  6  8  1  0
  9  8  1  0
  9 10  1  0
  9 11  1  0
 10 15  1  0
 11 12  1  0
 11 13  1  0
 13 14  1  0
 13 15  1  0
 15 16  1  0
 16 17  1  0
 17 18  1  0
 18 19  2  0
 18 20  1  1
 18 21  1  0
 21 22  1  0
 22 23  2  0
 22 24  1  6
 22 25  1  0
 26 25  1  0
 26 27  1  0
 26 33  1  0
 27 28  1  0
 28 29  1  0
 28 30  1  0
 30 31  1  0
 30 35  1  0
 31 32  1  0
 31 33  1  0
 33 34  1  0
 35 36  2  3
 36 37  1  0
 37 38  2  0
 37 42  1  0
 38 39  1  0
 38 40  1  0
 40 41  1  0
 40 44  2  0
 42 43  2  0
 42 45  1  0
 43 44  1  0
 45 46  1  0
 46 47  1  0
 47 48  1  1
 47 49  2  0
 47 50  1  0
  3 51  1  0
  4 52  1  0
  5 53  1  0
  9 54  1  1
 11 55  1  6
 12 56  1  0
 13 57  1  6
 14 58  1  0
 15 59  1  1
 16 60  1  0
 16 61  1  0
 26 62  1  6
 28 63  1  1
 29 64  1  0
 29 65  1  0
 29 66  1  0
 30 67  1  6
 31 68  1  1
 32 69  1  0
 33 70  1  6
 34 71  1  0
 36 72  1  0
 39 73  1  0
 41 74  1  0
 41 75  1  0
 41 76  1  0
 43 77  1  0
 45 78  1  0
 45 79  1  0
M  CHG  4  20  -1  24  -1  48  -1  50  -1
M  END
>  <filename_input>  (2) 
7MFP_Z7P_docked.sdf

>  <pdb_id>  (2) 
7MFP_Z7P

>  <pose_rank>  (2) 
1

>  <num_atoms_heavy>  (2) 
50

>  <num_torsions>  (2) 
13

>  <pose>  (2) 
[-78.2032698455002, -16.68100071129804, 17.469547296749163, -0.11407180279404076, -1.0261494186661693, 1.771917164680857, 0.16045613396739888, 1.530565966906799, -5.289397524349579, 2.350625893829392, -1.4226015038459272, -0.0020579887898163006, -9.16996830216791, 7.406819816039157, -7.6392455236790004, -25.468626959491917, 13.283862940364548, 27.56011030059338, -0.48611011984229735]

>  <energy>  (2) 
-854.5769004393984

>  <inter_energy>  (2) 
-893.8904630428578

>  <intra_energy>  (2) 
41.39769668217272

>  <rmsd>  (2) 
11.9869

>  <sdf_rank>  (2) 
0

$$$$

     RDKit          3D

 79 82  0  0  0  0  0  0  0  0999 V2000
  -86.7519  -11.6117   13.8954 O   0  0  0  0  0  0  0  0  0  0  0  0
  -86.2318  -11.7658   15.0377 C   0  0  0  0  0  0  0  0  0  0  0  0
  -85.9357  -13.0367   15.5432 C   0  0  0  0  0  0  0  0  0  0  0  0
  -85.3804  -13.1476   16.8242 C   0  0  0  0  0  0  0  0  0  0  0  0
  -85.9531  -10.6980   15.8090 N   0  0  0  0  0  0  0  0  0  0  0  0
  -85.4683  -10.8013   17.0582 C   0  0  0  0  0  0  0  0  0  0  0  0
  -85.2683   -9.7735   17.7296 O   0  0  0  0  0  0  0  0  0  0  0  0
  -85.1606  -12.0621   17.6074 N   0  0  0  0  0  0  0  0  0  0  0  0
  -84.6219  -12.1849   18.9721 C   0  0  2  0  0  0  0  0  0  0  0  0
  -83.3565  -12.8403   18.9921 O   0  0  0  0  0  0  0  0  0  0  0  0
  -85.5071  -13.1478   19.7733 C   0  0  2  0  0  0  0  0  0  0  0  0
  -86.6959  -12.5962   20.3815 O   0  0  0  0  0  0  0  0  0  0  0  0
  -84.5802  -13.6546   20.8363 C   0  0  2  0  0  0  0  0  0  0  0  0
  -84.5177  -12.7222   21.9416 O   0  0  0  0  0  0  0  0  0  0  0  0
  -83.2178  -13.6035   20.1700 C   0  0  1  0  0  0  0  0  0  0  0  0
  -82.6972  -14.9644   19.7837 C   0  0  0  0  0  0  0  0  0  0  0  0
  -81.7268  -14.8477   18.7658 O   0  0  0  0  0  0  0  0  0  0  0  0
  -80.2034  -14.5756   19.1174 P   0  0  1  0  0  0  0  0  0  0  0  0
  -79.8651  -13.1171   19.2482 O   0  0  0  0  0  0  0  0  0  0  0  0
  -79.7720  -15.3543   20.3042 O   0  0  0  0  0  0  0  0  0  0  0  0
  -79.4461  -15.2318   17.8356 O   0  0  0  0  0  0  0  0  0  0  0  0
  -79.2972  -16.7551   17.3473 P   0  0  1  0  0  0  0  0  0  0  0  0
  -80.1492  -17.6830   18.2033 O   0  0  0  0  0  0  0  0  0  0  0  0
  -79.4084  -16.9210   15.8902 O   0  0  0  0  0  0  0  0  0  0  0  0
  -77.7214  -17.0656   17.6180 O   0  0  0  0  0  0  0  0  0  0  0  0
  -77.0232  -16.0446   18.3024 C   0  0  1  0  0  0  0  0  0  0  0  0
  -76.2569  -16.7020   19.3015 O   0  0  0  0  0  0  0  0  0  0  0  0
  -75.2005  -17.5169   18.7561 C   0  0  2  0  0  0  0  0  0  0  0  0
  -74.6222  -18.3565   19.8792 C   0  0  0  0  0  0  0  0  0  0  0  0
  -74.1882  -16.6423   18.0401 C   0  0  2  0  0  0  0  0  0  0  0  0
  -74.8526  -15.8162   16.9192 C   0  0  2  0  0  0  0  0  0  0  0  0
  -73.9409  -14.7613   16.5544 O   0  0  0  0  0  0  0  0  0  0  0  0
  -76.1597  -15.1616   17.3652 C   0  0  1  0  0  0  0  0  0  0  0  0
  -76.9163  -14.7290   16.2354 O   0  0  0  0  0  0  0  0  0  0  0  0
  -73.1416  -17.5420   17.5262 N   0  0  0  0  0  0  0  0  0  0  0  0
  -71.9142  -17.2757   17.4731 C   0  0  0  0  0  0  0  0  0  0  0  0
  -70.9890  -18.2857   17.0030 C   0  0  0  0  0  0  0  0  0  0  0  0
  -70.6704  -19.4813   17.8291 C   0  0  0  0  0  0  0  0  0  0  0  0
  -71.2243  -19.6930   19.0318 O   0  0  0  0  0  0  0  0  0  0  0  0
  -69.7103  -20.4906   17.2964 C   0  0  0  0  0  0  0  0  0  0  0  0
  -69.4082  -21.7408   18.0886 C   0  0  0  0  0  0  0  0  0  0  0  0
  -70.2810  -18.1513   15.7244 C   0  0  0  0  0  0  0  0  0  0  0  0
  -69.3937  -19.1669   15.3499 C   0  0  0  0  0  0  0  0  0  0  0  0
  -69.1594  -20.2735   16.0997 N   0  0  0  0  0  0  0  0  0  0  0  0
  -70.5004  -16.9710   14.7879 C   0  0  0  0  0  0  0  0  0  0  0  0
  -70.4212  -15.7394   15.5340 O   0  0  0  0  0  0  0  0  0  0  0  0
  -70.7273  -14.3957   14.7077 P   0  0  2  0  0  0  0  0  0  0  0  0
  -72.2166  -14.4009   14.4830 O   0  0  0  0  0  0  0  0  0  0  0  0
  -69.9757  -14.6589   13.3653 O   0  0  0  0  0  0  0  0  0  0  0  0
  -70.1788  -13.1356   15.3327 O   0  0  0  0  0  0  0  0  0  0  0  0
  -86.1363  -13.9363   14.9427 H   0  0  0  0  0  0  0  0  0  0  0  0
  -85.1148  -14.1443   17.2064 H   0  0  0  0  0  0  0  0  0  0  0  0
  -86.1192   -9.7574   15.4234 H   0  0  0  0  0  0  0  0  0  0  0  0
  -84.5657  -11.1610   19.3703 H   0  0  0  0  0  0  0  0  0  0  0  0
  -85.9257  -13.9019   19.0905 H   0  0  0  0  0  0  0  0  0  0  0  0
  -86.6109  -12.6356   21.3671 H   0  0  0  0  0  0  0  0  0  0  0  0
  -84.8932  -14.6408   21.2097 H   0  0  0  0  0  0  0  0  0  0  0  0
  -84.5511  -13.2208   22.7962 H   0  0  0  0  0  0  0  0  0  0  0  0
  -82.5038  -13.1699   20.8856 H   0  0  0  0  0  0  0  0  0  0  0  0
  -82.2434  -15.4425   20.6643 H   0  0  0  0  0  0  0  0  0  0  0  0
  -83.5335  -15.5747   19.4120 H   0  0  0  0  0  0  0  0  0  0  0  0
  -77.7257  -15.3271   18.7515 H   0  0  0  0  0  0  0  0  0  0  0  0
  -75.5737  -18.2131   17.9905 H   0  0  0  0  0  0  0  0  0  0  0  0
  -74.9180  -17.9270   20.8477 H   0  0  0  0  0  0  0  0  0  0  0  0
  -75.0042  -19.3852   19.8022 H   0  0  0  0  0  0  0  0  0  0  0  0
  -73.5249  -18.3662   19.8022 H   0  0  0  0  0  0  0  0  0  0  0  0
  -73.7489  -15.9022   18.7252 H   0  0  0  0  0  0  0  0  0  0  0  0
  -75.0793  -16.4970   16.0854 H   0  0  0  0  0  0  0  0  0  0  0  0
  -73.5777  -14.3410   17.3739 H   0  0  0  0  0  0  0  0  0  0  0  0
  -75.8680  -14.2886   17.9675 H   0  0  0  0  0  0  0  0  0  0  0  0
  -77.7329  -14.2622   16.5443 H   0  0  0  0  0  0  0  0  0  0  0  0
  -71.5466  -16.2855   17.7805 H   0  0  0  0  0  0  0  0  0  0  0  0
  -70.9861  -20.5015   19.5511 H   0  0  0  0  0  0  0  0  0  0  0  0
  -69.4626  -21.5156   19.1639 H   0  0  0  0  0  0  0  0  0  0  0  0
  -70.1439  -22.5196   17.8394 H   0  0  0  0  0  0  0  0  0  0  0  0
  -68.3979  -22.0975   17.8394 H   0  0  0  0  0  0  0  0  0  0  0  0
  -68.8569  -19.0624   14.3955 H   0  0  0  0  0  0  0  0  0  0  0  0
  -69.7267  -16.9755   14.0060 H   0  0  0  0  0  0  0  0  0  0  0  0
  -71.4942  -17.0532   14.3236 H   0  0  0  0  0  0  0  0  0  0  0  0
  1  2  2  0
  2  3  1  0
  2  5  1  0
  3  4  2  0
  4  8  1  0
  5  6  1  0
  6  7  2  0
  6  8  1  0
  9  8  1  0
  9 10  1  0
  9 11  1  0
 10 15  1  0
 11 12  1  0
 11 13  1  0
 13 14  1  0
 13 15  1  0
 15 16  1  0
 16 17  1  0
 17 18  1  0
 18 19  2  0
 18 20  1  1
 18 21  1  0
 21 22  1  0
 22 23  2  0
 22 24  1  6
 22 25  1  0
 26 25  1  0
 26 27  1  0
 26 33  1  0
 27 28  1  0
 28 29  1  0
 28 30  1  0
 30 31  1  0
 30 35  1  0
 31 32  1  0
 31 33  1  0
 33 34  1  0
 35 36  2  3
 36 37  1  0
 37 38  2  0
 37 42  1  0
 38 39  1  0
 38 40  1  0
 40 41  1  0
 40 44  2  0
 42 43  2  0
 42 45  1  0
 43 44  1  0
 45 46  1  0
 46 47  1  0
 47 48  1  6
 47 49  2  0
 47 50  1  0
  3 51  1  0
  4 52  1  0
  5 53  1  0
  9 54  1  1
 11 55  1  6
 12 56  1  0
 13 57  1  1
 14 58  1  0
 15 59  1  1
 16 60  1  0
 16 61  1  0
 26 62  1  1
 28 63  1  6
 29 64  1  0
 29 65  1  0
 29 66  1  0
 30 67  1  1
 31 68  1  6
 32 69  1  0
 33 70  1  1
 34 71  1  0
 36 72  1  0
 39 73  1  0
 41 74  1  0
 41 75  1  0
 41 76  1  0
 43 77  1  0
 45 78  1  0
 45 79  1  0
M  CHG  4  20  -1  24  -1  48  -1  50  -1
M  END
>  <filename_input>  (3) 
7MFP_Z7P_docked.sdf

>  <pdb_id>  (3) 
7MFP_Z7P

>  <pose_rank>  (3) 
2

>  <num_atoms_heavy>  (3) 
50

>  <num_torsions>  (3) 
13

>  <pose>  (3) 
[-77.72135156611347, -17.065555300440334, 17.617988263785662, 4.212268548714894, 1.5828770058996204, 3.6361042084351203, 19.39135167405419, 20.114286264539615, 5.116371785641489, -6.570280817088931, 43.62911229010725, 4.267493043402154, -0.6684712245428209, 19.621384762891324, -9.276200580228691, 10.545952788477651, -2.4082564930494885, 1.6255392556339698, -6.056233433866701]

>  <energy>  (3) 
-871.2378605625859

>  <inter_energy>  (3) 
-920.2660892651234

>  <intra_energy>  (3) 
55.17476574876163

>  <rmsd>  (3) 
3.38503

>  <sdf_rank>  (3) 
0

$$$$

     RDKit          3D

 79 82  0  0  0  0  0  0  0  0999 V2000
  -69.6389  -21.8829   17.9825 O   0  0  0  0  0  0  0  0  0  0  0  0
  -69.8356  -20.6999   17.5814 C   0  0  0  0  0  0  0  0  0  0  0  0
  -70.7636  -19.8587   18.2057 C   0  0  0  0  0  0  0  0  0  0  0  0
  -70.9554  -18.5652   17.7040 C   0  0  0  0  0  0  0  0  0  0  0  0
  -69.1539  -20.2162   16.5258 N   0  0  0  0  0  0  0  0  0  0  0  0
  -69.3708  -18.9946   16.0091 C   0  0  0  0  0  0  0  0  0  0  0  0
  -68.7307  -18.6250   15.0088 O   0  0  0  0  0  0  0  0  0  0  0  0
  -70.2995  -18.1175   16.6043 N   0  0  0  0  0  0  0  0  0  0  0  0
  -70.5384  -16.7746   16.0500 C   0  0  2  0  0  0  0  0  0  0  0  0
  -71.0749  -15.8810   17.0221 O   0  0  0  0  0  0  0  0  0  0  0  0
  -71.6674  -16.8555   15.0149 C   0  0  2  0  0  0  0  0  0  0  0  0
  -71.3031  -17.2530   13.6744 O   0  0  0  0  0  0  0  0  0  0  0  0
  -72.2143  -15.4603   15.0007 C   0  0  2  0  0  0  0  0  0  0  0  0
  -71.4214  -14.6134   14.1351 O   0  0  0  0  0  0  0  0  0  0  0  0
  -71.9601  -14.9674   16.4132 C   0  0  1  0  0  0  0  0  0  0  0  0
  -73.2114  -14.9035   17.2512 C   0  0  0  0  0  0  0  0  0  0  0  0
  -73.6602  -16.2047   17.5629 O   0  0  0  0  0  0  0  0  0  0  0  0
  -75.2100  -16.5357   17.6461 P   0  0  1  0  0  0  0  0  0  0  0  0
  -75.5192  -17.7897   18.4145 O   0  0  0  0  0  0  0  0  0  0  0  0
  -75.9881  -15.3741   18.1424 O   0  0  0  0  0  0  0  0  0  0  0  0
  -75.5952  -16.7108   16.0749 O   0  0  0  0  0  0  0  0  0  0  0  0
  -76.4866  -15.8110   15.0867 P   0  0  1  0  0  0  0  0  0  0  0  0
  -75.8803  -14.4232   14.9246 O   0  0  0  0  0  0  0  0  0  0  0  0
  -76.8782  -16.5040   13.8500 O   0  0  0  0  0  0  0  0  0  0  0  0
  -77.9002  -15.6928   15.8871 O   0  0  0  0  0  0  0  0  0  0  0  0
  -78.9318  -16.5262   15.3980 C   0  0  1  0  0  0  0  0  0  0  0  0
  -79.2918  -17.3729   16.4801 O   0  0  0  0  0  0  0  0  0  0  0  0
  -79.9249  -16.6640   17.5638 C   0  0  2  0  0  0  0  0  0  0  0  0
  -80.0309  -17.6060   18.7479 C   0  0  0  0  0  0  0  0  0  0  0  0
  -81.2488  -16.0849   17.1010 C   0  0  2  0  0  0  0  0  0  0  0  0
  -81.0591  -15.1451   15.8923 C   0  0  2  0  0  0  0  0  0  0  0  0
  -82.3515  -14.9461   15.2862 O   0  0  0  0  0  0  0  0  0  0  0  0
  -80.1364  -15.7350   14.8263 C   0  0  1  0  0  0  0  0  0  0  0  0
  -79.6957  -14.7200   13.9254 O   0  0  0  0  0  0  0  0  0  0  0  0
  -81.8351  -15.3925   18.2611 N   0  0  0  0  0  0  0  0  0  0  0  0
  -81.3074  -14.4342   18.8803 C   0  0  0  0  0  0  0  0  0  0  0  0
  -82.0319  -13.8058   19.9652 C   0  0  0  0  0  0  0  0  0  0  0  0
  -83.1628  -14.4995   20.6385 C   0  0  0  0  0  0  0  0  0  0  0  0
  -83.5596  -15.7324   20.2912 O   0  0  0  0  0  0  0  0  0  0  0  0
  -83.8746  -13.8060   21.7505 C   0  0  0  0  0  0  0  0  0  0  0  0
  -84.9916  -14.5060   22.4882 C   0  0  0  0  0  0  0  0  0  0  0  0
  -81.7267  -12.4413   20.4113 C   0  0  0  0  0  0  0  0  0  0  0  0
  -82.4834  -11.9031   21.4585 C   0  0  0  0  0  0  0  0  0  0  0  0
  -83.4775  -12.5773   22.0902 N   0  0  0  0  0  0  0  0  0  0  0  0
  -80.6060  -11.6120   19.7994 C   0  0  0  0  0  0  0  0  0  0  0  0
  -79.9353  -10.8650   20.8346 O   0  0  0  0  0  0  0  0  0  0  0  0
  -79.0775   -9.5978   20.3442 P   0  0  2  0  0  0  0  0  0  0  0  0
  -78.6015   -8.9303   21.6078 O   0  0  0  0  0  0  0  0  0  0  0  0
  -80.1616   -8.7206   19.6432 O   0  0  0  0  0  0  0  0  0  0  0  0
  -77.9938   -9.9221   19.3444 O   0  0  0  0  0  0  0  0  0  0  0  0
  -71.3345  -20.2086   19.0784 H   0  0  0  0  0  0  0  0  0  0  0  0
  -71.6585  -17.8925   18.2169 H   0  0  0  0  0  0  0  0  0  0  0  0
  -68.4320  -20.8105   16.0939 H   0  0  0  0  0  0  0  0  0  0  0  0
  -69.5697  -16.4301   15.6589 H   0  0  0  0  0  0  0  0  0  0  0  0
  -72.3674  -17.6512   15.3095 H   0  0  0  0  0  0  0  0  0  0  0  0
  -70.6349  -17.9822   13.7166 H   0  0  0  0  0  0  0  0  0  0  0  0
  -73.2627  -15.4398   14.6685 H   0  0  0  0  0  0  0  0  0  0  0  0
  -70.8592  -14.0128   14.6859 H   0  0  0  0  0  0  0  0  0  0  0  0
  -71.5542  -13.9469   16.3509 H   0  0  0  0  0  0  0  0  0  0  0  0
  -72.9962  -14.3610   18.1836 H   0  0  0  0  0  0  0  0  0  0  0  0
  -73.9956  -14.3815   16.6834 H   0  0  0  0  0  0  0  0  0  0  0  0
  -78.5815  -17.1134   14.5363 H   0  0  0  0  0  0  0  0  0  0  0  0
  -79.3294  -15.7988   17.8906 H   0  0  0  0  0  0  0  0  0  0  0  0
  -79.9660  -17.0292   19.6823 H   0  0  0  0  0  0  0  0  0  0  0  0
  -80.9943  -18.1355   18.7101 H   0  0  0  0  0  0  0  0  0  0  0  0
  -79.2093  -18.3365   18.7101 H   0  0  0  0  0  0  0  0  0  0  0  0
  -81.9267  -16.8768   16.7499 H   0  0  0  0  0  0  0  0  0  0  0  0
  -80.6060  -14.2114   16.2568 H   0  0  0  0  0  0  0  0  0  0  0  0
  -83.0354  -14.8408   15.9942 H   0  0  0  0  0  0  0  0  0  0  0  0
  -80.7422  -16.4728   14.2797 H   0  0  0  0  0  0  0  0  0  0  0  0
  -79.3592  -13.9447   14.4408 H   0  0  0  0  0  0  0  0  0  0  0  0
  -80.3054  -14.0766   18.6008 H   0  0  0  0  0  0  0  0  0  0  0  0
  -84.3171  -16.1601   20.7638 H   0  0  0  0  0  0  0  0  0  0  0  0
  -84.8335  -14.4069   23.5723 H   0  0  0  0  0  0  0  0  0  0  0  0
  -85.9542  -14.0493   22.2148 H   0  0  0  0  0  0  0  0  0  0  0  0
  -85.0003  -15.5714   22.2148 H   0  0  0  0  0  0  0  0  0  0  0  0
  -82.2602  -10.8775   21.7876 H   0  0  0  0  0  0  0  0  0  0  0  0
  -79.8853  -12.2793   19.3042 H   0  0  0  0  0  0  0  0  0  0  0  0
  -81.0292  -10.9143   19.0617 H   0  0  0  0  0  0  0  0  0  0  0  0
  1  2  2  0
  2  3  1  0
  2  5  1  0
  3  4  2  0
  4  8  1  0
  5  6  1  0
  6  7  2  0
  6  8  1  0
  9  8  1  0
  9 10  1  0
  9 11  1  0
 10 15  1  0
 11 12  1  0
 11 13  1  0
 13 14  1  0
 13 15  1  0
 15 16  1  0
 16 17  1  0
 17 18  1  0
 18 19  2  0
 18 20  1  1
 18 21  1  0
 21 22  1  0
 22 23  2  0
 22 24  1  6
 22 25  1  0
 26 25  1  0
 26 27  1  0
 26 33  1  0
 27 28  1  0
 28 29  1  0
 28 30  1  0
 30 31  1  0
 30 35  1  0
 31 32  1  0
 31 33  1  0
 33 34  1  0
 35 36  2  3
 36 37  1  0
 37 38  2  0
 37 42  1  0
 38 39  1  0
 38 40  1  0
 40 41  1  0
 40 44  2  0
 42 43  2  0
 42 45  1  0
 43 44  1  0
 45 46  1  0
 46 47  1  0
 47 48  1  1
 47 49  2  0
 47 50  1  0
  3 51  1  0
  4 52  1  0
  5 53  1  0
  9 54  1  6
 11 55  1  1
 12 56  1  0
 13 57  1  6
 14 58  1  0
 15 59  1  6
 16 60  1  0
 16 61  1  0
 26 62  1  6
 28 63  1  1
 29 64  1  0
 29 65  1  0
 29 66  1  0
 30 67  1  6
 31 68  1  1
 32 69  1  0
 33 70  1  6
 34 71  1  0
 36 72  1  0
 39 73  1  0
 41 74  1  0
 41 75  1  0
 41 76  1  0
 43 77  1  0
 45 78  1  0
 45 79  1  0
M  CHG  4  20  -1  24  -1  48  -1  50  -1
M  END
>  <filename_input>  (4) 
7MFP_Z7P_docked.sdf

>  <pdb_id>  (4) 
7MFP_Z7P

>  <pose_rank>  (4) 
3

>  <num_atoms_heavy>  (4) 
50

>  <num_torsions>  (4) 
13

>  <pose>  (4) 
[-77.90019735131948, -15.692801151828794, 15.887104039479567, 0.47708290344681364, -1.8997730075460733, 1.7810986402527735, 0.28769895781584337, -1.4691084575449098, 0.4139111187150267, 2.6915824413660543, -0.07978452777969847, -0.24542035784782726, 3.7019595062017756, 1.7418100443222428, 2.542900807009267, 2.985563274874013, -0.13936398561390517, 0.1011894192904657, -0.3947796985658598]

>  <energy>  (4) 
-834.5289094750926

>  <inter_energy>  (4) 
-867.6663519336729

>  <intra_energy>  (4) 
36.91057756825

>  <rmsd>  (4) 
11.2981

>  <sdf_rank>  (4) 
0

$$$$

     RDKit          3D

 79 82  0  0  0  0  0  0  0  0999 V2000
  -85.8491  -24.3907   18.5640 O   0  0  0  0  0  0  0  0  0  0  0  0
  -84.6111  -24.4146   18.3071 C   0  0  0  0  0  0  0  0  0  0  0  0
  -84.0842  -23.7776   17.1779 C   0  0  0  0  0  0  0  0  0  0  0  0
  -82.7075  -23.8562   16.9321 C   0  0  0  0  0  0  0  0  0  0  0  0
  -83.7591  -25.0677   19.1197 N   0  0  0  0  0  0  0  0  0  0  0  0
  -82.4458  -25.1894   18.8613 C   0  0  0  0  0  0  0  0  0  0  0  0
  -81.7218  -25.8389   19.6365 O   0  0  0  0  0  0  0  0  0  0  0  0
  -81.8751  -24.5676   17.7327 N   0  0  0  0  0  0  0  0  0  0  0  0
  -80.4362  -24.6888   17.4455 C   0  0  2  0  0  0  0  0  0  0  0  0
  -79.7388  -23.4674   17.6756 O   0  0  0  0  0  0  0  0  0  0  0  0
  -80.2444  -24.9016   15.9386 C   0  0  2  0  0  0  0  0  0  0  0  0
  -80.3722  -26.2531   15.4439 O   0  0  0  0  0  0  0  0  0  0  0  0
  -78.8514  -24.4026   15.7009 C   0  0  2  0  0  0  0  0  0  0  0  0
  -77.8834  -25.4320   16.0144 O   0  0  0  0  0  0  0  0  0  0  0  0
  -78.6760  -23.3290   16.7589 C   0  0  1  0  0  0  0  0  0  0  0  0
  -78.7258  -21.9313   16.1967 C   0  0  0  0  0  0  0  0  0  0  0  0
  -79.9860  -21.3469   16.4458 O   0  0  0  0  0  0  0  0  0  0  0  0
  -80.3072  -19.8665   15.9727 P   0  0  1  0  0  0  0  0  0  0  0  0
  -80.0479  -19.6300   14.5114 O   0  0  0  0  0  0  0  0  0  0  0  0
  -81.6768  -19.4549   16.3676 O   0  0  0  0  0  0  0  0  0  0  0  0
  -79.2824  -18.9970   16.8898 O   0  0  0  0  0  0  0  0  0  0  0  0
  -79.0764  -17.4121   17.0524 P   0  0  1  0  0  0  0  0  0  0  0  0
  -79.6250  -16.6686   15.8416 O   0  0  0  0  0  0  0  0  0  0  0  0
  -79.4726  -16.8981   18.3723 O   0  0  0  0  0  0  0  0  0  0  0  0
  -77.4549  -17.2634   17.0887 O   0  0  0  0  0  0  0  0  0  0  0  0
  -76.9633  -16.3450   18.0441 C   0  0  1  0  0  0  0  0  0  0  0  0
  -76.4420  -17.1319   19.1056 O   0  0  0  0  0  0  0  0  0  0  0  0
  -75.2677  -17.8784   18.7293 C   0  0  2  0  0  0  0  0  0  0  0  0
  -74.9544  -18.8605   19.8421 C   0  0  0  0  0  0  0  0  0  0  0  0
  -74.1345  -16.9272   18.3932 C   0  0  2  0  0  0  0  0  0  0  0  0
  -74.5316  -15.9581   17.2603 C   0  0  2  0  0  0  0  0  0  0  0  0
  -73.5836  -14.8725   17.2611 O   0  0  0  0  0  0  0  0  0  0  0  0
  -75.9219  -15.3557   17.4606 C   0  0  1  0  0  0  0  0  0  0  0  0
  -76.3976  -14.7749   16.2471 O   0  0  0  0  0  0  0  0  0  0  0  0
  -72.9753  -17.7618   18.0343 N   0  0  0  0  0  0  0  0  0  0  0  0
  -72.1534  -17.5107   17.1168 C   0  0  0  0  0  0  0  0  0  0  0  0
  -71.0200  -18.3902   16.9197 C   0  0  0  0  0  0  0  0  0  0  0  0
  -71.0712  -19.8168   17.3386 C   0  0  0  0  0  0  0  0  0  0  0  0
  -72.1588  -20.3623   17.9021 O   0  0  0  0  0  0  0  0  0  0  0  0
  -69.8750  -20.6781   17.1121 C   0  0  0  0  0  0  0  0  0  0  0  0
  -69.9160  -22.1431   17.4780 C   0  0  0  0  0  0  0  0  0  0  0  0
  -69.7545  -17.9065   16.3552 C   0  0  0  0  0  0  0  0  0  0  0  0
  -68.7035  -18.8194   16.2098 C   0  0  0  0  0  0  0  0  0  0  0  0
  -68.7937  -20.1291   16.5535 N   0  0  0  0  0  0  0  0  0  0  0  0
  -69.5592  -16.4670   15.8992 C   0  0  0  0  0  0  0  0  0  0  0  0
  -70.5550  -16.1324   14.9113 O   0  0  0  0  0  0  0  0  0  0  0  0
  -70.8200  -14.5641   14.6829 P   0  0  2  0  0  0  0  0  0  0  0  0
  -72.2896  -14.4531   14.3720 O   0  0  0  0  0  0  0  0  0  0  0  0
  -69.9722  -14.2718   13.4055 O   0  0  0  0  0  0  0  0  0  0  0  0
  -70.3339  -13.6756   15.8026 O   0  0  0  0  0  0  0  0  0  0  0  0
  -84.7421  -23.2229   16.4928 H   0  0  0  0  0  0  0  0  0  0  0  0
  -82.2891  -23.3254   16.0642 H   0  0  0  0  0  0  0  0  0  0  0  0
  -84.1313  -25.4942   19.9802 H   0  0  0  0  0  0  0  0  0  0  0  0
  -80.0663  -25.5050   18.0834 H   0  0  0  0  0  0  0  0  0  0  0  0
  -81.0484  -24.3808   15.3979 H   0  0  0  0  0  0  0  0  0  0  0  0
  -80.4315  -26.8799   16.2079 H   0  0  0  0  0  0  0  0  0  0  0  0
  -78.7105  -24.0759   14.6601 H   0  0  0  0  0  0  0  0  0  0  0  0
  -77.8012  -25.5195   16.9971 H   0  0  0  0  0  0  0  0  0  0  0  0
  -77.6861  -23.4623   17.2198 H   0  0  0  0  0  0  0  0  0  0  0  0
  -77.9430  -21.3213   16.6712 H   0  0  0  0  0  0  0  0  0  0  0  0
  -78.5616  -21.9771   15.1100 H   0  0  0  0  0  0  0  0  0  0  0  0
  -77.7687  -15.6856   18.3997 H   0  0  0  0  0  0  0  0  0  0  0  0
  -75.4320  -18.4670   17.8147 H   0  0  0  0  0  0  0  0  0  0  0  0
  -75.1099  -18.3731   20.8159 H   0  0  0  0  0  0  0  0  0  0  0  0
  -75.6186  -19.7333   19.7587 H   0  0  0  0  0  0  0  0  0  0  0  0
  -73.9073  -19.1873   19.7587 H   0  0  0  0  0  0  0  0  0  0  0  0
  -73.8878  -16.2852   19.2517 H   0  0  0  0  0  0  0  0  0  0  0  0
  -74.5377  -16.5239   16.3169 H   0  0  0  0  0  0  0  0  0  0  0  0
  -73.3670  -14.6244   18.1947 H   0  0  0  0  0  0  0  0  0  0  0  0
  -75.8020  -14.5700   18.2210 H   0  0  0  0  0  0  0  0  0  0  0  0
  -77.0105  -14.0265   16.4575 H   0  0  0  0  0  0  0  0  0  0  0  0
  -72.2937  -16.6318   16.4703 H   0  0  0  0  0  0  0  0  0  0  0  0
  -72.1533  -21.3162   18.1672 H   0  0  0  0  0  0  0  0  0  0  0  0
  -69.9189  -22.2476   18.5730 H   0  0  0  0  0  0  0  0  0  0  0  0
  -70.8273  -22.5991   17.0637 H   0  0  0  0  0  0  0  0  0  0  0  0
  -69.0317  -22.6494   17.0637 H   0  0  0  0  0  0  0  0  0  0  0  0
  -67.7523  -18.4552   15.7943 H   0  0  0  0  0  0  0  0  0  0  0  0
  -69.6594  -15.7929   16.7627 H   0  0  0  0  0  0  0  0  0  0  0  0
  -68.5571  -16.3562   15.4594 H   0  0  0  0  0  0  0  0  0  0  0  0
  1  2  2  0
  2  3  1  0
  2  5  1  0
  3  4  2  0
  4  8  1  0
  5  6  1  0
  6  7  2  0
  6  8  1  0
  9  8  1  0
  9 10  1  0
  9 11  1  0
 10 15  1  0
 11 12  1  0
 11 13  1  0
 13 14  1  0
 13 15  1  0
 15 16  1  0
 16 17  1  0
 17 18  1  0
 18 19  2  0
 18 20  1  1
 18 21  1  0
 21 22  1  0
 22 23  2  0
 22 24  1  1
 22 25  1  0
 26 25  1  0
 26 27  1  0
 26 33  1  0
 27 28  1  0
 28 29  1  0
 28 30  1  0
 30 31  1  0
 30 35  1  0
 31 32  1  0
 31 33  1  0
 33 34  1  0
 35 36  2  3
 36 37  1  0
 37 38  2  0
 37 42  1  0
 38 39  1  0
 38 40  1  0
 40 41  1  0
 40 44  2  0
 42 43  2  0
 42 45  1  0
 43 44  1  0
 45 46  1  0
 46 47  1  0
 47 48  1  6
 47 49  2  0
 47 50  1  0
  3 51  1  0
  4 52  1  0
  5 53  1  0
  9 54  1  1
 11 55  1  6
 12 56  1  0
 13 57  1  6
 14 58  1  0
 15 59  1  1
 16 60  1  0
 16 61  1  0
 26 62  1  1
 28 63  1  6
 29 64  1  0
 29 65  1  0
 29 66  1  0
 30 67  1  1
 31 68  1  6
 32 69  1  0
 33 70  1  1
 34 71  1  0
 36 72  1  0
 39 73  1  0
 41 74  1  0
 41 75  1  0
 41 76  1  0
 43 77  1  0
 45 78  1  0
 45 79  1  0
M  CHG  4  20  -1  24  -1  48  -1  50  -1
M  END
>  <filename_input>  (5) 
7MFP_Z7P_docked.sdf

>  <pdb_id>  (5) 
7MFP_Z7P

>  <pose_rank>  (5) 
4

>  <num_atoms_heavy>  (5) 
50

>  <num_torsions>  (5) 
13

>  <pose>  (5) 
[-77.45490345338563, -17.263405966772982, 17.088669473265377, 3.833483201039805, 4.94585505903867, -0.35856819622178276, 0.01512861728074117, -25.18170365987484, -30.88907450913607, 4.159963978855657, -0.7652449657272751, 0.4435552369794025, 15.646391490736347, 81.96420974555375, 57.956733894391, -5.843005318976333, -38.47441097900888, -18.207393602989637, 0.45533541494937324]

>  <energy>  (5) 
-776.149519396669

>  <inter_energy>  (5) 
-815.6071136151493

>  <intra_energy>  (5) 
41.67301082075084

>  <rmsd>  (5) 
8.13514

>  <sdf_rank>  (5) 
0

$$$$

     RDKit          3D

 79 82  0  0  0  0  0  0  0  0999 V2000
  -85.3278  -13.9099   24.2892 O   0  0  0  0  0  0  0  0  0  0  0  0
  -84.5815  -13.3577   23.4305 C   0  0  0  0  0  0  0  0  0  0  0  0
  -84.7483  -12.0163   23.0683 C   0  0  0  0  0  0  0  0  0  0  0  0
  -83.9060  -11.4640   22.0950 C   0  0  0  0  0  0  0  0  0  0  0  0
  -83.6001  -14.0573   22.8303 N   0  0  0  0  0  0  0  0  0  0  0  0
  -82.8230  -13.5472   21.8596 C   0  0  0  0  0  0  0  0  0  0  0  0
  -81.9587  -14.2616   21.3215 O   0  0  0  0  0  0  0  0  0  0  0  0
  -82.9608  -12.2024   21.4615 N   0  0  0  0  0  0  0  0  0  0  0  0
  -82.1089  -11.6325   20.4044 C   0  0  2  0  0  0  0  0  0  0  0  0
  -81.7164  -12.6116   19.4461 O   0  0  0  0  0  0  0  0  0  0  0  0
  -80.7673  -11.2117   21.0174 C   0  0  2  0  0  0  0  0  0  0  0  0
  -80.7111   -9.9127   21.6476 O   0  0  0  0  0  0  0  0  0  0  0  0
  -79.8333  -11.2495   19.8461 C   0  0  2  0  0  0  0  0  0  0  0  0
  -79.9221  -10.0207   19.0864 O   0  0  0  0  0  0  0  0  0  0  0  0
  -80.4225  -12.3313   18.9599 C   0  0  1  0  0  0  0  0  0  0  0  0
  -79.6290  -13.6126   18.9840 C   0  0  0  0  0  0  0  0  0  0  0  0
  -80.0636  -14.4783   17.9577 O   0  0  0  0  0  0  0  0  0  0  0  0
  -80.0014  -16.0538   18.1377 P   0  0  1  0  0  0  0  0  0  0  0  0
  -80.2066  -16.5081   19.5556 O   0  0  0  0  0  0  0  0  0  0  0  0
  -80.9151  -16.7451   17.1952 O   0  0  0  0  0  0  0  0  0  0  0  0
  -78.4884  -16.3838   17.6383 O   0  0  0  0  0  0  0  0  0  0  0  0
  -77.8981  -16.7547   16.1909 P   0  0  1  0  0  0  0  0  0  0  0  0
  -78.3923  -18.1230   15.7400 O   0  0  0  0  0  0  0  0  0  0  0  0
  -78.0074  -15.6627   15.2118 O   0  0  0  0  0  0  0  0  0  0  0  0
  -76.2941  -16.8230   16.4650 O   0  0  0  0  0  0  0  0  0  0  0  0
  -75.7328  -15.6443   17.0069 C   0  0  1  0  0  0  0  0  0  0  0  0
  -75.5438  -15.9057   18.3903 O   0  0  0  0  0  0  0  0  0  0  0  0
  -74.5316  -16.9005   18.6425 C   0  0  2  0  0  0  0  0  0  0  0  0
  -74.5942  -17.2781   20.1102 C   0  0  0  0  0  0  0  0  0  0  0  0
  -73.1785  -16.3915   18.1817 C   0  0  2  0  0  0  0  0  0  0  0  0
  -73.1972  -16.0227   16.6838 C   0  0  2  0  0  0  0  0  0  0  0  0
  -72.0355  -15.2120   16.4185 O   0  0  0  0  0  0  0  0  0  0  0  0
  -74.4282  -15.2053   16.2935 C   0  0  1  0  0  0  0  0  0  0  0  0
  -74.6006  -15.2014   14.8770 O   0  0  0  0  0  0  0  0  0  0  0  0
  -72.2031  -17.4528   18.4841 N   0  0  0  0  0  0  0  0  0  0  0  0
  -71.9955  -18.4732   17.7798 C   0  0  0  0  0  0  0  0  0  0  0  0
  -70.9550  -19.4027   18.1674 C   0  0  0  0  0  0  0  0  0  0  0  0
  -70.7667  -19.7975   19.5894 C   0  0  0  0  0  0  0  0  0  0  0  0
  -71.5472  -19.3308   20.5749 O   0  0  0  0  0  0  0  0  0  0  0  0
  -69.6791  -20.7584   19.9329 C   0  0  0  0  0  0  0  0  0  0  0  0
  -69.4978  -21.2189   21.3601 C   0  0  0  0  0  0  0  0  0  0  0  0
  -70.0052  -19.9513   17.1922 C   0  0  0  0  0  0  0  0  0  0  0  0
  -69.0211  -20.8340   17.6520 C   0  0  0  0  0  0  0  0  0  0  0  0
  -68.9030  -21.2176   18.9483 N   0  0  0  0  0  0  0  0  0  0  0  0
  -70.0731  -19.6190   15.7079 C   0  0  0  0  0  0  0  0  0  0  0  0
  -68.7407  -19.5867   15.1572 O   0  0  0  0  0  0  0  0  0  0  0  0
  -68.1318  -18.1268   14.8744 P   0  0  2  0  0  0  0  0  0  0  0  0
  -69.2668  -17.3336   14.2816 O   0  0  0  0  0  0  0  0  0  0  0  0
  -67.0542  -18.4272   13.7860 O   0  0  0  0  0  0  0  0  0  0  0  0
  -67.4564  -17.4871   16.0634 O   0  0  0  0  0  0  0  0  0  0  0  0
  -85.5302  -11.4041   23.5414 H   0  0  0  0  0  0  0  0  0  0  0  0
  -84.0142  -10.4003   21.8368 H   0  0  0  0  0  0  0  0  0  0  0  0
  -83.4371  -15.0294   23.1292 H   0  0  0  0  0  0  0  0  0  0  0  0
  -82.6916  -10.8172   19.9507 H   0  0  0  0  0  0  0  0  0  0  0  0
  -80.5287  -11.8847   21.8541 H   0  0  0  0  0  0  0  0  0  0  0  0
  -80.7158  -10.0228   22.6315 H   0  0  0  0  0  0  0  0  0  0  0  0
  -78.7919  -11.4062   20.1637 H   0  0  0  0  0  0  0  0  0  0  0  0
  -79.9777   -9.2519   19.7078 H   0  0  0  0  0  0  0  0  0  0  0  0
  -80.4197  -11.9627   17.9234 H   0  0  0  0  0  0  0  0  0  0  0  0
  -78.5635  -13.3821   18.8371 H   0  0  0  0  0  0  0  0  0  0  0  0
  -79.7777  -14.1069   19.9553 H   0  0  0  0  0  0  0  0  0  0  0  0
  -76.4061  -14.7877   16.8550 H   0  0  0  0  0  0  0  0  0  0  0  0
  -74.7071  -17.8194   18.0639 H   0  0  0  0  0  0  0  0  0  0  0  0
  -74.4452  -16.3793   20.7267 H   0  0  0  0  0  0  0  0  0  0  0  0
  -75.5774  -17.7175   20.3342 H   0  0  0  0  0  0  0  0  0  0  0  0
  -73.8053  -18.0112   20.3342 H   0  0  0  0  0  0  0  0  0  0  0  0
  -72.9042  -15.4642   18.7060 H   0  0  0  0  0  0  0  0  0  0  0  0
  -73.2111  -16.9579   16.1046 H   0  0  0  0  0  0  0  0  0  0  0  0
  -71.6287  -14.9281   17.2752 H   0  0  0  0  0  0  0  0  0  0  0  0
  -74.2310  -14.1807   16.6419 H   0  0  0  0  0  0  0  0  0  0  0  0
  -75.5668  -15.1795   14.6623 H   0  0  0  0  0  0  0  0  0  0  0  0
  -72.5981  -18.6581   16.8783 H   0  0  0  0  0  0  0  0  0  0  0  0
  -71.3895  -19.6177   21.5092 H   0  0  0  0  0  0  0  0  0  0  0  0
  -69.8128  -20.4189   22.0463 H   0  0  0  0  0  0  0  0  0  0  0  0
  -70.1100  -22.1156   21.5366 H   0  0  0  0  0  0  0  0  0  0  0  0
  -68.4386  -21.4574   21.5366 H   0  0  0  0  0  0  0  0  0  0  0  0
  -68.3041  -21.2389   16.9226 H   0  0  0  0  0  0  0  0  0  0  0  0
  -70.6655  -20.3863   15.1879 H   0  0  0  0  0  0  0  0  0  0  0  0
  -70.5468  -18.6351   15.5754 H   0  0  0  0  0  0  0  0  0  0  0  0
  1  2  2  0
  2  3  1  0
  2  5  1  0
  3  4  2  0
  4  8  1  0
  5  6  1  0
  6  7  2  0
  6  8  1  0
  9  8  1  0
  9 10  1  0
  9 11  1  0
 10 15  1  0
 11 12  1  0
 11 13  1  0
 13 14  1  0
 13 15  1  0
 15 16  1  0
 16 17  1  0
 17 18  1  0
 18 19  2  0
 18 20  1  6
 18 21  1  0
 21 22  1  0
 22 23  2  0
 22 24  1  6
 22 25  1  0
 26 25  1  0
 26 27  1  0
 26 33  1  0
 27 28  1  0
 28 29  1  0
 28 30  1  0
 30 31  1  0
 30 35  1  0
 31 32  1  0
 31 33  1  0
 33 34  1  0
 35 36  2  3
 36 37  1  0
 37 38  2  0
 37 42  1  0
 38 39  1  0
 38 40  1  0
 40 41  1  0
 40 44  2  0
 42 43  2  0
 42 45  1  0
 43 44  1  0
 45 46  1  0
 46 47  1  0
 47 48  1  6
 47 49  2  0
 47 50  1  0
  3 51  1  0
  4 52  1  0
  5 53  1  0
  9 54  1  6
 11 55  1  1
 12 56  1  0
 13 57  1  1
 14 58  1  0
 15 59  1  6
 16 60  1  0
 16 61  1  0
 26 62  1  1
 28 63  1  6
 29 64  1  0
 29 65  1  0
 29 66  1  0
 30 67  1  1
 31 68  1  6
 32 69  1  0
 33 70  1  1
 34 71  1  0
 36 72  1  0
 39 73  1  0
 41 74  1  0
 41 75  1  0
 41 76  1  0
 43 77  1  0
 45 78  1  0
 45 79  1  0
M  CHG  4  20  -1  24  -1  48  -1  50  -1
M  END
>  <filename_input>  (6) 
7MFP_Z7P_docked.sdf

>  <pdb_id>  (6) 
7MFP_Z7P

>  <pose_rank>  (6) 
5

>  <num_atoms_heavy>  (6) 
50

>  <num_torsions>  (6) 
13

>  <pose>  (6) 
[-76.29405864989458, -16.82295452920479, 16.46496394807488, -0.47410942520307864, -0.166555215123944, -0.1732021629236831, -0.01879398401590017, 5.1839635005552465, 7.100001486830784, -4.858789850760008, 0.9043954836658024, 2.262034956835434, 4.503649168050036, -0.5259643737673754, 2.894459291609799, 0.06674898922304162, -0.21898839253159327, 2.2074251225650303, -3.406587637646765]

>  <energy>  (6) 
-742.5361918171678

>  <inter_energy>  (6) 
-788.8496861325668

>  <intra_energy>  (6) 
45.38821742337644

>  <rmsd>  (6) 
3.60763

>  <sdf_rank>  (6) 
0

$$$$

     RDKit          3D

 79 82  0  0  0  0  0  0  0  0999 V2000
  -70.7593  -13.5342   13.7919 O   0  0  0  0  0  0  0  0  0  0  0  0
  -71.1540  -14.3564   14.6679 C   0  0  0  0  0  0  0  0  0  0  0  0
  -72.4234  -14.2561   15.2486 C   0  0  0  0  0  0  0  0  0  0  0  0
  -72.7983  -15.1823   16.2301 C   0  0  0  0  0  0  0  0  0  0  0  0
  -70.3503  -15.3573   15.0742 N   0  0  0  0  0  0  0  0  0  0  0  0
  -70.6851  -16.2170   16.0514 C   0  0  0  0  0  0  0  0  0  0  0  0
  -69.8787  -17.0962   16.4032 O   0  0  0  0  0  0  0  0  0  0  0  0
  -71.9515  -16.1483   16.6658 N   0  0  0  0  0  0  0  0  0  0  0  0
  -72.3303  -17.0906   17.7319 C   0  0  2  0  0  0  0  0  0  0  0  0
  -73.5387  -17.7834   17.4306 O   0  0  0  0  0  0  0  0  0  0  0  0
  -72.7077  -16.2966   18.9888 C   0  0  2  0  0  0  0  0  0  0  0  0
  -71.6270  -15.8820   19.8537 O   0  0  0  0  0  0  0  0  0  0  0  0
  -73.6149  -17.2365   19.7232 C   0  0  2  0  0  0  0  0  0  0  0  0
  -72.8433  -18.1836   20.4994 O   0  0  0  0  0  0  0  0  0  0  0  0
  -74.2652  -18.0395   18.6120 C   0  0  1  0  0  0  0  0  0  0  0  0
  -75.7019  -17.6543   18.3671 C   0  0  0  0  0  0  0  0  0  0  0  0
  -75.9261  -17.4463   16.9895 O   0  0  0  0  0  0  0  0  0  0  0  0
  -76.9230  -16.3190   16.4857 P   0  0  1  0  0  0  0  0  0  0  0  0
  -76.6639  -14.9687   17.0926 O   0  0  0  0  0  0  0  0  0  0  0  0
  -76.9745  -16.2613   15.0041 O   0  0  0  0  0  0  0  0  0  0  0  0
  -78.3597  -16.9061   16.9742 O   0  0  0  0  0  0  0  0  0  0  0  0
  -79.8652  -16.5243   16.5639 P   0  0  1  0  0  0  0  0  0  0  0  0
  -79.8751  -15.4790   15.4563 O   0  0  0  0  0  0  0  0  0  0  0  0
  -80.7383  -17.6921   16.3711 O   0  0  0  0  0  0  0  0  0  0  0  0
  -80.4537  -15.8666   17.9328 O   0  0  0  0  0  0  0  0  0  0  0  0
  -79.9318  -14.5925   18.2524 C   0  0  1  0  0  0  0  0  0  0  0  0
  -80.9146  -13.6554   17.8357 O   0  0  0  0  0  0  0  0  0  0  0  0
  -82.1243  -13.7229   18.6167 C   0  0  2  0  0  0  0  0  0  0  0  0
  -83.1776  -12.8724   17.9326 C   0  0  0  0  0  0  0  0  0  0  0  0
  -81.8360  -13.3307   20.0538 C   0  0  2  0  0  0  0  0  0  0  0  0
  -80.7523  -14.2351   20.6765 C   0  0  2  0  0  0  0  0  0  0  0  0
  -80.2697  -13.5827   21.8676 O   0  0  0  0  0  0  0  0  0  0  0  0
  -79.5556  -14.4448   19.7492 C   0  0  1  0  0  0  0  0  0  0  0  0
  -78.7686  -15.5518   20.1867 O   0  0  0  0  0  0  0  0  0  0  0  0
  -83.1157  -13.4116   20.7782 N   0  0  0  0  0  0  0  0  0  0  0  0
  -83.3013  -13.0580   21.9702 C   0  0  0  0  0  0  0  0  0  0  0  0
  -84.6334  -13.1335   22.5331 C   0  0  0  0  0  0  0  0  0  0  0  0
  -85.5033  -14.3167   22.2950 C   0  0  0  0  0  0  0  0  0  0  0  0
  -85.1027  -15.3692   21.5670 O   0  0  0  0  0  0  0  0  0  0  0  0
  -86.8668  -14.3423   22.8986 C   0  0  0  0  0  0  0  0  0  0  0  0
  -87.7524  -15.5527   22.7189 C   0  0  0  0  0  0  0  0  0  0  0  0
  -85.2082  -12.0297   23.3111 C   0  0  0  0  0  0  0  0  0  0  0  0
  -86.5077  -12.1781   23.8091 C   0  0  0  0  0  0  0  0  0  0  0  0
  -87.2618  -13.2905   23.6200 N   0  0  0  0  0  0  0  0  0  0  0  0
  -84.4344  -10.7544   23.6167 C   0  0  0  0  0  0  0  0  0  0  0  0
  -84.9887  -10.1203   24.7873 O   0  0  0  0  0  0  0  0  0  0  0  0
  -84.2067  -10.3830   26.1663 P   0  0  2  0  0  0  0  0  0  0  0  0
  -84.1781   -9.0486   26.8644 O   0  0  0  0  0  0  0  0  0  0  0  0
  -82.7783  -10.7629   25.6649 O   0  0  0  0  0  0  0  0  0  0  0  0
  -84.7523  -11.5246   26.9899 O   0  0  0  0  0  0  0  0  0  0  0  0
  -73.1171  -13.4608   14.9385 H   0  0  0  0  0  0  0  0  0  0  0  0
  -73.8090  -15.1247   16.6602 H   0  0  0  0  0  0  0  0  0  0  0  0
  -69.4355  -15.4694   14.6143 H   0  0  0  0  0  0  0  0  0  0  0  0
  -71.4774  -17.7751   17.8501 H   0  0  0  0  0  0  0  0  0  0  0  0
  -73.1440  -15.3331   18.6865 H   0  0  0  0  0  0  0  0  0  0  0  0
  -71.9019  -15.9874   20.7989 H   0  0  0  0  0  0  0  0  0  0  0  0
  -74.3039  -16.6964   20.3892 H   0  0  0  0  0  0  0  0  0  0  0  0
  -72.9835  -18.0115   21.4642 H   0  0  0  0  0  0  0  0  0  0  0  0
  -74.2550  -19.0995   18.9057 H   0  0  0  0  0  0  0  0  0  0  0  0
  -76.3594  -18.4608   18.7239 H   0  0  0  0  0  0  0  0  0  0  0  0
  -75.9194  -16.7224   18.9094 H   0  0  0  0  0  0  0  0  0  0  0  0
  -78.9775  -14.4218   17.7325 H   0  0  0  0  0  0  0  0  0  0  0  0
  -82.5205  -14.7477   18.6707 H   0  0  0  0  0  0  0  0  0  0  0  0
  -83.7961  -12.3729   18.6929 H   0  0  0  0  0  0  0  0  0  0  0  0
  -82.6860  -12.1149   17.3044 H   0  0  0  0  0  0  0  0  0  0  0  0
  -83.8145  -13.5125   17.3044 H   0  0  0  0  0  0  0  0  0  0  0  0
  -81.4313  -12.3095   20.1124 H   0  0  0  0  0  0  0  0  0  0  0  0
  -81.2048  -15.2175   20.8768 H   0  0  0  0  0  0  0  0  0  0  0  0
  -80.6179  -14.0535   22.6658 H   0  0  0  0  0  0  0  0  0  0  0  0
  -78.9598  -13.5224   19.8147 H   0  0  0  0  0  0  0  0  0  0  0  0
  -78.7524  -15.5745   21.1763 H   0  0  0  0  0  0  0  0  0  0  0  0
  -82.4605  -12.6950   22.5794 H   0  0  0  0  0  0  0  0  0  0  0  0
  -85.7116  -16.1379   21.4316 H   0  0  0  0  0  0  0  0  0  0  0  0
  -88.0402  -15.9461   23.7050 H   0  0  0  0  0  0  0  0  0  0  0  0
  -88.6558  -15.2664   22.1604 H   0  0  0  0  0  0  0  0  0  0  0  0
  -87.2061  -16.3271   22.1604 H   0  0  0  0  0  0  0  0  0  0  0  0
  -86.9417  -11.3476   24.3853 H   0  0  0  0  0  0  0  0  0  0  0  0
  -83.3785  -11.0021   23.8000 H   0  0  0  0  0  0  0  0  0  0  0  0
  -84.5087  -10.0683   22.7602 H   0  0  0  0  0  0  0  0  0  0  0  0
  1  2  2  0
  2  3  1  0
  2  5  1  0
  3  4  2  0
  4  8  1  0
  5  6  1  0
  6  7  2  0
  6  8  1  0
  9  8  1  0
  9 10  1  0
  9 11  1  0
 10 15  1  0
 11 12  1  0
 11 13  1  0
 13 14  1  0
 13 15  1  0
 15 16  1  0
 16 17  1  0
 17 18  1  0
 18 19  2  0
 18 20  1  6
 18 21  1  0
 21 22  1  0
 22 23  2  0
 22 24  1  6
 22 25  1  0
 26 25  1  0
 26 27  1  0
 26 33  1  0
 27 28  1  0
 28 29  1  0
 28 30  1  0
 30 31  1  0
 30 35  1  0
 31 32  1  0
 31 33  1  0
 33 34  1  0
 35 36  2  3
 36 37  1  0
 37 38  2  0
 37 42  1  0
 38 39  1  0
 38 40  1  0
 40 41  1  0
 40 44  2  0
 42 43  2  0
 42 45  1  0
 43 44  1  0
 45 46  1  0
 46 47  1  0
 47 48  1  1
 47 49  2  0
 47 50  1  0
  3 51  1  0
  4 52  1  0
  5 53  1  0
  9 54  1  1
 11 55  1  6
 12 56  1  0
 13 57  1  1
 14 58  1  0
 15 59  1  1
 16 60  1  0
 16 61  1  0
 26 62  1  6
 28 63  1  1
 29 64  1  0
 29 65  1  0
 29 66  1  0
 30 67  1  6
 31 68  1  1
 32 69  1  0
 33 70  1  6
 34 71  1  0
 36 72  1  0
 39 73  1  0
 41 74  1  0
 41 75  1  0
 41 76  1  0
 43 77  1  0
 45 78  1  0
 45 79  1  0
M  CHG  4  20  -1  24  -1  48  -1  50  -1
M  END
>  <filename_input>  (7) 
7MFP_Z7P_docked.sdf

>  <pdb_id>  (7) 
7MFP_Z7P

>  <pose_rank>  (7) 
6

>  <num_atoms_heavy>  (7) 
50

>  <num_torsions>  (7) 
13

>  <pose>  (7) 
[-80.45374237794958, -15.866612477351516, 17.93276190259352, 1.7041039539379434, 2.8845954692722477, 1.6979543386527367, -0.05709530999118108, 0.7310332736365371, 0.8367082614788338, -3.872919509660809, -1.8307944716601756, -0.8884281711166548, 0.4582294686162845, 0.7285608008607819, 1.608260153271429, 0.3939805078207915, -0.14093978759918724, 1.156004130663185, 0.173825218975451]

>  <energy>  (7) 
-769.6022824525281

>  <inter_energy>  (7) 
-795.0249029943926

>  <intra_energy>  (7) 
27.05993496557366

>  <rmsd>  (7) 
12.1792

>  <sdf_rank>  (7) 
0

$$$$

     RDKit          3D

 79 82  0  0  0  0  0  0  0  0999 V2000
  -84.7660  -11.6602   24.8073 O   0  0  0  0  0  0  0  0  0  0  0  0
  -84.0382  -11.6531   23.7732 C   0  0  0  0  0  0  0  0  0  0  0  0
  -82.6723  -11.9511   23.8357 C   0  0  0  0  0  0  0  0  0  0  0  0
  -81.9110  -11.9060   22.6609 C   0  0  0  0  0  0  0  0  0  0  0  0
  -84.5643  -11.3477   22.5719 N   0  0  0  0  0  0  0  0  0  0  0  0
  -83.8288  -11.2530   21.4511 C   0  0  0  0  0  0  0  0  0  0  0  0
  -84.3737  -10.9299   20.3807 O   0  0  0  0  0  0  0  0  0  0  0  0
  -82.4493  -11.5402   21.4707 N   0  0  0  0  0  0  0  0  0  0  0  0
  -81.6368  -11.4467   20.2464 C   0  0  2  0  0  0  0  0  0  0  0  0
  -81.7284  -12.6256   19.4508 O   0  0  0  0  0  0  0  0  0  0  0  0
  -80.1527  -11.4219   20.6331 C   0  0  2  0  0  0  0  0  0  0  0  0
  -79.5911  -10.1432   21.0037 O   0  0  0  0  0  0  0  0  0  0  0  0
  -79.4732  -11.9378   19.4010 C   0  0  2  0  0  0  0  0  0  0  0  0
  -79.2863  -10.8714   18.4404 O   0  0  0  0  0  0  0  0  0  0  0  0
  -80.5048  -12.8704   18.7936 C   0  0  1  0  0  0  0  0  0  0  0  0
  -80.1634  -14.3275   18.9740 C   0  0  0  0  0  0  0  0  0  0  0  0
  -80.1250  -14.9808   17.7237 O   0  0  0  0  0  0  0  0  0  0  0  0
  -79.5094  -16.4366   17.5819 P   0  0  1  0  0  0  0  0  0  0  0  0
  -79.1127  -17.0548   18.8931 O   0  0  0  0  0  0  0  0  0  0  0  0
  -80.3962  -17.3274   16.7937 O   0  0  0  0  0  0  0  0  0  0  0  0
  -78.2011  -16.1534   16.6571 O   0  0  0  0  0  0  0  0  0  0  0  0
  -77.8809  -16.5053   15.1226 P   0  0  1  0  0  0  0  0  0  0  0  0
  -78.1324  -17.9811   14.8426 O   0  0  0  0  0  0  0  0  0  0  0  0
  -78.4572  -15.5487   14.1655 O   0  0  0  0  0  0  0  0  0  0  0  0
  -76.2853  -16.1983   15.0101 O   0  0  0  0  0  0  0  0  0  0  0  0
  -75.8619  -15.0106   15.6489 C   0  0  1  0  0  0  0  0  0  0  0  0
  -75.9766  -15.2583   17.0429 O   0  0  0  0  0  0  0  0  0  0  0  0
  -75.0379  -16.2431   17.5192 C   0  0  2  0  0  0  0  0  0  0  0  0
  -75.4159  -16.6082   18.9421 C   0  0  0  0  0  0  0  0  0  0  0  0
  -73.6198  -15.7278   17.3583 C   0  0  2  0  0  0  0  0  0  0  0  0
  -73.3146  -15.3724   15.8883 C   0  0  2  0  0  0  0  0  0  0  0  0
  -72.1275  -14.5551   15.8736 O   0  0  0  0  0  0  0  0  0  0  0  0
  -74.4359  -14.5679   15.2316 C   0  0  1  0  0  0  0  0  0  0  0  0
  -74.2963  -14.5778   13.8115 O   0  0  0  0  0  0  0  0  0  0  0  0
  -72.7276  -16.7788   17.8763 N   0  0  0  0  0  0  0  0  0  0  0  0
  -71.7880  -17.3165   17.2372 C   0  0  0  0  0  0  0  0  0  0  0  0
  -70.9481  -18.2933   17.8987 C   0  0  0  0  0  0  0  0  0  0  0  0
  -70.2230  -19.3354   17.1232 C   0  0  0  0  0  0  0  0  0  0  0  0
  -70.2959  -19.4186   15.7869 O   0  0  0  0  0  0  0  0  0  0  0  0
  -69.3716  -20.3169   17.8553 C   0  0  0  0  0  0  0  0  0  0  0  0
  -68.5814  -21.3528   17.0909 C   0  0  0  0  0  0  0  0  0  0  0  0
  -70.8187  -18.3393   19.3599 C   0  0  0  0  0  0  0  0  0  0  0  0
  -69.9964  -19.3236   19.9203 C   0  0  0  0  0  0  0  0  0  0  0  0
  -69.3050  -20.2316   19.1861 N   0  0  0  0  0  0  0  0  0  0  0  0
  -71.5180  -17.3433   20.2750 C   0  0  0  0  0  0  0  0  0  0  0  0
  -71.8656  -17.9881   21.5172 O   0  0  0  0  0  0  0  0  0  0  0  0
  -72.1136  -17.0131   22.7702 P   0  0  2  0  0  0  0  0  0  0  0  0
  -71.5654  -15.6762   22.3450 O   0  0  0  0  0  0  0  0  0  0  0  0
  -71.2014  -17.6495   23.8652 O   0  0  0  0  0  0  0  0  0  0  0  0
  -73.5360  -16.9901   23.2759 O   0  0  0  0  0  0  0  0  0  0  0  0
  -82.2029  -12.2170   24.7943 H   0  0  0  0  0  0  0  0  0  0  0  0
  -80.8454  -12.1752   22.7046 H   0  0  0  0  0  0  0  0  0  0  0  0
  -85.5784  -11.1787   22.5091 H   0  0  0  0  0  0  0  0  0  0  0  0
  -81.9951  -10.5552   19.7108 H   0  0  0  0  0  0  0  0  0  0  0  0
  -80.0117  -12.0109   21.5514 H   0  0  0  0  0  0  0  0  0  0  0  0
  -79.5592  -10.0704   21.9905 H   0  0  0  0  0  0  0  0  0  0  0  0
  -78.4986  -12.3907   19.6358 H   0  0  0  0  0  0  0  0  0  0  0  0
  -79.1368  -10.0181   18.9196 H   0  0  0  0  0  0  0  0  0  0  0  0
  -80.5472  -12.6746   17.7120 H   0  0  0  0  0  0  0  0  0  0  0  0
  -79.1792  -14.4122   19.4579 H   0  0  0  0  0  0  0  0  0  0  0  0
  -80.9339  -14.8001   19.6008 H   0  0  0  0  0  0  0  0  0  0  0  0
  -76.4908  -14.1606   15.3456 H   0  0  0  0  0  0  0  0  0  0  0  0
  -75.0783  -17.1684   16.9258 H   0  0  0  0  0  0  0  0  0  0  0  0
  -74.8075  -16.0205   19.6454 H   0  0  0  0  0  0  0  0  0  0  0  0
  -76.4811  -16.3884   19.1064 H   0  0  0  0  0  0  0  0  0  0  0  0
  -75.2331  -17.6804   19.1064 H   0  0  0  0  0  0  0  0  0  0  0  0
  -73.4713  -14.7938   17.9201 H   0  0  0  0  0  0  0  0  0  0  0  0
  -73.1970  -16.3127   15.3297 H   0  0  0  0  0  0  0  0  0  0  0  0
  -71.8479  -14.3626   16.8035 H   0  0  0  0  0  0  0  0  0  0  0  0
  -74.3249  -13.5388   15.6039 H   0  0  0  0  0  0  0  0  0  0  0  0
  -73.3374  -14.6459   13.5746 H   0  0  0  0  0  0  0  0  0  0  0  0
  -71.6056  -17.0477   16.1863 H   0  0  0  0  0  0  0  0  0  0  0  0
  -69.7980  -20.1271   15.3071 H   0  0  0  0  0  0  0  0  0  0  0  0
  -68.0713  -22.0215   17.7999 H   0  0  0  0  0  0  0  0  0  0  0  0
  -69.2628  -21.9404   16.4581 H   0  0  0  0  0  0  0  0  0  0  0  0
  -67.8346  -20.8509   16.4581 H   0  0  0  0  0  0  0  0  0  0  0  0
  -69.9057  -19.3633   21.0158 H   0  0  0  0  0  0  0  0  0  0  0  0
  -70.8448  -16.4973   20.4776 H   0  0  0  0  0  0  0  0  0  0  0  0
  -72.4325  -16.9775   19.7853 H   0  0  0  0  0  0  0  0  0  0  0  0
  1  2  2  0
  2  3  1  0
  2  5  1  0
  3  4  2  0
  4  8  1  0
  5  6  1  0
  6  7  2  0
  6  8  1  0
  9  8  1  0
  9 10  1  0
  9 11  1  0
 10 15  1  0
 11 12  1  0
 11 13  1  0
 13 14  1  0
 13 15  1  0
 15 16  1  0
 16 17  1  0
 17 18  1  0
 18 19  2  0
 18 20  1  6
 18 21  1  0
 21 22  1  0
 22 23  2  0
 22 24  1  6
 22 25  1  0
 26 25  1  0
 26 27  1  0
 26 33  1  0
 27 28  1  0
 28 29  1  0
 28 30  1  0
 30 31  1  0
 30 35  1  0
 31 32  1  0
 31 33  1  0
 33 34  1  0
 35 36  2  3
 36 37  1  0
 37 38  2  0
 37 42  1  0
 38 39  1  0
 38 40  1  0
 40 41  1  0
 40 44  2  0
 42 43  2  0
 42 45  1  0
 43 44  1  0
 45 46  1  0
 46 47  1  0
 47 48  1  6
 47 49  2  0
 47 50  1  0
  3 51  1  0
  4 52  1  0
  5 53  1  0
  9 54  1  6
 11 55  1  1
 12 56  1  0
 13 57  1  1
 14 58  1  0
 15 59  1  6
 16 60  1  0
 16 61  1  0
 26 62  1  6
 28 63  1  6
 29 64  1  0
 29 65  1  0
 29 66  1  0
 30 67  1  1
 31 68  1  6
 32 69  1  0
 33 70  1  1
 34 71  1  0
 36 72  1  0
 39 73  1  0
 41 74  1  0
 41 75  1  0
 41 76  1  0
 43 77  1  0
 45 78  1  0
 45 79  1  0
M  CHG  4  20  -1  24  -1  48  -1  50  -1
M  END
>  <filename_input>  (8) 
7MFP_Z7P_docked.sdf

>  <pdb_id>  (8) 
7MFP_Z7P

>  <pose_rank>  (8) 
7

>  <num_atoms_heavy>  (8) 
50

>  <num_torsions>  (8) 
13

>  <pose>  (8) 
[-76.28532947442673, -16.198267921068673, 15.010100982543106, 5.544470578497946, -0.7883775406901868, -2.088037151817111, 37.119154718873595, 5.939752408810619, -3.50052298640454, -11.125547643415006, -0.7914504097029227, 15.312846539156869, -7.8197570207587574, 12.320635639248508, -9.981030683657233, -19.251666760325136, 5.301384185602638, -9.584865009370585, 0.9011097027884513]

>  <energy>  (8) 
-714.2735210532892

>  <inter_energy>  (8) 
-782.6642657931893

>  <intra_energy>  (8) 
74.33489309555301

>  <rmsd>  (8) 
4.2898

>  <sdf_rank>  (8) 
0

$$$$

     RDKit          3D

 79 82  0  0  0  0  0  0  0  0999 V2000
  -83.1053  -12.1242   25.3763 O   0  0  0  0  0  0  0  0  0  0  0  0
  -82.6126  -11.8122   24.2542 C   0  0  0  0  0  0  0  0  0  0  0  0
  -81.6857  -10.7718   24.1242 C   0  0  0  0  0  0  0  0  0  0  0  0
  -81.1901  -10.4563   22.8527 C   0  0  0  0  0  0  0  0  0  0  0  0
  -82.9773  -12.4767   23.1414 N   0  0  0  0  0  0  0  0  0  0  0  0
  -82.5442  -12.1449   21.9132 C   0  0  0  0  0  0  0  0  0  0  0  0
  -82.9509  -12.7787   20.9232 O   0  0  0  0  0  0  0  0  0  0  0  0
  -81.6142  -11.1009   21.7371 N   0  0  0  0  0  0  0  0  0  0  0  0
  -81.1281  -10.7352   20.3963 C   0  0  2  0  0  0  0  0  0  0  0  0
  -81.1847  -11.8319   19.4879 O   0  0  0  0  0  0  0  0  0  0  0  0
  -79.6239  -10.4450   20.4727 C   0  0  2  0  0  0  0  0  0  0  0  0
  -79.2306   -9.1177   20.8863 O   0  0  0  0  0  0  0  0  0  0  0  0
  -79.1583  -10.6999   19.0713 C   0  0  2  0  0  0  0  0  0  0  0  0
  -79.3857   -9.5359   18.2416 O   0  0  0  0  0  0  0  0  0  0  0  0
  -80.1169  -11.7637   18.5691 C   0  0  1  0  0  0  0  0  0  0  0  0
  -79.4895  -13.1316   18.4829 C   0  0  0  0  0  0  0  0  0  0  0  0
  -80.4855  -14.1309   18.5123 O   0  0  0  0  0  0  0  0  0  0  0  0
  -80.1901  -15.5598   19.1364 P   0  0  1  0  0  0  0  0  0  0  0  0
  -81.2430  -16.0263   20.1022 O   0  0  0  0  0  0  0  0  0  0  0  0
  -79.9177  -16.5677   18.0823 O   0  0  0  0  0  0  0  0  0  0  0  0
  -78.7779  -15.3004   19.9018 O   0  0  0  0  0  0  0  0  0  0  0  0
  -78.0458  -16.0941   21.0914 P   0  0  1  0  0  0  0  0  0  0  0  0
  -77.7900  -15.1741   22.2779 O   0  0  0  0  0  0  0  0  0  0  0  0
  -78.6549  -17.3986   21.3925 O   0  0  0  0  0  0  0  0  0  0  0  0
  -76.6239  -16.5162   20.4185 O   0  0  0  0  0  0  0  0  0  0  0  0
  -75.9253  -17.5401   21.0979 C   0  0  1  0  0  0  0  0  0  0  0  0
  -75.6759  -18.5480   20.1286 O   0  0  0  0  0  0  0  0  0  0  0  0
  -74.7450  -18.1320   19.1098 C   0  0  2  0  0  0  0  0  0  0  0  0
  -74.7511  -19.1749   18.0084 C   0  0  0  0  0  0  0  0  0  0  0  0
  -73.3821  -17.8769   19.7261 C   0  0  2  0  0  0  0  0  0  0  0  0
  -73.4594  -16.8121   20.8398 C   0  0  2  0  0  0  0  0  0  0  0  0
  -72.2473  -16.9007   21.6144 O   0  0  0  0  0  0  0  0  0  0  0  0
  -74.6325  -17.0400   21.7925 C   0  0  1  0  0  0  0  0  0  0  0  0
  -74.8908  -15.8662   22.5616 O   0  0  0  0  0  0  0  0  0  0  0  0
  -72.4907  -17.4717   18.6260 N   0  0  0  0  0  0  0  0  0  0  0  0
  -72.8569  -16.9184   17.5582 C   0  0  0  0  0  0  0  0  0  0  0  0
  -71.8585  -16.5146   16.5901 C   0  0  0  0  0  0  0  0  0  0  0  0
  -71.9156  -15.1788   15.9377 C   0  0  0  0  0  0  0  0  0  0  0  0
  -72.8737  -14.2828   16.2158 O   0  0  0  0  0  0  0  0  0  0  0  0
  -70.8616  -14.8144   14.9475 C   0  0  0  0  0  0  0  0  0  0  0  0
  -70.8628  -13.4455   14.3088 C   0  0  0  0  0  0  0  0  0  0  0  0
  -70.7835  -17.4186   16.1646 C   0  0  0  0  0  0  0  0  0  0  0  0
  -69.8666  -16.9546   15.2143 C   0  0  0  0  0  0  0  0  0  0  0  0
  -69.9117  -15.7114   14.6720 N   0  0  0  0  0  0  0  0  0  0  0  0
  -70.6166  -18.8188   16.7390 C   0  0  0  0  0  0  0  0  0  0  0  0
  -70.4129  -19.7612   15.6667 O   0  0  0  0  0  0  0  0  0  0  0  0
  -69.1402  -20.7310   15.8149 P   0  0  2  0  0  0  0  0  0  0  0  0
  -69.1936  -21.2388   17.2319 O   0  0  0  0  0  0  0  0  0  0  0  0
  -67.9496  -19.7371   15.6399 O   0  0  0  0  0  0  0  0  0  0  0  0
  -69.0396  -21.8013   14.7549 O   0  0  0  0  0  0  0  0  0  0  0  0
  -81.3509  -10.2096   25.0084 H   0  0  0  0  0  0  0  0  0  0  0  0
  -80.4348   -9.6624   22.7560 H   0  0  0  0  0  0  0  0  0  0  0  0
  -83.6184  -13.2772   23.2360 H   0  0  0  0  0  0  0  0  0  0  0  0
  -81.7508   -9.8904   20.0669 H   0  0  0  0  0  0  0  0  0  0  0  0
  -79.1772  -11.0733   21.2574 H   0  0  0  0  0  0  0  0  0  0  0  0
  -79.2167   -9.0707   21.8751 H   0  0  0  0  0  0  0  0  0  0  0  0
  -78.0912  -10.9651   19.0411 H   0  0  0  0  0  0  0  0  0  0  0  0
  -79.5401   -8.7454   18.8172 H   0  0  0  0  0  0  0  0  0  0  0  0
  -80.4359  -11.4843   17.5541 H   0  0  0  0  0  0  0  0  0  0  0  0
  -78.9226  -13.2121   17.5437 H   0  0  0  0  0  0  0  0  0  0  0  0
  -78.8175  -13.2714   19.3424 H   0  0  0  0  0  0  0  0  0  0  0  0
  -76.5258  -17.9333   21.9314 H   0  0  0  0  0  0  0  0  0  0  0  0
  -75.0388  -17.1759   18.6521 H   0  0  0  0  0  0  0  0  0  0  0  0
  -74.7571  -20.1800   18.4552 H   0  0  0  0  0  0  0  0  0  0  0  0
  -75.6485  -19.0452   17.3856 H   0  0  0  0  0  0  0  0  0  0  0  0
  -73.8523  -19.0558   17.3856 H   0  0  0  0  0  0  0  0  0  0  0  0
  -72.9927  -18.7818   20.2155 H   0  0  0  0  0  0  0  0  0  0  0  0
  -73.5941  -15.8306   20.3616 H   0  0  0  0  0  0  0  0  0  0  0  0
  -72.4700  -16.8844   22.5788 H   0  0  0  0  0  0  0  0  0  0  0  0
  -74.3218  -17.8559   22.4616 H   0  0  0  0  0  0  0  0  0  0  0  0
  -74.8425  -16.0860   23.5257 H   0  0  0  0  0  0  0  0  0  0  0  0
  -73.9248  -16.7428   17.3613 H   0  0  0  0  0  0  0  0  0  0  0  0
  -72.8770  -13.4040   15.7599 H   0  0  0  0  0  0  0  0  0  0  0  0
  -70.8635  -12.6748   15.0936 H   0  0  0  0  0  0  0  0  0  0  0  0
  -69.9648  -13.3317   13.6839 H   0  0  0  0  0  0  0  0  0  0  0  0
  -71.7610  -13.3333   13.6839 H   0  0  0  0  0  0  0  0  0  0  0  0
  -69.0655  -17.6348   14.8893 H   0  0  0  0  0  0  0  0  0  0  0  0
  -69.7468  -18.8369   17.4122 H   0  0  0  0  0  0  0  0  0  0  0  0
  -71.5223  -19.0937   17.2995 H   0  0  0  0  0  0  0  0  0  0  0  0
  1  2  2  0
  2  3  1  0
  2  5  1  0
  3  4  2  0
  4  8  1  0
  5  6  1  0
  6  7  2  0
  6  8  1  0
  9  8  1  0
  9 10  1  0
  9 11  1  0
 10 15  1  0
 11 12  1  0
 11 13  1  0
 13 14  1  0
 13 15  1  0
 15 16  1  0
 16 17  1  0
 17 18  1  0
 18 19  2  0
 18 20  1  6
 18 21  1  0
 21 22  1  0
 22 23  2  0
 22 24  1  1
 22 25  1  0
 26 25  1  0
 26 27  1  0
 26 33  1  0
 27 28  1  0
 28 29  1  0
 28 30  1  0
 30 31  1  0
 30 35  1  0
 31 32  1  0
 31 33  1  0
 33 34  1  0
 35 36  2  3
 36 37  1  0
 37 38  2  0
 37 42  1  0
 38 39  1  0
 38 40  1  0
 40 41  1  0
 40 44  2  0
 42 43  2  0
 42 45  1  0
 43 44  1  0
 45 46  1  0
 46 47  1  0
 47 48  1  1
 47 49  2  0
 47 50  1  0
  3 51  1  0
  4 52  1  0
  5 53  1  0
  9 54  1  6
 11 55  1  1
 12 56  1  0
 13 57  1  1
 14 58  1  0
 15 59  1  6
 16 60  1  0
 16 61  1  0
 26 62  1  1
 28 63  1  6
 29 64  1  0
 29 65  1  0
 29 66  1  0
 30 67  1  1
 31 68  1  6
 32 69  1  0
 33 70  1  1
 34 71  1  0
 36 72  1  0
 39 73  1  0
 41 74  1  0
 41 75  1  0
 41 76  1  0
 43 77  1  0
 45 78  1  0
 45 79  1  0
M  CHG  4  20  -1  24  -1  48  -1  50  -1
M  END
>  <filename_input>  (9) 
7MFP_Z7P_docked.sdf

>  <pdb_id>  (9) 
7MFP_Z7P

>  <pose_rank>  (9) 
8

>  <num_atoms_heavy>  (9) 
50

>  <num_torsions>  (9) 
13

>  <pose>  (9) 
[-76.62388834029362, -16.51616041984889, 20.418501958692495, -4.303615643331238, -0.6954131997714526, 1.8189087738424918, 0.38019104706159806, 4.231988445884424, -2.2726404160793314, 1.1867182601147643, 4.967096822844635, 3.79682091028372, 2.649694907883778, -1.4774908655119983, -5.30502053267558, 1.8026616373922537, -0.23280210642183183, -4.662358690446455, 1.8885766699449]

>  <energy>  (9) 
-711.7621098164907

>  <inter_energy>  (9) 
-791.5076498424464

>  <intra_energy>  (9) 
80.46303504286622

>  <rmsd>  (9) 
4.67196

>  <sdf_rank>  (9) 
0

$$$$

     RDKit          3D

 79 82  0  0  0  0  0  0  0  0999 V2000
  -80.0416  -21.8950   14.9933 O   0  0  0  0  0  0  0  0  0  0  0  0
  -80.0433  -20.6705   15.3092 C   0  0  0  0  0  0  0  0  0  0  0  0
  -79.8816  -20.2552   16.6357 C   0  0  0  0  0  0  0  0  0  0  0  0
  -79.9139  -18.8861   16.9294 C   0  0  0  0  0  0  0  0  0  0  0  0
  -80.2099  -19.7239   14.3662 N   0  0  0  0  0  0  0  0  0  0  0  0
  -80.2930  -18.4127   14.6490 C   0  0  0  0  0  0  0  0  0  0  0  0
  -80.4849  -17.5945   13.7321 O   0  0  0  0  0  0  0  0  0  0  0  0
  -80.1402  -17.9521   15.9721 N   0  0  0  0  0  0  0  0  0  0  0  0
  -80.2219  -16.5170   16.2906 C   0  0  2  0  0  0  0  0  0  0  0  0
  -78.9779  -15.9991   16.7546 O   0  0  0  0  0  0  0  0  0  0  0  0
  -81.1352  -16.3272   17.5082 C   0  0  2  0  0  0  0  0  0  0  0  0
  -82.5574  -16.2682   17.2605 O   0  0  0  0  0  0  0  0  0  0  0  0
  -80.6649  -15.0263   18.0846 C   0  0  2  0  0  0  0  0  0  0  0  0
  -81.2806  -13.9133   17.3939 O   0  0  0  0  0  0  0  0  0  0  0  0
  -79.1944  -14.9865   17.7121 C   0  0  1  0  0  0  0  0  0  0  0  0
  -78.2809  -15.2496   18.8819 C   0  0  0  0  0  0  0  0  0  0  0  0
  -76.9781  -15.5487   18.4295 O   0  0  0  0  0  0  0  0  0  0  0  0
  -76.2154  -16.8450   18.9360 P   0  0  1  0  0  0  0  0  0  0  0  0
  -76.6386  -18.1063   18.2369 O   0  0  0  0  0  0  0  0  0  0  0  0
  -74.7440  -16.6580   18.9021 O   0  0  0  0  0  0  0  0  0  0  0  0
  -76.6387  -16.8847   20.5066 O   0  0  0  0  0  0  0  0  0  0  0  0
  -75.8444  -17.3720   21.8151 P   0  0  1  0  0  0  0  0  0  0  0  0
  -75.6101  -16.2086   22.7698 O   0  0  0  0  0  0  0  0  0  0  0  0
  -76.3821  -18.6069   22.4059 O   0  0  0  0  0  0  0  0  0  0  0  0
  -74.4173  -17.8657   21.2048 O   0  0  0  0  0  0  0  0  0  0  0  0
  -73.3113  -17.6987   22.0691 C   0  0  1  0  0  0  0  0  0  0  0  0
  -72.4428  -18.7906   21.8023 O   0  0  0  0  0  0  0  0  0  0  0  0
  -71.8493  -18.7309   20.4901 C   0  0  2  0  0  0  0  0  0  0  0  0
  -71.1561  -20.0534   20.2234 C   0  0  0  0  0  0  0  0  0  0  0  0
  -70.9468  -17.5158   20.3843 C   0  0  2  0  0  0  0  0  0  0  0  0
  -71.7213  -16.2136   20.6752 C   0  0  2  0  0  0  0  0  0  0  0  0
  -70.7532  -15.1766   20.9297 O   0  0  0  0  0  0  0  0  0  0  0  0
  -72.6147  -16.3228   21.9103 C   0  0  1  0  0  0  0  0  0  0  0  0
  -73.5708  -15.2638   21.9343 O   0  0  0  0  0  0  0  0  0  0  0  0
  -70.3723  -17.5336   19.0282 N   0  0  0  0  0  0  0  0  0  0  0  0
  -70.8591  -18.1377   18.0391 C   0  0  0  0  0  0  0  0  0  0  0  0
  -70.2193  -18.0120   16.7461 C   0  0  0  0  0  0  0  0  0  0  0  0
  -69.1412  -18.9477   16.3270 C   0  0  0  0  0  0  0  0  0  0  0  0
  -68.7176  -19.9527   17.1072 O   0  0  0  0  0  0  0  0  0  0  0  0
  -68.5163  -18.7726   14.9843 C   0  0  0  0  0  0  0  0  0  0  0  0
  -67.4570  -19.7394   14.5098 C   0  0  0  0  0  0  0  0  0  0  0  0
  -70.5593  -16.9281   15.8169 C   0  0  0  0  0  0  0  0  0  0  0  0
  -69.8844  -16.8711   14.5920 C   0  0  0  0  0  0  0  0  0  0  0  0
  -68.9397  -17.7686   14.2128 N   0  0  0  0  0  0  0  0  0  0  0  0
  -71.6319  -15.8924   16.1252 C   0  0  0  0  0  0  0  0  0  0  0  0
  -71.0238  -14.5925   16.2663 O   0  0  0  0  0  0  0  0  0  0  0  0
  -71.2313  -13.5815   15.0347 P   0  0  2  0  0  0  0  0  0  0  0  0
  -72.7020  -13.6445   14.7156 O   0  0  0  0  0  0  0  0  0  0  0  0
  -70.4018  -14.2680   13.9048 O   0  0  0  0  0  0  0  0  0  0  0  0
  -70.6850  -12.1928   15.2633 O   0  0  0  0  0  0  0  0  0  0  0  0
  -79.7311  -20.9938   17.4368 H   0  0  0  0  0  0  0  0  0  0  0  0
  -79.7509  -18.5586   17.9668 H   0  0  0  0  0  0  0  0  0  0  0  0
  -80.2769  -20.0187   13.3816 H   0  0  0  0  0  0  0  0  0  0  0  0
  -80.5614  -16.0198   15.3699 H   0  0  0  0  0  0  0  0  0  0  0  0
  -81.0508  -17.2091   18.1603 H   0  0  0  0  0  0  0  0  0  0  0  0
  -83.0422  -16.2481   18.1234 H   0  0  0  0  0  0  0  0  0  0  0  0
  -80.8881  -14.9556   19.1594 H   0  0  0  0  0  0  0  0  0  0  0  0
  -81.6366  -13.2698   18.0566 H   0  0  0  0  0  0  0  0  0  0  0  0
  -78.9646  -13.9786   17.3363 H   0  0  0  0  0  0  0  0  0  0  0  0
  -78.2461  -14.3565   19.5231 H   0  0  0  0  0  0  0  0  0  0  0  0
  -78.6674  -16.1079   19.4512 H   0  0  0  0  0  0  0  0  0  0  0  0
  -73.6358  -17.6995   23.1202 H   0  0  0  0  0  0  0  0  0  0  0  0
  -72.6067  -18.5978   19.7036 H   0  0  0  0  0  0  0  0  0  0  0  0
  -70.9038  -20.5346   21.1798 H   0  0  0  0  0  0  0  0  0  0  0  0
  -71.8263  -20.7093   19.6484 H   0  0  0  0  0  0  0  0  0  0  0  0
  -70.2354  -19.8754   19.6484 H   0  0  0  0  0  0  0  0  0  0  0  0
  -70.1446  -17.5511   21.1361 H   0  0  0  0  0  0  0  0  0  0  0  0
  -72.3631  -16.0000   19.8077 H   0  0  0  0  0  0  0  0  0  0  0  0
  -70.6440  -15.0597   21.9067 H   0  0  0  0  0  0  0  0  0  0  0  0
  -71.9427  -16.2299   22.7762 H   0  0  0  0  0  0  0  0  0  0  0  0
  -73.7814  -15.0305   22.8731 H   0  0  0  0  0  0  0  0  0  0  0  0
  -71.7619  -18.7555   18.1546 H   0  0  0  0  0  0  0  0  0  0  0  0
  -67.9972  -20.5542   16.7920 H   0  0  0  0  0  0  0  0  0  0  0  0
  -66.9593  -20.1937   15.3791 H   0  0  0  0  0  0  0  0  0  0  0  0
  -67.9257  -20.5276   13.9023 H   0  0  0  0  0  0  0  0  0  0  0  0
  -66.7148  -19.2008   13.9023 H   0  0  0  0  0  0  0  0  0  0  0  0
  -70.1333  -16.0541   13.8988 H   0  0  0  0  0  0  0  0  0  0  0  0
  -72.3631  -15.8672   15.3038 H   0  0  0  0  0  0  0  0  0  0  0  0
  -72.1401  -16.1614   17.0630 H   0  0  0  0  0  0  0  0  0  0  0  0
  1  2  2  0
  2  3  1  0
  2  5  1  0
  3  4  2  0
  4  8  1  0
  5  6  1  0
  6  7  2  0
  6  8  1  0
  9  8  1  0
  9 10  1  0
  9 11  1  0
 10 15  1  0
 11 12  1  0
 11 13  1  0
 13 14  1  0
 13 15  1  0
 15 16  1  0
 16 17  1  0
 17 18  1  0
 18 19  2  0
 18 20  1  1
 18 21  1  0
 21 22  1  0
 22 23  2  0
 22 24  1  1
 22 25  1  0
 26 25  1  0
 26 27  1  0
 26 33  1  0
 27 28  1  0
 28 29  1  0
 28 30  1  0
 30 31  1  0
 30 35  1  0
 31 32  1  0
 31 33  1  0
 33 34  1  0
 35 36  2  3
 36 37  1  0
 37 38  2  0
 37 42  1  0
 38 39  1  0
 38 40  1  0
 40 41  1  0
 40 44  2  0
 42 43  2  0
 42 45  1  0
 43 44  1  0
 45 46  1  0
 46 47  1  0
 47 48  1  6
 47 49  2  0
 47 50  1  0
  3 51  1  0
  4 52  1  0
  5 53  1  0
  9 54  1  6
 11 55  1  1
 12 56  1  0
 13 57  1  1
 14 58  1  0
 15 59  1  6
 16 60  1  0
 16 61  1  0
 26 62  1  1
 28 63  1  6
 29 64  1  0
 29 65  1  0
 29 66  1  0
 30 67  1  1
 31 68  1  6
 32 69  1  0
 33 70  1  1
 34 71  1  0
 36 72  1  0
 39 73  1  0
 41 74  1  0
 41 75  1  0
 41 76  1  0
 43 77  1  0
 45 78  1  0
 45 79  1  0
M  CHG  4  20  -1  24  -1  48  -1  50  -1
M  END
>  <filename_input>  (10) 
7MFP_Z7P_docked.sdf

>  <pdb_id>  (10) 
7MFP_Z7P

>  <pose_rank>  (10) 
9

>  <num_atoms_heavy>  (10) 
50

>  <num_torsions>  (10) 
13

>  <pose>  (10) 
[-74.41729191275415, -17.86573508008228, 21.20482221508959, -2.922295667777701, -2.8528045263022563, 3.815917678233088, 19.592776642372563, -8.421224187100277, 14.203383285162476, 32.27568186085692, -1.7329067183697067, -8.747299719015775, 33.22386995344636, 52.95293559077329, 33.331685713473796, 26.031287854568586, -56.41732164670809, 52.003135437186884, -12.208568932710412]

>  <energy>  (10) 
-670.3762020710707

>  <inter_energy>  (10) 
-794.1461834954023

>  <intra_energy>  (10) 
125.17523815476342

>  <rmsd>  (10) 
6.09825

>  <sdf_rank>  (10) 
0

$$$$

     RDKit          3D

 79 82  0  0  0  0  0  0  0  0999 V2000
  -78.3379   -8.0228   19.4553 O   0  0  0  0  0  0  0  0  0  0  0  0
  -78.9609   -9.1226   19.4945 C   0  0  0  0  0  0  0  0  0  0  0  0
  -79.1905   -9.8769   18.3384 C   0  0  0  0  0  0  0  0  0  0  0  0
  -79.9059  -11.0768   18.4391 C   0  0  0  0  0  0  0  0  0  0  0  0
  -79.4312   -9.5979   20.6632 N   0  0  0  0  0  0  0  0  0  0  0  0
  -80.1619  -10.7219   20.7578 C   0  0  0  0  0  0  0  0  0  0  0  0
  -80.5967  -11.0840   21.8654 O   0  0  0  0  0  0  0  0  0  0  0  0
  -80.4203  -11.5088   19.6176 N   0  0  0  0  0  0  0  0  0  0  0  0
  -81.2132  -12.7457   19.7125 C   0  0  2  0  0  0  0  0  0  0  0  0
  -80.4105  -13.9113   19.5449 O   0  0  0  0  0  0  0  0  0  0  0  0
  -82.1641  -12.8222   18.5115 C   0  0  2  0  0  0  0  0  0  0  0  0
  -83.4166  -12.1098   18.6181 O   0  0  0  0  0  0  0  0  0  0  0  0
  -82.4247  -14.2921   18.3792 C   0  0  2  0  0  0  0  0  0  0  0  0
  -83.4707  -14.7058   19.2901 O   0  0  0  0  0  0  0  0  0  0  0  0
  -81.1464  -14.9250   18.8969 C   0  0  1  0  0  0  0  0  0  0  0  0
  -80.2842  -15.4973   17.8009 C   0  0  0  0  0  0  0  0  0  0  0  0
  -79.5789  -16.6259   18.2704 O   0  0  0  0  0  0  0  0  0  0  0  0
  -79.0365  -17.7265   17.2638 P   0  0  1  0  0  0  0  0  0  0  0  0
  -79.6032  -19.0974   17.5054 O   0  0  0  0  0  0  0  0  0  0  0  0
  -79.1987  -17.2993   15.8523 O   0  0  0  0  0  0  0  0  0  0  0  0
  -77.4394  -17.6985   17.5730 O   0  0  0  0  0  0  0  0  0  0  0  0
  -76.3851  -16.4881   17.6395 P   0  0  1  0  0  0  0  0  0  0  0  0
  -75.8055  -16.1996   16.2609 O   0  0  0  0  0  0  0  0  0  0  0  0
  -76.8666  -15.3278   18.4043 O   0  0  0  0  0  0  0  0  0  0  0  0
  -75.2153  -17.0845   18.6033 O   0  0  0  0  0  0  0  0  0  0  0  0
  -74.1061  -17.6347   17.9214 C   0  0  1  0  0  0  0  0  0  0  0  0
  -73.2632  -16.5365   17.6033 O   0  0  0  0  0  0  0  0  0  0  0  0
  -72.6679  -15.9278   18.7664 C   0  0  2  0  0  0  0  0  0  0  0  0
  -72.0057  -14.6327   18.3364 C   0  0  0  0  0  0  0  0  0  0  0  0
  -71.7373  -16.9133   19.4482 C   0  0  2  0  0  0  0  0  0  0  0  0
  -72.4813  -18.2044   19.8481 C   0  0  2  0  0  0  0  0  0  0  0  0
  -71.4893  -19.2119   20.1277 O   0  0  0  0  0  0  0  0  0  0  0  0
  -73.3776  -18.7380   18.7311 C   0  0  1  0  0  0  0  0  0  0  0  0
  -74.3087  -19.6893   19.2450 O   0  0  0  0  0  0  0  0  0  0  0  0
  -71.1628  -16.2160   20.6112 N   0  0  0  0  0  0  0  0  0  0  0  0
  -71.7588  -15.9965   21.6961 C   0  0  0  0  0  0  0  0  0  0  0  0
  -71.0447  -15.3554   22.7805 C   0  0  0  0  0  0  0  0  0  0  0  0
  -70.0869  -14.2468   22.5217 C   0  0  0  0  0  0  0  0  0  0  0  0
  -69.8451  -13.7782   21.2888 O   0  0  0  0  0  0  0  0  0  0  0  0
  -69.3782  -13.6222   23.6757 C   0  0  0  0  0  0  0  0  0  0  0  0
  -68.4405  -12.4596   23.4498 C   0  0  0  0  0  0  0  0  0  0  0  0
  -71.1853  -15.8034   24.1710 C   0  0  0  0  0  0  0  0  0  0  0  0
  -70.4494  -15.1377   25.1580 C   0  0  0  0  0  0  0  0  0  0  0  0
  -69.6203  -14.0946   24.9009 N   0  0  0  0  0  0  0  0  0  0  0  0
  -72.1185  -16.9367   24.5750 C   0  0  0  0  0  0  0  0  0  0  0  0
  -73.3503  -16.3902   25.0884 O   0  0  0  0  0  0  0  0  0  0  0  0
  -73.6975  -16.7513   26.6153 P   0  0  2  0  0  0  0  0  0  0  0  0
  -73.9027  -15.4244   27.2979 O   0  0  0  0  0  0  0  0  0  0  0  0
  -72.3712  -17.4130   27.1044 O   0  0  0  0  0  0  0  0  0  0  0  0
  -74.8256  -17.7400   26.7858 O   0  0  0  0  0  0  0  0  0  0  0  0
  -78.8144   -9.5321   17.3639 H   0  0  0  0  0  0  0  0  0  0  0  0
  -80.0549  -11.6869   17.5360 H   0  0  0  0  0  0  0  0  0  0  0  0
  -79.2210   -9.0753   21.5256 H   0  0  0  0  0  0  0  0  0  0  0  0
  -81.7044  -12.7175   20.6964 H   0  0  0  0  0  0  0  0  0  0  0  0
  -81.6916  -12.3306   17.6483 H   0  0  0  0  0  0  0  0  0  0  0  0
  -83.6428  -11.9812   19.5733 H   0  0  0  0  0  0  0  0  0  0  0  0
  -82.7098  -14.5618   17.3516 H   0  0  0  0  0  0  0  0  0  0  0  0
  -83.1630  -14.5841   20.2231 H   0  0  0  0  0  0  0  0  0  0  0  0
  -81.4221  -15.7544   19.5647 H   0  0  0  0  0  0  0  0  0  0  0  0
  -80.9220  -15.7941   16.9553 H   0  0  0  0  0  0  0  0  0  0  0  0
  -79.5617  -14.7330   17.4786 H   0  0  0  0  0  0  0  0  0  0  0  0
  -74.4310  -18.1601   17.0112 H   0  0  0  0  0  0  0  0  0  0  0  0
  -73.4217  -15.6698   19.5249 H   0  0  0  0  0  0  0  0  0  0  0  0
  -71.7117  -14.0579   19.2270 H   0  0  0  0  0  0  0  0  0  0  0  0
  -71.1129  -14.8594   17.7352 H   0  0  0  0  0  0  0  0  0  0  0  0
  -72.7122  -14.0416   17.7352 H   0  0  0  0  0  0  0  0  0  0  0  0
  -70.9365  -17.2382   18.7676 H   0  0  0  0  0  0  0  0  0  0  0  0
  -73.1175  -17.9741   20.7153 H   0  0  0  0  0  0  0  0  0  0  0  0
  -71.3892  -19.3135   21.1074 H   0  0  0  0  0  0  0  0  0  0  0  0
  -72.7039  -19.2332   18.0163 H   0  0  0  0  0  0  0  0  0  0  0  0
  -74.2889  -19.6691   20.2346 H   0  0  0  0  0  0  0  0  0  0  0  0
  -72.8120  -16.2884   21.8203 H   0  0  0  0  0  0  0  0  0  0  0  0
  -69.2001  -13.0386   21.1580 H   0  0  0  0  0  0  0  0  0  0  0  0
  -68.1155  -12.0567   24.4204 H   0  0  0  0  0  0  0  0  0  0  0  0
  -67.5625  -12.8017   22.8822 H   0  0  0  0  0  0  0  0  0  0  0  0
  -68.9607  -11.6739   22.8822 H   0  0  0  0  0  0  0  0  0  0  0  0
  -70.5485  -15.4786   26.1991 H   0  0  0  0  0  0  0  0  0  0  0  0
  -72.3341  -17.5637   23.6973 H   0  0  0  0  0  0  0  0  0  0  0  0
  -71.6369  -17.5461   25.3539 H   0  0  0  0  0  0  0  0  0  0  0  0
  1  2  2  0
  2  3  1  0
  2  5  1  0
  3  4  2  0
  4  8  1  0
  5  6  1  0
  6  7  2  0
  6  8  1  0
  9  8  1  0
  9 10  1  0
  9 11  1  0
 10 15  1  0
 11 12  1  0
 11 13  1  0
 13 14  1  0
 13 15  1  0
 15 16  1  0
 16 17  1  0
 17 18  1  0
 18 19  2  0
 18 20  1  6
 18 21  1  0
 21 22  1  0
 22 23  2  0
 22 24  1  1
 22 25  1  0
 26 25  1  0
 26 27  1  0
 26 33  1  0
 27 28  1  0
 28 29  1  0
 28 30  1  0
 30 31  1  0
 30 35  1  0
 31 32  1  0
 31 33  1  0
 33 34  1  0
 35 36  2  3
 36 37  1  0
 37 38  2  0
 37 42  1  0
 38 39  1  0
 38 40  1  0
 40 41  1  0
 40 44  2  0
 42 43  2  0
 42 45  1  0
 43 44  1  0
 45 46  1  0
 46 47  1  0
 47 48  1  1
 47 49  2  0
 47 50  1  0
  3 51  1  0
  4 52  1  0
  5 53  1  0
  9 54  1  1
 11 55  1  6
 12 56  1  0
 13 57  1  6
 14 58  1  0
 15 59  1  1
 16 60  1  0
 16 61  1  0
 26 62  1  6
 28 63  1  1
 29 64  1  0
 29 65  1  0
 29 66  1  0
 30 67  1  6
 31 68  1  1
 32 69  1  0
 33 70  1  6
 34 71  1  0
 36 72  1  0
 39 73  1  0
 41 74  1  0
 41 75  1  0
 41 76  1  0
 43 77  1  0
 45 78  1  0
 45 79  1  0
M  CHG  4  20  -1  24  -1  48  -1  50  -1
M  END
>  <filename_input>  (11) 
7MFP_Z7P_docked.sdf

>  <pdb_id>  (11) 
7MFP_Z7P

>  <pose_rank>  (11) 
10

>  <num_atoms_heavy>  (11) 
50

>  <num_torsions>  (11) 
13

>  <pose>  (11) 
[-75.2153467211462, -17.084532816281424, 18.603290421096368, -2.4175550834826676, 0.15747919345793232, -1.0322900873117118, -0.35538152422215247, -1.179624652053076, -5.519884362615019, -2.859644140560485, 0.6517440786359171, -1.1146817708245693, 0.9063925429778592, -0.8698843756477005, -2.7005771698946526, 3.702301093924336, -1.1623593627238815, 2.5649304006841667, 0.45331863691926566]

>  <energy>  (11) 
-673.1851605281955

>  <inter_energy>  (11) 
-699.6438644974481

>  <intra_energy>  (11) 
26.645077534249264

>  <rmsd>  (11) 
6.14344

>  <sdf_rank>  (11) 
0

$$$$

     RDKit          3D

 79 82  0  0  0  0  0  0  0  0999 V2000
  -71.3368  -12.3829   14.9794 O   0  0  0  0  0  0  0  0  0  0  0  0
  -71.3471  -13.6275   15.2032 C   0  0  0  0  0  0  0  0  0  0  0  0
  -72.3823  -14.2345   15.9231 C   0  0  0  0  0  0  0  0  0  0  0  0
  -72.3296  -15.6140   16.1594 C   0  0  0  0  0  0  0  0  0  0  0  0
  -70.3461  -14.4086   14.7551 N   0  0  0  0  0  0  0  0  0  0  0  0
  -70.2645  -15.7231   15.0229 C   0  0  0  0  0  0  0  0  0  0  0  0
  -69.2919  -16.3782   14.6084 O   0  0  0  0  0  0  0  0  0  0  0  0
  -71.2831  -16.3729   15.7483 N   0  0  0  0  0  0  0  0  0  0  0  0
  -71.2064  -17.8140   16.0399 C   0  0  2  0  0  0  0  0  0  0  0  0
  -72.1477  -18.2108   17.0337 O   0  0  0  0  0  0  0  0  0  0  0  0
  -69.8631  -18.1156   16.7161 C   0  0  2  0  0  0  0  0  0  0  0  0
  -68.7221  -18.3143   15.8523 O   0  0  0  0  0  0  0  0  0  0  0  0
  -70.1448  -19.3715   17.4836 C   0  0  2  0  0  0  0  0  0  0  0  0
  -70.0224  -20.5296   16.6240 O   0  0  0  0  0  0  0  0  0  0  0  0
  -71.6200  -19.2559   17.8201 C   0  0  1  0  0  0  0  0  0  0  0  0
  -71.8716  -18.9210   19.2680 C   0  0  0  0  0  0  0  0  0  0  0  0
  -72.4575  -17.6421   19.3812 O   0  0  0  0  0  0  0  0  0  0  0  0
  -73.7794  -17.4220   20.2313 P   0  0  1  0  0  0  0  0  0  0  0  0
  -74.2563  -18.6601   20.9374 O   0  0  0  0  0  0  0  0  0  0  0  0
  -73.6444  -16.2713   21.1580 O   0  0  0  0  0  0  0  0  0  0  0  0
  -74.8387  -16.9671   19.0831 O   0  0  0  0  0  0  0  0  0  0  0  0
  -75.9013  -17.8051   18.2175 P   0  0  1  0  0  0  0  0  0  0  0  0
  -75.6917  -17.5683   16.7276 O   0  0  0  0  0  0  0  0  0  0  0  0
  -76.0379  -19.2054   18.6460 O   0  0  0  0  0  0  0  0  0  0  0  0
  -77.3246  -17.1570   18.6725 O   0  0  0  0  0  0  0  0  0  0  0  0
  -77.2697  -15.7890   19.0240 C   0  0  1  0  0  0  0  0  0  0  0  0
  -78.0288  -15.1048   18.0374 O   0  0  0  0  0  0  0  0  0  0  0  0
  -79.4369  -15.4064   18.1004 C   0  0  2  0  0  0  0  0  0  0  0  0
  -80.1001  -14.8315   16.8633 C   0  0  0  0  0  0  0  0  0  0  0  0
  -80.0153  -14.9091   19.4121 C   0  0  2  0  0  0  0  0  0  0  0  0
  -79.2855  -15.5321   20.6201 C   0  0  2  0  0  0  0  0  0  0  0  0
  -79.6163  -14.7474   21.7830 O   0  0  0  0  0  0  0  0  0  0  0  0
  -77.7651  -15.5088   20.4661 C   0  0  1  0  0  0  0  0  0  0  0  0
  -77.1520  -16.4008   21.3960 O   0  0  0  0  0  0  0  0  0  0  0  0
  -81.4501  -15.2411   19.3935 N   0  0  0  0  0  0  0  0  0  0  0  0
  -82.3713  -14.5157   19.8468 C   0  0  0  0  0  0  0  0  0  0  0  0
  -83.7473  -14.9424   19.7000 C   0  0  0  0  0  0  0  0  0  0  0  0
  -84.5833  -15.2657   20.8874 C   0  0  0  0  0  0  0  0  0  0  0  0
  -84.1193  -15.1688   22.1418 O   0  0  0  0  0  0  0  0  0  0  0  0
  -85.9945  -15.7006   20.6787 C   0  0  0  0  0  0  0  0  0  0  0  0
  -86.8835  -15.9840   21.8666 C   0  0  0  0  0  0  0  0  0  0  0  0
  -84.3619  -15.1320   18.3808 C   0  0  0  0  0  0  0  0  0  0  0  0
  -85.6937  -15.5590   18.3269 C   0  0  0  0  0  0  0  0  0  0  0  0
  -86.4505  -15.7983   19.4276 N   0  0  0  0  0  0  0  0  0  0  0  0
  -83.6159  -14.8533   17.0830 C   0  0  0  0  0  0  0  0  0  0  0  0
  -84.2005  -13.7117   16.4238 O   0  0  0  0  0  0  0  0  0  0  0  0
  -83.1653  -12.6663   15.7776 P   0  0  2  0  0  0  0  0  0  0  0  0
  -82.4733  -12.0203   16.9491 O   0  0  0  0  0  0  0  0  0  0  0  0
  -84.1211  -11.6465   15.0830 O   0  0  0  0  0  0  0  0  0  0  0  0
  -82.2448  -13.2564   14.7365 O   0  0  0  0  0  0  0  0  0  0  0  0
  -73.2259  -13.6365   16.2981 H   0  0  0  0  0  0  0  0  0  0  0  0
  -73.1612  -16.0962   16.6941 H   0  0  0  0  0  0  0  0  0  0  0  0
  -69.6079  -13.9783   14.1800 H   0  0  0  0  0  0  0  0  0  0  0  0
  -71.3728  -18.3277   15.0815 H   0  0  0  0  0  0  0  0  0  0  0  0
  -69.5552  -17.2407   17.3076 H   0  0  0  0  0  0  0  0  0  0  0  0
  -67.9117  -18.4555   16.4031 H   0  0  0  0  0  0  0  0  0  0  0  0
  -69.4659  -19.4823   18.3419 H   0  0  0  0  0  0  0  0  0  0  0  0
  -69.9362  -21.3449   17.1790 H   0  0  0  0  0  0  0  0  0  0  0  0
  -72.0929  -20.2289   17.6212 H   0  0  0  0  0  0  0  0  0  0  0  0
  -72.5504  -19.6705   19.7010 H   0  0  0  0  0  0  0  0  0  0  0  0
  -70.9129  -18.9239   19.8074 H   0  0  0  0  0  0  0  0  0  0  0  0
  -76.2290  -15.4330   19.0391 H   0  0  0  0  0  0  0  0  0  0  0  0
  -79.6244  -16.4903   18.0944 H   0  0  0  0  0  0  0  0  0  0  0  0
  -80.8996  -14.1385   17.1643 H   0  0  0  0  0  0  0  0  0  0  0  0
  -79.3526  -14.2909   16.2642 H   0  0  0  0  0  0  0  0  0  0  0  0
  -80.5291  -15.6482   16.2642 H   0  0  0  0  0  0  0  0  0  0  0  0
  -79.8792  -13.8227   19.5188 H   0  0  0  0  0  0  0  0  0  0  0  0
  -79.6038  -16.5816   20.7040 H   0  0  0  0  0  0  0  0  0  0  0  0
  -79.3995  -15.2617   22.6007 H   0  0  0  0  0  0  0  0  0  0  0  0
  -77.4564  -14.4769   20.6896 H   0  0  0  0  0  0  0  0  0  0  0  0
  -77.3548  -16.1058   22.3190 H   0  0  0  0  0  0  0  0  0  0  0  0
  -82.1345  -13.5666   20.3499 H   0  0  0  0  0  0  0  0  0  0  0  0
  -84.7075  -15.3931   22.9058 H   0  0  0  0  0  0  0  0  0  0  0  0
  -86.3223  -15.8050   22.7956 H   0  0  0  0  0  0  0  0  0  0  0  0
  -87.7606  -15.3209   21.8346 H   0  0  0  0  0  0  0  0  0  0  0  0
  -87.2151  -17.0323   21.8346 H   0  0  0  0  0  0  0  0  0  0  0  0
  -86.1519  -15.7090   17.3382 H   0  0  0  0  0  0  0  0  0  0  0  0
  -82.5589  -14.6456   17.3058 H   0  0  0  0  0  0  0  0  0  0  0  0
  -83.6881  -15.7315   16.4247 H   0  0  0  0  0  0  0  0  0  0  0  0
  1  2  2  0
  2  3  1  0
  2  5  1  0
  3  4  2  0
  4  8  1  0
  5  6  1  0
  6  7  2  0
  6  8  1  0
  9  8  1  0
  9 10  1  0
  9 11  1  0
 10 15  1  0
 11 12  1  0
 11 13  1  0
 13 14  1  0
 13 15  1  0
 15 16  1  0
 16 17  1  0
 17 18  1  0
 18 19  2  0
 18 20  1  1
 18 21  1  0
 21 22  1  0
 22 23  2  0
 22 24  1  6
 22 25  1  0
 26 25  1  0
 26 27  1  0
 26 33  1  0
 27 28  1  0
 28 29  1  0
 28 30  1  0
 30 31  1  0
 30 35  1  0
 31 32  1  0
 31 33  1  0
 33 34  1  0
 35 36  2  3
 36 37  1  0
 37 38  2  0
 37 42  1  0
 38 39  1  0
 38 40  1  0
 40 41  1  0
 40 44  2  0
 42 43  2  0
 42 45  1  0
 43 44  1  0
 45 46  1  0
 46 47  1  0
 47 48  1  1
 47 49  2  0
 47 50  1  0
  3 51  1  0
  4 52  1  0
  5 53  1  0
  9 54  1  6
 11 55  1  1
 12 56  1  0
 13 57  1  1
 14 58  1  0
 15 59  1  6
 16 60  1  0
 16 61  1  0
 26 62  1  1
 28 63  1  6
 29 64  1  0
 29 65  1  0
 29 66  1  0
 30 67  1  6
 31 68  1  1
 32 69  1  0
 33 70  1  1
 34 71  1  0
 36 72  1  0
 39 73  1  0
 41 74  1  0
 41 75  1  0
 41 76  1  0
 43 77  1  0
 45 78  1  0
 45 79  1  0
M  CHG  4  20  -1  24  -1  48  -1  50  -1
M  END
>  <filename_input>  (12) 
7MFP_Z7P_docked.sdf

>  <pdb_id>  (12) 
7MFP_Z7P

>  <pose_rank>  (12) 
11

>  <num_atoms_heavy>  (12) 
50

>  <num_torsions>  (12) 
13

>  <pose>  (12) 
[-77.32461905181043, -17.157039666804906, 18.672549390650047, 0.659786245140388, 2.6721714236310707, 1.533762478971223, 0.17663911093614765, 1.292684005565905, 2.0949681259554542, 3.194599625119175, -1.1518966924742176, 1.7912360042253352, -0.24358037598396756, -1.539060392504633, 6.120079803277081, 5.851943200724416, -1.6548638191084732, 7.142330997589223, -1.0330973511397759]

>  <energy>  (12) 
-656.5321596031057

>  <inter_energy>  (12) 
-729.6972880099553

>  <intra_energy>  (12) 
78.49257049945128

>  <rmsd>  (12) 
11.3772

>  <sdf_rank>  (12) 
0

$$$$

     RDKit          3D

 79 82  0  0  0  0  0  0  0  0999 V2000
  -67.1866  -18.5711   14.3686 O   0  0  0  0  0  0  0  0  0  0  0  0
  -68.2486  -18.5697   15.0550 C   0  0  0  0  0  0  0  0  0  0  0  0
  -69.0839  -17.4483   15.1113 C   0  0  0  0  0  0  0  0  0  0  0  0
  -70.2362  -17.4967   15.9060 C   0  0  0  0  0  0  0  0  0  0  0  0
  -68.6032  -19.6583   15.7637 N   0  0  0  0  0  0  0  0  0  0  0  0
  -69.6797  -19.6922   16.5676 C   0  0  0  0  0  0  0  0  0  0  0  0
  -69.9283  -20.7196   17.2232 O   0  0  0  0  0  0  0  0  0  0  0  0
  -70.5447  -18.5833   16.6571 N   0  0  0  0  0  0  0  0  0  0  0  0
  -71.7306  -18.6139   17.5291 C   0  0  2  0  0  0  0  0  0  0  0  0
  -72.7510  -17.7273   17.0777 O   0  0  0  0  0  0  0  0  0  0  0  0
  -71.3602  -18.0250   18.8961 C   0  0  2  0  0  0  0  0  0  0  0  0
  -70.7392  -18.9157   19.8493 O   0  0  0  0  0  0  0  0  0  0  0  0
  -72.6780  -17.5494   19.4281 C   0  0  2  0  0  0  0  0  0  0  0  0
  -73.4001  -18.6417   20.0449 O   0  0  0  0  0  0  0  0  0  0  0  0
  -73.4553  -17.1902   18.1753 C   0  0  1  0  0  0  0  0  0  0  0  0
  -73.5817  -15.7031   17.9640 C   0  0  0  0  0  0  0  0  0  0  0  0
  -74.1908  -15.4343   16.7198 O   0  0  0  0  0  0  0  0  0  0  0  0
  -75.7407  -15.6926   16.4967 P   0  0  1  0  0  0  0  0  0  0  0  0
  -76.4561  -14.5443   15.8422 O   0  0  0  0  0  0  0  0  0  0  0  0
  -75.9818  -16.9736   15.7883 O   0  0  0  0  0  0  0  0  0  0  0  0
  -76.2632  -15.9047   18.0229 O   0  0  0  0  0  0  0  0  0  0  0  0
  -77.7083  -15.7034   18.6952 P   0  0  1  0  0  0  0  0  0  0  0  0
  -77.6808  -16.1004   20.1653 O   0  0  0  0  0  0  0  0  0  0  0  0
  -78.3319  -14.4099   18.3769 O   0  0  0  0  0  0  0  0  0  0  0  0
  -78.6375  -16.7552   17.8687 O   0  0  0  0  0  0  0  0  0  0  0  0
  -79.5124  -16.1644   16.9288 C   0  0  1  0  0  0  0  0  0  0  0  0
  -79.2369  -16.8013   15.6893 O   0  0  0  0  0  0  0  0  0  0  0  0
  -79.6214  -18.1903   15.6719 C   0  0  2  0  0  0  0  0  0  0  0  0
  -79.0568  -18.8222   14.4138 C   0  0  0  0  0  0  0  0  0  0  0  0
  -81.1269  -18.3132   15.8155 C   0  0  2  0  0  0  0  0  0  0  0  0
  -81.6243  -17.6421   17.1126 C   0  0  2  0  0  0  0  0  0  0  0  0
  -83.0495  -17.4637   16.9939 O   0  0  0  0  0  0  0  0  0  0  0  0
  -81.0047  -16.2632   17.3375 C   0  0  1  0  0  0  0  0  0  0  0  0
  -81.1900  -15.8432   18.6887 O   0  0  0  0  0  0  0  0  0  0  0  0
  -81.4387  -19.7520   15.7754 N   0  0  0  0  0  0  0  0  0  0  0  0
  -81.3800  -20.5374   16.7552 C   0  0  0  0  0  0  0  0  0  0  0  0
  -81.7803  -21.9183   16.5823 C   0  0  0  0  0  0  0  0  0  0  0  0
  -83.2133  -22.3155   16.6298 C   0  0  0  0  0  0  0  0  0  0  0  0
  -84.1999  -21.4276   16.8198 O   0  0  0  0  0  0  0  0  0  0  0  0
  -83.5697  -23.7519   16.4457 C   0  0  0  0  0  0  0  0  0  0  0  0
  -85.0190  -24.1776   16.4356 C   0  0  0  0  0  0  0  0  0  0  0  0
  -80.7961  -22.9935   16.4117 C   0  0  0  0  0  0  0  0  0  0  0  0
  -81.2666  -24.3033   16.2637 C   0  0  0  0  0  0  0  0  0  0  0  0
  -82.5832  -24.6323   16.2598 N   0  0  0  0  0  0  0  0  0  0  0  0
  -79.2973  -22.7302   16.3607 C   0  0  0  0  0  0  0  0  0  0  0  0
  -78.8438  -22.7756   14.9925 O   0  0  0  0  0  0  0  0  0  0  0  0
  -77.8583  -23.9883   14.6181 P   0  0  2  0  0  0  0  0  0  0  0  0
  -76.6202  -23.3341   14.0631 O   0  0  0  0  0  0  0  0  0  0  0  0
  -78.6459  -24.7105   13.4805 O   0  0  0  0  0  0  0  0  0  0  0  0
  -77.6157  -24.9694   15.7397 O   0  0  0  0  0  0  0  0  0  0  0  0
  -68.8389  -16.5412   14.5393 H   0  0  0  0  0  0  0  0  0  0  0  0
  -70.9109  -16.6280   15.9216 H   0  0  0  0  0  0  0  0  0  0  0  0
  -68.0219  -20.5050   15.6860 H   0  0  0  0  0  0  0  0  0  0  0  0
  -72.0680  -19.6607   17.5472 H   0  0  0  0  0  0  0  0  0  0  0  0
  -70.5841  -17.2578   18.7574 H   0  0  0  0  0  0  0  0  0  0  0  0
  -70.9496  -18.6140   20.7685 H   0  0  0  0  0  0  0  0  0  0  0  0
  -72.5501  -16.7386   20.1604 H   0  0  0  0  0  0  0  0  0  0  0  0
  -73.3454  -18.5589   21.0299 H   0  0  0  0  0  0  0  0  0  0  0  0
  -74.4730  -17.5951   18.2770 H   0  0  0  0  0  0  0  0  0  0  0  0
  -74.1961  -15.2733   18.7689 H   0  0  0  0  0  0  0  0  0  0  0  0
  -72.5777  -15.2539   17.9750 H   0  0  0  0  0  0  0  0  0  0  0  0
  -79.3381  -15.0803   16.8633 H   0  0  0  0  0  0  0  0  0  0  0  0
  -79.2036  -18.7419   16.5269 H   0  0  0  0  0  0  0  0  0  0  0  0
  -78.3471  -19.6163   14.6891 H   0  0  0  0  0  0  0  0  0  0  0  0
  -79.8766  -19.2527   13.8200 H   0  0  0  0  0  0  0  0  0  0  0  0
  -78.5372  -18.0557   13.8200 H   0  0  0  0  0  0  0  0  0  0  0  0
  -81.6470  -17.7899   14.9996 H   0  0  0  0  0  0  0  0  0  0  0  0
  -81.3398  -18.2859   17.9579 H   0  0  0  0  0  0  0  0  0  0  0  0
  -83.4521  -17.4133   17.8969 H   0  0  0  0  0  0  0  0  0  0  0  0
  -81.5417  -15.5792   16.6639 H   0  0  0  0  0  0  0  0  0  0  0  0
  -80.8761  -16.5547   19.3013 H   0  0  0  0  0  0  0  0  0  0  0  0
  -81.0281  -20.1793   17.7339 H   0  0  0  0  0  0  0  0  0  0  0  0
  -85.1417  -21.7319   16.8452 H   0  0  0  0  0  0  0  0  0  0  0  0
  -85.3774  -24.2829   17.4702 H   0  0  0  0  0  0  0  0  0  0  0  0
  -85.6206  -23.4183   15.9146 H   0  0  0  0  0  0  0  0  0  0  0  0
  -85.1143  -25.1417   15.9146 H   0  0  0  0  0  0  0  0  0  0  0  0
  -80.5288  -25.1104   16.1440 H   0  0  0  0  0  0  0  0  0  0  0  0
  -79.0856  -21.7370   16.7836 H   0  0  0  0  0  0  0  0  0  0  0  0
  -78.7714  -23.4994   16.9452 H   0  0  0  0  0  0  0  0  0  0  0  0
  1  2  2  0
  2  3  1  0
  2  5  1  0
  3  4  2  0
  4  8  1  0
  5  6  1  0
  6  7  2  0
  6  8  1  0
  9  8  1  0
  9 10  1  0
  9 11  1  0
 10 15  1  0
 11 12  1  0
 11 13  1  0
 13 14  1  0
 13 15  1  0
 15 16  1  0
 16 17  1  0
 17 18  1  0
 18 19  2  0
 18 20  1  6
 18 21  1  0
 21 22  1  0
 22 23  2  0
 22 24  1  1
 22 25  1  0
 26 25  1  0
 26 27  1  0
 26 33  1  0
 27 28  1  0
 28 29  1  0
 28 30  1  0
 30 31  1  0
 30 35  1  0
 31 32  1  0
 31 33  1  0
 33 34  1  0
 35 36  2  3
 36 37  1  0
 37 38  2  0
 37 42  1  0
 38 39  1  0
 38 40  1  0
 40 41  1  0
 40 44  2  0
 42 43  2  0
 42 45  1  0
 43 44  1  0
 45 46  1  0
 46 47  1  0
 47 48  1  6
 47 49  2  0
 47 50  1  0
  3 51  1  0
  4 52  1  0
  5 53  1  0
  9 54  1  1
 11 55  1  6
 12 56  1  0
 13 57  1  1
 14 58  1  0
 15 59  1  1
 16 60  1  0
 16 61  1  0
 26 62  1  6
 28 63  1  1
 29 64  1  0
 29 65  1  0
 29 66  1  0
 30 67  1  6
 31 68  1  1
 32 69  1  0
 33 70  1  6
 34 71  1  0
 36 72  1  0
 39 73  1  0
 41 74  1  0
 41 75  1  0
 41 76  1  0
 43 77  1  0
 45 78  1  0
 45 79  1  0
M  CHG  4  20  -1  24  -1  48  -1  50  -1
M  END
>  <filename_input>  (13) 
7MFP_Z7P_docked.sdf

>  <pdb_id>  (13) 
7MFP_Z7P

>  <pose_rank>  (13) 
12

>  <num_atoms_heavy>  (13) 
50

>  <num_torsions>  (13) 
13

>  <pose>  (13) 
[-78.63754993063958, -16.755203244961233, 17.868740195533285, -1.287269477422254, 2.359255883264211, 0.5396754874519024, -5.89937420894835, 5.22643847426044, 4.935203691024824, -2.911769099040968, 0.7445764922921133, 0.8315482125511975, -2.6316742068218, -8.811417022577896, -5.382033831559067, 1.8152513111430657, -2.635142929675975, -4.38121272776637, -0.3413822029094004]

>  <energy>  (13) 
-703.4561669535886

>  <inter_energy>  (13) 
-716.6531739620349

>  <intra_energy>  (13) 
20.107061156693547

>  <rmsd>  (13) 
10.7405

>  <sdf_rank>  (13) 
0

$$$$

     RDKit          3D

 79 82  0  0  0  0  0  0  0  0999 V2000
  -67.3186  -18.0424   14.1832 O   0  0  0  0  0  0  0  0  0  0  0  0
  -68.3226  -18.1449   14.9451 C   0  0  0  0  0  0  0  0  0  0  0  0
  -68.7935  -19.3911   15.3739 C   0  0  0  0  0  0  0  0  0  0  0  0
  -69.9236  -19.4446   16.1997 C   0  0  0  0  0  0  0  0  0  0  0  0
  -68.9765  -17.0443   15.3623 N   0  0  0  0  0  0  0  0  0  0  0  0
  -70.0908  -17.0925   16.1121 C   0  0  0  0  0  0  0  0  0  0  0  0
  -70.6660  -16.0369   16.4314 O   0  0  0  0  0  0  0  0  0  0  0  0
  -70.6013  -18.3267   16.5616 N   0  0  0  0  0  0  0  0  0  0  0  0
  -71.8170  -18.3890   17.3899 C   0  0  2  0  0  0  0  0  0  0  0  0
  -72.8807  -17.6163   16.8399 O   0  0  0  0  0  0  0  0  0  0  0  0
  -71.5486  -17.6817   18.7242 C   0  0  2  0  0  0  0  0  0  0  0  0
  -70.9035  -18.4552   19.7602 O   0  0  0  0  0  0  0  0  0  0  0  0
  -72.9191  -17.2739   19.1728 C   0  0  2  0  0  0  0  0  0  0  0  0
  -73.5832  -18.3740   19.8388 O   0  0  0  0  0  0  0  0  0  0  0  0
  -73.6680  -17.0616   17.8702 C   0  0  1  0  0  0  0  0  0  0  0  0
  -73.8956  -15.6064   17.5494 C   0  0  0  0  0  0  0  0  0  0  0  0
  -75.2760  -15.3133   17.5530 O   0  0  0  0  0  0  0  0  0  0  0  0
  -76.1400  -15.4359   16.2275 P   0  0  1  0  0  0  0  0  0  0  0  0
  -75.6559  -14.5578   15.1078 O   0  0  0  0  0  0  0  0  0  0  0  0
  -76.2846  -16.8497   15.8017 O   0  0  0  0  0  0  0  0  0  0  0  0
  -77.6070  -14.9579   16.7440 O   0  0  0  0  0  0  0  0  0  0  0  0
  -78.7947  -15.7557   17.4745 P   0  0  1  0  0  0  0  0  0  0  0  0
  -79.6686  -16.4758   16.4560 O   0  0  0  0  0  0  0  0  0  0  0  0
  -78.3495  -16.5463   18.6320 O   0  0  0  0  0  0  0  0  0  0  0  0
  -79.6524  -14.5603   18.1732 O   0  0  0  0  0  0  0  0  0  0  0  0
  -79.7909  -14.6694   19.5757 C   0  0  1  0  0  0  0  0  0  0  0  0
  -79.5772  -13.3623   20.0890 O   0  0  0  0  0  0  0  0  0  0  0  0
  -80.6200  -12.4364   19.7245 C   0  0  2  0  0  0  0  0  0  0  0  0
  -80.1663  -11.0393   20.1028 C   0  0  0  0  0  0  0  0  0  0  0  0
  -81.9339  -12.8620   20.3528 C   0  0  2  0  0  0  0  0  0  0  0  0
  -82.3231  -14.2928   19.9267 C   0  0  2  0  0  0  0  0  0  0  0  0
  -83.3424  -14.7571   20.8337 O   0  0  0  0  0  0  0  0  0  0  0  0
  -81.1521  -15.2714   20.0098 C   0  0  1  0  0  0  0  0  0  0  0  0
  -81.4384  -16.4612   19.2759 O   0  0  0  0  0  0  0  0  0  0  0  0
  -82.9387  -11.8648   19.9464 N   0  0  0  0  0  0  0  0  0  0  0  0
  -84.1439  -12.1098   19.6862 C   0  0  0  0  0  0  0  0  0  0  0  0
  -85.0361  -11.0160   19.3626 C   0  0  0  0  0  0  0  0  0  0  0  0
  -85.8342  -10.3362   20.4182 C   0  0  0  0  0  0  0  0  0  0  0  0
  -85.7627  -10.6854   21.7109 O   0  0  0  0  0  0  0  0  0  0  0  0
  -86.7377   -9.2152   20.0293 C   0  0  0  0  0  0  0  0  0  0  0  0
  -87.5198   -8.4711   21.0858 C   0  0  0  0  0  0  0  0  0  0  0  0
  -85.2395  -10.5667   17.9803 C   0  0  0  0  0  0  0  0  0  0  0  0
  -86.1295   -9.5108   17.7524 C   0  0  0  0  0  0  0  0  0  0  0  0
  -86.8074   -8.8736   18.7404 N   0  0  0  0  0  0  0  0  0  0  0  0
  -84.4994  -11.1846   16.8019 C   0  0  0  0  0  0  0  0  0  0  0  0
  -85.2949  -12.2436   16.2317 O   0  0  0  0  0  0  0  0  0  0  0  0
  -85.7782  -12.0217   14.7153 P   0  0  2  0  0  0  0  0  0  0  0  0
  -86.9244  -12.9796   14.5220 O   0  0  0  0  0  0  0  0  0  0  0  0
  -84.5329  -12.4956   13.9025 O   0  0  0  0  0  0  0  0  0  0  0  0
  -86.0762  -10.5862   14.3550 O   0  0  0  0  0  0  0  0  0  0  0  0
  -68.2832  -20.3158   15.0667 H   0  0  0  0  0  0  0  0  0  0  0  0
  -70.2716  -20.4218   16.5655 H   0  0  0  0  0  0  0  0  0  0  0  0
  -68.6051  -16.1218   15.0940 H   0  0  0  0  0  0  0  0  0  0  0  0
  -72.0763  -19.4550   17.4699 H   0  0  0  0  0  0  0  0  0  0  0  0
  -70.8265  -16.8684   18.5597 H   0  0  0  0  0  0  0  0  0  0  0  0
  -71.1848  -18.1179   20.6474 H   0  0  0  0  0  0  0  0  0  0  0  0
  -72.8823  -16.4077   19.8499 H   0  0  0  0  0  0  0  0  0  0  0  0
  -73.5127  -18.2571   20.8194 H   0  0  0  0  0  0  0  0  0  0  0  0
  -74.6562  -17.5357   17.9633 H   0  0  0  0  0  0  0  0  0  0  0  0
  -73.3910  -14.9854   18.3043 H   0  0  0  0  0  0  0  0  0  0  0  0
  -73.4873  -15.3925   16.5507 H   0  0  0  0  0  0  0  0  0  0  0  0
  -79.0571  -15.3795   19.9847 H   0  0  0  0  0  0  0  0  0  0  0  0
  -80.8055  -12.4342   18.6402 H   0  0  0  0  0  0  0  0  0  0  0  0
  -80.1365  -10.9476   21.1985 H   0  0  0  0  0  0  0  0  0  0  0  0
  -79.1624  -10.8561   19.6921 H   0  0  0  0  0  0  0  0  0  0  0  0
  -80.8708  -10.3012   19.6921 H   0  0  0  0  0  0  0  0  0  0  0  0
  -81.8562  -12.8963   21.4495 H   0  0  0  0  0  0  0  0  0  0  0  0
  -82.6622  -14.2546   18.8809 H   0  0  0  0  0  0  0  0  0  0  0  0
  -83.0413  -14.6199   21.7667 H   0  0  0  0  0  0  0  0  0  0  0  0
  -81.0405  -15.5162   21.0764 H   0  0  0  0  0  0  0  0  0  0  0  0
  -81.6169  -17.2031   19.9066 H   0  0  0  0  0  0  0  0  0  0  0  0
  -84.5170  -13.1444   19.7041 H   0  0  0  0  0  0  0  0  0  0  0  0
  -86.3104  -10.2082   22.3836 H   0  0  0  0  0  0  0  0  0  0  0  0
  -87.1842   -8.7905   22.0835 H   0  0  0  0  0  0  0  0  0  0  0  0
  -87.3534   -7.3898   20.9717 H   0  0  0  0  0  0  0  0  0  0  0  0
  -88.5915   -8.6911   20.9717 H   0  0  0  0  0  0  0  0  0  0  0  0
  -86.2883   -9.1793   16.7157 H   0  0  0  0  0  0  0  0  0  0  0  0
  -84.3165  -10.4131   16.0394 H   0  0  0  0  0  0  0  0  0  0  0  0
  -83.5395  -11.5952   17.1485 H   0  0  0  0  0  0  0  0  0  0  0  0
  1  2  2  0
  2  3  1  0
  2  5  1  0
  3  4  2  0
  4  8  1  0
  5  6  1  0
  6  7  2  0
  6  8  1  0
  9  8  1  0
  9 10  1  0
  9 11  1  0
 10 15  1  0
 11 12  1  0
 11 13  1  0
 13 14  1  0
 13 15  1  0
 15 16  1  0
 16 17  1  0
 17 18  1  0
 18 19  2  0
 18 20  1  6
 18 21  1  0
 21 22  1  0
 22 23  2  0
 22 24  1  1
 22 25  1  0
 26 25  1  0
 26 27  1  0
 26 33  1  0
 27 28  1  0
 28 29  1  0
 28 30  1  0
 30 31  1  0
 30 35  1  0
 31 32  1  0
 31 33  1  0
 33 34  1  0
 35 36  2  3
 36 37  1  0
 37 38  2  0
 37 42  1  0
 38 39  1  0
 38 40  1  0
 40 41  1  0
 40 44  2  0
 42 43  2  0
 42 45  1  0
 43 44  1  0
 45 46  1  0
 46 47  1  0
 47 48  1  6
 47 49  2  0
 47 50  1  0
  3 51  1  0
  4 52  1  0
  5 53  1  0
  9 54  1  1
 11 55  1  6
 12 56  1  0
 13 57  1  1
 14 58  1  0
 15 59  1  1
 16 60  1  0
 16 61  1  0
 26 62  1  1
 28 63  1  6
 29 64  1  0
 29 65  1  0
 29 66  1  0
 30 67  1  1
 31 68  1  6
 32 69  1  0
 33 70  1  1
 34 71  1  0
 36 72  1  0
 39 73  1  0
 41 74  1  0
 41 75  1  0
 41 76  1  0
 43 77  1  0
 45 78  1  0
 45 79  1  0
M  CHG  4  20  -1  24  -1  48  -1  50  -1
M  END
>  <filename_input>  (14) 
7MFP_Z7P_docked.sdf

>  <pdb_id>  (14) 
7MFP_Z7P

>  <pose_rank>  (14) 
13

>  <num_atoms_heavy>  (14) 
50

>  <num_torsions>  (14) 
13

>  <pose>  (14) 
[-79.65244005857866, -14.560349915601035, 18.173222105492716, -1.3300052780024887, -0.7629379931860465, -3.6699329623351002, 0.5812339977807511, 0.0015509867705714563, 4.758236489609769, -5.790879695393677, 4.758271289611334, 0.16936816248252293, -2.9180139729991437, -0.8144160162160341, -3.278681354160881, -1.526557993395231, 0.7986432913601557, 3.130078995466544, 3.204483411561906]

>  <energy>  (14) 
-670.115965405445

>  <inter_energy>  (14) 
-721.8036683450503

>  <intra_energy>  (14) 
51.46225072744111

>  <rmsd>  (14) 
12.6364

>  <sdf_rank>  (14) 
0

$$$$

     RDKit          3D

 79 82  0  0  0  0  0  0  0  0999 V2000
  -67.4959  -19.9354   14.9137 O   0  0  0  0  0  0  0  0  0  0  0  0
  -68.3871  -19.0727   15.1597 C   0  0  0  0  0  0  0  0  0  0  0  0
  -68.4264  -17.8464   14.4866 C   0  0  0  0  0  0  0  0  0  0  0  0
  -69.4238  -16.9202   14.8165 C   0  0  0  0  0  0  0  0  0  0  0  0
  -69.3282  -19.3123   16.0924 N   0  0  0  0  0  0  0  0  0  0  0  0
  -70.2558  -18.4073   16.4487 C   0  0  0  0  0  0  0  0  0  0  0  0
  -71.0732  -18.6814   17.3452 O   0  0  0  0  0  0  0  0  0  0  0  0
  -70.3276  -17.1586   15.7995 N   0  0  0  0  0  0  0  0  0  0  0  0
  -71.3451  -16.1637   16.1776 C   0  0  2  0  0  0  0  0  0  0  0  0
  -71.8512  -16.3871   17.4910 O   0  0  0  0  0  0  0  0  0  0  0  0
  -72.5894  -16.3657   15.3037 C   0  0  2  0  0  0  0  0  0  0  0  0
  -72.5851  -15.7431   13.9999 O   0  0  0  0  0  0  0  0  0  0  0  0
  -73.6886  -15.7854   16.1408 C   0  0  2  0  0  0  0  0  0  0  0  0
  -73.7497  -14.3490   15.9732 O   0  0  0  0  0  0  0  0  0  0  0  0
  -73.2110  -16.0196   17.5620 C   0  0  1  0  0  0  0  0  0  0  0  0
  -73.9563  -17.1277   18.2611 C   0  0  0  0  0  0  0  0  0  0  0  0
  -74.7668  -16.6012   19.2893 O   0  0  0  0  0  0  0  0  0  0  0  0
  -74.6030  -17.0911   20.7899 P   0  0  1  0  0  0  0  0  0  0  0  0
  -75.2018  -16.1533   21.8001 O   0  0  0  0  0  0  0  0  0  0  0  0
  -75.0917  -18.4811   20.9643 O   0  0  0  0  0  0  0  0  0  0  0  0
  -72.9842  -17.1493   20.9435 O   0  0  0  0  0  0  0  0  0  0  0  0
  -71.9040  -16.0165   21.3049 P   0  0  1  0  0  0  0  0  0  0  0  0
  -70.5299  -16.6328   21.5328 O   0  0  0  0  0  0  0  0  0  0  0  0
  -71.9581  -14.8450   20.4172 O   0  0  0  0  0  0  0  0  0  0  0  0
  -72.4681  -15.4192   22.7113 O   0  0  0  0  0  0  0  0  0  0  0  0
  -71.8369  -15.9281   23.8692 C   0  0  1  0  0  0  0  0  0  0  0  0
  -70.6714  -15.1375   24.0543 O   0  0  0  0  0  0  0  0  0  0  0  0
  -70.9672  -13.7726   24.4113 C   0  0  2  0  0  0  0  0  0  0  0  0
  -69.6804  -12.9733   24.3334 C   0  0  0  0  0  0  0  0  0  0  0  0
  -71.6539  -13.7279   25.7636 C   0  0  2  0  0  0  0  0  0  0  0  0
  -72.9478  -14.5682   25.7649 C   0  0  2  0  0  0  0  0  0  0  0  0
  -73.3252  -14.7877   27.1384 O   0  0  0  0  0  0  0  0  0  0  0  0
  -72.7612  -15.9383   25.1138 C   0  0  1  0  0  0  0  0  0  0  0  0
  -74.0250  -16.5233   24.8031 O   0  0  0  0  0  0  0  0  0  0  0  0
  -71.9089  -12.3081   26.0606 N   0  0  0  0  0  0  0  0  0  0  0  0
  -72.8502  -11.6227   25.5867 C   0  0  0  0  0  0  0  0  0  0  0  0
  -73.0174  -10.2514   26.0207 C   0  0  0  0  0  0  0  0  0  0  0  0
  -74.1313   -9.8615   26.9266 C   0  0  0  0  0  0  0  0  0  0  0  0
  -75.0216  -10.7482   27.3947 O   0  0  0  0  0  0  0  0  0  0  0  0
  -74.2568   -8.4348   27.3423 C   0  0  0  0  0  0  0  0  0  0  0  0
  -75.3452   -8.0186   28.3035 C   0  0  0  0  0  0  0  0  0  0  0  0
  -72.1381   -9.1768   25.5452 C   0  0  0  0  0  0  0  0  0  0  0  0
  -72.3761   -7.8760   26.0035 C   0  0  0  0  0  0  0  0  0  0  0  0
  -73.3694   -7.5555   26.8709 N   0  0  0  0  0  0  0  0  0  0  0  0
  -70.9693   -9.4326   24.6034 C   0  0  0  0  0  0  0  0  0  0  0  0
  -69.9948   -8.3789   24.7435 O   0  0  0  0  0  0  0  0  0  0  0  0
  -68.9966   -8.1744   23.5010 P   0  0  2  0  0  0  0  0  0  0  0  0
  -68.8551   -6.6825   23.3494 O   0  0  0  0  0  0  0  0  0  0  0  0
  -69.8243   -8.7635   22.3161 O   0  0  0  0  0  0  0  0  0  0  0  0
  -67.6957   -8.9329   23.6093 O   0  0  0  0  0  0  0  0  0  0  0  0
  -67.6841  -17.6132   13.7091 H   0  0  0  0  0  0  0  0  0  0  0  0
  -69.4758  -15.9715   14.2621 H   0  0  0  0  0  0  0  0  0  0  0  0
  -69.3378  -20.2327   16.5547 H   0  0  0  0  0  0  0  0  0  0  0  0
  -70.8605  -15.1810   16.0807 H   0  0  0  0  0  0  0  0  0  0  0  0
  -72.6799  -17.4322   15.0501 H   0  0  0  0  0  0  0  0  0  0  0  0
  -72.5784  -14.7587   14.1043 H   0  0  0  0  0  0  0  0  0  0  0  0
  -74.6653  -16.2230   15.8864 H   0  0  0  0  0  0  0  0  0  0  0  0
  -73.7682  -13.9135   16.8621 H   0  0  0  0  0  0  0  0  0  0  0  0
  -73.3809  -15.0966   18.1358 H   0  0  0  0  0  0  0  0  0  0  0  0
  -74.5907  -17.6540   17.5327 H   0  0  0  0  0  0  0  0  0  0  0  0
  -73.2288  -17.8254   18.7014 H   0  0  0  0  0  0  0  0  0  0  0  0
  -71.5778  -16.9888   23.7363 H   0  0  0  0  0  0  0  0  0  0  0  0
  -71.6783  -13.3107   23.7106 H   0  0  0  0  0  0  0  0  0  0  0  0
  -69.3241  -12.7520   25.3503 H   0  0  0  0  0  0  0  0  0  0  0  0
  -68.9181  -13.5571   23.7967 H   0  0  0  0  0  0  0  0  0  0  0  0
  -69.8659  -12.0312   23.7967 H   0  0  0  0  0  0  0  0  0  0  0  0
  -71.0191  -14.1704   26.5454 H   0  0  0  0  0  0  0  0  0  0  0  0
  -73.7091  -14.0189   25.1916 H   0  0  0  0  0  0  0  0  0  0  0  0
  -72.6427  -14.3907   27.7356 H   0  0  0  0  0  0  0  0  0  0  0  0
  -72.2439  -16.5579   25.8612 H   0  0  0  0  0  0  0  0  0  0  0  0
  -74.5018  -16.7441   25.6422 H   0  0  0  0  0  0  0  0  0  0  0  0
  -73.5399  -12.0603   24.8499 H   0  0  0  0  0  0  0  0  0  0  0  0
  -75.7491  -10.4489   27.9959 H   0  0  0  0  0  0  0  0  0  0  0  0
  -74.9930   -8.1532   29.3368 H   0  0  0  0  0  0  0  0  0  0  0  0
  -75.5968   -6.9608   28.1368 H   0  0  0  0  0  0  0  0  0  0  0  0
  -76.2384   -8.6386   28.1368 H   0  0  0  0  0  0  0  0  0  0  0  0
  -71.7222   -7.0692   25.6409 H   0  0  0  0  0  0  0  0  0  0  0  0
  -70.5033  -10.3974   24.8521 H   0  0  0  0  0  0  0  0  0  0  0  0
  -71.3348   -9.4562   23.5662 H   0  0  0  0  0  0  0  0  0  0  0  0
  1  2  2  0
  2  3  1  0
  2  5  1  0
  3  4  2  0
  4  8  1  0
  5  6  1  0
  6  7  2  0
  6  8  1  0
  9  8  1  0
  9 10  1  0
  9 11  1  0
 10 15  1  0
 11 12  1  0
 11 13  1  0
 13 14  1  0
 13 15  1  0
 15 16  1  0
 16 17  1  0
 17 18  1  0
 18 19  2  0
 18 20  1  6
 18 21  1  0
 21 22  1  0
 22 23  2  0
 22 24  1  6
 22 25  1  0
 26 25  1  0
 26 27  1  0
 26 33  1  0
 27 28  1  0
 28 29  1  0
 28 30  1  0
 30 31  1  0
 30 35  1  0
 31 32  1  0
 31 33  1  0
 33 34  1  0
 35 36  2  3
 36 37  1  0
 37 38  2  0
 37 42  1  0
 38 39  1  0
 38 40  1  0
 40 41  1  0
 40 44  2  0
 42 43  2  0
 42 45  1  0
 43 44  1  0
 45 46  1  0
 46 47  1  0
 47 48  1  6
 47 49  2  0
 47 50  1  0
  3 51  1  0
  4 52  1  0
  5 53  1  0
  9 54  1  1
 11 55  1  6
 12 56  1  0
 13 57  1  1
 14 58  1  0
 15 59  1  1
 16 60  1  0
 16 61  1  0
 26 62  1  6
 28 63  1  6
 29 64  1  0
 29 65  1  0
 29 66  1  0
 30 67  1  1
 31 68  1  6
 32 69  1  0
 33 70  1  1
 34 71  1  0
 36 72  1  0
 39 73  1  0
 41 74  1  0
 41 75  1  0
 41 76  1  0
 43 77  1  0
 45 78  1  0
 45 79  1  0
M  CHG  4  20  -1  24  -1  48  -1  50  -1
M  END
>  <filename_input>  (15) 
7MFP_Z7P_docked.sdf

>  <pdb_id>  (15) 
7MFP_Z7P

>  <pose_rank>  (15) 
14

>  <num_atoms_heavy>  (15) 
50

>  <num_torsions>  (15) 
13

>  <pose>  (15) 
[-72.46809080680507, -15.419180639423361, 22.71126876948241, 1.5494650238406642, 0.4618489694812879, 2.2900442207665535, -6.613417289147097, -7.416400737616575, -1.7914736286597197, -3.862910848752231, -0.0416170249848779, -0.8552983508865238, 7.222636857274374, -2.6381210236533454, -6.618175461800574, 2.3255093165939362, 6.5173482508642815, 3.213018715984788, -3.5597279419271004]

>  <energy>  (15) 
-676.0546444682955

>  <inter_energy>  (15) 
-723.7789929829586

>  <intra_energy>  (15) 
51.960145398187706

>  <rmsd>  (15) 
11.6298

>  <sdf_rank>  (15) 
0

$$$$

     RDKit          3D

 79 82  0  0  0  0  0  0  0  0999 V2000
  -69.8328  -21.7233   18.0372 O   0  0  0  0  0  0  0  0  0  0  0  0
  -70.0594  -20.5171   17.7326 C   0  0  0  0  0  0  0  0  0  0  0  0
  -69.5388  -19.9451   16.5663 C   0  0  0  0  0  0  0  0  0  0  0  0
  -69.8046  -18.5977   16.2914 C   0  0  0  0  0  0  0  0  0  0  0  0
  -70.8105  -19.7409   18.5365 N   0  0  0  0  0  0  0  0  0  0  0  0
  -71.0259  -18.4349   18.3038 C   0  0  0  0  0  0  0  0  0  0  0  0
  -71.6998  -17.7675   19.1085 O   0  0  0  0  0  0  0  0  0  0  0  0
  -70.5161  -17.8183   17.1437 N   0  0  0  0  0  0  0  0  0  0  0  0
  -70.7532  -16.3900   16.8763 C   0  0  2  0  0  0  0  0  0  0  0  0
  -72.1396  -16.0613   16.9095 O   0  0  0  0  0  0  0  0  0  0  0  0
  -70.3747  -16.0851   15.4215 C   0  0  2  0  0  0  0  0  0  0  0  0
  -68.9813  -15.8198   15.1464 O   0  0  0  0  0  0  0  0  0  0  0  0
  -71.1955  -14.8718   15.1053 C   0  0  2  0  0  0  0  0  0  0  0  0
  -70.5324  -13.6742   15.5754 O   0  0  0  0  0  0  0  0  0  0  0  0
  -72.4240  -15.0391   15.9804 C   0  0  1  0  0  0  0  0  0  0  0  0
  -73.6515  -15.4440   15.2049 C   0  0  0  0  0  0  0  0  0  0  0  0
  -74.7932  -14.7928   15.7185 O   0  0  0  0  0  0  0  0  0  0  0  0
  -76.2401  -15.4200   15.5405 P   0  0  1  0  0  0  0  0  0  0  0  0
  -77.1332  -14.6283   14.6270 O   0  0  0  0  0  0  0  0  0  0  0  0
  -76.1686  -16.8485   15.1463 O   0  0  0  0  0  0  0  0  0  0  0  0
  -76.8029  -15.3909   17.0669 O   0  0  0  0  0  0  0  0  0  0  0  0
  -76.9273  -16.5408   18.1818 P   0  0  1  0  0  0  0  0  0  0  0  0
  -76.0417  -17.7299   17.8332 O   0  0  0  0  0  0  0  0  0  0  0  0
  -76.8365  -16.0376   19.5608 O   0  0  0  0  0  0  0  0  0  0  0  0
  -78.4914  -16.9808   18.0696 O   0  0  0  0  0  0  0  0  0  0  0  0
  -79.3085  -16.0903   17.3365 C   0  0  1  0  0  0  0  0  0  0  0  0
  -79.2810  -16.5550   15.9944 O   0  0  0  0  0  0  0  0  0  0  0  0
  -79.9405  -17.8254   15.8245 C   0  0  2  0  0  0  0  0  0  0  0  0
  -79.6318  -18.3363   14.4300 C   0  0  0  0  0  0  0  0  0  0  0  0
  -81.4203  -17.6860   16.1294 C   0  0  2  0  0  0  0  0  0  0  0  0
  -81.6518  -17.1561   17.5597 C   0  0  2  0  0  0  0  0  0  0  0  0
  -83.0156  -16.6969   17.6405 O   0  0  0  0  0  0  0  0  0  0  0  0
  -80.7466  -15.9737   17.9037 C   0  0  1  0  0  0  0  0  0  0  0  0
  -80.7203  -15.7543   19.3134 O   0  0  0  0  0  0  0  0  0  0  0  0
  -82.0211  -19.0145   15.9212 N   0  0  0  0  0  0  0  0  0  0  0  0
  -81.9308  -19.9866   16.7132 C   0  0  0  0  0  0  0  0  0  0  0  0
  -82.6310  -21.2170   16.4084 C   0  0  0  0  0  0  0  0  0  0  0  0
  -83.9632  -21.5113   17.0016 C   0  0  0  0  0  0  0  0  0  0  0  0
  -84.5860  -20.6598   17.8293 O   0  0  0  0  0  0  0  0  0  0  0  0
  -84.6399  -22.7939   16.6537 C   0  0  0  0  0  0  0  0  0  0  0  0
  -86.0161  -23.0964   17.1980 C   0  0  0  0  0  0  0  0  0  0  0  0
  -82.0393  -22.2522   15.5526 C   0  0  0  0  0  0  0  0  0  0  0  0
  -82.7774  -23.4180   15.3184 C   0  0  0  0  0  0  0  0  0  0  0  0
  -84.0141  -23.6395   15.8315 N   0  0  0  0  0  0  0  0  0  0  0  0
  -80.6765  -22.0884   14.8936 C   0  0  0  0  0  0  0  0  0  0  0  0
  -80.0580  -23.3810   14.7322 O   0  0  0  0  0  0  0  0  0  0  0  0
  -78.9359  -23.7642   15.8167 P   0  0  2  0  0  0  0  0  0  0  0  0
  -79.6910  -24.3791   16.9658 O   0  0  0  0  0  0  0  0  0  0  0  0
  -78.3802  -22.3629   16.2213 O   0  0  0  0  0  0  0  0  0  0  0  0
  -77.8004  -24.5999   15.2768 O   0  0  0  0  0  0  0  0  0  0  0  0
  -68.9292  -20.5455   15.8749 H   0  0  0  0  0  0  0  0  0  0  0  0
  -69.4252  -18.1586   15.3569 H   0  0  0  0  0  0  0  0  0  0  0  0
  -71.2405  -20.1683   19.3692 H   0  0  0  0  0  0  0  0  0  0  0  0
  -70.1773  -15.8389   17.6343 H   0  0  0  0  0  0  0  0  0  0  0  0
  -70.5656  -16.9773   14.8070 H   0  0  0  0  0  0  0  0  0  0  0  0
  -68.4886  -15.7260   15.9999 H   0  0  0  0  0  0  0  0  0  0  0  0
  -71.3861  -14.7820   14.0257 H   0  0  0  0  0  0  0  0  0  0  0  0
  -70.5280  -13.6663   16.5653 H   0  0  0  0  0  0  0  0  0  0  0  0
  -72.6399  -14.0704   16.4546 H   0  0  0  0  0  0  0  0  0  0  0  0
  -73.5207  -15.1672   14.1483 H   0  0  0  0  0  0  0  0  0  0  0  0
  -73.7892  -16.5315   15.2957 H   0  0  0  0  0  0  0  0  0  0  0  0
  -78.9235  -15.0623   17.4066 H   0  0  0  0  0  0  0  0  0  0  0  0
  -79.5687  -18.5784   16.5349 H   0  0  0  0  0  0  0  0  0  0  0  0
  -79.0642  -19.2758   14.5010 H   0  0  0  0  0  0  0  0  0  0  0  0
  -80.5725  -18.5162   13.8889 H   0  0  0  0  0  0  0  0  0  0  0  0
  -79.0350  -17.5873   13.8889 H   0  0  0  0  0  0  0  0  0  0  0  0
  -81.8940  -16.9477   15.4656 H   0  0  0  0  0  0  0  0  0  0  0  0
  -81.4297  -17.9718   18.2634 H   0  0  0  0  0  0  0  0  0  0  0  0
  -83.2783  -16.6085   18.5909 H   0  0  0  0  0  0  0  0  0  0  0  0
  -81.1913  -15.1000   17.4048 H   0  0  0  0  0  0  0  0  0  0  0  0
  -80.8243  -16.6192   19.7840 H   0  0  0  0  0  0  0  0  0  0  0  0
  -81.3262  -19.9035   17.6283 H   0  0  0  0  0  0  0  0  0  0  0  0
  -85.4725  -20.8924   18.2036 H   0  0  0  0  0  0  0  0  0  0  0  0
  -85.9852  -23.0896   18.2976 H   0  0  0  0  0  0  0  0  0  0  0  0
  -86.7255  -22.3328   16.8464 H   0  0  0  0  0  0  0  0  0  0  0  0
  -86.3398  -24.0872   16.8464 H   0  0  0  0  0  0  0  0  0  0  0  0
  -82.3307  -24.1974   14.6836 H   0  0  0  0  0  0  0  0  0  0  0  0
  -80.8010  -21.6165   13.9078 H   0  0  0  0  0  0  0  0  0  0  0  0
  -80.0383  -21.4550   15.5274 H   0  0  0  0  0  0  0  0  0  0  0  0
  1  2  2  0
  2  3  1  0
  2  5  1  0
  3  4  2  0
  4  8  1  0
  5  6  1  0
  6  7  2  0
  6  8  1  0
  9  8  1  0
  9 10  1  0
  9 11  1  0
 10 15  1  0
 11 12  1  0
 11 13  1  0
 13 14  1  0
 13 15  1  0
 15 16  1  0
 16 17  1  0
 17 18  1  0
 18 19  2  0
 18 20  1  6
 18 21  1  0
 21 22  1  0
 22 23  2  0
 22 24  1  1
 22 25  1  0
 26 25  1  0
 26 27  1  0
 26 33  1  0
 27 28  1  0
 28 29  1  0
 28 30  1  0
 30 31  1  0
 30 35  1  0
 31 32  1  0
 31 33  1  0
 33 34  1  0
 35 36  2  3
 36 37  1  0
 37 38  2  0
 37 42  1  0
 38 39  1  0
 38 40  1  0
 40 41  1  0
 40 44  2  0
 42 43  2  0
 42 45  1  0
 43 44  1  0
 45 46  1  0
 46 47  1  0
 47 48  1  1
 47 49  2  0
 47 50  1  0
  3 51  1  0
  4 52  1  0
  5 53  1  0
  9 54  1  1
 11 55  1  6
 12 56  1  0
 13 57  1  6
 14 58  1  0
 15 59  1  1
 16 60  1  0
 16 61  1  0
 26 62  1  6
 28 63  1  1
 29 64  1  0
 29 65  1  0
 29 66  1  0
 30 67  1  6
 31 68  1  1
 32 69  1  0
 33 70  1  6
 34 71  1  0
 36 72  1  0
 39 73  1  0
 41 74  1  0
 41 75  1  0
 41 76  1  0
 43 77  1  0
 45 78  1  0
 45 79  1  0
M  CHG  4  20  -1  24  -1  48  -1  50  -1
M  END
>  <filename_input>  (16) 
7MFP_Z7P_docked.sdf

>  <pdb_id>  (16) 
7MFP_Z7P

>  <pose_rank>  (16) 
15

>  <num_atoms_heavy>  (16) 
50

>  <num_torsions>  (16) 
13

>  <pose>  (16) 
[-78.49144990649418, -16.980790069964076, 18.069643631068082, 0.5867903161049111, -3.090815475486404, -0.424530082070401, -0.21273098829783665, -1.1769676232620891, -1.607592863810338, 1.4896363552941914, 0.9595721970009679, -1.7811723531346633, -1.0328451861312977, 0.9615573994700478, -3.573457441417583, -2.450661167974803, -0.3241343730616134, 2.674019941509935, 1.404241445728398]

>  <energy>  (16) 
-667.517629405976

>  <inter_energy>  (16) 
-713.4475343268815

>  <intra_energy>  (16) 
50.69892455080573

>  <rmsd>  (16) 
11.0124

>  <sdf_rank>  (16) 
0

$$$$

     RDKit          3D

 79 82  0  0  0  0  0  0  0  0999 V2000
  -67.3746  -20.3185   14.2790 O   0  0  0  0  0  0  0  0  0  0  0  0
  -68.2054  -19.5852   14.8883 C   0  0  0  0  0  0  0  0  0  0  0  0
  -69.4649  -20.0629   15.2677 C   0  0  0  0  0  0  0  0  0  0  0  0
  -70.3526  -19.1985   15.9208 C   0  0  0  0  0  0  0  0  0  0  0  0
  -67.8980  -18.3082   15.1846 N   0  0  0  0  0  0  0  0  0  0  0  0
  -68.7644  -17.4603   15.7648 C   0  0  0  0  0  0  0  0  0  0  0  0
  -68.4269  -16.2821   15.9766 O   0  0  0  0  0  0  0  0  0  0  0  0
  -70.0444  -17.8991   16.1586 N   0  0  0  0  0  0  0  0  0  0  0  0
  -70.9976  -16.9796   16.8018 C   0  0  2  0  0  0  0  0  0  0  0  0
  -71.7781  -17.6296   17.8016 O   0  0  0  0  0  0  0  0  0  0  0  0
  -72.0569  -16.5601   15.7748 C   0  0  2  0  0  0  0  0  0  0  0  0
  -71.7217  -15.4643   14.8948 O   0  0  0  0  0  0  0  0  0  0  0  0
  -73.2284  -16.1850   16.6307 C   0  0  2  0  0  0  0  0  0  0  0  0
  -73.0917  -14.8263   17.1105 O   0  0  0  0  0  0  0  0  0  0  0  0
  -73.0741  -17.0754   17.8498 C   0  0  1  0  0  0  0  0  0  0  0  0
  -74.0646  -18.2112   17.8815 C   0  0  0  0  0  0  0  0  0  0  0  0
  -75.3355  -17.7658   17.4596 O   0  0  0  0  0  0  0  0  0  0  0  0
  -76.6577  -18.5073   17.9289 P   0  0  1  0  0  0  0  0  0  0  0  0
  -77.3366  -19.2817   16.8343 O   0  0  0  0  0  0  0  0  0  0  0  0
  -76.4153  -19.3418   19.1314 O   0  0  0  0  0  0  0  0  0  0  0  0
  -77.5824  -17.2591   18.4130 O   0  0  0  0  0  0  0  0  0  0  0  0
  -77.2126  -15.8725   19.1351 P   0  0  1  0  0  0  0  0  0  0  0  0
  -76.5977  -16.1239   20.5057 O   0  0  0  0  0  0  0  0  0  0  0  0
  -76.5042  -14.9237   18.2627 O   0  0  0  0  0  0  0  0  0  0  0  0
  -78.6679  -15.1644   19.3175 O   0  0  0  0  0  0  0  0  0  0  0  0
  -79.1264  -14.4483   18.1883 C   0  0  1  0  0  0  0  0  0  0  0  0
  -80.3745  -15.0306   17.8408 O   0  0  0  0  0  0  0  0  0  0  0  0
  -81.4012  -14.7911   18.8238 C   0  0  2  0  0  0  0  0  0  0  0  0
  -82.5972  -15.6585   18.4802 C   0  0  0  0  0  0  0  0  0  0  0  0
  -81.7042  -13.3067   18.9056 C   0  0  2  0  0  0  0  0  0  0  0  0
  -80.4397  -12.4932   19.2513 C   0  0  2  0  0  0  0  0  0  0  0  0
  -80.7098  -11.1120   18.9405 O   0  0  0  0  0  0  0  0  0  0  0  0
  -79.2222  -12.9202   18.4321 C   0  0  1  0  0  0  0  0  0  0  0  0
  -78.0210  -12.4235   19.0208 O   0  0  0  0  0  0  0  0  0  0  0  0
  -82.7648  -13.1475   19.9150 N   0  0  0  0  0  0  0  0  0  0  0  0
  -82.6901  -12.4266   20.9422 C   0  0  0  0  0  0  0  0  0  0  0  0
  -83.8401  -12.3146   21.8151 C   0  0  0  0  0  0  0  0  0  0  0  0
  -83.9012  -13.0523   23.1056 C   0  0  0  0  0  0  0  0  0  0  0  0
  -82.9034  -13.8404   23.5315 O   0  0  0  0  0  0  0  0  0  0  0  0
  -85.1097  -12.9008   23.9662 C   0  0  0  0  0  0  0  0  0  0  0  0
  -85.1776  -13.5950   25.3061 C   0  0  0  0  0  0  0  0  0  0  0  0
  -85.0176  -11.5204   21.4453 C   0  0  0  0  0  0  0  0  0  0  0  0
  -86.0925  -11.4750   22.3406 C   0  0  0  0  0  0  0  0  0  0  0  0
  -86.1016  -12.1173   23.5360 N   0  0  0  0  0  0  0  0  0  0  0  0
  -85.0954  -10.7282   20.1473 C   0  0  0  0  0  0  0  0  0  0  0  0
  -86.4412  -10.2482   19.9526 O   0  0  0  0  0  0  0  0  0  0  0  0
  -86.9099  -10.0687   18.4261 P   0  0  2  0  0  0  0  0  0  0  0  0
  -87.8089   -8.8601   18.4286 O   0  0  0  0  0  0  0  0  0  0  0  0
  -87.7453  -11.3650   18.1859 O   0  0  0  0  0  0  0  0  0  0  0  0
  -85.7817  -10.0250   17.4239 O   0  0  0  0  0  0  0  0  0  0  0  0
  -69.7538  -21.1029   15.0558 H   0  0  0  0  0  0  0  0  0  0  0  0
  -71.3284  -19.5847   16.2505 H   0  0  0  0  0  0  0  0  0  0  0  0
  -66.9543  -17.9650   14.9558 H   0  0  0  0  0  0  0  0  0  0  0  0
  -70.3954  -16.1569   17.2146 H   0  0  0  0  0  0  0  0  0  0  0  0
  -72.2150  -17.3859   15.0654 H   0  0  0  0  0  0  0  0  0  0  0  0
  -71.4788  -14.6704   15.4341 H   0  0  0  0  0  0  0  0  0  0  0  0
  -74.1775  -16.2837   16.0836 H   0  0  0  0  0  0  0  0  0  0  0  0
  -73.0915  -14.8244   18.1005 H   0  0  0  0  0  0  0  0  0  0  0  0
  -73.2497  -16.4615   18.7454 H   0  0  0  0  0  0  0  0  0  0  0  0
  -73.7198  -19.0120   17.2107 H   0  0  0  0  0  0  0  0  0  0  0  0
  -74.1422  -18.5891   18.9116 H   0  0  0  0  0  0  0  0  0  0  0  0
  -78.4081  -14.5288   17.3591 H   0  0  0  0  0  0  0  0  0  0  0  0
  -81.0746  -15.0756   19.8349 H   0  0  0  0  0  0  0  0  0  0  0  0
  -83.0765  -16.0061   19.4072 H   0  0  0  0  0  0  0  0  0  0  0  0
  -83.3185  -15.0721   17.8920 H   0  0  0  0  0  0  0  0  0  0  0  0
  -82.2640  -16.5263   17.8920 H   0  0  0  0  0  0  0  0  0  0  0  0
  -82.0439  -12.9173   17.9345 H   0  0  0  0  0  0  0  0  0  0  0  0
  -80.2106  -12.6585   20.3144 H   0  0  0  0  0  0  0  0  0  0  0  0
  -80.8103  -10.5982   19.7807 H   0  0  0  0  0  0  0  0  0  0  0  0
  -79.3567  -12.4699   17.4375 H   0  0  0  0  0  0  0  0  0  0  0  0
  -78.0991  -12.4558   20.0072 H   0  0  0  0  0  0  0  0  0  0  0  0
  -81.7607  -11.8865   21.1756 H   0  0  0  0  0  0  0  0  0  0  0  0
  -82.9823  -14.3148   24.3968 H   0  0  0  0  0  0  0  0  0  0  0  0
  -85.1045  -12.8479   26.1101 H   0  0  0  0  0  0  0  0  0  0  0  0
  -86.1326  -14.1339   25.3919 H   0  0  0  0  0  0  0  0  0  0  0  0
  -84.3449  -14.3086   25.3919 H   0  0  0  0  0  0  0  0  0  0  0  0
  -86.9783  -10.8864   22.0599 H   0  0  0  0  0  0  0  0  0  0  0  0
  -84.4056   -9.8729   20.1987 H   0  0  0  0  0  0  0  0  0  0  0  0
  -84.8143  -11.3783   19.3056 H   0  0  0  0  0  0  0  0  0  0  0  0
  1  2  2  0
  2  3  1  0
  2  5  1  0
  3  4  2  0
  4  8  1  0
  5  6  1  0
  6  7  2  0
  6  8  1  0
  9  8  1  0
  9 10  1  0
  9 11  1  0
 10 15  1  0
 11 12  1  0
 11 13  1  0
 13 14  1  0
 13 15  1  0
 15 16  1  0
 16 17  1  0
 17 18  1  0
 18 19  2  0
 18 20  1  1
 18 21  1  0
 21 22  1  0
 22 23  2  0
 22 24  1  6
 22 25  1  0
 26 25  1  0
 26 27  1  0
 26 33  1  0
 27 28  1  0
 28 29  1  0
 28 30  1  0
 30 31  1  0
 30 35  1  0
 31 32  1  0
 31 33  1  0
 33 34  1  0
 35 36  2  3
 36 37  1  0
 37 38  2  0
 37 42  1  0
 38 39  1  0
 38 40  1  0
 40 41  1  0
 40 44  2  0
 42 43  2  0
 42 45  1  0
 43 44  1  0
 45 46  1  0
 46 47  1  0
 47 48  1  1
 47 49  2  0
 47 50  1  0
  3 51  1  0
  4 52  1  0
  5 53  1  0
  9 54  1  1
 11 55  1  6
 12 56  1  0
 13 57  1  6
 14 58  1  0
 15 59  1  1
 16 60  1  0
 16 61  1  0
 26 62  1  6
 28 63  1  1
 29 64  1  0
 29 65  1  0
 29 66  1  0
 30 67  1  6
 31 68  1  1
 32 69  1  0
 33 70  1  6
 34 71  1  0
 36 72  1  0
 39 73  1  0
 41 74  1  0
 41 75  1  0
 41 76  1  0
 43 77  1  0
 45 78  1  0
 45 79  1  0
M  CHG  4  20  -1  24  -1  48  -1  50  -1
M  END
>  <filename_input>  (17) 
7MFP_Z7P_docked.sdf

>  <pdb_id>  (17) 
7MFP_Z7P

>  <pose_rank>  (17) 
16

>  <num_atoms_heavy>  (17) 
50

>  <num_torsions>  (17) 
13

>  <pose>  (17) 
[-78.66790141862893, -15.16435427662067, 19.31753176173659, 0.5652412945579435, 3.264311965351871, -0.5623595551053785, -75.07255422483264, -12.931413338698139, -10.687943998756346, -17.01518554716043, 6.380247250757828, -12.105751469564053, 35.44087046472042, -31.847477716080515, 16.42528037759022, 3.8878542259040314, 56.225981105657205, 79.83535865477126, 18.688588172601172]

>  <energy>  (17) 
-667.9340986408974

>  <inter_energy>  (17) 
-679.5041823825871

>  <intra_energy>  (17) 
19.80986987729626

>  <rmsd>  (17) 
12.6599

>  <sdf_rank>  (17) 
0

$$$$

     RDKit          3D

 79 82  0  0  0  0  0  0  0  0999 V2000
  -79.4472  -24.2890   16.5324 O   0  0  0  0  0  0  0  0  0  0  0  0
  -79.5103  -23.0784   16.1724 C   0  0  0  0  0  0  0  0  0  0  0  0
  -78.4263  -22.2081   16.3333 C   0  0  0  0  0  0  0  0  0  0  0  0
  -78.5612  -20.8718   15.9364 C   0  0  0  0  0  0  0  0  0  0  0  0
  -80.6386  -22.5884   15.6250 N   0  0  0  0  0  0  0  0  0  0  0  0
  -80.7906  -21.2957   15.2900 C   0  0  0  0  0  0  0  0  0  0  0  0
  -81.8741  -20.9026   14.8225 O   0  0  0  0  0  0  0  0  0  0  0  0
  -79.7259  -20.3848   15.4399 N   0  0  0  0  0  0  0  0  0  0  0  0
  -79.8804  -18.9685   15.0684 C   0  0  2  0  0  0  0  0  0  0  0  0
  -78.6327  -18.3595   14.7466 O   0  0  0  0  0  0  0  0  0  0  0  0
  -80.3284  -18.1750   16.3023 C   0  0  2  0  0  0  0  0  0  0  0  0
  -81.7422  -18.1650   16.5997 O   0  0  0  0  0  0  0  0  0  0  0  0
  -79.8630  -16.7835   15.9971 C   0  0  2  0  0  0  0  0  0  0  0  0
  -80.8223  -16.1010   15.1550 O   0  0  0  0  0  0  0  0  0  0  0  0
  -78.6337  -17.0038   15.1352 C   0  0  1  0  0  0  0  0  0  0  0  0
  -77.3434  -16.7281   15.8643 C   0  0  0  0  0  0  0  0  0  0  0  0
  -77.4623  -17.0856   17.2242 O   0  0  0  0  0  0  0  0  0  0  0  0
  -76.2060  -17.0411   18.1929 P   0  0  1  0  0  0  0  0  0  0  0  0
  -75.0492  -17.8760   17.7200 O   0  0  0  0  0  0  0  0  0  0  0  0
  -75.7988  -15.6461   18.4913 O   0  0  0  0  0  0  0  0  0  0  0  0
  -76.8291  -17.6438   19.5698 O   0  0  0  0  0  0  0  0  0  0  0  0
  -76.9612  -17.0214   21.0449 P   0  0  1  0  0  0  0  0  0  0  0  0
  -77.9437  -15.8577   21.0546 O   0  0  0  0  0  0  0  0  0  0  0  0
  -77.1325  -18.0330   22.0988 O   0  0  0  0  0  0  0  0  0  0  0  0
  -75.4589  -16.4625   21.3338 O   0  0  0  0  0  0  0  0  0  0  0  0
  -74.6605  -17.2972   22.1487 C   0  0  1  0  0  0  0  0  0  0  0  0
  -74.4443  -18.4819   21.3955 O   0  0  0  0  0  0  0  0  0  0  0  0
  -73.6196  -18.2677   20.2328 C   0  0  2  0  0  0  0  0  0  0  0  0
  -73.6668  -19.5220   19.3812 C   0  0  0  0  0  0  0  0  0  0  0  0
  -72.2245  -17.8483   20.6571 C   0  0  2  0  0  0  0  0  0  0  0  0
  -72.2604  -16.5723   21.5235 C   0  0  2  0  0  0  0  0  0  0  0  0
  -70.9864  -16.4590   22.1879 O   0  0  0  0  0  0  0  0  0  0  0  0
  -73.3402  -16.6238   22.6038 C   0  0  1  0  0  0  0  0  0  0  0  0
  -73.5894  -15.3203   23.1280 O   0  0  0  0  0  0  0  0  0  0  0  0
  -71.4452  -17.6632   19.4211 N   0  0  0  0  0  0  0  0  0  0  0  0
  -71.7600  -18.1084   18.2883 C   0  0  0  0  0  0  0  0  0  0  0  0
  -70.9289  -17.7912   17.1457 C   0  0  0  0  0  0  0  0  0  0  0  0
  -71.0496  -16.4840   16.4458 C   0  0  0  0  0  0  0  0  0  0  0  0
  -71.9134  -15.5358   16.8368 O   0  0  0  0  0  0  0  0  0  0  0  0
  -70.1689  -16.2095   15.2740 C   0  0  0  0  0  0  0  0  0  0  0  0
  -70.2311  -14.8711   14.5764 C   0  0  0  0  0  0  0  0  0  0  0  0
  -69.9754  -18.7589   16.5902 C   0  0  0  0  0  0  0  0  0  0  0  0
  -69.2193  -18.3772   15.4760 C   0  0  0  0  0  0  0  0  0  0  0  0
  -69.3127  -17.1582   14.8870 N   0  0  0  0  0  0  0  0  0  0  0  0
  -69.7622  -20.1385   17.1980 C   0  0  0  0  0  0  0  0  0  0  0  0
  -68.7280  -20.0715   18.2008 O   0  0  0  0  0  0  0  0  0  0  0  0
  -68.9862  -20.9279   19.5357 P   0  0  2  0  0  0  0  0  0  0  0  0
  -67.6534  -20.9799   20.2355 O   0  0  0  0  0  0  0  0  0  0  0  0
  -69.3502  -22.3316   18.9584 O   0  0  0  0  0  0  0  0  0  0  0  0
  -70.1354  -20.4381   20.3834 O   0  0  0  0  0  0  0  0  0  0  0  0
  -77.4812  -22.5686   16.7657 H   0  0  0  0  0  0  0  0  0  0  0  0
  -77.6973  -20.1973   16.0299 H   0  0  0  0  0  0  0  0  0  0  0  0
  -81.4224  -23.2347   15.4550 H   0  0  0  0  0  0  0  0  0  0  0  0
  -80.5820  -18.9509   14.2214 H   0  0  0  0  0  0  0  0  0  0  0  0
  -79.9062  -18.6445   17.2030 H   0  0  0  0  0  0  0  0  0  0  0  0
  -81.8730  -18.1641   17.5811 H   0  0  0  0  0  0  0  0  0  0  0  0
  -79.7048  -16.1991   16.9155 H   0  0  0  0  0  0  0  0  0  0  0  0
  -81.4834  -15.6306   15.7222 H   0  0  0  0  0  0  0  0  0  0  0  0
  -78.6846  -16.3090   14.2839 H   0  0  0  0  0  0  0  0  0  0  0  0
  -76.5345  -17.3147   15.4044 H   0  0  0  0  0  0  0  0  0  0  0  0
  -77.1166  -15.6539   15.7956 H   0  0  0  0  0  0  0  0  0  0  0  0
  -75.1723  -17.5195   23.0967 H   0  0  0  0  0  0  0  0  0  0  0  0
  -73.9938  -17.4404   19.6119 H   0  0  0  0  0  0  0  0  0  0  0  0
  -73.7002  -20.4070   20.0335 H   0  0  0  0  0  0  0  0  0  0  0  0
  -74.5648  -19.5005   18.7462 H   0  0  0  0  0  0  0  0  0  0  0  0
  -72.7698  -19.5681   18.7462 H   0  0  0  0  0  0  0  0  0  0  0  0
  -71.7549  -18.6161   21.2896 H   0  0  0  0  0  0  0  0  0  0  0  0
  -72.4789  -15.7203   20.8631 H   0  0  0  0  0  0  0  0  0  0  0  0
  -71.1233  -16.4712   23.1683 H   0  0  0  0  0  0  0  0  0  0  0  0
  -72.9385  -17.2685   23.3994 H   0  0  0  0  0  0  0  0  0  0  0  0
  -73.5826  -15.3556   24.1173 H   0  0  0  0  0  0  0  0  0  0  0  0
  -72.6575  -18.7325   18.1664 H   0  0  0  0  0  0  0  0  0  0  0  0
  -71.9637  -14.6785   16.3443 H   0  0  0  0  0  0  0  0  0  0  0  0
  -70.2685  -14.0678   15.3270 H   0  0  0  0  0  0  0  0  0  0  0  0
  -69.3379  -14.7437   13.9472 H   0  0  0  0  0  0  0  0  0  0  0  0
  -71.1323  -14.8272   13.9472 H   0  0  0  0  0  0  0  0  0  0  0  0
  -68.5105  -19.1052   15.0546 H   0  0  0  0  0  0  0  0  0  0  0  0
  -70.6987  -20.4833   17.6606 H   0  0  0  0  0  0  0  0  0  0  0  0
  -69.4601  -20.8425   16.4086 H   0  0  0  0  0  0  0  0  0  0  0  0
  1  2  2  0
  2  3  1  0
  2  5  1  0
  3  4  2  0
  4  8  1  0
  5  6  1  0
  6  7  2  0
  6  8  1  0
  9  8  1  0
  9 10  1  0
  9 11  1  0
 10 15  1  0
 11 12  1  0
 11 13  1  0
 13 14  1  0
 13 15  1  0
 15 16  1  0
 16 17  1  0
 17 18  1  0
 18 19  2  0
 18 20  1  1
 18 21  1  0
 21 22  1  0
 22 23  2  0
 22 24  1  1
 22 25  1  0
 26 25  1  0
 26 27  1  0
 26 33  1  0
 27 28  1  0
 28 29  1  0
 28 30  1  0
 30 31  1  0
 30 35  1  0
 31 32  1  0
 31 33  1  0
 33 34  1  0
 35 36  2  3
 36 37  1  0
 37 38  2  0
 37 42  1  0
 38 39  1  0
 38 40  1  0
 40 41  1  0
 40 44  2  0
 42 43  2  0
 42 45  1  0
 43 44  1  0
 45 46  1  0
 46 47  1  0
 47 48  1  1
 47 49  2  0
 47 50  1  0
  3 51  1  0
  4 52  1  0
  5 53  1  0
  9 54  1  6
 11 55  1  1
 12 56  1  0
 13 57  1  1
 14 58  1  0
 15 59  1  6
 16 60  1  0
 16 61  1  0
 26 62  1  1
 28 63  1  6
 29 64  1  0
 29 65  1  0
 29 66  1  0
 30 67  1  1
 31 68  1  6
 32 69  1  0
 33 70  1  1
 34 71  1  0
 36 72  1  0
 39 73  1  0
 41 74  1  0
 41 75  1  0
 41 76  1  0
 43 77  1  0
 45 78  1  0
 45 79  1  0
M  CHG  4  20  -1  24  -1  48  -1  50  -1
M  END
>  <filename_input>  (18) 
7MFP_Z7P_docked.sdf

>  <pdb_id>  (18) 
7MFP_Z7P

>  <pose_rank>  (18) 
17

>  <num_atoms_heavy>  (18) 
50

>  <num_torsions>  (18) 
13

>  <pose>  (18) 
[-75.45890255181816, -16.462520342068636, 21.33384532656416, -4.38264031120892, -0.663838193836718, -0.9267775025083543, -13.220494041744715, -2.8151783567666544, -1.329489787732973, 3.5896103069496443, 5.157350379193353, 5.882357770880717, -8.825738299712317, 1.8349730109937479, 2.3708841222783743, 4.8044680709972, -0.8754222165404655, -0.5415768885403602, -0.3552361192811941]

>  <energy>  (18) 
-585.3067308296197

>  <inter_energy>  (18) 
-706.3766339347426

>  <intra_energy>  (18) 
125.37849217861367

>  <rmsd>  (18) 
7.53776

>  <sdf_rank>  (18) 
0

$$$$

     RDKit          3D

 79 82  0  0  0  0  0  0  0  0999 V2000
  -79.0553  -15.5799   18.1982 O   0  0  0  0  0  0  0  0  0  0  0  0
  -77.9158  -15.6864   17.6603 C   0  0  0  0  0  0  0  0  0  0  0  0
  -76.7584  -15.8713   18.4251 C   0  0  0  0  0  0  0  0  0  0  0  0
  -75.5205  -15.9607   17.7760 C   0  0  0  0  0  0  0  0  0  0  0  0
  -77.7848  -15.6166   16.3221 N   0  0  0  0  0  0  0  0  0  0  0  0
  -76.5949  -15.6502   15.6982 C   0  0  0  0  0  0  0  0  0  0  0  0
  -76.5439  -15.5432   14.4601 O   0  0  0  0  0  0  0  0  0  0  0  0
  -75.4045  -15.8304   16.4308 N   0  0  0  0  0  0  0  0  0  0  0  0
  -74.0970  -15.8763   15.7555 C   0  0  2  0  0  0  0  0  0  0  0  0
  -73.1759  -16.7308   16.4281 O   0  0  0  0  0  0  0  0  0  0  0  0
  -73.4245  -14.5030   15.8762 C   0  0  2  0  0  0  0  0  0  0  0  0
  -73.7977  -13.5006   14.9048 O   0  0  0  0  0  0  0  0  0  0  0  0
  -71.9676  -14.8263   15.7393 C   0  0  2  0  0  0  0  0  0  0  0  0
  -71.6005  -14.9326   14.3433 O   0  0  0  0  0  0  0  0  0  0  0  0
  -71.8631  -16.2301   16.3062 C   0  0  1  0  0  0  0  0  0  0  0  0
  -71.2214  -16.2708   17.6696 C   0  0  0  0  0  0  0  0  0  0  0  0
  -70.6361  -17.5343   17.8988 O   0  0  0  0  0  0  0  0  0  0  0  0
  -71.3783  -18.6312   18.7731 P   0  0  1  0  0  0  0  0  0  0  0  0
  -72.2192  -19.5795   17.9654 O   0  0  0  0  0  0  0  0  0  0  0  0
  -70.4324  -19.3481   19.6634 O   0  0  0  0  0  0  0  0  0  0  0  0
  -72.3103  -17.7099   19.7374 O   0  0  0  0  0  0  0  0  0  0  0  0
  -73.2531  -18.0816   20.9840 P   0  0  1  0  0  0  0  0  0  0  0  0
  -74.7171  -18.1102   20.5649 O   0  0  0  0  0  0  0  0  0  0  0  0
  -72.7721  -19.2311   21.7652 O   0  0  0  0  0  0  0  0  0  0  0  0
  -73.0072  -16.8352   22.0032 O   0  0  0  0  0  0  0  0  0  0  0  0
  -73.4486  -17.0546   23.3280 C   0  0  1  0  0  0  0  0  0  0  0  0
  -72.2802  -17.0276   24.1353 O   0  0  0  0  0  0  0  0  0  0  0  0
  -71.6710  -15.7229   24.2012 C   0  0  2  0  0  0  0  0  0  0  0  0
  -70.3156  -15.8663   24.8670 C   0  0  0  0  0  0  0  0  0  0  0  0
  -72.6084  -14.7473   24.8879 C   0  0  2  0  0  0  0  0  0  0  0  0
  -73.9646  -14.6623   24.1575 C   0  0  2  0  0  0  0  0  0  0  0  0
  -74.9050  -14.0367   25.0527 O   0  0  0  0  0  0  0  0  0  0  0  0
  -74.5230  -16.0367   23.7900 C   0  0  1  0  0  0  0  0  0  0  0  0
  -75.5587  -15.9144   22.8161 O   0  0  0  0  0  0  0  0  0  0  0  0
  -71.9124  -13.4499   24.9274 N   0  0  0  0  0  0  0  0  0  0  0  0
  -71.9316  -12.6423   25.8906 C   0  0  0  0  0  0  0  0  0  0  0  0
  -71.1436  -11.4297   25.8152 C   0  0  0  0  0  0  0  0  0  0  0  0
  -69.6950  -11.4733   25.4790 C   0  0  0  0  0  0  0  0  0  0  0  0
  -69.0512  -12.6204   25.2185 O   0  0  0  0  0  0  0  0  0  0  0  0
  -68.9309  -10.1942   25.4152 C   0  0  0  0  0  0  0  0  0  0  0  0
  -67.4718  -10.2019   25.0242 C   0  0  0  0  0  0  0  0  0  0  0  0
  -71.7171  -10.1140   26.1218 C   0  0  0  0  0  0  0  0  0  0  0  0
  -70.8832   -8.9932   26.0375 C   0  0  0  0  0  0  0  0  0  0  0  0
  -69.5760   -9.0552   25.6785 N   0  0  0  0  0  0  0  0  0  0  0  0
  -73.1813   -9.9267   26.4953 C   0  0  0  0  0  0  0  0  0  0  0  0
  -73.5684   -8.5567   26.2657 O   0  0  0  0  0  0  0  0  0  0  0  0
  -74.2587   -7.8036   27.5060 P   0  0  2  0  0  0  0  0  0  0  0  0
  -74.7515   -8.9025   28.4106 O   0  0  0  0  0  0  0  0  0  0  0  0
  -75.4630   -7.0836   26.8222 O   0  0  0  0  0  0  0  0  0  0  0  0
  -73.3884   -6.7667   28.1742 O   0  0  0  0  0  0  0  0  0  0  0  0
  -76.8200  -15.9454   19.5208 H   0  0  0  0  0  0  0  0  0  0  0  0
  -74.6156  -16.1419   18.3747 H   0  0  0  0  0  0  0  0  0  0  0  0
  -78.6368  -15.5334   15.7494 H   0  0  0  0  0  0  0  0  0  0  0  0
  -74.2975  -16.2096   14.7265 H   0  0  0  0  0  0  0  0  0  0  0  0
  -73.7339  -14.0344   16.8221 H   0  0  0  0  0  0  0  0  0  0  0  0
  -74.1018  -12.6836   15.3740 H   0  0  0  0  0  0  0  0  0  0  0  0
  -71.3371  -14.0666   16.2243 H   0  0  0  0  0  0  0  0  0  0  0  0
  -70.6521  -15.2073   14.2715 H   0  0  0  0  0  0  0  0  0  0  0  0
  -71.2334  -16.8257   15.6290 H   0  0  0  0  0  0  0  0  0  0  0  0
  -70.4437  -15.4949   17.7277 H   0  0  0  0  0  0  0  0  0  0  0  0
  -71.9924  -16.0902   18.4330 H   0  0  0  0  0  0  0  0  0  0  0  0
  -73.9638  -18.0230   23.4107 H   0  0  0  0  0  0  0  0  0  0  0  0
  -71.4971  -15.3009   23.2004 H   0  0  0  0  0  0  0  0  0  0  0  0
  -70.4408  -15.8531   25.9598 H   0  0  0  0  0  0  0  0  0  0  0  0
  -69.8562  -16.8181   24.5621 H   0  0  0  0  0  0  0  0  0  0  0  0
  -69.6672  -15.0318   24.5621 H   0  0  0  0  0  0  0  0  0  0  0  0
  -72.8483  -15.0798   25.9087 H   0  0  0  0  0  0  0  0  0  0  0  0
  -73.8135  -14.0956   23.2269 H   0  0  0  0  0  0  0  0  0  0  0  0
  -74.6376  -14.2146   25.9892 H   0  0  0  0  0  0  0  0  0  0  0  0
  -74.9409  -16.4495   24.7200 H   0  0  0  0  0  0  0  0  0  0  0  0
  -76.4309  -15.8115   23.2730 H   0  0  0  0  0  0  0  0  0  0  0  0
  -72.5409  -12.8545   26.7815 H   0  0  0  0  0  0  0  0  0  0  0  0
  -68.0861  -12.6074   24.9987 H   0  0  0  0  0  0  0  0  0  0  0  0
  -66.8493  -10.2053   25.9311 H   0  0  0  0  0  0  0  0  0  0  0  0
  -67.2566  -11.1013   24.4285 H   0  0  0  0  0  0  0  0  0  0  0  0
  -67.2471   -9.3050   24.4285 H   0  0  0  0  0  0  0  0  0  0  0  0
  -71.3109   -8.0079   26.2751 H   0  0  0  0  0  0  0  0  0  0  0  0
  -73.8042  -10.5913   25.8785 H   0  0  0  0  0  0  0  0  0  0  0  0
  -73.3211  -10.1723   27.5584 H   0  0  0  0  0  0  0  0  0  0  0  0
  1  2  2  0
  2  3  1  0
  2  5  1  0
  3  4  2  0
  4  8  1  0
  5  6  1  0
  6  7  2  0
  6  8  1  0
  9  8  1  0
  9 10  1  0
  9 11  1  0
 10 15  1  0
 11 12  1  0
 11 13  1  0
 13 14  1  0
 13 15  1  0
 15 16  1  0
 16 17  1  0
 17 18  1  0
 18 19  2  0
 18 20  1  1
 18 21  1  0
 21 22  1  0
 22 23  2  0
 22 24  1  1
 22 25  1  0
 26 25  1  0
 26 27  1  0
 26 33  1  0
 27 28  1  0
 28 29  1  0
 28 30  1  0
 30 31  1  0
 30 35  1  0
 31 32  1  0
 31 33  1  0
 33 34  1  0
 35 36  2  3
 36 37  1  0
 37 38  2  0
 37 42  1  0
 38 39  1  0
 38 40  1  0
 40 41  1  0
 40 44  2  0
 42 43  2  0
 42 45  1  0
 43 44  1  0
 45 46  1  0
 46 47  1  0
 47 48  1  1
 47 49  2  0
 47 50  1  0
  3 51  1  0
  4 52  1  0
  5 53  1  0
  9 54  1  6
 11 55  1  1
 12 56  1  0
 13 57  1  1
 14 58  1  0
 15 59  1  6
 16 60  1  0
 16 61  1  0
 26 62  1  6
 28 63  1  6
 29 64  1  0
 29 65  1  0
 29 66  1  0
 30 67  1  1
 31 68  1  6
 32 69  1  0
 33 70  1  1
 34 71  1  0
 36 72  1  0
 39 73  1  0
 41 74  1  0
 41 75  1  0
 41 76  1  0
 43 77  1  0
 45 78  1  0
 45 79  1  0
M  CHG  4  20  -1  24  -1  48  -1  50  -1
M  END
>  <filename_input>  (19) 
7MFP_Z7P_docked.sdf

>  <pdb_id>  (19) 
7MFP_Z7P

>  <pose_rank>  (19) 
18

>  <num_atoms_heavy>  (19) 
50

>  <num_torsions>  (19) 
13

>  <pose>  (19) 
[-73.00720706077576, -16.83522370346498, 22.003231372007725, 0.8055933015044049, -0.23222107412891468, 1.362117697894106, 0.21421890038014924, 1.3148766633405902, -0.8269030188167764, -3.912675765782002, 0.4991551153185787, 2.6401250913234775, -3.663712890436444, -1.1178474565005794, 1.4425309263603894, 1.126878259045867, 0.6329612350331244, -3.8383965596958354, -0.2342370323936546]

>  <energy>  (19) 
-658.0340206275569

>  <inter_energy>  (19) 
-669.3592424683786

>  <intra_energy>  (19) 
16.071859087421057

>  <rmsd>  (19) 
10.4935

>  <sdf_rank>  (19) 
0

$$$$

     RDKit          3D

 79 82  0  0  0  0  0  0  0  0999 V2000
  -69.3060  -21.3399   17.5912 O   0  0  0  0  0  0  0  0  0  0  0  0
  -69.8734  -20.2186   17.4509 C   0  0  0  0  0  0  0  0  0  0  0  0
  -70.9422  -19.8303   18.2666 C   0  0  0  0  0  0  0  0  0  0  0  0
  -71.5463  -18.5853   18.0507 C   0  0  0  0  0  0  0  0  0  0  0  0
  -69.4630  -19.3621   16.4964 N   0  0  0  0  0  0  0  0  0  0  0  0
  -70.0716  -18.1891   16.2518 C   0  0  0  0  0  0  0  0  0  0  0  0
  -69.6627  -17.4622   15.3290 O   0  0  0  0  0  0  0  0  0  0  0  0
  -71.1543  -17.7620   17.0464 N   0  0  0  0  0  0  0  0  0  0  0  0
  -71.8225  -16.4752   16.7909 C   0  0  2  0  0  0  0  0  0  0  0  0
  -73.2363  -16.5650   16.9466 O   0  0  0  0  0  0  0  0  0  0  0  0
  -71.6740  -16.1220   15.3057 C   0  0  2  0  0  0  0  0  0  0  0  0
  -70.4484  -15.4705   14.9042 O   0  0  0  0  0  0  0  0  0  0  0  0
  -72.8388  -15.2128   15.0559 C   0  0  2  0  0  0  0  0  0  0  0  0
  -72.5200  -13.8586   15.4553 O   0  0  0  0  0  0  0  0  0  0  0  0
  -73.8857  -15.7023   16.0393 C   0  0  1  0  0  0  0  0  0  0  0  0
  -75.0005  -16.4739   15.3807 C   0  0  0  0  0  0  0  0  0  0  0  0
  -76.1644  -15.6801   15.2979 O   0  0  0  0  0  0  0  0  0  0  0  0
  -77.6006  -16.3461   15.1880 P   0  0  1  0  0  0  0  0  0  0  0  0
  -78.5751  -15.5481   14.3680 O   0  0  0  0  0  0  0  0  0  0  0  0
  -77.5131  -17.7549   14.7309 O   0  0  0  0  0  0  0  0  0  0  0  0
  -78.0620  -16.3956   16.7475 O   0  0  0  0  0  0  0  0  0  0  0  0
  -78.7209  -17.5651   17.6301 P   0  0  1  0  0  0  0  0  0  0  0  0
  -79.7819  -17.0029   18.5670 O   0  0  0  0  0  0  0  0  0  0  0  0
  -79.0988  -18.7524   16.8486 O   0  0  0  0  0  0  0  0  0  0  0  0
  -77.4591  -18.1069   18.5061 O   0  0  0  0  0  0  0  0  0  0  0  0
  -76.3517  -17.2301   18.5587 C   0  0  1  0  0  0  0  0  0  0  0  0
  -76.7505  -16.1519   19.3931 O   0  0  0  0  0  0  0  0  0  0  0  0
  -76.9302  -16.5411   20.7693 C   0  0  2  0  0  0  0  0  0  0  0  0
  -77.5914  -15.3906   21.5042 C   0  0  0  0  0  0  0  0  0  0  0  0
  -75.6048  -16.9850   21.3597 C   0  0  2  0  0  0  0  0  0  0  0  0
  -74.9936  -18.1508   20.5550 C   0  0  2  0  0  0  0  0  0  0  0  0
  -73.6050  -18.2574   20.9260 O   0  0  0  0  0  0  0  0  0  0  0  0
  -75.0505  -17.9185   19.0455 C   0  0  1  0  0  0  0  0  0  0  0  0
  -74.8272  -19.1388   18.3404 O   0  0  0  0  0  0  0  0  0  0  0  0
  -75.8688  -17.3512   22.7616 N   0  0  0  0  0  0  0  0  0  0  0  0
  -75.1161  -17.0949   23.7352 C   0  0  0  0  0  0  0  0  0  0  0  0
  -75.5369  -17.4590   25.0721 C   0  0  0  0  0  0  0  0  0  0  0  0
  -76.2523  -18.7372   25.3321 C   0  0  0  0  0  0  0  0  0  0  0  0
  -76.5315  -19.6161   24.3586 O   0  0  0  0  0  0  0  0  0  0  0  0
  -76.6633  -19.0624   26.7284 C   0  0  0  0  0  0  0  0  0  0  0  0
  -77.3434  -20.3766   27.0314 C   0  0  0  0  0  0  0  0  0  0  0  0
  -75.3322  -16.5650   26.2180 C   0  0  0  0  0  0  0  0  0  0  0  0
  -75.7805  -16.9875   27.4747 C   0  0  0  0  0  0  0  0  0  0  0  0
  -76.3855  -18.1824   27.6934 N   0  0  0  0  0  0  0  0  0  0  0  0
  -74.6286  -15.2206   26.0913 C   0  0  0  0  0  0  0  0  0  0  0  0
  -74.5487  -14.5918   27.3866 O   0  0  0  0  0  0  0  0  0  0  0  0
  -74.8161  -13.0076   27.4169 P   0  0  2  0  0  0  0  0  0  0  0  0
  -74.9188  -12.5966   25.9715 O   0  0  0  0  0  0  0  0  0  0  0  0
  -73.4930  -12.4646   28.0420 O   0  0  0  0  0  0  0  0  0  0  0  0
  -75.9745  -12.5829   28.2869 O   0  0  0  0  0  0  0  0  0  0  0  0
  -71.3029  -20.4939   19.0663 H   0  0  0  0  0  0  0  0  0  0  0  0
  -72.3627  -18.2657   18.7151 H   0  0  0  0  0  0  0  0  0  0  0  0
  -68.6439  -19.6180   15.9269 H   0  0  0  0  0  0  0  0  0  0  0  0
  -71.3725  -15.7547   17.4898 H   0  0  0  0  0  0  0  0  0  0  0  0
  -71.6450  -17.0511   14.7176 H   0  0  0  0  0  0  0  0  0  0  0  0
  -69.9395  -15.2000   15.7091 H   0  0  0  0  0  0  0  0  0  0  0  0
  -73.1373  -15.2189   13.9972 H   0  0  0  0  0  0  0  0  0  0  0  0
  -72.5064  -13.8005   16.4435 H   0  0  0  0  0  0  0  0  0  0  0  0
  -74.3362  -14.8236   16.5239 H   0  0  0  0  0  0  0  0  0  0  0  0
  -74.6890  -16.7676   14.3674 H   0  0  0  0  0  0  0  0  0  0  0  0
  -75.2200  -17.3684   15.9821 H   0  0  0  0  0  0  0  0  0  0  0  0
  -76.0894  -16.8742   17.5515 H   0  0  0  0  0  0  0  0  0  0  0  0
  -77.5955  -17.4118   20.8653 H   0  0  0  0  0  0  0  0  0  0  0  0
  -77.5008  -15.5481   22.5891 H   0  0  0  0  0  0  0  0  0  0  0  0
  -77.0977  -14.4471   21.2282 H   0  0  0  0  0  0  0  0  0  0  0  0
  -78.6551  -15.3422   21.2282 H   0  0  0  0  0  0  0  0  0  0  0  0
  -74.8596  -16.1772   21.3129 H   0  0  0  0  0  0  0  0  0  0  0  0
  -75.5710  -19.0590   20.7824 H   0  0  0  0  0  0  0  0  0  0  0  0
  -73.5266  -18.2634   21.9128 H   0  0  0  0  0  0  0  0  0  0  0  0
  -74.2393  -17.2107   18.8198 H   0  0  0  0  0  0  0  0  0  0  0  0
  -74.6926  -19.8747   18.9888 H   0  0  0  0  0  0  0  0  0  0  0  0
  -74.1475  -16.5992   23.5733 H   0  0  0  0  0  0  0  0  0  0  0  0
  -77.0097  -20.4562   24.5724 H   0  0  0  0  0  0  0  0  0  0  0  0
  -77.4129  -20.5109   28.1210 H   0  0  0  0  0  0  0  0  0  0  0  0
  -78.3540  -20.3753   26.5970 H   0  0  0  0  0  0  0  0  0  0  0  0
  -76.7586  -21.2008   26.5970 H   0  0  0  0  0  0  0  0  0  0  0  0
  -75.6344  -16.3141   28.3322 H   0  0  0  0  0  0  0  0  0  0  0  0
  -73.6137  -15.3746   25.6960 H   0  0  0  0  0  0  0  0  0  0  0  0
  -75.1969  -14.5743   25.4062 H   0  0  0  0  0  0  0  0  0  0  0  0
  1  2  2  0
  2  3  1  0
  2  5  1  0
  3  4  2  0
  4  8  1  0
  5  6  1  0
  6  7  2  0
  6  8  1  0
  9  8  1  0
  9 10  1  0
  9 11  1  0
 10 15  1  0
 11 12  1  0
 11 13  1  0
 13 14  1  0
 13 15  1  0
 15 16  1  0
 16 17  1  0
 17 18  1  0
 18 19  2  0
 18 20  1  6
 18 21  1  0
 21 22  1  0
 22 23  2  0
 22 24  1  6
 22 25  1  0
 26 25  1  0
 26 27  1  0
 26 33  1  0
 27 28  1  0
 28 29  1  0
 28 30  1  0
 30 31  1  0
 30 35  1  0
 31 32  1  0
 31 33  1  0
 33 34  1  0
 35 36  2  3
 36 37  1  0
 37 38  2  0
 37 42  1  0
 38 39  1  0
 38 40  1  0
 40 41  1  0
 40 44  2  0
 42 43  2  0
 42 45  1  0
 43 44  1  0
 45 46  1  0
 46 47  1  0
 47 48  1  6
 47 49  2  0
 47 50  1  0
  3 51  1  0
  4 52  1  0
  5 53  1  0
  9 54  1  1
 11 55  1  6
 12 56  1  0
 13 57  1  6
 14 58  1  0
 15 59  1  1
 16 60  1  0
 16 61  1  0
 26 62  1  6
 28 63  1  6
 29 64  1  0
 29 65  1  0
 29 66  1  0
 30 67  1  1
 31 68  1  6
 32 69  1  0
 33 70  1  6
 34 71  1  0
 36 72  1  0
 39 73  1  0
 41 74  1  0
 41 75  1  0
 41 76  1  0
 43 77  1  0
 45 78  1  0
 45 79  1  0
M  CHG  4  20  -1  24  -1  48  -1  50  -1
M  END
>  <filename_input>  (20) 
7MFP_Z7P_docked.sdf

>  <pdb_id>  (20) 
7MFP_Z7P

>  <pose_rank>  (20) 
19

>  <num_atoms_heavy>  (20) 
50

>  <num_torsions>  (20) 
13

>  <pose>  (20) 
[-77.45910152774607, -18.10694138290119, 18.50606783683028, 3.9573980677852316, 1.1641263201877805, 2.5964198377037384, -19.398460444158278, 1.3239884702567055, -5.52520341484415, 2.034411173345138, -5.998976563662298, -3.4144682362546206, -6.769140321041582, 10.767756509816781, 14.709959479730783, 28.35656104207578, 31.06737993311044, 22.177530762660776, -1.4842778317723784]

>  <energy>  (20) 
-599.7858439431037

>  <inter_energy>  (20) 
-738.3690319469576

>  <intra_energy>  (20) 
142.5093930717983

>  <rmsd>  (20) 
10.0457

>  <sdf_rank>  (20) 
0

$$$$

     RDKit          3D

 79 82  0  0  0  0  0  0  0  0999 V2000
  -81.2735  -24.9600   22.2158 O   0  0  0  0  0  0  0  0  0  0  0  0
  -81.7290  -24.9370   21.0363 C   0  0  0  0  0  0  0  0  0  0  0  0
  -80.8930  -24.7416   19.9312 C   0  0  0  0  0  0  0  0  0  0  0  0
  -81.4565  -24.7033   18.6495 C   0  0  0  0  0  0  0  0  0  0  0  0
  -83.0472  -25.0944   20.8119 N   0  0  0  0  0  0  0  0  0  0  0  0
  -83.5993  -25.0074   19.5896 C   0  0  0  0  0  0  0  0  0  0  0  0
  -84.8304  -25.1263   19.4585 O   0  0  0  0  0  0  0  0  0  0  0  0
  -82.7943  -24.8070   18.4504 N   0  0  0  0  0  0  0  0  0  0  0  0
  -83.3891  -24.7180   17.1065 C   0  0  2  0  0  0  0  0  0  0  0  0
  -82.4766  -25.1206   16.0886 O   0  0  0  0  0  0  0  0  0  0  0  0
  -83.6355  -23.2427   16.7666 C   0  0  2  0  0  0  0  0  0  0  0  0
  -84.8590  -22.6506   17.2566 O   0  0  0  0  0  0  0  0  0  0  0  0
  -83.6315  -23.2354   15.2680 C   0  0  2  0  0  0  0  0  0  0  0  0
  -84.9304  -23.6163   14.7554 O   0  0  0  0  0  0  0  0  0  0  0  0
  -82.6926  -24.3732   14.9122 C   0  0  1  0  0  0  0  0  0  0  0  0
  -81.3528  -23.8990   14.4100 C   0  0  0  0  0  0  0  0  0  0  0  0
  -80.8607  -22.8612   15.2299 O   0  0  0  0  0  0  0  0  0  0  0  0
  -79.3047  -22.6995   15.4964 P   0  0  1  0  0  0  0  0  0  0  0  0
  -78.8472  -23.3104   16.7912 O   0  0  0  0  0  0  0  0  0  0  0  0
  -78.5030  -23.1773   14.3431 O   0  0  0  0  0  0  0  0  0  0  0  0
  -79.1420  -21.0810   15.5317 O   0  0  0  0  0  0  0  0  0  0  0  0
  -80.2279  -19.8973   15.5079 P   0  0  1  0  0  0  0  0  0  0  0  0
  -80.9260  -19.8311   14.1558 O   0  0  0  0  0  0  0  0  0  0  0  0
  -81.0949  -19.8682   16.6956 O   0  0  0  0  0  0  0  0  0  0  0  0
  -79.3112  -18.5660   15.7083 O   0  0  0  0  0  0  0  0  0  0  0  0
  -79.4791  -17.9098   16.9489 C   0  0  1  0  0  0  0  0  0  0  0  0
  -78.5042  -18.4685   17.8179 O   0  0  0  0  0  0  0  0  0  0  0  0
  -77.1545  -18.1282   17.4435 C   0  0  2  0  0  0  0  0  0  0  0  0
  -76.2059  -18.9728   18.2728 C   0  0  0  0  0  0  0  0  0  0  0  0
  -76.9418  -16.6317   17.5750 C   0  0  2  0  0  0  0  0  0  0  0  0
  -77.9464  -15.8432   16.7094 C   0  0  2  0  0  0  0  0  0  0  0  0
  -77.9399  -14.4766   17.1674 O   0  0  0  0  0  0  0  0  0  0  0  0
  -79.3763  -16.3665   16.8420 C   0  0  1  0  0  0  0  0  0  0  0  0
  -80.1918  -15.8756   15.7789 O   0  0  0  0  0  0  0  0  0  0  0  0
  -75.5448  -16.3685   17.1899 N   0  0  0  0  0  0  0  0  0  0  0  0
  -75.0607  -15.2367   16.9349 C   0  0  0  0  0  0  0  0  0  0  0  0
  -73.6491  -15.1208   16.6332 C   0  0  0  0  0  0  0  0  0  0  0  0
  -73.1808  -14.7800   15.2628 C   0  0  0  0  0  0  0  0  0  0  0  0
  -74.0283  -14.5520   14.2490 O   0  0  0  0  0  0  0  0  0  0  0  0
  -71.7154  -14.6736   15.0074 C   0  0  0  0  0  0  0  0  0  0  0  0
  -71.2115  -14.2769   13.6397 C   0  0  0  0  0  0  0  0  0  0  0  0
  -72.6178  -15.3893   17.6422 C   0  0  0  0  0  0  0  0  0  0  0  0
  -71.2756  -15.2670   17.2648 C   0  0  0  0  0  0  0  0  0  0  0  0
  -70.8759  -14.9045   16.0196 N   0  0  0  0  0  0  0  0  0  0  0  0
  -72.9565  -15.7631   19.0789 C   0  0  0  0  0  0  0  0  0  0  0  0
  -72.8200  -17.1880   19.2538 O   0  0  0  0  0  0  0  0  0  0  0  0
  -71.9355  -17.6609   20.5093 P   0  0  2  0  0  0  0  0  0  0  0  0
  -70.7896  -18.4371   19.9150 O   0  0  0  0  0  0  0  0  0  0  0  0
  -72.9132  -18.6229   21.2541 O   0  0  0  0  0  0  0  0  0  0  0  0
  -71.5362  -16.5498   21.4501 O   0  0  0  0  0  0  0  0  0  0  0  0
  -79.8083  -24.6199   20.0672 H   0  0  0  0  0  0  0  0  0  0  0  0
  -80.7948  -24.5857   17.7787 H   0  0  0  0  0  0  0  0  0  0  0  0
  -83.6616  -25.2910   21.6149 H   0  0  0  0  0  0  0  0  0  0  0  0
  -84.2899  -25.3488   17.1301 H   0  0  0  0  0  0  0  0  0  0  0  0
  -82.8679  -22.6282   17.2599 H   0  0  0  0  0  0  0  0  0  0  0  0
  -84.8535  -22.6532   18.2466 H   0  0  0  0  0  0  0  0  0  0  0  0
  -83.3584  -22.2475   14.8688 H   0  0  0  0  0  0  0  0  0  0  0  0
  -85.5437  -23.7961   15.5114 H   0  0  0  0  0  0  0  0  0  0  0  0
  -83.1569  -24.9595   14.1056 H   0  0  0  0  0  0  0  0  0  0  0  0
  -80.6427  -24.7390   14.4227 H   0  0  0  0  0  0  0  0  0  0  0  0
  -81.4696  -23.5193   13.3842 H   0  0  0  0  0  0  0  0  0  0  0  0
  -80.4949  -18.0703   17.3392 H   0  0  0  0  0  0  0  0  0  0  0  0
  -76.9523  -18.3572   16.3868 H   0  0  0  0  0  0  0  0  0  0  0  0
  -76.4001  -18.7999   19.3416 H   0  0  0  0  0  0  0  0  0  0  0  0
  -76.3621  -20.0363   18.0391 H   0  0  0  0  0  0  0  0  0  0  0  0
  -75.1676  -18.6947   18.0391 H   0  0  0  0  0  0  0  0  0  0  0  0
  -77.1203  -16.2951   18.6069 H   0  0  0  0  0  0  0  0  0  0  0  0
  -77.6416  -15.9463   15.6576 H   0  0  0  0  0  0  0  0  0  0  0  0
  -77.9398  -14.4603   18.1573 H   0  0  0  0  0  0  0  0  0  0  0  0
  -79.7505  -15.9781   17.8008 H   0  0  0  0  0  0  0  0  0  0  0  0
  -80.9761  -15.4035   16.1557 H   0  0  0  0  0  0  0  0  0  0  0  0
  -75.7028  -14.3436   16.9408 H   0  0  0  0  0  0  0  0  0  0  0  0
  -73.6770  -14.3278   13.3510 H   0  0  0  0  0  0  0  0  0  0  0  0
  -70.3515  -13.5998   13.7480 H   0  0  0  0  0  0  0  0  0  0  0  0
  -70.9025  -15.1767   13.0876 H   0  0  0  0  0  0  0  0  0  0  0  0
  -72.0137  -13.7654   13.0876 H   0  0  0  0  0  0  0  0  0  0  0  0
  -70.5024  -15.4761   18.0187 H   0  0  0  0  0  0  0  0  0  0  0  0
  -72.2706  -15.2429   19.7637 H   0  0  0  0  0  0  0  0  0  0  0  0
  -73.9925  -15.4659   19.2988 H   0  0  0  0  0  0  0  0  0  0  0  0
  1  2  2  0
  2  3  1  0
  2  5  1  0
  3  4  2  0
  4  8  1  0
  5  6  1  0
  6  7  2  0
  6  8  1  0
  9  8  1  0
  9 10  1  0
  9 11  1  0
 10 15  1  0
 11 12  1  0
 11 13  1  0
 13 14  1  0
 13 15  1  0
 15 16  1  0
 16 17  1  0
 17 18  1  0
 18 19  2  0
 18 20  1  6
 18 21  1  0
 21 22  1  0
 22 23  2  0
 22 24  1  1
 22 25  1  0
 26 25  1  0
 26 27  1  0
 26 33  1  0
 27 28  1  0
 28 29  1  0
 28 30  1  0
 30 31  1  0
 30 35  1  0
 31 32  1  0
 31 33  1  0
 33 34  1  0
 35 36  2  3
 36 37  1  0
 37 38  2  0
 37 42  1  0
 38 39  1  0
 38 40  1  0
 40 41  1  0
 40 44  2  0
 42 43  2  0
 42 45  1  0
 43 44  1  0
 45 46  1  0
 46 47  1  0
 47 48  1  6
 47 49  2  0
 47 50  1  0
  3 51  1  0
  4 52  1  0
  5 53  1  0
  9 54  1  1
 11 55  1  1
 12 56  1  0
 13 57  1  1
 14 58  1  0
 15 59  1  6
 16 60  1  0
 16 61  1  0
 26 62  1  1
 28 63  1  6
 29 64  1  0
 29 65  1  0
 29 66  1  0
 30 67  1  1
 31 68  1  6
 32 69  1  0
 33 70  1  1
 34 71  1  0
 36 72  1  0
 39 73  1  0
 41 74  1  0
 41 75  1  0
 41 76  1  0
 43 77  1  0
 45 78  1  0
 45 79  1  0
M  CHG  4  20  -1  24  -1  48  -1  50  -1
M  END
>  <filename_input>  (21) 
7MFP_Z7P_docked.sdf

>  <pdb_id>  (21) 
7MFP_Z7P

>  <pose_rank>  (21) 
20

>  <num_atoms_heavy>  (21) 
50

>  <num_torsions>  (21) 
13

>  <pose>  (21) 
[-79.3111535365138, -18.566031526781433, 15.708277088218312, -1.9337075815685478, -0.389811847515114, -4.945768211728613, 12.359576514802326, 0.38587907320788556, 8.2909554591707, 0.6276329821380741, -7.583422271392555, 0.9138007909108307, -21.574688704076348, 5.746789990370136, -7.963567406149366, -2.1933549100712204, -1.3526941829494836, -0.3466042932922744, -0.3244843103365303]

>  <energy>  (21) 
-568.4130617876465

>  <inter_energy>  (21) 
-593.5581161535285

>  <intra_energy>  (21) 
25.94301385497861

>  <rmsd>  (21) 
9.0517

>  <sdf_rank>  (21) 
0

$$$$

     RDKit          3D

 79 82  0  0  0  0  0  0  0  0999 V2000
  -69.8910   -5.6452   21.6788 O   0  0  0  0  0  0  0  0  0  0  0  0
  -70.2785   -6.3098   22.6824 C   0  0  0  0  0  0  0  0  0  0  0  0
  -69.6430   -6.1999   23.9244 C   0  0  0  0  0  0  0  0  0  0  0  0
  -70.1020   -6.9773   24.9953 C   0  0  0  0  0  0  0  0  0  0  0  0
  -71.3206   -7.1560   22.5781 N   0  0  0  0  0  0  0  0  0  0  0  0
  -71.7322   -7.9416   23.5880 C   0  0  0  0  0  0  0  0  0  0  0  0
  -72.6793   -8.7282   23.4114 O   0  0  0  0  0  0  0  0  0  0  0  0
  -71.1172   -7.8658   24.8536 N   0  0  0  0  0  0  0  0  0  0  0  0
  -71.5661   -8.7168   25.9681 C   0  0  2  0  0  0  0  0  0  0  0  0
  -71.5576  -10.0997   25.6238 O   0  0  0  0  0  0  0  0  0  0  0  0
  -73.0533   -8.4498   26.2321 C   0  0  2  0  0  0  0  0  0  0  0  0
  -73.3795   -7.3206   27.0724 O   0  0  0  0  0  0  0  0  0  0  0  0
  -73.5146   -9.7184   26.8831 C   0  0  2  0  0  0  0  0  0  0  0  0
  -73.2145   -9.7001   28.2990 O   0  0  0  0  0  0  0  0  0  0  0  0
  -72.6087  -10.7749   26.2783 C   0  0  1  0  0  0  0  0  0  0  0  0
  -73.3079  -11.6422   25.2628 C   0  0  0  0  0  0  0  0  0  0  0  0
  -73.7376  -12.8468   25.8592 O   0  0  0  0  0  0  0  0  0  0  0  0
  -73.0045  -14.2192   25.5469 P   0  0  1  0  0  0  0  0  0  0  0  0
  -71.6468  -14.0507   24.9248 O   0  0  0  0  0  0  0  0  0  0  0  0
  -72.9626  -15.0973   26.7421 O   0  0  0  0  0  0  0  0  0  0  0  0
  -74.0377  -14.9149   24.5001 O   0  0  0  0  0  0  0  0  0  0  0  0
  -74.2375  -16.4451   24.0537 P   0  0  1  0  0  0  0  0  0  0  0  0
  -73.4633  -17.3817   24.9718 O   0  0  0  0  0  0  0  0  0  0  0  0
  -75.6383  -16.8024   23.7827 O   0  0  0  0  0  0  0  0  0  0  0  0
  -73.5727  -16.4743   22.5671 O   0  0  0  0  0  0  0  0  0  0  0  0
  -72.8687  -17.6594   22.2538 C   0  0  1  0  0  0  0  0  0  0  0  0
  -73.7263  -18.4059   21.4024 O   0  0  0  0  0  0  0  0  0  0  0  0
  -73.9210  -17.7865   20.1154 C   0  0  2  0  0  0  0  0  0  0  0  0
  -75.0352  -18.5248   19.3983 C   0  0  0  0  0  0  0  0  0  0  0  0
  -72.6072  -17.7421   19.3576 C   0  0  2  0  0  0  0  0  0  0  0  0
  -71.5252  -16.9825   20.1529 C   0  0  2  0  0  0  0  0  0  0  0  0
  -70.2471  -17.3044   19.5697 O   0  0  0  0  0  0  0  0  0  0  0  0
  -71.4771  -17.3944   21.6239 C   0  0  1  0  0  0  0  0  0  0  0  0
  -70.7467  -16.4376   22.3901 O   0  0  0  0  0  0  0  0  0  0  0  0
  -72.8912  -17.1117   18.0572 N   0  0  0  0  0  0  0  0  0  0  0  0
  -73.0616  -15.8809   17.8664 C   0  0  0  0  0  0  0  0  0  0  0  0
  -73.2686  -15.3942   16.5184 C   0  0  0  0  0  0  0  0  0  0  0  0
  -72.1649  -14.7533   15.7539 C   0  0  0  0  0  0  0  0  0  0  0  0
  -70.9317  -14.6047   16.2591 O   0  0  0  0  0  0  0  0  0  0  0  0
  -72.4332  -14.2696   14.3689 C   0  0  0  0  0  0  0  0  0  0  0  0
  -71.3188  -13.6633   13.5490 C   0  0  0  0  0  0  0  0  0  0  0  0
  -74.5823  -15.4556   15.8669 C   0  0  0  0  0  0  0  0  0  0  0  0
  -74.6998  -14.9513   14.5666 C   0  0  0  0  0  0  0  0  0  0  0  0
  -73.6636  -14.4173   13.8718 N   0  0  0  0  0  0  0  0  0  0  0  0
  -75.8015  -16.0709   16.5402 C   0  0  0  0  0  0  0  0  0  0  0  0
  -76.9712  -15.2840   16.2367 O   0  0  0  0  0  0  0  0  0  0  0  0
  -78.3624  -16.0860   16.1776 P   0  0  2  0  0  0  0  0  0  0  0  0
  -79.2929  -15.3303   17.0897 O   0  0  0  0  0  0  0  0  0  0  0  0
  -77.9761  -17.4581   16.8135 O   0  0  0  0  0  0  0  0  0  0  0  0
  -78.8891  -16.3276   14.7835 O   0  0  0  0  0  0  0  0  0  0  0  0
  -68.7948   -5.5124   24.0578 H   0  0  0  0  0  0  0  0  0  0  0  0
  -69.6253   -6.8639   25.9801 H   0  0  0  0  0  0  0  0  0  0  0  0
  -71.8263   -7.2035   21.6821 H   0  0  0  0  0  0  0  0  0  0  0  0
  -70.8947   -8.4942   26.8105 H   0  0  0  0  0  0  0  0  0  0  0  0
  -73.5430   -8.1814   25.2844 H   0  0  0  0  0  0  0  0  0  0  0  0
  -73.3034   -7.5843   28.0236 H   0  0  0  0  0  0  0  0  0  0  0  0
  -74.5940   -9.8764   26.7422 H   0  0  0  0  0  0  0  0  0  0  0  0
  -74.0574   -9.7513   28.8157 H   0  0  0  0  0  0  0  0  0  0  0  0
  -72.2626  -11.4327   27.0892 H   0  0  0  0  0  0  0  0  0  0  0  0
  -74.1803  -11.1032   24.8648 H   0  0  0  0  0  0  0  0  0  0  0  0
  -72.6058  -11.8767   24.4492 H   0  0  0  0  0  0  0  0  0  0  0  0
  -72.6308  -18.2233   23.1678 H   0  0  0  0  0  0  0  0  0  0  0  0
  -74.2361  -16.7368   20.2093 H   0  0  0  0  0  0  0  0  0  0  0  0
  -75.7132  -18.9741   20.1388 H   0  0  0  0  0  0  0  0  0  0  0  0
  -75.5963  -17.8192   18.7680 H   0  0  0  0  0  0  0  0  0  0  0  0
  -74.6040  -19.3166   18.7680 H   0  0  0  0  0  0  0  0  0  0  0  0
  -72.2016  -18.7536   19.2078 H   0  0  0  0  0  0  0  0  0  0  0  0
  -71.7615  -15.9092   20.1067 H   0  0  0  0  0  0  0  0  0  0  0  0
  -69.5882  -17.4704   20.2897 H   0  0  0  0  0  0  0  0  0  0  0  0
  -70.9527  -18.3611   21.6480 H   0  0  0  0  0  0  0  0  0  0  0  0
  -70.8819  -16.6147   23.3547 H   0  0  0  0  0  0  0  0  0  0  0  0
  -73.0536  -15.1808   18.7148 H   0  0  0  0  0  0  0  0  0  0  0  0
  -70.2240  -14.1725   15.7183 H   0  0  0  0  0  0  0  0  0  0  0  0
  -70.5538  -13.2470   14.2209 H   0  0  0  0  0  0  0  0  0  0  0  0
  -70.8663  -14.4396   12.9144 H   0  0  0  0  0  0  0  0  0  0  0  0
  -71.7249  -12.8617   12.9144 H   0  0  0  0  0  0  0  0  0  0  0  0
  -75.6862  -14.9899   14.0812 H   0  0  0  0  0  0  0  0  0  0  0  0
  -75.9447  -17.0970   16.1708 H   0  0  0  0  0  0  0  0  0  0  0  0
  -75.6466  -16.0894   17.6291 H   0  0  0  0  0  0  0  0  0  0  0  0
  1  2  2  0
  2  3  1  0
  2  5  1  0
  3  4  2  0
  4  8  1  0
  5  6  1  0
  6  7  2  0
  6  8  1  0
  9  8  1  0
  9 10  1  0
  9 11  1  0
 10 15  1  0
 11 12  1  0
 11 13  1  0
 13 14  1  0
 13 15  1  0
 15 16  1  0
 16 17  1  0
 17 18  1  0
 18 19  2  0
 18 20  1  1
 18 21  1  0
 21 22  1  0
 22 23  2  0
 22 24  1  6
 22 25  1  0
 26 25  1  0
 26 27  1  0
 26 33  1  0
 27 28  1  0
 28 29  1  0
 28 30  1  0
 30 31  1  0
 30 35  1  0
 31 32  1  0
 31 33  1  0
 33 34  1  0
 35 36  2  3
 36 37  1  0
 37 38  2  0
 37 42  1  0
 38 39  1  0
 38 40  1  0
 40 41  1  0
 40 44  2  0
 42 43  2  0
 42 45  1  0
 43 44  1  0
 45 46  1  0
 46 47  1  0
 47 48  1  1
 47 49  2  0
 47 50  1  0
  3 51  1  0
  4 52  1  0
  5 53  1  0
  9 54  1  1
 11 55  1  6
 12 56  1  0
 13 57  1  1
 14 58  1  0
 15 59  1  1
 16 60  1  0
 16 61  1  0
 26 62  1  1
 28 63  1  1
 29 64  1  0
 29 65  1  0
 29 66  1  0
 30 67  1  6
 31 68  1  1
 32 69  1  0
 33 70  1  6
 34 71  1  0
 36 72  1  0
 39 73  1  0
 41 74  1  0
 41 75  1  0
 41 76  1  0
 43 77  1  0
 45 78  1  0
 45 79  1  0
M  CHG  4  20  -1  24  -1  48  -1  50  -1
M  END
>  <filename_input>  (22) 
7MFP_Z7P_docked.sdf

>  <pdb_id>  (22) 
7MFP_Z7P

>  <pose_rank>  (22) 
21

>  <num_atoms_heavy>  (22) 
50

>  <num_torsions>  (22) 
13

>  <pose>  (22) 
[-73.5726657186787, -16.47432805202937, 22.5670724847202, 1.6289328582559714, 0.8446769464585847, -1.1351707985376909, 6.273087604965395, -1.174974964516368, 4.595099879336477, 1.3251907341353069, -0.9486829101620862, -1.0634607197655714, 26.838318825320783, -11.707299848481806, 14.252613442702497, -19.05269039091727, -12.05887868570594, 3.4524303228610034, -2.980652635943865]

>  <energy>  (22) 
-628.0772328157763

>  <inter_energy>  (22) 
-655.9857638938553

>  <intra_energy>  (22) 
35.814787029554516

>  <rmsd>  (22) 
8.67387

>  <sdf_rank>  (22) 
0

$$$$

     RDKit          3D

 79 82  0  0  0  0  0  0  0  0999 V2000
  -76.5243  -13.0025   28.4055 O   0  0  0  0  0  0  0  0  0  0  0  0
  -75.6227  -13.3459   27.5879 C   0  0  0  0  0  0  0  0  0  0  0  0
  -75.5639  -14.6419   27.0630 C   0  0  0  0  0  0  0  0  0  0  0  0
  -74.5296  -14.9718   26.1781 C   0  0  0  0  0  0  0  0  0  0  0  0
  -74.6807  -12.4644   27.2025 N   0  0  0  0  0  0  0  0  0  0  0  0
  -73.6574  -12.7900   26.3945 C   0  0  0  0  0  0  0  0  0  0  0  0
  -72.8008  -11.9348   26.1081 O   0  0  0  0  0  0  0  0  0  0  0  0
  -73.5578  -14.0850   25.8476 N   0  0  0  0  0  0  0  0  0  0  0  0
  -72.4446  -14.4488   24.9553 C   0  0  2  0  0  0  0  0  0  0  0  0
  -72.8951  -15.1241   23.7840 O   0  0  0  0  0  0  0  0  0  0  0  0
  -71.5824  -15.5153   25.6423 C   0  0  2  0  0  0  0  0  0  0  0  0
  -70.5771  -15.0504   26.5702 O   0  0  0  0  0  0  0  0  0  0  0  0
  -70.9268  -16.2142   24.4902 C   0  0  2  0  0  0  0  0  0  0  0  0
  -69.7553  -15.4845   24.0542 O   0  0  0  0  0  0  0  0  0  0  0  0
  -71.9428  -16.0790   23.3711 C   0  0  1  0  0  0  0  0  0  0  0  0
  -72.6716  -17.3650   23.0757 C   0  0  0  0  0  0  0  0  0  0  0  0
  -71.7916  -18.3066   22.5009 O   0  0  0  0  0  0  0  0  0  0  0  0
  -71.9851  -18.7972   21.0040 P   0  0  1  0  0  0  0  0  0  0  0  0
  -70.8369  -19.6154   20.4836 O   0  0  0  0  0  0  0  0  0  0  0  0
  -73.2860  -19.4867   20.8218 O   0  0  0  0  0  0  0  0  0  0  0  0
  -72.0968  -17.3841   20.2052 O   0  0  0  0  0  0  0  0  0  0  0  0
  -71.0031  -16.5174   19.4092 P   0  0  1  0  0  0  0  0  0  0  0  0
  -70.3513  -15.4932   20.3289 O   0  0  0  0  0  0  0  0  0  0  0  0
  -70.0957  -17.3280   18.5829 O   0  0  0  0  0  0  0  0  0  0  0  0
  -71.9020  -15.7453   18.2918 O   0  0  0  0  0  0  0  0  0  0  0  0
  -72.0202  -16.4191   17.0548 C   0  0  1  0  0  0  0  0  0  0  0  0
  -72.8299  -17.5580   17.3097 O   0  0  0  0  0  0  0  0  0  0  0  0
  -74.1930  -17.2191   17.6336 C   0  0  2  0  0  0  0  0  0  0  0  0
  -74.8880  -18.4733   18.1283 C   0  0  0  0  0  0  0  0  0  0  0  0
  -74.8604  -16.5596   16.4412 C   0  0  2  0  0  0  0  0  0  0  0  0
  -74.0928  -15.2982   15.9941 C   0  0  2  0  0  0  0  0  0  0  0  0
  -74.5450  -14.9580   14.6686 O   0  0  0  0  0  0  0  0  0  0  0  0
  -72.5826  -15.5220   15.9223 C   0  0  1  0  0  0  0  0  0  0  0  0
  -71.8915  -14.2746   15.8719 O   0  0  0  0  0  0  0  0  0  0  0  0
  -76.2442  -16.2581   16.8454 N   0  0  0  0  0  0  0  0  0  0  0  0
  -77.2790  -16.6584   16.2545 C   0  0  0  0  0  0  0  0  0  0  0  0
  -78.5792  -16.3375   16.8054 C   0  0  0  0  0  0  0  0  0  0  0  0
  -78.7752  -15.1416   17.6683 C   0  0  0  0  0  0  0  0  0  0  0  0
  -77.7757  -14.2998   17.9688 O   0  0  0  0  0  0  0  0  0  0  0  0
  -80.1358  -14.8581   18.2094 C   0  0  0  0  0  0  0  0  0  0  0  0
  -80.3769  -13.6225   19.0442 C   0  0  0  0  0  0  0  0  0  0  0  0
  -79.7457  -17.2017   16.5893 C   0  0  0  0  0  0  0  0  0  0  0  0
  -80.9634  -16.8258   17.1678 C   0  0  0  0  0  0  0  0  0  0  0  0
  -81.1268  -15.7011   17.9096 N   0  0  0  0  0  0  0  0  0  0  0  0
  -79.6825  -18.4642   15.7406 C   0  0  0  0  0  0  0  0  0  0  0  0
  -80.9549  -19.1413   15.7841 O   0  0  0  0  0  0  0  0  0  0  0  0
  -80.8958  -20.7447   15.8718 P   0  0  2  0  0  0  0  0  0  0  0  0
  -81.9420  -21.2320   14.9039 O   0  0  0  0  0  0  0  0  0  0  0  0
  -81.3518  -21.0089   17.3409 O   0  0  0  0  0  0  0  0  0  0  0  0
  -79.5195  -21.3339   15.6767 O   0  0  0  0  0  0  0  0  0  0  0  0
  -76.3195  -15.3911   27.3416 H   0  0  0  0  0  0  0  0  0  0  0  0
  -74.5045  -15.9797   25.7382 H   0  0  0  0  0  0  0  0  0  0  0  0
  -74.7476  -11.4947   27.5432 H   0  0  0  0  0  0  0  0  0  0  0  0
  -71.9246  -13.5087   24.7187 H   0  0  0  0  0  0  0  0  0  0  0  0
  -72.2238  -16.1336   26.2875 H   0  0  0  0  0  0  0  0  0  0  0  0
  -70.8916  -15.1958   27.4976 H   0  0  0  0  0  0  0  0  0  0  0  0
  -70.6380  -17.2428   24.7520 H   0  0  0  0  0  0  0  0  0  0  0  0
  -69.2496  -15.1695   24.8449 H   0  0  0  0  0  0  0  0  0  0  0  0
  -71.4062  -15.7880   22.4561 H   0  0  0  0  0  0  0  0  0  0  0  0
  -73.0795  -17.7740   24.0118 H   0  0  0  0  0  0  0  0  0  0  0  0
  -73.4872  -17.1589   22.3670 H   0  0  0  0  0  0  0  0  0  0  0  0
  -71.0303  -16.7146   16.6769 H   0  0  0  0  0  0  0  0  0  0  0  0
  -74.2493  -16.4768   18.4434 H   0  0  0  0  0  0  0  0  0  0  0  0
  -74.8920  -18.4806   19.2283 H   0  0  0  0  0  0  0  0  0  0  0  0
  -75.9235  -18.4891   17.7577 H   0  0  0  0  0  0  0  0  0  0  0  0
  -74.3524  -19.3597   17.7577 H   0  0  0  0  0  0  0  0  0  0  0  0
  -74.8580  -17.2266   15.5665 H   0  0  0  0  0  0  0  0  0  0  0  0
  -74.2854  -14.5051   16.7317 H   0  0  0  0  0  0  0  0  0  0  0  0
  -75.3346  -14.3640   14.7316 H   0  0  0  0  0  0  0  0  0  0  0  0
  -72.4055  -16.0774   14.9895 H   0  0  0  0  0  0  0  0  0  0  0  0
  -71.7157  -13.9573   16.7931 H   0  0  0  0  0  0  0  0  0  0  0  0
  -77.1977  -17.2465   15.3285 H   0  0  0  0  0  0  0  0  0  0  0  0
  -77.9468  -13.5145   18.5469 H   0  0  0  0  0  0  0  0  0  0  0  0
  -80.3256  -13.8851   20.1111 H   0  0  0  0  0  0  0  0  0  0  0  0
  -79.6087  -12.8693   18.8147 H   0  0  0  0  0  0  0  0  0  0  0  0
  -81.3718  -13.2133   18.8147 H   0  0  0  0  0  0  0  0  0  0  0  0
  -81.8358  -17.4776   17.0128 H   0  0  0  0  0  0  0  0  0  0  0  0
  -79.4467  -18.1946   14.7006 H   0  0  0  0  0  0  0  0  0  0  0  0
  -78.9009  -19.1304   16.1349 H   0  0  0  0  0  0  0  0  0  0  0  0
  1  2  2  0
  2  3  1  0
  2  5  1  0
  3  4  2  0
  4  8  1  0
  5  6  1  0
  6  7  2  0
  6  8  1  0
  9  8  1  0
  9 10  1  0
  9 11  1  0
 10 15  1  0
 11 12  1  0
 11 13  1  0
 13 14  1  0
 13 15  1  0
 15 16  1  0
 16 17  1  0
 17 18  1  0
 18 19  2  0
 18 20  1  1
 18 21  1  0
 21 22  1  0
 22 23  2  0
 22 24  1  6
 22 25  1  0
 26 25  1  0
 26 27  1  0
 26 33  1  0
 27 28  1  0
 28 29  1  0
 28 30  1  0
 30 31  1  0
 30 35  1  0
 31 32  1  0
 31 33  1  0
 33 34  1  0
 35 36  2  3
 36 37  1  0
 37 38  2  0
 37 42  1  0
 38 39  1  0
 38 40  1  0
 40 41  1  0
 40 44  2  0
 42 43  2  0
 42 45  1  0
 43 44  1  0
 45 46  1  0
 46 47  1  0
 47 48  1  6
 47 49  2  0
 47 50  1  0
  3 51  1  0
  4 52  1  0
  5 53  1  0
  9 54  1  6
 11 55  1  1
 12 56  1  0
 13 57  1  1
 14 58  1  0
 15 59  1  6
 16 60  1  0
 16 61  1  0
 26 62  1  6
 28 63  1  1
 29 64  1  0
 29 65  1  0
 29 66  1  0
 30 67  1  6
 31 68  1  1
 32 69  1  0
 33 70  1  6
 34 71  1  0
 36 72  1  0
 39 73  1  0
 41 74  1  0
 41 75  1  0
 41 76  1  0
 43 77  1  0
 45 78  1  0
 45 79  1  0
M  CHG  4  20  -1  24  -1  48  -1  50  -1
M  END
>  <filename_input>  (23) 
7MFP_Z7P_docked.sdf

>  <pdb_id>  (23) 
7MFP_Z7P

>  <pose_rank>  (23) 
22

>  <num_atoms_heavy>  (23) 
50

>  <num_torsions>  (23) 
13

>  <pose>  (23) 
[-71.90196191563668, -15.7453292728008, 18.291757871559607, 1.3126209093648373, 1.999117751650153, -1.8136207440369674, -0.5907428204981038, 1.6191085071680327, 0.5249846216470156, 1.9458221135571547, 0.27226844897843716, 0.603495830352741, -2.3894415398987463, -0.9463803841005973, -0.1252327460445519, 2.478799811503823, 0.38559458684527625, 3.9490256347141477, 0.03499329139878423]

>  <energy>  (23) 
-621.2074975446639

>  <inter_energy>  (23) 
-654.0076950455267

>  <intra_energy>  (23) 
41.342327452270396

>  <rmsd>  (23) 
9.51766

>  <sdf_rank>  (23) 
0

$$$$

     RDKit          3D

 79 82  0  0  0  0  0  0  0  0999 V2000
  -67.8047  -13.6974   23.7393 O   0  0  0  0  0  0  0  0  0  0  0  0
  -68.9664  -14.1640   23.9175 C   0  0  0  0  0  0  0  0  0  0  0  0
  -69.7184  -14.6835   22.8577 C   0  0  0  0  0  0  0  0  0  0  0  0
  -71.0085  -15.1666   23.1108 C   0  0  0  0  0  0  0  0  0  0  0  0
  -69.5189  -14.1661   25.1453 N   0  0  0  0  0  0  0  0  0  0  0  0
  -70.7747  -14.5809   25.3845 C   0  0  0  0  0  0  0  0  0  0  0  0
  -71.2353  -14.5207   26.5383 O   0  0  0  0  0  0  0  0  0  0  0  0
  -71.5678  -15.1068   24.3451 N   0  0  0  0  0  0  0  0  0  0  0  0
  -72.9418  -15.5708   24.5989 C   0  0  2  0  0  0  0  0  0  0  0  0
  -73.3386  -16.5942   23.6899 O   0  0  0  0  0  0  0  0  0  0  0  0
  -73.9204  -14.4366   24.2694 C   0  0  2  0  0  0  0  0  0  0  0  0
  -74.1527  -13.4490   25.2981 O   0  0  0  0  0  0  0  0  0  0  0  0
  -75.1944  -15.1658   23.9674 C   0  0  2  0  0  0  0  0  0  0  0  0
  -75.9013  -15.4800   25.1907 O   0  0  0  0  0  0  0  0  0  0  0  0
  -74.7170  -16.4935   23.4088 C   0  0  1  0  0  0  0  0  0  0  0  0
  -74.8967  -16.6059   21.9164 C   0  0  0  0  0  0  0  0  0  0  0  0
  -76.1791  -16.1523   21.5411 O   0  0  0  0  0  0  0  0  0  0  0  0
  -77.1921  -17.1069   20.7788 P   0  0  1  0  0  0  0  0  0  0  0  0
  -76.7762  -18.5512   20.7778 O   0  0  0  0  0  0  0  0  0  0  0  0
  -78.5808  -16.9292   21.2697 O   0  0  0  0  0  0  0  0  0  0  0  0
  -77.1539  -16.4935   19.2722 O   0  0  0  0  0  0  0  0  0  0  0  0
  -77.4325  -17.1629   17.8387 P   0  0  1  0  0  0  0  0  0  0  0  0
  -77.0223  -18.6297   17.8381 O   0  0  0  0  0  0  0  0  0  0  0  0
  -78.7624  -16.8538   17.2917 O   0  0  0  0  0  0  0  0  0  0  0  0
  -76.4428  -16.3248   16.8535 O   0  0  0  0  0  0  0  0  0  0  0  0
  -75.7326  -15.2741   17.4778 C   0  0  1  0  0  0  0  0  0  0  0  0
  -74.9449  -15.8862   18.4890 O   0  0  0  0  0  0  0  0  0  0  0  0
  -73.8984  -16.7235   17.9584 C   0  0  2  0  0  0  0  0  0  0  0  0
  -73.2958  -17.5124   19.1053 C   0  0  0  0  0  0  0  0  0  0  0  0
  -72.9026  -15.8804   17.1840 C   0  0  2  0  0  0  0  0  0  0  0  0
  -73.5911  -15.1051   16.0417 C   0  0  2  0  0  0  0  0  0  0  0  0
  -72.6889  -14.0664   15.6123 O   0  0  0  0  0  0  0  0  0  0  0  0
  -74.8899  -14.4325   16.4853 C   0  0  1  0  0  0  0  0  0  0  0  0
  -75.6702  -14.0507   15.3533 O   0  0  0  0  0  0  0  0  0  0  0  0
  -71.8651  -16.8011   16.6889 N   0  0  0  0  0  0  0  0  0  0  0  0
  -70.6253  -16.6387   16.8189 C   0  0  0  0  0  0  0  0  0  0  0  0
  -69.7216  -17.6629   16.3380 C   0  0  0  0  0  0  0  0  0  0  0  0
  -68.9887  -17.5009   15.0535 C   0  0  0  0  0  0  0  0  0  0  0  0
  -69.1130  -16.4074   14.2874 O   0  0  0  0  0  0  0  0  0  0  0  0
  -68.0704  -18.5872   14.6054 C   0  0  0  0  0  0  0  0  0  0  0  0
  -67.2723  -18.4278   13.3329 C   0  0  0  0  0  0  0  0  0  0  0  0
  -69.5307  -18.9268   17.0592 C   0  0  0  0  0  0  0  0  0  0  0  0
  -68.6484  -19.8696   16.5193 C   0  0  0  0  0  0  0  0  0  0  0  0
  -67.9527  -19.6752   15.3704 N   0  0  0  0  0  0  0  0  0  0  0  0
  -70.2303  -19.2305   18.3771 C   0  0  0  0  0  0  0  0  0  0  0  0
  -69.2922  -19.8231   19.2982 O   0  0  0  0  0  0  0  0  0  0  0  0
  -69.8128  -21.1162   20.0975 P   0  0  2  0  0  0  0  0  0  0  0  0
  -69.7725  -22.2415   19.0971 O   0  0  0  0  0  0  0  0  0  0  0  0
  -71.2904  -20.7292   20.4186 O   0  0  0  0  0  0  0  0  0  0  0  0
  -69.0885  -21.3864   21.3943 O   0  0  0  0  0  0  0  0  0  0  0  0
  -69.3021  -14.7120   21.8399 H   0  0  0  0  0  0  0  0  0  0  0  0
  -71.5850  -15.6076   22.2842 H   0  0  0  0  0  0  0  0  0  0  0  0
  -68.9524  -13.8341   25.9388 H   0  0  0  0  0  0  0  0  0  0  0  0
  -72.9590  -15.9139   25.6439 H   0  0  0  0  0  0  0  0  0  0  0  0
  -73.5017  -13.8274   23.4548 H   0  0  0  0  0  0  0  0  0  0  0  0
  -74.0536  -13.8704   26.1885 H   0  0  0  0  0  0  0  0  0  0  0  0
  -75.8508  -14.5782   23.3087 H   0  0  0  0  0  0  0  0  0  0  0  0
  -75.3416  -15.2312   25.9685 H   0  0  0  0  0  0  0  0  0  0  0  0
  -75.3132  -17.2932   23.8724 H   0  0  0  0  0  0  0  0  0  0  0  0
  -74.1338  -15.9946   21.4122 H   0  0  0  0  0  0  0  0  0  0  0  0
  -74.7902  -17.6604   21.6220 H   0  0  0  0  0  0  0  0  0  0  0  0
  -76.4270  -14.5381   17.9092 H   0  0  0  0  0  0  0  0  0  0  0  0
  -74.2860  -17.4530   17.2320 H   0  0  0  0  0  0  0  0  0  0  0  0
  -73.6262  -17.0799   20.0612 H   0  0  0  0  0  0  0  0  0  0  0  0
  -73.6259  -18.5599   19.0432 H   0  0  0  0  0  0  0  0  0  0  0  0
  -72.1984  -17.4695   19.0432 H   0  0  0  0  0  0  0  0  0  0  0  0
  -72.4506  -15.1106   17.8267 H   0  0  0  0  0  0  0  0  0  0  0  0
  -73.8336  -15.8220   15.2435 H   0  0  0  0  0  0  0  0  0  0  0  0
  -72.2999  -13.6187   16.4049 H   0  0  0  0  0  0  0  0  0  0  0  0
  -74.5874  -13.5336   17.0424 H   0  0  0  0  0  0  0  0  0  0  0  0
  -76.5158  -13.6370   15.6597 H   0  0  0  0  0  0  0  0  0  0  0  0
  -70.2309  -15.7278   17.2930 H   0  0  0  0  0  0  0  0  0  0  0  0
  -68.6079  -16.3375   13.4389 H   0  0  0  0  0  0  0  0  0  0  0  0
  -66.2218  -18.2180   13.5827 H   0  0  0  0  0  0  0  0  0  0  0  0
  -67.3311  -19.3554   12.7446 H   0  0  0  0  0  0  0  0  0  0  0  0
  -67.6829  -17.5939   12.7446 H   0  0  0  0  0  0  0  0  0  0  0  0
  -68.5114  -20.8203   17.0554 H   0  0  0  0  0  0  0  0  0  0  0  0
  -70.6243  -18.2972   18.8058 H   0  0  0  0  0  0  0  0  0  0  0  0
  -71.0583  -19.9320   18.1976 H   0  0  0  0  0  0  0  0  0  0  0  0
  1  2  2  0
  2  3  1  0
  2  5  1  0
  3  4  2  0
  4  8  1  0
  5  6  1  0
  6  7  2  0
  6  8  1  0
  9  8  1  0
  9 10  1  0
  9 11  1  0
 10 15  1  0
 11 12  1  0
 11 13  1  0
 13 14  1  0
 13 15  1  0
 15 16  1  0
 16 17  1  0
 17 18  1  0
 18 19  2  0
 18 20  1  1
 18 21  1  0
 21 22  1  0
 22 23  2  0
 22 24  1  6
 22 25  1  0
 26 25  1  0
 26 27  1  0
 26 33  1  0
 27 28  1  0
 28 29  1  0
 28 30  1  0
 30 31  1  0
 30 35  1  0
 31 32  1  0
 31 33  1  0
 33 34  1  0
 35 36  2  3
 36 37  1  0
 37 38  2  0
 37 42  1  0
 38 39  1  0
 38 40  1  0
 40 41  1  0
 40 44  2  0
 42 43  2  0
 42 45  1  0
 43 44  1  0
 45 46  1  0
 46 47  1  0
 47 48  1  6
 47 49  2  0
 47 50  1  0
  3 51  1  0
  4 52  1  0
  5 53  1  0
  9 54  1  1
 11 55  1  6
 12 56  1  0
 13 57  1  6
 14 58  1  0
 15 59  1  1
 16 60  1  0
 16 61  1  0
 26 62  1  1
 28 63  1  6
 29 64  1  0
 29 65  1  0
 29 66  1  0
 30 67  1  1
 31 68  1  6
 32 69  1  0
 33 70  1  1
 34 71  1  0
 36 72  1  0
 39 73  1  0
 41 74  1  0
 41 75  1  0
 41 76  1  0
 43 77  1  0
 45 78  1  0
 45 79  1  0
M  CHG  4  20  -1  24  -1  48  -1  50  -1
M  END
>  <filename_input>  (24) 
7MFP_Z7P_docked.sdf

>  <pdb_id>  (24) 
7MFP_Z7P

>  <pose_rank>  (24) 
23

>  <num_atoms_heavy>  (24) 
50

>  <num_torsions>  (24) 
13

>  <pose>  (24) 
[-76.44281593937073, -16.324753073483276, 16.85345977607174, -0.9794026817346406, -4.623618892584081, -2.5681955744802423, -19.600636098126376, 7.785616719380006, 8.146040812104538, 2.77536094591909, 0.37452961203937013, -1.974200899394408, -7.129215810746718, -6.184546205909474, 0.8717052355577869, -0.2766628435392168, -6.022723138442729, 4.356199724785429, -0.3029275157645612]

>  <energy>  (24) 
-618.5460457951266

>  <inter_energy>  (24) 
-657.5287046579184

>  <intra_energy>  (24) 
57.10784973859822

>  <rmsd>  (24) 
6.89083

>  <sdf_rank>  (24) 
0

$$$$

     RDKit          3D

 79 82  0  0  0  0  0  0  0  0999 V2000
  -76.7648  -16.2740   28.3234 O   0  0  0  0  0  0  0  0  0  0  0  0
  -76.0080  -15.9903   27.3509 C   0  0  0  0  0  0  0  0  0  0  0  0
  -75.5675  -14.6819   27.1219 C   0  0  0  0  0  0  0  0  0  0  0  0
  -74.7481  -14.4230   26.0159 C   0  0  0  0  0  0  0  0  0  0  0  0
  -75.6078  -16.9507   26.4963 N   0  0  0  0  0  0  0  0  0  0  0  0
  -74.8643  -16.6993   25.4053 C   0  0  0  0  0  0  0  0  0  0  0  0
  -74.5610  -17.6294   24.6373 O   0  0  0  0  0  0  0  0  0  0  0  0
  -74.4036  -15.3952   25.1350 N   0  0  0  0  0  0  0  0  0  0  0  0
  -73.5822  -15.1114   23.9465 C   0  0  2  0  0  0  0  0  0  0  0  0
  -74.1811  -15.6039   22.7507 O   0  0  0  0  0  0  0  0  0  0  0  0
  -72.2862  -15.9277   24.0290 C   0  0  2  0  0  0  0  0  0  0  0  0
  -71.2051  -15.3680   24.8071 O   0  0  0  0  0  0  0  0  0  0  0  0
  -71.8705  -16.0488   22.5942 C   0  0  2  0  0  0  0  0  0  0  0  0
  -71.1508  -14.8658   22.1730 O   0  0  0  0  0  0  0  0  0  0  0  0
  -73.1883  -16.0253   21.8420 C   0  0  1  0  0  0  0  0  0  0  0  0
  -73.5890  -17.3772   21.3093 C   0  0  0  0  0  0  0  0  0  0  0  0
  -74.6432  -17.2456   20.3804 O   0  0  0  0  0  0  0  0  0  0  0  0
  -74.9902  -18.4174   19.3679 P   0  0  1  0  0  0  0  0  0  0  0  0
  -73.8646  -18.7608   18.4331 O   0  0  0  0  0  0  0  0  0  0  0  0
  -75.5074  -19.6134   20.0773 O   0  0  0  0  0  0  0  0  0  0  0  0
  -76.2479  -17.7865   18.5510 O   0  0  0  0  0  0  0  0  0  0  0  0
  -76.3968  -16.4342   17.6967 P   0  0  1  0  0  0  0  0  0  0  0  0
  -77.4599  -16.5908   16.6173 O   0  0  0  0  0  0  0  0  0  0  0  0
  -76.4753  -15.2200   18.5230 O   0  0  0  0  0  0  0  0  0  0  0  0
  -74.9333  -16.2898   16.9965 O   0  0  0  0  0  0  0  0  0  0  0  0
  -74.3958  -14.9825   17.0067 C   0  0  1  0  0  0  0  0  0  0  0  0
  -73.3936  -14.9835   18.0133 O   0  0  0  0  0  0  0  0  0  0  0  0
  -72.2582  -15.8055   17.6771 C   0  0  2  0  0  0  0  0  0  0  0  0
  -71.3844  -15.9332   18.9104 C   0  0  0  0  0  0  0  0  0  0  0  0
  -71.5498  -15.2386   16.4610 C   0  0  2  0  0  0  0  0  0  0  0  0
  -72.5038  -15.1335   15.2532 C   0  0  2  0  0  0  0  0  0  0  0  0
  -71.8902  -14.2585   14.2862 O   0  0  0  0  0  0  0  0  0  0  0  0
  -73.8593  -14.5323   15.6235 C   0  0  1  0  0  0  0  0  0  0  0  0
  -74.8191  -14.7874   14.5989 O   0  0  0  0  0  0  0  0  0  0  0  0
  -70.4019  -16.1213   16.1917 N   0  0  0  0  0  0  0  0  0  0  0  0
  -70.4753  -17.3384   15.8861 C   0  0  0  0  0  0  0  0  0  0  0  0
  -69.2616  -18.0681   15.5835 C   0  0  0  0  0  0  0  0  0  0  0  0
  -68.5680  -17.8999   14.2781 C   0  0  0  0  0  0  0  0  0  0  0  0
  -69.0151  -17.0655   13.3283 O   0  0  0  0  0  0  0  0  0  0  0  0
  -67.3214  -18.6762   14.0188 C   0  0  0  0  0  0  0  0  0  0  0  0
  -66.5661  -18.4864   12.7245 C   0  0  0  0  0  0  0  0  0  0  0  0
  -68.6931  -19.0457   16.5190 C   0  0  0  0  0  0  0  0  0  0  0  0
  -67.5241  -19.7176   16.1438 C   0  0  0  0  0  0  0  0  0  0  0  0
  -66.8823  -19.5078   14.9666 N   0  0  0  0  0  0  0  0  0  0  0  0
  -69.3096  -19.3279   17.8823 C   0  0  0  0  0  0  0  0  0  0  0  0
  -69.9815  -20.6035   17.8554 O   0  0  0  0  0  0  0  0  0  0  0  0
  -69.4801  -21.6854   18.9326 P   0  0  2  0  0  0  0  0  0  0  0  0
  -70.1966  -21.3325   20.2096 O   0  0  0  0  0  0  0  0  0  0  0  0
  -67.9610  -21.3476   19.0524 O   0  0  0  0  0  0  0  0  0  0  0  0
  -69.6252  -23.1225   18.4935 O   0  0  0  0  0  0  0  0  0  0  0  0
  -75.8606  -13.8679   27.8013 H   0  0  0  0  0  0  0  0  0  0  0  0
  -74.3731  -13.4012   25.8569 H   0  0  0  0  0  0  0  0  0  0  0  0
  -75.8845  -17.9242   26.6877 H   0  0  0  0  0  0  0  0  0  0  0  0
  -73.4464  -14.0200   23.9240 H   0  0  0  0  0  0  0  0  0  0  0  0
  -72.4891  -16.8696   24.5597 H   0  0  0  0  0  0  0  0  0  0  0  0
  -71.4046  -15.4713   25.7713 H   0  0  0  0  0  0  0  0  0  0  0  0
  -71.2411  -16.9356   22.4286 H   0  0  0  0  0  0  0  0  0  0  0  0
  -70.8455  -14.3640   22.9699 H   0  0  0  0  0  0  0  0  0  0  0  0
  -73.0769  -15.3522   20.9792 H   0  0  0  0  0  0  0  0  0  0  0  0
  -72.7245  -17.8424   20.8132 H   0  0  0  0  0  0  0  0  0  0  0  0
  -73.9268  -18.0055   22.1466 H   0  0  0  0  0  0  0  0  0  0  0  0
  -75.1784  -14.2421   17.2290 H   0  0  0  0  0  0  0  0  0  0  0  0
  -72.5604  -16.8228   17.3876 H   0  0  0  0  0  0  0  0  0  0  0  0
  -72.0076  -15.8422   19.8123 H   0  0  0  0  0  0  0  0  0  0  0  0
  -70.8859  -16.9138   18.9067 H   0  0  0  0  0  0  0  0  0  0  0  0
  -70.6262  -15.1363   18.9067 H   0  0  0  0  0  0  0  0  0  0  0  0
  -71.2025  -14.2117   16.6475 H   0  0  0  0  0  0  0  0  0  0  0  0
  -72.6752  -16.1492   14.8672 H   0  0  0  0  0  0  0  0  0  0  0  0
  -71.3901  -13.5455   14.7569 H   0  0  0  0  0  0  0  0  0  0  0  0
  -73.6935  -13.4482   15.7092 H   0  0  0  0  0  0  0  0  0  0  0  0
  -75.6888  -15.0185   15.0116 H   0  0  0  0  0  0  0  0  0  0  0  0
  -71.4515  -17.8441   15.8488 H   0  0  0  0  0  0  0  0  0  0  0  0
  -68.5248  -16.9817   12.4724 H   0  0  0  0  0  0  0  0  0  0  0  0
  -65.5209  -18.2238   12.9450 H   0  0  0  0  0  0  0  0  0  0  0  0
  -66.5948  -19.4197   12.1430 H   0  0  0  0  0  0  0  0  0  0  0  0
  -67.0325  -17.6776   12.1430 H   0  0  0  0  0  0  0  0  0  0  0  0
  -67.1024  -20.4562   16.8414 H   0  0  0  0  0  0  0  0  0  0  0  0
  -68.5174  -19.3475   18.6452 H   0  0  0  0  0  0  0  0  0  0  0  0
  -70.0357  -18.5380   18.1251 H   0  0  0  0  0  0  0  0  0  0  0  0
  1  2  2  0
  2  3  1  0
  2  5  1  0
  3  4  2  0
  4  8  1  0
  5  6  1  0
  6  7  2  0
  6  8  1  0
  9  8  1  0
  9 10  1  0
  9 11  1  0
 10 15  1  0
 11 12  1  0
 11 13  1  0
 13 14  1  0
 13 15  1  0
 15 16  1  0
 16 17  1  0
 17 18  1  0
 18 19  2  0
 18 20  1  1
 18 21  1  0
 21 22  1  0
 22 23  2  0
 22 24  1  1
 22 25  1  0
 26 25  1  0
 26 27  1  0
 26 33  1  0
 27 28  1  0
 28 29  1  0
 28 30  1  0
 30 31  1  0
 30 35  1  0
 31 32  1  0
 31 33  1  0
 33 34  1  0
 35 36  2  3
 36 37  1  0
 37 38  2  0
 37 42  1  0
 38 39  1  0
 38 40  1  0
 40 41  1  0
 40 44  2  0
 42 43  2  0
 42 45  1  0
 43 44  1  0
 45 46  1  0
 46 47  1  0
 47 48  1  1
 47 49  2  0
 47 50  1  0
  3 51  1  0
  4 52  1  0
  5 53  1  0
  9 54  1  6
 11 55  1  1
 12 56  1  0
 13 57  1  1
 14 58  1  0
 15 59  1  6
 16 60  1  0
 16 61  1  0
 26 62  1  1
 28 63  1  6
 29 64  1  0
 29 65  1  0
 29 66  1  0
 30 67  1  1
 31 68  1  6
 32 69  1  0
 33 70  1  1
 34 71  1  0
 36 72  1  0
 39 73  1  0
 41 74  1  0
 41 75  1  0
 41 76  1  0
 43 77  1  0
 45 78  1  0
 45 79  1  0
M  CHG  4  20  -1  24  -1  48  -1  50  -1
M  END
>  <filename_input>  (25) 
7MFP_Z7P_docked.sdf

>  <pdb_id>  (25) 
7MFP_Z7P

>  <pose_rank>  (25) 
24

>  <num_atoms_heavy>  (25) 
50

>  <num_torsions>  (25) 
13

>  <pose>  (25) 
[-74.93332781405596, -16.28978706583543, 16.996534245693663, -0.634305238948687, 0.3833170546763008, 0.13862656458236464, 0.012593972633751045, -1.4230651437496098, -1.2523071583052598, 0.7132884454196209, -1.4292121816953445, -1.8586090906838337, 3.1044446972005786, -2.964990200867138, -0.8123331994958706, -1.5620160414262612, -1.0688289066023278, 2.235553427840935, -3.0274869258069734]

>  <energy>  (25) 
-614.9232475980408

>  <inter_energy>  (25) 
-662.4498187127323

>  <intra_energy>  (25) 
46.106420928560325

>  <rmsd>  (25) 
7.21436

>  <sdf_rank>  (25) 
0

$$$$

     RDKit          3D

 79 82  0  0  0  0  0  0  0  0999 V2000
  -79.0190   -7.8040   19.0120 O   0  0  0  0  0  0  0  0  0  0  0  0
  -79.4680   -8.8520   19.5590 C   0  0  0  0  0  0  0  0  0  0  0  0
  -79.4570  -10.0860   18.8990 C   0  0  0  0  0  0  0  0  0  0  0  0
  -79.9880  -11.2090   19.5460 C   0  0  0  0  0  0  0  0  0  0  0  0
  -79.9810   -8.8050   20.8030 N   0  0  0  0  0  0  0  0  0  0  0  0
  -80.5380   -9.8680   21.4080 C   0  0  0  0  0  0  0  0  0  0  0  0
  -81.0270   -9.7450   22.5450 O   0  0  0  0  0  0  0  0  0  0  0  0
  -80.5520  -11.1280   20.7770 N   0  0  0  0  0  0  0  0  0  0  0  0
  -81.1530  -12.3000   21.4350 C   0  0  2  0  0  0  0  0  0  0  0  0
  -80.3260  -13.4560   21.3310 O   0  0  0  0  0  0  0  0  0  0  0  0
  -82.4080  -12.7190   20.6590 C   0  0  2  0  0  0  0  0  0  0  0  0
  -83.6350  -12.0210   20.9670 O   0  0  0  0  0  0  0  0  0  0  0  0
  -82.5490  -14.1710   21.0020 C   0  0  2  0  0  0  0  0  0  0  0  0
  -83.2270  -14.3290   22.2710 O   0  0  0  0  0  0  0  0  0  0  0  0
  -81.1180  -14.6190   21.2350 C   0  0  1  0  0  0  0  0  0  0  0  0
  -80.5720  -15.4620   20.1110 C   0  0  0  0  0  0  0  0  0  0  0  0
  -80.4820  -14.7010   18.9260 O   0  0  0  0  0  0  0  0  0  0  0  0
  -80.9490  -15.3010   17.5330 P   0  0  1  0  0  0  0  0  0  0  0  0
  -82.0320  -16.3360   17.6540 O   0  0  0  0  0  0  0  0  0  0  0  0
  -81.3100  -14.2290   16.5730 O   0  0  0  0  0  0  0  0  0  0  0  0
  -79.5710  -15.9680   16.9820 O   0  0  0  0  0  0  0  0  0  0  0  0
  -79.0770  -17.4950   16.9110 P   0  0  1  0  0  0  0  0  0  0  0  0
  -79.5280  -18.2670   18.1440 O   0  0  0  0  0  0  0  0  0  0  0  0
  -79.3240  -18.1350   15.6100 O   0  0  0  0  0  0  0  0  0  0  0  0
  -77.4550  -17.3480   16.9290 O   0  0  0  0  0  0  0  0  0  0  0  0
  -76.9510  -16.4390   17.8870 C   0  0  1  0  0  0  0  0  0  0  0  0
  -76.4360  -17.2360   18.9440 O   0  0  0  0  0  0  0  0  0  0  0  0
  -75.2710  -17.9940   18.5620 C   0  0  2  0  0  0  0  0  0  0  0  0
  -74.9660  -18.9840   19.6700 C   0  0  0  0  0  0  0  0  0  0  0  0
  -74.1280  -17.0540   18.2270 C   0  0  2  0  0  0  0  0  0  0  0  0
  -74.5170  -16.0760   17.0990 C   0  0  2  0  0  0  0  0  0  0  0  0
  -73.5570  -15.0010   17.1020 O   0  0  0  0  0  0  0  0  0  0  0  0
  -75.9000  -15.4590   17.3050 C   0  0  1  0  0  0  0  0  0  0  0  0
  -76.3720  -14.8680   16.0950 O   0  0  0  0  0  0  0  0  0  0  0  0
  -72.9790  -17.9000   17.8620 N   0  0  0  0  0  0  0  0  0  0  0  0
  -72.1280  -17.6300   16.9770 C   0  0  0  0  0  0  0  0  0  0  0  0
  -71.0100  -18.5270   16.7710 C   0  0  0  0  0  0  0  0  0  0  0  0
  -70.7970  -19.7060   17.6530 C   0  0  0  0  0  0  0  0  0  0  0  0
  -71.6240  -20.0060   18.6650 O   0  0  0  0  0  0  0  0  0  0  0  0
  -69.6290  -20.5970   17.3960 C   0  0  0  0  0  0  0  0  0  0  0  0
  -69.4170  -21.8310   18.2410 C   0  0  0  0  0  0  0  0  0  0  0  0
  -70.0070  -18.2860   15.7270 C   0  0  0  0  0  0  0  0  0  0  0  0
  -68.9500  -19.1950   15.6030 C   0  0  0  0  0  0  0  0  0  0  0  0
  -68.8070  -20.2920   16.3890 N   0  0  0  0  0  0  0  0  0  0  0  0
  -70.0940  -17.1090   14.7650 C   0  0  0  0  0  0  0  0  0  0  0  0
  -69.9580  -15.8740   15.4970 O   0  0  0  0  0  0  0  0  0  0  0  0
  -70.6010  -14.5730   14.8070 P   0  0  2  0  0  0  0  0  0  0  0  0
  -70.1360  -13.4110   15.6450 O   0  0  0  0  0  0  0  0  0  0  0  0
  -72.1290  -14.8140   15.0150 O   0  0  0  0  0  0  0  0  0  0  0  0
  -70.3260  -14.4460   13.3280 O   0  0  0  0  0  0  0  0  0  0  0  0
  -79.0371  -10.1728   17.8860 H   0  0  0  0  0  0  0  0  0  0  0  0
  -79.9465  -12.1854   19.0410 H   0  0  0  0  0  0  0  0  0  0  0  0
  -79.9448   -7.9121   21.3152 H   0  0  0  0  0  0  0  0  0  0  0  0
  -81.3266  -12.0061   22.4807 H   0  0  0  0  0  0  0  0  0  0  0  0
  -82.2675  -12.4802   19.5945 H   0  0  0  0  0  0  0  0  0  0  0  0
  -83.7423  -11.9600   21.9493 H   0  0  0  0  0  0  0  0  0  0  0  0
  -83.1010  -14.7189   20.2241 H   0  0  0  0  0  0  0  0  0  0  0  0
  -82.5846  -14.1793   23.0093 H   0  0  0  0  0  0  0  0  0  0  0  0
  -81.0969  -15.2340   22.1468 H   0  0  0  0  0  0  0  0  0  0  0  0
  -79.5710  -15.8270   20.3846 H   0  0  0  0  0  0  0  0  0  0  0  0
  -81.2495  -16.3115   19.9397 H   0  0  0  0  0  0  0  0  0  0  0  0
  -77.7482  -15.7721   18.2472 H   0  0  0  0  0  0  0  0  0  0  0  0
  -75.4439  -18.5770   17.6454 H   0  0  0  0  0  0  0  0  0  0  0  0
  -75.1153  -18.4993   20.6461 H   0  0  0  0  0  0  0  0  0  0  0  0
  -75.6391  -19.8497   19.5837 H   0  0  0  0  0  0  0  0  0  0  0  0
  -73.9224  -19.3209   19.5837 H   0  0  0  0  0  0  0  0  0  0  0  0
  -73.8723  -16.4184   19.0876 H   0  0  0  0  0  0  0  0  0  0  0  0
  -74.5315  -16.6378   16.1534 H   0  0  0  0  0  0  0  0  0  0  0  0
  -73.3385  -14.7563   18.0361 H   0  0  0  0  0  0  0  0  0  0  0  0
  -75.7696  -14.6778   18.0683 H   0  0  0  0  0  0  0  0  0  0  0  0
  -76.9751  -14.1129   16.3099 H   0  0  0  0  0  0  0  0  0  0  0  0
  -72.2316  -16.7216   16.3653 H   0  0  0  0  0  0  0  0  0  0  0  0
  -71.4477  -20.7999   19.2296 H   0  0  0  0  0  0  0  0  0  0  0  0
  -69.4638  -21.5588   19.3057 H   0  0  0  0  0  0  0  0  0  0  0  0
  -70.2016  -22.5685   18.0163 H   0  0  0  0  0  0  0  0  0  0  0  0
  -68.4312  -22.2643   18.0163 H   0  0  0  0  0  0  0  0  0  0  0  0
  -68.1938  -19.0101   14.8259 H   0  0  0  0  0  0  0  0  0  0  0  0
  -69.2873  -17.1841   14.0209 H   0  0  0  0  0  0  0  0  0  0  0  0
  -71.0685  -17.1256   14.2551 H   0  0  0  0  0  0  0  0  0  0  0  0
  1  2  2  0
  2  3  1  0
  2  5  1  0
  3  4  2  0
  4  8  1  0
  5  6  1  0
  6  7  2  0
  6  8  1  0
  9  8  1  0
  9 10  1  0
  9 11  1  0
 10 15  1  0
 11 12  1  0
 11 13  1  0
 13 14  1  0
 13 15  1  0
 15 16  1  0
 16 17  1  0
 17 18  1  0
 18 19  2  0
 18 20  1  6
 18 21  1  0
 21 22  1  0
 22 23  2  0
 22 24  1  6
 22 25  1  0
 26 25  1  0
 26 27  1  0
 26 33  1  0
 27 28  1  0
 28 29  1  0
 28 30  1  0
 30 31  1  0
 30 35  1  0
 31 32  1  0
 31 33  1  0
 33 34  1  0
 35 36  2  3
 36 37  1  0
 37 38  2  0
 37 42  1  0
 38 39  1  0
 38 40  1  0
 40 41  1  0
 40 44  2  0
 42 43  2  0
 42 45  1  0
 43 44  1  0
 45 46  1  0
 46 47  1  0
 47 48  1  1
 47 49  2  0
 47 50  1  0
  3 51  1  0
  4 52  1  0
  5 53  1  0
  9 54  1  1
 11 55  1  6
 12 56  1  0
 13 57  1  6
 14 58  1  0
 15 59  1  1
 16 60  1  0
 16 61  1  0
 26 62  1  1
 28 63  1  6
 29 64  1  0
 29 65  1  0
 29 66  1  0
 30 67  1  1
 31 68  1  6
 32 69  1  0
 33 70  1  1
 34 71  1  0
 36 72  1  0
 39 73  1  0
 41 74  1  0
 41 75  1  0
 41 76  1  0
 43 77  1  0
 45 78  1  0
 45 79  1  0
M  CHG  4  20  -1  24  -1  48  -1  50  -1
M  END
>  <filename_input>  (26) 
7MFP_Z7P_docked.sdf

>  <pdb_id>  (26) 
7MFP_Z7P

>  <pose_rank>  (26) 
25

>  <num_atoms_heavy>  (26) 
50

>  <num_torsions>  (26) 
13

>  <pose>  (26) 
[-77.455, -17.348, 16.929, 1e-06, 1e-06, 1e-06, 0.0, 0.0, 0.0, 0.0, 0.0, 0.0, 0.0, 0.0, 0.0, 0.0, 0.0, 0.0, 0.0]

>  <energy>  (26) 
-999.6798173177318

>  <inter_energy>  (26) 
-1069.3106364431524

>  <intra_energy>  (26) 
68.71012546832785

>  <rmsd>  (26) 
0.0

>  <sdf_rank>  (26) 
0

$$$$
