
     RDKit          3D

 39 41  0  0  0  0  0  0  0  0999 V2000
   38.1619   35.7995   21.1098 C   0  0  2  0  0  0  0  0  0  0  0  0
   34.1244   35.3394   19.6206 C   0  0  0  0  0  0  0  0  0  0  0  0
   39.5173   35.6780   21.7079 C   0  0  1  0  0  0  0  0  0  0  0  0
   40.3650   34.9704   20.7306 C   0  0  1  0  0  0  0  0  0  0  0  0
   36.0764   34.7343   20.6076 C   0  0  0  0  0  0  0  0  0  0  0  0
   39.8747   35.4824   19.4034 C   0  0  1  0  0  0  0  0  0  0  0  0
   35.5525   33.4055   20.7678 C   0  0  0  0  0  0  0  0  0  0  0  0
   39.8832   34.4588   18.3186 C   0  0  0  0  0  0  0  0  0  0  0  0
   34.2578   33.1693   20.3070 C   0  0  0  0  0  0  0  0  0  0  0  0
   37.6444   33.4935   21.5901 C   0  0  0  0  0  0  0  0  0  0  0  0
   33.5801   34.1514   19.7376 N   0  0  0  0  0  0  0  0  0  0  0  0
   35.3079   35.6365   20.0443 N   0  0  0  0  0  0  0  0  0  0  0  0
   33.6899   31.8502   20.4265 N   0  0  0  0  0  0  0  0  0  0  0  0
   36.6071   32.6525   21.4252 N   0  0  0  0  0  0  0  0  0  0  0  0
   37.2984   34.6800   21.1305 N   0  0  0  0  0  0  0  0  0  0  0  0
   39.2364   35.1632   14.6387 O   0  0  0  0  0  0  0  0  0  0  0  0
   41.6788   33.9330   13.1503 O   0  0  0  0  0  0  0  0  0  0  0  0
   40.0781   37.0029   21.8728 O   0  0  0  0  0  0  0  0  0  0  0  0
   39.3868   32.9711   15.6987 O   0  0  0  0  0  0  0  0  0  0  0  0
   42.4261   32.2037   14.5805 O   0  0  0  0  0  0  0  0  0  0  0  0
   41.7506   35.2777   20.9079 O   0  0  0  0  0  0  0  0  0  0  0  0
   41.4652   34.2969   15.6010 O   0  0  0  0  0  0  0  0  0  0  0  0
   43.7463   34.1650   14.3989 O   0  0  0  0  0  0  0  0  0  0  0  0
   38.4929   35.9970   19.6577 O   0  0  0  0  0  0  0  0  0  0  0  0
   39.5028   35.1042   17.1236 O   0  0  0  0  0  0  0  0  0  0  0  0
   39.8506   34.3657   15.7131 P   0  0  1  0  0  0  0  0  0  0  0  0
   42.3676   33.6605   14.4102 P   0  0  2  0  0  0  0  0  0  0  0  0
   33.2281   36.6653   18.8772 Cl  0  0  0  0  0  0  0  0  0  0  0  0
   37.6210   36.5693   21.6799 H   0  0  0  0  0  0  0  0  0  0  0  0
   39.4662   35.1535   22.6734 H   0  0  0  0  0  0  0  0  0  0  0  0
   40.2931   33.8774   20.8313 H   0  0  0  0  0  0  0  0  0  0  0  0
   40.5528   36.2644   19.0313 H   0  0  0  0  0  0  0  0  0  0  0  0
   40.8921   34.0338   18.2112 H   0  0  0  0  0  0  0  0  0  0  0  0
   39.1887   33.6389   18.5541 H   0  0  0  0  0  0  0  0  0  0  0  0
   38.6172   33.2348   22.0336 H   0  0  0  0  0  0  0  0  0  0  0  0
   32.7341   31.6684   20.0883 H   0  0  0  0  0  0  0  0  0  0  0  0
   34.2397   31.0892   20.8501 H   0  0  0  0  0  0  0  0  0  0  0  0
   40.1645   37.2070   22.8377 H   0  0  0  0  0  0  0  0  0  0  0  0
   41.9573   35.3235   21.8750 H   0  0  0  0  0  0  0  0  0  0  0  0
  1  3  1  0
  1 15  1  0
  1 24  1  0
  2 11  2  0
  2 12  1  0
  2 28  1  0
  3  4  1  0
  3 18  1  0
  4  6  1  0
  4 21  1  0
  5  7  1  0
  5 12  2  0
  5 15  1  0
  6  8  1  0
  6 24  1  0
  7  9  2  0
  7 14  1  0
  8 25  1  0
  9 11  1  0
  9 13  1  0
 10 14  2  0
 10 15  1  0
 16 26  2  0
 27 17  1  6
 26 19  1  1
 20 27  1  0
 22 26  1  0
 22 27  1  0
 23 27  2  0
 25 26  1  0
  1 29  1  1
  3 30  1  1
  4 31  1  6
  6 32  1  6
  8 33  1  0
  8 34  1  0
 10 35  1  0
 13 36  1  0
 13 37  1  0
 18 38  1  0
 21 39  1  0
M  CHG  3  17  -1  19  -1  20  -1
M  END
>  <filename_input>  (1) 
7MGT_ZD4_docked.sdf

>  <pdb_id>  (1) 
7MGT_ZD4

>  <pose_rank>  (1) 
0

>  <num_atoms_heavy>  (1) 
28

>  <num_torsions>  (1) 
6

>  <pose>  (1) 
[38.161928266530474, 35.799539489685, 21.10983143570167, 1.3347899286561462, 0.7224022295972308, -6.053117997106057, 6.290209014813087, 6.2099290597822625, -0.11449125165538185, -0.0707083121601007, -1.7314828618431863, 3.313096428703761]

>  <energy>  (1) 
-959.1397782841495

>  <inter_energy>  (1) 
-960.7689550981238

>  <intra_energy>  (1) 
15.456194165441957

>  <rmsd>  (1) 
0.867287

>  <sdf_rank>  (1) 
0

$$$$

     RDKit          3D

 39 41  0  0  0  0  0  0  0  0999 V2000
   39.5152   36.2952   20.7233 C   0  0  2  0  0  0  0  0  0  0  0  0
   35.2143   36.7352   20.5245 C   0  0  0  0  0  0  0  0  0  0  0  0
   40.8986   35.9514   21.1445 C   0  0  1  0  0  0  0  0  0  0  0  0
   41.4762   35.0948   20.0924 C   0  0  1  0  0  0  0  0  0  0  0  0
   37.2030   35.6741   20.7887 C   0  0  0  0  0  0  0  0  0  0  0  0
   40.9055   35.6642   18.8220 C   0  0  1  0  0  0  0  0  0  0  0  0
   36.4898   34.4391   20.9675 C   0  0  0  0  0  0  0  0  0  0  0  0
   40.5961   34.6388   17.7839 C   0  0  0  0  0  0  0  0  0  0  0  0
   35.0976   34.4912   20.9106 C   0  0  0  0  0  0  0  0  0  0  0  0
   38.7024   34.0566   21.1031 C   0  0  0  0  0  0  0  0  0  0  0  0
   34.4981   35.6474   20.6833 N   0  0  0  0  0  0  0  0  0  0  0  0
   36.5041   36.7663   20.5872 N   0  0  0  0  0  0  0  0  0  0  0  0
   34.3335   33.2791   21.0658 N   0  0  0  0  0  0  0  0  0  0  0  0
   37.5138   33.4311   21.1842 N   0  0  0  0  0  0  0  0  0  0  0  0
   38.4863   35.3410   20.8973 N   0  0  0  0  0  0  0  0  0  0  0  0
   40.5289   35.0067   14.9962 O   0  0  0  0  0  0  0  0  0  0  0  0
   45.5256   34.6137   14.3636 O   0  0  0  0  0  0  0  0  0  0  0  0
   41.6914   37.1625   21.1861 O   0  0  0  0  0  0  0  0  0  0  0  0
   41.5528   32.7936   15.0686 O   0  0  0  0  0  0  0  0  0  0  0  0
   44.7020   33.3262   16.1688 O   0  0  0  0  0  0  0  0  0  0  0  0
   42.9049   35.1620   20.0770 O   0  0  0  0  0  0  0  0  0  0  0  0
   43.0839   34.7127   14.8250 O   0  0  0  0  0  0  0  0  0  0  0  0
   44.8539   35.6772   16.4384 O   0  0  0  0  0  0  0  0  0  0  0  0
   39.6769   36.4120   19.2341 O   0  0  0  0  0  0  0  0  0  0  0  0
   41.7849   34.3887   17.0673 O   0  0  0  0  0  0  0  0  0  0  0  0
   41.6782   34.2070   15.4514 P   0  0  1  0  0  0  0  0  0  0  0  0
   44.5708   34.6105   15.4701 P   0  0  2  0  0  0  0  0  0  0  0  0
   34.4296   38.2892   20.2358 Cl  0  0  0  0  0  0  0  0  0  0  0  0
   39.1930   37.1545   21.3297 H   0  0  0  0  0  0  0  0  0  0  0  0
   40.8900   35.4573   22.1273 H   0  0  0  0  0  0  0  0  0  0  0  0
   41.2357   34.0319   20.2420 H   0  0  0  0  0  0  0  0  0  0  0  0
   41.6495   36.3127   18.3364 H   0  0  0  0  0  0  0  0  0  0  0  0
   40.2448   33.7132   18.2633 H   0  0  0  0  0  0  0  0  0  0  0  0
   39.8051   34.9975   17.1089 H   0  0  0  0  0  0  0  0  0  0  0  0
   39.6883   33.5772   21.1934 H   0  0  0  0  0  0  0  0  0  0  0  0
   33.3048   33.3100   21.0249 H   0  0  0  0  0  0  0  0  0  0  0  0
   34.8162   32.3820   21.2176 H   0  0  0  0  0  0  0  0  0  0  0  0
   41.8573   37.4161   22.1286 H   0  0  0  0  0  0  0  0  0  0  0  0
   43.2446   35.1780   21.0068 H   0  0  0  0  0  0  0  0  0  0  0  0
  1  3  1  0
  1 15  1  0
  1 24  1  0
  2 11  2  0
  2 12  1  0
  2 28  1  0
  3  4  1  0
  3 18  1  0
  4  6  1  0
  4 21  1  0
  5  7  1  0
  5 12  2  0
  5 15  1  0
  6  8  1  0
  6 24  1  0
  7  9  2  0
  7 14  1  0
  8 25  1  0
  9 11  1  0
  9 13  1  0
 10 14  2  0
 10 15  1  0
 16 26  2  0
 27 17  1  6
 26 19  1  1
 20 27  1  0
 22 26  1  0
 22 27  1  0
 23 27  2  0
 25 26  1  0
  1 29  1  1
  3 30  1  1
  4 31  1  1
  6 32  1  6
  8 33  1  0
  8 34  1  0
 10 35  1  0
 13 36  1  0
 13 37  1  0
 18 38  1  0
 21 39  1  0
M  CHG  3  17  -1  19  -1  20  -1
M  END
>  <filename_input>  (2) 
7MGT_ZD4_docked.sdf

>  <pdb_id>  (2) 
7MGT_ZD4

>  <pose_rank>  (2) 
1

>  <num_atoms_heavy>  (2) 
28

>  <num_torsions>  (2) 
6

>  <pose>  (2) 
[39.51520275302353, 36.29519011857967, 20.723255360757364, -0.03265765043506667, 0.12929220293190088, -0.12933079418662993, 12.338182019436687, 7.793798796626834, 0.9106599412073015, -2.6039436485721454, 1.9934680106163485, -0.9068949460504797]

>  <energy>  (2) 
-615.3558083893847

>  <inter_energy>  (2) 
-638.5392760278318

>  <intra_energy>  (2) 
16.461597677515524

>  <rmsd>  (2) 
1.65307

>  <sdf_rank>  (2) 
0

$$$$

     RDKit          3D

 39 41  0  0  0  0  0  0  0  0999 V2000
   39.5860   37.2414   21.0820 C   0  0  2  0  0  0  0  0  0  0  0  0
   37.4038   33.6665   22.1723 C   0  0  0  0  0  0  0  0  0  0  0  0
   40.4024   36.4355   22.0272 C   0  0  1  0  0  0  0  0  0  0  0  0
   40.7941   35.2001   21.3237 C   0  0  1  0  0  0  0  0  0  0  0  0
   37.7373   35.7340   21.2979 C   0  0  0  0  0  0  0  0  0  0  0  0
   41.0219   35.6579   19.9086 C   0  0  1  0  0  0  0  0  0  0  0  0
   36.3408   35.7882   20.9626 C   0  0  0  0  0  0  0  0  0  0  0  0
   40.6080   34.6641   18.8763 C   0  0  0  0  0  0  0  0  0  0  0  0
   35.5622   34.6777   21.2867 C   0  0  0  0  0  0  0  0  0  0  0  0
   37.3406   37.7022   20.3324 C   0  0  0  0  0  0  0  0  0  0  0  0
   36.1222   33.6444   21.8920 N   0  0  0  0  0  0  0  0  0  0  0  0
   38.1898   34.6493   21.8815 N   0  0  0  0  0  0  0  0  0  0  0  0
   34.1522   34.6862   20.9889 N   0  0  0  0  0  0  0  0  0  0  0  0
   36.1478   37.0794   20.3247 N   0  0  0  0  0  0  0  0  0  0  0  0
   38.2303   36.8958   20.8771 N   0  0  0  0  0  0  0  0  0  0  0  0
   39.8509   35.5210   15.4887 O   0  0  0  0  0  0  0  0  0  0  0  0
   44.0869   33.2475   15.0108 O   0  0  0  0  0  0  0  0  0  0  0  0
   41.6222   37.1563   22.3265 O   0  0  0  0  0  0  0  0  0  0  0  0
   39.5098   33.3752   16.5981 O   0  0  0  0  0  0  0  0  0  0  0  0
   43.5945   35.2466   16.1751 O   0  0  0  0  0  0  0  0  0  0  0  0
   41.9896   34.6344   21.8684 O   0  0  0  0  0  0  0  0  0  0  0  0
   41.6989   33.7243   15.5152 O   0  0  0  0  0  0  0  0  0  0  0  0
   43.0895   35.1370   13.8609 O   0  0  0  0  0  0  0  0  0  0  0  0
   40.2575   36.9369   19.7728 O   0  0  0  0  0  0  0  0  0  0  0  0
   41.0792   35.1262   17.6298 O   0  0  0  0  0  0  0  0  0  0  0  0
   40.4671   34.4446   16.2820 P   0  0  1  0  0  0  0  0  0  0  0  0
   43.1375   34.3549   15.1024 P   0  0  2  0  0  0  0  0  0  0  0  0
   38.1703   32.2892   22.9659 Cl  0  0  0  0  0  0  0  0  0  0  0  0
   39.5473   38.2675   21.4764 H   0  0  0  0  0  0  0  0  0  0  0  0
   39.8353   36.2302   22.9471 H   0  0  0  0  0  0  0  0  0  0  0  0
   40.0321   34.4117   21.4109 H   0  0  0  0  0  0  0  0  0  0  0  0
   42.0989   35.7905   19.7280 H   0  0  0  0  0  0  0  0  0  0  0  0
   41.0476   33.6817   19.1033 H   0  0  0  0  0  0  0  0  0  0  0  0
   39.5135   34.5551   18.8605 H   0  0  0  0  0  0  0  0  0  0  0  0
   37.5399   38.7137   19.9489 H   0  0  0  0  0  0  0  0  0  0  0  0
   33.5710   33.8695   21.2255 H   0  0  0  0  0  0  0  0  0  0  0  0
   33.7257   35.5090   20.5395 H   0  0  0  0  0  0  0  0  0  0  0  0
   41.7341   37.2225   23.3079 H   0  0  0  0  0  0  0  0  0  0  0  0
   41.9441   34.6560   22.8571 H   0  0  0  0  0  0  0  0  0  0  0  0
  1  3  1  0
  1 15  1  0
  1 24  1  0
  2 11  2  0
  2 12  1  0
  2 28  1  0
  3  4  1  0
  3 18  1  0
  4  6  1  0
  4 21  1  0
  5  7  1  0
  5 12  2  0
  5 15  1  0
  6  8  1  0
  6 24  1  0
  7  9  2  0
  7 14  1  0
  8 25  1  0
  9 11  1  0
  9 13  1  0
 10 14  2  0
 10 15  1  0
 16 26  2  0
 27 17  1  6
 26 19  1  1
 20 27  1  0
 22 26  1  0
 22 27  1  0
 23 27  2  0
 25 26  1  0
  1 29  1  1
  3 30  1  1
  4 31  1  6
  6 32  1  1
  8 33  1  0
  8 34  1  0
 10 35  1  0
 13 36  1  0
 13 37  1  0
 18 38  1  0
 21 39  1  0
M  CHG  3  17  -1  19  -1  20  -1
M  END
>  <filename_input>  (3) 
7MGT_ZD4_docked.sdf

>  <pdb_id>  (3) 
7MGT_ZD4

>  <pose_rank>  (3) 
2

>  <num_atoms_heavy>  (3) 
28

>  <num_torsions>  (3) 
6

>  <pose>  (3) 
[39.58601964113285, 37.2413689135595, 21.081954909391264, -0.11782697659192197, -0.26057479213838797, -0.6345747965348205, -15.932002469380482, -6.267674952105409, -56.08787203267535, -26.131519094944533, -5.766326559766113, 5.376992004826793]

>  <energy>  (3) 
-537.2875010879682

>  <inter_energy>  (3) 
-609.3925102788279

>  <intra_energy>  (3) 
74.41448582358402

>  <rmsd>  (3) 
2.55337

>  <sdf_rank>  (3) 
0

$$$$

     RDKit          3D

 39 41  0  0  0  0  0  0  0  0999 V2000
   38.1312   35.4280   20.8160 C   0  0  2  0  0  0  0  0  0  0  0  0
   33.9661   34.8763   21.8543 C   0  0  0  0  0  0  0  0  0  0  0  0
   39.4759   35.2130   21.4118 C   0  0  1  0  0  0  0  0  0  0  0  0
   40.3486   34.6892   20.3448 C   0  0  1  0  0  0  0  0  0  0  0  0
   36.0054   34.3424   21.0138 C   0  0  0  0  0  0  0  0  0  0  0  0
   39.8792   35.4193   19.1158 C   0  0  1  0  0  0  0  0  0  0  0  0
   35.4719   33.0748   20.5963 C   0  0  0  0  0  0  0  0  0  0  0  0
   39.9178   34.5979   17.8714 C   0  0  0  0  0  0  0  0  0  0  0  0
   34.1322   32.8188   20.8860 C   0  0  0  0  0  0  0  0  0  0  0  0
   37.6359   33.2140   19.9981 C   0  0  0  0  0  0  0  0  0  0  0  0
   33.4131   33.7383   21.5068 N   0  0  0  0  0  0  0  0  0  0  0  0
   35.2048   35.1726   21.6396 N   0  0  0  0  0  0  0  0  0  0  0  0
   33.5414   31.5705   20.4743 N   0  0  0  0  0  0  0  0  0  0  0  0
   36.5792   32.3818   19.9600 N   0  0  0  0  0  0  0  0  0  0  0  0
   37.2778   34.3167   20.6260 N   0  0  0  0  0  0  0  0  0  0  0  0
   40.3518   34.6567   15.1532 O   0  0  0  0  0  0  0  0  0  0  0  0
   45.1307   36.1981   15.3496 O   0  0  0  0  0  0  0  0  0  0  0  0
   40.0214   36.4929   21.8137 O   0  0  0  0  0  0  0  0  0  0  0  0
   42.0531   32.9589   15.5713 O   0  0  0  0  0  0  0  0  0  0  0  0
   44.8753   33.9836   16.1402 O   0  0  0  0  0  0  0  0  0  0  0  0
   41.7277   34.9692   20.6007 O   0  0  0  0  0  0  0  0  0  0  0  0
   42.8174   35.3044   15.5346 O   0  0  0  0  0  0  0  0  0  0  0  0
   44.3068   35.7706   17.5914 O   0  0  0  0  0  0  0  0  0  0  0  0
   38.4882   35.8745   19.4266 O   0  0  0  0  0  0  0  0  0  0  0  0
   41.2671   34.4939   17.4738 O   0  0  0  0  0  0  0  0  0  0  0  0
   41.5830   34.3156   15.8850 P   0  0  1  0  0  0  0  0  0  0  0  0
   44.3032   35.3345   16.1895 P   0  0  2  0  0  0  0  0  0  0  0  0
   33.0248   36.1082   22.6973 Cl  0  0  0  0  0  0  0  0  0  0  0  0
   37.5725   36.0849   21.4988 H   0  0  0  0  0  0  0  0  0  0  0  0
   39.4112   34.5297   22.2714 H   0  0  0  0  0  0  0  0  0  0  0  0
   40.2849   33.5948   20.2544 H   0  0  0  0  0  0  0  0  0  0  0  0
   40.5572   36.2576   18.8978 H   0  0  0  0  0  0  0  0  0  0  0  0
   39.5064   33.5971   18.0691 H   0  0  0  0  0  0  0  0  0  0  0  0
   39.3155   35.0664   17.0792 H   0  0  0  0  0  0  0  0  0  0  0  0
   38.6309   33.0089   19.5764 H   0  0  0  0  0  0  0  0  0  0  0  0
   32.5524   31.3745   20.6849 H   0  0  0  0  0  0  0  0  0  0  0  0
   34.1082   30.8742   19.9695 H   0  0  0  0  0  0  0  0  0  0  0  0
   40.0441   36.5462   22.8020 H   0  0  0  0  0  0  0  0  0  0  0  0
   41.8823   35.0006   21.5781 H   0  0  0  0  0  0  0  0  0  0  0  0
  1  3  1  0
  1 15  1  0
  1 24  1  0
  2 11  2  0
  2 12  1  0
  2 28  1  0
  3  4  1  0
  3 18  1  0
  4  6  1  0
  4 21  1  0
  5  7  1  0
  5 12  2  0
  5 15  1  0
  6  8  1  0
  6 24  1  0
  7  9  2  0
  7 14  1  0
  8 25  1  0
  9 11  1  0
  9 13  1  0
 10 14  2  0
 10 15  1  0
 16 26  2  0
 27 17  1  6
 26 19  1  1
 20 27  1  0
 22 26  1  0
 22 27  1  0
 23 27  2  0
 25 26  1  0
  1 29  1  1
  3 30  1  1
  4 31  1  6
  6 32  1  6
  8 33  1  0
  8 34  1  0
 10 35  1  0
 13 36  1  0
 13 37  1  0
 18 38  1  0
 21 39  1  0
M  CHG  3  17  -1  19  -1  20  -1
M  END
>  <filename_input>  (4) 
7MGT_ZD4_docked.sdf

>  <pdb_id>  (4) 
7MGT_ZD4

>  <pose_rank>  (4) 
3

>  <num_atoms_heavy>  (4) 
28

>  <num_torsions>  (4) 
6

>  <pose>  (4) 
[38.131219795555374, 35.428001656228744, 20.815990867526452, 0.16351696078766653, -0.028441649462883994, 0.048232621864688845, 11.731256034887933, 7.964319134534688, 0.7056972267084163, -2.857257036023729, 2.425672514428164, -0.672990372050292]

>  <energy>  (4) 
-718.4564757377482

>  <inter_energy>  (4) 
-745.9134108860142

>  <intra_energy>  (4) 
32.522789188126616

>  <rmsd>  (4) 
1.60695

>  <sdf_rank>  (4) 
0

$$$$

     RDKit          3D

 39 41  0  0  0  0  0  0  0  0999 V2000
   39.1477   33.6111   18.2828 C   0  0  2  0  0  0  0  0  0  0  0  0
   35.3211   34.0718   20.2514 C   0  0  0  0  0  0  0  0  0  0  0  0
   38.8213   33.9052   16.8627 C   0  0  1  0  0  0  0  0  0  0  0  0
   39.7903   34.9113   16.3903 C   0  0  1  0  0  0  0  0  0  0  0  0
   37.4986   34.4990   19.7757 C   0  0  0  0  0  0  0  0  0  0  0  0
   41.0665   34.5258   17.0879 C   0  0  1  0  0  0  0  0  0  0  0  0
   37.4950   35.5118   20.7954 C   0  0  0  0  0  0  0  0  0  0  0  0
   41.9085   35.6873   17.4960 C   0  0  0  0  0  0  0  0  0  0  0  0
   36.3010   35.7200   21.4849 C   0  0  0  0  0  0  0  0  0  0  0  0
   39.5375   35.3929   19.8606 C   0  0  0  0  0  0  0  0  0  0  0  0
   35.2432   34.9829   21.1924 N   0  0  0  0  0  0  0  0  0  0  0  0
   36.3852   33.8400   19.5569 N   0  0  0  0  0  0  0  0  0  0  0  0
   36.2465   36.7112   22.5296 N   0  0  0  0  0  0  0  0  0  0  0  0
   38.8379   36.0668   20.7916 N   0  0  0  0  0  0  0  0  0  0  0  0
   38.7351   34.5190   19.2852 N   0  0  0  0  0  0  0  0  0  0  0  0
   44.3543   34.4297   17.3566 O   0  0  0  0  0  0  0  0  0  0  0  0
   44.3778   32.5558   13.1098 O   0  0  0  0  0  0  0  0  0  0  0  0
   39.0354   32.7093   16.0745 O   0  0  0  0  0  0  0  0  0  0  0  0
   45.1937   36.0611   15.7488 O   0  0  0  0  0  0  0  0  0  0  0  0
   46.1628   33.6553   14.2050 O   0  0  0  0  0  0  0  0  0  0  0  0
   39.9579   34.8623   14.9707 O   0  0  0  0  0  0  0  0  0  0  0  0
   43.7976   34.2378   14.8472 O   0  0  0  0  0  0  0  0  0  0  0  0
   44.9056   34.8691   12.6023 O   0  0  0  0  0  0  0  0  0  0  0  0
   40.6467   33.7130   18.2719 O   0  0  0  0  0  0  0  0  0  0  0  0
   42.7071   36.0419   16.3888 O   0  0  0  0  0  0  0  0  0  0  0  0
   44.0720   35.1906   16.1282 P   0  0  1  0  0  0  0  0  0  0  0  0
   44.8179   33.8417   13.6474 P   0  0  2  0  0  0  0  0  0  0  0  0
   33.9144   33.0899   19.8377 Cl  0  0  0  0  0  0  0  0  0  0  0  0
   38.6433   32.6696   18.5458 H   0  0  0  0  0  0  0  0  0  0  0  0
   37.7813   34.2515   16.7707 H   0  0  0  0  0  0  0  0  0  0  0  0
   39.4647   35.9386   16.6105 H   0  0  0  0  0  0  0  0  0  0  0  0
   41.7130   33.9624   16.3990 H   0  0  0  0  0  0  0  0  0  0  0  0
   41.2672   36.5336   17.7829 H   0  0  0  0  0  0  0  0  0  0  0  0
   42.5377   35.4252   18.3594 H   0  0  0  0  0  0  0  0  0  0  0  0
   40.6000   35.5454   19.6199 H   0  0  0  0  0  0  0  0  0  0  0  0
   35.3679   36.8704   23.0432 H   0  0  0  0  0  0  0  0  0  0  0  0
   37.0861   37.2604   22.7628 H   0  0  0  0  0  0  0  0  0  0  0  0
   39.1738   31.9368   16.6779 H   0  0  0  0  0  0  0  0  0  0  0  0
   40.8859   34.5913   14.7571 H   0  0  0  0  0  0  0  0  0  0  0  0
  1  3  1  0
  1 15  1  0
  1 24  1  0
  2 11  2  0
  2 12  1  0
  2 28  1  0
  3  4  1  0
  3 18  1  0
  4  6  1  0
  4 21  1  0
  5  7  1  0
  5 12  2  0
  5 15  1  0
  6  8  1  0
  6 24  1  0
  7  9  2  0
  7 14  1  0
  8 25  1  0
  9 11  1  0
  9 13  1  0
 10 14  2  0
 10 15  1  0
 16 26  2  0
 27 17  1  6
 26 19  1  6
 20 27  1  0
 22 26  1  0
 22 27  1  0
 23 27  2  0
 25 26  1  0
  1 29  1  1
  3 30  1  1
  4 31  1  1
  6 32  1  6
  8 33  1  0
  8 34  1  0
 10 35  1  0
 13 36  1  0
 13 37  1  0
 18 38  1  0
 21 39  1  0
M  CHG  3  17  -1  19  -1  20  -1
M  END
>  <filename_input>  (5) 
7MGT_ZD4_docked.sdf

>  <pdb_id>  (5) 
7MGT_ZD4

>  <pose_rank>  (5) 
4

>  <num_atoms_heavy>  (5) 
28

>  <num_torsions>  (5) 
6

>  <pose>  (5) 
[39.1477134584939, 33.611117933288, 18.28276404436036, 2.4129604116627426, 0.3558555993359201, -1.9304293508410364, -7.987631990119475, 1.499434237448214, 1.9135504592392734, 2.9107943158279794, -2.3888172485938353, -0.9098317079762853]

>  <energy>  (5) 
-659.9326178980597

>  <inter_energy>  (5) 
-686.1917628642954

>  <intra_energy>  (5) 
23.819599122423398

>  <rmsd>  (5) 
3.96952

>  <sdf_rank>  (5) 
0

$$$$

     RDKit          3D

 39 41  0  0  0  0  0  0  0  0999 V2000
   38.6619   34.8683   19.7575 C   0  0  2  0  0  0  0  0  0  0  0  0
   34.5440   36.1972   19.8452 C   0  0  0  0  0  0  0  0  0  0  0  0
   38.9359   36.1757   20.4095 C   0  0  1  0  0  0  0  0  0  0  0  0
   39.4507   35.8911   21.7617 C   0  0  1  0  0  0  0  0  0  0  0  0
   36.2872   34.7586   20.0500 C   0  0  0  0  0  0  0  0  0  0  0  0
   40.2799   34.6504   21.5688 C   0  0  1  0  0  0  0  0  0  0  0  0
   35.3545   33.7186   20.3880 C   0  0  0  0  0  0  0  0  0  0  0  0
   40.2218   33.6986   22.7155 C   0  0  0  0  0  0  0  0  0  0  0  0
   34.0036   34.0612   20.4316 C   0  0  0  0  0  0  0  0  0  0  0  0
   37.4439   32.8850   20.3895 C   0  0  0  0  0  0  0  0  0  0  0  0
   33.6368   35.3000   20.1508 N   0  0  0  0  0  0  0  0  0  0  0  0
   35.8127   35.9579   19.8079 N   0  0  0  0  0  0  0  0  0  0  0  0
   33.0239   33.0528   20.7479 N   0  0  0  0  0  0  0  0  0  0  0  0
   36.1645   32.5334   20.6134 N   0  0  0  0  0  0  0  0  0  0  0  0
   37.4789   34.1687   20.0902 N   0  0  0  0  0  0  0  0  0  0  0  0
   43.1069   35.6384   23.6255 O   0  0  0  0  0  0  0  0  0  0  0  0
   41.2146   32.1892   25.2032 O   0  0  0  0  0  0  0  0  0  0  0  0
   39.9955   36.8478   19.6866 O   0  0  0  0  0  0  0  0  0  0  0  0
   42.9928   33.7360   22.1026 O   0  0  0  0  0  0  0  0  0  0  0  0
   42.8077   32.6730   26.8831 O   0  0  0  0  0  0  0  0  0  0  0  0
   40.2563   36.9626   22.2602 O   0  0  0  0  0  0  0  0  0  0  0  0
   43.3603   33.2225   24.4876 O   0  0  0  0  0  0  0  0  0  0  0  0
   43.2097   30.8300   25.4464 O   0  0  0  0  0  0  0  0  0  0  0  0
   39.7725   34.0206   20.3100 O   0  0  0  0  0  0  0  0  0  0  0  0
   41.0620   34.2042   23.7293 O   0  0  0  0  0  0  0  0  0  0  0  0
   42.6655   34.2459   23.4416 P   0  0  1  0  0  0  0  0  0  0  0  0
   42.6437   32.1832   25.5092 P   0  0  2  0  0  0  0  0  0  0  0  0
   34.0729   37.8589   19.4831 Cl  0  0  0  0  0  0  0  0  0  0  0  0
   38.5717   35.0544   18.6772 H   0  0  0  0  0  0  0  0  0  0  0  0
   38.0259   36.7934   20.4306 H   0  0  0  0  0  0  0  0  0  0  0  0
   38.6424   35.7667   22.4974 H   0  0  0  0  0  0  0  0  0  0  0  0
   41.3446   34.9193   21.5048 H   0  0  0  0  0  0  0  0  0  0  0  0
   39.1894   33.6211   23.0873 H   0  0  0  0  0  0  0  0  0  0  0  0
   40.5506   32.6962   22.4040 H   0  0  0  0  0  0  0  0  0  0  0  0
   38.3140   32.2145   20.4466 H   0  0  0  0  0  0  0  0  0  0  0  0
   32.0242   33.2986   20.7819 H   0  0  0  0  0  0  0  0  0  0  0  0
   33.3233   32.0862   20.9400 H   0  0  0  0  0  0  0  0  0  0  0  0
   40.6305   37.2505   20.3306 H   0  0  0  0  0  0  0  0  0  0  0  0
   40.2466   36.9498   23.2501 H   0  0  0  0  0  0  0  0  0  0  0  0
  1  3  1  0
  1 15  1  0
  1 24  1  0
  2 11  2  0
  2 12  1  0
  2 28  1  0
  3  4  1  0
  3 18  1  0
  4  6  1  0
  4 21  1  0
  5  7  1  0
  5 12  2  0
  5 15  1  0
  6  8  1  0
  6 24  1  0
  7  9  2  0
  7 14  1  0
  8 25  1  0
  9 11  1  0
  9 13  1  0
 10 14  2  0
 10 15  1  0
 16 26  2  0
 27 17  1  6
 26 19  1  6
 20 27  1  0
 22 26  1  0
 22 27  1  0
 23 27  2  0
 25 26  1  0
  1 29  1  6
  3 30  1  1
  4 31  1  1
  6 32  1  6
  8 33  1  0
  8 34  1  0
 10 35  1  0
 13 36  1  0
 13 37  1  0
 18 38  1  0
 21 39  1  0
M  CHG  3  17  -1  19  -1  20  -1
M  END
>  <filename_input>  (6) 
7MGT_ZD4_docked.sdf

>  <pdb_id>  (6) 
7MGT_ZD4

>  <pose_rank>  (6) 
5

>  <num_atoms_heavy>  (6) 
28

>  <num_torsions>  (6) 
6

>  <pose>  (6) 
[38.661858600240066, 34.86828426648674, 19.757548717082464, -1.5719510713797107, -1.1376814985554733, 0.017641894984649877, 4.042013324422859, -17.221003468714958, 8.459629484433554, -7.237695426300117, 1.5489693542545706, 2.8099905479764447]

>  <energy>  (6) 
-569.6033541867347

>  <inter_energy>  (6) 
-628.7737372668646

>  <intra_energy>  (6) 
57.71523491396752

>  <rmsd>  (6) 
5.59118

>  <sdf_rank>  (6) 
0

$$$$

     RDKit          3D

 39 41  0  0  0  0  0  0  0  0999 V2000
   42.3217   35.9740   16.2774 C   0  0  2  0  0  0  0  0  0  0  0  0
   45.0607   33.7280   13.7906 C   0  0  0  0  0  0  0  0  0  0  0  0
   41.2286   35.0905   15.7938 C   0  0  1  0  0  0  0  0  0  0  0  0
   40.6677   34.4034   16.9719 C   0  0  1  0  0  0  0  0  0  0  0  0
   44.2857   34.7481   15.6639 C   0  0  0  0  0  0  0  0  0  0  0  0
   40.7368   35.4466   18.0540 C   0  0  1  0  0  0  0  0  0  0  0  0
   45.5068   34.3897   16.3319 C   0  0  0  0  0  0  0  0  0  0  0  0
   41.0515   34.8984   19.4049 C   0  0  0  0  0  0  0  0  0  0  0  0
   46.4489   33.6695   15.5983 C   0  0  0  0  0  0  0  0  0  0  0  0
   44.1865   35.5402   17.7438 C   0  0  0  0  0  0  0  0  0  0  0  0
   46.1963   33.3632   14.3373 N   0  0  0  0  0  0  0  0  0  0  0  0
   44.1336   34.3754   14.4149 N   0  0  0  0  0  0  0  0  0  0  0  0
   47.6983   33.2996   16.2140 N   0  0  0  0  0  0  0  0  0  0  0  0
   45.3764   34.9151   17.6804 N   0  0  0  0  0  0  0  0  0  0  0  0
   43.5811   35.4068   16.5801 N   0  0  0  0  0  0  0  0  0  0  0  0
   39.5905   36.7051   22.4155 O   0  0  0  0  0  0  0  0  0  0  0  0
   35.7759   35.2229   20.4315 O   0  0  0  0  0  0  0  0  0  0  0  0
   40.1717   35.9113   15.2403 O   0  0  0  0  0  0  0  0  0  0  0  0
   39.9771   34.3051   22.2107 O   0  0  0  0  0  0  0  0  0  0  0  0
   36.5880   35.6708   22.6074 O   0  0  0  0  0  0  0  0  0  0  0  0
   39.3150   33.9930   16.7539 O   0  0  0  0  0  0  0  0  0  0  0  0
   38.2419   35.2742   20.7490 O   0  0  0  0  0  0  0  0  0  0  0  0
   36.7345   33.4517   21.7847 O   0  0  0  0  0  0  0  0  0  0  0  0
   41.7783   36.4223   17.6045 O   0  0  0  0  0  0  0  0  0  0  0  0
   40.7460   35.8994   20.3505 O   0  0  0  0  0  0  0  0  0  0  0  0
   39.6484   35.5508   21.5034 P   0  0  1  0  0  0  0  0  0  0  0  0
   36.8109   34.8664   21.3999 P   0  0  2  0  0  0  0  0  0  0  0  0
   44.7010   33.3138   12.1133 Cl  0  0  0  0  0  0  0  0  0  0  0  0
   42.5358   36.6971   15.4766 H   0  0  0  0  0  0  0  0  0  0  0  0
   41.6089   34.3847   15.0406 H   0  0  0  0  0  0  0  0  0  0  0  0
   41.2164   33.4821   17.2171 H   0  0  0  0  0  0  0  0  0  0  0  0
   39.7502   35.9151   18.1844 H   0  0  0  0  0  0  0  0  0  0  0  0
   40.4436   34.0020   19.5972 H   0  0  0  0  0  0  0  0  0  0  0  0
   42.1122   34.6144   19.4703 H   0  0  0  0  0  0  0  0  0  0  0  0
   43.7863   36.0727   18.6192 H   0  0  0  0  0  0  0  0  0  0  0  0
   48.3988   32.7676   15.6781 H   0  0  0  0  0  0  0  0  0  0  0  0
   47.8906   33.5671   17.1898 H   0  0  0  0  0  0  0  0  0  0  0  0
   39.6491   36.3171   15.9767 H   0  0  0  0  0  0  0  0  0  0  0  0
   38.8668   33.8570   17.6261 H   0  0  0  0  0  0  0  0  0  0  0  0
  1  3  1  0
  1 15  1  0
  1 24  1  0
  2 11  2  0
  2 12  1  0
  2 28  1  0
  3  4  1  0
  3 18  1  0
  4  6  1  0
  4 21  1  0
  5  7  1  0
  5 12  2  0
  5 15  1  0
  6  8  1  0
  6 24  1  0
  7  9  2  0
  7 14  1  0
  8 25  1  0
  9 11  1  0
  9 13  1  0
 10 14  2  0
 10 15  1  0
 16 26  2  0
 27 17  1  6
 26 19  1  1
 20 27  1  0
 22 26  1  0
 22 27  1  0
 23 27  2  0
 25 26  1  0
  1 29  1  6
  3 30  1  6
  4 31  1  1
  6 32  1  1
  8 33  1  0
  8 34  1  0
 10 35  1  0
 13 36  1  0
 13 37  1  0
 18 38  1  0
 21 39  1  0
M  CHG  3  17  -1  19  -1  20  -1
M  END
>  <filename_input>  (7) 
7MGT_ZD4_docked.sdf

>  <pdb_id>  (7) 
7MGT_ZD4

>  <pose_rank>  (7) 
6

>  <num_atoms_heavy>  (7) 
28

>  <num_torsions>  (7) 
6

>  <pose>  (7) 
[42.32171361999161, 35.97399039123977, 16.277418630025213, -0.6473959161335331, 2.9860162621836492, -0.4739587366836375, -2.1056487311830474, 0.10844632004609926, -0.824625637015122, -0.04982032588011822, 4.54406582645295, -0.8343862733839952]

>  <energy>  (7) 
-534.7389347504185

>  <inter_energy>  (7) 
-543.5162813492908

>  <intra_energy>  (7) 
10.903335970541814

>  <rmsd>  (7) 
8.81002

>  <sdf_rank>  (7) 
0

$$$$

     RDKit          3D

 39 41  0  0  0  0  0  0  0  0999 V2000
   42.2281   35.6199   20.0874 C   0  0  2  0  0  0  0  0  0  0  0  0
   44.9043   35.2302   16.7086 C   0  0  0  0  0  0  0  0  0  0  0  0
   42.6639   36.9410   20.6112 C   0  0  1  0  0  0  0  0  0  0  0  0
   41.4577   37.7788   20.7434 C   0  0  1  0  0  0  0  0  0  0  0  0
   42.9247   35.3699   17.8095 C   0  0  0  0  0  0  0  0  0  0  0  0
   40.3981   36.8041   21.1806 C   0  0  1  0  0  0  0  0  0  0  0  0
   42.2453   35.1943   16.5553 C   0  0  0  0  0  0  0  0  0  0  0  0
   39.0463   37.0854   20.6166 C   0  0  0  0  0  0  0  0  0  0  0  0
   43.0352   35.0535   15.4149 C   0  0  0  0  0  0  0  0  0  0  0  0
   40.7331   35.3893   18.2092 C   0  0  0  0  0  0  0  0  0  0  0  0
   44.3522   35.0705   15.5291 N   0  0  0  0  0  0  0  0  0  0  0  0
   44.2368   35.3895   17.8028 N   0  0  0  0  0  0  0  0  0  0  0  0
   42.4058   34.8569   14.1335 N   0  0  0  0  0  0  0  0  0  0  0  0
   40.8286   35.2327   16.8762 N   0  0  0  0  0  0  0  0  0  0  0  0
   41.9500   35.4851   18.7076 N   0  0  0  0  0  0  0  0  0  0  0  0
   36.2355   37.5430   20.4295 O   0  0  0  0  0  0  0  0  0  0  0  0
   34.7572   35.0775   19.1518 O   0  0  0  0  0  0  0  0  0  0  0  0
   43.2032   36.7632   21.9434 O   0  0  0  0  0  0  0  0  0  0  0  0
   36.5093   37.1163   22.8158 O   0  0  0  0  0  0  0  0  0  0  0  0
   34.4144   33.2429   20.6047 O   0  0  0  0  0  0  0  0  0  0  0  0
   41.6298   38.8078   21.7219 O   0  0  0  0  0  0  0  0  0  0  0  0
   35.7256   35.2261   21.4375 O   0  0  0  0  0  0  0  0  0  0  0  0
   36.5700   33.5488   19.6656 O   0  0  0  0  0  0  0  0  0  0  0  0
   40.8952   35.4566   20.7611 O   0  0  0  0  0  0  0  0  0  0  0  0
   38.1627   36.1119   21.1274 O   0  0  0  0  0  0  0  0  0  0  0  0
   36.6334   36.5676   21.4581 P   0  0  1  0  0  0  0  0  0  0  0  0
   35.3899   34.2543   20.1804 P   0  0  2  0  0  0  0  0  0  0  0  0
   46.6605   35.2709   16.8767 Cl  0  0  0  0  0  0  0  0  0  0  0  0
   43.0482   34.9097   20.2690 H   0  0  0  0  0  0  0  0  0  0  0  0
   43.4139   37.3911   19.9440 H   0  0  0  0  0  0  0  0  0  0  0  0
   41.2104   38.3034   19.8087 H   0  0  0  0  0  0  0  0  0  0  0  0
   40.2491   36.8776   22.2680 H   0  0  0  0  0  0  0  0  0  0  0  0
   38.7146   38.0895   20.9195 H   0  0  0  0  0  0  0  0  0  0  0  0
   39.0698   37.0486   19.5175 H   0  0  0  0  0  0  0  0  0  0  0  0
   39.7973   35.4305   18.7859 H   0  0  0  0  0  0  0  0  0  0  0  0
   42.9830   34.7521   13.2868 H   0  0  0  0  0  0  0  0  0  0  0  0
   41.3787   34.8211   14.0642 H   0  0  0  0  0  0  0  0  0  0  0  0
   42.5106   36.9916   22.6129 H   0  0  0  0  0  0  0  0  0  0  0  0
   41.5642   38.4153   22.6285 H   0  0  0  0  0  0  0  0  0  0  0  0
  1  3  1  0
  1 15  1  0
  1 24  1  0
  2 11  2  0
  2 12  1  0
  2 28  1  0
  3  4  1  0
  3 18  1  0
  4  6  1  0
  4 21  1  0
  5  7  1  0
  5 12  2  0
  5 15  1  0
  6  8  1  0
  6 24  1  0
  7  9  2  0
  7 14  1  0
  8 25  1  0
  9 11  1  0
  9 13  1  0
 10 14  2  0
 10 15  1  0
 16 26  2  0
 27 17  1  6
 26 19  1  1
 20 27  1  0
 22 26  1  0
 22 27  1  0
 23 27  2  0
 25 26  1  0
  1 29  1  1
  3 30  1  6
  4 31  1  6
  6 32  1  1
  8 33  1  0
  8 34  1  0
 10 35  1  0
 13 36  1  0
 13 37  1  0
 18 38  1  0
 21 39  1  0
M  CHG  3  17  -1  19  -1  20  -1
M  END
>  <filename_input>  (8) 
7MGT_ZD4_docked.sdf

>  <pdb_id>  (8) 
7MGT_ZD4

>  <pose_rank>  (8) 
7

>  <num_atoms_heavy>  (8) 
28

>  <num_torsions>  (8) 
6

>  <pose>  (8) 
[42.22811613305513, 35.61993975654725, 20.087433528974362, -2.3945294945175446, -1.5528137630864163, -2.1387359637115897, -1.7740303330691494, -0.1356095961036894, -6.701756716905862, 3.802603367738479, 0.27450422779670625, -4.612176190540574]

>  <energy>  (8) 
-558.7715298964705

>  <inter_energy>  (8) 
-579.6740192749533

>  <intra_energy>  (8) 
16.45734232668781

>  <rmsd>  (8) 
7.64942

>  <sdf_rank>  (8) 
0

$$$$

     RDKit          3D

 39 41  0  0  0  0  0  0  0  0999 V2000
   40.2860   34.4894   21.0805 C   0  0  2  0  0  0  0  0  0  0  0  0
   40.0488   33.9120   16.7978 C   0  0  0  0  0  0  0  0  0  0  0  0
   39.8548   35.3496   22.2135 C   0  0  1  0  0  0  0  0  0  0  0  0
   38.6898   36.1277   21.7534 C   0  0  1  0  0  0  0  0  0  0  0  0
   40.8144   34.7575   18.7599 C   0  0  0  0  0  0  0  0  0  0  0  0
   37.9533   35.1652   20.8618 C   0  0  1  0  0  0  0  0  0  0  0  0
   41.7349   35.5746   18.0177 C   0  0  0  0  0  0  0  0  0  0  0  0
   37.3109   35.8061   19.6781 C   0  0  0  0  0  0  0  0  0  0  0  0
   41.7187   35.4550   16.6286 C   0  0  0  0  0  0  0  0  0  0  0  0
   41.9779   35.9757   20.2178 C   0  0  0  0  0  0  0  0  0  0  0  0
   40.8644   34.6238   16.0566 N   0  0  0  0  0  0  0  0  0  0  0  0
   40.0237   33.9536   18.0886 N   0  0  0  0  0  0  0  0  0  0  0  0
   42.6087   36.2640   15.8346 N   0  0  0  0  0  0  0  0  0  0  0  0
   42.4725   36.3286   19.0171 N   0  0  0  0  0  0  0  0  0  0  0  0
   41.0465   35.0607   20.0342 N   0  0  0  0  0  0  0  0  0  0  0  0
   33.9142   36.1548   18.7602 O   0  0  0  0  0  0  0  0  0  0  0  0
   34.7031   32.4174   20.9772 O   0  0  0  0  0  0  0  0  0  0  0  0
   39.3974   34.5045   23.2969 O   0  0  0  0  0  0  0  0  0  0  0  0
   34.9918   37.0447   20.7598 O   0  0  0  0  0  0  0  0  0  0  0  0
   33.2726   33.1093   19.2252 O   0  0  0  0  0  0  0  0  0  0  0  0
   37.8608   36.5388   22.8441 O   0  0  0  0  0  0  0  0  0  0  0  0
   33.9881   34.7991   20.9512 O   0  0  0  0  0  0  0  0  0  0  0  0
   32.3527   32.8512   21.3954 O   0  0  0  0  0  0  0  0  0  0  0  0
   38.9673   34.1459   20.4477 O   0  0  0  0  0  0  0  0  0  0  0  0
   36.0927   35.1357   19.4419 O   0  0  0  0  0  0  0  0  0  0  0  0
   34.7185   35.8463   19.9541 P   0  0  1  0  0  0  0  0  0  0  0  0
   33.5538   33.2619   20.6578 P   0  0  2  0  0  0  0  0  0  0  0  0
   38.9130   32.7863   16.0514 Cl  0  0  0  0  0  0  0  0  0  0  0  0
   40.9394   33.7072   21.4943 H   0  0  0  0  0  0  0  0  0  0  0  0
   40.6828   35.9936   22.5445 H   0  0  0  0  0  0  0  0  0  0  0  0
   38.9846   37.0572   21.2443 H   0  0  0  0  0  0  0  0  0  0  0  0
   37.1093   34.7203   21.4094 H   0  0  0  0  0  0  0  0  0  0  0  0
   37.1205   36.8697   19.8842 H   0  0  0  0  0  0  0  0  0  0  0  0
   37.9670   35.7392   18.7977 H   0  0  0  0  0  0  0  0  0  0  0  0
   42.2969   36.3823   21.1888 H   0  0  0  0  0  0  0  0  0  0  0  0
   42.6023   36.1810   14.8080 H   0  0  0  0  0  0  0  0  0  0  0  0
   43.2513   36.9252   16.2938 H   0  0  0  0  0  0  0  0  0  0  0  0
   39.6256   34.9261   24.1631 H   0  0  0  0  0  0  0  0  0  0  0  0
   38.3072   36.3175   23.6995 H   0  0  0  0  0  0  0  0  0  0  0  0
  1  3  1  0
  1 15  1  0
  1 24  1  0
  2 11  2  0
  2 12  1  0
  2 28  1  0
  3  4  1  0
  3 18  1  0
  4  6  1  0
  4 21  1  0
  5  7  1  0
  5 12  2  0
  5 15  1  0
  6  8  1  0
  6 24  1  0
  7  9  2  0
  7 14  1  0
  8 25  1  0
  9 11  1  0
  9 13  1  0
 10 14  2  0
 10 15  1  0
 16 26  2  0
 27 17  1  1
 26 19  1  1
 20 27  1  0
 22 26  1  0
 22 27  1  0
 23 27  2  0
 25 26  1  0
  1 29  1  1
  3 30  1  1
  4 31  1  6
  6 32  1  1
  8 33  1  0
  8 34  1  0
 10 35  1  0
 13 36  1  0
 13 37  1  0
 18 38  1  0
 21 39  1  0
M  CHG  3  17  -1  19  -1  20  -1
M  END
>  <filename_input>  (9) 
7MGT_ZD4_docked.sdf

>  <pdb_id>  (9) 
7MGT_ZD4

>  <pose_rank>  (9) 
8

>  <num_atoms_heavy>  (9) 
28

>  <num_torsions>  (9) 
6

>  <pose>  (9) 
[40.28599314882182, 34.4893904890516, 21.08051396020934, 1.0902706138098426, 0.5360420642091097, 2.550638727521468, 0.7310234290267289, 0.47830628643655404, -1.1778929086475804, -1.0902967472010106, 0.4489306439013142, 4.207774722775322]

>  <energy>  (9) 
-614.058434442044

>  <inter_energy>  (9) 
-636.5060996262852

>  <intra_energy>  (9) 
29.425445326569356

>  <rmsd>  (9) 
7.00772

>  <sdf_rank>  (9) 
0

$$$$

     RDKit          3D

 39 41  0  0  0  0  0  0  0  0999 V2000
   41.5937   35.1244   20.2454 C   0  0  2  0  0  0  0  0  0  0  0  0
   44.2753   34.9696   16.8519 C   0  0  0  0  0  0  0  0  0  0  0  0
   42.1087   36.3753   20.8615 C   0  0  1  0  0  0  0  0  0  0  0  0
   40.9572   37.2774   21.0480 C   0  0  1  0  0  0  0  0  0  0  0  0
   42.2942   35.0476   17.9563 C   0  0  0  0  0  0  0  0  0  0  0  0
   39.8344   36.3444   21.4126 C   0  0  1  0  0  0  0  0  0  0  0  0
   41.6165   34.9818   16.6906 C   0  0  0  0  0  0  0  0  0  0  0  0
   38.5077   36.7502   20.8653 C   0  0  0  0  0  0  0  0  0  0  0  0
   42.4082   34.9219   15.5443 C   0  0  0  0  0  0  0  0  0  0  0  0
   40.1018   35.0645   18.3515 C   0  0  0  0  0  0  0  0  0  0  0  0
   43.7249   34.9120   15.6622 N   0  0  0  0  0  0  0  0  0  0  0  0
   43.6065   35.0500   17.9540 N   0  0  0  0  0  0  0  0  0  0  0  0
   41.7803   34.8366   14.2499 N   0  0  0  0  0  0  0  0  0  0  0  0
   40.1995   35.0135   17.0105 N   0  0  0  0  0  0  0  0  0  0  0  0
   41.3183   35.1039   18.8586 N   0  0  0  0  0  0  0  0  0  0  0  0
   35.8444   37.4866   20.4459 O   0  0  0  0  0  0  0  0  0  0  0  0
   36.2918   33.2812   20.8979 O   0  0  0  0  0  0  0  0  0  0  0  0
   42.6252   36.0711   22.1798 O   0  0  0  0  0  0  0  0  0  0  0  0
   35.7445   37.2456   22.8714 O   0  0  0  0  0  0  0  0  0  0  0  0
   35.1760   34.4537   19.1732 O   0  0  0  0  0  0  0  0  0  0  0  0
   41.1869   38.2227   22.0966 O   0  0  0  0  0  0  0  0  0  0  0  0
   35.0010   35.3087   21.5364 O   0  0  0  0  0  0  0  0  0  0  0  0
   33.8797   33.1501   20.6707 O   0  0  0  0  0  0  0  0  0  0  0  0
   40.2479   35.0003   20.9017 O   0  0  0  0  0  0  0  0  0  0  0  0
   37.5248   35.9802   21.5213 O   0  0  0  0  0  0  0  0  0  0  0  0
   36.0093   36.5754   21.5905 P   0  0  1  0  0  0  0  0  0  0  0  0
   35.0672   34.0072   20.5672 P   0  0  2  0  0  0  0  0  0  0  0  0
   46.0314   34.9732   17.0264 Cl  0  0  0  0  0  0  0  0  0  0  0  0
   42.3656   34.3522   20.3796 H   0  0  0  0  0  0  0  0  0  0  0  0
   42.8908   36.8217   20.2299 H   0  0  0  0  0  0  0  0  0  0  0  0
   40.7510   37.8804   20.1514 H   0  0  0  0  0  0  0  0  0  0  0  0
   39.6820   36.3516   22.5020 H   0  0  0  0  0  0  0  0  0  0  0  0
   38.3347   37.8200   21.0544 H   0  0  0  0  0  0  0  0  0  0  0  0
   38.4693   36.5831   19.7787 H   0  0  0  0  0  0  0  0  0  0  0  0
   39.1648   35.0721   18.9278 H   0  0  0  0  0  0  0  0  0  0  0  0
   42.3587   34.7920   13.3988 H   0  0  0  0  0  0  0  0  0  0  0  0
   40.7531   34.8202   14.1759 H   0  0  0  0  0  0  0  0  0  0  0  0
   42.0107   36.4329   22.8666 H   0  0  0  0  0  0  0  0  0  0  0  0
   41.0783   37.7758   22.9734 H   0  0  0  0  0  0  0  0  0  0  0  0
  1  3  1  0
  1 15  1  0
  1 24  1  0
  2 11  2  0
  2 12  1  0
  2 28  1  0
  3  4  1  0
  3 18  1  0
  4  6  1  0
  4 21  1  0
  5  7  1  0
  5 12  2  0
  5 15  1  0
  6  8  1  0
  6 24  1  0
  7  9  2  0
  7 14  1  0
  8 25  1  0
  9 11  1  0
  9 13  1  0
 10 14  2  0
 10 15  1  0
 16 26  2  0
 27 17  1  1
 26 19  1  1
 20 27  1  0
 22 26  1  0
 22 27  1  0
 23 27  2  0
 25 26  1  0
  1 29  1  6
  3 30  1  6
  4 31  1  6
  6 32  1  1
  8 33  1  0
  8 34  1  0
 10 35  1  0
 13 36  1  0
 13 37  1  0
 18 38  1  0
 21 39  1  0
M  CHG  3  17  -1  19  -1  20  -1
M  END
>  <filename_input>  (10) 
7MGT_ZD4_docked.sdf

>  <pdb_id>  (10) 
7MGT_ZD4

>  <pose_rank>  (10) 
9

>  <num_atoms_heavy>  (10) 
28

>  <num_torsions>  (10) 
6

>  <pose>  (10) 
[41.59372408106015, 35.124398808149415, 20.245403282364634, -2.4561014001162733, -1.3942989626361268, -2.166944671294078, -1.825679266634997, 0.07523982583735639, -0.21613629662904882, -2.6663999309889155, 0.644746451997623, 3.7995585556594533]

>  <energy>  (10) 
-591.6376562533125

>  <inter_energy>  (10) 
-607.8900496117881

>  <intra_energy>  (10) 
17.279672498722512

>  <rmsd>  (10) 
7.48042

>  <sdf_rank>  (10) 
0

$$$$

     RDKit          3D

 39 41  0  0  0  0  0  0  0  0999 V2000
   41.8445   35.3518   15.6642 C   0  0  2  0  0  0  0  0  0  0  0  0
   46.1143   35.6082   16.3233 C   0  0  0  0  0  0  0  0  0  0  0  0
   42.1553   34.0369   15.0446 C   0  0  1  0  0  0  0  0  0  0  0  0
   41.5082   33.0004   15.8700 C   0  0  1  0  0  0  0  0  0  0  0  0
   43.9041   35.7804   16.8092 C   0  0  0  0  0  0  0  0  0  0  0  0
   40.2213   33.6483   16.3037 C   0  0  1  0  0  0  0  0  0  0  0  0
   44.2561   36.3098   18.0982 C   0  0  0  0  0  0  0  0  0  0  0  0
   39.7968   33.2862   17.6869 C   0  0  0  0  0  0  0  0  0  0  0  0
   45.6142   36.4325   18.3894 C   0  0  0  0  0  0  0  0  0  0  0  0
   42.0165   36.2291   17.9041 C   0  0  0  0  0  0  0  0  0  0  0  0
   46.5090   36.0798   17.4823 N   0  0  0  0  0  0  0  0  0  0  0  0
   44.8761   35.4453   15.9936 N   0  0  0  0  0  0  0  0  0  0  0  0
   46.0229   36.9742   19.6608 N   0  0  0  0  0  0  0  0  0  0  0  0
   42.9920   36.5652   18.7677 N   0  0  0  0  0  0  0  0  0  0  0  0
   42.5739   35.7648   16.8030 N   0  0  0  0  0  0  0  0  0  0  0  0
   39.4458   34.6086   20.6878 O   0  0  0  0  0  0  0  0  0  0  0  0
   35.2290   36.5129   20.6478 O   0  0  0  0  0  0  0  0  0  0  0  0
   41.5411   33.9784   13.7345 O   0  0  0  0  0  0  0  0  0  0  0  0
   37.9209   32.8680   19.9155 O   0  0  0  0  0  0  0  0  0  0  0  0
   36.5215   35.2475   22.1718 O   0  0  0  0  0  0  0  0  0  0  0  0
   41.2454   31.8111   15.1202 O   0  0  0  0  0  0  0  0  0  0  0  0
   37.1273   35.1964   19.7271 O   0  0  0  0  0  0  0  0  0  0  0  0
   35.0220   34.0971   20.7398 O   0  0  0  0  0  0  0  0  0  0  0  0
   40.4488   35.1211   16.1703 O   0  0  0  0  0  0  0  0  0  0  0  0
   39.1035   34.3923   18.2210 O   0  0  0  0  0  0  0  0  0  0  0  0
   38.4270   34.2300   19.6947 P   0  0  1  0  0  0  0  0  0  0  0  0
   35.9333   35.2449   20.8270 P   0  0  2  0  0  0  0  0  0  0  0  0
   47.2954   35.1181   15.1072 Cl  0  0  0  0  0  0  0  0  0  0  0  0
   42.0562   36.1258   14.9118 H   0  0  0  0  0  0  0  0  0  0  0  0
   43.2435   33.8935   14.9716 H   0  0  0  0  0  0  0  0  0  0  0  0
   42.1421   32.6815   16.7105 H   0  0  0  0  0  0  0  0  0  0  0  0
   39.3931   33.2920   15.6735 H   0  0  0  0  0  0  0  0  0  0  0  0
   39.1365   32.4069   17.6591 H   0  0  0  0  0  0  0  0  0  0  0  0
   40.6705   33.0399   18.3082 H   0  0  0  0  0  0  0  0  0  0  0  0
   40.9359   36.3255   18.0860 H   0  0  0  0  0  0  0  0  0  0  0  0
   47.0244   37.0678   19.8827 H   0  0  0  0  0  0  0  0  0  0  0  0
   45.3136   37.2677   20.3475 H   0  0  0  0  0  0  0  0  0  0  0  0
   40.5605   33.8850   13.8336 H   0  0  0  0  0  0  0  0  0  0  0  0
   41.0791   31.0589   15.7420 H   0  0  0  0  0  0  0  0  0  0  0  0
  1  3  1  0
  1 15  1  0
  1 24  1  0
  2 11  2  0
  2 12  1  0
  2 28  1  0
  3  4  1  0
  3 18  1  0
  4  6  1  0
  4 21  1  0
  5  7  1  0
  5 12  2  0
  5 15  1  0
  6  8  1  0
  6 24  1  0
  7  9  2  0
  7 14  1  0
  8 25  1  0
  9 11  1  0
  9 13  1  0
 10 14  2  0
 10 15  1  0
 16 26  2  0
 27 17  1  6
 26 19  1  1
 20 27  1  0
 22 26  1  0
 22 27  1  0
 23 27  2  0
 25 26  1  0
  1 29  1  6
  3 30  1  6
  4 31  1  1
  6 32  1  6
  8 33  1  0
  8 34  1  0
 10 35  1  0
 13 36  1  0
 13 37  1  0
 18 38  1  0
 21 39  1  0
M  CHG  3  17  -1  19  -1  20  -1
M  END
>  <filename_input>  (11) 
7MGT_ZD4_docked.sdf

>  <pdb_id>  (11) 
7MGT_ZD4

>  <pose_rank>  (11) 
10

>  <num_atoms_heavy>  (11) 
28

>  <num_torsions>  (11) 
6

>  <pose>  (11) 
[41.844534293543035, 35.35184504110091, 15.664203674886965, 2.0988803510640235, -3.1697368545210822, 1.1594541434659829, 16.633679174355795, -0.6973762718845036, 31.540274891082518, 36.129847426531796, 16.916241243005302, 5.530958071292492]

>  <energy>  (11) 
-587.3807548185789

>  <inter_energy>  (11) 
-590.1873204097247

>  <intra_energy>  (11) 
11.19705993404557

>  <rmsd>  (11) 
8.52778

>  <sdf_rank>  (11) 
0

$$$$

     RDKit          3D

 39 41  0  0  0  0  0  0  0  0999 V2000
   41.6826   35.5496   19.2981 C   0  0  2  0  0  0  0  0  0  0  0  0
   44.1740   35.5018   15.7595 C   0  0  0  0  0  0  0  0  0  0  0  0
   40.8612   36.6585   19.8505 C   0  0  1  0  0  0  0  0  0  0  0  0
   39.5814   36.0760   20.2944 C   0  0  1  0  0  0  0  0  0  0  0  0
   42.3248   35.1462   17.0262 C   0  0  0  0  0  0  0  0  0  0  0  0
   39.9765   34.7283   20.8346 C   0  0  1  0  0  0  0  0  0  0  0  0
   41.7007   34.5218   15.8921 C   0  0  0  0  0  0  0  0  0  0  0  0
   38.9752   33.6540   20.5742 C   0  0  0  0  0  0  0  0  0  0  0  0
   42.4392   34.4580   14.7111 C   0  0  0  0  0  0  0  0  0  0  0  0
   40.2911   34.4792   17.6446 C   0  0  0  0  0  0  0  0  0  0  0  0
   43.6661   34.9496   14.6831 N   0  0  0  0  0  0  0  0  0  0  0  0
   43.5410   35.6166   16.8796 N   0  0  0  0  0  0  0  0  0  0  0  0
   41.8681   33.8265   13.5483 N   0  0  0  0  0  0  0  0  0  0  0  0
   40.3795   34.1257   16.3493 N   0  0  0  0  0  0  0  0  0  0  0  0
   41.4128   35.0786   17.9924 N   0  0  0  0  0  0  0  0  0  0  0  0
   36.4099   34.5466   21.7421 O   0  0  0  0  0  0  0  0  0  0  0  0
   33.4743   34.1279   18.1989 O   0  0  0  0  0  0  0  0  0  0  0  0
   41.5168   37.1863   21.0290 O   0  0  0  0  0  0  0  0  0  0  0  0
   35.9046   32.7121   20.2154 O   0  0  0  0  0  0  0  0  0  0  0  0
   33.4380   36.3850   18.9053 O   0  0  0  0  0  0  0  0  0  0  0  0
   38.9633   36.8656   21.3143 O   0  0  0  0  0  0  0  0  0  0  0  0
   35.4848   34.9946   19.3783 O   0  0  0  0  0  0  0  0  0  0  0  0
   33.2016   34.6875   20.5440 O   0  0  0  0  0  0  0  0  0  0  0  0
   41.2940   34.4124   20.1998 O   0  0  0  0  0  0  0  0  0  0  0  0
   37.9427   34.2164   19.7951 O   0  0  0  0  0  0  0  0  0  0  0  0
   36.4140   34.0847   20.3441 P   0  0  1  0  0  0  0  0  0  0  0  0
   33.8642   35.0311   19.2798 P   0  0  2  0  0  0  0  0  0  0  0  0
   45.8043   36.1769   15.7350 Cl  0  0  0  0  0  0  0  0  0  0  0  0
   42.7219   35.9064   19.2479 H   0  0  0  0  0  0  0  0  0  0  0  0
   40.7218   37.4469   19.0961 H   0  0  0  0  0  0  0  0  0  0  0  0
   38.8439   36.0216   19.4801 H   0  0  0  0  0  0  0  0  0  0  0  0
   40.0376   34.7694   21.9321 H   0  0  0  0  0  0  0  0  0  0  0  0
   39.4481   32.8243   20.0284 H   0  0  0  0  0  0  0  0  0  0  0  0
   38.5757   33.2593   21.5200 H   0  0  0  0  0  0  0  0  0  0  0  0
   39.4283   34.2984   18.3026 H   0  0  0  0  0  0  0  0  0  0  0  0
   42.4079   33.7757   12.6725 H   0  0  0  0  0  0  0  0  0  0  0  0
   40.9203   33.4260   13.5931 H   0  0  0  0  0  0  0  0  0  0  0  0
   41.0745   36.8302   21.8400 H   0  0  0  0  0  0  0  0  0  0  0  0
   39.2309   36.5238   22.2040 H   0  0  0  0  0  0  0  0  0  0  0  0
  1  3  1  0
  1 15  1  0
  1 24  1  0
  2 11  2  0
  2 12  1  0
  2 28  1  0
  3  4  1  0
  3 18  1  0
  4  6  1  0
  4 21  1  0
  5  7  1  0
  5 12  2  0
  5 15  1  0
  6  8  1  0
  6 24  1  0
  7  9  2  0
  7 14  1  0
  8 25  1  0
  9 11  1  0
  9 13  1  0
 10 14  2  0
 10 15  1  0
 16 26  2  0
 27 17  1  6
 26 19  1  1
 20 27  1  0
 22 26  1  0
 22 27  1  0
 23 27  2  0
 25 26  1  0
  1 29  1  6
  3 30  1  6
  4 31  1  6
  6 32  1  1
  8 33  1  0
  8 34  1  0
 10 35  1  0
 13 36  1  0
 13 37  1  0
 18 38  1  0
 21 39  1  0
M  CHG  3  17  -1  19  -1  20  -1
M  END
>  <filename_input>  (12) 
7MGT_ZD4_docked.sdf

>  <pdb_id>  (12) 
7MGT_ZD4

>  <pose_rank>  (12) 
11

>  <num_atoms_heavy>  (12) 
28

>  <num_torsions>  (12) 
6

>  <pose>  (12) 
[41.68259703383508, 35.549592371802845, 19.298101002781607, 1.454867482719317, 2.501707460939637, 1.8635043870055206, 30.34957485384052, -40.929641480760125, 13.720624790179762, 29.18380072543134, -14.504781085821907, 1.024542989479419]

>  <energy>  (12) 
-667.4273904684154

>  <inter_energy>  (12) 
-690.3121400990489

>  <intra_energy>  (12) 
36.980191055360734

>  <rmsd>  (12) 
7.52007

>  <sdf_rank>  (12) 
0

$$$$

     RDKit          3D

 39 41  0  0  0  0  0  0  0  0999 V2000
   38.9957   33.6287   18.3870 C   0  0  2  0  0  0  0  0  0  0  0  0
   35.0717   34.4126   20.0357 C   0  0  0  0  0  0  0  0  0  0  0  0
   38.5111   33.9192   17.0122 C   0  0  1  0  0  0  0  0  0  0  0  0
   39.3354   35.0206   16.4812 C   0  0  1  0  0  0  0  0  0  0  0  0
   37.3247   34.5765   19.8173 C   0  0  0  0  0  0  0  0  0  0  0  0
   40.7016   34.7421   17.0467 C   0  0  1  0  0  0  0  0  0  0  0  0
   37.3426   35.4656   20.9464 C   0  0  0  0  0  0  0  0  0  0  0  0
   41.4692   35.9688   17.4083 C   0  0  0  0  0  0  0  0  0  0  0  0
   36.1185   35.7656   21.5430 C   0  0  0  0  0  0  0  0  0  0  0  0
   39.4412   35.1599   20.1963 C   0  0  0  0  0  0  0  0  0  0  0  0
   35.0118   35.2203   21.0679 N   0  0  0  0  0  0  0  0  0  0  0  0
   36.1652   34.1082   19.4194 N   0  0  0  0  0  0  0  0  0  0  0  0
   36.0808   36.6379   22.6896 N   0  0  0  0  0  0  0  0  0  0  0  0
   38.7387   35.8229   21.1330 N   0  0  0  0  0  0  0  0  0  0  0  0
   38.5989   34.4740   19.4488 N   0  0  0  0  0  0  0  0  0  0  0  0
   43.6973   36.4615   15.9050 O   0  0  0  0  0  0  0  0  0  0  0  0
   46.1721   38.7551   19.0432 O   0  0  0  0  0  0  0  0  0  0  0  0
   38.7577   32.7646   16.1737 O   0  0  0  0  0  0  0  0  0  0  0  0
   44.8329   34.5907   16.9829 O   0  0  0  0  0  0  0  0  0  0  0  0
   44.1629   39.1446   17.8575 O   0  0  0  0  0  0  0  0  0  0  0  0
   39.3718   35.0158   15.0514 O   0  0  0  0  0  0  0  0  0  0  0  0
   44.9838   36.7770   18.1161 O   0  0  0  0  0  0  0  0  0  0  0  0
   46.1036   38.5631   16.6254 O   0  0  0  0  0  0  0  0  0  0  0  0
   40.4714   33.8702   18.2407 O   0  0  0  0  0  0  0  0  0  0  0  0
   42.6801   35.5524   17.9997 O   0  0  0  0  0  0  0  0  0  0  0  0
   44.0628   35.8265   17.1820 P   0  0  1  0  0  0  0  0  0  0  0  0
   45.3860   38.3335   17.8855 P   0  0  2  0  0  0  0  0  0  0  0  0
   33.6023   33.6885   19.3794 Cl  0  0  0  0  0  0  0  0  0  0  0  0
   38.6063   32.6392   18.6685 H   0  0  0  0  0  0  0  0  0  0  0  0
   37.4399   34.1688   17.0265 H   0  0  0  0  0  0  0  0  0  0  0  0
   38.9399   36.0085   16.7598 H   0  0  0  0  0  0  0  0  0  0  0  0
   41.3287   34.2554   16.2852 H   0  0  0  0  0  0  0  0  0  0  0  0
   41.6766   36.5618   16.5054 H   0  0  0  0  0  0  0  0  0  0  0  0
   40.8929   36.5949   18.1054 H   0  0  0  0  0  0  0  0  0  0  0  0
   40.5341   35.1857   20.0746 H   0  0  0  0  0  0  0  0  0  0  0  0
   35.1802   36.8639   23.1353 H   0  0  0  0  0  0  0  0  0  0  0  0
   36.9545   37.0353   23.0633 H   0  0  0  0  0  0  0  0  0  0  0  0
   38.9268   31.9729   16.7436 H   0  0  0  0  0  0  0  0  0  0  0  0
   40.3052   34.8924   14.7455 H   0  0  0  0  0  0  0  0  0  0  0  0
  1  3  1  0
  1 15  1  0
  1 24  1  0
  2 11  2  0
  2 12  1  0
  2 28  1  0
  3  4  1  0
  3 18  1  0
  4  6  1  0
  4 21  1  0
  5  7  1  0
  5 12  2  0
  5 15  1  0
  6  8  1  0
  6 24  1  0
  7  9  2  0
  7 14  1  0
  8 25  1  0
  9 11  1  0
  9 13  1  0
 10 14  2  0
 10 15  1  0
 16 26  2  0
 27 17  1  1
 26 19  1  6
 20 27  1  0
 22 26  1  0
 22 27  1  0
 23 27  2  0
 25 26  1  0
  1 29  1  1
  3 30  1  1
  4 31  1  1
  6 32  1  6
  8 33  1  0
  8 34  1  0
 10 35  1  0
 13 36  1  0
 13 37  1  0
 18 38  1  0
 21 39  1  0
M  CHG  3  17  -1  19  -1  20  -1
M  END
>  <filename_input>  (13) 
7MGT_ZD4_docked.sdf

>  <pdb_id>  (13) 
7MGT_ZD4

>  <pose_rank>  (13) 
12

>  <num_atoms_heavy>  (13) 
28

>  <num_torsions>  (13) 
6

>  <pose>  (13) 
[38.9957431796626, 33.62873448377841, 18.38700257135644, 2.2815063842025305, 0.4880252688562362, -2.015060963404368, -14.583966037685435, -37.916662002197306, -13.5555968856202, -28.273263195353444, -13.076883201568446, -0.5151835875515132]

>  <energy>  (13) 
-637.1576886988125

>  <inter_energy>  (13) 
-648.9583667440045

>  <intra_energy>  (13) 
10.460317377448646

>  <rmsd>  (13) 
4.23438

>  <sdf_rank>  (13) 
0

$$$$

     RDKit          3D

 39 41  0  0  0  0  0  0  0  0999 V2000
   37.5827   35.8177   22.0638 C   0  0  2  0  0  0  0  0  0  0  0  0
   41.3938   34.0929   23.1738 C   0  0  0  0  0  0  0  0  0  0  0  0
   36.4103   36.4472   21.4016 C   0  0  1  0  0  0  0  0  0  0  0  0
   36.0419   35.5918   20.2584 C   0  0  1  0  0  0  0  0  0  0  0  0
   39.9305   35.3515   21.9799 C   0  0  0  0  0  0  0  0  0  0  0  0
   36.3067   34.1986   20.7614 C   0  0  1  0  0  0  0  0  0  0  0  0
   41.0072   35.7242   21.1038 C   0  0  0  0  0  0  0  0  0  0  0  0
   36.8324   33.2685   19.7207 C   0  0  0  0  0  0  0  0  0  0  0  0
   42.2701   35.2051   21.3867 C   0  0  0  0  0  0  0  0  0  0  0  0
   39.1015   36.6972   20.4097 C   0  0  0  0  0  0  0  0  0  0  0  0
   42.4241   34.3938   22.4192 N   0  0  0  0  0  0  0  0  0  0  0  0
   40.2019   34.5538   22.9859 N   0  0  0  0  0  0  0  0  0  0  0  0
   43.3819   35.5323   20.5301 N   0  0  0  0  0  0  0  0  0  0  0  0
   40.4120   36.6098   20.1175 N   0  0  0  0  0  0  0  0  0  0  0  0
   38.8656   35.9823   21.4923 N   0  0  0  0  0  0  0  0  0  0  0  0
   37.6898   32.3591   16.8823 O   0  0  0  0  0  0  0  0  0  0  0  0
   40.4973   33.4486   15.0085 O   0  0  0  0  0  0  0  0  0  0  0  0
   35.2895   36.4330   22.3186 O   0  0  0  0  0  0  0  0  0  0  0  0
   39.5693   32.7182   18.3956 O   0  0  0  0  0  0  0  0  0  0  0  0
   40.0663   35.7656   14.8082 O   0  0  0  0  0  0  0  0  0  0  0  0
   34.6653   35.7451   19.9016 O   0  0  0  0  0  0  0  0  0  0  0  0
   39.1007   34.5133   16.7692 O   0  0  0  0  0  0  0  0  0  0  0  0
   38.3102   34.2471   14.3258 O   0  0  0  0  0  0  0  0  0  0  0  0
   37.2747   34.3573   21.8912 O   0  0  0  0  0  0  0  0  0  0  0  0
   37.3976   34.0551   18.6954 O   0  0  0  0  0  0  0  0  0  0  0  0
   38.4487   33.3399   17.6760 P   0  0  1  0  0  0  0  0  0  0  0  0
   39.4750   34.4773   15.1893 P   0  0  2  0  0  0  0  0  0  0  0  0
   41.5850   33.0240   24.5648 Cl  0  0  0  0  0  0  0  0  0  0  0  0
   37.6725   36.2658   23.0644 H   0  0  0  0  0  0  0  0  0  0  0  0
   36.6488   37.4760   21.0936 H   0  0  0  0  0  0  0  0  0  0  0  0
   36.6087   35.8438   19.3500 H   0  0  0  0  0  0  0  0  0  0  0  0
   35.3631   33.7307   21.0787 H   0  0  0  0  0  0  0  0  0  0  0  0
   37.5999   32.6122   20.1568 H   0  0  0  0  0  0  0  0  0  0  0  0
   36.0252   32.6358   19.3232 H   0  0  0  0  0  0  0  0  0  0  0  0
   38.3530   37.2687   19.8413 H   0  0  0  0  0  0  0  0  0  0  0  0
   44.3175   35.1525   20.7330 H   0  0  0  0  0  0  0  0  0  0  0  0
   43.2408   36.1460   19.7150 H   0  0  0  0  0  0  0  0  0  0  0  0
   35.6251   36.4372   23.2500 H   0  0  0  0  0  0  0  0  0  0  0  0
   34.1163   35.8062   20.7232 H   0  0  0  0  0  0  0  0  0  0  0  0
  1  3  1  0
  1 15  1  0
  1 24  1  0
  2 11  2  0
  2 12  1  0
  2 28  1  0
  3  4  1  0
  3 18  1  0
  4  6  1  0
  4 21  1  0
  5  7  1  0
  5 12  2  0
  5 15  1  0
  6  8  1  0
  6 24  1  0
  7  9  2  0
  7 14  1  0
  8 25  1  0
  9 11  1  0
  9 13  1  0
 10 14  2  0
 10 15  1  0
 16 26  2  0
 27 17  1  1
 26 19  1  1
 20 27  1  0
 22 26  1  0
 22 27  1  0
 23 27  2  0
 25 26  1  0
  1 29  1  1
  3 30  1  6
  4 31  1  6
  6 32  1  1
  8 33  1  0
  8 34  1  0
 10 35  1  0
 13 36  1  0
 13 37  1  0
 18 38  1  0
 21 39  1  0
M  CHG  3  17  -1  19  -1  20  -1
M  END
>  <filename_input>  (14) 
7MGT_ZD4_docked.sdf

>  <pdb_id>  (14) 
7MGT_ZD4

>  <pose_rank>  (14) 
13

>  <num_atoms_heavy>  (14) 
28

>  <num_torsions>  (14) 
6

>  <pose>  (14) 
[37.58273330840789, 35.81768810016689, 22.063840353507672, 0.5674751233054731, -2.2084545793928716, -2.577057048361942, 0.10325989376652184, -2.918757442618776, -0.12995750550087237, -1.9388968692571167, -1.0513051520197592, 1.5849879496329993]

>  <energy>  (14) 
-540.6661466909695

>  <inter_energy>  (14) 
-544.6654532087981

>  <intra_energy>  (14) 
13.767262735905668

>  <rmsd>  (14) 
5.38327

>  <sdf_rank>  (14) 
0

$$$$

     RDKit          3D

 39 41  0  0  0  0  0  0  0  0999 V2000
   41.8743   35.3809   15.6841 C   0  0  2  0  0  0  0  0  0  0  0  0
   46.2013   35.3050   15.6374 C   0  0  0  0  0  0  0  0  0  0  0  0
   41.9186   34.0147   15.1002 C   0  0  1  0  0  0  0  0  0  0  0  0
   41.2697   33.1060   16.0633 C   0  0  1  0  0  0  0  0  0  0  0  0
   44.1196   35.6444   16.4752 C   0  0  0  0  0  0  0  0  0  0  0  0
   40.1545   33.9380   16.6361 C   0  0  1  0  0  0  0  0  0  0  0  0
   44.7164   36.1390   17.6855 C   0  0  0  0  0  0  0  0  0  0  0  0
   39.8926   33.6866   18.0827 C   0  0  0  0  0  0  0  0  0  0  0  0
   46.1091   36.1556   17.7507 C   0  0  0  0  0  0  0  0  0  0  0  0
   42.4755   36.2318   17.8592 C   0  0  0  0  0  0  0  0  0  0  0  0
   46.8145   35.7394   16.7129 N   0  0  0  0  0  0  0  0  0  0  0  0
   44.9171   35.2395   15.5150 N   0  0  0  0  0  0  0  0  0  0  0  0
   46.7598   36.6582   18.9344 N   0  0  0  0  0  0  0  0  0  0  0  0
   43.6016   36.4878   18.5498 N   0  0  0  0  0  0  0  0  0  0  0  0
   42.8089   35.7312   16.6857 N   0  0  0  0  0  0  0  0  0  0  0  0
   37.4017   33.0743   20.0421 O   0  0  0  0  0  0  0  0  0  0  0  0
   41.7366   34.9329   21.8105 O   0  0  0  0  0  0  0  0  0  0  0  0
   41.1179   33.9936   13.8937 O   0  0  0  0  0  0  0  0  0  0  0  0
   37.4398   35.4896   20.3835 O   0  0  0  0  0  0  0  0  0  0  0  0
   39.8495   36.1050   22.6226 O   0  0  0  0  0  0  0  0  0  0  0  0
   40.7487   31.9375   15.4237 O   0  0  0  0  0  0  0  0  0  0  0  0
   39.5058   34.2615   20.9405 O   0  0  0  0  0  0  0  0  0  0  0  0
   40.5848   36.5469   20.4121 O   0  0  0  0  0  0  0  0  0  0  0  0
   40.5491   35.3604   16.3918 O   0  0  0  0  0  0  0  0  0  0  0  0
   38.7563   34.4395   18.4451 O   0  0  0  0  0  0  0  0  0  0  0  0
   38.2069   34.3050   19.9734 P   0  0  1  0  0  0  0  0  0  0  0  0
   40.4433   35.4953   21.4267 P   0  0  2  0  0  0  0  0  0  0  0  0
   47.1275   34.7313   14.2491 Cl  0  0  0  0  0  0  0  0  0  0  0  0
   42.0727   36.0916   14.8683 H   0  0  0  0  0  0  0  0  0  0  0  0
   42.9567   33.7220   14.8842 H   0  0  0  0  0  0  0  0  0  0  0  0
   41.9725   32.7339   16.8234 H   0  0  0  0  0  0  0  0  0  0  0  0
   39.2043   33.6754   16.1481 H   0  0  0  0  0  0  0  0  0  0  0  0
   39.7025   32.6160   18.2495 H   0  0  0  0  0  0  0  0  0  0  0  0
   40.7614   33.9797   18.6904 H   0  0  0  0  0  0  0  0  0  0  0  0
   41.4496   36.4101   18.2137 H   0  0  0  0  0  0  0  0  0  0  0  0
   47.7882   36.6734   18.9896 H   0  0  0  0  0  0  0  0  0  0  0  0
   46.1964   37.0021   19.7251 H   0  0  0  0  0  0  0  0  0  0  0  0
   40.1581   33.9684   14.1351 H   0  0  0  0  0  0  0  0  0  0  0  0
   40.4585   31.2867   16.1111 H   0  0  0  0  0  0  0  0  0  0  0  0
  1  3  1  0
  1 15  1  0
  1 24  1  0
  2 11  2  0
  2 12  1  0
  2 28  1  0
  3  4  1  0
  3 18  1  0
  4  6  1  0
  4 21  1  0
  5  7  1  0
  5 12  2  0
  5 15  1  0
  6  8  1  0
  6 24  1  0
  7  9  2  0
  7 14  1  0
  8 25  1  0
  9 11  1  0
  9 13  1  0
 10 14  2  0
 10 15  1  0
 16 26  2  0
 27 17  1  1
 26 19  1  1
 20 27  1  0
 22 26  1  0
 22 27  1  0
 23 27  2  0
 25 26  1  0
  1 29  1  6
  3 30  1  6
  4 31  1  1
  6 32  1  6
  8 33  1  0
  8 34  1  0
 10 35  1  0
 13 36  1  0
 13 37  1  0
 18 38  1  0
 21 39  1  0
M  CHG  3  17  -1  19  -1  20  -1
M  END
>  <filename_input>  (15) 
7MGT_ZD4_docked.sdf

>  <pdb_id>  (15) 
7MGT_ZD4

>  <pose_rank>  (15) 
14

>  <num_atoms_heavy>  (15) 
28

>  <num_torsions>  (15) 
6

>  <pose>  (15) 
[41.87428182010354, 35.38093550317862, 15.684111659249371, 1.8446105982496617, -3.130160865019392, 1.1001876377282696, -2.141557437388361, -0.0616652000290101, 0.16049370187547107, 1.7567202906319719, -3.508115113080025, -0.07279254964298396]

>  <energy>  (15) 
-557.2045562454913

>  <inter_energy>  (15) 
-568.5646437843916

>  <intra_energy>  (15) 
15.50403668719743

>  <rmsd>  (15) 
8.32558

>  <sdf_rank>  (15) 
0

$$$$

     RDKit          3D

 39 41  0  0  0  0  0  0  0  0999 V2000
   40.2414   35.4024   21.1079 C   0  0  2  0  0  0  0  0  0  0  0  0
   42.7879   38.8621   21.6338 C   0  0  0  0  0  0  0  0  0  0  0  0
   38.9343   35.9940   21.4967 C   0  0  1  0  0  0  0  0  0  0  0  0
   37.9838   35.7103   20.4055 C   0  0  1  0  0  0  0  0  0  0  0  0
   41.7839   37.1448   20.5413 C   0  0  0  0  0  0  0  0  0  0  0  0
   38.3866   34.3390   19.9353 C   0  0  1  0  0  0  0  0  0  0  0  0
   42.5076   37.5116   19.3549 C   0  0  0  0  0  0  0  0  0  0  0  0
   38.2508   34.1391   18.4635 C   0  0  0  0  0  0  0  0  0  0  0  0
   43.3579   38.6134   19.4403 C   0  0  0  0  0  0  0  0  0  0  0  0
   41.2277   35.7115   18.9290 C   0  0  0  0  0  0  0  0  0  0  0  0
   43.4767   39.2567   20.5891 N   0  0  0  0  0  0  0  0  0  0  0  0
   41.9652   37.8664   21.6223 N   0  0  0  0  0  0  0  0  0  0  0  0
   44.1211   39.0140   18.2852 N   0  0  0  0  0  0  0  0  0  0  0  0
   42.0928   36.5576   18.3405 N   0  0  0  0  0  0  0  0  0  0  0  0
   41.0585   36.0895   20.1808 N   0  0  0  0  0  0  0  0  0  0  0  0
   39.3107   35.2411   15.5375 O   0  0  0  0  0  0  0  0  0  0  0  0
   41.9716   33.6328   13.7126 O   0  0  0  0  0  0  0  0  0  0  0  0
   38.4416   35.3109   22.6747 O   0  0  0  0  0  0  0  0  0  0  0  0
   38.9406   32.8584   15.9076 O   0  0  0  0  0  0  0  0  0  0  0  0
   43.6691   33.7948   15.3517 O   0  0  0  0  0  0  0  0  0  0  0  0
   36.6301   35.7068   20.8673 O   0  0  0  0  0  0  0  0  0  0  0  0
   41.2667   33.6585   16.0973 O   0  0  0  0  0  0  0  0  0  0  0  0
   42.3259   35.7025   14.9283 O   0  0  0  0  0  0  0  0  0  0  0  0
   39.8036   34.1620   20.3819 O   0  0  0  0  0  0  0  0  0  0  0  0
   39.5096   34.3979   17.8824 O   0  0  0  0  0  0  0  0  0  0  0  0
   39.7078   34.0479   16.3032 P   0  0  1  0  0  0  0  0  0  0  0  0
   42.3143   34.2361   14.9989 P   0  0  2  0  0  0  0  0  0  0  0  0
   42.9227   39.7190   23.1706 Cl  0  0  0  0  0  0  0  0  0  0  0  0
   40.8563   35.3419   22.0180 H   0  0  0  0  0  0  0  0  0  0  0  0
   39.0414   37.0720   21.6875 H   0  0  0  0  0  0  0  0  0  0  0  0
   38.0199   36.4724   19.6131 H   0  0  0  0  0  0  0  0  0  0  0  0
   37.7126   33.5838   20.3658 H   0  0  0  0  0  0  0  0  0  0  0  0
   37.9451   33.1039   18.2518 H   0  0  0  0  0  0  0  0  0  0  0  0
   37.4870   34.8140   18.0498 H   0  0  0  0  0  0  0  0  0  0  0  0
   40.7432   34.8496   18.4469 H   0  0  0  0  0  0  0  0  0  0  0  0
   44.7512   39.8269   18.3409 H   0  0  0  0  0  0  0  0  0  0  0  0
   44.0364   38.4875   17.4041 H   0  0  0  0  0  0  0  0  0  0  0  0
   38.7735   35.7710   23.4860 H   0  0  0  0  0  0  0  0  0  0  0  0
   36.6191   35.7067   21.8573 H   0  0  0  0  0  0  0  0  0  0  0  0
  1  3  1  0
  1 15  1  0
  1 24  1  0
  2 11  2  0
  2 12  1  0
  2 28  1  0
  3  4  1  0
  3 18  1  0
  4  6  1  0
  4 21  1  0
  5  7  1  0
  5 12  2  0
  5 15  1  0
  6  8  1  0
  6 24  1  0
  7  9  2  0
  7 14  1  0
  8 25  1  0
  9 11  1  0
  9 13  1  0
 10 14  2  0
 10 15  1  0
 16 26  2  0
 27 17  1  6
 26 19  1  6
 20 27  1  0
 22 26  1  0
 22 27  1  0
 23 27  2  0
 25 26  1  0
  1 29  1  1
  3 30  1  1
  4 31  1  6
  6 32  1  1
  8 33  1  0
  8 34  1  0
 10 35  1  0
 13 36  1  0
 13 37  1  0
 18 38  1  0
 21 39  1  0
M  CHG  3  17  -1  19  -1  20  -1
M  END
>  <filename_input>  (16) 
7MGT_ZD4_docked.sdf

>  <pdb_id>  (16) 
7MGT_ZD4

>  <pose_rank>  (16) 
15

>  <num_atoms_heavy>  (16) 
28

>  <num_torsions>  (16) 
6

>  <pose>  (16) 
[40.24136444874647, 35.40238957326092, 21.107928030162398, 0.17730732158658313, 1.3542373927150584, 2.869330851466486, 17.065713443713395, 4.650346172897975, -6.231912227387207, -1.5629720766556492, -0.8428574441481064, 1.3772295661014493]

>  <energy>  (16) 
-547.1885912176283

>  <inter_energy>  (16) 
-621.7479520041051

>  <intra_energy>  (16) 
71.6263243541772

>  <rmsd>  (16) 
5.68887

>  <sdf_rank>  (16) 
0

$$$$

     RDKit          3D

 39 41  0  0  0  0  0  0  0  0999 V2000
   40.1743   35.0940   17.8635 C   0  0  2  0  0  0  0  0  0  0  0  0
   42.9275   34.0069   14.7061 C   0  0  0  0  0  0  0  0  0  0  0  0
   39.8611   33.9682   18.7821 C   0  0  1  0  0  0  0  0  0  0  0  0
   39.9601   34.4865   20.1590 C   0  0  1  0  0  0  0  0  0  0  0  0
   42.2119   35.0198   16.6068 C   0  0  0  0  0  0  0  0  0  0  0  0
   39.4326   35.8911   20.0453 C   0  0  1  0  0  0  0  0  0  0  0  0
   43.4980   35.6509   16.7229 C   0  0  0  0  0  0  0  0  0  0  0  0
   40.1281   36.8726   20.9271 C   0  0  0  0  0  0  0  0  0  0  0  0
   44.4436   35.3597   15.7404 C   0  0  0  0  0  0  0  0  0  0  0  0
   42.1839   36.3017   18.4287 C   0  0  0  0  0  0  0  0  0  0  0  0
   44.1240   34.5436   14.7506 N   0  0  0  0  0  0  0  0  0  0  0  0
   42.0104   34.2125   15.5921 N   0  0  0  0  0  0  0  0  0  0  0  0
   45.7436   35.9790   15.7986 N   0  0  0  0  0  0  0  0  0  0  0  0
   43.4246   36.4549   17.9310 N   0  0  0  0  0  0  0  0  0  0  0  0
   41.5251   35.4585   17.6582 N   0  0  0  0  0  0  0  0  0  0  0  0
   43.7378   36.2185   21.1786 O   0  0  0  0  0  0  0  0  0  0  0  0
   44.8062   39.1774   21.0262 O   0  0  0  0  0  0  0  0  0  0  0  0
   38.4847   33.5663   18.5797 O   0  0  0  0  0  0  0  0  0  0  0  0
   42.8289   37.5729   22.9928 O   0  0  0  0  0  0  0  0  0  0  0  0
   43.1578   40.8287   20.6385 O   0  0  0  0  0  0  0  0  0  0  0  0
   39.1670   33.7234   21.0726 O   0  0  0  0  0  0  0  0  0  0  0  0
   42.4641   38.4077   20.7000 O   0  0  0  0  0  0  0  0  0  0  0  0
   43.8588   39.4863   18.8139 O   0  0  0  0  0  0  0  0  0  0  0  0
   39.5751   36.2574   18.6016 O   0  0  0  0  0  0  0  0  0  0  0  0
   41.2556   36.2260   21.4749 O   0  0  0  0  0  0  0  0  0  0  0  0
   42.6326   37.0853   21.6203 P   0  0  1  0  0  0  0  0  0  0  0  0
   43.5999   39.4814   20.2590 P   0  0  2  0  0  0  0  0  0  0  0  0
   42.4896   32.9034   13.4005 Cl  0  0  0  0  0  0  0  0  0  0  0  0
   39.8158   34.8092   16.8633 H   0  0  0  0  0  0  0  0  0  0  0  0
   40.5438   33.1244   18.6035 H   0  0  0  0  0  0  0  0  0  0  0  0
   40.9868   34.4354   20.5505 H   0  0  0  0  0  0  0  0  0  0  0  0
   38.3876   35.9262   20.3869 H   0  0  0  0  0  0  0  0  0  0  0  0
   40.4452   37.7467   20.3393 H   0  0  0  0  0  0  0  0  0  0  0  0
   39.4557   37.2210   21.7249 H   0  0  0  0  0  0  0  0  0  0  0  0
   41.7862   36.7966   19.3269 H   0  0  0  0  0  0  0  0  0  0  0  0
   46.4471   35.7687   15.0763 H   0  0  0  0  0  0  0  0  0  0  0  0
   45.9692   36.6320   16.5626 H   0  0  0  0  0  0  0  0  0  0  0  0
   38.0458   33.4381   19.4578 H   0  0  0  0  0  0  0  0  0  0  0  0
   39.4136   33.9607   22.0016 H   0  0  0  0  0  0  0  0  0  0  0  0
  1  3  1  0
  1 15  1  0
  1 24  1  0
  2 11  2  0
  2 12  1  0
  2 28  1  0
  3  4  1  0
  3 18  1  0
  4  6  1  0
  4 21  1  0
  5  7  1  0
  5 12  2  0
  5 15  1  0
  6  8  1  0
  6 24  1  0
  7  9  2  0
  7 14  1  0
  8 25  1  0
  9 11  1  0
  9 13  1  0
 10 14  2  0
 10 15  1  0
 16 26  2  0
 27 17  1  1
 26 19  1  1
 20 27  1  0
 22 26  1  0
 22 27  1  0
 23 27  2  0
 25 26  1  0
  1 29  1  6
  3 30  1  1
  4 31  1  1
  6 32  1  1
  8 33  1  0
  8 34  1  0
 10 35  1  0
 13 36  1  0
 13 37  1  0
 18 38  1  0
 21 39  1  0
M  CHG  3  17  -1  19  -1  20  -1
M  END
>  <filename_input>  (17) 
7MGT_ZD4_docked.sdf

>  <pdb_id>  (17) 
7MGT_ZD4

>  <pose_rank>  (17) 
16

>  <num_atoms_heavy>  (17) 
28

>  <num_torsions>  (17) 
6

>  <pose>  (17) 
[40.17433402351693, 35.094044927547046, 17.863453540079583, 1.341559494872859, -1.8813302125602536, 1.4004781527427563, -1.4399417018576761, 3.154840721912493, -0.4827346279902344, 0.7831849604557318, -1.521756532305565, -3.7660358647177996]

>  <energy>  (17) 
-442.1791912835123

>  <inter_energy>  (17) 
-503.3345063292657

>  <intra_energy>  (17) 
64.59399335213675

>  <rmsd>  (17) 
7.47388

>  <sdf_rank>  (17) 
0

$$$$

     RDKit          3D

 39 41  0  0  0  0  0  0  0  0999 V2000
   42.6313   37.7221   19.8251 C   0  0  2  0  0  0  0  0  0  0  0  0
   41.8444   35.2456   23.2861 C   0  0  0  0  0  0  0  0  0  0  0  0
   43.9242   37.2853   20.4142 C   0  0  1  0  0  0  0  0  0  0  0  0
   44.3010   36.0216   19.7542 C   0  0  1  0  0  0  0  0  0  0  0  0
   41.3918   36.3776   21.3719 C   0  0  0  0  0  0  0  0  0  0  0  0
   43.8355   36.2125   18.3362 C   0  0  1  0  0  0  0  0  0  0  0  0
   40.0144   35.9871   21.4983 C   0  0  0  0  0  0  0  0  0  0  0  0
   43.3098   34.9708   17.6988 C   0  0  0  0  0  0  0  0  0  0  0  0
   39.6733   35.1925   22.5922 C   0  0  0  0  0  0  0  0  0  0  0  0
   40.2706   37.2572   19.6594 C   0  0  0  0  0  0  0  0  0  0  0  0
   40.6066   34.8480   23.4629 N   0  0  0  0  0  0  0  0  0  0  0  0
   42.2369   35.9624   22.2859 N   0  0  0  0  0  0  0  0  0  0  0  0
   38.3027   34.7871   22.7769 N   0  0  0  0  0  0  0  0  0  0  0  0
   39.3415   36.5725   20.3512 N   0  0  0  0  0  0  0  0  0  0  0  0
   41.4348   37.1066   20.2599 N   0  0  0  0  0  0  0  0  0  0  0  0
   43.0287   32.6270   16.2078 O   0  0  0  0  0  0  0  0  0  0  0  0
   39.3796   33.5510   15.5600 O   0  0  0  0  0  0  0  0  0  0  0  0
   44.9445   38.2572   20.0801 O   0  0  0  0  0  0  0  0  0  0  0  0
   43.9664   33.6594   14.2062 O   0  0  0  0  0  0  0  0  0  0  0  0
   39.6434   35.7814   14.8183 O   0  0  0  0  0  0  0  0  0  0  0  0
   45.7137   35.8012   19.7950 O   0  0  0  0  0  0  0  0  0  0  0  0
   41.6315   34.2354   14.7571 O   0  0  0  0  0  0  0  0  0  0  0  0
   40.5695   35.1743   16.9151 O   0  0  0  0  0  0  0  0  0  0  0  0
   42.7888   37.2799   18.3979 O   0  0  0  0  0  0  0  0  0  0  0  0
   43.5563   35.0682   16.3134 O   0  0  0  0  0  0  0  0  0  0  0  0
   43.0783   33.8327   15.3643 P   0  0  1  0  0  0  0  0  0  0  0  0
   40.2934   34.6916   15.5563 P   0  0  2  0  0  0  0  0  0  0  0  0
   43.1054   34.7818   24.4303 Cl  0  0  0  0  0  0  0  0  0  0  0  0
   42.4980   38.7837   20.0804 H   0  0  0  0  0  0  0  0  0  0  0  0
   43.8326   37.1756   21.5049 H   0  0  0  0  0  0  0  0  0  0  0  0
   43.8545   35.1452   20.2468 H   0  0  0  0  0  0  0  0  0  0  0  0
   44.6865   36.4944   17.6987 H   0  0  0  0  0  0  0  0  0  0  0  0
   43.8245   34.0903   18.1108 H   0  0  0  0  0  0  0  0  0  0  0  0
   42.2328   34.8614   17.8938 H   0  0  0  0  0  0  0  0  0  0  0  0
   40.0895   37.8438   18.7467 H   0  0  0  0  0  0  0  0  0  0  0  0
   38.0435   34.2001   23.5826 H   0  0  0  0  0  0  0  0  0  0  0  0
   37.5825   35.0842   22.1032 H   0  0  0  0  0  0  0  0  0  0  0  0
   45.3329   38.6272   20.9122 H   0  0  0  0  0  0  0  0  0  0  0  0
   46.0133   35.7544   20.7374 H   0  0  0  0  0  0  0  0  0  0  0  0
  1  3  1  0
  1 15  1  0
  1 24  1  0
  2 11  2  0
  2 12  1  0
  2 28  1  0
  3  4  1  0
  3 18  1  0
  4  6  1  0
  4 21  1  0
  5  7  1  0
  5 12  2  0
  5 15  1  0
  6  8  1  0
  6 24  1  0
  7  9  2  0
  7 14  1  0
  8 25  1  0
  9 11  1  0
  9 13  1  0
 10 14  2  0
 10 15  1  0
 16 26  2  0
 27 17  1  1
 26 19  1  6
 20 27  1  0
 22 26  1  0
 22 27  1  0
 23 27  2  0
 25 26  1  0
  1 29  1  6
  3 30  1  1
  4 31  1  1
  6 32  1  6
  8 33  1  0
  8 34  1  0
 10 35  1  0
 13 36  1  0
 13 37  1  0
 18 38  1  0
 21 39  1  0
M  CHG  3  17  -1  19  -1  20  -1
M  END
>  <filename_input>  (18) 
7MGT_ZD4_docked.sdf

>  <pdb_id>  (18) 
7MGT_ZD4

>  <pose_rank>  (18) 
17

>  <num_atoms_heavy>  (18) 
28

>  <num_torsions>  (18) 
6

>  <pose>  (18) 
[42.63128418582536, 37.72208356019306, 19.82512262520838, 4.121282240350109, -0.9733541641545067, 3.9058115150678825, -2.869073013502179, 19.2130624765422, 0.20156292540247017, 21.581897182333787, 6.754818219680097, 0.8664650316782032]

>  <energy>  (18) 
-400.3553369301095

>  <inter_energy>  (18) 
-458.227890659904

>  <intra_energy>  (18) 
57.003447917727314

>  <rmsd>  (18) 
5.22232

>  <sdf_rank>  (18) 
0

$$$$

     RDKit          3D

 39 41  0  0  0  0  0  0  0  0999 V2000
   45.9863   35.0343   16.6035 C   0  0  2  0  0  0  0  0  0  0  0  0
   41.7985   35.8216   17.3609 C   0  0  0  0  0  0  0  0  0  0  0  0
   47.2895   35.4061   15.9929 C   0  0  1  0  0  0  0  0  0  0  0  0
   47.2482   36.8548   15.7214 C   0  0  1  0  0  0  0  0  0  0  0  0
   43.6323   35.1816   16.1869 C   0  0  0  0  0  0  0  0  0  0  0  0
   46.4675   37.4085   16.8824 C   0  0  1  0  0  0  0  0  0  0  0  0
   42.7873   34.9414   15.0494 C   0  0  0  0  0  0  0  0  0  0  0  0
   45.5802   38.5529   16.5252 C   0  0  0  0  0  0  0  0  0  0  0  0
   41.4220   35.1777   15.2064 C   0  0  0  0  0  0  0  0  0  0  0  0
   44.9227   34.4843   14.5101 C   0  0  0  0  0  0  0  0  0  0  0  0
   40.9670   35.6197   16.3663 N   0  0  0  0  0  0  0  0  0  0  0  0
   43.0698   35.6026   17.2952 N   0  0  0  0  0  0  0  0  0  0  0  0
   40.5316   34.9701   14.0924 N   0  0  0  0  0  0  0  0  0  0  0  0
   43.6776   34.4754   13.9999 N   0  0  0  0  0  0  0  0  0  0  0  0
   44.8568   34.8732   15.7683 N   0  0  0  0  0  0  0  0  0  0  0  0
   45.2603   41.0500   18.2208 O   0  0  0  0  0  0  0  0  0  0  0  0
   41.7322   40.4754   20.9389 O   0  0  0  0  0  0  0  0  0  0  0  0
   48.3419   35.1878   16.9635 O   0  0  0  0  0  0  0  0  0  0  0  0
   46.2291   39.2353   19.5321 O   0  0  0  0  0  0  0  0  0  0  0  0
   42.9538   42.0266   19.6365 O   0  0  0  0  0  0  0  0  0  0  0  0
   48.5591   37.4253   15.6785 O   0  0  0  0  0  0  0  0  0  0  0  0
   43.8229   39.6725   19.8579 O   0  0  0  0  0  0  0  0  0  0  0  0
   43.8118   41.4169   21.7613 O   0  0  0  0  0  0  0  0  0  0  0  0
   45.6812   36.2560   17.4231 O   0  0  0  0  0  0  0  0  0  0  0  0
   44.6515   38.7131   17.5746 O   0  0  0  0  0  0  0  0  0  0  0  0
   45.0481   39.7127   18.7990 P   0  0  1  0  0  0  0  0  0  0  0  0
   43.0808   40.9178   20.5900 P   0  0  2  0  0  0  0  0  0  0  0  0
   41.2057   36.3964   18.9205 Cl  0  0  0  0  0  0  0  0  0  0  0  0
   46.1160   34.0497   17.0765 H   0  0  0  0  0  0  0  0  0  0  0  0
   47.4703   34.8156   15.0826 H   0  0  0  0  0  0  0  0  0  0  0  0
   46.7985   37.0827   14.7437 H   0  0  0  0  0  0  0  0  0  0  0  0
   47.1567   37.8335   17.6270 H   0  0  0  0  0  0  0  0  0  0  0  0
   46.1776   39.4693   16.4092 H   0  0  0  0  0  0  0  0  0  0  0  0
   45.0613   38.3588   15.5749 H   0  0  0  0  0  0  0  0  0  0  0  0
   45.8410   34.2129   13.9686 H   0  0  0  0  0  0  0  0  0  0  0  0
   39.5219   35.1426   14.2011 H   0  0  0  0  0  0  0  0  0  0  0  0
   40.9047   34.6491   13.1877 H   0  0  0  0  0  0  0  0  0  0  0  0
   47.9692   35.2651   17.8774 H   0  0  0  0  0  0  0  0  0  0  0  0
   48.8873   37.5681   16.6015 H   0  0  0  0  0  0  0  0  0  0  0  0
  1  3  1  0
  1 15  1  0
  1 24  1  0
  2 11  2  0
  2 12  1  0
  2 28  1  0
  3  4  1  0
  3 18  1  0
  4  6  1  0
  4 21  1  0
  5  7  1  0
  5 12  2  0
  5 15  1  0
  6  8  1  0
  6 24  1  0
  7  9  2  0
  7 14  1  0
  8 25  1  0
  9 11  1  0
  9 13  1  0
 10 14  2  0
 10 15  1  0
 16 26  2  0
 27 17  1  1
 26 19  1  1
 20 27  1  0
 22 26  1  0
 22 27  1  0
 23 27  2  0
 25 26  1  0
  1 29  1  1
  3 30  1  6
  4 31  1  6
  6 32  1  1
  8 33  1  0
  8 34  1  0
 10 35  1  0
 13 36  1  0
 13 37  1  0
 18 38  1  0
 21 39  1  0
M  CHG  3  17  -1  19  -1  20  -1
M  END
>  <filename_input>  (19) 
7MGT_ZD4_docked.sdf

>  <pdb_id>  (19) 
7MGT_ZD4

>  <pose_rank>  (19) 
18

>  <num_atoms_heavy>  (19) 
28

>  <num_torsions>  (19) 
6

>  <pose>  (19) 
[45.9862793895869, 35.03434212108166, 16.603506815570913, -3.93153886032077, -1.382237531150342, -0.4790291850099031, 0.5828266611005444, -0.4409452453087682, -1.363220735794189, -2.06818808353915, -0.9146999586823015, -0.9033673288725518]

>  <energy>  (19) 
-316.02623663645636

>  <inter_energy>  (19) 
-351.2656625221364

>  <intra_energy>  (19) 
34.4377225876717

>  <rmsd>  (19) 
8.65472

>  <sdf_rank>  (19) 
0

$$$$

     RDKit          3D

 39 41  0  0  0  0  0  0  0  0999 V2000
   44.3731   38.3377   18.0019 C   0  0  2  0  0  0  0  0  0  0  0  0
   42.0161   36.9282   21.3468 C   0  0  0  0  0  0  0  0  0  0  0  0
   45.5830   37.9522   18.7746 C   0  0  1  0  0  0  0  0  0  0  0  0
   46.2917   36.9222   17.9927 C   0  0  1  0  0  0  0  0  0  0  0  0
   42.6408   37.1759   19.1791 C   0  0  0  0  0  0  0  0  0  0  0  0
   46.0838   37.3571   16.5673 C   0  0  1  0  0  0  0  0  0  0  0  0
   41.5156   36.3704   18.7907 C   0  0  0  0  0  0  0  0  0  0  0  0
   45.9126   36.2278   15.6082 C   0  0  0  0  0  0  0  0  0  0  0  0
   40.6984   35.8808   19.8090 C   0  0  0  0  0  0  0  0  0  0  0  0
   42.6445   37.0203   16.9567 C   0  0  0  0  0  0  0  0  0  0  0  0
   40.9737   36.1824   21.0664 N   0  0  0  0  0  0  0  0  0  0  0  0
   42.8289   37.3965   20.4590 N   0  0  0  0  0  0  0  0  0  0  0  0
   39.5463   35.0823   19.4744 N   0  0  0  0  0  0  0  0  0  0  0  0
   41.5810   36.2911   17.3413 N   0  0  0  0  0  0  0  0  0  0  0  0
   43.2389   37.4939   18.0342 N   0  0  0  0  0  0  0  0  0  0  0  0
   44.9035   32.7810   16.0119 O   0  0  0  0  0  0  0  0  0  0  0  0
   41.2185   32.4489   15.4323 O   0  0  0  0  0  0  0  0  0  0  0  0
   46.4662   39.0961   18.8654 O   0  0  0  0  0  0  0  0  0  0  0  0
   45.0770   34.0777   13.9528 O   0  0  0  0  0  0  0  0  0  0  0  0
   42.5943   32.3678   13.5100 O   0  0  0  0  0  0  0  0  0  0  0  0
   47.6862   36.8812   18.3082 O   0  0  0  0  0  0  0  0  0  0  0  0
   42.9394   34.2258   15.1758 O   0  0  0  0  0  0  0  0  0  0  0  0
   40.8961   34.0195   13.6111 O   0  0  0  0  0  0  0  0  0  0  0  0
   44.8775   38.2420   16.5899 O   0  0  0  0  0  0  0  0  0  0  0  0
   45.0914   35.2642   16.2299 O   0  0  0  0  0  0  0  0  0  0  0  0
   44.5409   34.0292   15.3204 P   0  0  1  0  0  0  0  0  0  0  0  0
   41.8703   33.2698   14.4137 P   0  0  2  0  0  0  0  0  0  0  0  0
   42.4067   37.3273   23.0208 Cl  0  0  0  0  0  0  0  0  0  0  0  0
   44.0126   39.2918   18.4138 H   0  0  0  0  0  0  0  0  0  0  0  0
   45.3022   37.5960   19.7767 H   0  0  0  0  0  0  0  0  0  0  0  0
   45.9155   35.9096   18.2002 H   0  0  0  0  0  0  0  0  0  0  0  0
   46.9808   37.8782   16.2014 H   0  0  0  0  0  0  0  0  0  0  0  0
   45.4355   36.5883   14.6849 H   0  0  0  0  0  0  0  0  0  0  0  0
   46.8878   35.7931   15.3436 H   0  0  0  0  0  0  0  0  0  0  0  0
   42.9641   37.1923   15.9183 H   0  0  0  0  0  0  0  0  0  0  0  0
   38.9381   34.7174   20.2213 H   0  0  0  0  0  0  0  0  0  0  0  0
   39.3310   34.8766   18.4884 H   0  0  0  0  0  0  0  0  0  0  0  0
   46.6317   39.3105   19.8177 H   0  0  0  0  0  0  0  0  0  0  0  0
   47.8021   36.8778   19.2914 H   0  0  0  0  0  0  0  0  0  0  0  0
  1  3  1  0
  1 15  1  0
  1 24  1  0
  2 11  2  0
  2 12  1  0
  2 28  1  0
  3  4  1  0
  3 18  1  0
  4  6  1  0
  4 21  1  0
  5  7  1  0
  5 12  2  0
  5 15  1  0
  6  8  1  0
  6 24  1  0
  7  9  2  0
  7 14  1  0
  8 25  1  0
  9 11  1  0
  9 13  1  0
 10 14  2  0
 10 15  1  0
 16 26  2  0
 27 17  1  1
 26 19  1  6
 20 27  1  0
 22 26  1  0
 22 27  1  0
 23 27  2  0
 25 26  1  0
  1 29  1  1
  3 30  1  1
  4 31  1  6
  6 32  1  6
  8 33  1  0
  8 34  1  0
 10 35  1  0
 13 36  1  0
 13 37  1  0
 18 38  1  0
 21 39  1  0
M  CHG  3  17  -1  19  -1  20  -1
M  END
>  <filename_input>  (20) 
7MGT_ZD4_docked.sdf

>  <pdb_id>  (20) 
7MGT_ZD4

>  <pose_rank>  (20) 
19

>  <num_atoms_heavy>  (20) 
28

>  <num_torsions>  (20) 
6

>  <pose>  (20) 
[44.373081626289334, 38.3377153116974, 18.001894984675253, 2.820567557602645, 2.3114122668121504, 4.7573116670047915, -2.1286585259725226, 3.7069131930458035, 0.03300861065397525, -0.9030784018030558, -1.6913768727567478, -1.8647136019586033]

>  <energy>  (20) 
-398.9633115550762

>  <inter_energy>  (20) 
-421.38930670423

>  <intra_energy>  (20) 
24.867755441256154

>  <rmsd>  (20) 
6.47032

>  <sdf_rank>  (20) 
0

$$$$

     RDKit          3D

 39 41  0  0  0  0  0  0  0  0999 V2000
   44.9669   34.2940   14.6817 C   0  0  2  0  0  0  0  0  0  0  0  0
   40.9107   32.8110   14.9625 C   0  0  0  0  0  0  0  0  0  0  0  0
   46.2252   35.0605   14.4851 C   0  0  1  0  0  0  0  0  0  0  0  0
   46.5709   35.6738   15.7807 C   0  0  1  0  0  0  0  0  0  0  0  0
   42.5758   34.3455   14.8098 C   0  0  0  0  0  0  0  0  0  0  0  0
   46.1527   34.6344   16.7850 C   0  0  1  0  0  0  0  0  0  0  0  0
   41.5862   35.3860   14.8717 C   0  0  0  0  0  0  0  0  0  0  0  0
   45.5972   35.2011   18.0479 C   0  0  0  0  0  0  0  0  0  0  0  0
   40.2518   34.9937   14.9707 C   0  0  0  0  0  0  0  0  0  0  0  0
   43.6345   36.3038   14.7212 C   0  0  0  0  0  0  0  0  0  0  0  0
   39.9535   33.7066   15.0190 N   0  0  0  0  0  0  0  0  0  0  0  0
   42.1643   33.1000   14.8473 N   0  0  0  0  0  0  0  0  0  0  0  0
   39.2200   35.9963   15.0539 N   0  0  0  0  0  0  0  0  0  0  0  0
   42.3313   36.6311   14.7928 N   0  0  0  0  0  0  0  0  0  0  0  0
   43.7360   34.9891   14.7121 N   0  0  0  0  0  0  0  0  0  0  0  0
   44.4276   36.5882   20.1555 O   0  0  0  0  0  0  0  0  0  0  0  0
   43.0579   39.6247   20.7115 O   0  0  0  0  0  0  0  0  0  0  0  0
   47.2911   34.1369   14.1567 O   0  0  0  0  0  0  0  0  0  0  0  0
   42.4432   36.4889   18.7400 O   0  0  0  0  0  0  0  0  0  0  0  0
   43.8625   41.0321   18.9893 O   0  0  0  0  0  0  0  0  0  0  0  0
   47.9723   35.9400   15.8857 O   0  0  0  0  0  0  0  0  0  0  0  0
   43.8005   38.5442   18.5984 O   0  0  0  0  0  0  0  0  0  0  0  0
   45.4290   39.7358   20.2091 O   0  0  0  0  0  0  0  0  0  0  0  0
   45.1467   33.7789   16.0816 O   0  0  0  0  0  0  0  0  0  0  0  0
   44.7823   36.2979   17.6981 O   0  0  0  0  0  0  0  0  0  0  0  0
   43.8354   36.9453   18.8557 P   0  0  1  0  0  0  0  0  0  0  0  0
   44.0671   39.7431   19.6610 P   0  0  2  0  0  0  0  0  0  0  0  0
   40.5289   31.0887   15.0099 Cl  0  0  0  0  0  0  0  0  0  0  0  0
   44.8677   33.6047   13.8302 H   0  0  0  0  0  0  0  0  0  0  0  0
   46.0992   35.8093   13.6891 H   0  0  0  0  0  0  0  0  0  0  0  0
   46.0774   36.6460   15.9263 H   0  0  0  0  0  0  0  0  0  0  0  0
   47.0313   34.0626   17.1184 H   0  0  0  0  0  0  0  0  0  0  0  0
   44.9987   34.4399   18.5698 H   0  0  0  0  0  0  0  0  0  0  0  0
   46.4083   35.5197   18.7192 H   0  0  0  0  0  0  0  0  0  0  0  0
   44.4738   37.0134   14.6776 H   0  0  0  0  0  0  0  0  0  0  0  0
   38.2322   35.7139   15.1272 H   0  0  0  0  0  0  0  0  0  0  0  0
   39.4703   36.9953   15.0400 H   0  0  0  0  0  0  0  0  0  0  0  0
   47.6940   33.7879   14.9909 H   0  0  0  0  0  0  0  0  0  0  0  0
   48.2284   35.9887   16.8408 H   0  0  0  0  0  0  0  0  0  0  0  0
  1  3  1  0
  1 15  1  0
  1 24  1  0
  2 11  2  0
  2 12  1  0
  2 28  1  0
  3  4  1  0
  3 18  1  0
  4  6  1  0
  4 21  1  0
  5  7  1  0
  5 12  2  0
  5 15  1  0
  6  8  1  0
  6 24  1  0
  7  9  2  0
  7 14  1  0
  8 25  1  0
  9 11  1  0
  9 13  1  0
 10 14  2  0
 10 15  1  0
 16 26  2  0
 27 17  1  1
 26 19  1  1
 20 27  1  0
 22 26  1  0
 22 27  1  0
 23 27  2  0
 25 26  1  0
  1 29  1  6
  3 30  1  6
  4 31  1  1
  6 32  1  1
  8 33  1  0
  8 34  1  0
 10 35  1  0
 13 36  1  0
 13 37  1  0
 18 38  1  0
 21 39  1  0
M  CHG  3  17  -1  19  -1  20  -1
M  END
>  <filename_input>  (21) 
7MGT_ZD4_docked.sdf

>  <pdb_id>  (21) 
7MGT_ZD4

>  <pose_rank>  (21) 
20

>  <num_atoms_heavy>  (21) 
28

>  <num_torsions>  (21) 
6

>  <pose>  (21) 
[44.96690321005166, 34.29397586131082, 14.681701351707346, -2.803081625026375, -0.5051336142056675, -0.2756919036032438, -0.06149052741707267, -2.5894739651737155, 0.014808736972979755, -2.7201281291495376, -0.8519029390865069, 1.6155802679251983]

>  <energy>  (21) 
-349.4225502541226

>  <inter_energy>  (21) 
-362.7484689967325

>  <intra_energy>  (21) 
18.672319737256057

>  <rmsd>  (21) 
8.10441

>  <sdf_rank>  (21) 
0

$$$$

     RDKit          3D

 39 41  0  0  0  0  0  0  0  0999 V2000
   42.9264   30.1988   26.2776 C   0  0  2  0  0  0  0  0  0  0  0  0
   46.7347   30.1744   24.2216 C   0  0  0  0  0  0  0  0  0  0  0  0
   41.8649   30.1663   27.3176 C   0  0  1  0  0  0  0  0  0  0  0  0
   41.1205   31.4356   27.2228 C   0  0  1  0  0  0  0  0  0  0  0  0
   45.1884   30.7945   25.7627 C   0  0  0  0  0  0  0  0  0  0  0  0
   41.0969   31.7205   25.7455 C   0  0  1  0  0  0  0  0  0  0  0  0
   46.1294   31.7476   26.2842 C   0  0  0  0  0  0  0  0  0  0  0  0
   41.2032   33.1690   25.4061 C   0  0  0  0  0  0  0  0  0  0  0  0
   47.3811   31.8098   25.6728 C   0  0  0  0  0  0  0  0  0  0  0  0
   44.2100   31.8698   27.4508 C   0  0  0  0  0  0  0  0  0  0  0  0
   47.6450   31.0178   24.6476 N   0  0  0  0  0  0  0  0  0  0  0  0
   45.5644   30.0457   24.7527 N   0  0  0  0  0  0  0  0  0  0  0  0
   48.3565   32.7601   26.1444 N   0  0  0  0  0  0  0  0  0  0  0  0
   45.4445   32.4013   27.3864 N   0  0  0  0  0  0  0  0  0  0  0  0
   44.1056   30.9400   26.5217 N   0  0  0  0  0  0  0  0  0  0  0  0
   42.6336   34.5211   22.1524 O   0  0  0  0  0  0  0  0  0  0  0  0
   38.0630   35.0064   21.5253 O   0  0  0  0  0  0  0  0  0  0  0  0
   40.9318   29.1045   27.0029 O   0  0  0  0  0  0  0  0  0  0  0  0
   41.8909   35.8339   24.0698 O   0  0  0  0  0  0  0  0  0  0  0  0
   40.1018   34.9472   20.3277 O   0  0  0  0  0  0  0  0  0  0  0  0
   39.7900   31.3110   27.7328 O   0  0  0  0  0  0  0  0  0  0  0  0
   40.1467   34.6120   22.8241 O   0  0  0  0  0  0  0  0  0  0  0  0
   39.6294   36.8549   21.6544 O   0  0  0  0  0  0  0  0  0  0  0  0
   42.2351   30.9395   25.1683 O   0  0  0  0  0  0  0  0  0  0  0  0
   41.9185   33.2693   24.1947 O   0  0  0  0  0  0  0  0  0  0  0  0
   41.6991   34.6048   23.2870 P   0  0  1  0  0  0  0  0  0  0  0  0
   39.4704   35.3976   21.5739 P   0  0  2  0  0  0  0  0  0  0  0  0
   47.0760   29.0993   22.8645 Cl  0  0  0  0  0  0  0  0  0  0  0  0
   43.2795   29.1663   26.1387 H   0  0  0  0  0  0  0  0  0  0  0  0
   42.3065   30.0146   28.3136 H   0  0  0  0  0  0  0  0  0  0  0  0
   41.5863   32.2369   27.8152 H   0  0  0  0  0  0  0  0  0  0  0  0
   40.1257   31.4228   25.3234 H   0  0  0  0  0  0  0  0  0  0  0  0
   40.1988   33.6012   25.2861 H   0  0  0  0  0  0  0  0  0  0  0  0
   41.7196   33.7177   26.2075 H   0  0  0  0  0  0  0  0  0  0  0  0
   43.4208   32.1617   28.1593 H   0  0  0  0  0  0  0  0  0  0  0  0
   49.2831   32.8118   25.6976 H   0  0  0  0  0  0  0  0  0  0  0  0
   48.1270   33.3877   26.9283 H   0  0  0  0  0  0  0  0  0  0  0  0
   40.5852   28.7102   27.8423 H   0  0  0  0  0  0  0  0  0  0  0  0
   39.8144   31.3133   28.7225 H   0  0  0  0  0  0  0  0  0  0  0  0
  1  3  1  0
  1 15  1  0
  1 24  1  0
  2 11  2  0
  2 12  1  0
  2 28  1  0
  3  4  1  0
  3 18  1  0
  4  6  1  0
  4 21  1  0
  5  7  1  0
  5 12  2  0
  5 15  1  0
  6  8  1  0
  6 24  1  0
  7  9  2  0
  7 14  1  0
  8 25  1  0
  9 11  1  0
  9 13  1  0
 10 14  2  0
 10 15  1  0
 16 26  2  0
 27 17  1  6
 26 19  1  1
 20 27  1  0
 22 26  1  0
 22 27  1  0
 23 27  2  0
 25 26  1  0
  1 29  1  6
  3 30  1  1
  4 31  1  1
  6 32  1  6
  8 33  1  0
  8 34  1  0
 10 35  1  0
 13 36  1  0
 13 37  1  0
 18 38  1  0
 21 39  1  0
M  CHG  3  17  -1  19  -1  20  -1
M  END
>  <filename_input>  (22) 
7MGT_ZD4_docked.sdf

>  <pdb_id>  (22) 
7MGT_ZD4

>  <pose_rank>  (22) 
21

>  <num_atoms_heavy>  (22) 
28

>  <num_torsions>  (22) 
6

>  <pose>  (22) 
[42.9264429802429, 30.198755573448885, 26.277621664092596, 0.45654424056771803, -0.8664600852109011, 2.7385226948536308, -0.23286116540306717, -0.7368772176624784, -0.21009278614094348, -0.056733944725342135, -1.359529974259775, -0.5314220370193818]

>  <energy>  (22) 
-247.1656019711814

>  <inter_energy>  (22) 
-264.0069900665687

>  <intra_energy>  (22) 
17.277280549985385

>  <rmsd>  (22) 
10.1435

>  <sdf_rank>  (22) 
0

$$$$

     RDKit          3D

 39 41  0  0  0  0  0  0  0  0999 V2000
   42.4733   41.1177   26.6607 C   0  0  2  0  0  0  0  0  0  0  0  0
   39.0975   43.4425   28.0502 C   0  0  0  0  0  0  0  0  0  0  0  0
   43.4836   40.0280   26.6255 C   0  0  1  0  0  0  0  0  0  0  0  0
   43.4970   39.4880   25.2535 C   0  0  1  0  0  0  0  0  0  0  0  0
   40.2022   41.6491   27.2052 C   0  0  0  0  0  0  0  0  0  0  0  0
   43.2724   40.7028   24.3946 C   0  0  1  0  0  0  0  0  0  0  0  0
   38.9440   40.9652   27.0832 C   0  0  0  0  0  0  0  0  0  0  0  0
   42.4424   40.4431   23.1829 C   0  0  0  0  0  0  0  0  0  0  0  0
   37.8025   41.6476   27.5025 C   0  0  0  0  0  0  0  0  0  0  0  0
   40.5977   39.6375   26.3333 C   0  0  0  0  0  0  0  0  0  0  0  0
   37.9155   42.8783   27.9721 N   0  0  0  0  0  0  0  0  0  0  0  0
   40.1985   42.8634   27.7027 N   0  0  0  0  0  0  0  0  0  0  0  0
   36.5128   41.0153   27.3860 N   0  0  0  0  0  0  0  0  0  0  0  0
   39.2666   39.6614   26.5288 N   0  0  0  0  0  0  0  0  0  0  0  0
   41.1027   40.7819   26.7504 N   0  0  0  0  0  0  0  0  0  0  0  0
   43.6436   38.3158   20.2667 O   0  0  0  0  0  0  0  0  0  0  0  0
   41.2273   36.2654   20.0612 O   0  0  0  0  0  0  0  0  0  0  0  0
   44.7938   40.5946   26.8695 O   0  0  0  0  0  0  0  0  0  0  0  0
   41.4743   39.4187   20.4375 O   0  0  0  0  0  0  0  0  0  0  0  0
   39.9114   36.0772   22.0176 O   0  0  0  0  0  0  0  0  0  0  0  0
   44.7485   38.8720   24.9368 O   0  0  0  0  0  0  0  0  0  0  0  0
   41.9188   37.5990   22.0430 O   0  0  0  0  0  0  0  0  0  0  0  0
   42.0337   35.0204   21.9813 O   0  0  0  0  0  0  0  0  0  0  0  0
   42.6292   41.7140   25.2905 O   0  0  0  0  0  0  0  0  0  0  0  0
   43.2726   39.8249   22.2248 O   0  0  0  0  0  0  0  0  0  0  0  0
   42.5830   38.7913   21.1704 P   0  0  1  0  0  0  0  0  0  0  0  0
   41.2871   36.1973   21.5199 P   0  0  2  0  0  0  0  0  0  0  0  0
   39.2679   45.0787   28.6889 Cl  0  0  0  0  0  0  0  0  0  0  0  0
   42.6660   41.7129   27.5655 H   0  0  0  0  0  0  0  0  0  0  0  0
   43.2460   39.2586   27.3748 H   0  0  0  0  0  0  0  0  0  0  0  0
   42.7402   38.7032   25.1074 H   0  0  0  0  0  0  0  0  0  0  0  0
   44.2314   41.0532   23.9854 H   0  0  0  0  0  0  0  0  0  0  0  0
   41.6036   39.7786   23.4376 H   0  0  0  0  0  0  0  0  0  0  0  0
   42.0284   41.3827   22.7883 H   0  0  0  0  0  0  0  0  0  0  0  0
   41.1684   38.8036   25.8986 H   0  0  0  0  0  0  0  0  0  0  0  0
   35.6653   41.5133   27.6937 H   0  0  0  0  0  0  0  0  0  0  0  0
   36.4385   40.0653   26.9950 H   0  0  0  0  0  0  0  0  0  0  0  0
   44.9480   40.6613   27.8452 H   0  0  0  0  0  0  0  0  0  0  0  0
   45.2226   38.6386   25.7740 H   0  0  0  0  0  0  0  0  0  0  0  0
  1  3  1  0
  1 15  1  0
  1 24  1  0
  2 11  2  0
  2 12  1  0
  2 28  1  0
  3  4  1  0
  3 18  1  0
  4  6  1  0
  4 21  1  0
  5  7  1  0
  5 12  2  0
  5 15  1  0
  6  8  1  0
  6 24  1  0
  7  9  2  0
  7 14  1  0
  8 25  1  0
  9 11  1  0
  9 13  1  0
 10 14  2  0
 10 15  1  0
 16 26  2  0
 27 17  1  6
 26 19  1  6
 20 27  1  0
 22 26  1  0
 22 27  1  0
 23 27  2  0
 25 26  1  0
  1 29  1  1
  3 30  1  1
  4 31  1  1
  6 32  1  6
  8 33  1  0
  8 34  1  0
 10 35  1  0
 13 36  1  0
 13 37  1  0
 18 38  1  0
 21 39  1  0
M  CHG  3  17  -1  19  -1  20  -1
M  END
>  <filename_input>  (23) 
7MGT_ZD4_docked.sdf

>  <pdb_id>  (23) 
7MGT_ZD4

>  <pose_rank>  (23) 
22

>  <num_atoms_heavy>  (23) 
28

>  <num_torsions>  (23) 
6

>  <pose>  (23) 
[42.473261982478846, 41.11773771886954, 26.66074106673315, -2.595740283698814, -2.041446314643468, 4.378935310886732, -0.3742039803459735, 1.6222231042029664, -6.602808911512354, 0.0029885074823245475, -1.5588620292374684, 2.5282141734277457]

>  <energy>  (23) 
-182.96302813717674

>  <inter_energy>  (23) 
-198.5852330896198

>  <intra_energy>  (23) 
21.915753777350837

>  <rmsd>  (23) 
8.94038

>  <sdf_rank>  (23) 
0

$$$$

     RDKit          3D

 39 41  0  0  0  0  0  0  0  0999 V2000
   39.1504   26.4235   23.9130 C   0  0  2  0  0  0  0  0  0  0  0  0
   39.6379   25.1589   19.8027 C   0  0  0  0  0  0  0  0  0  0  0  0
   38.5195   25.4257   24.8161 C   0  0  1  0  0  0  0  0  0  0  0  0
   39.3114   25.3988   26.0598 C   0  0  1  0  0  0  0  0  0  0  0  0
   40.2600   25.7030   21.9164 C   0  0  0  0  0  0  0  0  0  0  0  0
   39.7202   26.8346   26.2480 C   0  0  1  0  0  0  0  0  0  0  0  0
   41.6295   25.4791   21.5424 C   0  0  0  0  0  0  0  0  0  0  0  0
   41.0858   27.0053   26.8228 C   0  0  0  0  0  0  0  0  0  0  0  0
   41.8758   25.0754   20.2306 C   0  0  0  0  0  0  0  0  0  0  0  0
   41.5331   26.1204   23.6963 C   0  0  0  0  0  0  0  0  0  0  0  0
   40.8634   24.9320   19.3926 N   0  0  0  0  0  0  0  0  0  0  0  0
   39.3332   25.5123   21.0072 N   0  0  0  0  0  0  0  0  0  0  0  0
   43.2324   24.8540   19.7974 N   0  0  0  0  0  0  0  0  0  0  0  0
   42.4050   25.7488   22.7412 N   0  0  0  0  0  0  0  0  0  0  0  0
   40.3145   26.0627   23.1960 N   0  0  0  0  0  0  0  0  0  0  0  0
   42.2035   28.1559   29.1231 O   0  0  0  0  0  0  0  0  0  0  0  0
   44.9998   29.8840   28.8418 O   0  0  0  0  0  0  0  0  0  0  0  0
   37.1926   25.8855   25.1698 O   0  0  0  0  0  0  0  0  0  0  0  0
   40.4904   29.8342   28.6754 O   0  0  0  0  0  0  0  0  0  0  0  0
   44.8733   31.4791   27.1000 O   0  0  0  0  0  0  0  0  0  0  0  0
   38.5368   24.9457   27.1735 O   0  0  0  0  0  0  0  0  0  0  0  0
   42.7627   30.3262   27.8499 O   0  0  0  0  0  0  0  0  0  0  0  0
   44.6730   29.1832   26.5420 O   0  0  0  0  0  0  0  0  0  0  0  0
   39.6153   27.4623   24.8939 O   0  0  0  0  0  0  0  0  0  0  0  0
   41.4012   28.3788   26.7660 O   0  0  0  0  0  0  0  0  0  0  0  0
   41.6912   29.1541   28.1697 P   0  0  1  0  0  0  0  0  0  0  0  0
   44.3555   30.1868   27.5654 P   0  0  2  0  0  0  0  0  0  0  0  0
   38.2738   24.9571   18.7016 Cl  0  0  0  0  0  0  0  0  0  0  0  0
   38.4158   26.6674   23.1314 H   0  0  0  0  0  0  0  0  0  0  0  0
   38.4736   24.4405   24.3290 H   0  0  0  0  0  0  0  0  0  0  0  0
   40.1636   24.7063   25.9959 H   0  0  0  0  0  0  0  0  0  0  0  0
   39.0626   27.3161   26.9868 H   0  0  0  0  0  0  0  0  0  0  0  0
   41.0997   26.6596   27.8670 H   0  0  0  0  0  0  0  0  0  0  0  0
   41.8211   26.4152   26.2561 H   0  0  0  0  0  0  0  0  0  0  0  0
   41.7932   26.4217   24.7218 H   0  0  0  0  0  0  0  0  0  0  0  0
   43.4219   24.5557   18.8299 H   0  0  0  0  0  0  0  0  0  0  0  0
   44.0124   24.9940   20.4553 H   0  0  0  0  0  0  0  0  0  0  0  0
   37.1056   25.9157   26.1555 H   0  0  0  0  0  0  0  0  0  0  0  0
   38.9854   25.2082   28.0161 H   0  0  0  0  0  0  0  0  0  0  0  0
  1  3  1  0
  1 15  1  0
  1 24  1  0
  2 11  2  0
  2 12  1  0
  2 28  1  0
  3  4  1  0
  3 18  1  0
  4  6  1  0
  4 21  1  0
  5  7  1  0
  5 12  2  0
  5 15  1  0
  6  8  1  0
  6 24  1  0
  7  9  2  0
  7 14  1  0
  8 25  1  0
  9 11  1  0
  9 13  1  0
 10 14  2  0
 10 15  1  0
 16 26  2  0
 27 17  1  1
 26 19  1  1
 20 27  1  0
 22 26  1  0
 22 27  1  0
 23 27  2  0
 25 26  1  0
  1 29  1  6
  3 30  1  6
  4 31  1  6
  6 32  1  1
  8 33  1  0
  8 34  1  0
 10 35  1  0
 13 36  1  0
 13 37  1  0
 18 38  1  0
 21 39  1  0
M  CHG  3  17  -1  19  -1  20  -1
M  END
>  <filename_input>  (24) 
7MGT_ZD4_docked.sdf

>  <pdb_id>  (24) 
7MGT_ZD4

>  <pose_rank>  (24) 
23

>  <num_atoms_heavy>  (24) 
28

>  <num_torsions>  (24) 
6

>  <pose>  (24) 
[39.15040278584324, 26.423530940754674, 23.912957175638134, -1.630700138211739, 3.5327964492814603, -1.133257031158597, -1.388212677968718, -6.576325763873634, -0.863057674145902, -2.6322251771858602, 0.11356382833865564, 1.3997947575613574]

>  <energy>  (24) 
-182.39512243647613

>  <inter_energy>  (24) 
-203.52838996363477

>  <intra_energy>  (24) 
25.682945401363586

>  <rmsd>  (24) 
11.8009

>  <sdf_rank>  (24) 
0

$$$$

     RDKit          3D

 39 41  0  0  0  0  0  0  0  0999 V2000
   40.3653   28.1292   28.2530 C   0  0  2  0  0  0  0  0  0  0  0  0
   40.9590   31.8209   26.0736 C   0  0  0  0  0  0  0  0  0  0  0  0
   39.3450   27.9263   27.1912 C   0  0  1  0  0  0  0  0  0  0  0  0
   39.8109   26.8133   26.3436 C   0  0  1  0  0  0  0  0  0  0  0  0
   41.5295   29.9694   27.2555 C   0  0  0  0  0  0  0  0  0  0  0  0
   40.4699   25.8782   27.3210 C   0  0  1  0  0  0  0  0  0  0  0  0
   42.9028   30.3896   27.1998 C   0  0  0  0  0  0  0  0  0  0  0  0
   41.6743   25.1855   26.7789 C   0  0  0  0  0  0  0  0  0  0  0  0
   43.1811   31.5754   26.5210 C   0  0  0  0  0  0  0  0  0  0  0  0
   42.7517   28.4630   28.3511 C   0  0  0  0  0  0  0  0  0  0  0  0
   42.1906   32.2631   25.9789 N   0  0  0  0  0  0  0  0  0  0  0  0
   40.6300   30.7212   26.6659 N   0  0  0  0  0  0  0  0  0  0  0  0
   44.5392   32.0523   26.4498 N   0  0  0  0  0  0  0  0  0  0  0  0
   43.6481   29.3652   27.9116 N   0  0  0  0  0  0  0  0  0  0  0  0
   41.5535   28.8289   27.9400 N   0  0  0  0  0  0  0  0  0  0  0  0
   44.0800   24.8590   24.5521 O   0  0  0  0  0  0  0  0  0  0  0  0
   45.8506   29.2717   24.6527 O   0  0  0  0  0  0  0  0  0  0  0  0
   38.1057   27.4990   27.8065 O   0  0  0  0  0  0  0  0  0  0  0  0
   44.5535   25.8055   26.7501 O   0  0  0  0  0  0  0  0  0  0  0  0
   45.5734   27.8081   22.8154 O   0  0  0  0  0  0  0  0  0  0  0  0
   38.7256   26.1621   25.6774 O   0  0  0  0  0  0  0  0  0  0  0  0
   44.2229   27.4084   24.9040 O   0  0  0  0  0  0  0  0  0  0  0  0
   46.7688   27.0265   24.7081 O   0  0  0  0  0  0  0  0  0  0  0  0
   40.8123   26.7181   28.5110 O   0  0  0  0  0  0  0  0  0  0  0  0
   42.1975   25.9907   25.7458 O   0  0  0  0  0  0  0  0  0  0  0  0
   43.8071   25.9578   25.4932 P   0  0  1  0  0  0  0  0  0  0  0  0
   45.6484   27.8730   24.2799 P   0  0  2  0  0  0  0  0  0  0  0  0
   39.6270   32.7184   25.3424 Cl  0  0  0  0  0  0  0  0  0  0  0  0
   39.8970   28.7315   29.0453 H   0  0  0  0  0  0  0  0  0  0  0  0
   39.1963   28.8535   26.6183 H   0  0  0  0  0  0  0  0  0  0  0  0
   40.4835   27.1532   25.5423 H   0  0  0  0  0  0  0  0  0  0  0  0
   39.7841   25.0552   27.5706 H   0  0  0  0  0  0  0  0  0  0  0  0
   42.4246   25.0596   27.5735 H   0  0  0  0  0  0  0  0  0  0  0  0
   41.4087   24.1889   26.3966 H   0  0  0  0  0  0  0  0  0  0  0  0
   42.9802   27.5705   28.9521 H   0  0  0  0  0  0  0  0  0  0  0  0
   44.7522   32.9274   25.9501 H   0  0  0  0  0  0  0  0  0  0  0  0
   45.2968   31.5179   26.8985 H   0  0  0  0  0  0  0  0  0  0  0  0
   38.1982   27.5309   28.7916 H   0  0  0  0  0  0  0  0  0  0  0  0
   38.1024   25.7882   26.3496 H   0  0  0  0  0  0  0  0  0  0  0  0
  1  3  1  0
  1 15  1  0
  1 24  1  0
  2 11  2  0
  2 12  1  0
  2 28  1  0
  3  4  1  0
  3 18  1  0
  4  6  1  0
  4 21  1  0
  5  7  1  0
  5 12  2  0
  5 15  1  0
  6  8  1  0
  6 24  1  0
  7  9  2  0
  7 14  1  0
  8 25  1  0
  9 11  1  0
  9 13  1  0
 10 14  2  0
 10 15  1  0
 16 26  2  0
 27 17  1  6
 26 19  1  1
 20 27  1  0
 22 26  1  0
 22 27  1  0
 23 27  2  0
 25 26  1  0
  1 29  1  1
  3 30  1  6
  4 31  1  6
  6 32  1  1
  8 33  1  0
  8 34  1  0
 10 35  1  0
 13 36  1  0
 13 37  1  0
 18 38  1  0
 21 39  1  0
M  CHG  3  17  -1  19  -1  20  -1
M  END
>  <filename_input>  (25) 
7MGT_ZD4_docked.sdf

>  <pdb_id>  (25) 
7MGT_ZD4

>  <pose_rank>  (25) 
24

>  <num_atoms_heavy>  (25) 
28

>  <num_torsions>  (25) 
6

>  <pose>  (25) 
[40.36529500091703, 28.129156780088774, 28.252960001352445, -1.37220810435551, 1.9724845139608964, 1.9470942626801702, 3.950171915969649, 3.4247735465247025, -0.3389547965191824, -1.5763888602935403, -1.5613562563653665, -6.1403503450272146]

>  <energy>  (25) 
-171.8637885139507

>  <inter_energy>  (25) 
-180.66734560229355

>  <intra_energy>  (25) 
12.312326612840243

>  <rmsd>  (25) 
11.3879

>  <sdf_rank>  (25) 
0

$$$$

     RDKit          3D

 39 41  0  0  0  0  0  0  0  0999 V2000
   38.3300   35.9070   21.2950 C   0  0  2  0  0  0  0  0  0  0  0  0
   34.2620   35.6350   19.8430 C   0  0  0  0  0  0  0  0  0  0  0  0
   39.6820   35.7240   21.8850 C   0  0  1  0  0  0  0  0  0  0  0  0
   40.4950   34.9910   20.8970 C   0  0  1  0  0  0  0  0  0  0  0  0
   36.1970   34.9360   20.8010 C   0  0  0  0  0  0  0  0  0  0  0  0
   40.0200   35.5350   19.5770 C   0  0  1  0  0  0  0  0  0  0  0  0
   35.6200   33.6280   20.9490 C   0  0  0  0  0  0  0  0  0  0  0  0
   39.9810   34.5220   18.4830 C   0  0  0  0  0  0  0  0  0  0  0  0
   34.3120   33.4520   20.4990 C   0  0  0  0  0  0  0  0  0  0  0  0
   37.7220   33.6180   21.7500 C   0  0  0  0  0  0  0  0  0  0  0  0
   33.6700   34.4690   19.9500 N   0  0  0  0  0  0  0  0  0  0  0  0
   35.4610   35.8770   20.2580 N   0  0  0  0  0  0  0  0  0  0  0  0
   33.6910   32.1560   20.6070 N   0  0  0  0  0  0  0  0  0  0  0  0
   36.6490   32.8230   21.5850 N   0  0  0  0  0  0  0  0  0  0  0  0
   37.4210   34.8240   21.3100 N   0  0  0  0  0  0  0  0  0  0  0  0
   39.5340   35.3090   14.7880 O   0  0  0  0  0  0  0  0  0  0  0  0
   43.7440   33.8390   14.8500 O   0  0  0  0  0  0  0  0  0  0  0  0
   40.2980   37.0230   22.0590 O   0  0  0  0  0  0  0  0  0  0  0  0
   39.1050   33.1590   15.8580 O   0  0  0  0  0  0  0  0  0  0  0  0
   43.3200   35.4480   16.5310 O   0  0  0  0  0  0  0  0  0  0  0  0
   41.8930   35.2390   21.0700 O   0  0  0  0  0  0  0  0  0  0  0  0
   41.4510   33.9210   15.8090 O   0  0  0  0  0  0  0  0  0  0  0  0
   42.4330   35.8220   14.3640 O   0  0  0  0  0  0  0  0  0  0  0  0
   38.6620   36.1040   19.8430 O   0  0  0  0  0  0  0  0  0  0  0  0
   39.7180   35.2080   17.2790 O   0  0  0  0  0  0  0  0  0  0  0  0
   39.9030   34.3930   15.8800 P   0  0  1  0  0  0  0  0  0  0  0  0
   42.7490   34.7840   15.3530 P   0  0  2  0  0  0  0  0  0  0  0  0
   33.4140   37.0070   19.1270 Cl  0  0  0  0  0  0  0  0  0  0  0  0
   37.8242   36.6932   21.8747 H   0  0  0  0  0  0  0  0  0  0  0  0
   39.6138   35.1931   22.8460 H   0  0  0  0  0  0  0  0  0  0  0  0
   40.3784   33.9010   20.9882 H   0  0  0  0  0  0  0  0  0  0  0  0
   40.7282   36.2918   19.2085 H   0  0  0  0  0  0  0  0  0  0  0  0
   40.9490   34.0039   18.4163 H   0  0  0  0  0  0  0  0  0  0  0  0
   39.2021   33.7703   18.6787 H   0  0  0  0  0  0  0  0  0  0  0  0
   38.6877   33.3132   22.1796 H   0  0  0  0  0  0  0  0  0  0  0  0
   32.7251   32.0186   20.2767 H   0  0  0  0  0  0  0  0  0  0  0  0
   34.2130   31.3671   21.0145 H   0  0  0  0  0  0  0  0  0  0  0  0
   40.3903   37.2177   23.0253 H   0  0  0  0  0  0  0  0  0  0  0  0
   42.1044   35.2765   22.0364 H   0  0  0  0  0  0  0  0  0  0  0  0
  1  3  1  0
  1 15  1  0
  1 24  1  0
  2 11  2  0
  2 12  1  0
  2 28  1  0
  3  4  1  0
  3 18  1  0
  4  6  1  0
  4 21  1  0
  5  7  1  0
  5 12  2  0
  5 15  1  0
  6  8  1  0
  6 24  1  0
  7  9  2  0
  7 14  1  0
  8 25  1  0
  9 11  1  0
  9 13  1  0
 10 14  2  0
 10 15  1  0
 16 26  2  0
 27 17  1  6
 26 19  1  1
 20 27  1  0
 22 26  1  0
 22 27  1  0
 23 27  2  0
 25 26  1  0
  1 29  1  1
  3 30  1  1
  4 31  1  6
  6 32  1  6
  8 33  1  0
  8 34  1  0
 10 35  1  0
 13 36  1  0
 13 37  1  0
 18 38  1  0
 21 39  1  0
M  CHG  3  17  -1  19  -1  20  -1
M  END
>  <filename_input>  (26) 
7MGT_ZD4_docked.sdf

>  <pdb_id>  (26) 
7MGT_ZD4

>  <pose_rank>  (26) 
25

>  <num_atoms_heavy>  (26) 
28

>  <num_torsions>  (26) 
6

>  <pose>  (26) 
[38.33, 35.907, 21.295, 1e-06, 1e-06, 1e-06, 0.0, 0.0, 0.0, 0.0, 0.0, 0.0]

>  <energy>  (26) 
-905.6035502330676

>  <inter_energy>  (26) 
-913.9732139587722

>  <intra_energy>  (26) 
18.291558334474225

>  <rmsd>  (26) 
0.0

>  <sdf_rank>  (26) 
0

$$$$
