
     RDKit          3D

 47 48  0  0  0  0  0  0  0  0999 V2000
   23.6437  -30.1839  278.2546 C   0  0  1  0  0  0  0  0  0  0  0  0
   24.9852  -30.6363  277.7441 C   0  0  0  0  0  0  0  0  0  0  0  0
   25.2994  -30.8276  276.4580 C   0  0  0  0  0  0  0  0  0  0  0  0
   26.7441  -30.9480  275.9802 C   0  0  0  0  0  0  0  0  0  0  0  0
   24.3050  -30.6276  275.3414 C   0  0  2  0  0  0  0  0  0  0  0  0
   23.7054  -31.6814  273.2404 C   0  0  1  0  0  0  0  0  0  0  0  0
   23.3148  -33.0383  272.6019 C   0  0  1  0  0  0  0  0  0  0  0  0
   24.5791  -33.9369  272.3839 C   0  0  2  0  0  0  0  0  0  0  0  0
   25.6305  -33.1594  271.5331 C   0  0  1  0  0  0  0  0  0  0  0  0
   25.9742  -31.8742  272.3588 C   0  0  1  0  0  0  0  0  0  0  0  0
   27.0495  -30.9619  271.6202 C   0  0  0  0  0  0  0  0  0  0  0  0
   22.8967  -30.0698  275.8356 C   0  0  1  0  0  0  0  0  0  0  0  0
   22.5476  -30.5658  277.2354 C   0  0  1  0  0  0  0  0  0  0  0  0
   23.4219  -30.8437  279.5315 N   0  0  0  0  0  0  0  0  0  0  0  0
   27.2588  -29.6635  275.7183 O   0  0  0  0  0  0  0  0  0  0  0  0
   24.0673  -31.8455  274.6204 O   0  0  0  0  0  0  0  0  0  0  0  0
   22.4584  -33.6865  273.5196 O   0  0  0  0  0  0  0  0  0  0  0  0
   24.2000  -35.0691  271.6370 O   0  0  0  0  0  0  0  0  0  0  0  0
   26.7850  -33.9843  271.4190 O   0  0  0  0  0  0  0  0  0  0  0  0
   26.7928  -31.0736  270.2277 O   0  0  0  0  0  0  0  0  0  0  0  0
   24.7841  -31.1007  272.5428 O   0  0  0  0  0  0  0  0  0  0  0  0
   23.0649  -28.6842  275.9938 O   0  0  0  0  0  0  0  0  0  0  0  0
   22.3897  -31.9608  277.1154 O   0  0  0  0  0  0  0  0  0  0  0  0
   23.6119  -29.0923  278.3865 H   0  0  0  0  0  0  0  0  0  0  0  0
   25.7717  -30.8252  278.4896 H   0  0  0  0  0  0  0  0  0  0  0  0
   27.3492  -31.4340  276.7597 H   0  0  0  0  0  0  0  0  0  0  0  0
   26.7780  -31.5518  275.0613 H   0  0  0  0  0  0  0  0  0  0  0  0
   24.7705  -29.8750  274.6881 H   0  0  0  0  0  0  0  0  0  0  0  0
   22.8291  -31.0195  273.1784 H   0  0  0  0  0  0  0  0  0  0  0  0
   22.8354  -32.8724  271.6258 H   0  0  0  0  0  0  0  0  0  0  0  0
   24.9991  -34.2167  273.3613 H   0  0  0  0  0  0  0  0  0  0  0  0
   25.2692  -32.8989  270.5274 H   0  0  0  0  0  0  0  0  0  0  0  0
   26.3934  -32.2009  273.3219 H   0  0  0  0  0  0  0  0  0  0  0  0
   26.9440  -29.9155  271.9423 H   0  0  0  0  0  0  0  0  0  0  0  0
   28.0734  -31.2842  271.8606 H   0  0  0  0  0  0  0  0  0  0  0  0
   22.1237  -30.3803  275.1172 H   0  0  0  0  0  0  0  0  0  0  0  0
   21.6270  -30.1005  277.6174 H   0  0  0  0  0  0  0  0  0  0  0  0
   23.6413  -30.1912  280.2978 H   0  0  0  0  0  0  0  0  0  0  0  0
   22.4365  -31.1355  279.6006 H   0  0  0  0  0  0  0  0  0  0  0  0
   24.0308  -31.6715  279.6006 H   0  0  0  0  0  0  0  0  0  0  0  0
   27.4440  -29.2014  276.5740 H   0  0  0  0  0  0  0  0  0  0  0  0
   22.7419  -33.4720  274.4436 H   0  0  0  0  0  0  0  0  0  0  0  0
   23.9540  -35.8038  272.2533 H   0  0  0  0  0  0  0  0  0  0  0  0
   27.1135  -34.2191  272.3230 H   0  0  0  0  0  0  0  0  0  0  0  0
   25.8940  -31.4646  270.0881 H   0  0  0  0  0  0  0  0  0  0  0  0
   23.0917  -28.4631  276.9584 H   0  0  0  0  0  0  0  0  0  0  0  0
   22.3438  -32.3665  278.0173 H   0  0  0  0  0  0  0  0  0  0  0  0
  1  2  1  0
  1 13  1  0
  1 14  1  0
  2  3  2  0
  3  4  1  0
  3  5  1  0
  4 15  1  0
  5 12  1  0
  5 16  1  0
  6  7  1  0
  6 16  1  0
  6 21  1  0
  7  8  1  0
  7 17  1  0
  8  9  1  0
  8 18  1  0
  9 10  1  0
  9 19  1  0
 10 11  1  0
 10 21  1  0
 11 20  1  0
 12 13  1  0
 12 22  1  0
 13 23  1  0
  1 24  1  1
  2 25  1  0
  4 26  1  0
  4 27  1  0
  5 28  1  6
  6 29  1  1
  7 30  1  6
  8 31  1  1
  9 32  1  6
 10 33  1  1
 11 34  1  0
 11 35  1  0
 12 36  1  6
 13 37  1  1
 14 38  1  0
 14 39  1  0
 14 40  1  0
 15 41  1  0
 17 42  1  0
 18 43  1  0
 19 44  1  0
 20 45  1  0
 22 46  1  0
 23 47  1  0
M  CHG  1  14   1
M  END
>  <filename_input>  (1) 
7MGY_ZD1_docked.sdf

>  <pdb_id>  (1) 
7MGY_ZD1

>  <pose_rank>  (1) 
0

>  <num_atoms_heavy>  (1) 
23

>  <num_torsions>  (1) 
4

>  <pose>  (1) 
[24.067273178500617, -31.8454592025166, 274.62037762963433, -2.1619211830653606, -3.74805710641801, 4.462262509633187, -0.07569553027424607, 0.23727720774164096, 24.956588524912906, -0.6171738959659276]

>  <energy>  (1) 
-1064.3574856108512

>  <inter_energy>  (1) 
-1043.2834568258945

>  <intra_energy>  (1) 
2.734523462865616

>  <rmsd>  (1) 
0.333615

>  <sdf_rank>  (1) 
0

$$$$

     RDKit          3D

 47 48  0  0  0  0  0  0  0  0999 V2000
   24.0144  -30.1081  277.9890 C   0  0  1  0  0  0  0  0  0  0  0  0
   23.4681  -29.5390  276.7075 C   0  0  0  0  0  0  0  0  0  0  0  0
   22.9781  -30.2552  275.6896 C   0  0  0  0  0  0  0  0  0  0  0  0
   22.1347  -29.6286  274.5823 C   0  0  0  0  0  0  0  0  0  0  0  0
   22.9391  -31.7632  275.7032 C   0  0  2  0  0  0  0  0  0  0  0  0
   23.7951  -31.5408  273.4443 C   0  0  1  0  0  0  0  0  0  0  0  0
   23.4496  -32.4014  272.2028 C   0  0  1  0  0  0  0  0  0  0  0  0
   24.6152  -33.3934  271.8699 C   0  0  2  0  0  0  0  0  0  0  0  0
   25.9434  -32.5952  271.6900 C   0  0  1  0  0  0  0  0  0  0  0  0
   26.1835  -31.8630  273.0530 C   0  0  1  0  0  0  0  0  0  0  0  0
   27.5182  -30.9956  273.0358 C   0  0  0  0  0  0  0  0  0  0  0  0
   23.4338  -32.4003  277.0772 C   0  0  1  0  0  0  0  0  0  0  0  0
   24.5110  -31.5501  277.7435 C   0  0  1  0  0  0  0  0  0  0  0  0
   25.1052  -29.2458  278.4149 N   0  0  0  0  0  0  0  0  0  0  0  0
   20.7796  -29.9544  274.7852 O   0  0  0  0  0  0  0  0  0  0  0  0
   23.7343  -32.3224  274.6474 O   0  0  0  0  0  0  0  0  0  0  0  0
   22.3030  -33.1553  272.5386 O   0  0  0  0  0  0  0  0  0  0  0  0
   24.3363  -34.0135  270.6365 O   0  0  0  0  0  0  0  0  0  0  0  0
   26.9833  -33.5391  271.4580 O   0  0  0  0  0  0  0  0  0  0  0  0
   27.6567  -30.4847  271.7178 O   0  0  0  0  0  0  0  0  0  0  0  0
   25.0842  -30.9849  273.3157 O   0  0  0  0  0  0  0  0  0  0  0  0
   22.3403  -32.3199  277.9552 O   0  0  0  0  0  0  0  0  0  0  0  0
   25.6203  -31.5946  276.8758 O   0  0  0  0  0  0  0  0  0  0  0  0
   23.2421  -30.1493  278.7712 H   0  0  0  0  0  0  0  0  0  0  0  0
   23.4720  -28.4444  276.5989 H   0  0  0  0  0  0  0  0  0  0  0  0
   22.2563  -28.5356  274.6023 H   0  0  0  0  0  0  0  0  0  0  0  0
   22.4635  -30.0154  273.6064 H   0  0  0  0  0  0  0  0  0  0  0  0
   21.8772  -32.0137  275.5628 H   0  0  0  0  0  0  0  0  0  0  0  0
   23.0514  -30.7327  273.5069 H   0  0  0  0  0  0  0  0  0  0  0  0
   23.2853  -31.7544  271.3286 H   0  0  0  0  0  0  0  0  0  0  0  0
   24.7098  -34.1289  272.6823 H   0  0  0  0  0  0  0  0  0  0  0  0
   25.9105  -31.8785  270.8561 H   0  0  0  0  0  0  0  0  0  0  0  0
   26.2761  -32.6342  273.8320 H   0  0  0  0  0  0  0  0  0  0  0  0
   27.4418  -30.1684  273.7569 H   0  0  0  0  0  0  0  0  0  0  0  0
   28.3895  -31.6051  273.3173 H   0  0  0  0  0  0  0  0  0  0  0  0
   23.8157  -33.4125  276.8781 H   0  0  0  0  0  0  0  0  0  0  0  0
   24.7788  -31.9340  278.7389 H   0  0  0  0  0  0  0  0  0  0  0  0
   25.1397  -29.2186  279.4440 H   0  0  0  0  0  0  0  0  0  0  0  0
   25.9959  -29.6137  278.0512 H   0  0  0  0  0  0  0  0  0  0  0  0
   24.9528  -28.2943  278.0512 H   0  0  0  0  0  0  0  0  0  0  0  0
   20.5928  -29.9993  275.7564 H   0  0  0  0  0  0  0  0  0  0  0  0
   22.2205  -33.2095  273.5236 H   0  0  0  0  0  0  0  0  0  0  0  0
   23.9358  -34.9044  270.7981 H   0  0  0  0  0  0  0  0  0  0  0  0
   27.3370  -33.8602  272.3251 H   0  0  0  0  0  0  0  0  0  0  0  0
   27.9155  -29.5301  271.7594 H   0  0  0  0  0  0  0  0  0  0  0  0
   22.6653  -32.3438  278.8900 H   0  0  0  0  0  0  0  0  0  0  0  0
   26.4545  -31.6280  277.4080 H   0  0  0  0  0  0  0  0  0  0  0  0
  1  2  1  0
  1 13  1  0
  1 14  1  0
  2  3  2  0
  3  4  1  0
  3  5  1  0
  4 15  1  0
  5 12  1  0
  5 16  1  0
  6  7  1  0
  6 16  1  0
  6 21  1  0
  7  8  1  0
  7 17  1  0
  8  9  1  0
  8 18  1  0
  9 10  1  0
  9 19  1  0
 10 11  1  0
 10 21  1  0
 11 20  1  0
 12 13  1  0
 12 22  1  0
 13 23  1  0
  1 24  1  1
  2 25  1  0
  4 26  1  0
  4 27  1  0
  5 28  1  6
  6 29  1  1
  7 30  1  6
  8 31  1  1
  9 32  1  6
 10 33  1  1
 11 34  1  0
 11 35  1  0
 12 36  1  6
 13 37  1  1
 14 38  1  0
 14 39  1  0
 14 40  1  0
 15 41  1  0
 17 42  1  0
 18 43  1  0
 19 44  1  0
 20 45  1  0
 22 46  1  0
 23 47  1  0
M  CHG  1  14   1
M  END
>  <filename_input>  (2) 
7MGY_ZD1_docked.sdf

>  <pdb_id>  (2) 
7MGY_ZD1

>  <pose_rank>  (2) 
1

>  <num_atoms_heavy>  (2) 
23

>  <num_torsions>  (2) 
4

>  <pose>  (2) 
[23.734284402233953, -32.32244459891622, 274.6474232536792, -3.2566159256967837, 2.779128024391456, -3.2945652572702917, 1.9962048372338832, -0.05667124124792702, 0.6038903439449778, -0.6241169238513223]

>  <energy>  (2) 
-828.4611492328194

>  <inter_energy>  (2) 
-850.6957808642642

>  <intra_energy>  (2) 
37.645502673359005

>  <rmsd>  (2) 
2.44431

>  <sdf_rank>  (2) 
0

$$$$

     RDKit          3D

 47 48  0  0  0  0  0  0  0  0999 V2000
   22.0540  -29.4045  276.6630 C   0  0  1  0  0  0  0  0  0  0  0  0
   22.8605  -30.5524  277.2078 C   0  0  0  0  0  0  0  0  0  0  0  0
   23.7704  -31.2531  276.5220 C   0  0  0  0  0  0  0  0  0  0  0  0
   24.7878  -32.1611  277.2079 C   0  0  0  0  0  0  0  0  0  0  0  0
   24.0828  -30.9774  275.0721 C   0  0  2  0  0  0  0  0  0  0  0  0
   23.6221  -31.8181  272.8438 C   0  0  1  0  0  0  0  0  0  0  0  0
   23.3412  -33.1100  272.0353 C   0  0  1  0  0  0  0  0  0  0  0  0
   24.6317  -33.9907  271.9251 C   0  0  2  0  0  0  0  0  0  0  0  0
   25.7894  -33.1442  271.3112 C   0  0  1  0  0  0  0  0  0  0  0  0
   25.9971  -31.9405  272.2907 C   0  0  1  0  0  0  0  0  0  0  0  0
   27.1608  -30.9700  271.8030 C   0  0  0  0  0  0  0  0  0  0  0  0
   23.3079  -29.7162  274.4827 C   0  0  1  0  0  0  0  0  0  0  0  0
   21.9373  -29.5376  275.1284 C   0  0  1  0  0  0  0  0  0  0  0  0
   20.7443  -29.4587  277.2928 N   0  0  0  0  0  0  0  0  0  0  0  0
   25.1136  -31.6287  278.4704 O   0  0  0  0  0  0  0  0  0  0  0  0
   23.7793  -32.1077  274.2415 O   0  0  0  0  0  0  0  0  0  0  0  0
   22.3654  -33.8346  272.7554 O   0  0  0  0  0  0  0  0  0  0  0  0
   24.3761  -35.0491  271.0318 O   0  0  0  0  0  0  0  0  0  0  0  0
   26.9554  -33.9606  271.2939 O   0  0  0  0  0  0  0  0  0  0  0  0
   26.5824  -29.6816  271.6523 O   0  0  0  0  0  0  0  0  0  0  0  0
   24.7860  -31.1814  272.3671 O   0  0  0  0  0  0  0  0  0  0  0  0
   24.0339  -28.5883  274.8996 O   0  0  0  0  0  0  0  0  0  0  0  0
   21.1866  -30.6663  274.7438 O   0  0  0  0  0  0  0  0  0  0  0  0
   22.5339  -28.4386  276.8792 H   0  0  0  0  0  0  0  0  0  0  0  0
   22.6876  -30.8386  278.2557 H   0  0  0  0  0  0  0  0  0  0  0  0
   24.3573  -33.1656  277.3332 H   0  0  0  0  0  0  0  0  0  0  0  0
   25.6963  -32.2268  276.5913 H   0  0  0  0  0  0  0  0  0  0  0  0
   25.1618  -30.7643  275.0574 H   0  0  0  0  0  0  0  0  0  0  0  0
   22.7584  -31.1494  272.7138 H   0  0  0  0  0  0  0  0  0  0  0  0
   23.0085  -32.8543  271.0185 H   0  0  0  0  0  0  0  0  0  0  0  0
   24.9065  -34.3596  272.9243 H   0  0  0  0  0  0  0  0  0  0  0  0
   25.5770  -32.7923  270.2909 H   0  0  0  0  0  0  0  0  0  0  0  0
   26.2736  -32.3548  273.2715 H   0  0  0  0  0  0  0  0  0  0  0  0
   27.9666  -30.9386  272.5511 H   0  0  0  0  0  0  0  0  0  0  0  0
   27.5972  -31.3207  270.8561 H   0  0  0  0  0  0  0  0  0  0  0  0
   23.2033  -29.8443  273.3952 H   0  0  0  0  0  0  0  0  0  0  0  0
   21.4457  -28.6109  274.7974 H   0  0  0  0  0  0  0  0  0  0  0  0
   20.8553  -29.4541  278.3168 H   0  0  0  0  0  0  0  0  0  0  0  0
   20.1902  -28.6399  277.0039 H   0  0  0  0  0  0  0  0  0  0  0  0
   20.2598  -30.3205  277.0039 H   0  0  0  0  0  0  0  0  0  0  0  0
   24.7532  -32.2176  279.1799 H   0  0  0  0  0  0  0  0  0  0  0  0
   22.5194  -33.7202  273.7267 H   0  0  0  0  0  0  0  0  0  0  0  0
   24.1772  -35.8726  271.5441 H   0  0  0  0  0  0  0  0  0  0  0  0
   27.2351  -34.1564  272.2232 H   0  0  0  0  0  0  0  0  0  0  0  0
   26.4074  -29.2919  272.5455 H   0  0  0  0  0  0  0  0  0  0  0  0
   24.0545  -28.5563  275.8889 H   0  0  0  0  0  0  0  0  0  0  0  0
   20.8697  -31.1428  275.5517 H   0  0  0  0  0  0  0  0  0  0  0  0
  1  2  1  0
  1 13  1  0
  1 14  1  0
  2  3  2  0
  3  4  1  0
  3  5  1  0
  4 15  1  0
  5 12  1  0
  5 16  1  0
  6  7  1  0
  6 16  1  0
  6 21  1  0
  7  8  1  0
  7 17  1  0
  8  9  1  0
  8 18  1  0
  9 10  1  0
  9 19  1  0
 10 11  1  0
 10 21  1  0
 11 20  1  0
 12 13  1  0
 12 22  1  0
 13 23  1  0
  1 24  1  6
  2 25  1  0
  4 26  1  0
  4 27  1  0
  5 28  1  1
  6 29  1  1
  7 30  1  6
  8 31  1  1
  9 32  1  6
 10 33  1  1
 11 34  1  0
 11 35  1  0
 12 36  1  6
 13 37  1  6
 14 38  1  0
 14 39  1  0
 14 40  1  0
 15 41  1  0
 17 42  1  0
 18 43  1  0
 19 44  1  0
 20 45  1  0
 22 46  1  0
 23 47  1  0
M  CHG  1  14   1
M  END
>  <filename_input>  (3) 
7MGY_ZD1_docked.sdf

>  <pdb_id>  (3) 
7MGY_ZD1

>  <pose_rank>  (3) 
2

>  <num_atoms_heavy>  (3) 
23

>  <num_torsions>  (3) 
4

>  <pose>  (3) 
[23.779328322742575, -32.1077419851029, 274.2414767381645, -2.552555507619135, 2.2809869764757247, 5.001471408246935, -0.9225559031523569, -5.083755552375069, -0.32041456897650555, 0.9020414529510283]

>  <energy>  (3) 
-861.098814751916

>  <inter_energy>  (3) 
-873.7725292035842

>  <intra_energy>  (3) 
18.008112428553364

>  <rmsd>  (3) 
1.84057

>  <sdf_rank>  (3) 
0

$$$$

     RDKit          3D

 47 48  0  0  0  0  0  0  0  0999 V2000
   22.2797  -30.3112  277.5617 C   0  0  1  0  0  0  0  0  0  0  0  0
   22.1036  -29.9122  276.1214 C   0  0  0  0  0  0  0  0  0  0  0  0
   22.8226  -30.3805  275.0952 C   0  0  0  0  0  0  0  0  0  0  0  0
   22.3815  -30.2086  273.6441 C   0  0  0  0  0  0  0  0  0  0  0  0
   23.9423  -31.3751  275.2760 C   0  0  2  0  0  0  0  0  0  0  0  0
   26.1777  -31.8027  274.4367 C   0  0  1  0  0  0  0  0  0  0  0  0
   27.1084  -31.2200  273.3432 C   0  0  1  0  0  0  0  0  0  0  0  0
   26.3492  -31.0814  271.9802 C   0  0  2  0  0  0  0  0  0  0  0  0
   25.7480  -32.4630  271.5759 C   0  0  1  0  0  0  0  0  0  0  0  0
   24.7754  -32.8563  272.7382 C   0  0  1  0  0  0  0  0  0  0  0  0
   24.0693  -34.2585  272.4748 C   0  0  0  0  0  0  0  0  0  0  0  0
   24.1058  -31.8836  276.7771 C   0  0  1  0  0  0  0  0  0  0  0  0
   23.7255  -30.8058  277.7876 C   0  0  1  0  0  0  0  0  0  0  0  0
   21.9965  -29.1381  278.3733 N   0  0  0  0  0  0  0  0  0  0  0  0
   22.5318  -31.4313  272.9615 O   0  0  0  0  0  0  0  0  0  0  0  0
   25.2032  -30.8344  274.8549 O   0  0  0  0  0  0  0  0  0  0  0  0
   27.4861  -29.9299  273.7779 O   0  0  0  0  0  0  0  0  0  0  0  0
   27.2797  -30.7288  270.9836 O   0  0  0  0  0  0  0  0  0  0  0  0
   25.0122  -32.2750  270.3719 O   0  0  0  0  0  0  0  0  0  0  0  0
   23.6923  -34.7713  273.7446 O   0  0  0  0  0  0  0  0  0  0  0  0
   25.5157  -32.9522  273.9593 O   0  0  0  0  0  0  0  0  0  0  0  0
   23.1321  -32.8803  276.9546 O   0  0  0  0  0  0  0  0  0  0  0  0
   24.6756  -29.7784  277.6224 O   0  0  0  0  0  0  0  0  0  0  0  0
   21.5993  -31.1304  277.8373 H   0  0  0  0  0  0  0  0  0  0  0  0
   21.3194  -29.1751  275.8938 H   0  0  0  0  0  0  0  0  0  0  0  0
   21.3262  -29.8996  273.6154 H   0  0  0  0  0  0  0  0  0  0  0  0
   23.0013  -29.4392  273.1603 H   0  0  0  0  0  0  0  0  0  0  0  0
   23.6572  -32.2300  274.6453 H   0  0  0  0  0  0  0  0  0  0  0  0
   26.8050  -32.0719  275.2993 H   0  0  0  0  0  0  0  0  0  0  0  0
   27.9738  -31.8818  273.1918 H   0  0  0  0  0  0  0  0  0  0  0  0
   25.5559  -30.3261  272.0811 H   0  0  0  0  0  0  0  0  0  0  0  0
   26.5108  -33.2397  271.4181 H   0  0  0  0  0  0  0  0  0  0  0  0
   23.9998  -32.0787  272.7991 H   0  0  0  0  0  0  0  0  0  0  0  0
   23.1800  -34.1221  271.8419 H   0  0  0  0  0  0  0  0  0  0  0  0
   24.7471  -34.9509  271.9541 H   0  0  0  0  0  0  0  0  0  0  0  0
   25.1485  -32.1989  276.9300 H   0  0  0  0  0  0  0  0  0  0  0  0
   23.7395  -31.1878  278.8191 H   0  0  0  0  0  0  0  0  0  0  0  0
   22.0568  -29.3879  279.3707 H   0  0  0  0  0  0  0  0  0  0  0  0
   22.6836  -28.4004  278.1620 H   0  0  0  0  0  0  0  0  0  0  0  0
   21.0486  -28.7950  278.1620 H   0  0  0  0  0  0  0  0  0  0  0  0
   22.6222  -32.1668  273.6181 H   0  0  0  0  0  0  0  0  0  0  0  0
   27.4936  -29.9042  274.7675 H   0  0  0  0  0  0  0  0  0  0  0  0
   28.1154  -30.4122  271.4095 H   0  0  0  0  0  0  0  0  0  0  0  0
   24.0767  -32.0361  270.5908 H   0  0  0  0  0  0  0  0  0  0  0  0
   24.0990  -34.2181  274.4578 H   0  0  0  0  0  0  0  0  0  0  0  0
   22.9858  -33.0301  277.9222 H   0  0  0  0  0  0  0  0  0  0  0  0
   24.9724  -29.4575  278.5106 H   0  0  0  0  0  0  0  0  0  0  0  0
  1  2  1  0
  1 13  1  0
  1 14  1  0
  2  3  2  0
  3  4  1  0
  3  5  1  0
  4 15  1  0
  5 12  1  0
  5 16  1  0
  6  7  1  0
  6 16  1  0
  6 21  1  0
  7  8  1  0
  7 17  1  0
  8  9  1  0
  8 18  1  0
  9 10  1  0
  9 19  1  0
 10 11  1  0
 10 21  1  0
 11 20  1  0
 12 13  1  0
 12 22  1  0
 13 23  1  0
  1 24  1  1
  2 25  1  0
  4 26  1  0
  4 27  1  0
  5 28  1  6
  6 29  1  1
  7 30  1  6
  8 31  1  1
  9 32  1  6
 10 33  1  1
 11 34  1  0
 11 35  1  0
 12 36  1  1
 13 37  1  1
 14 38  1  0
 14 39  1  0
 14 40  1  0
 15 41  1  0
 17 42  1  0
 18 43  1  0
 19 44  1  0
 20 45  1  0
 22 46  1  0
 23 47  1  0
M  CHG  1  14   1
M  END
>  <filename_input>  (4) 
7MGY_ZD1_docked.sdf

>  <pdb_id>  (4) 
7MGY_ZD1

>  <pose_rank>  (4) 
3

>  <num_atoms_heavy>  (4) 
23

>  <num_torsions>  (4) 
4

>  <pose>  (4) 
[25.203228717949138, -30.834381023553973, 274.85487899600327, -1.2228701936455066, 0.6095101242928883, 2.281875223025629, -0.12948246227351407, -0.5881651433080729, -0.8316620030003455, 1.4975108757340585]

>  <energy>  (4) 
-591.5936098567337

>  <inter_energy>  (4) 
-638.5057276027394

>  <intra_energy>  (4) 
49.16326962887337

>  <rmsd>  (4) 
3.61474

>  <sdf_rank>  (4) 
0

$$$$

     RDKit          3D

 47 48  0  0  0  0  0  0  0  0999 V2000
   23.5453  -29.5849  277.4843 C   0  0  1  0  0  0  0  0  0  0  0  0
   24.7633  -29.5993  276.6005 C   0  0  0  0  0  0  0  0  0  0  0  0
   24.7647  -29.8630  275.2891 C   0  0  0  0  0  0  0  0  0  0  0  0
   25.9531  -29.5297  274.3910 C   0  0  0  0  0  0  0  0  0  0  0  0
   23.5081  -30.2099  274.5299 C   0  0  2  0  0  0  0  0  0  0  0  0
   23.4690  -31.5921  272.5367 C   0  0  1  0  0  0  0  0  0  0  0  0
   23.1939  -33.0416  272.0628 C   0  0  1  0  0  0  0  0  0  0  0  0
   24.4734  -33.9317  272.2183 C   0  0  2  0  0  0  0  0  0  0  0  0
   25.6632  -33.2716  271.4552 C   0  0  1  0  0  0  0  0  0  0  0  0
   25.8583  -31.8646  272.1140 C   0  0  1  0  0  0  0  0  0  0  0  0
   27.0521  -31.0533  271.4426 C   0  0  0  0  0  0  0  0  0  0  0  0
   22.1859  -30.1251  275.4148 C   0  0  1  0  0  0  0  0  0  0  0  0
   22.4523  -30.4887  276.8723 C   0  0  1  0  0  0  0  0  0  0  0  0
   23.9541  -30.0727  278.7920 N   0  0  0  0  0  0  0  0  0  0  0  0
   27.1509  -29.7929  275.0834 O   0  0  0  0  0  0  0  0  0  0  0  0
   23.5771  -31.5284  273.9673 O   0  0  0  0  0  0  0  0  0  0  0  0
   22.1845  -33.5586  272.9051 O   0  0  0  0  0  0  0  0  0  0  0  0
   24.2299  -35.1761  271.6055 O   0  0  0  0  0  0  0  0  0  0  0  0
   26.8163  -34.0754  271.6804 O   0  0  0  0  0  0  0  0  0  0  0  0
   26.4681  -29.9423  270.7776 O   0  0  0  0  0  0  0  0  0  0  0  0
   24.6575  -31.1015  271.9585 O   0  0  0  0  0  0  0  0  0  0  0  0
   21.8374  -28.7651  275.4579 O   0  0  0  0  0  0  0  0  0  0  0  0
   22.8239  -31.8478  276.8627 O   0  0  0  0  0  0  0  0  0  0  0  0
   23.1281  -28.5713  277.5763 H   0  0  0  0  0  0  0  0  0  0  0  0
   25.7317  -29.3746  277.0714 H   0  0  0  0  0  0  0  0  0  0  0  0
   25.9110  -30.1480  273.4822 H   0  0  0  0  0  0  0  0  0  0  0  0
   25.9160  -28.4663  274.1120 H   0  0  0  0  0  0  0  0  0  0  0  0
   23.4472  -29.4521  273.7349 H   0  0  0  0  0  0  0  0  0  0  0  0
   22.6205  -30.9700  272.2158 H   0  0  0  0  0  0  0  0  0  0  0  0
   22.8979  -33.0428  271.0034 H   0  0  0  0  0  0  0  0  0  0  0  0
   24.7103  -34.0441  273.2866 H   0  0  0  0  0  0  0  0  0  0  0  0
   25.4890  -33.1812  270.3728 H   0  0  0  0  0  0  0  0  0  0  0  0
   26.0968  -32.0257  273.1757 H   0  0  0  0  0  0  0  0  0  0  0  0
   27.7555  -30.7064  272.2139 H   0  0  0  0  0  0  0  0  0  0  0  0
   27.6129  -31.6854  270.7384 H   0  0  0  0  0  0  0  0  0  0  0  0
   21.4312  -30.8003  274.9852 H   0  0  0  0  0  0  0  0  0  0  0  0
   21.5647  -30.3314  277.5029 H   0  0  0  0  0  0  0  0  0  0  0  0
   23.4897  -29.5186  279.5257 H   0  0  0  0  0  0  0  0  0  0  0  0
   23.6865  -31.0626  278.8883 H   0  0  0  0  0  0  0  0  0  0  0  0
   24.9756  -29.9822  278.8883 H   0  0  0  0  0  0  0  0  0  0  0  0
   26.9835  -29.7561  276.0584 H   0  0  0  0  0  0  0  0  0  0  0  0
   22.4439  -33.4257  273.8512 H   0  0  0  0  0  0  0  0  0  0  0  0
   24.0948  -35.8663  272.3023 H   0  0  0  0  0  0  0  0  0  0  0  0
   26.9624  -34.1773  272.6543 H   0  0  0  0  0  0  0  0  0  0  0  0
   26.1291  -29.2974  271.4479 H   0  0  0  0  0  0  0  0  0  0  0  0
   21.7627  -28.4733  276.4010 H   0  0  0  0  0  0  0  0  0  0  0  0
   22.9126  -32.1723  277.7937 H   0  0  0  0  0  0  0  0  0  0  0  0
  1  2  1  0
  1 13  1  0
  1 14  1  0
  2  3  2  0
  3  4  1  0
  3  5  1  0
  4 15  1  0
  5 12  1  0
  5 16  1  0
  6  7  1  0
  6 16  1  0
  6 21  1  0
  7  8  1  0
  7 17  1  0
  8  9  1  0
  8 18  1  0
  9 10  1  0
  9 19  1  0
 10 11  1  0
 10 21  1  0
 11 20  1  0
 12 13  1  0
 12 22  1  0
 13 23  1  0
  1 24  1  1
  2 25  1  0
  4 26  1  0
  4 27  1  0
  5 28  1  6
  6 29  1  6
  7 30  1  6
  8 31  1  1
  9 32  1  6
 10 33  1  1
 11 34  1  0
 11 35  1  0
 12 36  1  6
 13 37  1  1
 14 38  1  0
 14 39  1  0
 14 40  1  0
 15 41  1  0
 17 42  1  0
 18 43  1  0
 19 44  1  0
 20 45  1  0
 22 46  1  0
 23 47  1  0
M  CHG  1  14   1
M  END
>  <filename_input>  (5) 
7MGY_ZD1_docked.sdf

>  <pdb_id>  (5) 
7MGY_ZD1

>  <pose_rank>  (5) 
4

>  <num_atoms_heavy>  (5) 
23

>  <num_torsions>  (5) 
4

>  <pose>  (5) 
[23.577080893993923, -31.528417372319858, 273.9672869826712, 3.2576677125546416, 4.256430114676459, -2.8603718890646452, 0.4702026107588384, -3.8534650820503153, -0.03820240676728778, 0.7466027803011612]

>  <energy>  (5) 
-955.3048256296933

>  <inter_energy>  (5) 
-964.9584725831027

>  <intra_energy>  (5) 
17.20811451886016

>  <rmsd>  (5) 
0.784265

>  <sdf_rank>  (5) 
0

$$$$

     RDKit          3D

 47 48  0  0  0  0  0  0  0  0999 V2000
   22.8365  -32.7446  277.1821 C   0  0  1  0  0  0  0  0  0  0  0  0
   23.2402  -31.3811  277.6749 C   0  0  0  0  0  0  0  0  0  0  0  0
   23.6764  -30.3780  276.9051 C   0  0  0  0  0  0  0  0  0  0  0  0
   23.7399  -28.9361  277.4022 C   0  0  0  0  0  0  0  0  0  0  0  0
   23.8401  -30.5133  275.4116 C   0  0  2  0  0  0  0  0  0  0  0  0
   25.9788  -31.5384  274.9018 C   0  0  1  0  0  0  0  0  0  0  0  0
   26.8724  -31.7423  276.1513 C   0  0  1  0  0  0  0  0  0  0  0  0
   28.0648  -30.7266  276.1561 C   0  0  2  0  0  0  0  0  0  0  0  0
   28.8657  -30.8570  274.8237 C   0  0  1  0  0  0  0  0  0  0  0  0
   27.8421  -30.5362  273.6831 C   0  0  1  0  0  0  0  0  0  0  0  0
   28.5108  -30.6243  272.2411 C   0  0  0  0  0  0  0  0  0  0  0  0
   23.3453  -31.9164  274.8416 C   0  0  1  0  0  0  0  0  0  0  0  0
   23.5536  -33.0446  275.8472 C   0  0  1  0  0  0  0  0  0  0  0  0
   23.2167  -33.7047  278.2061 N   0  0  0  0  0  0  0  0  0  0  0  0
   22.8564  -28.7760  278.4872 O   0  0  0  0  0  0  0  0  0  0  0  0
   25.2063  -30.3327  275.0108 O   0  0  0  0  0  0  0  0  0  0  0  0
   26.0597  -31.4832  277.2774 O   0  0  0  0  0  0  0  0  0  0  0  0
   28.9433  -31.0729  277.2010 O   0  0  0  0  0  0  0  0  0  0  0  0
   29.8934  -29.8721  274.8426 O   0  0  0  0  0  0  0  0  0  0  0  0
   28.8340  -31.9901  272.0232 O   0  0  0  0  0  0  0  0  0  0  0  0
   26.7681  -31.4809  273.7351 O   0  0  0  0  0  0  0  0  0  0  0  0
   21.9493  -31.8140  274.7239 O   0  0  0  0  0  0  0  0  0  0  0  0
   24.9491  -33.1615  276.0028 O   0  0  0  0  0  0  0  0  0  0  0  0
   21.7532  -32.8008  276.9996 H   0  0  0  0  0  0  0  0  0  0  0  0
   23.1710  -31.1943  278.7567 H   0  0  0  0  0  0  0  0  0  0  0  0
   24.7652  -28.7046  277.7265 H   0  0  0  0  0  0  0  0  0  0  0  0
   23.4506  -28.2541  276.5891 H   0  0  0  0  0  0  0  0  0  0  0  0
   23.2047  -29.7201  274.9907 H   0  0  0  0  0  0  0  0  0  0  0  0
   25.2930  -32.3961  274.8391 H   0  0  0  0  0  0  0  0  0  0  0  0
   27.2858  -32.7616  276.1577 H   0  0  0  0  0  0  0  0  0  0  0  0
   27.6725  -29.7060  276.2764 H   0  0  0  0  0  0  0  0  0  0  0  0
   29.3169  -31.8503  274.6830 H   0  0  0  0  0  0  0  0  0  0  0  0
   27.4812  -29.5091  273.8405 H   0  0  0  0  0  0  0  0  0  0  0  0
   27.8043  -30.2749  271.4738 H   0  0  0  0  0  0  0  0  0  0  0  0
   29.4084  -29.9912  272.1822 H   0  0  0  0  0  0  0  0  0  0  0  0
   23.8908  -32.1299  273.9106 H   0  0  0  0  0  0  0  0  0  0  0  0
   23.1195  -33.9923  275.4958 H   0  0  0  0  0  0  0  0  0  0  0  0
   23.0547  -33.2956  279.1374 H   0  0  0  0  0  0  0  0  0  0  0  0
   22.6503  -34.5589  278.1031 H   0  0  0  0  0  0  0  0  0  0  0  0
   24.2142  -33.9397  278.1031 H   0  0  0  0  0  0  0  0  0  0  0  0
   23.3569  -28.8667  279.3365 H   0  0  0  0  0  0  0  0  0  0  0  0
   26.5788  -31.6486  278.1040 H   0  0  0  0  0  0  0  0  0  0  0  0
   28.5048  -30.9000  278.0717 H   0  0  0  0  0  0  0  0  0  0  0  0
   30.1227  -29.6524  275.7803 H   0  0  0  0  0  0  0  0  0  0  0  0
   28.9421  -32.4468  272.8949 H   0  0  0  0  0  0  0  0  0  0  0  0
   21.5434  -31.7843  275.6264 H   0  0  0  0  0  0  0  0  0  0  0  0
   25.1732  -33.1803  276.9669 H   0  0  0  0  0  0  0  0  0  0  0  0
  1  2  1  0
  1 13  1  0
  1 14  1  0
  2  3  2  0
  3  4  1  0
  3  5  1  0
  4 15  1  0
  5 12  1  0
  5 16  1  0
  6  7  1  0
  6 16  1  0
  6 21  1  0
  7  8  1  0
  7 17  1  0
  8  9  1  0
  8 18  1  0
  9 10  1  0
  9 19  1  0
 10 11  1  0
 10 21  1  0
 11 20  1  0
 12 13  1  0
 12 22  1  0
 13 23  1  0
  1 24  1  6
  2 25  1  0
  4 26  1  0
  4 27  1  0
  5 28  1  6
  6 29  1  6
  7 30  1  1
  8 31  1  1
  9 32  1  6
 10 33  1  1
 11 34  1  0
 11 35  1  0
 12 36  1  6
 13 37  1  6
 14 38  1  0
 14 39  1  0
 14 40  1  0
 15 41  1  0
 17 42  1  0
 18 43  1  0
 19 44  1  0
 20 45  1  0
 22 46  1  0
 23 47  1  0
M  CHG  1  14   1
M  END
>  <filename_input>  (6) 
7MGY_ZD1_docked.sdf

>  <pdb_id>  (6) 
7MGY_ZD1

>  <pose_rank>  (6) 
5

>  <num_atoms_heavy>  (6) 
23

>  <num_torsions>  (6) 
4

>  <pose>  (6) 
[25.206304138555844, -30.332706378330485, 275.0107722161308, 1.8397483099189291, -1.3424316382174728, -2.925524571214765, 23.041092662685934, -4.9096535067670555, -5.1851005616762995, -0.04955037718347621]

>  <energy>  (6) 
-105.45673833562321

>  <inter_energy>  (6) 
-315.69905646146844

>  <intra_energy>  (6) 
211.31071282331723

>  <rmsd>  (6) 
4.07395

>  <sdf_rank>  (6) 
0

$$$$

     RDKit          3D

 47 48  0  0  0  0  0  0  0  0999 V2000
   24.8706  -33.5469  270.9294 C   0  0  1  0  0  0  0  0  0  0  0  0
   23.6347  -32.7134  271.1364 C   0  0  0  0  0  0  0  0  0  0  0  0
   23.5446  -31.6502  271.9431 C   0  0  0  0  0  0  0  0  0  0  0  0
   22.3923  -30.6531  271.8532 C   0  0  0  0  0  0  0  0  0  0  0  0
   24.7024  -31.1666  272.7805 C   0  0  2  0  0  0  0  0  0  0  0  0
   24.6497  -30.0278  274.9217 C   0  0  1  0  0  0  0  0  0  0  0  0
   25.2511  -30.3397  276.3155 C   0  0  1  0  0  0  0  0  0  0  0  0
   24.1680  -30.9541  277.2656 C   0  0  2  0  0  0  0  0  0  0  0  0
   22.9417  -29.9933  277.3479 C   0  0  1  0  0  0  0  0  0  0  0  0
   22.4106  -29.8606  275.8809 C   0  0  1  0  0  0  0  0  0  0  0  0
   21.1420  -28.9032  275.7914 C   0  0  0  0  0  0  0  0  0  0  0  0
   26.0523  -31.9741  272.5271 C   0  0  1  0  0  0  0  0  0  0  0  0
   25.7843  -33.4328  272.1696 C   0  0  1  0  0  0  0  0  0  0  0  0
   24.4371  -34.9199  270.7249 N   0  0  0  0  0  0  0  0  0  0  0  0
   21.7436  -30.7985  270.6116 O   0  0  0  0  0  0  0  0  0  0  0  0
   24.4057  -31.2348  274.1830 O   0  0  0  0  0  0  0  0  0  0  0  0
   26.2658  -31.3015  276.1130 O   0  0  0  0  0  0  0  0  0  0  0  0
   24.7096  -31.0437  278.5626 O   0  0  0  0  0  0  0  0  0  0  0  0
   21.9584  -30.6214  278.1634 O   0  0  0  0  0  0  0  0  0  0  0  0
   20.4037  -29.3088  274.6478 O   0  0  0  0  0  0  0  0  0  0  0  0
   23.4425  -29.3119  275.0546 O   0  0  0  0  0  0  0  0  0  0  0  0
   26.6127  -31.4313  271.3590 O   0  0  0  0  0  0  0  0  0  0  0  0
   25.2024  -34.0044  273.3186 O   0  0  0  0  0  0  0  0  0  0  0  0
   25.4458  -33.2019  270.0575 H   0  0  0  0  0  0  0  0  0  0  0  0
   22.7316  -33.0022  270.5787 H   0  0  0  0  0  0  0  0  0  0  0  0
   21.6765  -30.8453  272.6660 H   0  0  0  0  0  0  0  0  0  0  0  0
   22.7842  -29.6294  271.9454 H   0  0  0  0  0  0  0  0  0  0  0  0
   24.8538  -30.1232  272.4667 H   0  0  0  0  0  0  0  0  0  0  0  0
   25.3808  -29.4161  274.3728 H   0  0  0  0  0  0  0  0  0  0  0  0
   25.6334  -29.4172  276.7769 H   0  0  0  0  0  0  0  0  0  0  0  0
   23.8654  -31.9398  276.8825 H   0  0  0  0  0  0  0  0  0  0  0  0
   23.1887  -29.0081  277.7702 H   0  0  0  0  0  0  0  0  0  0  0  0
   22.1169  -30.8651  275.5423 H   0  0  0  0  0  0  0  0  0  0  0  0
   20.5253  -29.0055  276.6965 H   0  0  0  0  0  0  0  0  0  0  0  0
   21.4468  -27.8492  275.7119 H   0  0  0  0  0  0  0  0  0  0  0  0
   26.6748  -31.9114  273.4318 H   0  0  0  0  0  0  0  0  0  0  0  0
   26.7076  -33.9638  271.8947 H   0  0  0  0  0  0  0  0  0  0  0  0
   24.2936  -35.3743  271.6381 H   0  0  0  0  0  0  0  0  0  0  0  0
   23.5533  -34.9258  270.1959 H   0  0  0  0  0  0  0  0  0  0  0  0
   25.1573  -35.4322  270.1959 H   0  0  0  0  0  0  0  0  0  0  0  0
   20.7887  -31.0126  270.7613 H   0  0  0  0  0  0  0  0  0  0  0  0
   26.5999  -31.6183  276.9895 H   0  0  0  0  0  0  0  0  0  0  0  0
   23.9884  -30.9244  279.2303 H   0  0  0  0  0  0  0  0  0  0  0  0
   22.1811  -30.4792  279.1175 H   0  0  0  0  0  0  0  0  0  0  0  0
   19.5735  -29.7648  274.9357 H   0  0  0  0  0  0  0  0  0  0  0  0
   27.3019  -30.7637  271.6031 H   0  0  0  0  0  0  0  0  0  0  0  0
   25.6091  -33.6049  274.1280 H   0  0  0  0  0  0  0  0  0  0  0  0
  1  2  1  0
  1 13  1  0
  1 14  1  0
  2  3  2  0
  3  4  1  0
  3  5  1  0
  4 15  1  0
  5 12  1  0
  5 16  1  0
  6  7  1  0
  6 16  1  0
  6 21  1  0
  7  8  1  0
  7 17  1  0
  8  9  1  0
  8 18  1  0
  9 10  1  0
  9 19  1  0
 10 11  1  0
 10 21  1  0
 11 20  1  0
 12 13  1  0
 12 22  1  0
 13 23  1  0
  1 24  1  6
  2 25  1  0
  4 26  1  0
  4 27  1  0
  5 28  1  6
  6 29  1  6
  7 30  1  1
  8 31  1  6
  9 32  1  1
 10 33  1  6
 11 34  1  0
 11 35  1  0
 12 36  1  1
 13 37  1  6
 14 38  1  0
 14 39  1  0
 14 40  1  0
 15 41  1  0
 17 42  1  0
 18 43  1  0
 19 44  1  0
 20 45  1  0
 22 46  1  0
 23 47  1  0
M  CHG  1  14   1
M  END
>  <filename_input>  (7) 
7MGY_ZD1_docked.sdf

>  <pdb_id>  (7) 
7MGY_ZD1

>  <pose_rank>  (7) 
6

>  <num_atoms_heavy>  (7) 
23

>  <num_torsions>  (7) 
4

>  <pose>  (7) 
[24.405668963139156, -31.234815499001424, 274.1829817970675, 0.3694091648257431, 2.548749783491126, -1.3993698845201337, -12.256665418686477, 1.4481787738599041, -5.890343404988598, -3.9146470075507147]

>  <energy>  (7) 
-557.2468691600418

>  <inter_energy>  (7) 
-546.0509481419141

>  <intra_energy>  (7) 
0.0

>  <rmsd>  (7) 
6.29231

>  <sdf_rank>  (7) 
0

$$$$

     RDKit          3D

 47 48  0  0  0  0  0  0  0  0999 V2000
   23.1807  -35.6432  274.1640 C   0  0  1  0  0  0  0  0  0  0  0  0
   23.2345  -35.0443  275.5436 C   0  0  0  0  0  0  0  0  0  0  0  0
   23.0087  -33.7593  275.8387 C   0  0  0  0  0  0  0  0  0  0  0  0
   22.7393  -33.2846  277.2642 C   0  0  0  0  0  0  0  0  0  0  0  0
   22.6881  -32.7290  274.7846 C   0  0  2  0  0  0  0  0  0  0  0  0
   25.0424  -32.1485  274.8525 C   0  0  1  0  0  0  0  0  0  0  0  0
   25.8934  -31.1438  275.6698 C   0  0  1  0  0  0  0  0  0  0  0  0
   26.1740  -29.8456  274.8395 C   0  0  2  0  0  0  0  0  0  0  0  0
   26.8442  -30.2288  273.4839 C   0  0  1  0  0  0  0  0  0  0  0  0
   25.8213  -31.1657  272.7575 C   0  0  1  0  0  0  0  0  0  0  0  0
   26.3597  -31.6490  271.3396 C   0  0  0  0  0  0  0  0  0  0  0  0
   22.5419  -33.3403  273.3206 C   0  0  1  0  0  0  0  0  0  0  0  0
   23.4549  -34.5448  273.1131 C   0  0  1  0  0  0  0  0  0  0  0  0
   24.1928  -36.6860  274.1054 N   0  0  0  0  0  0  0  0  0  0  0  0
   22.1768  -34.3387  278.0099 O   0  0  0  0  0  0  0  0  0  0  0  0
   23.6844  -31.6973  274.7331 O   0  0  0  0  0  0  0  0  0  0  0  0
   25.1277  -30.7926  276.8038 O   0  0  0  0  0  0  0  0  0  0  0  0
   27.0983  -29.0530  275.5472 O   0  0  0  0  0  0  0  0  0  0  0  0
   27.0171  -29.0296  272.7366 O   0  0  0  0  0  0  0  0  0  0  0  0
   26.3550  -33.0692  271.3630 O   0  0  0  0  0  0  0  0  0  0  0  0
   25.5889  -32.3244  273.5649 O   0  0  0  0  0  0  0  0  0  0  0  0
   21.2452  -33.8763  273.2544 O   0  0  0  0  0  0  0  0  0  0  0  0
   24.7692  -34.0430  273.1925 O   0  0  0  0  0  0  0  0  0  0  0  0
   22.1899  -36.0704  273.9503 H   0  0  0  0  0  0  0  0  0  0  0  0
   23.4794  -35.7185  276.3776 H   0  0  0  0  0  0  0  0  0  0  0  0
   23.6842  -32.9686  277.7305 H   0  0  0  0  0  0  0  0  0  0  0  0
   22.0401  -32.4357  277.2428 H   0  0  0  0  0  0  0  0  0  0  0  0
   21.7161  -32.3141  275.0900 H   0  0  0  0  0  0  0  0  0  0  0  0
   25.0527  -33.1082  275.3899 H   0  0  0  0  0  0  0  0  0  0  0  0
   26.8584  -31.5979  275.9392 H   0  0  0  0  0  0  0  0  0  0  0  0
   25.2275  -29.3117  274.6689 H   0  0  0  0  0  0  0  0  0  0  0  0
   27.8184  -30.7249  273.6054 H   0  0  0  0  0  0  0  0  0  0  0  0
   24.8960  -30.5910  272.6044 H   0  0  0  0  0  0  0  0  0  0  0  0
   25.7015  -31.2810  270.5387 H   0  0  0  0  0  0  0  0  0  0  0  0
   27.3705  -31.2601  271.1469 H   0  0  0  0  0  0  0  0  0  0  0  0
   22.7743  -32.5547  272.5866 H   0  0  0  0  0  0  0  0  0  0  0  0
   23.2802  -35.0289  272.1409 H   0  0  0  0  0  0  0  0  0  0  0  0
   24.4589  -36.9602  275.0619 H   0  0  0  0  0  0  0  0  0  0  0  0
   23.8146  -37.5038  273.6065 H   0  0  0  0  0  0  0  0  0  0  0  0
   25.0216  -36.3324  273.6065 H   0  0  0  0  0  0  0  0  0  0  0  0
   22.2777  -34.1497  278.9764 H   0  0  0  0  0  0  0  0  0  0  0  0
   25.6299  -31.0230  277.6253 H   0  0  0  0  0  0  0  0  0  0  0  0
   26.9589  -29.1726  276.5200 H   0  0  0  0  0  0  0  0  0  0  0  0
   27.1271  -28.2666  273.3578 H   0  0  0  0  0  0  0  0  0  0  0  0
   26.3540  -33.3837  272.3016 H   0  0  0  0  0  0  0  0  0  0  0  0
   20.8999  -34.0191  274.1712 H   0  0  0  0  0  0  0  0  0  0  0  0
   25.0278  -33.9442  274.1429 H   0  0  0  0  0  0  0  0  0  0  0  0
  1  2  1  0
  1 13  1  0
  1 14  1  0
  2  3  2  0
  3  4  1  0
  3  5  1  0
  4 15  1  0
  5 12  1  0
  5 16  1  0
  6  7  1  0
  6 16  1  0
  6 21  1  0
  7  8  1  0
  7 17  1  0
  8  9  1  0
  8 18  1  0
  9 10  1  0
  9 19  1  0
 10 11  1  0
 10 21  1  0
 11 20  1  0
 12 13  1  0
 12 22  1  0
 13 23  1  0
  1 24  1  6
  2 25  1  0
  4 26  1  0
  4 27  1  0
  5 28  1  1
  6 29  1  1
  7 30  1  1
  8 31  1  6
  9 32  1  1
 10 33  1  6
 11 34  1  0
 11 35  1  0
 12 36  1  6
 13 37  1  6
 14 38  1  0
 14 39  1  0
 14 40  1  0
 15 41  1  0
 17 42  1  0
 18 43  1  0
 19 44  1  0
 20 45  1  0
 22 46  1  0
 23 47  1  0
M  CHG  1  14   1
M  END
>  <filename_input>  (8) 
7MGY_ZD1_docked.sdf

>  <pdb_id>  (8) 
7MGY_ZD1

>  <pose_rank>  (8) 
7

>  <num_atoms_heavy>  (8) 
23

>  <num_torsions>  (8) 
4

>  <pose>  (8) 
[23.68439874542824, -31.697261151705117, 274.73305354375395, 2.120021173014198, -0.36312032498553976, -2.470323679960029, 22.129908816868127, -4.99495927649227, -5.928987579547882, 0.923110166539261]

>  <energy>  (8) 
-392.37057408717305

>  <inter_energy>  (8) 
-548.3038064461416

>  <intra_energy>  (8) 
148.41754826593277

>  <rmsd>  (8) 
4.91906

>  <sdf_rank>  (8) 
0

$$$$

     RDKit          3D

 47 48  0  0  0  0  0  0  0  0999 V2000
   24.5132  -33.0857  271.1158 C   0  0  1  0  0  0  0  0  0  0  0  0
   25.1995  -31.8221  271.5599 C   0  0  0  0  0  0  0  0  0  0  0  0
   25.7833  -31.6355  272.7488 C   0  0  0  0  0  0  0  0  0  0  0  0
   26.7474  -30.4818  273.0123 C   0  0  0  0  0  0  0  0  0  0  0  0
   25.7988  -32.6968  273.8207 C   0  0  2  0  0  0  0  0  0  0  0  0
   24.7220  -30.8817  275.0167 C   0  0  1  0  0  0  0  0  0  0  0  0
   25.2501  -30.1664  276.2859 C   0  0  1  0  0  0  0  0  0  0  0  0
   24.4538  -30.6224  277.5553 C   0  0  2  0  0  0  0  0  0  0  0  0
   22.9291  -30.3829  277.3279 C   0  0  1  0  0  0  0  0  0  0  0  0
   22.5501  -31.2395  276.0733 C   0  0  1  0  0  0  0  0  0  0  0  0
   21.0070  -31.1060  275.7054 C   0  0  0  0  0  0  0  0  0  0  0  0
   25.1532  -34.0780  273.3582 C   0  0  1  0  0  0  0  0  0  0  0  0
   24.0243  -33.8704  272.3533 C   0  0  1  0  0  0  0  0  0  0  0  0
   23.3963  -32.6969  270.2695 N   0  0  0  0  0  0  0  0  0  0  0  0
   26.8953  -29.7183  271.8381 O   0  0  0  0  0  0  0  0  0  0  0  0
   25.1110  -32.2640  275.0036 O   0  0  0  0  0  0  0  0  0  0  0  0
   26.5989  -30.5572  276.4398 O   0  0  0  0  0  0  0  0  0  0  0  0
   24.8411  -29.8132  278.6410 O   0  0  0  0  0  0  0  0  0  0  0  0
   22.2421  -30.8733  278.4742 O   0  0  0  0  0  0  0  0  0  0  0  0
   20.8511  -31.6376  274.3976 O   0  0  0  0  0  0  0  0  0  0  0  0
   23.3166  -30.7935  274.9498 O   0  0  0  0  0  0  0  0  0  0  0  0
   26.1494  -34.7424  272.6238 O   0  0  0  0  0  0  0  0  0  0  0  0
   23.0119  -33.1870  273.0557 O   0  0  0  0  0  0  0  0  0  0  0  0
   25.1983  -33.7387  270.5552 H   0  0  0  0  0  0  0  0  0  0  0  0
   25.2229  -30.9834  270.8486 H   0  0  0  0  0  0  0  0  0  0  0  0
   26.3477  -29.8457  273.8157 H   0  0  0  0  0  0  0  0  0  0  0  0
   27.7259  -30.8826  273.3156 H   0  0  0  0  0  0  0  0  0  0  0  0
   26.8658  -32.8616  274.0313 H   0  0  0  0  0  0  0  0  0  0  0  0
   25.1633  -30.3794  274.1432 H   0  0  0  0  0  0  0  0  0  0  0  0
   25.1383  -29.0773  276.1798 H   0  0  0  0  0  0  0  0  0  0  0  0
   24.6563  -31.6862  277.7488 H   0  0  0  0  0  0  0  0  0  0  0  0
   22.6732  -29.3239  277.1763 H   0  0  0  0  0  0  0  0  0  0  0  0
   22.7641  -32.2915  276.3129 H   0  0  0  0  0  0  0  0  0  0  0  0
   20.3961  -31.6756  276.4213 H   0  0  0  0  0  0  0  0  0  0  0  0
   20.6799  -30.0567  275.7473 H   0  0  0  0  0  0  0  0  0  0  0  0
   24.7797  -34.6069  274.2475 H   0  0  0  0  0  0  0  0  0  0  0  0
   23.6478  -34.8248  271.9567 H   0  0  0  0  0  0  0  0  0  0  0  0
   22.5989  -32.4193  270.8594 H   0  0  0  0  0  0  0  0  0  0  0  0
   23.6760  -31.9037  269.6748 H   0  0  0  0  0  0  0  0  0  0  0  0
   23.1229  -33.4922  269.6748 H   0  0  0  0  0  0  0  0  0  0  0  0
   27.0780  -28.7754  272.0783 H   0  0  0  0  0  0  0  0  0  0  0  0
   26.8163  -30.6203  277.4036 H   0  0  0  0  0  0  0  0  0  0  0  0
   24.6212  -30.2726  279.4899 H   0  0  0  0  0  0  0  0  0  0  0  0
   22.6945  -30.5504  279.2934 H   0  0  0  0  0  0  0  0  0  0  0  0
   20.5731  -32.5859  274.4577 H   0  0  0  0  0  0  0  0  0  0  0  0
   26.7894  -35.1692  273.2469 H   0  0  0  0  0  0  0  0  0  0  0  0
   23.1604  -33.2873  274.0293 H   0  0  0  0  0  0  0  0  0  0  0  0
  1  2  1  0
  1 13  1  0
  1 14  1  0
  2  3  2  0
  3  4  1  0
  3  5  1  0
  4 15  1  0
  5 12  1  0
  5 16  1  0
  6  7  1  0
  6 16  1  0
  6 21  1  0
  7  8  1  0
  7 17  1  0
  8  9  1  0
  8 18  1  0
  9 10  1  0
  9 19  1  0
 10 11  1  0
 10 21  1  0
 11 20  1  0
 12 13  1  0
 12 22  1  0
 13 23  1  0
  1 24  1  6
  2 25  1  0
  4 26  1  0
  4 27  1  0
  5 28  1  1
  6 29  1  6
  7 30  1  6
  8 31  1  1
  9 32  1  6
 10 33  1  1
 11 34  1  0
 11 35  1  0
 12 36  1  1
 13 37  1  6
 14 38  1  0
 14 39  1  0
 14 40  1  0
 15 41  1  0
 17 42  1  0
 18 43  1  0
 19 44  1  0
 20 45  1  0
 22 46  1  0
 23 47  1  0
M  CHG  1  14   1
M  END
>  <filename_input>  (9) 
7MGY_ZD1_docked.sdf

>  <pdb_id>  (9) 
7MGY_ZD1

>  <pose_rank>  (9) 
8

>  <num_atoms_heavy>  (9) 
23

>  <num_torsions>  (9) 
4

>  <pose>  (9) 
[25.11095107971905, -32.26395880351127, 275.0036006679406, -0.0650767097784481, 1.8447793151592367, -1.661506517131536, 2.4117213443593375, 1.746045281297775, 13.217044185071497, 1.67036325701943]

>  <energy>  (9) 
-458.5342300994545

>  <inter_energy>  (9) 
-482.6997304125745

>  <intra_energy>  (9) 
39.10666059464885

>  <rmsd>  (9) 
5.98209

>  <sdf_rank>  (9) 
0

$$$$

     RDKit          3D

 47 48  0  0  0  0  0  0  0  0999 V2000
   24.0498  -30.4936  274.2612 C   0  0  1  0  0  0  0  0  0  0  0  0
   22.9778  -29.6561  274.9050 C   0  0  0  0  0  0  0  0  0  0  0  0
   22.7367  -29.5840  276.2187 C   0  0  0  0  0  0  0  0  0  0  0  0
   21.8840  -28.4766  276.8323 C   0  0  0  0  0  0  0  0  0  0  0  0
   23.5223  -30.3780  277.2326 C   0  0  2  0  0  0  0  0  0  0  0  0
   23.3607  -32.4083  278.5503 C   0  0  1  0  0  0  0  0  0  0  0  0
   22.4584  -33.6681  278.5566 C   0  0  1  0  0  0  0  0  0  0  0  0
   21.3118  -33.5279  279.6145 C   0  0  2  0  0  0  0  0  0  0  0  0
   21.9295  -33.2310  281.0160 C   0  0  1  0  0  0  0  0  0  0  0  0
   22.7262  -31.8932  280.8511 C   0  0  1  0  0  0  0  0  0  0  0  0
   23.4235  -31.4443  282.2098 C   0  0  0  0  0  0  0  0  0  0  0  0
   24.7199  -31.2146  276.5966 C   0  0  1  0  0  0  0  0  0  0  0  0
   24.3972  -31.6846  275.1815 C   0  0  1  0  0  0  0  0  0  0  0  0
   23.5295  -30.9552  272.9841 N   0  0  0  0  0  0  0  0  0  0  0  0
   20.8892  -28.0889  275.9138 O   0  0  0  0  0  0  0  0  0  0  0  0
   22.6830  -31.2909  277.9550 O   0  0  0  0  0  0  0  0  0  0  0  0
   21.8744  -33.7548  277.2731 O   0  0  0  0  0  0  0  0  0  0  0  0
   20.6402  -34.7619  279.7127 O   0  0  0  0  0  0  0  0  0  0  0  0
   20.8530  -33.0437  281.9284 O   0  0  0  0  0  0  0  0  0  0  0  0
   23.9009  -32.6272  282.8345 O   0  0  0  0  0  0  0  0  0  0  0  0
   23.7469  -32.0719  279.8637 O   0  0  0  0  0  0  0  0  0  0  0  0
   25.7765  -30.3052  276.4242 O   0  0  0  0  0  0  0  0  0  0  0  0
   23.3244  -32.5880  275.3171 O   0  0  0  0  0  0  0  0  0  0  0  0
   24.9710  -29.9137  274.1028 H   0  0  0  0  0  0  0  0  0  0  0  0
   22.3404  -29.0540  274.2408 H   0  0  0  0  0  0  0  0  0  0  0  0
   21.4093  -28.8464  277.7531 H   0  0  0  0  0  0  0  0  0  0  0  0
   22.5208  -27.6120  277.0708 H   0  0  0  0  0  0  0  0  0  0  0  0
   23.9444  -29.6210  277.9099 H   0  0  0  0  0  0  0  0  0  0  0  0
   24.2546  -32.6418  277.9532 H   0  0  0  0  0  0  0  0  0  0  0  0
   23.0541  -34.5581  278.8076 H   0  0  0  0  0  0  0  0  0  0  0  0
   20.6324  -32.7185  279.3090 H   0  0  0  0  0  0  0  0  0  0  0  0
   22.5813  -34.0372  281.3835 H   0  0  0  0  0  0  0  0  0  0  0  0
   22.0091  -31.1150  280.5508 H   0  0  0  0  0  0  0  0  0  0  0  0
   24.2608  -30.7627  281.9990 H   0  0  0  0  0  0  0  0  0  0  0  0
   22.7147  -30.9117  282.8609 H   0  0  0  0  0  0  0  0  0  0  0  0
   24.9304  -32.0770  277.2462 H   0  0  0  0  0  0  0  0  0  0  0  0
   25.2602  -32.1724  274.7048 H   0  0  0  0  0  0  0  0  0  0  0  0
   22.7687  -31.6302  273.1470 H   0  0  0  0  0  0  0  0  0  0  0  0
   23.1674  -30.1521  272.4503 H   0  0  0  0  0  0  0  0  0  0  0  0
   24.2837  -31.4103  272.4503 H   0  0  0  0  0  0  0  0  0  0  0  0
   20.0889  -27.7771  276.4062 H   0  0  0  0  0  0  0  0  0  0  0  0
   20.8992  -33.8996  277.3634 H   0  0  0  0  0  0  0  0  0  0  0  0
   20.5140  -34.9938  280.6668 H   0  0  0  0  0  0  0  0  0  0  0  0
   21.1929  -33.1029  282.8564 H   0  0  0  0  0  0  0  0  0  0  0  0
   23.8582  -32.5213  283.8179 H   0  0  0  0  0  0  0  0  0  0  0  0
   26.1115  -30.0168  277.3101 H   0  0  0  0  0  0  0  0  0  0  0  0
   23.1418  -32.7418  276.2779 H   0  0  0  0  0  0  0  0  0  0  0  0
  1  2  1  0
  1 13  1  0
  1 14  1  0
  2  3  2  0
  3  4  1  0
  3  5  1  0
  4 15  1  0
  5 12  1  0
  5 16  1  0
  6  7  1  0
  6 16  1  0
  6 21  1  0
  7  8  1  0
  7 17  1  0
  8  9  1  0
  8 18  1  0
  9 10  1  0
  9 19  1  0
 10 11  1  0
 10 21  1  0
 11 20  1  0
 12 13  1  0
 12 22  1  0
 13 23  1  0
  1 24  1  6
  2 25  1  0
  4 26  1  0
  4 27  1  0
  5 28  1  1
  6 29  1  6
  7 30  1  1
  8 31  1  6
  9 32  1  1
 10 33  1  6
 11 34  1  0
 11 35  1  0
 12 36  1  1
 13 37  1  6
 14 38  1  0
 14 39  1  0
 14 40  1  0
 15 41  1  0
 17 42  1  0
 18 43  1  0
 19 44  1  0
 20 45  1  0
 22 46  1  0
 23 47  1  0
M  CHG  1  14   1
M  END
>  <filename_input>  (10) 
7MGY_ZD1_docked.sdf

>  <pdb_id>  (10) 
7MGY_ZD1

>  <pose_rank>  (10) 
9

>  <num_atoms_heavy>  (10) 
23

>  <num_torsions>  (10) 
4

>  <pose>  (10) 
[22.683010865184585, -31.290938147647026, 277.9550119096215, 2.6003972640011312, 2.999786404086426, 0.5637815265617943, -0.9746624305667222, -3.9707313503404147, 0.2893561851093901, -0.5525511651429078]

>  <energy>  (10) 
-449.1418767286304

>  <inter_energy>  (10) 
-458.72758725093627

>  <intra_energy>  (10) 
21.358347057453805

>  <rmsd>  (10) 
6.91254

>  <sdf_rank>  (10) 
0

$$$$

     RDKit          3D

 47 48  0  0  0  0  0  0  0  0999 V2000
   24.7266  -30.2672  275.6428 C   0  0  1  0  0  0  0  0  0  0  0  0
   24.3478  -31.7053  275.4120 C   0  0  0  0  0  0  0  0  0  0  0  0
   23.4205  -32.3812  276.0995 C   0  0  0  0  0  0  0  0  0  0  0  0
   22.8423  -33.7048  275.6060 C   0  0  0  0  0  0  0  0  0  0  0  0
   22.6426  -31.7644  277.2353 C   0  0  2  0  0  0  0  0  0  0  0  0
   22.0314  -33.5679  278.7381 C   0  0  1  0  0  0  0  0  0  0  0  0
   21.1286  -33.3035  279.9696 C   0  0  1  0  0  0  0  0  0  0  0  0
   21.9625  -33.3577  281.2945 C   0  0  2  0  0  0  0  0  0  0  0  0
   22.7080  -34.7250  281.3854 C   0  0  1  0  0  0  0  0  0  0  0  0
   23.6312  -34.7869  280.1223 C   0  0  1  0  0  0  0  0  0  0  0  0
   24.4734  -36.1366  280.0660 C   0  0  0  0  0  0  0  0  0  0  0  0
   22.9575  -30.2183  277.4568 C   0  0  1  0  0  0  0  0  0  0  0  0
   24.4007  -29.8748  277.1008 C   0  0  1  0  0  0  0  0  0  0  0  0
   26.1511  -30.1470  275.3758 N   0  0  0  0  0  0  0  0  0  0  0  0
   22.8421  -33.7191  274.1976 O   0  0  0  0  0  0  0  0  0  0  0  0
   22.8871  -32.4451  278.4749 O   0  0  0  0  0  0  0  0  0  0  0  0
   20.6112  -31.9975  279.8200 O   0  0  0  0  0  0  0  0  0  0  0  0
   21.0735  -33.2992  282.3853 O   0  0  0  0  0  0  0  0  0  0  0  0
   23.5036  -34.7024  282.5656 O   0  0  0  0  0  0  0  0  0  0  0  0
   24.0555  -36.9255  281.1708 O   0  0  0  0  0  0  0  0  0  0  0  0
   22.8219  -34.7168  278.9438 O   0  0  0  0  0  0  0  0  0  0  0  0
   22.1940  -29.5286  276.5006 O   0  0  0  0  0  0  0  0  0  0  0  0
   25.1971  -30.5685  278.0335 O   0  0  0  0  0  0  0  0  0  0  0  0
   24.1633  -29.5927  274.9812 H   0  0  0  0  0  0  0  0  0  0  0  0
   24.8767  -32.2448  274.6125 H   0  0  0  0  0  0  0  0  0  0  0  0
   23.4567  -34.5364  275.9814 H   0  0  0  0  0  0  0  0  0  0  0  0
   21.8119  -33.8159  275.9747 H   0  0  0  0  0  0  0  0  0  0  0  0
   21.5889  -31.8684  276.9374 H   0  0  0  0  0  0  0  0  0  0  0  0
   21.3736  -33.7253  277.8706 H   0  0  0  0  0  0  0  0  0  0  0  0
   20.3366  -34.0646  280.0276 H   0  0  0  0  0  0  0  0  0  0  0  0
   22.6780  -32.5223  281.3080 H   0  0  0  0  0  0  0  0  0  0  0  0
   22.0284  -35.5893  281.4218 H   0  0  0  0  0  0  0  0  0  0  0  0
   24.3300  -33.9394  280.1803 H   0  0  0  0  0  0  0  0  0  0  0  0
   24.2746  -36.6684  279.1239 H   0  0  0  0  0  0  0  0  0  0  0  0
   25.5531  -35.9312  280.1127 H   0  0  0  0  0  0  0  0  0  0  0  0
   22.7532  -29.9648  278.5075 H   0  0  0  0  0  0  0  0  0  0  0  0
   24.5897  -28.7925  277.1550 H   0  0  0  0  0  0  0  0  0  0  0  0
   26.6651  -30.1036  276.2674 H   0  0  0  0  0  0  0  0  0  0  0  0
   26.4694  -30.9641  274.8355 H   0  0  0  0  0  0  0  0  0  0  0  0
   26.3279  -29.2881  274.8355 H   0  0  0  0  0  0  0  0  0  0  0  0
   22.8325  -34.6558  273.8771 H   0  0  0  0  0  0  0  0  0  0  0  0
   20.4539  -31.6006  280.7132 H   0  0  0  0  0  0  0  0  0  0  0  0
   21.5867  -33.3330  283.2313 H   0  0  0  0  0  0  0  0  0  0  0  0
   22.9145  -34.7192  283.3611 H   0  0  0  0  0  0  0  0  0  0  0  0
   24.2983  -36.4672  282.0141 H   0  0  0  0  0  0  0  0  0  0  0  0
   21.5431  -28.9406  276.9596 H   0  0  0  0  0  0  0  0  0  0  0  0
   24.9177  -30.3251  278.9516 H   0  0  0  0  0  0  0  0  0  0  0  0
  1  2  1  0
  1 13  1  0
  1 14  1  0
  2  3  2  0
  3  4  1  0
  3  5  1  0
  4 15  1  0
  5 12  1  0
  5 16  1  0
  6  7  1  0
  6 16  1  0
  6 21  1  0
  7  8  1  0
  7 17  1  0
  8  9  1  0
  8 18  1  0
  9 10  1  0
  9 19  1  0
 10 11  1  0
 10 21  1  0
 11 20  1  0
 12 13  1  0
 12 22  1  0
 13 23  1  0
  1 24  1  6
  2 25  1  0
  4 26  1  0
  4 27  1  0
  5 28  1  6
  6 29  1  6
  7 30  1  1
  8 31  1  6
  9 32  1  1
 10 33  1  1
 11 34  1  0
 11 35  1  0
 12 36  1  1
 13 37  1  6
 14 38  1  0
 14 39  1  0
 14 40  1  0
 15 41  1  0
 17 42  1  0
 18 43  1  0
 19 44  1  0
 20 45  1  0
 22 46  1  0
 23 47  1  0
M  CHG  1  14   1
M  END
>  <filename_input>  (11) 
7MGY_ZD1_docked.sdf

>  <pdb_id>  (11) 
7MGY_ZD1

>  <pose_rank>  (11) 
10

>  <num_atoms_heavy>  (11) 
23

>  <num_torsions>  (11) 
4

>  <pose>  (11) 
[22.887116694200035, -32.44510268056817, 278.47489364311156, -1.5303283827854939, 0.7834868879315318, 0.08291275626132616, -5.256237128726187, 1.2199982695195526, 0.8498570316736584, -1.1650830757520045]

>  <energy>  (11) 
-403.8458907570514

>  <inter_energy>  (11) 
-433.96548339967745

>  <intra_energy>  (11) 
28.09091520487101

>  <rmsd>  (11) 
7.07377

>  <sdf_rank>  (11) 
0

$$$$

     RDKit          3D

 47 48  0  0  0  0  0  0  0  0999 V2000
   22.9677  -32.4084  271.1666 C   0  0  1  0  0  0  0  0  0  0  0  0
   24.3740  -31.8787  271.0868 C   0  0  0  0  0  0  0  0  0  0  0  0
   25.3673  -32.1910  271.9265 C   0  0  0  0  0  0  0  0  0  0  0  0
   26.8309  -31.9036  271.6021 C   0  0  0  0  0  0  0  0  0  0  0  0
   25.1764  -33.1205  273.0992 C   0  0  2  0  0  0  0  0  0  0  0  0
   25.4667  -31.0219  274.2807 C   0  0  1  0  0  0  0  0  0  0  0  0
   26.7319  -30.4696  274.9848 C   0  0  1  0  0  0  0  0  0  0  0  0
   26.6092  -30.6061  276.5403 C   0  0  2  0  0  0  0  0  0  0  0  0
   25.3037  -29.9021  277.0238 C   0  0  1  0  0  0  0  0  0  0  0  0
   24.1318  -30.6352  276.2883 C   0  0  1  0  0  0  0  0  0  0  0  0
   22.7123  -30.0305  276.6800 C   0  0  0  0  0  0  0  0  0  0  0  0
   23.7214  -33.7659  273.1695 C   0  0  1  0  0  0  0  0  0  0  0  0
   22.6539  -32.8242  272.6208 C   0  0  1  0  0  0  0  0  0  0  0  0
   22.0793  -31.3453  270.7244 N   0  0  0  0  0  0  0  0  0  0  0  0
   26.9129  -30.7592  270.7851 O   0  0  0  0  0  0  0  0  0  0  0  0
   25.4235  -32.4557  274.3469 O   0  0  0  0  0  0  0  0  0  0  0  0
   27.8166  -31.2636  274.5503 O   0  0  0  0  0  0  0  0  0  0  0  0
   27.6893  -29.9262  277.1357 O   0  0  0  0  0  0  0  0  0  0  0  0
   25.1989  -30.1101  278.4281 O   0  0  0  0  0  0  0  0  0  0  0  0
   22.3687  -29.1017  275.6618 O   0  0  0  0  0  0  0  0  0  0  0  0
   24.3020  -30.4938  274.8742 O   0  0  0  0  0  0  0  0  0  0  0  0
   23.7316  -34.8392  272.2634 O   0  0  0  0  0  0  0  0  0  0  0  0
   22.6309  -31.7232  273.5000 O   0  0  0  0  0  0  0  0  0  0  0  0
   22.8363  -33.2955  270.5296 H   0  0  0  0  0  0  0  0  0  0  0  0
   24.6040  -31.1773  270.2712 H   0  0  0  0  0  0  0  0  0  0  0  0
   27.3863  -31.7288  272.5354 H   0  0  0  0  0  0  0  0  0  0  0  0
   27.2659  -32.7645  271.0733 H   0  0  0  0  0  0  0  0  0  0  0  0
   25.9092  -33.9247  272.9368 H   0  0  0  0  0  0  0  0  0  0  0  0
   25.5122  -30.7154  273.2252 H   0  0  0  0  0  0  0  0  0  0  0  0
   26.8662  -29.4056  274.7401 H   0  0  0  0  0  0  0  0  0  0  0  0
   26.6004  -31.6720  276.8120 H   0  0  0  0  0  0  0  0  0  0  0  0
   25.2887  -28.8224  276.8142 H   0  0  0  0  0  0  0  0  0  0  0  0
   24.1591  -31.6921  276.5921 H   0  0  0  0  0  0  0  0  0  0  0  0
   21.9603  -30.8317  276.7316 H   0  0  0  0  0  0  0  0  0  0  0  0
   22.7487  -29.5421  277.6649 H   0  0  0  0  0  0  0  0  0  0  0  0
   23.5011  -34.0236  274.2160 H   0  0  0  0  0  0  0  0  0  0  0  0
   21.6665  -33.3066  272.5739 H   0  0  0  0  0  0  0  0  0  0  0  0
   21.6802  -30.8677  271.5451 H   0  0  0  0  0  0  0  0  0  0  0  0
   22.6096  -30.6683  270.1574 H   0  0  0  0  0  0  0  0  0  0  0  0
   21.3189  -31.7468  270.1574 H   0  0  0  0  0  0  0  0  0  0  0  0
   26.9709  -29.9511  271.3541 H   0  0  0  0  0  0  0  0  0  0  0  0
   28.3016  -31.6186  275.3370 H   0  0  0  0  0  0  0  0  0  0  0  0
   27.6084  -29.9771  278.1211 H   0  0  0  0  0  0  0  0  0  0  0  0
   25.5891  -29.3361  278.9064 H   0  0  0  0  0  0  0  0  0  0  0  0
   22.0567  -28.2584  276.0761 H   0  0  0  0  0  0  0  0  0  0  0  0
   23.7397  -35.6934  272.7638 H   0  0  0  0  0  0  0  0  0  0  0  0
   22.6377  -32.0477  274.4353 H   0  0  0  0  0  0  0  0  0  0  0  0
  1  2  1  0
  1 13  1  0
  1 14  1  0
  2  3  2  0
  3  4  1  0
  3  5  1  0
  4 15  1  0
  5 12  1  0
  5 16  1  0
  6  7  1  0
  6 16  1  0
  6 21  1  0
  7  8  1  0
  7 17  1  0
  8  9  1  0
  8 18  1  0
  9 10  1  0
  9 19  1  0
 10 11  1  0
 10 21  1  0
 11 20  1  0
 12 13  1  0
 12 22  1  0
 13 23  1  0
  1 24  1  6
  2 25  1  0
  4 26  1  0
  4 27  1  0
  5 28  1  6
  6 29  1  6
  7 30  1  1
  8 31  1  6
  9 32  1  1
 10 33  1  6
 11 34  1  0
 11 35  1  0
 12 36  1  1
 13 37  1  6
 14 38  1  0
 14 39  1  0
 14 40  1  0
 15 41  1  0
 17 42  1  0
 18 43  1  0
 19 44  1  0
 20 45  1  0
 22 46  1  0
 23 47  1  0
M  CHG  1  14   1
M  END
>  <filename_input>  (12) 
7MGY_ZD1_docked.sdf

>  <pdb_id>  (12) 
7MGY_ZD1

>  <pose_rank>  (12) 
11

>  <num_atoms_heavy>  (12) 
23

>  <num_torsions>  (12) 
4

>  <pose>  (12) 
[25.423523147890464, -32.4557294117257, 274.3468711861493, -0.39116856031148084, 2.2646401592559857, -2.139859337236143, 2.8176917856524804, 2.282847590189552, 13.141987884029627, 0.4625536103865476]

>  <energy>  (12) 
-492.9946439852793

>  <inter_energy>  (12) 
-555.2962152500362

>  <intra_energy>  (12) 
59.413410561271284

>  <rmsd>  (12) 
5.79357

>  <sdf_rank>  (12) 
0

$$$$

     RDKit          3D

 47 48  0  0  0  0  0  0  0  0999 V2000
   24.1546  -33.7805  272.0563 C   0  0  1  0  0  0  0  0  0  0  0  0
   23.7066  -32.5478  271.3184 C   0  0  0  0  0  0  0  0  0  0  0  0
   23.7037  -31.3063  271.8161 C   0  0  0  0  0  0  0  0  0  0  0  0
   23.5712  -30.0715  270.9285 C   0  0  0  0  0  0  0  0  0  0  0  0
   24.1408  -30.9964  273.2263 C   0  0  2  0  0  0  0  0  0  0  0  0
   23.3869  -29.2174  274.6931 C   0  0  1  0  0  0  0  0  0  0  0  0
   24.4003  -29.4745  275.8370 C   0  0  1  0  0  0  0  0  0  0  0  0
   23.7167  -30.2251  277.0297 C   0  0  2  0  0  0  0  0  0  0  0  0
   22.4709  -29.4172  277.5084 C   0  0  1  0  0  0  0  0  0  0  0  0
   21.5225  -29.3287  276.2657 C   0  0  1  0  0  0  0  0  0  0  0  0
   20.1866  -28.5269  276.5923 C   0  0  0  0  0  0  0  0  0  0  0  0
   24.6993  -32.2645  274.0128 C   0  0  1  0  0  0  0  0  0  0  0  0
   24.0092  -33.5535  273.5774 C   0  0  1  0  0  0  0  0  0  0  0  0
   23.3148  -34.8808  271.6102 N   0  0  0  0  0  0  0  0  0  0  0  0
   23.8553  -30.4219  269.5943 O   0  0  0  0  0  0  0  0  0  0  0  0
   23.0706  -30.4349  274.0005 O   0  0  0  0  0  0  0  0  0  0  0  0
   25.4099  -30.3069  275.3046 O   0  0  0  0  0  0  0  0  0  0  0  0
   24.6206  -30.2672  278.1089 O   0  0  0  0  0  0  0  0  0  0  0  0
   21.8442  -30.1679  278.5429 O   0  0  0  0  0  0  0  0  0  0  0  0
   20.0223  -27.5678  275.5576 O   0  0  0  0  0  0  0  0  0  0  0  0
   22.2009  -28.6511  275.2031 O   0  0  0  0  0  0  0  0  0  0  0  0
   26.0287  -32.4262  273.5889 O   0  0  0  0  0  0  0  0  0  0  0  0
   22.6637  -33.4159  273.9726 O   0  0  0  0  0  0  0  0  0  0  0  0
   25.2110  -34.0089  271.8520 H   0  0  0  0  0  0  0  0  0  0  0  0
   23.3527  -32.6784  270.2851 H   0  0  0  0  0  0  0  0  0  0  0  0
   22.5452  -29.6804  270.9947 H   0  0  0  0  0  0  0  0  0  0  0  0
   24.2793  -29.2998  271.2645 H   0  0  0  0  0  0  0  0  0  0  0  0
   24.9574  -30.2688  273.1092 H   0  0  0  0  0  0  0  0  0  0  0  0
   23.8539  -28.5163  273.9857 H   0  0  0  0  0  0  0  0  0  0  0  0
   24.7978  -28.5194  276.2112 H   0  0  0  0  0  0  0  0  0  0  0  0
   23.4247  -31.2345  276.7045 H   0  0  0  0  0  0  0  0  0  0  0  0
   22.7216  -28.4154  277.8872 H   0  0  0  0  0  0  0  0  0  0  0  0
   21.2540  -30.3563  275.9795 H   0  0  0  0  0  0  0  0  0  0  0  0
   19.3276  -29.2137  276.6123 H   0  0  0  0  0  0  0  0  0  0  0  0
   20.2484  -28.0399  277.5767 H   0  0  0  0  0  0  0  0  0  0  0  0
   24.5561  -32.1008  275.0911 H   0  0  0  0  0  0  0  0  0  0  0  0
   24.4641  -34.4398  274.0438 H   0  0  0  0  0  0  0  0  0  0  0  0
   22.9357  -35.3774  272.4291 H   0  0  0  0  0  0  0  0  0  0  0  0
   22.5384  -34.5119  271.0427 H   0  0  0  0  0  0  0  0  0  0  0  0
   23.8754  -35.5324  271.0427 H   0  0  0  0  0  0  0  0  0  0  0  0
   24.4787  -31.1909  269.5806 H   0  0  0  0  0  0  0  0  0  0  0  0
   25.9172  -30.7251  276.0448 H   0  0  0  0  0  0  0  0  0  0  0  0
   24.1179  -30.2438  278.9615 H   0  0  0  0  0  0  0  0  0  0  0  0
   22.1336  -29.8212  279.4239 H   0  0  0  0  0  0  0  0  0  0  0  0
   19.8693  -26.6748  275.9567 H   0  0  0  0  0  0  0  0  0  0  0  0
   26.6206  -32.4981  274.3793 H   0  0  0  0  0  0  0  0  0  0  0  0
   22.6091  -33.4103  274.9611 H   0  0  0  0  0  0  0  0  0  0  0  0
  1  2  1  0
  1 13  1  0
  1 14  1  0
  2  3  2  0
  3  4  1  0
  3  5  1  0
  4 15  1  0
  5 12  1  0
  5 16  1  0
  6  7  1  0
  6 16  1  0
  6 21  1  0
  7  8  1  0
  7 17  1  0
  8  9  1  0
  8 18  1  0
  9 10  1  0
  9 19  1  0
 10 11  1  0
 10 21  1  0
 11 20  1  0
 12 13  1  0
 12 22  1  0
 13 23  1  0
  1 24  1  1
  2 25  1  0
  4 26  1  0
  4 27  1  0
  5 28  1  6
  6 29  1  6
  7 30  1  1
  8 31  1  6
  9 32  1  1
 10 33  1  6
 11 34  1  0
 11 35  1  0
 12 36  1  1
 13 37  1  1
 14 38  1  0
 14 39  1  0
 14 40  1  0
 15 41  1  0
 17 42  1  0
 18 43  1  0
 19 44  1  0
 20 45  1  0
 22 46  1  0
 23 47  1  0
M  CHG  1  14   1
M  END
>  <filename_input>  (13) 
7MGY_ZD1_docked.sdf

>  <pdb_id>  (13) 
7MGY_ZD1

>  <pose_rank>  (13) 
12

>  <num_atoms_heavy>  (13) 
23

>  <num_torsions>  (13) 
4

>  <pose>  (13) 
[23.070635845625077, -30.434909651391003, 274.00046205868665, 1.293154289742928, 1.7167824895246626, -1.294588352985424, 0.30448362037942917, 1.4532376198726291, 14.221225941242098, 1.054926504145749]

>  <energy>  (13) 
-308.37708566457457

>  <inter_energy>  (13) 
-403.18663517569144

>  <intra_energy>  (13) 
91.0388898871355

>  <rmsd>  (13) 
6.22998

>  <sdf_rank>  (13) 
0

$$$$

     RDKit          3D

 47 48  0  0  0  0  0  0  0  0999 V2000
   23.9043  -29.9155  277.8715 C   0  0  1  0  0  0  0  0  0  0  0  0
   25.1666  -30.0642  277.0657 C   0  0  0  0  0  0  0  0  0  0  0  0
   25.2266  -30.1656  275.7332 C   0  0  0  0  0  0  0  0  0  0  0  0
   26.5264  -29.9684  274.9576 C   0  0  0  0  0  0  0  0  0  0  0  0
   23.9943  -30.1663  274.8632 C   0  0  2  0  0  0  0  0  0  0  0  0
   23.6725  -31.2551  272.7195 C   0  0  1  0  0  0  0  0  0  0  0  0
   23.1429  -32.5703  272.0941 C   0  0  1  0  0  0  0  0  0  0  0  0
   24.2673  -33.6598  272.0506 C   0  0  2  0  0  0  0  0  0  0  0  0
   25.5087  -33.0973  271.2915 C   0  0  1  0  0  0  0  0  0  0  0  0
   25.9619  -31.8356  272.1004 C   0  0  1  0  0  0  0  0  0  0  0  0
   27.2363  -31.1376  271.4502 C   0  0  0  0  0  0  0  0  0  0  0  0
   22.6431  -29.9287  275.6734 C   0  0  1  0  0  0  0  0  0  0  0  0
   22.7154  -30.5077  277.0830 C   0  0  1  0  0  0  0  0  0  0  0  0
   24.1051  -30.6256  279.1247 N   0  0  0  0  0  0  0  0  0  0  0  0
   27.5254  -29.4963  275.8310 O   0  0  0  0  0  0  0  0  0  0  0  0
   23.8607  -31.3964  274.1361 O   0  0  0  0  0  0  0  0  0  0  0  0
   22.1063  -33.0308  272.9362 O   0  0  0  0  0  0  0  0  0  0  0  0
   23.7951  -34.7608  271.3102 O   0  0  0  0  0  0  0  0  0  0  0  0
   26.5261  -34.0919  271.3363 O   0  0  0  0  0  0  0  0  0  0  0  0
   26.9163  -29.7620  271.2990 O   0  0  0  0  0  0  0  0  0  0  0  0
   24.8943  -30.8825  272.1230 O   0  0  0  0  0  0  0  0  0  0  0  0
   22.5537  -28.5416  275.8757 O   0  0  0  0  0  0  0  0  0  0  0  0
   22.8248  -31.9025  276.9152 O   0  0  0  0  0  0  0  0  0  0  0  0
   23.6786  -28.8578  278.0723 H   0  0  0  0  0  0  0  0  0  0  0  0
   26.1178  -30.0916  277.6175 H   0  0  0  0  0  0  0  0  0  0  0  0
   26.8430  -30.9276  274.5221 H   0  0  0  0  0  0  0  0  0  0  0  0
   26.3663  -29.2362  274.1524 H   0  0  0  0  0  0  0  0  0  0  0  0
   24.1424  -29.3224  274.1733 H   0  0  0  0  0  0  0  0  0  0  0  0
   22.9210  -30.4729  272.5365 H   0  0  0  0  0  0  0  0  0  0  0  0
   22.7980  -32.3873  271.0657 H   0  0  0  0  0  0  0  0  0  0  0  0
   24.5360  -33.9461  273.0781 H   0  0  0  0  0  0  0  0  0  0  0  0
   25.2976  -32.8404  270.2429 H   0  0  0  0  0  0  0  0  0  0  0  0
   26.2239  -32.1689  273.1155 H   0  0  0  0  0  0  0  0  0  0  0  0
   28.1094  -31.2534  272.1092 H   0  0  0  0  0  0  0  0  0  0  0  0
   27.4859  -31.5943  270.4811 H   0  0  0  0  0  0  0  0  0  0  0  0
   21.8131  -30.3866  275.1152 H   0  0  0  0  0  0  0  0  0  0  0  0
   21.8242  -30.2549  277.6762 H   0  0  0  0  0  0  0  0  0  0  0  0
   23.9248  -29.9880  279.9133 H   0  0  0  0  0  0  0  0  0  0  0  0
   23.4570  -31.4247  279.1742 H   0  0  0  0  0  0  0  0  0  0  0  0
   25.0756  -30.9671  279.1742 H   0  0  0  0  0  0  0  0  0  0  0  0
   27.2361  -29.6330  276.7678 H   0  0  0  0  0  0  0  0  0  0  0  0
   22.3726  -32.9125  273.8823 H   0  0  0  0  0  0  0  0  0  0  0  0
   23.4911  -35.4698  271.9307 H   0  0  0  0  0  0  0  0  0  0  0  0
   26.7409  -34.3019  272.2796 H   0  0  0  0  0  0  0  0  0  0  0  0
   26.8195  -29.3457  272.1920 H   0  0  0  0  0  0  0  0  0  0  0  0
   22.5413  -28.3498  276.8468 H   0  0  0  0  0  0  0  0  0  0  0  0
   22.8592  -32.3399  277.8027 H   0  0  0  0  0  0  0  0  0  0  0  0
  1  2  1  0
  1 13  1  0
  1 14  1  0
  2  3  2  0
  3  4  1  0
  3  5  1  0
  4 15  1  0
  5 12  1  0
  5 16  1  0
  6  7  1  0
  6 16  1  0
  6 21  1  0
  7  8  1  0
  7 17  1  0
  8  9  1  0
  8 18  1  0
  9 10  1  0
  9 19  1  0
 10 11  1  0
 10 21  1  0
 11 20  1  0
 12 13  1  0
 12 22  1  0
 13 23  1  0
  1 24  1  1
  2 25  1  0
  4 26  1  0
  4 27  1  0
  5 28  1  6
  6 29  1  1
  7 30  1  6
  8 31  1  1
  9 32  1  6
 10 33  1  1
 11 34  1  0
 11 35  1  0
 12 36  1  6
 13 37  1  1
 14 38  1  0
 14 39  1  0
 14 40  1  0
 15 41  1  0
 17 42  1  0
 18 43  1  0
 19 44  1  0
 20 45  1  0
 22 46  1  0
 23 47  1  0
M  CHG  1  14   1
M  END
>  <filename_input>  (14) 
7MGY_ZD1_docked.sdf

>  <pdb_id>  (14) 
7MGY_ZD1

>  <pose_rank>  (14) 
13

>  <num_atoms_heavy>  (14) 
23

>  <num_torsions>  (14) 
4

>  <pose>  (14) 
[23.860747056904685, -31.396388007936483, 274.1361368251667, -0.8151870953089855, 5.639234067612145, 2.4196337928060045, 0.32414493817930096, -4.673544442566764, -0.006856988244692823, 1.0166676848735212]

>  <energy>  (14) 
-924.192657168641

>  <inter_energy>  (14) 
-908.347077119384

>  <intra_energy>  (14) 
4.773475786480632

>  <rmsd>  (14) 
0.570936

>  <sdf_rank>  (14) 
0

$$$$

     RDKit          3D

 47 48  0  0  0  0  0  0  0  0999 V2000
   32.5509  -35.8053  282.3768 C   0  0  1  0  0  0  0  0  0  0  0  0
   32.0340  -34.4283  282.6951 C   0  0  0  0  0  0  0  0  0  0  0  0
   31.6289  -33.5264  281.7941 C   0  0  0  0  0  0  0  0  0  0  0  0
   30.8047  -32.3009  282.1799 C   0  0  0  0  0  0  0  0  0  0  0  0
   31.6687  -33.7886  280.3091 C   0  0  2  0  0  0  0  0  0  0  0  0
   32.4094  -32.8398  278.2030 C   0  0  1  0  0  0  0  0  0  0  0  0
   33.6510  -32.1871  277.5444 C   0  0  1  0  0  0  0  0  0  0  0  0
   33.6633  -30.6399  277.7882 C   0  0  2  0  0  0  0  0  0  0  0  0
   32.3248  -30.0215  277.2784 C   0  0  1  0  0  0  0  0  0  0  0  0
   31.1944  -30.7243  278.1029 C   0  0  1  0  0  0  0  0  0  0  0  0
   29.7477  -30.1963  277.6999 C   0  0  0  0  0  0  0  0  0  0  0  0
   32.1336  -35.2662  279.9359 C   0  0  1  0  0  0  0  0  0  0  0  0
   33.1334  -35.8205  280.9461 C   0  0  1  0  0  0  0  0  0  0  0  0
   33.5745  -36.1212  283.3605 N   0  0  0  0  0  0  0  0  0  0  0  0
   29.4544  -32.6729  282.3277 O   0  0  0  0  0  0  0  0  0  0  0  0
   32.5393  -32.8696  279.6328 O   0  0  0  0  0  0  0  0  0  0  0  0
   34.7851  -32.7479  278.1730 O   0  0  0  0  0  0  0  0  0  0  0  0
   34.6985  -30.0740  277.0190 O   0  0  0  0  0  0  0  0  0  0  0  0
   32.3517  -28.6309  277.5817 O   0  0  0  0  0  0  0  0  0  0  0  0
   29.5160  -30.6186  276.3638 O   0  0  0  0  0  0  0  0  0  0  0  0
   31.2393  -32.1336  277.8571 O   0  0  0  0  0  0  0  0  0  0  0  0
   30.9988  -36.0788  280.0939 O   0  0  0  0  0  0  0  0  0  0  0  0
   34.2816  -35.0127  280.8262 O   0  0  0  0  0  0  0  0  0  0  0  0
   31.7473  -36.5553  282.4185 H   0  0  0  0  0  0  0  0  0  0  0  0
   31.9852  -34.1398  283.7555 H   0  0  0  0  0  0  0  0  0  0  0  0
   31.1787  -31.8913  283.1298 H   0  0  0  0  0  0  0  0  0  0  0  0
   30.8914  -31.5372  281.3929 H   0  0  0  0  0  0  0  0  0  0  0  0
   30.6290  -33.6537  279.9764 H   0  0  0  0  0  0  0  0  0  0  0  0
   32.3387  -33.8723  277.8303 H   0  0  0  0  0  0  0  0  0  0  0  0
   33.6411  -32.3666  276.4592 H   0  0  0  0  0  0  0  0  0  0  0  0
   33.7998  -30.4421  278.8616 H   0  0  0  0  0  0  0  0  0  0  0  0
   32.1679  -30.1548  276.1979 H   0  0  0  0  0  0  0  0  0  0  0  0
   31.3679  -30.4964  279.1650 H   0  0  0  0  0  0  0  0  0  0  0  0
   28.9877  -30.6247  278.3700 H   0  0  0  0  0  0  0  0  0  0  0  0
   29.6888  -29.1011  277.7844 H   0  0  0  0  0  0  0  0  0  0  0  0
   32.5769  -35.2518  278.9293 H   0  0  0  0  0  0  0  0  0  0  0  0
   33.3756  -36.8748  280.7469 H   0  0  0  0  0  0  0  0  0  0  0  0
   33.1885  -36.0021  284.3079 H   0  0  0  0  0  0  0  0  0  0  0  0
   33.8820  -37.0962  283.2350 H   0  0  0  0  0  0  0  0  0  0  0  0
   34.3779  -35.4890  283.2350 H   0  0  0  0  0  0  0  0  0  0  0  0
   29.2325  -32.7341  283.2906 H   0  0  0  0  0  0  0  0  0  0  0  0
   34.6776  -32.6947  279.1557 H   0  0  0  0  0  0  0  0  0  0  0  0
   35.3883  -29.6968  277.6207 H   0  0  0  0  0  0  0  0  0  0  0  0
   32.3541  -28.5073  278.5640 H   0  0  0  0  0  0  0  0  0  0  0  0
   29.0398  -31.4865  276.3698 H   0  0  0  0  0  0  0  0  0  0  0  0
   30.8175  -36.2086  281.0585 H   0  0  0  0  0  0  0  0  0  0  0  0
   34.6155  -34.7777  281.7281 H   0  0  0  0  0  0  0  0  0  0  0  0
  1  2  1  0
  1 13  1  0
  1 14  1  0
  2  3  2  0
  3  4  1  0
  3  5  1  0
  4 15  1  0
  5 12  1  0
  5 16  1  0
  6  7  1  0
  6 16  1  0
  6 21  1  0
  7  8  1  0
  7 17  1  0
  8  9  1  0
  8 18  1  0
  9 10  1  0
  9 19  1  0
 10 11  1  0
 10 21  1  0
 11 20  1  0
 12 13  1  0
 12 22  1  0
 13 23  1  0
  1 24  1  6
  2 25  1  0
  4 26  1  0
  4 27  1  0
  5 28  1  6
  6 29  1  6
  7 30  1  6
  8 31  1  1
  9 32  1  6
 10 33  1  1
 11 34  1  0
 11 35  1  0
 12 36  1  6
 13 37  1  6
 14 38  1  0
 14 39  1  0
 14 40  1  0
 15 41  1  0
 17 42  1  0
 18 43  1  0
 19 44  1  0
 20 45  1  0
 22 46  1  0
 23 47  1  0
M  CHG  1  14   1
M  END
>  <filename_input>  (15) 
7MGY_ZD1_docked.sdf

>  <pdb_id>  (15) 
7MGY_ZD1

>  <pose_rank>  (15) 
14

>  <num_atoms_heavy>  (15) 
23

>  <num_torsions>  (15) 
4

>  <pose>  (15) 
[32.539255612250834, -32.86963236750304, 279.6328158661261, -0.5574325677470049, 0.3053287717037865, -3.8840222443373693, -25.476286607489058, -5.928791500981489, 0.024395725584942334, -0.062016759851751084]

>  <energy>  (15) 
-195.56555619863954

>  <inter_energy>  (15) 
-219.6130122170638

>  <intra_energy>  (15) 
0.0

>  <rmsd>  (15) 
10.4307

>  <sdf_rank>  (15) 
0

$$$$

     RDKit          3D

 47 48  0  0  0  0  0  0  0  0999 V2000
   18.9233  -40.2465  271.9709 C   0  0  1  0  0  0  0  0  0  0  0  0
   19.6682  -40.2414  273.2785 C   0  0  0  0  0  0  0  0  0  0  0  0
   20.1263  -39.1514  273.9039 C   0  0  0  0  0  0  0  0  0  0  0  0
   20.5598  -39.1718  275.3673 C   0  0  0  0  0  0  0  0  0  0  0  0
   19.9630  -37.7625  273.3381 C   0  0  2  0  0  0  0  0  0  0  0  0
   21.9423  -36.6791  274.2288 C   0  0  1  0  0  0  0  0  0  0  0  0
   22.4916  -35.2477  274.0039 C   0  0  1  0  0  0  0  0  0  0  0  0
   23.6990  -35.2638  273.0063 C   0  0  2  0  0  0  0  0  0  0  0  0
   24.7929  -36.2460  273.5282 C   0  0  1  0  0  0  0  0  0  0  0  0
   24.0975  -37.6464  273.6115 C   0  0  1  0  0  0  0  0  0  0  0  0
   25.0923  -38.7751  274.1315 C   0  0  0  0  0  0  0  0  0  0  0  0
   19.1077  -37.7190  271.9946 C   0  0  1  0  0  0  0  0  0  0  0  0
   19.2921  -38.9836  271.1614 C   0  0  1  0  0  0  0  0  0  0  0  0
   19.3086  -41.4543  271.2582 N   0  0  0  0  0  0  0  0  0  0  0  0
   21.8717  -39.6757  275.4596 O   0  0  0  0  0  0  0  0  0  0  0  0
   21.2319  -37.1472  273.0719 O   0  0  0  0  0  0  0  0  0  0  0  0
   21.4435  -34.4977  273.4252 O   0  0  0  0  0  0  0  0  0  0  0  0
   24.2760  -33.9793  272.9813 O   0  0  0  0  0  0  0  0  0  0  0  0
   25.8359  -36.2806  272.5599 O   0  0  0  0  0  0  0  0  0  0  0  0
   24.3241  -39.9607  274.2790 O   0  0  0  0  0  0  0  0  0  0  0  0
   22.9945  -37.5708  274.5206 O   0  0  0  0  0  0  0  0  0  0  0  0
   17.7614  -37.7631  272.3931 O   0  0  0  0  0  0  0  0  0  0  0  0
   20.6426  -38.9798  270.7596 O   0  0  0  0  0  0  0  0  0  0  0  0
   17.8348  -40.2361  272.1291 H   0  0  0  0  0  0  0  0  0  0  0  0
   19.8509  -41.2137  273.7594 H   0  0  0  0  0  0  0  0  0  0  0  0
   20.5298  -38.1498  275.7732 H   0  0  0  0  0  0  0  0  0  0  0  0
   19.8780  -39.8144  275.9436 H   0  0  0  0  0  0  0  0  0  0  0  0
   19.4196  -37.2084  274.1177 H   0  0  0  0  0  0  0  0  0  0  0  0
   21.2478  -36.6394  275.0810 H   0  0  0  0  0  0  0  0  0  0  0  0
   22.8359  -34.8211  274.9575 H   0  0  0  0  0  0  0  0  0  0  0  0
   23.3442  -35.5694  272.0110 H   0  0  0  0  0  0  0  0  0  0  0  0
   25.2112  -35.9531  274.5025 H   0  0  0  0  0  0  0  0  0  0  0  0
   23.7643  -37.9121  272.5975 H   0  0  0  0  0  0  0  0  0  0  0  0
   25.8993  -38.9348  273.4012 H   0  0  0  0  0  0  0  0  0  0  0  0
   25.5571  -38.4839  275.0850 H   0  0  0  0  0  0  0  0  0  0  0  0
   19.4077  -36.8335  271.4151 H   0  0  0  0  0  0  0  0  0  0  0  0
   18.6250  -38.9993  270.2869 H   0  0  0  0  0  0  0  0  0  0  0  0
   19.5442  -42.1928  271.9365 H   0  0  0  0  0  0  0  0  0  0  0  0
   18.5261  -41.7684  270.6667 H   0  0  0  0  0  0  0  0  0  0  0  0
   20.1285  -41.2571  270.6667 H   0  0  0  0  0  0  0  0  0  0  0  0
   22.1220  -39.7718  276.4126 H   0  0  0  0  0  0  0  0  0  0  0  0
   20.8877  -34.1000  274.1415 H   0  0  0  0  0  0  0  0  0  0  0  0
   24.4180  -33.6633  273.9087 H   0  0  0  0  0  0  0  0  0  0  0  0
   26.7122  -36.3096  273.0197 H   0  0  0  0  0  0  0  0  0  0  0  0
   24.1984  -40.1548  275.2416 H   0  0  0  0  0  0  0  0  0  0  0  0
   17.7098  -37.7648  273.3817 H   0  0  0  0  0  0  0  0  0  0  0  0
   21.2251  -38.9782  271.5601 H   0  0  0  0  0  0  0  0  0  0  0  0
  1  2  1  0
  1 13  1  0
  1 14  1  0
  2  3  2  0
  3  4  1  0
  3  5  1  0
  4 15  1  0
  5 12  1  0
  5 16  1  0
  6  7  1  0
  6 16  1  0
  6 21  1  0
  7  8  1  0
  7 17  1  0
  8  9  1  0
  8 18  1  0
  9 10  1  0
  9 19  1  0
 10 11  1  0
 10 21  1  0
 11 20  1  0
 12 13  1  0
 12 22  1  0
 13 23  1  0
  1 24  1  1
  2 25  1  0
  4 26  1  0
  4 27  1  0
  5 28  1  1
  6 29  1  1
  7 30  1  1
  8 31  1  6
  9 32  1  1
 10 33  1  6
 11 34  1  0
 11 35  1  0
 12 36  1  6
 13 37  1  6
 14 38  1  0
 14 39  1  0
 14 40  1  0
 15 41  1  0
 17 42  1  0
 18 43  1  0
 19 44  1  0
 20 45  1  0
 22 46  1  0
 23 47  1  0
M  CHG  1  14   1
M  END
>  <filename_input>  (16) 
7MGY_ZD1_docked.sdf

>  <pdb_id>  (16) 
7MGY_ZD1

>  <pose_rank>  (16) 
15

>  <num_atoms_heavy>  (16) 
23

>  <num_torsions>  (16) 
4

>  <pose>  (16) 
[21.231926587265388, -37.14718902237355, 273.0718802990006, 2.0883250180524375, -1.4441467343257333, -0.6362951037800033, 1.2454609180186607, -3.109192240633648, 0.5185263032814349, 1.8264256390188345]

>  <energy>  (16) 
-93.08389165531574

>  <inter_energy>  (16) 
-148.0506926497614

>  <intra_energy>  (16) 
65.96208516356208

>  <rmsd>  (16) 
8.66775

>  <sdf_rank>  (16) 
0

$$$$

     RDKit          3D

 47 48  0  0  0  0  0  0  0  0999 V2000
   32.0681  -30.8048  278.3136 C   0  0  1  0  0  0  0  0  0  0  0  0
   31.7638  -31.2584  279.7159 C   0  0  0  0  0  0  0  0  0  0  0  0
   32.0133  -32.4778  280.2060 C   0  0  0  0  0  0  0  0  0  0  0  0
   32.0051  -32.7727  281.7037 C   0  0  0  0  0  0  0  0  0  0  0  0
   32.6255  -33.5771  279.3740 C   0  0  2  0  0  0  0  0  0  0  0  0
   32.3744  -35.9490  278.9318 C   0  0  1  0  0  0  0  0  0  0  0  0
   31.3241  -37.0365  278.5918 C   0  0  1  0  0  0  0  0  0  0  0  0
   30.5664  -37.5027  279.8809 C   0  0  2  0  0  0  0  0  0  0  0  0
   31.5988  -37.9847  280.9465 C   0  0  1  0  0  0  0  0  0  0  0  0
   32.5162  -36.7489  281.2343 C   0  0  1  0  0  0  0  0  0  0  0  0
   33.6358  -37.0779  282.3171 C   0  0  0  0  0  0  0  0  0  0  0  0
   33.0370  -33.1110  277.9070 C   0  0  1  0  0  0  0  0  0  0  0  0
   32.1051  -32.0284  277.3715 C   0  0  1  0  0  0  0  0  0  0  0  0
   31.0195  -29.8762  277.9223 N   0  0  0  0  0  0  0  0  0  0  0  0
   30.6775  -32.7691  282.1738 O   0  0  0  0  0  0  0  0  0  0  0  0
   31.7404  -34.6996  279.2468 O   0  0  0  0  0  0  0  0  0  0  0  0
   30.3907  -36.4387  277.7160 O   0  0  0  0  0  0  0  0  0  0  0  0
   29.7646  -38.6128  279.5518 O   0  0  0  0  0  0  0  0  0  0  0  0
   30.8730  -38.3325  282.1207 O   0  0  0  0  0  0  0  0  0  0  0  0
   34.4831  -38.0626  281.7427 O   0  0  0  0  0  0  0  0  0  0  0  0
   33.1692  -36.3552  280.0231 O   0  0  0  0  0  0  0  0  0  0  0  0
   34.2757  -32.4625  278.0418 O   0  0  0  0  0  0  0  0  0  0  0  0
   30.8440  -32.6433  277.2417 O   0  0  0  0  0  0  0  0  0  0  0  0
   33.0482  -30.3088  278.2561 H   0  0  0  0  0  0  0  0  0  0  0  0
   31.2982  -30.5275  280.3933 H   0  0  0  0  0  0  0  0  0  0  0  0
   32.4563  -33.7591  281.8860 H   0  0  0  0  0  0  0  0  0  0  0  0
   32.5844  -32.0019  282.2332 H   0  0  0  0  0  0  0  0  0  0  0  0
   33.5370  -33.8622  279.9198 H   0  0  0  0  0  0  0  0  0  0  0  0
   33.0108  -35.8117  278.0451 H   0  0  0  0  0  0  0  0  0  0  0  0
   31.8180  -37.9119  278.1447 H   0  0  0  0  0  0  0  0  0  0  0  0
   29.9650  -36.6683  280.2709 H   0  0  0  0  0  0  0  0  0  0  0  0
   32.1924  -38.8501  280.6166 H   0  0  0  0  0  0  0  0  0  0  0  0
   31.8758  -35.9443  281.6249 H   0  0  0  0  0  0  0  0  0  0  0  0
   34.2132  -36.1717  282.5526 H   0  0  0  0  0  0  0  0  0  0  0  0
   33.1861  -37.4405  283.2532 H   0  0  0  0  0  0  0  0  0  0  0  0
   33.0243  -33.9878  277.2428 H   0  0  0  0  0  0  0  0  0  0  0  0
   32.4483  -31.6340  276.4036 H   0  0  0  0  0  0  0  0  0  0  0  0
   30.5763  -29.4837  278.7652 H   0  0  0  0  0  0  0  0  0  0  0  0
   31.4273  -29.1140  277.3623 H   0  0  0  0  0  0  0  0  0  0  0  0
   30.3122  -30.3731  277.3623 H   0  0  0  0  0  0  0  0  0  0  0  0
   30.6780  -32.7691  283.1638 H   0  0  0  0  0  0  0  0  0  0  0  0
   29.6854  -35.9870  278.2438 H   0  0  0  0  0  0  0  0  0  0  0  0
   29.4490  -39.0497  280.3822 H   0  0  0  0  0  0  0  0  0  0  0  0
   31.3991  -38.0804  282.9206 H   0  0  0  0  0  0  0  0  0  0  0  0
   34.9261  -38.5775  282.4629 H   0  0  0  0  0  0  0  0  0  0  0  0
   34.4873  -32.3517  279.0026 H   0  0  0  0  0  0  0  0  0  0  0  0
   30.4713  -32.8250  278.1407 H   0  0  0  0  0  0  0  0  0  0  0  0
  1  2  1  0
  1 13  1  0
  1 14  1  0
  2  3  2  0
  3  4  1  0
  3  5  1  0
  4 15  1  0
  5 12  1  0
  5 16  1  0
  6  7  1  0
  6 16  1  0
  6 21  1  0
  7  8  1  0
  7 17  1  0
  8  9  1  0
  8 18  1  0
  9 10  1  0
  9 19  1  0
 10 11  1  0
 10 21  1  0
 11 20  1  0
 12 13  1  0
 12 22  1  0
 13 23  1  0
  1 24  1  1
  2 25  1  0
  4 26  1  0
  4 27  1  0
  5 28  1  1
  6 29  1  6
  7 30  1  6
  8 31  1  1
  9 32  1  6
 10 33  1  1
 11 34  1  0
 11 35  1  0
 12 36  1  6
 13 37  1  6
 14 38  1  0
 14 39  1  0
 14 40  1  0
 15 41  1  0
 17 42  1  0
 18 43  1  0
 19 44  1  0
 20 45  1  0
 22 46  1  0
 23 47  1  0
M  CHG  1  14   1
M  END
>  <filename_input>  (17) 
7MGY_ZD1_docked.sdf

>  <pdb_id>  (17) 
7MGY_ZD1

>  <pose_rank>  (17) 
16

>  <num_atoms_heavy>  (17) 
23

>  <num_torsions>  (17) 
4

>  <pose>  (17) 
[31.740400165062454, -34.699611274045914, 279.2467833570094, 2.1769787247816894, 3.1914800345351866, 2.1209488547766893, -0.1898862742460917, -3.25584371199977, 6.1543391855171095, -0.09643243668502054]

>  <energy>  (17) 
-153.74908072183666

>  <inter_energy>  (17) 
-155.8638445603444

>  <intra_energy>  (17) 
0.44083531040391416

>  <rmsd>  (17) 
10.6437

>  <sdf_rank>  (17) 
0

$$$$

     RDKit          3D

 47 48  0  0  0  0  0  0  0  0999 V2000
   20.6906  -40.3079  274.1000 C   0  0  1  0  0  0  0  0  0  0  0  0
   22.1907  -40.3988  274.0216 C   0  0  0  0  0  0  0  0  0  0  0  0
   23.0388  -39.3830  274.2170 C   0  0  0  0  0  0  0  0  0  0  0  0
   24.5293  -39.6004  274.4639 C   0  0  0  0  0  0  0  0  0  0  0  0
   22.5702  -37.9824  274.5243 C   0  0  2  0  0  0  0  0  0  0  0  0
   24.1463  -36.2831  273.8084 C   0  0  1  0  0  0  0  0  0  0  0  0
   23.9566  -35.4682  275.1127 C   0  0  1  0  0  0  0  0  0  0  0  0
   22.9701  -34.2730  274.8853 C   0  0  2  0  0  0  0  0  0  0  0  0
   23.4812  -33.3932  273.7027 C   0  0  1  0  0  0  0  0  0  0  0  0
   23.5287  -34.3439  272.4595 C   0  0  1  0  0  0  0  0  0  0  0  0
   24.0338  -33.5893  271.1520 C   0  0  0  0  0  0  0  0  0  0  0  0
   20.9907  -37.8630  274.6962 C   0  0  1  0  0  0  0  0  0  0  0  0
   20.2452  -38.8572  273.8112 C   0  0  1  0  0  0  0  0  0  0  0  0
   20.1492  -41.2268  273.1113 N   0  0  0  0  0  0  0  0  0  0  0  0
   24.9936  -40.6413  273.6365 O   0  0  0  0  0  0  0  0  0  0  0  0
   22.9733  -37.0545  273.5064 O   0  0  0  0  0  0  0  0  0  0  0  0
   23.3843  -36.3464  276.0597 O   0  0  0  0  0  0  0  0  0  0  0  0
   22.9775  -33.4615  276.0363 O   0  0  0  0  0  0  0  0  0  0  0  0
   22.5221  -32.3635  273.4881 O   0  0  0  0  0  0  0  0  0  0  0  0
   25.2769  -32.9869  271.4823 O   0  0  0  0  0  0  0  0  0  0  0  0
   24.4289  -35.4240  272.7269 O   0  0  0  0  0  0  0  0  0  0  0  0
   20.7119  -38.2911  276.0047 O   0  0  0  0  0  0  0  0  0  0  0  0
   20.5200  -38.4659  272.4858 O   0  0  0  0  0  0  0  0  0  0  0  0
   20.3241  -40.5769  275.1017 H   0  0  0  0  0  0  0  0  0  0  0  0
   22.6254  -41.3810  273.7841 H   0  0  0  0  0  0  0  0  0  0  0  0
   25.0783  -38.6755  274.2330 H   0  0  0  0  0  0  0  0  0  0  0  0
   24.6919  -39.8688  275.5182 H   0  0  0  0  0  0  0  0  0  0  0  0
   23.0470  -37.7357  275.4844 H   0  0  0  0  0  0  0  0  0  0  0  0
   24.9927  -36.9683  273.9638 H   0  0  0  0  0  0  0  0  0  0  0  0
   24.9222  -35.0613  275.4476 H   0  0  0  0  0  0  0  0  0  0  0  0
   21.9653  -34.6666  274.6719 H   0  0  0  0  0  0  0  0  0  0  0  0
   24.4653  -32.9396  273.8919 H   0  0  0  0  0  0  0  0  0  0  0  0
   22.5062  -34.7084  272.2814 H   0  0  0  0  0  0  0  0  0  0  0  0
   24.1670  -34.3062  270.3283 H   0  0  0  0  0  0  0  0  0  0  0  0
   23.3036  -32.8349  270.8238 H   0  0  0  0  0  0  0  0  0  0  0  0
   20.6873  -36.8340  274.4532 H   0  0  0  0  0  0  0  0  0  0  0  0
   19.1624  -38.8464  274.0046 H   0  0  0  0  0  0  0  0  0  0  0  0
   19.6863  -42.0126  273.5900 H   0  0  0  0  0  0  0  0  0  0  0  0
   19.4644  -40.7324  272.5218 H   0  0  0  0  0  0  0  0  0  0  0  0
   20.9136  -41.5862  272.5218 H   0  0  0  0  0  0  0  0  0  0  0  0
   25.3257  -41.3860  274.1980 H   0  0  0  0  0  0  0  0  0  0  0  0
   23.5922  -36.0274  276.9735 H   0  0  0  0  0  0  0  0  0  0  0  0
   22.9723  -34.0342  276.8439 H   0  0  0  0  0  0  0  0  0  0  0  0
   22.2038  -32.0218  274.3610 H   0  0  0  0  0  0  0  0  0  0  0  0
   25.3704  -32.9416  272.4668 H   0  0  0  0  0  0  0  0  0  0  0  0
   21.1209  -37.6631  276.6515 H   0  0  0  0  0  0  0  0  0  0  0  0
   21.0889  -37.6557  272.4922 H   0  0  0  0  0  0  0  0  0  0  0  0
  1  2  1  0
  1 13  1  0
  1 14  1  0
  2  3  2  0
  3  4  1  0
  3  5  1  0
  4 15  1  0
  5 12  1  0
  5 16  1  0
  6  7  1  0
  6 16  1  0
  6 21  1  0
  7  8  1  0
  7 17  1  0
  8  9  1  0
  8 18  1  0
  9 10  1  0
  9 19  1  0
 10 11  1  0
 10 21  1  0
 11 20  1  0
 12 13  1  0
 12 22  1  0
 13 23  1  0
  1 24  1  1
  2 25  1  0
  4 26  1  0
  4 27  1  0
  5 28  1  1
  6 29  1  1
  7 30  1  1
  8 31  1  6
  9 32  1  1
 10 33  1  6
 11 34  1  0
 11 35  1  0
 12 36  1  1
 13 37  1  1
 14 38  1  0
 14 39  1  0
 14 40  1  0
 15 41  1  0
 17 42  1  0
 18 43  1  0
 19 44  1  0
 20 45  1  0
 22 46  1  0
 23 47  1  0
M  CHG  1  14   1
M  END
>  <filename_input>  (18) 
7MGY_ZD1_docked.sdf

>  <pdb_id>  (18) 
7MGY_ZD1

>  <pose_rank>  (18) 
17

>  <num_atoms_heavy>  (18) 
23

>  <num_torsions>  (18) 
4

>  <pose>  (18) 
[22.973303267135787, -37.0544844192648, 273.50642929029533, 1.6580541567992093, -0.5996985852279332, -1.217624551712982, 0.8333478023571945, -3.8412291511050367, 1.8368088896646573, -0.28480557591954136]

>  <energy>  (18) 
-213.1036705593745

>  <inter_energy>  (18) 
-264.0829332234525

>  <intra_energy>  (18) 
55.483498526805406

>  <rmsd>  (18) 
7.55791

>  <sdf_rank>  (18) 
0

$$$$

     RDKit          3D

 47 48  0  0  0  0  0  0  0  0999 V2000
   22.8512  -30.6522  277.7581 C   0  0  1  0  0  0  0  0  0  0  0  0
   22.2928  -30.3655  276.3903 C   0  0  0  0  0  0  0  0  0  0  0  0
   22.2252  -31.2426  275.3827 C   0  0  0  0  0  0  0  0  0  0  0  0
   21.3507  -31.0078  274.1537 C   0  0  0  0  0  0  0  0  0  0  0  0
   22.7393  -32.6558  275.5012 C   0  0  2  0  0  0  0  0  0  0  0  0
   23.8790  -32.0070  273.4605 C   0  0  1  0  0  0  0  0  0  0  0  0
   23.7174  -32.7633  272.1176 C   0  0  1  0  0  0  0  0  0  0  0  0
   24.9983  -33.6045  271.7934 C   0  0  2  0  0  0  0  0  0  0  0  0
   26.2499  -32.6733  271.8053 C   0  0  1  0  0  0  0  0  0  0  0  0
   26.3106  -32.0664  273.2474 C   0  0  1  0  0  0  0  0  0  0  0  0
   27.5492  -31.0829  273.4277 C   0  0  0  0  0  0  0  0  0  0  0  0
   23.2637  -33.0221  276.9604 C   0  0  1  0  0  0  0  0  0  0  0  0
   23.8666  -31.8128  277.6686 C   0  0  1  0  0  0  0  0  0  0  0  0
   23.4910  -29.4338  278.2282 N   0  0  0  0  0  0  0  0  0  0  0  0
   22.0392  -30.1867  273.2397 O   0  0  0  0  0  0  0  0  0  0  0  0
   23.8048  -32.9106  274.5741 O   0  0  0  0  0  0  0  0  0  0  0  0
   22.6296  -33.6499  272.2802 O   0  0  0  0  0  0  0  0  0  0  0  0
   24.8781  -34.1173  270.4873 O   0  0  0  0  0  0  0  0  0  0  0  0
   27.3937  -33.4888  271.5750 O   0  0  0  0  0  0  0  0  0  0  0  0
   27.6001  -30.7379  274.8046 O   0  0  0  0  0  0  0  0  0  0  0  0
   25.1122  -31.3247  273.4967 O   0  0  0  0  0  0  0  0  0  0  0  0
   22.1196  -33.3277  277.7158 O   0  0  0  0  0  0  0  0  0  0  0  0
   25.0110  -31.4675  276.9225 O   0  0  0  0  0  0  0  0  0  0  0  0
   22.0594  -30.9541  278.4595 H   0  0  0  0  0  0  0  0  0  0  0  0
   21.9089  -29.3516  276.2039 H   0  0  0  0  0  0  0  0  0  0  0  0
   21.1192  -31.9724  273.6783 H   0  0  0  0  0  0  0  0  0  0  0  0
   20.4150  -30.5156  274.4572 H   0  0  0  0  0  0  0  0  0  0  0  0
   21.8679  -33.2872  275.2731 H   0  0  0  0  0  0  0  0  0  0  0  0
   23.0556  -31.2814  273.5353 H   0  0  0  0  0  0  0  0  0  0  0  0
   23.5565  -32.0476  271.2980 H   0  0  0  0  0  0  0  0  0  0  0  0
   25.1036  -34.4078  272.5374 H   0  0  0  0  0  0  0  0  0  0  0  0
   26.2094  -31.8807  271.0436 H   0  0  0  0  0  0  0  0  0  0  0  0
   26.4199  -32.9019  273.9545 H   0  0  0  0  0  0  0  0  0  0  0  0
   28.4801  -31.5870  273.1287 H   0  0  0  0  0  0  0  0  0  0  0  0
   27.4374  -30.1869  272.7994 H   0  0  0  0  0  0  0  0  0  0  0  0
   24.0105  -33.8251  276.8745 H   0  0  0  0  0  0  0  0  0  0  0  0
   24.1345  -32.0397  278.7111 H   0  0  0  0  0  0  0  0  0  0  0  0
   23.4962  -29.4240  279.2581 H   0  0  0  0  0  0  0  0  0  0  0  0
   24.4596  -29.3982  277.8797 H   0  0  0  0  0  0  0  0  0  0  0  0
   22.9705  -28.6161  277.8797 H   0  0  0  0  0  0  0  0  0  0  0  0
   22.5897  -29.5302  273.7357 H   0  0  0  0  0  0  0  0  0  0  0  0
   22.4587  -33.7891  273.2453 H   0  0  0  0  0  0  0  0  0  0  0  0
   24.6524  -35.0803  270.5303 H   0  0  0  0  0  0  0  0  0  0  0  0
   27.7818  -33.7655  272.4427 H   0  0  0  0  0  0  0  0  0  0  0  0
   27.4800  -31.5528  275.3537 H   0  0  0  0  0  0  0  0  0  0  0  0
   22.3357  -33.2700  278.6802 H   0  0  0  0  0  0  0  0  0  0  0  0
   25.7522  -31.2439  277.5395 H   0  0  0  0  0  0  0  0  0  0  0  0
  1  2  1  0
  1 13  1  0
  1 14  1  0
  2  3  2  0
  3  4  1  0
  3  5  1  0
  4 15  1  0
  5 12  1  0
  5 16  1  0
  6  7  1  0
  6 16  1  0
  6 21  1  0
  7  8  1  0
  7 17  1  0
  8  9  1  0
  8 18  1  0
  9 10  1  0
  9 19  1  0
 10 11  1  0
 10 21  1  0
 11 20  1  0
 12 13  1  0
 12 22  1  0
 13 23  1  0
  1 24  1  1
  2 25  1  0
  4 26  1  0
  4 27  1  0
  5 28  1  6
  6 29  1  1
  7 30  1  6
  8 31  1  1
  9 32  1  6
 10 33  1  1
 11 34  1  0
 11 35  1  0
 12 36  1  6
 13 37  1  1
 14 38  1  0
 14 39  1  0
 14 40  1  0
 15 41  1  0
 17 42  1  0
 18 43  1  0
 19 44  1  0
 20 45  1  0
 22 46  1  0
 23 47  1  0
M  CHG  1  14   1
M  END
>  <filename_input>  (19) 
7MGY_ZD1_docked.sdf

>  <pdb_id>  (19) 
7MGY_ZD1

>  <pose_rank>  (19) 
18

>  <num_atoms_heavy>  (19) 
23

>  <num_torsions>  (19) 
4

>  <pose>  (19) 
[23.80478223873877, -32.910592336603315, 274.57405245859655, -2.751399399501481, 2.586313902377079, -3.4474715431244216, 2.213469307548252, -3.079074330106897, 7.049473800261337, 2.0457421862854286]

>  <energy>  (19) 
-732.5248774726014

>  <inter_energy>  (19) 
-795.7002828089827

>  <intra_energy>  (19) 
67.70158461797587

>  <rmsd>  (19) 
2.77796

>  <sdf_rank>  (19) 
0

$$$$

     RDKit          3D

 47 48  0  0  0  0  0  0  0  0999 V2000
   15.9472  -25.8616  272.0957 C   0  0  1  0  0  0  0  0  0  0  0  0
   15.1848  -26.3987  270.9146 C   0  0  0  0  0  0  0  0  0  0  0  0
   15.6725  -27.2407  269.9967 C   0  0  0  0  0  0  0  0  0  0  0  0
   14.7713  -28.0109  269.0352 C   0  0  0  0  0  0  0  0  0  0  0  0
   17.0944  -27.7433  270.0309 C   0  0  2  0  0  0  0  0  0  0  0  0
   17.0428  -26.7279  267.8285 C   0  0  1  0  0  0  0  0  0  0  0  0
   17.4165  -27.3002  266.4377 C   0  0  1  0  0  0  0  0  0  0  0  0
   18.8193  -26.7768  265.9777 C   0  0  2  0  0  0  0  0  0  0  0  0
   18.8268  -25.2170  266.0011 C   0  0  1  0  0  0  0  0  0  0  0  0
   18.5215  -24.8158  267.4835 C   0  0  1  0  0  0  0  0  0  0  0  0
   18.4961  -23.2362  267.6796 C   0  0  0  0  0  0  0  0  0  0  0  0
   17.9093  -27.2612  271.3123 C   0  0  1  0  0  0  0  0  0  0  0  0
   17.4605  -25.8825  271.7866 C   0  0  1  0  0  0  0  0  0  0  0  0
   15.4810  -24.5042  272.3305 N   0  0  0  0  0  0  0  0  0  0  0  0
   14.8601  -29.3888  269.3132 O   0  0  0  0  0  0  0  0  0  0  0  0
   17.8270  -27.3377  268.8654 O   0  0  0  0  0  0  0  0  0  0  0  0
   17.4885  -28.7036  266.5830 O   0  0  0  0  0  0  0  0  0  0  0  0
   19.0276  -27.1703  264.6416 O   0  0  0  0  0  0  0  0  0  0  0  0
   20.1365  -24.7887  265.6439 O   0  0  0  0  0  0  0  0  0  0  0  0
   17.1756  -22.8082  267.3787 O   0  0  0  0  0  0  0  0  0  0  0  0
   17.2398  -25.3322  267.8564 O   0  0  0  0  0  0  0  0  0  0  0  0
   17.5326  -28.1231  272.3555 O   0  0  0  0  0  0  0  0  0  0  0  0
   17.8083  -24.9929  270.7507 O   0  0  0  0  0  0  0  0  0  0  0  0
   15.7809  -26.4753  272.9934 H   0  0  0  0  0  0  0  0  0  0  0  0
   14.1410  -26.0722  270.7964 H   0  0  0  0  0  0  0  0  0  0  0  0
   13.7306  -27.6775  269.1609 H   0  0  0  0  0  0  0  0  0  0  0  0
   15.0930  -27.8234  268.0001 H   0  0  0  0  0  0  0  0  0  0  0  0
   16.9997  -28.8387  270.0673 H   0  0  0  0  0  0  0  0  0  0  0  0
   15.9808  -26.9524  268.0066 H   0  0  0  0  0  0  0  0  0  0  0  0
   16.6703  -26.9934  265.6901 H   0  0  0  0  0  0  0  0  0  0  0  0
   19.5947  -27.1800  266.6457 H   0  0  0  0  0  0  0  0  0  0  0  0
   18.0969  -24.7682  265.3112 H   0  0  0  0  0  0  0  0  0  0  0  0
   19.3212  -25.2347  268.1119 H   0  0  0  0  0  0  0  0  0  0  0  0
   18.7503  -22.9792  268.7184 H   0  0  0  0  0  0  0  0  0  0  0  0
   19.2301  -22.7446  267.0242 H   0  0  0  0  0  0  0  0  0  0  0  0
   18.9808  -27.2488  271.0636 H   0  0  0  0  0  0  0  0  0  0  0  0
   17.9491  -25.5940  272.7290 H   0  0  0  0  0  0  0  0  0  0  0  0
   15.4219  -24.3320  273.3443 H   0  0  0  0  0  0  0  0  0  0  0  0
   16.1409  -23.8364  271.9067 H   0  0  0  0  0  0  0  0  0  0  0  0
   14.5501  -24.3828  271.9067 H   0  0  0  0  0  0  0  0  0  0  0  0
   14.8691  -29.5278  270.2933 H   0  0  0  0  0  0  0  0  0  0  0  0
   17.5004  -28.9355  267.5454 H   0  0  0  0  0  0  0  0  0  0  0  0
   19.4906  -28.0452  264.6236 H   0  0  0  0  0  0  0  0  0  0  0  0
   20.6628  -24.6166  266.4646 H   0  0  0  0  0  0  0  0  0  0  0  0
   16.6807  -22.6478  268.2210 H   0  0  0  0  0  0  0  0  0  0  0  0
   17.7217  -27.6905  273.2256 H   0  0  0  0  0  0  0  0  0  0  0  0
   18.1397  -24.1455  271.1407 H   0  0  0  0  0  0  0  0  0  0  0  0
  1  2  1  0
  1 13  1  0
  1 14  1  0
  2  3  2  0
  3  4  1  0
  3  5  1  0
  4 15  1  0
  5 12  1  0
  5 16  1  0
  6  7  1  0
  6 16  1  0
  6 21  1  0
  7  8  1  0
  7 17  1  0
  8  9  1  0
  8 18  1  0
  9 10  1  0
  9 19  1  0
 10 11  1  0
 10 21  1  0
 11 20  1  0
 12 13  1  0
 12 22  1  0
 13 23  1  0
  1 24  1  1
  2 25  1  0
  4 26  1  0
  4 27  1  0
  5 28  1  1
  6 29  1  1
  7 30  1  6
  8 31  1  1
  9 32  1  6
 10 33  1  1
 11 34  1  0
 11 35  1  0
 12 36  1  6
 13 37  1  1
 14 38  1  0
 14 39  1  0
 14 40  1  0
 15 41  1  0
 17 42  1  0
 18 43  1  0
 19 44  1  0
 20 45  1  0
 22 46  1  0
 23 47  1  0
M  CHG  1  14   1
M  END
>  <filename_input>  (20) 
7MGY_ZD1_docked.sdf

>  <pdb_id>  (20) 
7MGY_ZD1

>  <pose_rank>  (20) 
19

>  <num_atoms_heavy>  (20) 
23

>  <num_torsions>  (20) 
4

>  <pose>  (20) 
[17.827049199371924, -27.337671707184647, 268.86538389238734, 0.9231067157487278, -0.10930594243745817, 1.3609539663221732, -3.8782633599724, -0.23814662508776893, 0.5000668705833076, 0.289237503245429]

>  <energy>  (20) 
-183.7512168584714

>  <inter_energy>  (20) 
-207.47846584093278

>  <intra_energy>  (20) 
37.90523219953318

>  <rmsd>  (20) 
11.0305

>  <sdf_rank>  (20) 
0

$$$$

     RDKit          3D

 47 48  0  0  0  0  0  0  0  0999 V2000
   18.9404  -23.4919  265.9911 C   0  0  1  0  0  0  0  0  0  0  0  0
   18.0112  -24.4954  265.3631 C   0  0  0  0  0  0  0  0  0  0  0  0
   16.8651  -24.9297  265.8987 C   0  0  0  0  0  0  0  0  0  0  0  0
   15.8103  -25.6693  265.0798 C   0  0  0  0  0  0  0  0  0  0  0  0
   16.3717  -24.4649  267.2463 C   0  0  2  0  0  0  0  0  0  0  0  0
   14.9378  -25.8855  268.5918 C   0  0  1  0  0  0  0  0  0  0  0  0
   14.8073  -25.8428  270.1353 C   0  0  1  0  0  0  0  0  0  0  0  0
   15.5428  -27.0603  270.7912 C   0  0  2  0  0  0  0  0  0  0  0  0
   14.9948  -28.3888  270.1840 C   0  0  1  0  0  0  0  0  0  0  0  0
   15.2849  -28.3016  268.6478 C   0  0  1  0  0  0  0  0  0  0  0  0
   14.7828  -29.5982  267.8727 C   0  0  0  0  0  0  0  0  0  0  0  0
   17.2875  -23.3403  267.9062 C   0  0  1  0  0  0  0  0  0  0  0  0
   18.7553  -23.5054  267.5246 C   0  0  1  0  0  0  0  0  0  0  0  0
   20.2963  -23.8699  265.6256 N   0  0  0  0  0  0  0  0  0  0  0  0
   15.0415  -24.7371  264.3562 O   0  0  0  0  0  0  0  0  0  0  0  0
   16.2717  -25.5528  268.1771 O   0  0  0  0  0  0  0  0  0  0  0  0
   15.4407  -24.6546  270.5629 O   0  0  0  0  0  0  0  0  0  0  0  0
   15.2386  -27.0789  272.1662 O   0  0  0  0  0  0  0  0  0  0  0  0
   15.7367  -29.4604  270.7565 O   0  0  0  0  0  0  0  0  0  0  0  0
   14.6303  -29.2266  266.5103 O   0  0  0  0  0  0  0  0  0  0  0  0
   14.6050  -27.1656  268.1040 O   0  0  0  0  0  0  0  0  0  0  0  0
   16.9089  -22.1307  267.3008 O   0  0  0  0  0  0  0  0  0  0  0  0
   19.1631  -24.7239  268.1030 O   0  0  0  0  0  0  0  0  0  0  0  0
   18.7278  -22.4721  265.6377 H   0  0  0  0  0  0  0  0  0  0  0  0
   18.2981  -24.9053  264.3835 H   0  0  0  0  0  0  0  0  0  0  0  0
   16.3057  -26.3584  264.3800 H   0  0  0  0  0  0  0  0  0  0  0  0
   15.1557  -26.2408  265.7542 H   0  0  0  0  0  0  0  0  0  0  0  0
   15.3795  -24.0352  267.0445 H   0  0  0  0  0  0  0  0  0  0  0  0
   14.2405  -25.1422  268.1778 H   0  0  0  0  0  0  0  0  0  0  0  0
   13.7471  -25.8812  270.4260 H   0  0  0  0  0  0  0  0  0  0  0  0
   16.6248  -26.9690  270.6155 H   0  0  0  0  0  0  0  0  0  0  0  0
   13.9231  -28.5452  270.3762 H   0  0  0  0  0  0  0  0  0  0  0  0
   16.3742  -28.2163  268.5202 H   0  0  0  0  0  0  0  0  0  0  0  0
   15.5241  -30.4056  267.9646 H   0  0  0  0  0  0  0  0  0  0  0  0
   13.8341  -29.9661  268.2907 H   0  0  0  0  0  0  0  0  0  0  0  0
   17.1699  -23.3874  268.9988 H   0  0  0  0  0  0  0  0  0  0  0  0
   19.3713  -22.6725  267.8946 H   0  0  0  0  0  0  0  0  0  0  0  0
   20.8515  -24.0247  266.4792 H   0  0  0  0  0  0  0  0  0  0  0  0
   20.2730  -24.7365  265.0693 H   0  0  0  0  0  0  0  0  0  0  0  0
   20.7248  -23.1163  265.0693 H   0  0  0  0  0  0  0  0  0  0  0  0
   14.5562  -24.1487  264.9875 H   0  0  0  0  0  0  0  0  0  0  0  0
   15.4557  -24.6263  271.5524 H   0  0  0  0  0  0  0  0  0  0  0  0
   16.0769  -27.0276  272.6903 H   0  0  0  0  0  0  0  0  0  0  0  0
   15.6950  -29.4001  271.7438 H   0  0  0  0  0  0  0  0  0  0  0  0
   14.2551  -28.3119  266.4578 H   0  0  0  0  0  0  0  0  0  0  0  0
   16.6998  -21.4626  268.0009 H   0  0  0  0  0  0  0  0  0  0  0  0
   19.1370  -24.6459  269.0896 H   0  0  0  0  0  0  0  0  0  0  0  0
  1  2  1  0
  1 13  1  0
  1 14  1  0
  2  3  2  0
  3  4  1  0
  3  5  1  0
  4 15  1  0
  5 12  1  0
  5 16  1  0
  6  7  1  0
  6 16  1  0
  6 21  1  0
  7  8  1  0
  7 17  1  0
  8  9  1  0
  8 18  1  0
  9 10  1  0
  9 19  1  0
 10 11  1  0
 10 21  1  0
 11 20  1  0
 12 13  1  0
 12 22  1  0
 13 23  1  0
  1 24  1  6
  2 25  1  0
  4 26  1  0
  4 27  1  0
  5 28  1  6
  6 29  1  6
  7 30  1  6
  8 31  1  1
  9 32  1  6
 10 33  1  1
 11 34  1  0
 11 35  1  0
 12 36  1  1
 13 37  1  1
 14 38  1  0
 14 39  1  0
 14 40  1  0
 15 41  1  0
 17 42  1  0
 18 43  1  0
 19 44  1  0
 20 45  1  0
 22 46  1  0
 23 47  1  0
M  CHG  1  14   1
M  END
>  <filename_input>  (21) 
7MGY_ZD1_docked.sdf

>  <pdb_id>  (21) 
7MGY_ZD1

>  <pose_rank>  (21) 
20

>  <num_atoms_heavy>  (21) 
23

>  <num_torsions>  (21) 
4

>  <pose>  (21) 
[16.27173901702042, -25.552750319121277, 268.17705857642164, -0.8668771634384574, 1.502221708981659, -0.11776799403777796, 0.5817584271943083, 0.34717442618501, -5.6034914860279175, -4.73718331585701]

>  <energy>  (21) 
-182.67415962886406

>  <inter_energy>  (21) 
-166.23590785753927

>  <intra_energy>  (21) 
1.9483570761902025

>  <rmsd>  (21) 
12.9439

>  <sdf_rank>  (21) 
0

$$$$

     RDKit          3D

 47 48  0  0  0  0  0  0  0  0999 V2000
   15.9204  -24.4672  271.4561 C   0  0  1  0  0  0  0  0  0  0  0  0
   17.0924  -25.4109  271.4773 C   0  0  0  0  0  0  0  0  0  0  0  0
   17.7130  -25.8984  270.3972 C   0  0  0  0  0  0  0  0  0  0  0  0
   19.0855  -26.5619  270.4747 C   0  0  0  0  0  0  0  0  0  0  0  0
   17.2782  -25.5645  268.9918 C   0  0  2  0  0  0  0  0  0  0  0  0
   16.1951  -26.4870  267.0271 C   0  0  1  0  0  0  0  0  0  0  0  0
   15.3442  -27.7084  266.5963 C   0  0  1  0  0  0  0  0  0  0  0  0
   16.2601  -28.8853  266.1173 C   0  0  2  0  0  0  0  0  0  0  0  0
   17.2003  -28.3833  264.9781 C   0  0  1  0  0  0  0  0  0  0  0  0
   18.0401  -27.2204  265.6059 C   0  0  1  0  0  0  0  0  0  0  0  0
   19.0638  -26.5937  264.5603 C   0  0  0  0  0  0  0  0  0  0  0  0
   16.0915  -24.5034  268.9278 C   0  0  1  0  0  0  0  0  0  0  0  0
   15.1534  -24.6258  270.1247 C   0  0  1  0  0  0  0  0  0  0  0  0
   15.0736  -24.8036  272.5896 N   0  0  0  0  0  0  0  0  0  0  0  0
   19.0655  -27.7649  269.7427 O   0  0  0  0  0  0  0  0  0  0  0  0
   16.8603  -26.7356  268.2752 O   0  0  0  0  0  0  0  0  0  0  0  0
   14.6343  -28.1320  267.7419 O   0  0  0  0  0  0  0  0  0  0  0  0
   15.4437  -29.8913  265.5651 O   0  0  0  0  0  0  0  0  0  0  0  0
   18.0581  -29.4624  264.6229 O   0  0  0  0  0  0  0  0  0  0  0  0
   19.8469  -25.6466  265.2725 O   0  0  0  0  0  0  0  0  0  0  0  0
   17.1554  -26.1827  266.0409 O   0  0  0  0  0  0  0  0  0  0  0  0
   16.6916  -23.2437  269.0889 O   0  0  0  0  0  0  0  0  0  0  0  0
   14.5464  -25.8917  270.0032 O   0  0  0  0  0  0  0  0  0  0  0  0
   16.2473  -23.4195  271.5307 H   0  0  0  0  0  0  0  0  0  0  0  0
   17.4697  -25.7256  272.4615 H   0  0  0  0  0  0  0  0  0  0  0  0
   19.8438  -25.8870  270.0509 H   0  0  0  0  0  0  0  0  0  0  0  0
   19.3318  -26.7751  271.5254 H   0  0  0  0  0  0  0  0  0  0  0  0
   18.1701  -25.1218  268.5243 H   0  0  0  0  0  0  0  0  0  0  0  0
   15.5130  -25.6329  267.1511 H   0  0  0  0  0  0  0  0  0  0  0  0
   14.6762  -27.4301  265.7678 H   0  0  0  0  0  0  0  0  0  0  0  0
   16.8463  -29.2598  266.9694 H   0  0  0  0  0  0  0  0  0  0  0  0
   16.6570  -28.0417  264.0847 H   0  0  0  0  0  0  0  0  0  0  0  0
   18.6107  -27.6402  266.4474 H   0  0  0  0  0  0  0  0  0  0  0  0
   19.7084  -27.3810  264.1425 H   0  0  0  0  0  0  0  0  0  0  0  0
   18.5321  -26.1176  263.7232 H   0  0  0  0  0  0  0  0  0  0  0  0
   15.5355  -24.6536  267.9906 H   0  0  0  0  0  0  0  0  0  0  0  0
   14.3952  -23.8290  270.1344 H   0  0  0  0  0  0  0  0  0  0  0  0
   15.5771  -24.6036  273.4656 H   0  0  0  0  0  0  0  0  0  0  0  0
   14.2115  -24.2412  272.5530 H   0  0  0  0  0  0  0  0  0  0  0  0
   14.8325  -25.8043  272.5530 H   0  0  0  0  0  0  0  0  0  0  0  0
   19.0527  -28.5319  270.3686 H   0  0  0  0  0  0  0  0  0  0  0  0
   15.1184  -27.8431  268.5557 H   0  0  0  0  0  0  0  0  0  0  0  0
   15.0218  -30.4112  266.2943 H   0  0  0  0  0  0  0  0  0  0  0  0
   18.4018  -29.8949  265.4444 H   0  0  0  0  0  0  0  0  0  0  0  0
   19.7306  -25.7872  266.2455 H   0  0  0  0  0  0  0  0  0  0  0  0
   16.7866  -23.0443  270.0540 H   0  0  0  0  0  0  0  0  0  0  0  0
   14.3695  -26.2606  270.9047 H   0  0  0  0  0  0  0  0  0  0  0  0
  1  2  1  0
  1 13  1  0
  1 14  1  0
  2  3  2  0
  3  4  1  0
  3  5  1  0
  4 15  1  0
  5 12  1  0
  5 16  1  0
  6  7  1  0
  6 16  1  0
  6 21  1  0
  7  8  1  0
  7 17  1  0
  8  9  1  0
  8 18  1  0
  9 10  1  0
  9 19  1  0
 10 11  1  0
 10 21  1  0
 11 20  1  0
 12 13  1  0
 12 22  1  0
 13 23  1  0
  1 24  1  1
  2 25  1  0
  4 26  1  0
  4 27  1  0
  5 28  1  6
  6 29  1  1
  7 30  1  6
  8 31  1  1
  9 32  1  6
 10 33  1  1
 11 34  1  0
 11 35  1  0
 12 36  1  6
 13 37  1  6
 14 38  1  0
 14 39  1  0
 14 40  1  0
 15 41  1  0
 17 42  1  0
 18 43  1  0
 19 44  1  0
 20 45  1  0
 22 46  1  0
 23 47  1  0
M  CHG  1  14   1
M  END
>  <filename_input>  (22) 
7MGY_ZD1_docked.sdf

>  <pdb_id>  (22) 
7MGY_ZD1

>  <pose_rank>  (22) 
21

>  <num_atoms_heavy>  (22) 
23

>  <num_torsions>  (22) 
4

>  <pose>  (22) 
[16.860306543998426, -26.735627156508396, 268.2751698002728, -1.6056715300577105, -5.636251452224446, 1.25012293834844, -0.7795365300414271, -2.202779141521861, 0.07468607964612532, 2.009351362971674]

>  <energy>  (22) 
-155.57208932296336

>  <inter_energy>  (22) 
-162.28905370151122

>  <intra_energy>  (22) 
11.69655075434752

>  <rmsd>  (22) 
11.1395

>  <sdf_rank>  (22) 
0

$$$$

     RDKit          3D

 47 48  0  0  0  0  0  0  0  0999 V2000
   32.8976  -32.1300  281.8921 C   0  0  1  0  0  0  0  0  0  0  0  0
   33.5095  -32.8054  280.6944 C   0  0  0  0  0  0  0  0  0  0  0  0
   33.1151  -33.9756  280.1805 C   0  0  0  0  0  0  0  0  0  0  0  0
   33.5329  -34.4371  278.7868 C   0  0  0  0  0  0  0  0  0  0  0  0
   31.9922  -34.7868  280.7776 C   0  0  2  0  0  0  0  0  0  0  0  0
   31.7283  -37.1975  280.7159 C   0  0  1  0  0  0  0  0  0  0  0  0
   31.4891  -38.2588  281.8195 C   0  0  1  0  0  0  0  0  0  0  0  0
   32.8204  -39.0033  282.1754 C   0  0  2  0  0  0  0  0  0  0  0  0
   33.4352  -39.6191  280.8805 C   0  0  1  0  0  0  0  0  0  0  0  0
   33.6921  -38.4101  279.9193 C   0  0  1  0  0  0  0  0  0  0  0  0
   34.3288  -38.8741  278.5361 C   0  0  0  0  0  0  0  0  0  0  0  0
   31.2654  -34.0658  281.9984 C   0  0  1  0  0  0  0  0  0  0  0  0
   32.2261  -33.1884  282.7949 C   0  0  1  0  0  0  0  0  0  0  0  0
   33.9697  -31.4462  282.5978 N   0  0  0  0  0  0  0  0  0  0  0  0
   33.8126  -33.3127  277.9860 O   0  0  0  0  0  0  0  0  0  0  0  0
   32.4497  -36.0686  281.2331 O   0  0  0  0  0  0  0  0  0  0  0  0
   31.0476  -37.5599  282.9651 O   0  0  0  0  0  0  0  0  0  0  0  0
   32.5171  -40.0747  283.0378 O   0  0  0  0  0  0  0  0  0  0  0  0
   34.6730  -40.2239  281.2388 O   0  0  0  0  0  0  0  0  0  0  0  0
   34.4164  -37.7166  277.7176 O   0  0  0  0  0  0  0  0  0  0  0  0
   32.4490  -37.7573  279.6414 O   0  0  0  0  0  0  0  0  0  0  0  0
   30.3623  -33.1549  281.4258 O   0  0  0  0  0  0  0  0  0  0  0  0
   33.1602  -34.0730  283.3697 O   0  0  0  0  0  0  0  0  0  0  0  0
   32.1247  -31.4065  281.5934 H   0  0  0  0  0  0  0  0  0  0  0  0
   34.3499  -32.2948  280.2013 H   0  0  0  0  0  0  0  0  0  0  0  0
   34.4319  -35.0664  278.8627 H   0  0  0  0  0  0  0  0  0  0  0  0
   32.7170  -35.0181  278.3322 H   0  0  0  0  0  0  0  0  0  0  0  0
   31.2683  -34.9028  279.9575 H   0  0  0  0  0  0  0  0  0  0  0  0
   30.7439  -36.8585  280.3607 H   0  0  0  0  0  0  0  0  0  0  0  0
   30.7571  -39.0040  281.4745 H   0  0  0  0  0  0  0  0  0  0  0  0
   33.5209  -38.2936  282.6396 H   0  0  0  0  0  0  0  0  0  0  0  0
   32.7871  -40.3710  280.4065 H   0  0  0  0  0  0  0  0  0  0  0  0
   34.3982  -37.7319  280.4207 H   0  0  0  0  0  0  0  0  0  0  0  0
   35.3304  -39.2970  278.7028 H   0  0  0  0  0  0  0  0  0  0  0  0
   33.7133  -39.6506  278.0582 H   0  0  0  0  0  0  0  0  0  0  0  0
   30.8233  -34.8350  282.6487 H   0  0  0  0  0  0  0  0  0  0  0  0
   31.7051  -32.6115  283.5732 H   0  0  0  0  0  0  0  0  0  0  0  0
   33.8255  -31.5382  283.6135 H   0  0  0  0  0  0  0  0  0  0  0  0
   34.8737  -31.8672  282.3399 H   0  0  0  0  0  0  0  0  0  0  0  0
   33.9693  -30.4491  282.3399 H   0  0  0  0  0  0  0  0  0  0  0  0
   34.0062  -32.5343  278.5663 H   0  0  0  0  0  0  0  0  0  0  0  0
   31.3487  -38.0365  283.7788 H   0  0  0  0  0  0  0  0  0  0  0  0
   32.6017  -39.7758  283.9778 H   0  0  0  0  0  0  0  0  0  0  0  0
   34.7489  -40.2609  282.2252 H   0  0  0  0  0  0  0  0  0  0  0  0
   34.4773  -36.9113  278.2903 H   0  0  0  0  0  0  0  0  0  0  0  0
   29.8823  -32.6707  282.1436 H   0  0  0  0  0  0  0  0  0  0  0  0
   33.1025  -34.0184  284.3565 H   0  0  0  0  0  0  0  0  0  0  0  0
  1  2  1  0
  1 13  1  0
  1 14  1  0
  2  3  2  0
  3  4  1  0
  3  5  1  0
  4 15  1  0
  5 12  1  0
  5 16  1  0
  6  7  1  0
  6 16  1  0
  6 21  1  0
  7  8  1  0
  7 17  1  0
  8  9  1  0
  8 18  1  0
  9 10  1  0
  9 19  1  0
 10 11  1  0
 10 21  1  0
 11 20  1  0
 12 13  1  0
 12 22  1  0
 13 23  1  0
  1 24  1  6
  2 25  1  0
  4 26  1  0
  4 27  1  0
  5 28  1  6
  6 29  1  6
  7 30  1  6
  8 31  1  1
  9 32  1  6
 10 33  1  1
 11 34  1  0
 11 35  1  0
 12 36  1  1
 13 37  1  1
 14 38  1  0
 14 39  1  0
 14 40  1  0
 15 41  1  0
 17 42  1  0
 18 43  1  0
 19 44  1  0
 20 45  1  0
 22 46  1  0
 23 47  1  0
M  CHG  1  14   1
M  END
>  <filename_input>  (23) 
7MGY_ZD1_docked.sdf

>  <pdb_id>  (23) 
7MGY_ZD1

>  <pose_rank>  (23) 
22

>  <num_atoms_heavy>  (23) 
23

>  <num_torsions>  (23) 
4

>  <pose>  (23) 
[32.449705962496594, -36.06863672049326, 281.23305360304437, 3.7819606026913664, -2.712019105904746, -2.073996041513174, 0.3567402998312146, 1.2989377095897015, 0.4292402109682454, -4.4451634906816615]

>  <energy>  (23) 
-129.68856262629328

>  <inter_energy>  (23) 
-119.78298340006121

>  <intra_energy>  (23) 
0.04688673695626966

>  <rmsd>  (23) 
11.954

>  <sdf_rank>  (23) 
0

$$$$

     RDKit          3D

 47 48  0  0  0  0  0  0  0  0999 V2000
   16.8165  -28.0157  270.8200 C   0  0  1  0  0  0  0  0  0  0  0  0
   16.4823  -26.5698  271.0701 C   0  0  0  0  0  0  0  0  0  0  0  0
   16.6353  -25.5764  270.1876 C   0  0  0  0  0  0  0  0  0  0  0  0
   15.9695  -24.2147  270.3682 C   0  0  0  0  0  0  0  0  0  0  0  0
   17.2003  -25.7978  268.8065 C   0  0  2  0  0  0  0  0  0  0  0  0
   18.2620  -23.7357  268.0956 C   0  0  1  0  0  0  0  0  0  0  0  0
   17.8603  -23.7613  266.5992 C   0  0  1  0  0  0  0  0  0  0  0  0
   19.0710  -24.1924  265.7038 C   0  0  2  0  0  0  0  0  0  0  0  0
   20.2838  -23.2504  265.9786 C   0  0  1  0  0  0  0  0  0  0  0  0
   20.6083  -23.4138  267.5016 C   0  0  1  0  0  0  0  0  0  0  0  0
   21.8396  -22.5092  267.9484 C   0  0  0  0  0  0  0  0  0  0  0  0
   17.4901  -27.3291  268.4753 C   0  0  1  0  0  0  0  0  0  0  0  0
   17.8959  -28.1135  269.7193 C   0  0  1  0  0  0  0  0  0  0  0  0
   17.2983  -28.5716  272.0745 N   0  0  0  0  0  0  0  0  0  0  0  0
   14.6139  -24.3976  270.7036 O   0  0  0  0  0  0  0  0  0  0  0  0
   18.4198  -25.0669  268.6106 O   0  0  0  0  0  0  0  0  0  0  0  0
   16.8409  -24.7307  266.4697 O   0  0  0  0  0  0  0  0  0  0  0  0
   18.7124  -24.0197  264.3529 O   0  0  0  0  0  0  0  0  0  0  0  0
   21.3775  -23.7199  265.1978 O   0  0  0  0  0  0  0  0  0  0  0  0
   21.6485  -21.2348  267.3510 O   0  0  0  0  0  0  0  0  0  0  0  0
   19.4660  -23.0237  268.2708 O   0  0  0  0  0  0  0  0  0  0  0  0
   16.2537  -27.8844  268.1068 O   0  0  0  0  0  0  0  0  0  0  0  0
   19.1287  -27.5668  270.1274 O   0  0  0  0  0  0  0  0  0  0  0  0
   15.9357  -28.5773  270.4752 H   0  0  0  0  0  0  0  0  0  0  0  0
   16.0793  -26.3086  272.0597 H   0  0  0  0  0  0  0  0  0  0  0  0
   16.4757  -23.6627  271.1738 H   0  0  0  0  0  0  0  0  0  0  0  0
   16.0423  -23.6430  269.4313 H   0  0  0  0  0  0  0  0  0  0  0  0
   16.4168  -25.4339  268.1255 H   0  0  0  0  0  0  0  0  0  0  0  0
   17.4546  -23.2335  268.6487 H   0  0  0  0  0  0  0  0  0  0  0  0
   17.5317  -22.7615  266.2792 H   0  0  0  0  0  0  0  0  0  0  0  0
   19.3322  -25.2379  265.9245 H   0  0  0  0  0  0  0  0  0  0  0  0
   20.0830  -22.1985  265.7273 H   0  0  0  0  0  0  0  0  0  0  0  0
   20.8670  -24.4689  267.6743 H   0  0  0  0  0  0  0  0  0  0  0  0
   21.8625  -22.4145  269.0440 H   0  0  0  0  0  0  0  0  0  0  0  0
   22.7937  -22.9555  267.6313 H   0  0  0  0  0  0  0  0  0  0  0  0
   18.2845  -27.3805  267.7162 H   0  0  0  0  0  0  0  0  0  0  0  0
   17.9959  -29.1890  269.5112 H   0  0  0  0  0  0  0  0  0  0  0  0
   16.8634  -28.0699  272.8619 H   0  0  0  0  0  0  0  0  0  0  0  0
   17.0510  -29.5702  272.1250 H   0  0  0  0  0  0  0  0  0  0  0  0
   18.3219  -28.4685  272.1250 H   0  0  0  0  0  0  0  0  0  0  0  0
   14.5166  -24.4108  271.6887 H   0  0  0  0  0  0  0  0  0  0  0  0
   16.5407  -25.0161  267.3689 H   0  0  0  0  0  0  0  0  0  0  0  0
   17.8217  -23.5908  264.3002 H   0  0  0  0  0  0  0  0  0  0  0  0
   22.1015  -24.0308  265.7972 H   0  0  0  0  0  0  0  0  0  0  0  0
   21.5459  -20.5505  268.0590 H   0  0  0  0  0  0  0  0  0  0  0  0
   15.7398  -28.1152  268.9209 H   0  0  0  0  0  0  0  0  0  0  0  0
   19.1703  -27.5483  271.1164 H   0  0  0  0  0  0  0  0  0  0  0  0
  1  2  1  0
  1 13  1  0
  1 14  1  0
  2  3  2  0
  3  4  1  0
  3  5  1  0
  4 15  1  0
  5 12  1  0
  5 16  1  0
  6  7  1  0
  6 16  1  0
  6 21  1  0
  7  8  1  0
  7 17  1  0
  8  9  1  0
  8 18  1  0
  9 10  1  0
  9 19  1  0
 10 11  1  0
 10 21  1  0
 11 20  1  0
 12 13  1  0
 12 22  1  0
 13 23  1  0
  1 24  1  6
  2 25  1  0
  4 26  1  0
  4 27  1  0
  5 28  1  6
  6 29  1  1
  7 30  1  6
  8 31  1  6
  9 32  1  1
 10 33  1  6
 11 34  1  0
 11 35  1  0
 12 36  1  6
 13 37  1  6
 14 38  1  0
 14 39  1  0
 14 40  1  0
 15 41  1  0
 17 42  1  0
 18 43  1  0
 19 44  1  0
 20 45  1  0
 22 46  1  0
 23 47  1  0
M  CHG  1  14   1
M  END
>  <filename_input>  (24) 
7MGY_ZD1_docked.sdf

>  <pdb_id>  (24) 
7MGY_ZD1

>  <pose_rank>  (24) 
23

>  <num_atoms_heavy>  (24) 
23

>  <num_torsions>  (24) 
4

>  <pose>  (24) 
[18.419842525783196, -25.066923541338777, 268.61055822021785, 1.112618600848747, -1.1130709484824228, 1.3402722933539797, 0.996706726478583, 0.9292153912042649, -4.700596282102968, -0.45657480933337297]

>  <energy>  (24) 
-156.06209051409502

>  <inter_energy>  (24) 
-177.1112611935077

>  <intra_energy>  (24) 
41.24349350370525

>  <rmsd>  (24) 
11.4545

>  <sdf_rank>  (24) 
0

$$$$

     RDKit          3D

 47 48  0  0  0  0  0  0  0  0999 V2000
   15.0731  -27.4405  270.4745 C   0  0  1  0  0  0  0  0  0  0  0  0
   16.5752  -27.5289  270.5020 C   0  0  0  0  0  0  0  0  0  0  0  0
   17.4147  -26.5307  270.2053 C   0  0  0  0  0  0  0  0  0  0  0  0
   18.8944  -26.5710  270.5779 C   0  0  0  0  0  0  0  0  0  0  0  0
   16.9341  -25.1677  269.7730 C   0  0  2  0  0  0  0  0  0  0  0  0
   16.9997  -23.5456  267.9706 C   0  0  1  0  0  0  0  0  0  0  0  0
   16.8766  -23.5310  266.4259 C   0  0  1  0  0  0  0  0  0  0  0  0
   18.2892  -23.6010  265.7529 C   0  0  2  0  0  0  0  0  0  0  0  0
   19.1804  -22.4387  266.2901 C   0  0  1  0  0  0  0  0  0  0  0  0
   19.2698  -22.6563  267.8380 C   0  0  1  0  0  0  0  0  0  0  0  0
   20.1583  -21.5410  268.5457 C   0  0  0  0  0  0  0  0  0  0  0  0
   15.3491  -25.0103  269.8103 C   0  0  1  0  0  0  0  0  0  0  0  0
   14.6392  -26.3243  269.4987 C   0  0  1  0  0  0  0  0  0  0  0  0
   14.5714  -28.7354  270.0426 N   0  0  0  0  0  0  0  0  0  0  0  0
   19.2825  -27.9050  270.8089 O   0  0  0  0  0  0  0  0  0  0  0  0
   17.3769  -24.8470  268.4461 O   0  0  0  0  0  0  0  0  0  0  0  0
   16.1520  -24.6892  266.0661 O   0  0  0  0  0  0  0  0  0  0  0  0
   18.1357  -23.3969  264.3679 O   0  0  0  0  0  0  0  0  0  0  0  0
   20.4707  -22.5821  265.7060 O   0  0  0  0  0  0  0  0  0  0  0  0
   20.9142  -22.1986  269.5524 O   0  0  0  0  0  0  0  0  0  0  0  0
   17.9538  -22.5999  268.3981 O   0  0  0  0  0  0  0  0  0  0  0  0
   15.0189  -24.7506  271.1507 O   0  0  0  0  0  0  0  0  0  0  0  0
   14.9660  -26.6244  268.1614 O   0  0  0  0  0  0  0  0  0  0  0  0
   14.6674  -27.1934  271.4666 H   0  0  0  0  0  0  0  0  0  0  0  0
   17.0190  -28.4934  270.7896 H   0  0  0  0  0  0  0  0  0  0  0  0
   19.4917  -26.1523  269.7546 H   0  0  0  0  0  0  0  0  0  0  0  0
   19.0602  -25.9771  271.4889 H   0  0  0  0  0  0  0  0  0  0  0  0
   17.3726  -24.4746  270.5060 H   0  0  0  0  0  0  0  0  0  0  0  0
   16.0145  -23.2866  268.3857 H   0  0  0  0  0  0  0  0  0  0  0  0
   16.3809  -22.6064  266.0952 H   0  0  0  0  0  0  0  0  0  0  0  0
   18.7481  -24.5765  265.9716 H   0  0  0  0  0  0  0  0  0  0  0  0
   18.7830  -21.4408  266.0529 H   0  0  0  0  0  0  0  0  0  0  0  0
   19.7368  -23.6376  268.0087 H   0  0  0  0  0  0  0  0  0  0  0  0
   20.8307  -21.0709  267.8131 H   0  0  0  0  0  0  0  0  0  0  0  0
   19.5286  -20.7493  268.9778 H   0  0  0  0  0  0  0  0  0  0  0  0
   15.0553  -24.2370  269.0853 H   0  0  0  0  0  0  0  0  0  0  0  0
   13.5496  -26.2415  269.6249 H   0  0  0  0  0  0  0  0  0  0  0  0
   14.3487  -29.3099  270.8680 H   0  0  0  0  0  0  0  0  0  0  0  0
   13.7208  -28.6028  269.4771 H   0  0  0  0  0  0  0  0  0  0  0  0
   15.2892  -29.2105  269.4771 H   0  0  0  0  0  0  0  0  0  0  0  0
   19.3307  -28.0706  271.7838 H   0  0  0  0  0  0  0  0  0  0  0  0
   15.8567  -25.1612  266.8847 H   0  0  0  0  0  0  0  0  0  0  0  0
   17.5479  -22.6155  264.2127 H   0  0  0  0  0  0  0  0  0  0  0  0
   21.1504  -22.6576  266.4218 H   0  0  0  0  0  0  0  0  0  0  0  0
   20.5907  -21.9172  270.4448 H   0  0  0  0  0  0  0  0  0  0  0  0
   15.6413  -25.2403  271.7447 H   0  0  0  0  0  0  0  0  0  0  0  0
   15.6951  -27.2939  268.1421 H   0  0  0  0  0  0  0  0  0  0  0  0
  1  2  1  0
  1 13  1  0
  1 14  1  0
  2  3  2  0
  3  4  1  0
  3  5  1  0
  4 15  1  0
  5 12  1  0
  5 16  1  0
  6  7  1  0
  6 16  1  0
  6 21  1  0
  7  8  1  0
  7 17  1  0
  8  9  1  0
  8 18  1  0
  9 10  1  0
  9 19  1  0
 10 11  1  0
 10 21  1  0
 11 20  1  0
 12 13  1  0
 12 22  1  0
 13 23  1  0
  1 24  1  1
  2 25  1  0
  4 26  1  0
  4 27  1  0
  5 28  1  1
  6 29  1  1
  7 30  1  1
  8 31  1  6
  9 32  1  1
 10 33  1  6
 11 34  1  0
 11 35  1  0
 12 36  1  6
 13 37  1  6
 14 38  1  0
 14 39  1  0
 14 40  1  0
 15 41  1  0
 17 42  1  0
 18 43  1  0
 19 44  1  0
 20 45  1  0
 22 46  1  0
 23 47  1  0
M  CHG  1  14   1
M  END
>  <filename_input>  (25) 
7MGY_ZD1_docked.sdf

>  <pdb_id>  (25) 
7MGY_ZD1

>  <pose_rank>  (25) 
24

>  <num_atoms_heavy>  (25) 
23

>  <num_torsions>  (25) 
4

>  <pose>  (25) 
[17.376922081509193, -24.847032187908237, 268.44607062785275, 1.2366631363038552, -0.28541367117577104, 0.45501273356049254, -0.5478786898445936, 2.1072477300403967, 0.1971718519115951, 2.6010031141831518]

>  <energy>  (25) 
-154.83691285595907

>  <inter_energy>  (25) 
-146.9694867502359

>  <intra_energy>  (25) 
2.9024437496346933

>  <rmsd>  (25) 
11.9848

>  <sdf_rank>  (25) 
0

$$$$

     RDKit          3D

 47 48  0  0  0  0  0  0  0  0999 V2000
   23.6020  -29.9710  278.0920 C   0  0  1  0  0  0  0  0  0  0  0  0
   24.9650  -30.3140  277.5540 C   0  0  0  0  0  0  0  0  0  0  0  0
   25.2640  -30.4960  276.2630 C   0  0  0  0  0  0  0  0  0  0  0  0
   26.7020  -30.4990  275.7510 C   0  0  0  0  0  0  0  0  0  0  0  0
   24.2300  -30.3980  275.1690 C   0  0  2  0  0  0  0  0  0  0  0  0
   23.7690  -31.5270  273.0720 C   0  0  1  0  0  0  0  0  0  0  0  0
   23.2280  -32.8660  272.5100 C   0  0  1  0  0  0  0  0  0  0  0  0
   24.3770  -33.9230  272.3840 C   0  0  2  0  0  0  0  0  0  0  0  0
   25.5320  -33.3360  271.5150 C   0  0  1  0  0  0  0  0  0  0  0  0
   26.0140  -32.0500  272.2670 C   0  0  1  0  0  0  0  0  0  0  0  0
   27.2070  -31.3250  271.5020 C   0  0  0  0  0  0  0  0  0  0  0  0
   22.7910  -29.9560  275.6910 C   0  0  1  0  0  0  0  0  0  0  0  0
   22.5190  -30.4600  277.1050 C   0  0  1  0  0  0  0  0  0  0  0  0
   23.4680  -30.6290  279.3820 N   0  0  0  0  0  0  0  0  0  0  0  0
   26.9950  -29.2490  275.1720 O   0  0  0  0  0  0  0  0  0  0  0  0
   24.0810  -31.6420  274.4690 O   0  0  0  0  0  0  0  0  0  0  0  0
   22.2810  -33.3440  273.4430 O   0  0  0  0  0  0  0  0  0  0  0  0
   23.8770  -35.0480  271.7000 O   0  0  0  0  0  0  0  0  0  0  0  0
   26.5790  -34.3000  271.4850 O   0  0  0  0  0  0  0  0  0  0  0  0
   26.6530  -30.7610  270.3220 O   0  0  0  0  0  0  0  0  0  0  0  0
   24.9240  -31.1280  272.3690 O   0  0  0  0  0  0  0  0  0  0  0  0
   22.8430  -28.5590  275.8280 O   0  0  0  0  0  0  0  0  0  0  0  0
   22.4790  -31.8650  277.0060 O   0  0  0  0  0  0  0  0  0  0  0  0
   23.4794  -28.8844  278.2113 H   0  0  0  0  0  0  0  0  0  0  0  0
   25.7822  -30.4240  278.2820 H   0  0  0  0  0  0  0  0  0  0  0  0
   27.3896  -30.6855  276.5891 H   0  0  0  0  0  0  0  0  0  0  0  0
   26.8218  -31.2905  274.9966 H   0  0  0  0  0  0  0  0  0  0  0  0
   24.6134  -29.6177  274.4951 H   0  0  0  0  0  0  0  0  0  0  0  0
   22.9815  -30.7697  272.9443 H   0  0  0  0  0  0  0  0  0  0  0  0
   22.7917  -32.7082  271.5126 H   0  0  0  0  0  0  0  0  0  0  0  0
   24.7404  -34.1863  273.3883 H   0  0  0  0  0  0  0  0  0  0  0  0
   25.2250  -33.1008  270.4852 H   0  0  0  0  0  0  0  0  0  0  0  0
   26.3711  -32.3606  273.2600 H   0  0  0  0  0  0  0  0  0  0  0  0
   27.6375  -30.5343  272.1340 H   0  0  0  0  0  0  0  0  0  0  0  0
   28.0115  -32.0353  271.2607 H   0  0  0  0  0  0  0  0  0  0  0  0
   22.0309  -30.3419  274.9958 H   0  0  0  0  0  0  0  0  0  0  0  0
   21.5710  -30.0699  277.5040 H   0  0  0  0  0  0  0  0  0  0  0  0
   23.6083  -29.9403  280.1349 H   0  0  0  0  0  0  0  0  0  0  0  0
   22.5263  -31.0386  279.4624 H   0  0  0  0  0  0  0  0  0  0  0  0
   24.1745  -31.3742  279.4624 H   0  0  0  0  0  0  0  0  0  0  0  0
   27.1512  -28.5825  275.8872 H   0  0  0  0  0  0  0  0  0  0  0  0
   22.6101  -33.1779  274.3618 H   0  0  0  0  0  0  0  0  0  0  0  0
   23.5757  -35.7258  272.3556 H   0  0  0  0  0  0  0  0  0  0  0  0
   26.8362  -34.5368  272.4112 H   0  0  0  0  0  0  0  0  0  0  0  0
   25.9809  -30.0768  270.5674 H   0  0  0  0  0  0  0  0  0  0  0  0
   22.8518  -28.3218  276.7891 H   0  0  0  0  0  0  0  0  0  0  0  0
   22.4678  -32.2596  277.9139 H   0  0  0  0  0  0  0  0  0  0  0  0
  1  2  1  0
  1 13  1  0
  1 14  1  0
  2  3  2  0
  3  4  1  0
  3  5  1  0
  4 15  1  0
  5 12  1  0
  5 16  1  0
  6  7  1  0
  6 16  1  0
  6 21  1  0
  7  8  1  0
  7 17  1  0
  8  9  1  0
  8 18  1  0
  9 10  1  0
  9 19  1  0
 10 11  1  0
 10 21  1  0
 11 20  1  0
 12 13  1  0
 12 22  1  0
 13 23  1  0
  1 24  1  1
  2 25  1  0
  4 26  1  0
  4 27  1  0
  5 28  1  6
  6 29  1  1
  7 30  1  6
  8 31  1  1
  9 32  1  6
 10 33  1  1
 11 34  1  0
 11 35  1  0
 12 36  1  6
 13 37  1  1
 14 38  1  0
 14 39  1  0
 14 40  1  0
 15 41  1  0
 17 42  1  0
 18 43  1  0
 19 44  1  0
 20 45  1  0
 22 46  1  0
 23 47  1  0
M  CHG  1  14   1
M  END
>  <filename_input>  (26) 
7MGY_ZD1_docked.sdf

>  <pdb_id>  (26) 
7MGY_ZD1

>  <pose_rank>  (26) 
25

>  <num_atoms_heavy>  (26) 
23

>  <num_torsions>  (26) 
4

>  <pose>  (26) 
[24.081, -31.642, 274.469, 1e-06, 1e-06, 1e-06, 0.0, 0.0, 0.0, 0.0]

>  <energy>  (26) 
-995.5505938607902

>  <inter_energy>  (26) 
-988.2745637125715

>  <intra_energy>  (26) 
0.005928137993482074

>  <rmsd>  (26) 
0.0

>  <sdf_rank>  (26) 
0

$$$$
