
     RDKit          3D

104110  0  0  0  0  0  0  0  0999 V2000
  -15.7979   20.7885  -15.6780 C   0  0  0  0  0  0  0  0  0  0  0  0
  -18.8950   18.4239  -12.9866 C   0  0  0  0  0  0  0  0  0  0  0  0
  -13.8521   16.0628  -15.8350 C   0  0  0  0  0  0  0  0  0  0  0  0
  -12.3611   13.8068  -14.9368 C   0  0  0  0  0  0  0  0  0  0  0  0
  -14.0747   15.4678  -14.4392 C   0  0  0  0  0  0  0  0  0  0  0  0
  -10.3047   12.6094  -16.7965 C   0  0  0  0  0  0  0  0  0  0  0  0
  -13.4769   19.6694  -15.8645 C   0  0  1  0  0  0  0  0  0  0  0  0
  -12.8225   18.6248  -16.9342 C   0  0  0  0  0  0  0  0  0  0  0  0
  -13.8762   17.8768  -17.2609 C   0  0  2  0  0  0  0  0  0  0  0  0
  -15.0256   18.9410  -17.5328 C   0  0  0  0  0  0  0  0  0  0  0  0
  -13.0239   21.0811  -15.7629 C   0  0  0  0  0  0  0  0  0  0  0  0
  -11.9656   22.6956  -14.1009 C   0  0  2  0  0  0  0  0  0  0  0  0
  -17.1863   20.9179  -16.3151 C   0  0  2  0  0  0  0  0  0  0  0  0
  -18.4987   19.1982  -15.1357 C   0  0  0  0  0  0  0  0  0  0  0  0
  -17.3844   22.3869  -16.7069 C   0  0  0  0  0  0  0  0  0  0  0  0
  -16.3403   22.8098  -17.7905 C   0  0  0  0  0  0  0  0  0  0  0  0
  -12.1288   14.4078  -16.3208 C   0  0  0  0  0  0  0  0  0  0  0  0
  -11.0989   13.8244  -17.2981 C   0  0  0  0  0  0  0  0  0  0  0  0
  -10.5222   12.0104  -15.4053 C   0  0  0  0  0  0  0  0  0  0  0  0
  -11.5501   12.5773  -14.4531 C   0  0  0  0  0  0  0  0  0  0  0  0
   -8.6817   12.9648  -18.4627 C   0  0  0  0  0  0  0  0  0  0  0  0
  -15.1238   16.0768  -13.5108 C   0  0  0  0  0  0  0  0  0  0  0  0
  -10.7872   23.3976  -14.7258 C   0  0  0  0  0  0  0  0  0  0  0  0
   -8.1503   22.1202  -17.5734 C   0  0  2  0  0  0  0  0  0  0  0  0
   -7.0599   22.6774  -18.4858 C   0  0  0  0  0  0  0  0  0  0  0  0
   -6.6784   21.8024  -17.2800 C   0  0  0  0  0  0  0  0  0  0  0  0
   -9.0492   20.9788  -18.1060 C   0  0  0  0  0  0  0  0  0  0  0  0
  -13.1195   23.7273  -13.9456 C   0  0  2  0  0  0  0  0  0  0  0  0
  -13.2925   25.2167  -14.2576 C   0  0  0  0  0  0  0  0  0  0  0  0
  -14.2515   25.7451  -15.0515 C   0  0  0  0  0  0  0  0  0  0  0  0
  -15.3218   24.8882  -15.7636 C   0  0  0  0  0  0  0  0  0  0  0  0
  -15.1980   25.0479  -17.2964 C   0  0  0  0  0  0  0  0  0  0  0  0
  -12.2549   23.3496  -12.7362 C   0  0  0  0  0  0  0  0  0  0  0  0
  -16.4102   24.3560  -17.9957 C   0  0  0  0  0  0  0  0  0  0  0  0
  -20.0802   17.8066  -12.2380 C   0  0  1  0  0  0  0  0  0  0  0  0
  -21.4220   17.9599  -12.9653 C   0  0  0  0  0  0  0  0  0  0  0  0
  -20.7529   16.5796  -12.8724 C   0  0  0  0  0  0  0  0  0  0  0  0
  -20.1430   17.9188  -10.6948 C   0  0  2  0  0  0  0  0  0  0  0  0
  -21.4230   18.2637  -10.3388 F   0  0  0  0  0  0  0  0  0  0  0  0
  -19.2771   18.8708  -10.2858 F   0  0  0  0  0  0  0  0  0  0  0  0
  -19.7758   16.6927  -10.1981 F   0  0  0  0  0  0  0  0  0  0  0  0
  -14.8079   19.8848  -16.2579 N   0  0  0  0  0  0  0  0  0  0  0  0
  -12.3393   21.3489  -14.5346 N   0  0  0  0  0  0  0  0  0  0  0  0
  -18.2179   20.5873  -15.3918 N   0  0  0  0  0  0  0  0  0  0  0  0
  -12.8828   15.5679  -16.7725 N   0  0  0  0  0  0  0  0  0  0  0  0
  -13.3246   14.3338  -13.9852 N   0  0  0  0  0  0  0  0  0  0  0  0
  -10.1529   22.6612  -15.7663 N   0  0  0  0  0  0  0  0  0  0  0  0
  -13.2105   21.8990  -16.6092 O   0  0  0  0  0  0  0  0  0  0  0  0
  -15.5403   21.4299  -14.7112 O   0  0  0  0  0  0  0  0  0  0  0  0
  -19.4750   18.9588  -14.1540 O   0  0  0  0  0  0  0  0  0  0  0  0
  -17.9527   18.3011  -15.7242 O   0  0  0  0  0  0  0  0  0  0  0  0
  -14.5753   17.1856  -16.1888 O   0  0  0  0  0  0  0  0  0  0  0  0
   -9.3589   12.0546  -17.6336 O   0  0  0  0  0  0  0  0  0  0  0  0
  -10.3280   24.4467  -14.3684 O   0  0  0  0  0  0  0  0  0  0  0  0
   -7.8081   23.8730  -15.5385 O   0  0  0  0  0  0  0  0  0  0  0  0
   -9.2574   24.4504  -17.3415 O   0  0  0  0  0  0  0  0  0  0  0  0
   -8.8377   23.3606  -16.4547 S   0  0  1  0  0  0  0  0  0  0  0  0
  -18.4218   19.2151  -12.3864 H   0  0  0  0  0  0  0  0  0  0  0  0
  -18.1017   17.6931  -13.2027 H   0  0  0  0  0  0  0  0  0  0  0  0
  -13.2142   19.1660  -14.9223 H   0  0  0  0  0  0  0  0  0  0  0  0
  -12.4166   19.1505  -17.8111 H   0  0  0  0  0  0  0  0  0  0  0  0
  -11.9736   18.0502  -16.5350 H   0  0  0  0  0  0  0  0  0  0  0  0
  -13.4921   17.1743  -18.0152 H   0  0  0  0  0  0  0  0  0  0  0  0
  -14.8698   19.4828  -18.4773 H   0  0  0  0  0  0  0  0  0  0  0  0
  -16.0374   18.5237  -17.6426 H   0  0  0  0  0  0  0  0  0  0  0  0
  -17.2414   20.2352  -17.1759 H   0  0  0  0  0  0  0  0  0  0  0  0
  -18.3990   22.5204  -17.1102 H   0  0  0  0  0  0  0  0  0  0  0  0
  -17.2454   23.0150  -15.8146 H   0  0  0  0  0  0  0  0  0  0  0  0
  -15.3303   22.5282  -17.4578 H   0  0  0  0  0  0  0  0  0  0  0  0
  -16.5657   22.3007  -18.7392 H   0  0  0  0  0  0  0  0  0  0  0  0
  -10.9391   14.2515  -18.2991 H   0  0  0  0  0  0  0  0  0  0  0  0
   -9.9167   11.1475  -15.0911 H   0  0  0  0  0  0  0  0  0  0  0  0
  -11.7157   12.1362  -13.4591 H   0  0  0  0  0  0  0  0  0  0  0  0
   -8.1396   13.6933  -17.8418 H   0  0  0  0  0  0  0  0  0  0  0  0
   -7.9670   12.4207  -19.0978 H   0  0  0  0  0  0  0  0  0  0  0  0
   -9.4081   13.4930  -19.0978 H   0  0  0  0  0  0  0  0  0  0  0  0
  -14.8304   15.9065  -12.4644 H   0  0  0  0  0  0  0  0  0  0  0  0
  -15.1972   17.1579  -13.6997 H   0  0  0  0  0  0  0  0  0  0  0  0
  -16.0990   15.6044  -13.6997 H   0  0  0  0  0  0  0  0  0  0  0  0
   -6.9447   22.2861  -19.5074 H   0  0  0  0  0  0  0  0  0  0  0  0
   -6.7787   23.6808  -18.8381 H   0  0  0  0  0  0  0  0  0  0  0  0
   -6.1807   22.2522  -16.4082 H   0  0  0  0  0  0  0  0  0  0  0  0
   -6.0922   20.8825  -17.1381 H   0  0  0  0  0  0  0  0  0  0  0  0
   -9.4831   20.4279  -17.2585 H   0  0  0  0  0  0  0  0  0  0  0  0
   -9.8574   21.4043  -18.7191 H   0  0  0  0  0  0  0  0  0  0  0  0
   -8.4462   20.2928  -18.7191 H   0  0  0  0  0  0  0  0  0  0  0  0
  -14.1372   23.6735  -14.3594 H   0  0  0  0  0  0  0  0  0  0  0  0
  -12.5773   25.9147  -13.7979 H   0  0  0  0  0  0  0  0  0  0  0  0
  -14.2704   26.8353  -15.1968 H   0  0  0  0  0  0  0  0  0  0  0  0
  -15.1788   23.8310  -15.4954 H   0  0  0  0  0  0  0  0  0  0  0  0
  -16.3203   25.2235  -15.4465 H   0  0  0  0  0  0  0  0  0  0  0  0
  -15.1891   26.1174  -17.5532 H   0  0  0  0  0  0  0  0  0  0  0  0
  -14.2635   24.5788  -17.6378 H   0  0  0  0  0  0  0  0  0  0  0  0
  -12.6854   22.7491  -11.9213 H   0  0  0  0  0  0  0  0  0  0  0  0
  -11.6558   23.9150  -12.0073 H   0  0  0  0  0  0  0  0  0  0  0  0
  -16.3858   24.5812  -19.0721 H   0  0  0  0  0  0  0  0  0  0  0  0
  -17.3437   24.7349  -17.5540 H   0  0  0  0  0  0  0  0  0  0  0  0
  -22.3378   18.1667  -12.3921 H   0  0  0  0  0  0  0  0  0  0  0  0
  -21.7937   18.5901  -13.7867 H   0  0  0  0  0  0  0  0  0  0  0  0
  -20.3185   16.1170  -13.7709 H   0  0  0  0  0  0  0  0  0  0  0  0
  -21.0617   15.5874  -12.5114 H   0  0  0  0  0  0  0  0  0  0  0  0
  -12.0978   20.5540  -13.9256 H   0  0  0  0  0  0  0  0  0  0  0  0
  -18.7533   21.3275  -14.9159 H   0  0  0  0  0  0  0  0  0  0  0  0
  -10.5003   21.7403  -16.0701 H   0  0  0  0  0  0  0  0  0  0  0  0
  1 13  1  0
  1 42  1  0
  1 49  2  0
 35  2  1  6
  2 50  1  0
  3  5  2  0
  3 45  1  0
  3 52  1  0
  4 17  1  0
  4 20  1  0
  4 46  2  0
  5 22  1  0
  5 46  1  0
  6 18  2  0
  6 19  1  0
  6 53  1  0
  7  8  1  0
  7 11  1  0
  7 42  1  0
  8  9  1  0
  9 10  1  0
  9 52  1  0
 10 42  1  0
 11 43  1  0
 11 48  2  0
 12 23  1  6
 12 28  1  0
 12 33  1  0
 12 43  1  0
 13 15  1  0
 13 44  1  0
 14 44  1  0
 14 50  1  0
 14 51  2  0
 15 16  1  0
 16 34  1  0
 17 18  1  0
 17 45  2  0
 19 20  2  0
 21 53  1  0
 23 47  1  0
 23 54  2  0
 24 25  1  0
 24 26  1  0
 24 27  1  6
 24 57  1  0
 25 26  1  0
 28 29  1  0
 28 33  1  0
 29 30  2  3
 30 31  1  0
 31 32  1  0
 32 34  1  0
 35 36  1  0
 35 37  1  0
 35 38  1  0
 36 37  1  0
 38 39  1  6
 38 40  1  0
 38 41  1  0
 57 47  1  1
 55 57  2  0
 56 57  2  0
  2 58  1  0
  2 59  1  0
  7 60  1  1
  8 61  1  0
  8 62  1  0
  9 63  1  6
 10 64  1  0
 10 65  1  0
 13 66  1  6
 15 67  1  0
 15 68  1  0
 16 69  1  0
 16 70  1  0
 18 71  1  0
 19 72  1  0
 20 73  1  0
 21 74  1  0
 21 75  1  0
 21 76  1  0
 22 77  1  0
 22 78  1  0
 22 79  1  0
 25 80  1  0
 25 81  1  0
 26 82  1  0
 26 83  1  0
 27 84  1  0
 27 85  1  0
 27 86  1  0
 28 87  1  1
 29 88  1  0
 30 89  1  0
 31 90  1  0
 31 91  1  0
 32 92  1  0
 32 93  1  0
 33 94  1  0
 33 95  1  0
 34 96  1  0
 34 97  1  0
 36 98  1  0
 36 99  1  0
 37100  1  0
 37101  1  0
 43102  1  0
 44103  1  0
 47104  1  0
M  END
>  <filename_input>  (1) 
7MMH_ZJY_docked.sdf

>  <pdb_id>  (1) 
7MMH_ZJY

>  <pose_rank>  (1) 
0

>  <num_atoms_heavy>  (1) 
57

>  <num_torsions>  (1) 
11

>  <pose>  (1) 
[-15.797889634457327, 20.788471161892982, -15.677975180031487, -3.1871154288362464, 0.0520215244071893, 5.347066586365859, 6.3686312483032514, -5.153220562445839, 0.7439288510744755, -1.2865252426661493, -2.9240270451339754, 0.11409814432400833, -0.2364282445075672, -0.536878309233185, 0.12885804787723168, -0.055540071777818445, 0.5870606190575598]

>  <energy>  (1) 
-1818.2356864920519

>  <inter_energy>  (1) 
-1846.2498751791304

>  <intra_energy>  (1) 
43.18393110674372

>  <rmsd>  (1) 
0.63168

>  <sdf_rank>  (1) 
0

$$$$

     RDKit          3D

104110  0  0  0  0  0  0  0  0999 V2000
  -15.7856   20.7515  -15.7368 C   0  0  0  0  0  0  0  0  0  0  0  0
  -19.7693   17.5055  -14.1137 C   0  0  0  0  0  0  0  0  0  0  0  0
  -13.9481   15.9292  -16.1338 C   0  0  0  0  0  0  0  0  0  0  0  0
  -12.7586   13.3463  -15.9518 C   0  0  0  0  0  0  0  0  0  0  0  0
  -13.3488   15.2418  -17.3668 C   0  0  0  0  0  0  0  0  0  0  0  0
  -12.7146   11.9698  -13.2641 C   0  0  0  0  0  0  0  0  0  0  0  0
  -13.4630   19.6521  -16.0034 C   0  0  1  0  0  0  0  0  0  0  0  0
  -12.8354   18.6170  -17.0981 C   0  0  0  0  0  0  0  0  0  0  0  0
  -13.8932   17.8617  -17.3934 C   0  0  2  0  0  0  0  0  0  0  0  0
  -15.0594   18.9175  -17.6233 C   0  0  0  0  0  0  0  0  0  0  0  0
  -13.0183   21.0671  -15.9108 C   0  0  0  0  0  0  0  0  0  0  0  0
  -11.9194   22.6838  -14.2775 C   0  0  2  0  0  0  0  0  0  0  0  0
  -17.1951   20.8720  -16.3278 C   0  0  2  0  0  0  0  0  0  0  0  0
  -18.5559   19.1444  -15.2167 C   0  0  0  0  0  0  0  0  0  0  0  0
  -17.4176   22.3409  -16.7069 C   0  0  0  0  0  0  0  0  0  0  0  0
  -16.4128   22.7764  -17.8222 C   0  0  0  0  0  0  0  0  0  0  0  0
  -13.3681   14.0240  -14.7271 C   0  0  0  0  0  0  0  0  0  0  0  0
  -13.3592   13.3614  -13.3426 C   0  0  0  0  0  0  0  0  0  0  0  0
  -12.1143   11.2784  -14.4901 C   0  0  0  0  0  0  0  0  0  0  0  0
  -12.1094   11.9424  -15.8480 C   0  0  0  0  0  0  0  0  0  0  0  0
  -13.9417   11.1708  -11.4221 C   0  0  0  0  0  0  0  0  0  0  0  0
  -13.3693   15.9517  -18.7191 C   0  0  0  0  0  0  0  0  0  0  0  0
  -10.7677   23.3978  -14.9376 C   0  0  0  0  0  0  0  0  0  0  0  0
   -8.1000   22.1001  -17.7503 C   0  0  2  0  0  0  0  0  0  0  0  0
   -6.6913   22.4293  -18.2394 C   0  0  0  0  0  0  0  0  0  0  0  0
   -6.9026   21.3110  -17.2051 C   0  0  0  0  0  0  0  0  0  0  0  0
   -9.0689   21.3775  -18.7166 C   0  0  0  0  0  0  0  0  0  0  0  0
  -13.0759   23.7054  -14.0804 C   0  0  2  0  0  0  0  0  0  0  0  0
  -13.2709   25.1946  -14.3806 C   0  0  0  0  0  0  0  0  0  0  0  0
  -14.2595   25.7181  -15.1406 C   0  0  0  0  0  0  0  0  0  0  0  0
  -15.3455   24.8553  -15.8210 C   0  0  0  0  0  0  0  0  0  0  0  0
  -15.2731   25.0219  -17.3563 C   0  0  0  0  0  0  0  0  0  0  0  0
  -12.1694   23.3301  -12.9014 C   0  0  0  0  0  0  0  0  0  0  0  0
  -16.5019   24.3228  -18.0187 C   0  0  0  0  0  0  0  0  0  0  0  0
  -19.3050   17.1240  -12.7047 C   0  0  1  0  0  0  0  0  0  0  0  0
  -19.1702   15.6121  -12.4834 C   0  0  0  0  0  0  0  0  0  0  0  0
  -17.9120   16.4904  -12.5691 C   0  0  0  0  0  0  0  0  0  0  0  0
  -19.8277   17.9305  -11.4906 C   0  0  2  0  0  0  0  0  0  0  0  0
  -19.3112   19.2004  -11.5612 F   0  0  0  0  0  0  0  0  0  0  0  0
  -19.4207   17.3286  -10.3524 F   0  0  0  0  0  0  0  0  0  0  0  0
  -21.1980   17.9194  -11.5742 F   0  0  0  0  0  0  0  0  0  0  0  0
  -14.8078   19.8582  -16.3523 N   0  0  0  0  0  0  0  0  0  0  0  0
  -12.2962   21.3358  -14.7043 N   0  0  0  0  0  0  0  0  0  0  0  0
  -18.1933   20.5295  -15.3728 N   0  0  0  0  0  0  0  0  0  0  0  0
  -13.9863   15.3380  -14.8253 N   0  0  0  0  0  0  0  0  0  0  0  0
  -12.7513   13.9418  -17.2773 N   0  0  0  0  0  0  0  0  0  0  0  0
  -10.0307   22.5952  -15.8541 N   0  0  0  0  0  0  0  0  0  0  0  0
  -13.2390   21.8867  -16.7472 O   0  0  0  0  0  0  0  0  0  0  0  0
  -15.5018   21.3913  -14.7762 O   0  0  0  0  0  0  0  0  0  0  0  0
  -19.4894   18.8838  -14.1995 O   0  0  0  0  0  0  0  0  0  0  0  0
  -18.1084   18.2688  -15.9112 O   0  0  0  0  0  0  0  0  0  0  0  0
  -14.5514   17.1607  -16.3019 O   0  0  0  0  0  0  0  0  0  0  0  0
  -12.6911   11.3271  -12.0436 O   0  0  0  0  0  0  0  0  0  0  0  0
  -10.4057   24.5154  -14.6942 O   0  0  0  0  0  0  0  0  0  0  0  0
   -7.6739   23.7927  -15.6806 O   0  0  0  0  0  0  0  0  0  0  0  0
   -9.1877   24.4262  -17.4103 O   0  0  0  0  0  0  0  0  0  0  0  0
   -8.7395   23.3100  -16.5715 S   0  0  1  0  0  0  0  0  0  0  0  0
  -19.2094   16.9440  -14.8761 H   0  0  0  0  0  0  0  0  0  0  0  0
  -20.8309   17.2759  -14.2880 H   0  0  0  0  0  0  0  0  0  0  0  0
  -13.1657   19.1473  -15.0724 H   0  0  0  0  0  0  0  0  0  0  0  0
  -12.4627   19.1494  -17.9856 H   0  0  0  0  0  0  0  0  0  0  0  0
  -11.9694   18.0479  -16.7292 H   0  0  0  0  0  0  0  0  0  0  0  0
  -13.5283   17.1653  -18.1626 H   0  0  0  0  0  0  0  0  0  0  0  0
  -14.9388   19.4642  -18.5702 H   0  0  0  0  0  0  0  0  0  0  0  0
  -16.0709   18.4924  -17.7018 H   0  0  0  0  0  0  0  0  0  0  0  0
  -17.2727   20.1922  -17.1891 H   0  0  0  0  0  0  0  0  0  0  0  0
  -18.4459   22.4676  -17.0764 H   0  0  0  0  0  0  0  0  0  0  0  0
  -17.2547   22.9666  -15.8170 H   0  0  0  0  0  0  0  0  0  0  0  0
  -15.3903   22.5018  -17.5237 H   0  0  0  0  0  0  0  0  0  0  0  0
  -16.6649   22.2691  -18.7651 H   0  0  0  0  0  0  0  0  0  0  0  0
  -13.7894   13.8545  -12.4584 H   0  0  0  0  0  0  0  0  0  0  0  0
  -11.6764   10.2752  -14.3807 H   0  0  0  0  0  0  0  0  0  0  0  0
  -11.6641   11.4503  -16.7252 H   0  0  0  0  0  0  0  0  0  0  0  0
  -13.8129   11.1869  -10.3298 H   0  0  0  0  0  0  0  0  0  0  0  0
  -14.6070   11.9928  -11.7250 H   0  0  0  0  0  0  0  0  0  0  0  0
  -14.3843   10.2104  -11.7250 H   0  0  0  0  0  0  0  0  0  0  0  0
  -13.4006   17.0399  -18.5615 H   0  0  0  0  0  0  0  0  0  0  0  0
  -12.4632   15.6890  -19.2848 H   0  0  0  0  0  0  0  0  0  0  0  0
  -14.2587   15.6373  -19.2848 H   0  0  0  0  0  0  0  0  0  0  0  0
   -6.3936   22.1778  -19.2681 H   0  0  0  0  0  0  0  0  0  0  0  0
   -6.0772   23.3408  -18.2843 H   0  0  0  0  0  0  0  0  0  0  0  0
   -6.5762   21.4540  -16.1645 H   0  0  0  0  0  0  0  0  0  0  0  0
   -6.6338   20.2462  -17.1416 H   0  0  0  0  0  0  0  0  0  0  0  0
   -9.8176   20.8192  -18.1355 H   0  0  0  0  0  0  0  0  0  0  0  0
   -9.5758   22.1199  -19.3506 H   0  0  0  0  0  0  0  0  0  0  0  0
   -8.5020   20.6799  -19.3506 H   0  0  0  0  0  0  0  0  0  0  0  0
  -14.1061   23.6449  -14.4611 H   0  0  0  0  0  0  0  0  0  0  0  0
  -12.5468   25.8966  -13.9416 H   0  0  0  0  0  0  0  0  0  0  0  0
  -14.2919   26.8087  -15.2808 H   0  0  0  0  0  0  0  0  0  0  0  0
  -15.1854   23.7983  -15.5619 H   0  0  0  0  0  0  0  0  0  0  0  0
  -16.3359   25.1811  -15.4702 H   0  0  0  0  0  0  0  0  0  0  0  0
  -15.2812   26.0924  -17.6089 H   0  0  0  0  0  0  0  0  0  0  0  0
  -14.3465   24.5617  -17.7299 H   0  0  0  0  0  0  0  0  0  0  0  0
  -12.5682   22.7230  -12.0754 H   0  0  0  0  0  0  0  0  0  0  0  0
  -11.5514   23.8977  -12.1901 H   0  0  0  0  0  0  0  0  0  0  0  0
  -16.5143   24.5523  -19.0944 H   0  0  0  0  0  0  0  0  0  0  0  0
  -17.4235   24.6923  -17.5452 H   0  0  0  0  0  0  0  0  0  0  0  0
  -19.4667   15.1686  -11.5214 H   0  0  0  0  0  0  0  0  0  0  0  0
  -19.5290   14.7144  -13.0081 H   0  0  0  0  0  0  0  0  0  0  0  0
  -17.2511   16.4211  -13.4457 H   0  0  0  0  0  0  0  0  0  0  0  0
  -17.0377   16.6629  -11.9242 H   0  0  0  0  0  0  0  0  0  0  0  0
  -12.0286   20.5406  -14.1068 H   0  0  0  0  0  0  0  0  0  0  0  0
  -18.6476   21.2582  -14.8041 H   0  0  0  0  0  0  0  0  0  0  0  0
  -10.2935   21.6199  -16.0557 H   0  0  0  0  0  0  0  0  0  0  0  0
  1 13  1  0
  1 42  1  0
  1 49  2  0
 35  2  1  6
  2 50  1  0
  3  5  2  0
  3 45  1  0
  3 52  1  0
  4 17  1  0
  4 20  1  0
  4 46  2  0
  5 22  1  0
  5 46  1  0
  6 18  2  0
  6 19  1  0
  6 53  1  0
  7  8  1  0
  7 11  1  0
  7 42  1  0
  8  9  1  0
  9 10  1  0
  9 52  1  0
 10 42  1  0
 11 43  1  0
 11 48  2  0
 12 23  1  6
 12 28  1  0
 12 33  1  0
 12 43  1  0
 13 15  1  0
 13 44  1  0
 14 44  1  0
 14 50  1  0
 14 51  2  0
 15 16  1  0
 16 34  1  0
 17 18  1  0
 17 45  2  0
 19 20  2  0
 21 53  1  0
 23 47  1  0
 23 54  2  0
 24 25  1  0
 24 26  1  0
 24 27  1  6
 24 57  1  0
 25 26  1  0
 28 29  1  0
 28 33  1  0
 29 30  2  3
 30 31  1  0
 31 32  1  0
 32 34  1  0
 35 36  1  0
 35 37  1  0
 35 38  1  0
 36 37  1  0
 38 39  1  6
 38 40  1  0
 38 41  1  0
 57 47  1  1
 55 57  2  0
 56 57  2  0
  2 58  1  0
  2 59  1  0
  7 60  1  1
  8 61  1  0
  8 62  1  0
  9 63  1  6
 10 64  1  0
 10 65  1  0
 13 66  1  6
 15 67  1  0
 15 68  1  0
 16 69  1  0
 16 70  1  0
 18 71  1  0
 19 72  1  0
 20 73  1  0
 21 74  1  0
 21 75  1  0
 21 76  1  0
 22 77  1  0
 22 78  1  0
 22 79  1  0
 25 80  1  0
 25 81  1  0
 26 82  1  0
 26 83  1  0
 27 84  1  0
 27 85  1  0
 27 86  1  0
 28 87  1  1
 29 88  1  0
 30 89  1  0
 31 90  1  0
 31 91  1  0
 32 92  1  0
 32 93  1  0
 33 94  1  0
 33 95  1  0
 34 96  1  0
 34 97  1  0
 36 98  1  0
 36 99  1  0
 37100  1  0
 37101  1  0
 43102  1  0
 44103  1  0
 47104  1  0
M  END
>  <filename_input>  (2) 
7MMH_ZJY_docked.sdf

>  <pdb_id>  (2) 
7MMH_ZJY

>  <pose_rank>  (2) 
1

>  <num_atoms_heavy>  (2) 
57

>  <num_torsions>  (2) 
11

>  <pose>  (2) 
[-15.785627019626478, 20.751493010603266, -15.736766509652757, -3.271913401560518, -3.212307872632745, 4.20376311817401, -0.02944792132798301, -0.09001330068640478, -0.6536243885577199, -4.175111416125964, -0.1877594901807711, -0.04852866100352427, -0.04707193604005478, -0.09085930906295019, -0.05428776745023013, 2.936678961499508, 0.9570085733923349]

>  <energy>  (2) 
-1534.0721059539412

>  <inter_energy>  (2) 
-1650.2033837430279

>  <intra_energy>  (2) 
114.19438197346489

>  <rmsd>  (2) 
2.16956

>  <sdf_rank>  (2) 
0

$$$$

     RDKit          3D

104110  0  0  0  0  0  0  0  0999 V2000
  -15.7146   20.6630  -15.2802 C   0  0  0  0  0  0  0  0  0  0  0  0
  -19.3477   17.4711  -13.2430 C   0  0  0  0  0  0  0  0  0  0  0  0
  -13.9776   15.7691  -15.7118 C   0  0  0  0  0  0  0  0  0  0  0  0
  -13.1542   13.0434  -15.6059 C   0  0  0  0  0  0  0  0  0  0  0  0
  -13.8774   15.0207  -14.3770 C   0  0  0  0  0  0  0  0  0  0  0  0
  -12.4612   11.6492  -18.1937 C   0  0  0  0  0  0  0  0  0  0  0  0
  -13.3483   19.6430  -15.4652 C   0  0  1  0  0  0  0  0  0  0  0  0
  -12.6626   18.5920  -16.5088 C   0  0  0  0  0  0  0  0  0  0  0  0
  -13.6860   17.7867  -16.7928 C   0  0  2  0  0  0  0  0  0  0  0  0
  -14.8862   18.7883  -17.0827 C   0  0  0  0  0  0  0  0  0  0  0  0
  -12.9582   21.0764  -15.4193 C   0  0  0  0  0  0  0  0  0  0  0  0
  -11.9503   22.7937  -13.8306 C   0  0  2  0  0  0  0  0  0  0  0  0
  -17.1165   20.7078  -15.8992 C   0  0  2  0  0  0  0  0  0  0  0  0
  -18.0586   19.0714  -14.3164 C   0  0  0  0  0  0  0  0  0  0  0  0
  -17.3865   22.1519  -16.3379 C   0  0  0  0  0  0  0  0  0  0  0  0
  -16.3782   22.5830  -17.4519 C   0  0  0  0  0  0  0  0  0  0  0  0
  -13.2397   13.7923  -16.9334 C   0  0  0  0  0  0  0  0  0  0  0  0
  -12.9035   13.1178  -18.2706 C   0  0  0  0  0  0  0  0  0  0  0  0
  -12.3596   10.8962  -16.8655 C   0  0  0  0  0  0  0  0  0  0  0  0
  -12.7089   11.5594  -15.5529 C   0  0  0  0  0  0  0  0  0  0  0  0
  -12.4671    9.6354  -19.4110 C   0  0  0  0  0  0  0  0  0  0  0  0
  -14.2388   15.7339  -13.0755 C   0  0  0  0  0  0  0  0  0  0  0  0
  -10.8141   23.5254  -14.4979 C   0  0  0  0  0  0  0  0  0  0  0  0
   -8.4058   22.4133  -17.6101 C   0  0  2  0  0  0  0  0  0  0  0  0
   -7.0334   22.7602  -18.1831 C   0  0  0  0  0  0  0  0  0  0  0  0
   -7.1852   21.5680  -17.2236 C   0  0  0  0  0  0  0  0  0  0  0  0
   -9.4614   21.7811  -18.5485 C   0  0  0  0  0  0  0  0  0  0  0  0
  -13.1474   23.7775  -13.6924 C   0  0  2  0  0  0  0  0  0  0  0  0
  -13.3921   25.2459  -14.0525 C   0  0  0  0  0  0  0  0  0  0  0  0
  -14.3854   25.7027  -14.8486 C   0  0  0  0  0  0  0  0  0  0  0  0
  -15.4259   24.7744  -15.5138 C   0  0  0  0  0  0  0  0  0  0  0  0
  -15.3315   24.8858  -17.0529 C   0  0  0  0  0  0  0  0  0  0  0  0
  -12.2494   23.4813  -12.4847 C   0  0  0  0  0  0  0  0  0  0  0  0
  -16.5211   24.1164  -17.7088 C   0  0  0  0  0  0  0  0  0  0  0  0
  -19.1138   17.1398  -11.7659 C   0  0  1  0  0  0  0  0  0  0  0  0
  -18.8306   15.6560  -11.4995 C   0  0  0  0  0  0  0  0  0  0  0  0
  -17.7022   16.6898  -11.3594 C   0  0  0  0  0  0  0  0  0  0  0  0
  -19.9562   17.8612  -10.6852 C   0  0  2  0  0  0  0  0  0  0  0  0
  -20.3308   16.9371   -9.7418 F   0  0  0  0  0  0  0  0  0  0  0  0
  -21.0505   18.3995  -11.2649 F   0  0  0  0  0  0  0  0  0  0  0  0
  -19.1582   18.8477  -10.1610 F   0  0  0  0  0  0  0  0  0  0  0  0
  -14.6932   19.7848  -15.8445 N   0  0  0  0  0  0  0  0  0  0  0  0
  -12.2689   21.4172  -14.2119 N   0  0  0  0  0  0  0  0  0  0  0  0
  -18.1187   20.3639  -14.9488 N   0  0  0  0  0  0  0  0  0  0  0  0
  -13.6485   15.1883  -16.9836 N   0  0  0  0  0  0  0  0  0  0  0  0
  -13.4620   13.6498  -14.3217 N   0  0  0  0  0  0  0  0  0  0  0  0
  -10.1979   22.8040  -15.5596 N   0  0  0  0  0  0  0  0  0  0  0  0
  -13.1938   21.8550  -16.2900 O   0  0  0  0  0  0  0  0  0  0  0  0
  -15.4725   21.3488  -14.3402 O   0  0  0  0  0  0  0  0  0  0  0  0
  -19.0371   18.8425  -13.3345 O   0  0  0  0  0  0  0  0  0  0  0  0
  -17.2426   18.2365  -14.6105 O   0  0  0  0  0  0  0  0  0  0  0  0
  -14.3376   17.1028  -15.6867 O   0  0  0  0  0  0  0  0  0  0  0  0
  -12.1374   11.0007  -19.3675 O   0  0  0  0  0  0  0  0  0  0  0  0
  -10.3704   24.5870  -14.1581 O   0  0  0  0  0  0  0  0  0  0  0  0
   -7.7921   23.9067  -15.4367 O   0  0  0  0  0  0  0  0  0  0  0  0
   -9.3839   24.7347  -17.0069 O   0  0  0  0  0  0  0  0  0  0  0  0
   -8.9271   23.5367  -16.2952 S   0  0  1  0  0  0  0  0  0  0  0  0
  -18.6847   16.8755  -13.8877 H   0  0  0  0  0  0  0  0  0  0  0  0
  -20.3727   17.2447  -13.5721 H   0  0  0  0  0  0  0  0  0  0  0  0
  -13.0495   19.1852  -14.5107 H   0  0  0  0  0  0  0  0  0  0  0  0
  -12.2937   19.1045  -17.4095 H   0  0  0  0  0  0  0  0  0  0  0  0
  -11.7830   18.0703  -16.1037 H   0  0  0  0  0  0  0  0  0  0  0  0
  -13.2814   17.0762  -17.5286 H   0  0  0  0  0  0  0  0  0  0  0  0
  -14.7686   19.3031  -18.0476 H   0  0  0  0  0  0  0  0  0  0  0  0
  -15.8796   18.3226  -17.1620 H   0  0  0  0  0  0  0  0  0  0  0  0
  -17.1529   19.9937  -16.7351 H   0  0  0  0  0  0  0  0  0  0  0  0
  -18.4118   22.2257  -16.7294 H   0  0  0  0  0  0  0  0  0  0  0  0
  -17.2633   22.8164  -15.4700 H   0  0  0  0  0  0  0  0  0  0  0  0
  -15.3519   22.3587  -17.1258 H   0  0  0  0  0  0  0  0  0  0  0  0
  -16.5939   22.0314  -18.3788 H   0  0  0  0  0  0  0  0  0  0  0  0
  -12.9751   13.6549  -19.2279 H   0  0  0  0  0  0  0  0  0  0  0  0
  -12.0247    9.8484  -16.8659 H   0  0  0  0  0  0  0  0  0  0  0  0
  -12.6497   11.0122  -14.6004 H   0  0  0  0  0  0  0  0  0  0  0  0
  -12.5607    9.2479  -18.3857 H   0  0  0  0  0  0  0  0  0  0  0  0
  -13.4224    9.5056  -19.9406 H   0  0  0  0  0  0  0  0  0  0  0  0
  -11.6763    9.0839  -19.9406 H   0  0  0  0  0  0  0  0  0  0  0  0
  -13.9262   15.1169  -12.2202 H   0  0  0  0  0  0  0  0  0  0  0  0
  -13.7242   16.7053  -13.0345 H   0  0  0  0  0  0  0  0  0  0  0  0
  -15.3265   15.8932  -13.0345 H   0  0  0  0  0  0  0  0  0  0  0  0
   -6.8221   22.5852  -19.2483 H   0  0  0  0  0  0  0  0  0  0  0  0
   -6.4068   23.6640  -18.2070 H   0  0  0  0  0  0  0  0  0  0  0  0
   -6.7757   21.6253  -16.2043 H   0  0  0  0  0  0  0  0  0  0  0  0
   -6.9333   20.4980  -17.2630 H   0  0  0  0  0  0  0  0  0  0  0  0
  -10.2511   21.3082  -17.9462 H   0  0  0  0  0  0  0  0  0  0  0  0
   -9.9031   22.5635  -19.1832 H   0  0  0  0  0  0  0  0  0  0  0  0
   -8.9803   21.0224  -19.1832 H   0  0  0  0  0  0  0  0  0  0  0  0
  -14.1675   23.6638  -14.0879 H   0  0  0  0  0  0  0  0  0  0  0  0
  -12.7027   25.9908  -13.6285 H   0  0  0  0  0  0  0  0  0  0  0  0
  -14.4556   26.7852  -15.0309 H   0  0  0  0  0  0  0  0  0  0  0  0
  -15.2313   23.7347  -15.2119 H   0  0  0  0  0  0  0  0  0  0  0  0
  -16.4339   25.0756  -15.1926 H   0  0  0  0  0  0  0  0  0  0  0  0
  -15.3747   25.9451  -17.3464 H   0  0  0  0  0  0  0  0  0  0  0  0
  -14.3817   24.4474  -17.3929 H   0  0  0  0  0  0  0  0  0  0  0  0
  -12.6404   22.8910  -11.6429 H   0  0  0  0  0  0  0  0  0  0  0  0
  -11.6661   24.0982  -11.7852 H   0  0  0  0  0  0  0  0  0  0  0  0
  -16.5223   24.3047  -18.7926 H   0  0  0  0  0  0  0  0  0  0  0  0
  -17.4643   24.4683  -17.2655 H   0  0  0  0  0  0  0  0  0  0  0  0
  -19.2447   15.1692  -10.6042 H   0  0  0  0  0  0  0  0  0  0  0  0
  -18.9653   14.7243  -12.0686 H   0  0  0  0  0  0  0  0  0  0  0  0
  -16.8839   16.7143  -12.0941 H   0  0  0  0  0  0  0  0  0  0  0  0
  -16.9954   16.9678  -10.5636 H   0  0  0  0  0  0  0  0  0  0  0  0
  -11.9830   20.6558  -13.5800 H   0  0  0  0  0  0  0  0  0  0  0  0
  -18.8724   21.0267  -14.7178 H   0  0  0  0  0  0  0  0  0  0  0  0
  -10.5313   21.8737  -15.8499 H   0  0  0  0  0  0  0  0  0  0  0  0
  1 13  1  0
  1 42  1  0
  1 49  2  0
 35  2  1  6
  2 50  1  0
  3  5  2  0
  3 45  1  0
  3 52  1  0
  4 17  1  0
  4 20  1  0
  4 46  2  0
  5 22  1  0
  5 46  1  0
  6 18  2  0
  6 19  1  0
  6 53  1  0
  7  8  1  0
  7 11  1  0
  7 42  1  0
  8  9  1  0
  9 10  1  0
  9 52  1  0
 10 42  1  0
 11 43  1  0
 11 48  2  0
 12 23  1  6
 12 28  1  0
 12 33  1  0
 12 43  1  0
 13 15  1  0
 13 44  1  0
 14 44  1  0
 14 50  1  0
 14 51  2  0
 15 16  1  0
 16 34  1  0
 17 18  1  0
 17 45  2  0
 19 20  2  0
 21 53  1  0
 23 47  1  0
 23 54  2  0
 24 25  1  0
 24 26  1  0
 24 27  1  6
 24 57  1  0
 25 26  1  0
 28 29  1  0
 28 33  1  0
 29 30  2  3
 30 31  1  0
 31 32  1  0
 32 34  1  0
 35 36  1  0
 35 37  1  0
 35 38  1  0
 36 37  1  0
 38 39  1  1
 38 40  1  0
 38 41  1  0
 57 47  1  1
 55 57  2  0
 56 57  2  0
  2 58  1  0
  2 59  1  0
  7 60  1  1
  8 61  1  0
  8 62  1  0
  9 63  1  6
 10 64  1  0
 10 65  1  0
 13 66  1  6
 15 67  1  0
 15 68  1  0
 16 69  1  0
 16 70  1  0
 18 71  1  0
 19 72  1  0
 20 73  1  0
 21 74  1  0
 21 75  1  0
 21 76  1  0
 22 77  1  0
 22 78  1  0
 22 79  1  0
 25 80  1  0
 25 81  1  0
 26 82  1  0
 26 83  1  0
 27 84  1  0
 27 85  1  0
 27 86  1  0
 28 87  1  1
 29 88  1  0
 30 89  1  0
 31 90  1  0
 31 91  1  0
 32 92  1  0
 32 93  1  0
 33 94  1  0
 33 95  1  0
 34 96  1  0
 34 97  1  0
 36 98  1  0
 36 99  1  0
 37100  1  0
 37101  1  0
 43102  1  0
 44103  1  0
 47104  1  0
M  END
>  <filename_input>  (3) 
7MMH_ZJY_docked.sdf

>  <pdb_id>  (3) 
7MMH_ZJY

>  <pose_rank>  (3) 
2

>  <num_atoms_heavy>  (3) 
57

>  <num_torsions>  (3) 
11

>  <pose>  (3) 
[-15.714623130597465, 20.66301583632805, -15.280223160009356, 2.0261268029865445, -5.593194871699144, 1.9713100722667807, 0.43231594735000267, 5.679078740232019, -0.534657799133641, 2.258038188396678, -2.889578836382686, 0.15725952206181165, -0.08924395895621154, -0.11650692089136365, -6.64644716704668, -6.505224303087665, -2.5500056615965354]

>  <energy>  (3) 
-1442.7478434456355

>  <inter_energy>  (3) 
-1488.0306484221433

>  <intra_energy>  (3) 
45.53174468171051

>  <rmsd>  (3) 
1.31875

>  <sdf_rank>  (3) 
0

$$$$

     RDKit          3D

104110  0  0  0  0  0  0  0  0999 V2000
  -13.1288   22.5983  -17.2111 C   0  0  0  0  0  0  0  0  0  0  0  0
   -8.1829   24.5097  -16.8458 C   0  0  0  0  0  0  0  0  0  0  0  0
  -13.4273   17.4406  -16.5380 C   0  0  0  0  0  0  0  0  0  0  0  0
  -13.3548   14.5976  -16.3615 C   0  0  0  0  0  0  0  0  0  0  0  0
  -13.1201   16.5758  -17.7667 C   0  0  0  0  0  0  0  0  0  0  0  0
  -13.9154   13.3082  -13.6887 C   0  0  0  0  0  0  0  0  0  0  0  0
  -14.9315   20.8513  -17.8213 C   0  0  1  0  0  0  0  0  0  0  0  0
  -15.6970   19.6901  -16.9673 C   0  0  0  0  0  0  0  0  0  0  0  0
  -14.7388   19.2946  -16.1295 C   0  0  2  0  0  0  0  0  0  0  0  0
  -14.1338   20.6570  -15.5767 C   0  0  0  0  0  0  0  0  0  0  0  0
  -15.6369   22.0639  -18.3118 C   0  0  0  0  0  0  0  0  0  0  0  0
  -16.2384   23.2493  -20.4848 C   0  0  2  0  0  0  0  0  0  0  0  0
  -12.2389   23.1480  -16.0902 C   0  0  2  0  0  0  0  0  0  0  0  0
   -9.8923   23.6535  -15.5343 C   0  0  0  0  0  0  0  0  0  0  0  0
  -12.6107   24.6204  -15.8794 C   0  0  0  0  0  0  0  0  0  0  0  0
  -14.0913   24.7469  -15.3945 C   0  0  0  0  0  0  0  0  0  0  0  0
  -13.6752   15.4575  -15.1414 C   0  0  0  0  0  0  0  0  0  0  0  0
  -13.9583   14.8414  -13.7643 C   0  0  0  0  0  0  0  0  0  0  0  0
  -13.6089   12.4393  -14.9104 C   0  0  0  0  0  0  0  0  0  0  0  0
  -13.3131   13.0512  -16.2606 C   0  0  0  0  0  0  0  0  0  0  0  0
  -13.0393   12.2978  -11.7524 C   0  0  0  0  0  0  0  0  0  0  0  0
  -12.8297   17.2398  -19.1113 C   0  0  0  0  0  0  0  0  0  0  0  0
  -17.7064   23.5903  -20.5099 C   0  0  0  0  0  0  0  0  0  0  0  0
  -20.3481   23.7194  -23.6283 C   0  0  2  0  0  0  0  0  0  0  0  0
  -20.9002   22.3260  -23.9211 C   0  0  0  0  0  0  0  0  0  0  0  0
  -21.8578   23.5252  -23.8201 C   0  0  0  0  0  0  0  0  0  0  0  0
  -19.5614   24.4526  -24.7409 C   0  0  0  0  0  0  0  0  0  0  0  0
  -15.4355   24.5701  -20.3099 C   0  0  2  0  0  0  0  0  0  0  0  0
  -15.7995   26.0525  -20.1842 C   0  0  0  0  0  0  0  0  0  0  0  0
  -15.4500   26.8612  -19.1581 C   0  0  0  0  0  0  0  0  0  0  0  0
  -14.6174   26.3771  -17.9501 C   0  0  0  0  0  0  0  0  0  0  0  0
  -15.4312   26.5353  -16.6451 C   0  0  0  0  0  0  0  0  0  0  0  0
  -15.5609   23.9217  -21.6942 C   0  0  0  0  0  0  0  0  0  0  0  0
  -14.5123   26.2502  -15.4157 C   0  0  0  0  0  0  0  0  0  0  0  0
   -7.8212   23.7323  -18.1151 C   0  0  1  0  0  0  0  0  0  0  0  0
   -6.8493   22.5700  -17.8757 C   0  0  0  0  0  0  0  0  0  0  0  0
   -8.3192   22.2827  -18.2200 C   0  0  0  0  0  0  0  0  0  0  0  0
   -7.6240   24.5019  -19.4443 C   0  0  2  0  0  0  0  0  0  0  0  0
   -7.8247   25.8383  -19.2032 F   0  0  0  0  0  0  0  0  0  0  0  0
   -8.5207   24.0559  -20.3500 F   0  0  0  0  0  0  0  0  0  0  0  0
   -6.3450   24.2341  -19.8654 F   0  0  0  0  0  0  0  0  0  0  0  0
  -14.0071   21.4596  -16.9563 N   0  0  0  0  0  0  0  0  0  0  0  0
  -15.7623   22.0846  -19.7376 N   0  0  0  0  0  0  0  0  0  0  0  0
  -10.8623   23.1104  -16.4499 N   0  0  0  0  0  0  0  0  0  0  0  0
  -13.7240   16.9090  -15.2370 N   0  0  0  0  0  0  0  0  0  0  0  0
  -13.0845   15.1454  -17.6800 N   0  0  0  0  0  0  0  0  0  0  0  0
  -18.2952   23.5429  -21.8054 N   0  0  0  0  0  0  0  0  0  0  0  0
  -16.0511   22.9234  -17.5978 O   0  0  0  0  0  0  0  0  0  0  0  0
  -13.0937   23.1088  -18.2838 O   0  0  0  0  0  0  0  0  0  0  0  0
   -8.5520   23.5054  -15.9289 O   0  0  0  0  0  0  0  0  0  0  0  0
  -10.1981   24.2082  -14.5104 O   0  0  0  0  0  0  0  0  0  0  0  0
  -13.4933   18.8106  -16.7042 O   0  0  0  0  0  0  0  0  0  0  0  0
  -14.1736   12.7051  -12.4751 O   0  0  0  0  0  0  0  0  0  0  0  0
  -18.3559   23.9549  -19.5694 O   0  0  0  0  0  0  0  0  0  0  0  0
  -20.2513   25.2884  -21.4239 O   0  0  0  0  0  0  0  0  0  0  0  0
  -20.6925   22.9583  -21.1764 O   0  0  0  0  0  0  0  0  0  0  0  0
  -19.8832   23.9459  -21.8976 S   0  0  1  0  0  0  0  0  0  0  0  0
   -7.3178   25.0793  -16.4755 H   0  0  0  0  0  0  0  0  0  0  0  0
   -8.9818   25.2473  -17.0124 H   0  0  0  0  0  0  0  0  0  0  0  0
  -14.6212   20.2673  -18.7003 H   0  0  0  0  0  0  0  0  0  0  0  0
  -16.5623   20.0970  -16.4234 H   0  0  0  0  0  0  0  0  0  0  0  0
  -16.1112   18.8805  -17.5861 H   0  0  0  0  0  0  0  0  0  0  0  0
  -15.2204   18.5312  -15.5008 H   0  0  0  0  0  0  0  0  0  0  0  0
  -14.8165   21.1546  -14.8723 H   0  0  0  0  0  0  0  0  0  0  0  0
  -13.2014   20.5591  -15.0014 H   0  0  0  0  0  0  0  0  0  0  0  0
  -12.3923   22.5356  -15.1894 H   0  0  0  0  0  0  0  0  0  0  0  0
  -11.9432   25.0576  -15.1223 H   0  0  0  0  0  0  0  0  0  0  0  0
  -12.5022   25.1551  -16.8346 H   0  0  0  0  0  0  0  0  0  0  0  0
  -14.7479   24.1716  -16.0637 H   0  0  0  0  0  0  0  0  0  0  0  0
  -14.1798   24.3528  -14.3713 H   0  0  0  0  0  0  0  0  0  0  0  0
  -14.1790   15.4619  -12.8832 H   0  0  0  0  0  0  0  0  0  0  0  0
  -13.6036   11.3445  -14.8037 H   0  0  0  0  0  0  0  0  0  0  0  0
  -13.0782   12.4257  -17.1344 H   0  0  0  0  0  0  0  0  0  0  0  0
  -13.2453   12.3718  -10.6744 H   0  0  0  0  0  0  0  0  0  0  0  0
  -12.7959   11.2562  -12.0086 H   0  0  0  0  0  0  0  0  0  0  0  0
  -12.1889   12.9468  -12.0086 H   0  0  0  0  0  0  0  0  0  0  0  0
  -12.3941   18.2356  -18.9420 H   0  0  0  0  0  0  0  0  0  0  0  0
  -12.1200   16.6211  -19.6801 H   0  0  0  0  0  0  0  0  0  0  0  0
  -13.7658   17.3409  -19.6801 H   0  0  0  0  0  0  0  0  0  0  0  0
  -20.7116   21.8537  -24.8965 H   0  0  0  0  0  0  0  0  0  0  0  0
  -20.8305   21.3435  -23.4315 H   0  0  0  0  0  0  0  0  0  0  0  0
  -22.5386   23.6158  -22.9609 H   0  0  0  0  0  0  0  0  0  0  0  0
  -22.6246   23.9682  -24.4725 H   0  0  0  0  0  0  0  0  0  0  0  0
  -18.8294   25.1348  -24.2837 H   0  0  0  0  0  0  0  0  0  0  0  0
  -19.0353   23.7152  -25.3649 H   0  0  0  0  0  0  0  0  0  0  0  0
  -20.2600   25.0292  -25.3649 H   0  0  0  0  0  0  0  0  0  0  0  0
  -14.7223   24.8296  -19.5136 H   0  0  0  0  0  0  0  0  0  0  0  0
  -16.3947   26.4962  -20.9958 H   0  0  0  0  0  0  0  0  0  0  0  0
  -15.7734   27.9123  -19.1849 H   0  0  0  0  0  0  0  0  0  0  0  0
  -14.3562   25.3177  -18.0896 H   0  0  0  0  0  0  0  0  0  0  0  0
  -13.7018   26.9825  -17.8786 H   0  0  0  0  0  0  0  0  0  0  0  0
  -15.8219   27.5615  -16.5797 H   0  0  0  0  0  0  0  0  0  0  0  0
  -16.2681   25.8215  -16.6483 H   0  0  0  0  0  0  0  0  0  0  0  0
  -14.6824   23.4523  -22.1609 H   0  0  0  0  0  0  0  0  0  0  0  0
  -15.9052   24.2656  -22.6807 H   0  0  0  0  0  0  0  0  0  0  0  0
  -15.0585   26.4877  -14.4909 H   0  0  0  0  0  0  0  0  0  0  0  0
  -13.6098   26.8748  -15.4895 H   0  0  0  0  0  0  0  0  0  0  0  0
   -6.0599   22.3530  -18.6105 H   0  0  0  0  0  0  0  0  0  0  0  0
   -6.1705   22.2793  -17.0604 H   0  0  0  0  0  0  0  0  0  0  0  0
   -8.9947   21.8761  -17.4529 H   0  0  0  0  0  0  0  0  0  0  0  0
   -8.8374   21.6913  -18.9892 H   0  0  0  0  0  0  0  0  0  0  0  0
  -15.5046   21.2375  -20.2638 H   0  0  0  0  0  0  0  0  0  0  0  0
  -10.5654   22.7025  -17.3479 H   0  0  0  0  0  0  0  0  0  0  0  0
  -17.7543   23.2708  -22.6387 H   0  0  0  0  0  0  0  0  0  0  0  0
  1 13  1  0
  1 42  1  0
  1 49  2  0
 35  2  1  1
  2 50  1  0
  3  5  2  0
  3 45  1  0
  3 52  1  0
  4 17  1  0
  4 20  1  0
  4 46  2  0
  5 22  1  0
  5 46  1  0
  6 18  2  0
  6 19  1  0
  6 53  1  0
  7  8  1  0
  7 11  1  0
  7 42  1  0
  8  9  1  0
  9 10  1  0
  9 52  1  0
 10 42  1  0
 11 43  1  0
 11 48  2  0
 12 23  1  6
 12 28  1  0
 12 33  1  0
 12 43  1  0
 13 15  1  0
 13 44  1  0
 14 44  1  0
 14 50  1  0
 14 51  2  0
 15 16  1  0
 16 34  1  0
 17 18  1  0
 17 45  2  0
 19 20  2  0
 21 53  1  0
 23 47  1  0
 23 54  2  0
 24 25  1  0
 24 26  1  0
 24 27  1  6
 24 57  1  0
 25 26  1  0
 28 29  1  0
 28 33  1  0
 29 30  2  3
 30 31  1  0
 31 32  1  0
 32 34  1  0
 35 36  1  0
 35 37  1  0
 35 38  1  0
 36 37  1  0
 38 39  1  1
 38 40  1  0
 38 41  1  0
 57 47  1  6
 55 57  2  0
 56 57  2  0
  2 58  1  0
  2 59  1  0
  7 60  1  6
  8 61  1  0
  8 62  1  0
  9 63  1  1
 10 64  1  0
 10 65  1  0
 13 66  1  1
 15 67  1  0
 15 68  1  0
 16 69  1  0
 16 70  1  0
 18 71  1  0
 19 72  1  0
 20 73  1  0
 21 74  1  0
 21 75  1  0
 21 76  1  0
 22 77  1  0
 22 78  1  0
 22 79  1  0
 25 80  1  0
 25 81  1  0
 26 82  1  0
 26 83  1  0
 27 84  1  0
 27 85  1  0
 27 86  1  0
 28 87  1  1
 29 88  1  0
 30 89  1  0
 31 90  1  0
 31 91  1  0
 32 92  1  0
 32 93  1  0
 33 94  1  0
 33 95  1  0
 34 96  1  0
 34 97  1  0
 36 98  1  0
 36 99  1  0
 37100  1  0
 37101  1  0
 43102  1  0
 44103  1  0
 47104  1  0
M  END
>  <filename_input>  (4) 
7MMH_ZJY_docked.sdf

>  <pdb_id>  (4) 
7MMH_ZJY

>  <pose_rank>  (4) 
3

>  <num_atoms_heavy>  (4) 
57

>  <num_torsions>  (4) 
11

>  <pose>  (4) 
[-13.128763690713475, 22.59829141651661, -17.211055866048778, 0.5982496731998034, -3.525909022282733, 0.24312127129704764, -33.14641324933529, -20.66418751009815, 1.51089824627378, -2.160881138786521, 0.9927500875147868, -1.980954647625586, -0.07624982513581258, -1.898332811500948, -44.36698928997921, -38.260166296908935, -8.031085433303629]

>  <energy>  (4) 
-671.4430860168629

>  <inter_energy>  (4) 
-695.1416621475175

>  <intra_energy>  (4) 
45.188412883320154

>  <rmsd>  (4) 
9.11222

>  <sdf_rank>  (4) 
0

$$$$

     RDKit          3D

104110  0  0  0  0  0  0  0  0999 V2000
  -14.9226   21.7009  -17.3227 C   0  0  0  0  0  0  0  0  0  0  0  0
   -9.6396   22.3535  -18.1690 C   0  0  0  0  0  0  0  0  0  0  0  0
  -12.9630   17.0396  -16.4488 C   0  0  0  0  0  0  0  0  0  0  0  0
  -12.2748   14.3158  -16.9245 C   0  0  0  0  0  0  0  0  0  0  0  0
  -12.3189   16.6019  -17.7700 C   0  0  0  0  0  0  0  0  0  0  0  0
  -12.8580   12.2871  -14.7646 C   0  0  0  0  0  0  0  0  0  0  0  0
  -15.7969   19.2940  -16.9816 C   0  0  1  0  0  0  0  0  0  0  0  0
  -15.6371   18.2075  -15.7743 C   0  0  0  0  0  0  0  0  0  0  0  0
  -14.4026   18.4633  -15.3420 C   0  0  2  0  0  0  0  0  0  0  0  0
  -14.3642   20.0482  -15.2235 C   0  0  0  0  0  0  0  0  0  0  0  0
  -17.0954   19.9500  -17.2853 C   0  0  0  0  0  0  0  0  0  0  0  0
  -18.8031   20.1631  -19.1634 C   0  0  2  0  0  0  0  0  0  0  0  0
  -14.0981   22.8382  -16.7084 C   0  0  2  0  0  0  0  0  0  0  0  0
  -11.6906   22.8892  -17.2299 C   0  0  0  0  0  0  0  0  0  0  0  0
  -15.0275   24.0446  -16.5310 C   0  0  0  0  0  0  0  0  0  0  0  0
  -16.1724   23.7094  -15.5209 C   0  0  0  0  0  0  0  0  0  0  0  0
  -12.9294   14.7486  -15.6151 C   0  0  0  0  0  0  0  0  0  0  0  0
  -13.2353   13.7502  -14.4900 C   0  0  0  0  0  0  0  0  0  0  0  0
  -12.2145   11.8435  -16.0802 C   0  0  0  0  0  0  0  0  0  0  0  0
  -11.8989   12.8333  -17.1782 C   0  0  0  0  0  0  0  0  0  0  0  0
  -12.8682   10.0151  -14.1520 C   0  0  0  0  0  0  0  0  0  0  0  0
  -12.0209   17.6385  -18.8515 C   0  0  0  0  0  0  0  0  0  0  0  0
  -20.1912   19.8821  -18.6475 C   0  0  0  0  0  0  0  0  0  0  0  0
  -23.6530   19.0705  -20.6648 C   0  0  2  0  0  0  0  0  0  0  0  0
  -25.1361   18.8369  -20.3860 C   0  0  0  0  0  0  0  0  0  0  0  0
  -24.6590   20.2036  -20.9052 C   0  0  0  0  0  0  0  0  0  0  0  0
  -23.0156   18.3889  -21.8991 C   0  0  0  0  0  0  0  0  0  0  0  0
  -18.6949   21.6858  -19.4631 C   0  0  2  0  0  0  0  0  0  0  0  0
  -19.6482   22.8807  -19.3675 C   0  0  0  0  0  0  0  0  0  0  0  0
  -19.4225   24.0085  -18.6560 C   0  0  0  0  0  0  0  0  0  0  0  0
  -18.1395   24.2385  -17.8266 C   0  0  0  0  0  0  0  0  0  0  0  0
  -18.4961   24.4159  -16.3328 C   0  0  0  0  0  0  0  0  0  0  0  0
  -18.9167   20.6886  -20.6072 C   0  0  0  0  0  0  0  0  0  0  0  0
  -17.2272   24.8605  -15.5394 C   0  0  0  0  0  0  0  0  0  0  0  0
   -8.4132   23.2461  -17.9555 C   0  0  1  0  0  0  0  0  0  0  0  0
   -7.8232   23.8116  -19.2536 C   0  0  0  0  0  0  0  0  0  0  0  0
   -8.5641   24.7404  -18.2789 C   0  0  0  0  0  0  0  0  0  0  0  0
   -7.3812   22.8672  -16.8650 C   0  0  2  0  0  0  0  0  0  0  0  0
   -6.2104   22.5078  -17.4848 F   0  0  0  0  0  0  0  0  0  0  0  0
   -7.8603   21.8302  -16.1450 F   0  0  0  0  0  0  0  0  0  0  0  0
   -7.2306   23.9744  -16.0673 F   0  0  0  0  0  0  0  0  0  0  0  0
  -15.0482   20.4263  -16.6209 N   0  0  0  0  0  0  0  0  0  0  0  0
  -17.6402   19.5296  -18.5405 N   0  0  0  0  0  0  0  0  0  0  0  0
  -13.0433   23.2450  -17.5731 N   0  0  0  0  0  0  0  0  0  0  0  0
  -13.2915   16.1385  -15.3795 N   0  0  0  0  0  0  0  0  0  0  0  0
  -11.9733   15.2318  -18.0116 N   0  0  0  0  0  0  0  0  0  0  0  0
  -21.1413   19.5769  -19.6631 N   0  0  0  0  0  0  0  0  0  0  0  0
  -17.6234   20.7386  -16.5647 O   0  0  0  0  0  0  0  0  0  0  0  0
  -15.4546   21.8703  -18.3720 O   0  0  0  0  0  0  0  0  0  0  0  0
  -10.7190   23.2592  -18.1750 O   0  0  0  0  0  0  0  0  0  0  0  0
  -11.4017   22.3285  -16.2045 O   0  0  0  0  0  0  0  0  0  0  0  0
  -13.3146   18.3677  -16.3027 O   0  0  0  0  0  0  0  0  0  0  0  0
  -13.1224   11.3486  -13.7887 O   0  0  0  0  0  0  0  0  0  0  0  0
  -20.5437   19.9711  -17.5042 O   0  0  0  0  0  0  0  0  0  0  0  0
  -23.2826   20.3267  -18.2951 O   0  0  0  0  0  0  0  0  0  0  0  0
  -22.7594   18.0077  -18.4782 O   0  0  0  0  0  0  0  0  0  0  0  0
  -22.6794   19.3028  -19.1612 S   0  0  1  0  0  0  0  0  0  0  0  0
   -9.5723   21.8180  -19.1275 H   0  0  0  0  0  0  0  0  0  0  0  0
   -9.7403   21.5777  -17.3957 H   0  0  0  0  0  0  0  0  0  0  0  0
  -15.5331   18.6618  -17.8423 H   0  0  0  0  0  0  0  0  0  0  0  0
  -16.3821   18.3754  -14.9825 H   0  0  0  0  0  0  0  0  0  0  0  0
  -15.7931   17.1649  -16.0884 H   0  0  0  0  0  0  0  0  0  0  0  0
  -14.2591   17.7757  -14.4954 H   0  0  0  0  0  0  0  0  0  0  0  0
  -14.9508   20.4112  -14.3667 H   0  0  0  0  0  0  0  0  0  0  0  0
  -13.3686   20.4839  -15.0533 H   0  0  0  0  0  0  0  0  0  0  0  0
  -13.6694   22.4860  -15.7586 H   0  0  0  0  0  0  0  0  0  0  0  0
  -14.4459   24.8967  -16.1493 H   0  0  0  0  0  0  0  0  0  0  0  0
  -15.4740   24.2960  -17.5044 H   0  0  0  0  0  0  0  0  0  0  0  0
  -16.6543   22.7642  -15.8115 H   0  0  0  0  0  0  0  0  0  0  0  0
  -15.7540   23.6080  -14.5087 H   0  0  0  0  0  0  0  0  0  0  0  0
  -13.6976   14.0643  -13.5426 H   0  0  0  0  0  0  0  0  0  0  0  0
  -11.9763   10.7802  -16.2304 H   0  0  0  0  0  0  0  0  0  0  0  0
  -11.4227   12.5152  -18.1174 H   0  0  0  0  0  0  0  0  0  0  0  0
  -12.7516    9.4039  -13.2449 H   0  0  0  0  0  0  0  0  0  0  0  0
  -13.7092    9.6307  -14.7477 H   0  0  0  0  0  0  0  0  0  0  0  0
  -11.9447    9.9671  -14.7477 H   0  0  0  0  0  0  0  0  0  0  0  0
  -11.7464   18.5931  -18.3788 H   0  0  0  0  0  0  0  0  0  0  0  0
  -11.1876   17.2863  -19.4773 H   0  0  0  0  0  0  0  0  0  0  0  0
  -12.9140   17.7827  -19.4773 H   0  0  0  0  0  0  0  0  0  0  0  0
  -25.7208   18.1737  -21.0405 H   0  0  0  0  0  0  0  0  0  0  0  0
  -25.7197   18.4955  -19.5183 H   0  0  0  0  0  0  0  0  0  0  0  0
  -24.6708   21.0802  -20.2408 H   0  0  0  0  0  0  0  0  0  0  0  0
  -24.9189   20.8481  -21.7579 H   0  0  0  0  0  0  0  0  0  0  0  0
  -22.2995   17.6232  -21.5662 H   0  0  0  0  0  0  0  0  0  0  0  0
  -23.8031   17.9161  -22.5043 H   0  0  0  0  0  0  0  0  0  0  0  0
  -22.4911   19.1430  -22.5043 H   0  0  0  0  0  0  0  0  0  0  0  0
  -17.9810   22.4101  -19.0441 H   0  0  0  0  0  0  0  0  0  0  0  0
  -20.5950   22.8163  -19.9237 H   0  0  0  0  0  0  0  0  0  0  0  0
  -20.1878   24.7985  -18.6684 H   0  0  0  0  0  0  0  0  0  0  0  0
  -17.4724   23.3713  -17.9407 H   0  0  0  0  0  0  0  0  0  0  0  0
  -17.6367   25.1481  -18.1868 H   0  0  0  0  0  0  0  0  0  0  0  0
  -19.2781   25.1830  -16.2319 H   0  0  0  0  0  0  0  0  0  0  0  0
  -18.8626   23.4605  -15.9292 H   0  0  0  0  0  0  0  0  0  0  0  0
  -18.1084   20.4920  -21.3269 H   0  0  0  0  0  0  0  0  0  0  0  0
  -19.6611   20.5868  -21.4107 H   0  0  0  0  0  0  0  0  0  0  0  0
  -17.5128   25.1083  -14.5064 H   0  0  0  0  0  0  0  0  0  0  0  0
  -16.7880   25.7420  -16.0293 H   0  0  0  0  0  0  0  0  0  0  0  0
   -6.7328   23.8952  -19.3714 H   0  0  0  0  0  0  0  0  0  0  0  0
   -7.9202   23.5691  -20.3222 H   0  0  0  0  0  0  0  0  0  0  0  0
   -9.5494   25.1483  -18.5488 H   0  0  0  0  0  0  0  0  0  0  0  0
   -8.3189   25.6781  -17.7587 H   0  0  0  0  0  0  0  0  0  0  0  0
  -17.1915   18.7421  -19.0296 H   0  0  0  0  0  0  0  0  0  0  0  0
  -13.2435   23.7836  -18.4279 H   0  0  0  0  0  0  0  0  0  0  0  0
  -20.8778   19.5306  -20.6577 H   0  0  0  0  0  0  0  0  0  0  0  0
  1 13  1  0
  1 42  1  0
  1 49  2  0
 35  2  1  6
  2 50  1  0
  3  5  2  0
  3 45  1  0
  3 52  1  0
  4 17  1  0
  4 20  1  0
  4 46  2  0
  5 22  1  0
  5 46  1  0
  6 18  2  0
  6 19  1  0
  6 53  1  0
  7  8  1  0
  7 11  1  0
  7 42  1  0
  8  9  1  0
  9 10  1  0
  9 52  1  0
 10 42  1  0
 11 43  1  0
 11 48  2  0
 12 23  1  1
 12 28  1  0
 12 33  1  0
 12 43  1  0
 13 15  1  0
 13 44  1  0
 14 44  1  0
 14 50  1  0
 14 51  2  0
 15 16  1  0
 16 34  1  0
 17 18  1  0
 17 45  2  0
 19 20  2  0
 21 53  1  0
 23 47  1  0
 23 54  2  0
 24 25  1  0
 24 26  1  0
 24 27  1  6
 24 57  1  0
 25 26  1  0
 28 29  1  0
 28 33  1  0
 29 30  2  3
 30 31  1  0
 31 32  1  0
 32 34  1  0
 35 36  1  0
 35 37  1  0
 35 38  1  0
 36 37  1  0
 38 39  1  6
 38 40  1  0
 38 41  1  0
 57 47  1  6
 55 57  2  0
 56 57  2  0
  2 58  1  0
  2 59  1  0
  7 60  1  6
  8 61  1  0
  8 62  1  0
  9 63  1  1
 10 64  1  0
 10 65  1  0
 13 66  1  1
 15 67  1  0
 15 68  1  0
 16 69  1  0
 16 70  1  0
 18 71  1  0
 19 72  1  0
 20 73  1  0
 21 74  1  0
 21 75  1  0
 21 76  1  0
 22 77  1  0
 22 78  1  0
 22 79  1  0
 25 80  1  0
 25 81  1  0
 26 82  1  0
 26 83  1  0
 27 84  1  0
 27 85  1  0
 27 86  1  0
 28 87  1  6
 29 88  1  0
 30 89  1  0
 31 90  1  0
 31 91  1  0
 32 92  1  0
 32 93  1  0
 33 94  1  0
 33 95  1  0
 34 96  1  0
 34 97  1  0
 36 98  1  0
 36 99  1  0
 37100  1  0
 37101  1  0
 43102  1  0
 44103  1  0
 47104  1  0
M  END
>  <filename_input>  (5) 
7MMH_ZJY_docked.sdf

>  <pdb_id>  (5) 
7MMH_ZJY

>  <pose_rank>  (5) 
4

>  <num_atoms_heavy>  (5) 
57

>  <num_torsions>  (5) 
11

>  <pose>  (5) 
[-14.922569431524375, 21.70094112300916, -17.322745396915025, 1.298268826142402, -2.9208179919322848, 0.25780596758456625, -0.40569023349898775, 0.4332878051733691, 1.3786846018456558, 3.469711941433295, -3.334371775763007, -2.2435798669483216, -0.19126572019522897, -0.3355906025315533, 0.08342664036731963, -0.1231831377625859, -3.2485078073790303]

>  <energy>  (5) 
-731.472925313562

>  <inter_energy>  (5) 
-745.878035516587

>  <intra_energy>  (5) 
22.81012112846973

>  <rmsd>  (5) 
9.32362

>  <sdf_rank>  (5) 
0

$$$$

     RDKit          3D

104110  0  0  0  0  0  0  0  0999 V2000
  -13.1246   20.5741  -17.0131 C   0  0  0  0  0  0  0  0  0  0  0  0
   -8.9010   24.2074  -16.0294 C   0  0  0  0  0  0  0  0  0  0  0  0
  -12.8992   16.3570  -14.6238 C   0  0  0  0  0  0  0  0  0  0  0  0
  -12.5726   13.5323  -14.8064 C   0  0  0  0  0  0  0  0  0  0  0  0
  -13.6244   15.4094  -13.6605 C   0  0  0  0  0  0  0  0  0  0  0  0
  -10.7424   12.4315  -16.9417 C   0  0  0  0  0  0  0  0  0  0  0  0
  -14.3632   18.3188  -16.7804 C   0  0  1  0  0  0  0  0  0  0  0  0
  -15.1781   17.6124  -15.5554 C   0  0  0  0  0  0  0  0  0  0  0  0
  -14.4855   18.0277  -14.4951 C   0  0  2  0  0  0  0  0  0  0  0  0
  -14.2945   19.5846  -14.7543 C   0  0  0  0  0  0  0  0  0  0  0  0
  -15.0493   18.8123  -18.0029 C   0  0  0  0  0  0  0  0  0  0  0  0
  -15.1034   18.4316  -20.5210 C   0  0  2  0  0  0  0  0  0  0  0  0
  -12.7253   21.8692  -16.2964 C   0  0  2  0  0  0  0  0  0  0  0  0
  -10.7235   22.9473  -15.3470 C   0  0  0  0  0  0  0  0  0  0  0  0
  -13.3584   23.0385  -17.0596 C   0  0  0  0  0  0  0  0  0  0  0  0
  -14.9179   22.9461  -17.0068 C   0  0  0  0  0  0  0  0  0  0  0  0
  -11.8390   14.4759  -15.7561 C   0  0  0  0  0  0  0  0  0  0  0  0
  -10.9064   13.9562  -16.8590 C   0  0  0  0  0  0  0  0  0  0  0  0
  -11.4634   11.4802  -15.9842 C   0  0  0  0  0  0  0  0  0  0  0  0
  -12.3948   11.9958  -14.9111 C   0  0  0  0  0  0  0  0  0  0  0  0
   -8.7920   12.7094  -18.2285 C   0  0  0  0  0  0  0  0  0  0  0  0
  -14.5543   15.9776  -12.5901 C   0  0  0  0  0  0  0  0  0  0  0  0
  -16.5220   18.2458  -20.9952 C   0  0  0  0  0  0  0  0  0  0  0  0
  -18.3239   18.2688  -24.0791 C   0  0  2  0  0  0  0  0  0  0  0  0
  -17.8605   17.6489  -25.3956 C   0  0  0  0  0  0  0  0  0  0  0  0
  -19.3631   17.8087  -25.1096 C   0  0  0  0  0  0  0  0  0  0  0  0
  -18.1311   19.7897  -23.8688 C   0  0  0  0  0  0  0  0  0  0  0  0
  -14.6017   19.8169  -21.0202 C   0  0  2  0  0  0  0  0  0  0  0  0
  -15.2021   20.9519  -21.8551 C   0  0  0  0  0  0  0  0  0  0  0  0
  -15.3178   22.2398  -21.4591 C   0  0  0  0  0  0  0  0  0  0  0  0
  -14.8466   22.7411  -20.0758 C   0  0  0  0  0  0  0  0  0  0  0  0
  -16.0444   23.3064  -19.2782 C   0  0  0  0  0  0  0  0  0  0  0  0
  -14.1867   18.5360  -21.7548 C   0  0  0  0  0  0  0  0  0  0  0  0
  -15.5285   24.0034  -17.9800 C   0  0  0  0  0  0  0  0  0  0  0  0
   -8.3923   23.7258  -17.3916 C   0  0  1  0  0  0  0  0  0  0  0  0
   -9.4460   23.7863  -18.5047 C   0  0  0  0  0  0  0  0  0  0  0  0
   -8.2683   24.7736  -18.5083 C   0  0  0  0  0  0  0  0  0  0  0  0
   -7.4253   22.5181  -17.4552 C   0  0  2  0  0  0  0  0  0  0  0  0
   -6.6060   22.6780  -18.5449 F   0  0  0  0  0  0  0  0  0  0  0  0
   -8.1450   21.3824  -17.5808 F   0  0  0  0  0  0  0  0  0  0  0  0
   -6.7266   22.5135  -16.2735 F   0  0  0  0  0  0  0  0  0  0  0  0
  -13.8595   19.5366  -16.2944 N   0  0  0  0  0  0  0  0  0  0  0  0
  -14.7203   18.0418  -19.1635 N   0  0  0  0  0  0  0  0  0  0  0  0
  -11.3160   22.0666  -16.3204 N   0  0  0  0  0  0  0  0  0  0  0  0
  -11.9977   15.9190  -15.6527 N   0  0  0  0  0  0  0  0  0  0  0  0
  -13.4603   13.9882  -13.7500 N   0  0  0  0  0  0  0  0  0  0  0  0
  -16.6586   17.3483  -22.0921 N   0  0  0  0  0  0  0  0  0  0  0  0
  -15.7900   19.7457  -18.0154 O   0  0  0  0  0  0  0  0  0  0  0  0
  -12.8291   20.4272  -18.1549 O   0  0  0  0  0  0  0  0  0  0  0  0
   -9.3213   23.0247  -15.3889 O   0  0  0  0  0  0  0  0  0  0  0  0
  -11.3743   23.5854  -14.5604 O   0  0  0  0  0  0  0  0  0  0  0  0
  -13.0651   17.7175  -14.4493 O   0  0  0  0  0  0  0  0  0  0  0  0
   -9.9061   11.9146  -17.9094 O   0  0  0  0  0  0  0  0  0  0  0  0
  -17.4813   18.8342  -20.5794 O   0  0  0  0  0  0  0  0  0  0  0  0
  -19.2824   17.3345  -21.7256 O   0  0  0  0  0  0  0  0  0  0  0  0
  -18.3055   15.8069  -23.2739 O   0  0  0  0  0  0  0  0  0  0  0  0
  -18.1778   17.1400  -22.6765 S   0  0  1  0  0  0  0  0  0  0  0  0
   -8.0958   24.6958  -15.4609 H   0  0  0  0  0  0  0  0  0  0  0  0
   -9.7053   24.9528  -16.1154 H   0  0  0  0  0  0  0  0  0  0  0  0
  -13.7087   17.4864  -17.0782 H   0  0  0  0  0  0  0  0  0  0  0  0
  -16.2209   17.9601  -15.5145 H   0  0  0  0  0  0  0  0  0  0  0  0
  -15.2513   16.5182  -15.6403 H   0  0  0  0  0  0  0  0  0  0  0  0
  -15.0221   17.6051  -13.6328 H   0  0  0  0  0  0  0  0  0  0  0  0
  -15.2303   20.1440  -14.6082 H   0  0  0  0  0  0  0  0  0  0  0  0
  -13.5874   20.0910  -14.0808 H   0  0  0  0  0  0  0  0  0  0  0  0
  -13.0625   21.8089  -15.2511 H   0  0  0  0  0  0  0  0  0  0  0  0
  -13.0362   23.9859  -16.6027 H   0  0  0  0  0  0  0  0  0  0  0  0
  -13.0347   22.9949  -18.1100 H   0  0  0  0  0  0  0  0  0  0  0  0
  -15.2371   21.9384  -17.3112 H   0  0  0  0  0  0  0  0  0  0  0  0
  -15.2651   23.1434  -15.9819 H   0  0  0  0  0  0  0  0  0  0  0  0
  -10.3860   14.6361  -17.5496 H   0  0  0  0  0  0  0  0  0  0  0  0
  -11.3002   10.3966  -16.0790 H   0  0  0  0  0  0  0  0  0  0  0  0
  -12.9240   11.3099  -14.2333 H   0  0  0  0  0  0  0  0  0  0  0  0
   -8.3097   13.0536  -17.3017 H   0  0  0  0  0  0  0  0  0  0  0  0
   -8.0756   12.1173  -18.8167 H   0  0  0  0  0  0  0  0  0  0  0  0
   -9.1188   13.5796  -18.8167 H   0  0  0  0  0  0  0  0  0  0  0  0
  -14.1574   15.7350  -11.5933 H   0  0  0  0  0  0  0  0  0  0  0  0
  -14.6194   17.0698  -12.7031 H   0  0  0  0  0  0  0  0  0  0  0  0
  -15.5559   15.5370  -12.7031 H   0  0  0  0  0  0  0  0  0  0  0  0
  -17.3763   18.2764  -26.1584 H   0  0  0  0  0  0  0  0  0  0  0  0
  -17.2068   16.8084  -25.6715 H   0  0  0  0  0  0  0  0  0  0  0  0
  -19.9831   16.9225  -24.9089 H   0  0  0  0  0  0  0  0  0  0  0  0
  -20.2099   18.2819  -25.6282 H   0  0  0  0  0  0  0  0  0  0  0  0
  -18.1031   20.0103  -22.7915 H   0  0  0  0  0  0  0  0  0  0  0  0
  -17.1855   20.1070  -24.3327 H   0  0  0  0  0  0  0  0  0  0  0  0
  -18.9676   20.3329  -24.3327 H   0  0  0  0  0  0  0  0  0  0  0  0
  -14.2227   20.6573  -20.4200 H   0  0  0  0  0  0  0  0  0  0  0  0
  -15.5698   20.6984  -22.8604 H   0  0  0  0  0  0  0  0  0  0  0  0
  -15.7682   22.9639  -22.1539 H   0  0  0  0  0  0  0  0  0  0  0  0
  -14.4009   21.9043  -19.5182 H   0  0  0  0  0  0  0  0  0  0  0  0
  -14.1006   23.5371  -20.2167 H   0  0  0  0  0  0  0  0  0  0  0  0
  -16.5832   24.0388  -19.8973 H   0  0  0  0  0  0  0  0  0  0  0  0
  -16.7222   22.4839  -19.0060 H   0  0  0  0  0  0  0  0  0  0  0  0
  -13.1464   18.1832  -21.6958 H   0  0  0  0  0  0  0  0  0  0  0  0
  -14.2492   18.1872  -22.7962 H   0  0  0  0  0  0  0  0  0  0  0  0
  -16.3673   24.5129  -17.4832 H   0  0  0  0  0  0  0  0  0  0  0  0
  -14.7518   24.7343  -18.2493 H   0  0  0  0  0  0  0  0  0  0  0  0
   -9.4957   22.9870  -19.2588 H   0  0  0  0  0  0  0  0  0  0  0  0
  -10.5414   23.8824  -18.5341 H   0  0  0  0  0  0  0  0  0  0  0  0
   -8.4411   25.8371  -18.2868 H   0  0  0  0  0  0  0  0  0  0  0  0
   -7.4878   25.0516  -19.2318 H   0  0  0  0  0  0  0  0  0  0  0  0
  -14.1874   17.1695  -19.0369 H   0  0  0  0  0  0  0  0  0  0  0  0
  -10.7309   21.5888  -17.0207 H   0  0  0  0  0  0  0  0  0  0  0  0
  -15.8486   16.8569  -22.4964 H   0  0  0  0  0  0  0  0  0  0  0  0
  1 13  1  0
  1 42  1  0
  1 49  2  0
 35  2  1  1
  2 50  1  0
  3  5  2  0
  3 45  1  0
  3 52  1  0
  4 17  1  0
  4 20  1  0
  4 46  2  0
  5 22  1  0
  5 46  1  0
  6 18  2  0
  6 19  1  0
  6 53  1  0
  7  8  1  0
  7 11  1  0
  7 42  1  0
  8  9  1  0
  9 10  1  0
  9 52  1  0
 10 42  1  0
 11 43  1  0
 11 48  2  0
 12 23  1  6
 12 28  1  0
 12 33  1  0
 12 43  1  0
 13 15  1  0
 13 44  1  0
 14 44  1  0
 14 50  1  0
 14 51  2  0
 15 16  1  0
 16 34  1  0
 17 18  1  0
 17 45  2  0
 19 20  2  0
 21 53  1  0
 23 47  1  0
 23 54  2  0
 24 25  1  0
 24 26  1  0
 24 27  1  1
 24 57  1  0
 25 26  1  0
 28 29  1  0
 28 33  1  0
 29 30  2  3
 30 31  1  0
 31 32  1  0
 32 34  1  0
 35 36  1  0
 35 37  1  0
 35 38  1  0
 36 37  1  0
 38 39  1  6
 38 40  1  0
 38 41  1  0
 57 47  1  1
 55 57  2  0
 56 57  2  0
  2 58  1  0
  2 59  1  0
  7 60  1  6
  8 61  1  0
  8 62  1  0
  9 63  1  1
 10 64  1  0
 10 65  1  0
 13 66  1  1
 15 67  1  0
 15 68  1  0
 16 69  1  0
 16 70  1  0
 18 71  1  0
 19 72  1  0
 20 73  1  0
 21 74  1  0
 21 75  1  0
 21 76  1  0
 22 77  1  0
 22 78  1  0
 22 79  1  0
 25 80  1  0
 25 81  1  0
 26 82  1  0
 26 83  1  0
 27 84  1  0
 27 85  1  0
 27 86  1  0
 28 87  1  1
 29 88  1  0
 30 89  1  0
 31 90  1  0
 31 91  1  0
 32 92  1  0
 32 93  1  0
 33 94  1  0
 33 95  1  0
 34 96  1  0
 34 97  1  0
 36 98  1  0
 36 99  1  0
 37100  1  0
 37101  1  0
 43102  1  0
 44103  1  0
 47104  1  0
M  END
>  <filename_input>  (6) 
7MMH_ZJY_docked.sdf

>  <pdb_id>  (6) 
7MMH_ZJY

>  <pose_rank>  (6) 
5

>  <num_atoms_heavy>  (6) 
57

>  <num_torsions>  (6) 
11

>  <pose>  (6) 
[-13.124587067168548, 20.574051884098193, -17.013095578704057, -0.8654101224266751, 2.221108092972341, -0.9106093766742586, -1.3162639480596379, -1.4611735495356928, -4.568379572718782, 0.3486943402787663, -1.6204914402305113, -1.9797406651037217, -1.5841109548652648, -1.9649157371831065, 6.839483979965128, 2.491183658190516, 0.5671793399442479]

>  <energy>  (6) 
-664.9028758035214

>  <inter_energy>  (6) 
-758.7757386220125

>  <intra_energy>  (6) 
91.66629410794967

>  <rmsd>  (6) 
8.57005

>  <sdf_rank>  (6) 
0

$$$$

     RDKit          3D

104110  0  0  0  0  0  0  0  0999 V2000
  -13.3926   21.3574  -16.7225 C   0  0  0  0  0  0  0  0  0  0  0  0
   -9.1185   24.2505  -17.4059 C   0  0  0  0  0  0  0  0  0  0  0  0
  -12.5329   16.2808  -15.9203 C   0  0  0  0  0  0  0  0  0  0  0  0
  -11.8441   13.5473  -15.5045 C   0  0  0  0  0  0  0  0  0  0  0  0
  -12.9535   15.5406  -14.6447 C   0  0  0  0  0  0  0  0  0  0  0  0
  -10.2422   12.1280  -17.6353 C   0  0  0  0  0  0  0  0  0  0  0  0
  -14.8258   19.2318  -17.0414 C   0  0  1  0  0  0  0  0  0  0  0  0
  -15.2174   17.9898  -16.0576 C   0  0  0  0  0  0  0  0  0  0  0  0
  -14.1078   17.8607  -15.3305 C   0  0  2  0  0  0  0  0  0  0  0  0
  -13.7577   19.3525  -14.9068 C   0  0  0  0  0  0  0  0  0  0  0  0
  -15.8303   20.2331  -17.4852 C   0  0  0  0  0  0  0  0  0  0  0  0
  -16.9173   21.1250  -19.6093 C   0  0  2  0  0  0  0  0  0  0  0  0
  -12.5244   22.1530  -15.7408 C   0  0  2  0  0  0  0  0  0  0  0  0
  -10.4107   23.4173  -15.6706 C   0  0  0  0  0  0  0  0  0  0  0  0
  -13.1836   23.5226  -15.5398 C   0  0  0  0  0  0  0  0  0  0  0  0
  -14.5918   23.3607  -14.8809 C   0  0  0  0  0  0  0  0  0  0  0  0
  -11.4127   14.2879  -16.7678 C   0  0  0  0  0  0  0  0  0  0  0  0
  -10.6046   13.6006  -17.8772 C   0  0  0  0  0  0  0  0  0  0  0  0
  -10.6591   11.3833  -16.3652 C   0  0  0  0  0  0  0  0  0  0  0  0
  -11.4702   12.0592  -15.2835 C   0  0  0  0  0  0  0  0  0  0  0  0
   -8.5059   12.2335  -19.2200 C   0  0  0  0  0  0  0  0  0  0  0  0
  -13.7710   16.2666  -13.5780 C   0  0  0  0  0  0  0  0  0  0  0  0
  -18.4176   21.1432  -19.4656 C   0  0  0  0  0  0  0  0  0  0  0  0
  -21.2489   22.4078  -21.2609 C   0  0  2  0  0  0  0  0  0  0  0  0
  -21.1939   22.4299  -22.7869 C   0  0  0  0  0  0  0  0  0  0  0  0
  -22.5503   22.3290  -22.0693 C   0  0  0  0  0  0  0  0  0  0  0  0
  -20.9485   23.7157  -20.4904 C   0  0  0  0  0  0  0  0  0  0  0  0
  -16.4087   22.5950  -19.5831 C   0  0  2  0  0  0  0  0  0  0  0  0
  -17.0721   23.9706  -19.4678 C   0  0  0  0  0  0  0  0  0  0  0  0
  -16.7951   24.8977  -18.5229 C   0  0  0  0  0  0  0  0  0  0  0  0
  -15.7462   24.6785  -17.4100 C   0  0  0  0  0  0  0  0  0  0  0  0
  -16.4228   24.7409  -16.0212 C   0  0  0  0  0  0  0  0  0  0  0  0
  -16.5440   21.8495  -20.9168 C   0  0  0  0  0  0  0  0  0  0  0  0
  -15.3314   24.7355  -14.9049 C   0  0  0  0  0  0  0  0  0  0  0  0
   -8.1844   23.4466  -18.3156 C   0  0  1  0  0  0  0  0  0  0  0  0
   -8.8736   22.8685  -19.5581 C   0  0  0  0  0  0  0  0  0  0  0  0
   -7.8780   24.0301  -19.7035 C   0  0  0  0  0  0  0  0  0  0  0  0
   -7.0961   22.5476  -17.6792 C   0  0  2  0  0  0  0  0  0  0  0  0
   -5.9250   22.7316  -18.3713 F   0  0  0  0  0  0  0  0  0  0  0  0
   -7.4847   21.2571  -17.7633 F   0  0  0  0  0  0  0  0  0  0  0  0
   -6.9912   22.9310  -16.3651 F   0  0  0  0  0  0  0  0  0  0  0  0
  -13.9658   20.0759  -16.3199 N   0  0  0  0  0  0  0  0  0  0  0  0
  -16.1167   20.1375  -18.8845 N   0  0  0  0  0  0  0  0  0  0  0  0
  -11.2224   22.3873  -16.2660 N   0  0  0  0  0  0  0  0  0  0  0  0
  -11.7550   15.6877  -16.9721 N   0  0  0  0  0  0  0  0  0  0  0  0
  -12.6067   14.1659  -14.4332 N   0  0  0  0  0  0  0  0  0  0  0  0
  -19.1222   20.7743  -20.6466 N   0  0  0  0  0  0  0  0  0  0  0  0
  -16.3396   21.0275  -16.7575 O   0  0  0  0  0  0  0  0  0  0  0  0
  -13.5911   21.7957  -17.8093 O   0  0  0  0  0  0  0  0  0  0  0  0
   -9.1121   23.5301  -16.1949 O   0  0  0  0  0  0  0  0  0  0  0  0
  -10.8112   24.1429  -14.7974 O   0  0  0  0  0  0  0  0  0  0  0  0
  -12.8593   17.6183  -16.0364 O   0  0  0  0  0  0  0  0  0  0  0  0
   -9.5070   11.4681  -18.5981 O   0  0  0  0  0  0  0  0  0  0  0  0
  -19.0229   21.5043  -18.4948 O   0  0  0  0  0  0  0  0  0  0  0  0
  -21.3548   20.6222  -19.2285 O   0  0  0  0  0  0  0  0  0  0  0  0
  -21.3359   19.8280  -21.4765 O   0  0  0  0  0  0  0  0  0  0  0  0
  -20.7603   20.8167  -20.5592 S   0  0  1  0  0  0  0  0  0  0  0  0
   -8.7368   25.2712  -17.2564 H   0  0  0  0  0  0  0  0  0  0  0  0
  -10.1282   24.3639  -17.8274 H   0  0  0  0  0  0  0  0  0  0  0  0
  -14.4961   18.6735  -17.9301 H   0  0  0  0  0  0  0  0  0  0  0  0
  -16.0840   18.2361  -15.4264 H   0  0  0  0  0  0  0  0  0  0  0  0
  -15.5111   17.0735  -16.5906 H   0  0  0  0  0  0  0  0  0  0  0  0
  -14.3367   17.0529  -14.6198 H   0  0  0  0  0  0  0  0  0  0  0  0
  -14.4491   19.7362  -14.1422 H   0  0  0  0  0  0  0  0  0  0  0  0
  -12.7678   19.4917  -14.4477 H   0  0  0  0  0  0  0  0  0  0  0  0
  -12.4377   21.5795  -14.8062 H   0  0  0  0  0  0  0  0  0  0  0  0
  -12.5472   24.1384  -14.8872 H   0  0  0  0  0  0  0  0  0  0  0  0
  -13.3029   24.0074  -16.5199 H   0  0  0  0  0  0  0  0  0  0  0  0
  -15.1774   22.6180  -15.4425 H   0  0  0  0  0  0  0  0  0  0  0  0
  -14.4762   23.0215  -13.8409 H   0  0  0  0  0  0  0  0  0  0  0  0
  -10.3027   14.1318  -18.7919 H   0  0  0  0  0  0  0  0  0  0  0  0
  -10.3617   10.3321  -16.2365 H   0  0  0  0  0  0  0  0  0  0  0  0
  -11.7818   11.5181  -14.3779 H   0  0  0  0  0  0  0  0  0  0  0  0
   -7.8802   12.7119  -18.4522 H   0  0  0  0  0  0  0  0  0  0  0  0
   -7.8815   11.5803  -19.8472 H   0  0  0  0  0  0  0  0  0  0  0  0
   -8.9725   13.0073  -19.8472 H   0  0  0  0  0  0  0  0  0  0  0  0
  -13.4257   15.9600  -12.5797 H   0  0  0  0  0  0  0  0  0  0  0  0
  -13.6416   17.3529  -13.6931 H   0  0  0  0  0  0  0  0  0  0  0  0
  -14.8344   16.0098  -13.6931 H   0  0  0  0  0  0  0  0  0  0  0  0
  -20.9181   23.3553  -23.3137 H   0  0  0  0  0  0  0  0  0  0  0  0
  -20.6747   21.8377  -23.5547 H   0  0  0  0  0  0  0  0  0  0  0  0
  -23.1227   21.3902  -22.1022 H   0  0  0  0  0  0  0  0  0  0  0  0
  -23.4898   22.9008  -22.0929 H   0  0  0  0  0  0  0  0  0  0  0  0
  -20.9929   23.5224  -19.4085 H   0  0  0  0  0  0  0  0  0  0  0  0
  -19.9442   24.0763  -20.7576 H   0  0  0  0  0  0  0  0  0  0  0  0
  -21.6949   24.4783  -20.7576 H   0  0  0  0  0  0  0  0  0  0  0  0
  -15.6848   23.0496  -18.8909 H   0  0  0  0  0  0  0  0  0  0  0  0
  -17.8375   24.2257  -20.2155 H   0  0  0  0  0  0  0  0  0  0  0  0
  -17.3418   25.8519  -18.5480 H   0  0  0  0  0  0  0  0  0  0  0  0
  -15.2767   23.6925  -17.5418 H   0  0  0  0  0  0  0  0  0  0  0  0
  -14.9833   25.4684  -17.4741 H   0  0  0  0  0  0  0  0  0  0  0  0
  -17.0189   25.6622  -15.9457 H   0  0  0  0  0  0  0  0  0  0  0  0
  -17.0780   23.8663  -15.8951 H   0  0  0  0  0  0  0  0  0  0  0  0
  -15.6422   21.5499  -21.4708 H   0  0  0  0  0  0  0  0  0  0  0  0
  -17.0639   22.0499  -21.8652 H   0  0  0  0  0  0  0  0  0  0  0  0
  -15.8089   24.9084  -13.9291 H   0  0  0  0  0  0  0  0  0  0  0  0
  -14.6018   25.5321  -15.1123 H   0  0  0  0  0  0  0  0  0  0  0  0
   -8.6043   21.8650  -19.9194 H   0  0  0  0  0  0  0  0  0  0  0  0
   -9.9176   22.6969  -19.8591 H   0  0  0  0  0  0  0  0  0  0  0  0
   -8.2392   25.0343  -19.9702 H   0  0  0  0  0  0  0  0  0  0  0  0
   -6.9642   24.2033  -20.2907 H   0  0  0  0  0  0  0  0  0  0  0  0
  -15.7406   19.3336  -19.4071 H   0  0  0  0  0  0  0  0  0  0  0  0
  -10.8675   21.8308  -17.0567 H   0  0  0  0  0  0  0  0  0  0  0  0
  -18.6309   20.4962  -21.5081 H   0  0  0  0  0  0  0  0  0  0  0  0
  1 13  1  0
  1 42  1  0
  1 49  2  0
 35  2  1  1
  2 50  1  0
  3  5  2  0
  3 45  1  0
  3 52  1  0
  4 17  1  0
  4 20  1  0
  4 46  2  0
  5 22  1  0
  5 46  1  0
  6 18  2  0
  6 19  1  0
  6 53  1  0
  7  8  1  0
  7 11  1  0
  7 42  1  0
  8  9  1  0
  9 10  1  0
  9 52  1  0
 10 42  1  0
 11 43  1  0
 11 48  2  0
 12 23  1  6
 12 28  1  0
 12 33  1  0
 12 43  1  0
 13 15  1  0
 13 44  1  0
 14 44  1  0
 14 50  1  0
 14 51  2  0
 15 16  1  0
 16 34  1  0
 17 18  1  0
 17 45  2  0
 19 20  2  0
 21 53  1  0
 23 47  1  0
 23 54  2  0
 24 25  1  0
 24 26  1  0
 24 27  1  1
 24 57  1  0
 25 26  1  0
 28 29  1  0
 28 33  1  0
 29 30  2  3
 30 31  1  0
 31 32  1  0
 32 34  1  0
 35 36  1  0
 35 37  1  0
 35 38  1  0
 36 37  1  0
 38 39  1  6
 38 40  1  0
 38 41  1  0
 57 47  1  1
 55 57  2  0
 56 57  2  0
  2 58  1  0
  2 59  1  0
  7 60  1  6
  8 61  1  0
  8 62  1  0
  9 63  1  1
 10 64  1  0
 10 65  1  0
 13 66  1  1
 15 67  1  0
 15 68  1  0
 16 69  1  0
 16 70  1  0
 18 71  1  0
 19 72  1  0
 20 73  1  0
 21 74  1  0
 21 75  1  0
 21 76  1  0
 22 77  1  0
 22 78  1  0
 22 79  1  0
 25 80  1  0
 25 81  1  0
 26 82  1  0
 26 83  1  0
 27 84  1  0
 27 85  1  0
 27 86  1  0
 28 87  1  1
 29 88  1  0
 30 89  1  0
 31 90  1  0
 31 91  1  0
 32 92  1  0
 32 93  1  0
 33 94  1  0
 33 95  1  0
 34 96  1  0
 34 97  1  0
 36 98  1  0
 36 99  1  0
 37100  1  0
 37101  1  0
 43102  1  0
 44103  1  0
 47104  1  0
M  END
>  <filename_input>  (7) 
7MMH_ZJY_docked.sdf

>  <pdb_id>  (7) 
7MMH_ZJY

>  <pose_rank>  (7) 
6

>  <num_atoms_heavy>  (7) 
57

>  <num_torsions>  (7) 
11

>  <pose>  (7) 
[-13.392589545992125, 21.357430696776017, -16.722502791098115, -0.7851712288248185, 2.695502084713147, -0.159584648864036, -1.9797950713769636, -1.8429993679797227, -5.094558202610793, 0.7579874498220815, -1.3839653075806362, -1.8885166211271491, -1.5656545783723175, -2.1546516641979174, 5.982618949818845, 2.9240651131439486, 0.6554673307216248]

>  <energy>  (7) 
-718.7691209943654

>  <inter_energy>  (7) 
-887.6734485508778

>  <intra_energy>  (7) 
157.10537588789177

>  <rmsd>  (7) 
8.62704

>  <sdf_rank>  (7) 
0

$$$$

     RDKit          3D

104110  0  0  0  0  0  0  0  0999 V2000
  -13.5272   16.2143  -17.9907 C   0  0  0  0  0  0  0  0  0  0  0  0
   -9.7707   13.7543  -19.8202 C   0  0  0  0  0  0  0  0  0  0  0  0
  -11.8444   20.9881  -18.1776 C   0  0  0  0  0  0  0  0  0  0  0  0
  -10.6619   23.3627  -19.2177 C   0  0  0  0  0  0  0  0  0  0  0  0
  -11.7167   22.2533  -17.3204 C   0  0  0  0  0  0  0  0  0  0  0  0
   -9.6709   23.3449  -22.0705 C   0  0  0  0  0  0  0  0  0  0  0  0
  -14.2663   18.1732  -16.4772 C   0  0  1  0  0  0  0  0  0  0  0  0
  -14.6964   19.7184  -16.7793 C   0  0  0  0  0  0  0  0  0  0  0  0
  -13.9074   20.0221  -17.8097 C   0  0  2  0  0  0  0  0  0  0  0  0
  -14.0566   18.7725  -18.7813 C   0  0  0  0  0  0  0  0  0  0  0  0
  -15.2458   17.1599  -16.0056 C   0  0  0  0  0  0  0  0  0  0  0  0
  -15.6949   15.6293  -14.0195 C   0  0  2  0  0  0  0  0  0  0  0  0
  -13.2465   15.7760  -19.4328 C   0  0  2  0  0  0  0  0  0  0  0  0
  -11.4480   14.9402  -20.8949 C   0  0  0  0  0  0  0  0  0  0  0  0
  -14.2136   14.6351  -19.7700 C   0  0  0  0  0  0  0  0  0  0  0  0
  -15.6924   15.1393  -19.7225 C   0  0  0  0  0  0  0  0  0  0  0  0
  -10.8022   22.1080  -20.0760 C   0  0  0  0  0  0  0  0  0  0  0  0
  -10.3046   22.0559  -21.5272 C   0  0  0  0  0  0  0  0  0  0  0  0
   -9.5397   24.6106  -21.2206 C   0  0  0  0  0  0  0  0  0  0  0  0
  -10.0150   24.6517  -19.7863 C   0  0  0  0  0  0  0  0  0  0  0  0
   -7.9953   22.6937  -23.5889 C   0  0  0  0  0  0  0  0  0  0  0  0
  -12.2138   22.2474  -15.8761 C   0  0  0  0  0  0  0  0  0  0  0  0
  -17.1183   15.7825  -13.5478 C   0  0  0  0  0  0  0  0  0  0  0  0
  -19.5113   13.6047  -11.6048 C   0  0  2  0  0  0  0  0  0  0  0  0
  -20.8790   13.4935  -10.9346 C   0  0  0  0  0  0  0  0  0  0  0  0
  -20.7576   13.3428  -12.4602 C   0  0  0  0  0  0  0  0  0  0  0  0
  -18.4998   12.4485  -11.4189 C   0  0  0  0  0  0  0  0  0  0  0  0
  -15.5571   14.2399  -14.7054 C   0  0  2  0  0  0  0  0  0  0  0  0
  -16.4996   13.0618  -14.9690 C   0  0  0  0  0  0  0  0  0  0  0  0
  -16.7741   12.5341  -16.1836 C   0  0  0  0  0  0  0  0  0  0  0  0
  -16.1548   13.0693  -17.4939 C   0  0  0  0  0  0  0  0  0  0  0  0
  -17.2669   13.5807  -18.4382 C   0  0  0  0  0  0  0  0  0  0  0  0
  -15.0577   14.4439  -13.2696 C   0  0  0  0  0  0  0  0  0  0  0  0
  -16.6561   13.9161  -19.8353 C   0  0  0  0  0  0  0  0  0  0  0  0
   -8.3865   13.1909  -20.1565 C   0  0  1  0  0  0  0  0  0  0  0  0
   -7.5549   14.0943  -21.0758 C   0  0  0  0  0  0  0  0  0  0  0  0
   -7.1663   13.9383  -19.5972 C   0  0  0  0  0  0  0  0  0  0  0  0
   -8.2256   11.6694  -20.3955 C   0  0  2  0  0  0  0  0  0  0  0  0
   -9.1243   11.2865  -21.3600 F   0  0  0  0  0  0  0  0  0  0  0  0
   -8.4768   11.0124  -19.2429 F   0  0  0  0  0  0  0  0  0  0  0  0
   -6.9247   11.4701  -20.7862 F   0  0  0  0  0  0  0  0  0  0  0  0
  -13.9133   17.5940  -17.7071 N   0  0  0  0  0  0  0  0  0  0  0  0
  -15.0020   16.7502  -14.6559 N   0  0  0  0  0  0  0  0  0  0  0  0
  -11.9265   15.2629  -19.5754 N   0  0  0  0  0  0  0  0  0  0  0  0
  -11.4180   20.9003  -19.5464 N   0  0  0  0  0  0  0  0  0  0  0  0
  -11.1234   23.4492  -17.8424 N   0  0  0  0  0  0  0  0  0  0  0  0
  -17.3761   15.2062  -12.2716 N   0  0  0  0  0  0  0  0  0  0  0  0
  -16.1343   16.7353  -16.6766 O   0  0  0  0  0  0  0  0  0  0  0  0
  -13.4267   15.4202  -17.1122 O   0  0  0  0  0  0  0  0  0  0  0  0
  -10.1101   14.5156  -20.9562 O   0  0  0  0  0  0  0  0  0  0  0  0
  -12.1400   15.0121  -21.8774 O   0  0  0  0  0  0  0  0  0  0  0  0
  -12.4708   19.8868  -17.6263 O   0  0  0  0  0  0  0  0  0  0  0  0
   -9.2176   23.3528  -23.3734 O   0  0  0  0  0  0  0  0  0  0  0  0
  -18.0165   16.2648  -14.1801 O   0  0  0  0  0  0  0  0  0  0  0  0
  -19.8463   16.1314  -12.5180 O   0  0  0  0  0  0  0  0  0  0  0  0
  -18.9320   15.7911  -10.3425 O   0  0  0  0  0  0  0  0  0  0  0  0
  -18.9206   15.3073  -11.7267 S   0  0  1  0  0  0  0  0  0  0  0  0
  -10.4960   12.9426  -19.6616 H   0  0  0  0  0  0  0  0  0  0  0  0
   -9.7742   14.3480  -18.8942 H   0  0  0  0  0  0  0  0  0  0  0  0
  -13.5369   18.3335  -15.6695 H   0  0  0  0  0  0  0  0  0  0  0  0
  -15.7593   19.7925  -17.0527 H   0  0  0  0  0  0  0  0  0  0  0  0
  -14.5821   20.3906  -15.9162 H   0  0  0  0  0  0  0  0  0  0  0  0
  -14.1881   21.0514  -18.0776 H   0  0  0  0  0  0  0  0  0  0  0  0
  -15.0355   18.7556  -19.2827 H   0  0  0  0  0  0  0  0  0  0  0  0
  -13.3420   18.7376  -19.6169 H   0  0  0  0  0  0  0  0  0  0  0  0
  -13.3672   16.6474  -20.0931 H   0  0  0  0  0  0  0  0  0  0  0  0
  -13.9916   14.2587  -20.7795 H   0  0  0  0  0  0  0  0  0  0  0  0
  -14.0877   13.8314  -19.0296 H   0  0  0  0  0  0  0  0  0  0  0  0
  -15.8722   15.6629  -18.7720 H   0  0  0  0  0  0  0  0  0  0  0  0
  -15.8738   15.8308  -20.5585 H   0  0  0  0  0  0  0  0  0  0  0  0
  -10.3967   21.1484  -22.1420 H   0  0  0  0  0  0  0  0  0  0  0  0
   -9.0893   25.5112  -21.6636 H   0  0  0  0  0  0  0  0  0  0  0  0
   -9.9063   25.5577  -19.1720 H   0  0  0  0  0  0  0  0  0  0  0  0
   -7.5364   22.4463  -22.6203 H   0  0  0  0  0  0  0  0  0  0  0  0
   -8.1727   21.7690  -24.1575 H   0  0  0  0  0  0  0  0  0  0  0  0
   -7.3201   23.3501  -24.1575 H   0  0  0  0  0  0  0  0  0  0  0  0
  -11.3526   22.2576  -15.1919 H   0  0  0  0  0  0  0  0  0  0  0  0
  -12.8340   23.1383  -15.6981 H   0  0  0  0  0  0  0  0  0  0  0  0
  -12.8128   21.3422  -15.6981 H   0  0  0  0  0  0  0  0  0  0  0  0
  -21.1170   12.6178  -10.3129 H   0  0  0  0  0  0  0  0  0  0  0  0
  -21.4690   14.1324  -10.2610 H   0  0  0  0  0  0  0  0  0  0  0  0
  -21.1454   14.1294  -13.1242 H   0  0  0  0  0  0  0  0  0  0  0  0
  -21.0532   12.5792  -13.1947 H   0  0  0  0  0  0  0  0  0  0  0  0
  -18.3421   12.2683  -10.3453 H   0  0  0  0  0  0  0  0  0  0  0  0
  -18.8951   11.5363  -11.8897 H   0  0  0  0  0  0  0  0  0  0  0  0
  -17.5432   12.7191  -11.8897 H   0  0  0  0  0  0  0  0  0  0  0  0
  -15.2341   14.0205  -15.7338 H   0  0  0  0  0  0  0  0  0  0  0  0
  -16.9944   12.6071  -14.0981 H   0  0  0  0  0  0  0  0  0  0  0  0
  -17.4705   11.6846  -16.2413 H   0  0  0  0  0  0  0  0  0  0  0  0
  -15.4676   13.8959  -17.2602 H   0  0  0  0  0  0  0  0  0  0  0  0
  -15.6067   12.2555  -17.9912 H   0  0  0  0  0  0  0  0  0  0  0  0
  -18.0362   12.8027  -18.5525 H   0  0  0  0  0  0  0  0  0  0  0  0
  -17.7200   14.4874  -18.0110 H   0  0  0  0  0  0  0  0  0  0  0  0
  -13.9778   14.4449  -13.0601 H   0  0  0  0  0  0  0  0  0  0  0  0
  -15.2471   13.9462  -12.3071 H   0  0  0  0  0  0  0  0  0  0  0  0
  -17.4673   14.1561  -20.5384 H   0  0  0  0  0  0  0  0  0  0  0  0
  -16.0902   13.0454  -20.1981 H   0  0  0  0  0  0  0  0  0  0  0  0
   -6.9245   13.6497  -21.8600 H   0  0  0  0  0  0  0  0  0  0  0  0
   -7.7758   14.9460  -21.7361 H   0  0  0  0  0  0  0  0  0  0  0  0
   -7.3069   14.7772  -18.8998 H   0  0  0  0  0  0  0  0  0  0  0  0
   -6.2529   13.6447  -19.0592 H   0  0  0  0  0  0  0  0  0  0  0  0
  -14.3040   17.2702  -14.1051 H   0  0  0  0  0  0  0  0  0  0  0  0
  -11.3250   15.1251  -18.7507 H   0  0  0  0  0  0  0  0  0  0  0  0
  -16.6342   14.7509  -11.7210 H   0  0  0  0  0  0  0  0  0  0  0  0
  1 13  1  0
  1 42  1  0
  1 49  2  0
 35  2  1  1
  2 50  1  0
  3  5  2  0
  3 45  1  0
  3 52  1  0
  4 17  1  0
  4 20  1  0
  4 46  2  0
  5 22  1  0
  5 46  1  0
  6 18  2  0
  6 19  1  0
  6 53  1  0
  7  8  1  0
  7 11  1  0
  7 42  1  0
  8  9  1  0
  9 10  1  0
  9 52  1  0
 10 42  1  0
 11 43  1  0
 11 48  2  0
 12 23  1  1
 12 28  1  0
 12 33  1  0
 12 43  1  0
 13 15  1  0
 13 44  1  0
 14 44  1  0
 14 50  1  0
 14 51  2  0
 15 16  1  0
 16 34  1  0
 17 18  1  0
 17 45  2  0
 19 20  2  0
 21 53  1  0
 23 47  1  0
 23 54  2  0
 24 25  1  0
 24 26  1  0
 24 27  1  1
 24 57  1  0
 25 26  1  0
 28 29  1  0
 28 33  1  0
 29 30  2  3
 30 31  1  0
 31 32  1  0
 32 34  1  0
 35 36  1  0
 35 37  1  0
 35 38  1  0
 36 37  1  0
 38 39  1  6
 38 40  1  0
 38 41  1  0
 57 47  1  6
 55 57  2  0
 56 57  2  0
  2 58  1  0
  2 59  1  0
  7 60  1  1
  8 61  1  0
  8 62  1  0
  9 63  1  6
 10 64  1  0
 10 65  1  0
 13 66  1  6
 15 67  1  0
 15 68  1  0
 16 69  1  0
 16 70  1  0
 18 71  1  0
 19 72  1  0
 20 73  1  0
 21 74  1  0
 21 75  1  0
 21 76  1  0
 22 77  1  0
 22 78  1  0
 22 79  1  0
 25 80  1  0
 25 81  1  0
 26 82  1  0
 26 83  1  0
 27 84  1  0
 27 85  1  0
 27 86  1  0
 28 87  1  6
 29 88  1  0
 30 89  1  0
 31 90  1  0
 31 91  1  0
 32 92  1  0
 32 93  1  0
 33 94  1  0
 33 95  1  0
 34 96  1  0
 34 97  1  0
 36 98  1  0
 36 99  1  0
 37100  1  0
 37101  1  0
 43102  1  0
 44103  1  0
 47104  1  0
M  END
>  <filename_input>  (8) 
7MMH_ZJY_docked.sdf

>  <pdb_id>  (8) 
7MMH_ZJY

>  <pose_rank>  (8) 
7

>  <num_atoms_heavy>  (8) 
57

>  <num_torsions>  (8) 
11

>  <pose>  (8) 
[-13.527245831726756, 16.214292329764735, -17.99072058033484, -1.5476766769324457, 0.2880787326286294, -3.3976400681342773, -1.5611048004289165, 3.6586100612286363, 0.27214200433567803, -0.7649293701654007, 1.9292324253156963, -2.3235144868801414, -1.233269060338113, -0.4945579807529452, -7.172541998300251, 4.95228931631674, -1.3456259862565148]

>  <energy>  (8) 
-465.5056107750327

>  <inter_energy>  (8) 
-515.9399170434551

>  <intra_energy>  (8) 
47.21510257177323

>  <rmsd>  (8) 
11.095

>  <sdf_rank>  (8) 
0

$$$$

     RDKit          3D

104110  0  0  0  0  0  0  0  0999 V2000
  -15.8880   14.3696  -15.1070 C   0  0  0  0  0  0  0  0  0  0  0  0
  -19.9403   15.3615  -11.1942 C   0  0  0  0  0  0  0  0  0  0  0  0
  -14.8575   19.4458  -14.8407 C   0  0  0  0  0  0  0  0  0  0  0  0
  -14.7279   22.2714  -15.1845 C   0  0  0  0  0  0  0  0  0  0  0  0
  -15.9646   20.3628  -14.3066 C   0  0  0  0  0  0  0  0  0  0  0  0
  -12.3556   23.4345  -16.6476 C   0  0  0  0  0  0  0  0  0  0  0  0
  -14.2773   16.0003  -16.2990 C   0  0  1  0  0  0  0  0  0  0  0  0
  -13.1460   17.0466  -15.7613 C   0  0  0  0  0  0  0  0  0  0  0  0
  -13.6889   17.4685  -14.6195 C   0  0  2  0  0  0  0  0  0  0  0  0
  -14.1755   16.1290  -13.9146 C   0  0  0  0  0  0  0  0  0  0  0  0
  -13.9185   14.7655  -17.0442 C   0  0  0  0  0  0  0  0  0  0  0  0
  -14.2695   13.6619  -19.3131 C   0  0  2  0  0  0  0  0  0  0  0  0
  -16.3534   13.8292  -13.7499 C   0  0  2  0  0  0  0  0  0  0  0  0
  -18.2748   14.1316  -12.2375 C   0  0  0  0  0  0  0  0  0  0  0  0
  -16.0713   12.3223  -13.7266 C   0  0  0  0  0  0  0  0  0  0  0  0
  -14.5351   12.0516  -13.8267 C   0  0  0  0  0  0  0  0  0  0  0  0
  -13.6328   21.3577  -15.7291 C   0  0  0  0  0  0  0  0  0  0  0  0
  -12.4079   21.9098  -16.4714 C   0  0  0  0  0  0  0  0  0  0  0  0
  -13.4564   24.3553  -16.1168 C   0  0  0  0  0  0  0  0  0  0  0  0
  -14.6520   23.8086  -15.3708 C   0  0  0  0  0  0  0  0  0  0  0  0
  -10.5644   24.9599  -16.6096 C   0  0  0  0  0  0  0  0  0  0  0  0
  -17.1553   19.7635  -13.5607 C   0  0  0  0  0  0  0  0  0  0  0  0
  -12.9520   13.2077  -19.8873 C   0  0  0  0  0  0  0  0  0  0  0  0
  -10.8236   13.7819  -22.4909 C   0  0  2  0  0  0  0  0  0  0  0  0
   -9.5357   13.5761  -23.2853 C   0  0  0  0  0  0  0  0  0  0  0  0
  -10.5247   12.4113  -23.1120 C   0  0  0  0  0  0  0  0  0  0  0  0
  -11.9519   14.6350  -23.1183 C   0  0  0  0  0  0  0  0  0  0  0  0
  -15.0737   12.4009  -18.8850 C   0  0  2  0  0  0  0  0  0  0  0  0
  -14.8309   10.8897  -18.9380 C   0  0  0  0  0  0  0  0  0  0  0  0
  -14.8553   10.0540  -17.8749 C   0  0  0  0  0  0  0  0  0  0  0  0
  -15.1380   10.5330  -16.4336 C   0  0  0  0  0  0  0  0  0  0  0  0
  -13.9218   10.2368  -15.5262 C   0  0  0  0  0  0  0  0  0  0  0  0
  -15.4031   13.1152  -20.2018 C   0  0  0  0  0  0  0  0  0  0  0  0
  -14.2953   10.5233  -14.0377 C   0  0  0  0  0  0  0  0  0  0  0  0
  -21.1695   16.0803  -11.7588 C   0  0  1  0  0  0  0  0  0  0  0  0
  -22.2917   15.1343  -12.2047 C   0  0  0  0  0  0  0  0  0  0  0  0
  -22.4703   15.9969  -10.9454 C   0  0  0  0  0  0  0  0  0  0  0  0
  -20.9732   17.3406  -12.6367 C   0  0  2  0  0  0  0  0  0  0  0  0
  -20.5163   16.9420  -13.8683 F   0  0  0  0  0  0  0  0  0  0  0  0
  -20.0681   18.1519  -12.0484 F   0  0  0  0  0  0  0  0  0  0  0  0
  -22.1957   17.9610  -12.7096 F   0  0  0  0  0  0  0  0  0  0  0  0
  -14.8739   15.4188  -15.1682 N   0  0  0  0  0  0  0  0  0  0  0  0
  -14.3264   14.8162  -18.4154 N   0  0  0  0  0  0  0  0  0  0  0  0
  -17.7559   13.9961  -13.5741 N   0  0  0  0  0  0  0  0  0  0  0  0
  -13.7076   19.9137  -15.5632 N   0  0  0  0  0  0  0  0  0  0  0  0
  -15.9018   21.7843  -14.4799 N   0  0  0  0  0  0  0  0  0  0  0  0
  -11.9934   14.2486  -20.0451 N   0  0  0  0  0  0  0  0  0  0  0  0
  -13.3550   13.8367  -16.5546 O   0  0  0  0  0  0  0  0  0  0  0  0
  -16.3614   13.9254  -16.1025 O   0  0  0  0  0  0  0  0  0  0  0  0
  -19.6568   14.3718  -12.1563 O   0  0  0  0  0  0  0  0  0  0  0  0
  -17.5858   14.0336  -11.2552 O   0  0  0  0  0  0  0  0  0  0  0  0
  -15.0066   18.0815  -14.6812 O   0  0  0  0  0  0  0  0  0  0  0  0
  -11.2800   23.9795  -17.3177 O   0  0  0  0  0  0  0  0  0  0  0  0
  -12.7014   12.0990  -20.2711 O   0  0  0  0  0  0  0  0  0  0  0  0
   -9.9648   12.5554  -20.2352 O   0  0  0  0  0  0  0  0  0  0  0  0
   -9.5739   14.8911  -20.5117 O   0  0  0  0  0  0  0  0  0  0  0  0
  -10.5542   13.8178  -20.7052 S   0  0  1  0  0  0  0  0  0  0  0  0
  -19.0949   16.0569  -11.0867 H   0  0  0  0  0  0  0  0  0  0  0  0
  -20.1161   14.9422  -10.1925 H   0  0  0  0  0  0  0  0  0  0  0  0
  -14.8311   16.6561  -16.9869 H   0  0  0  0  0  0  0  0  0  0  0  0
  -12.1844   16.5422  -15.5858 H   0  0  0  0  0  0  0  0  0  0  0  0
  -12.9126   17.8548  -16.4700 H   0  0  0  0  0  0  0  0  0  0  0  0
  -12.9407   18.1543  -14.1955 H   0  0  0  0  0  0  0  0  0  0  0  0
  -13.3326   15.5396  -13.5246 H   0  0  0  0  0  0  0  0  0  0  0  0
  -14.8188   16.2675  -13.0332 H   0  0  0  0  0  0  0  0  0  0  0  0
  -15.8236   14.3752  -12.9555 H   0  0  0  0  0  0  0  0  0  0  0  0
  -16.4534   11.8970  -12.7869 H   0  0  0  0  0  0  0  0  0  0  0  0
  -16.5721   11.8532  -14.5863 H   0  0  0  0  0  0  0  0  0  0  0  0
  -14.1178   12.6103  -14.6774 H   0  0  0  0  0  0  0  0  0  0  0  0
  -14.0412   12.3785  -12.8997 H   0  0  0  0  0  0  0  0  0  0  0  0
  -11.6140   21.2519  -16.8547 H   0  0  0  0  0  0  0  0  0  0  0  0
  -13.3759   25.4399  -16.2818 H   0  0  0  0  0  0  0  0  0  0  0  0
  -15.4350   24.4732  -14.9767 H   0  0  0  0  0  0  0  0  0  0  0  0
  -10.6857   24.7936  -15.5290 H   0  0  0  0  0  0  0  0  0  0  0  0
   -9.4981   24.8972  -16.8727 H   0  0  0  0  0  0  0  0  0  0  0  0
  -10.9490   25.9563  -16.8727 H   0  0  0  0  0  0  0  0  0  0  0  0
  -16.9887   19.8474  -12.4766 H   0  0  0  0  0  0  0  0  0  0  0  0
  -18.0711   20.3081  -13.8341 H   0  0  0  0  0  0  0  0  0  0  0  0
  -17.2635   18.7036  -13.8341 H   0  0  0  0  0  0  0  0  0  0  0  0
   -9.4145   14.0527  -24.2693 H   0  0  0  0  0  0  0  0  0  0  0  0
   -8.4648   13.7235  -23.0818 H   0  0  0  0  0  0  0  0  0  0  0  0
  -10.2647   11.5590  -22.4670 H   0  0  0  0  0  0  0  0  0  0  0  0
  -11.0563   11.7313  -23.7939 H   0  0  0  0  0  0  0  0  0  0  0  0
  -12.5547   15.0907  -22.3190 H   0  0  0  0  0  0  0  0  0  0  0  0
  -11.5099   15.4268  -23.7410 H   0  0  0  0  0  0  0  0  0  0  0  0
  -12.5932   13.9939  -23.7410 H   0  0  0  0  0  0  0  0  0  0  0  0
  -15.4669   12.1538  -17.8878 H   0  0  0  0  0  0  0  0  0  0  0  0
  -14.6190   10.4471  -19.9226 H   0  0  0  0  0  0  0  0  0  0  0  0
  -14.6651    8.9839  -18.0443 H   0  0  0  0  0  0  0  0  0  0  0  0
  -15.3306   11.6160  -16.4414 H   0  0  0  0  0  0  0  0  0  0  0  0
  -16.0167    9.9989  -16.0429 H   0  0  0  0  0  0  0  0  0  0  0  0
  -13.6332    9.1808  -15.6343 H   0  0  0  0  0  0  0  0  0  0  0  0
  -13.0806   10.8811  -15.8217 H   0  0  0  0  0  0  0  0  0  0  0  0
  -16.3429   13.6785  -20.2993 H   0  0  0  0  0  0  0  0  0  0  0  0
  -15.4781   12.8018  -21.2536 H   0  0  0  0  0  0  0  0  0  0  0  0
  -13.4735   10.1911  -13.3863 H   0  0  0  0  0  0  0  0  0  0  0  0
  -15.2169    9.9774  -13.7873 H   0  0  0  0  0  0  0  0  0  0  0  0
  -22.8721   15.3588  -13.1118 H   0  0  0  0  0  0  0  0  0  0  0  0
  -22.3600   14.0592  -12.4268 H   0  0  0  0  0  0  0  0  0  0  0  0
  -22.4684   15.5263   -9.9512 H   0  0  0  0  0  0  0  0  0  0  0  0
  -23.2201   16.7237  -10.5995 H   0  0  0  0  0  0  0  0  0  0  0  0
  -14.6775   15.7096  -18.7888 H   0  0  0  0  0  0  0  0  0  0  0  0
  -18.3877   14.0195  -14.3873 H   0  0  0  0  0  0  0  0  0  0  0  0
  -12.1923   15.2184  -19.7606 H   0  0  0  0  0  0  0  0  0  0  0  0
  1 13  1  0
  1 42  1  0
  1 49  2  0
 35  2  1  1
  2 50  1  0
  3  5  2  0
  3 45  1  0
  3 52  1  0
  4 17  1  0
  4 20  1  0
  4 46  2  0
  5 22  1  0
  5 46  1  0
  6 18  2  0
  6 19  1  0
  6 53  1  0
  7  8  1  0
  7 11  1  0
  7 42  1  0
  8  9  1  0
  9 10  1  0
  9 52  1  0
 10 42  1  0
 11 43  1  0
 11 48  2  0
 12 23  1  6
 12 28  1  0
 12 33  1  0
 12 43  1  0
 13 15  1  0
 13 44  1  0
 14 44  1  0
 14 50  1  0
 14 51  2  0
 15 16  1  0
 16 34  1  0
 17 18  1  0
 17 45  2  0
 19 20  2  0
 21 53  1  0
 23 47  1  0
 23 54  2  0
 24 25  1  0
 24 26  1  0
 24 27  1  6
 24 57  1  0
 25 26  1  0
 28 29  1  0
 28 33  1  0
 29 30  2  3
 30 31  1  0
 31 32  1  0
 32 34  1  0
 35 36  1  0
 35 37  1  0
 35 38  1  0
 36 37  1  0
 38 39  1  6
 38 40  1  0
 38 41  1  0
 57 47  1  1
 55 57  2  0
 56 57  2  0
  2 58  1  0
  2 59  1  0
  7 60  1  6
  8 61  1  0
  8 62  1  0
  9 63  1  1
 10 64  1  0
 10 65  1  0
 13 66  1  1
 15 67  1  0
 15 68  1  0
 16 69  1  0
 16 70  1  0
 18 71  1  0
 19 72  1  0
 20 73  1  0
 21 74  1  0
 21 75  1  0
 21 76  1  0
 22 77  1  0
 22 78  1  0
 22 79  1  0
 25 80  1  0
 25 81  1  0
 26 82  1  0
 26 83  1  0
 27 84  1  0
 27 85  1  0
 27 86  1  0
 28 87  1  1
 29 88  1  0
 30 89  1  0
 31 90  1  0
 31 91  1  0
 32 92  1  0
 32 93  1  0
 33 94  1  0
 33 95  1  0
 34 96  1  0
 34 97  1  0
 36 98  1  0
 36 99  1  0
 37100  1  0
 37101  1  0
 43102  1  0
 44103  1  0
 47104  1  0
M  END
>  <filename_input>  (9) 
7MMH_ZJY_docked.sdf

>  <pdb_id>  (9) 
7MMH_ZJY

>  <pose_rank>  (9) 
8

>  <num_atoms_heavy>  (9) 
57

>  <num_torsions>  (9) 
11

>  <pose>  (9) 
[-15.887954657749924, 14.369593256309242, -15.107027964117172, 3.097705499491023, 0.3738242639577626, -1.3305939573756118, 5.0922058889786, 0.6453897364806135, -0.14236804655029273, -0.43405883764545156, 2.2832560220629685, -0.42916174417200426, -1.8369154807730657, -0.4936818211178073, -0.09971503128750711, 0.815434811932154, -2.178253701257569]

>  <energy>  (9) 
-377.611669457531

>  <inter_energy>  (9) 
-432.57337693534714

>  <intra_energy>  (9) 
53.53838425505164

>  <rmsd>  (9) 
9.04291

>  <sdf_rank>  (9) 
0

$$$$

     RDKit          3D

104110  0  0  0  0  0  0  0  0999 V2000
  -15.8068   14.1575  -14.8677 C   0  0  0  0  0  0  0  0  0  0  0  0
  -19.6806   15.5846  -13.0350 C   0  0  0  0  0  0  0  0  0  0  0  0
  -14.7875   19.0949  -16.1142 C   0  0  0  0  0  0  0  0  0  0  0  0
  -14.5391   21.9022  -16.5344 C   0  0  0  0  0  0  0  0  0  0  0  0
  -15.8932   19.8944  -16.8144 C   0  0  0  0  0  0  0  0  0  0  0  0
  -12.0278   23.2821  -15.5804 C   0  0  0  0  0  0  0  0  0  0  0  0
  -14.6131   15.1803  -16.9179 C   0  0  1  0  0  0  0  0  0  0  0  0
  -13.4110   16.2719  -17.0818 C   0  0  0  0  0  0  0  0  0  0  0  0
  -13.6469   17.0899  -16.0562 C   0  0  2  0  0  0  0  0  0  0  0  0
  -13.8927   16.1030  -14.8343 C   0  0  0  0  0  0  0  0  0  0  0  0
  -14.4273   13.7457  -17.2584 C   0  0  0  0  0  0  0  0  0  0  0  0
  -15.3298   11.9632  -18.8386 C   0  0  2  0  0  0  0  0  0  0  0  0
  -15.8838   14.1404  -13.3366 C   0  0  2  0  0  0  0  0  0  0  0  0
  -17.4636   15.7734  -12.3836 C   0  0  0  0  0  0  0  0  0  0  0  0
  -15.5623   12.7159  -12.8696 C   0  0  0  0  0  0  0  0  0  0  0  0
  -14.0991   12.3290  -13.2605 C   0  0  0  0  0  0  0  0  0  0  0  0
  -13.4318   21.1042  -15.8504 C   0  0  0  0  0  0  0  0  0  0  0  0
  -12.1441   21.7690  -15.3446 C   0  0  0  0  0  0  0  0  0  0  0  0
  -13.1273   24.0860  -16.2777 C   0  0  0  0  0  0  0  0  0  0  0  0
  -14.4015   23.4300  -16.7582 C   0  0  0  0  0  0  0  0  0  0  0  0
  -10.0758   24.4545  -16.1739 C   0  0  0  0  0  0  0  0  0  0  0  0
  -17.1625   19.1868  -17.2848 C   0  0  0  0  0  0  0  0  0  0  0  0
  -14.1968   11.2574  -19.5387 C   0  0  0  0  0  0  0  0  0  0  0  0
  -13.6290   10.3875  -23.4788 C   0  0  2  0  0  0  0  0  0  0  0  0
  -14.2480   11.7423  -23.8152 C   0  0  0  0  0  0  0  0  0  0  0  0
  -12.7768   11.4627  -24.1651 C   0  0  0  0  0  0  0  0  0  0  0  0
  -14.0522    9.1533  -24.3107 C   0  0  0  0  0  0  0  0  0  0  0  0
  -15.9567   10.9765  -17.8123 C   0  0  2  0  0  0  0  0  0  0  0  0
  -15.6930    9.5245  -17.4026 C   0  0  0  0  0  0  0  0  0  0  0  0
  -15.4134    9.1022  -16.1486 C   0  0  0  0  0  0  0  0  0  0  0  0
  -15.3214   10.0586  -14.9388 C   0  0  0  0  0  0  0  0  0  0  0  0
  -13.9016   10.0101  -14.3288 C   0  0  0  0  0  0  0  0  0  0  0  0
  -16.6407   11.2216  -19.1631 C   0  0  0  0  0  0  0  0  0  0  0  0
  -13.8793   10.8077  -12.9869 C   0  0  0  0  0  0  0  0  0  0  0  0
  -20.8555   16.5629  -12.9401 C   0  0  1  0  0  0  0  0  0  0  0  0
  -22.1486   16.0445  -13.5820 C   0  0  0  0  0  0  0  0  0  0  0  0
  -22.0419   16.1556  -12.0530 C   0  0  0  0  0  0  0  0  0  0  0  0
  -20.5929   18.0802  -13.1037 C   0  0  2  0  0  0  0  0  0  0  0  0
  -19.8786   18.5145  -12.0149 F   0  0  0  0  0  0  0  0  0  0  0  0
  -21.7757   18.7284  -13.1690 F   0  0  0  0  0  0  0  0  0  0  0  0
  -19.8983   18.2326  -14.2779 F   0  0  0  0  0  0  0  0  0  0  0  0
  -14.8749   15.0563  -15.5436 N   0  0  0  0  0  0  0  0  0  0  0  0
  -15.1822   13.3546  -18.4100 N   0  0  0  0  0  0  0  0  0  0  0  0
  -17.1952   14.4468  -12.8759 N   0  0  0  0  0  0  0  0  0  0  0  0
  -13.5557   19.6681  -15.6482 N   0  0  0  0  0  0  0  0  0  0  0  0
  -15.7693   21.3065  -17.0279 N   0  0  0  0  0  0  0  0  0  0  0  0
  -14.4301   11.0055  -20.9205 N   0  0  0  0  0  0  0  0  0  0  0  0
  -13.7285   13.0037  -16.6410 O   0  0  0  0  0  0  0  0  0  0  0  0
  -16.5120   13.4335  -15.4930 O   0  0  0  0  0  0  0  0  0  0  0  0
  -18.7998   16.0162  -12.0233 O   0  0  0  0  0  0  0  0  0  0  0  0
  -16.6100   16.6149  -12.2718 O   0  0  0  0  0  0  0  0  0  0  0  0
  -14.9516   17.7291  -15.9853 O   0  0  0  0  0  0  0  0  0  0  0  0
  -10.8843   23.9251  -15.1537 O   0  0  0  0  0  0  0  0  0  0  0  0
  -13.1980   10.8479  -19.0152 O   0  0  0  0  0  0  0  0  0  0  0  0
  -13.0540    8.7871  -21.3719 O   0  0  0  0  0  0  0  0  0  0  0  0
  -11.9673   10.9011  -21.5593 O   0  0  0  0  0  0  0  0  0  0  0  0
  -13.2458   10.2020  -21.7233 S   0  0  1  0  0  0  0  0  0  0  0  0
  -20.0142   14.5528  -12.8500 H   0  0  0  0  0  0  0  0  0  0  0  0
  -19.2132   15.5773  -14.0307 H   0  0  0  0  0  0  0  0  0  0  0  0
  -15.3467   15.5983  -17.6230 H   0  0  0  0  0  0  0  0  0  0  0  0
  -12.4229   15.7962  -16.9961 H   0  0  0  0  0  0  0  0  0  0  0  0
  -13.3951   16.7752  -18.0598 H   0  0  0  0  0  0  0  0  0  0  0  0
  -12.8337   17.8293  -16.1008 H   0  0  0  0  0  0  0  0  0  0  0  0
  -12.9604   15.6278  -14.4951 H   0  0  0  0  0  0  0  0  0  0  0  0
  -14.2856   16.5732  -13.9208 H   0  0  0  0  0  0  0  0  0  0  0  0
  -15.1799   14.8881  -12.9424 H   0  0  0  0  0  0  0  0  0  0  0  0
  -15.6718   12.6598  -11.7765 H   0  0  0  0  0  0  0  0  0  0  0  0
  -16.2575   12.0162  -13.3566 H   0  0  0  0  0  0  0  0  0  0  0  0
  -13.9361   12.5381  -14.3281 H   0  0  0  0  0  0  0  0  0  0  0  0
  -13.3888   12.9184  -12.6620 H   0  0  0  0  0  0  0  0  0  0  0  0
  -11.3510   21.1953  -14.8427 H   0  0  0  0  0  0  0  0  0  0  0  0
  -12.9872   25.1660  -16.4329 H   0  0  0  0  0  0  0  0  0  0  0  0
  -15.1974   24.0120  -17.2459 H   0  0  0  0  0  0  0  0  0  0  0  0
   -9.2349   25.0050  -15.7269 H   0  0  0  0  0  0  0  0  0  0  0  0
   -9.6878   23.6350  -16.7967 H   0  0  0  0  0  0  0  0  0  0  0  0
  -10.6718   25.1378  -16.7967 H   0  0  0  0  0  0  0  0  0  0  0  0
  -17.7462   18.8615  -16.4110 H   0  0  0  0  0  0  0  0  0  0  0  0
  -17.7650   19.8793  -17.8911 H   0  0  0  0  0  0  0  0  0  0  0  0
  -16.8905   18.3102  -17.8911 H   0  0  0  0  0  0  0  0  0  0  0  0
  -14.9983   11.8204  -24.6158 H   0  0  0  0  0  0  0  0  0  0  0  0
  -14.7770   12.5189  -23.2433 H   0  0  0  0  0  0  0  0  0  0  0  0
  -11.9727   11.9667  -23.6089 H   0  0  0  0  0  0  0  0  0  0  0  0
  -12.1704   11.5100  -25.0817 H   0  0  0  0  0  0  0  0  0  0  0  0
  -14.3334    8.3334  -23.6333 H   0  0  0  0  0  0  0  0  0  0  0  0
  -14.9117    9.4159  -24.9450 H   0  0  0  0  0  0  0  0  0  0  0  0
  -13.2125    8.8332  -24.9450 H   0  0  0  0  0  0  0  0  0  0  0  0
  -16.0670   11.1080  -16.7257 H   0  0  0  0  0  0  0  0  0  0  0  0
  -15.7345    8.7617  -18.1941 H   0  0  0  0  0  0  0  0  0  0  0  0
  -15.2436    8.0282  -15.9824 H   0  0  0  0  0  0  0  0  0  0  0  0
  -15.5404   11.0848  -15.2690 H   0  0  0  0  0  0  0  0  0  0  0  0
  -16.0509    9.7463  -14.1771 H   0  0  0  0  0  0  0  0  0  0  0  0
  -13.6213    8.9638  -14.1372 H   0  0  0  0  0  0  0  0  0  0  0  0
  -13.1864   10.4605  -15.0328 H   0  0  0  0  0  0  0  0  0  0  0  0
  -17.5889   11.7777  -19.2041 H   0  0  0  0  0  0  0  0  0  0  0  0
  -16.9802   10.5757  -19.9862 H   0  0  0  0  0  0  0  0  0  0  0  0
  -12.9061   10.6638  -12.4948 H   0  0  0  0  0  0  0  0  0  0  0  0
  -14.6867   10.4394  -12.3370 H   0  0  0  0  0  0  0  0  0  0  0  0
  -22.8005   16.7334  -14.1393 H   0  0  0  0  0  0  0  0  0  0  0  0
  -22.3975   15.2381  -14.2875 H   0  0  0  0  0  0  0  0  0  0  0  0
  -21.9823   15.2456  -11.4379 H   0  0  0  0  0  0  0  0  0  0  0  0
  -22.6304   16.6489  -11.2653 H   0  0  0  0  0  0  0  0  0  0  0  0
  -15.6445   14.0891  -18.9647 H   0  0  0  0  0  0  0  0  0  0  0  0
  -17.9379   13.7335  -12.8942 H   0  0  0  0  0  0  0  0  0  0  0  0
  -15.2945   11.3107  -21.3902 H   0  0  0  0  0  0  0  0  0  0  0  0
  1 13  1  0
  1 42  1  0
  1 49  2  0
 35  2  1  1
  2 50  1  0
  3  5  2  0
  3 45  1  0
  3 52  1  0
  4 17  1  0
  4 20  1  0
  4 46  2  0
  5 22  1  0
  5 46  1  0
  6 18  2  0
  6 19  1  0
  6 53  1  0
  7  8  1  0
  7 11  1  0
  7 42  1  0
  8  9  1  0
  9 10  1  0
  9 52  1  0
 10 42  1  0
 11 43  1  0
 11 48  2  0
 12 23  1  6
 12 28  1  0
 12 33  1  0
 12 43  1  0
 13 15  1  0
 13 44  1  0
 14 44  1  0
 14 50  1  0
 14 51  2  0
 15 16  1  0
 16 34  1  0
 17 18  1  0
 17 45  2  0
 19 20  2  0
 21 53  1  0
 23 47  1  0
 23 54  2  0
 24 25  1  0
 24 26  1  0
 24 27  1  6
 24 57  1  0
 25 26  1  0
 28 29  1  0
 28 33  1  0
 29 30  2  3
 30 31  1  0
 31 32  1  0
 32 34  1  0
 35 36  1  0
 35 37  1  0
 35 38  1  0
 36 37  1  0
 38 39  1  1
 38 40  1  0
 38 41  1  0
 57 47  1  1
 55 57  2  0
 56 57  2  0
  2 58  1  0
  2 59  1  0
  7 60  1  6
  8 61  1  0
  8 62  1  0
  9 63  1  1
 10 64  1  0
 10 65  1  0
 13 66  1  1
 15 67  1  0
 15 68  1  0
 16 69  1  0
 16 70  1  0
 18 71  1  0
 19 72  1  0
 20 73  1  0
 21 74  1  0
 21 75  1  0
 21 76  1  0
 22 77  1  0
 22 78  1  0
 22 79  1  0
 25 80  1  0
 25 81  1  0
 26 82  1  0
 26 83  1  0
 27 84  1  0
 27 85  1  0
 27 86  1  0
 28 87  1  1
 29 88  1  0
 30 89  1  0
 31 90  1  0
 31 91  1  0
 32 92  1  0
 32 93  1  0
 33 94  1  0
 33 95  1  0
 34 96  1  0
 34 97  1  0
 36 98  1  0
 36 99  1  0
 37100  1  0
 37101  1  0
 43102  1  0
 44103  1  0
 47104  1  0
M  END
>  <filename_input>  (10) 
7MMH_ZJY_docked.sdf

>  <pdb_id>  (10) 
7MMH_ZJY

>  <pose_rank>  (10) 
9

>  <num_atoms_heavy>  (10) 
57

>  <num_torsions>  (10) 
11

>  <pose>  (10) 
[-15.80676373615581, 14.157529568109572, -14.867687562567811, 2.6546061036441726, 0.04249478243484876, -1.6086538657031701, -0.3083862601015732, 2.197119476650122, 0.9853311782220473, 2.2004984029816983, -0.2082047382972677, -1.8371663487286283, 0.11421245583195686, -2.8927024378159607, -0.5257019030635534, -0.2412866651753906, 1.9813684661020918]

>  <energy>  (10) 
-427.4742875350209

>  <inter_energy>  (10) 
-446.01209935614213

>  <intra_energy>  (10) 
23.18729679918532

>  <rmsd>  (10) 
10.0168

>  <sdf_rank>  (10) 
0

$$$$

     RDKit          3D

104110  0  0  0  0  0  0  0  0999 V2000
  -14.9008   15.0622  -15.5322 C   0  0  0  0  0  0  0  0  0  0  0  0
  -18.7321   16.6183  -12.7241 C   0  0  0  0  0  0  0  0  0  0  0  0
  -14.8093   19.9342  -17.1002 C   0  0  0  0  0  0  0  0  0  0  0  0
  -15.0407   22.7692  -17.2676 C   0  0  0  0  0  0  0  0  0  0  0  0
  -15.5343   20.6043  -18.2738 C   0  0  0  0  0  0  0  0  0  0  0  0
  -13.8062   24.4443  -15.0788 C   0  0  0  0  0  0  0  0  0  0  0  0
  -13.7707   16.0386  -17.6402 C   0  0  1  0  0  0  0  0  0  0  0  0
  -12.8038   17.3287  -17.8940 C   0  0  0  0  0  0  0  0  0  0  0  0
  -13.2846   18.2046  -17.0119 C   0  0  2  0  0  0  0  0  0  0  0  0
  -13.4276   17.3554  -15.6754 C   0  0  0  0  0  0  0  0  0  0  0  0
  -13.2718   14.6437  -17.7591 C   0  0  0  0  0  0  0  0  0  0  0  0
  -13.6613   12.5209  -19.1123 C   0  0  2  0  0  0  0  0  0  0  0  0
  -15.1005   15.2283  -14.0212 C   0  0  2  0  0  0  0  0  0  0  0  0
  -16.8512   15.3341  -12.2907 C   0  0  0  0  0  0  0  0  0  0  0  0
  -14.5386   13.9768  -13.3364 C   0  0  0  0  0  0  0  0  0  0  0  0
  -13.0001   13.8603  -13.5866 C   0  0  0  0  0  0  0  0  0  0  0  0
  -14.3062   22.1032  -16.1067 C   0  0  0  0  0  0  0  0  0  0  0  0
  -13.6720   22.9182  -14.9712 C   0  0  0  0  0  0  0  0  0  0  0  0
  -14.5286   25.1195  -16.2465 C   0  0  0  0  0  0  0  0  0  0  0  0
  -15.1672   24.3119  -17.3533 C   0  0  0  0  0  0  0  0  0  0  0  0
  -14.0263   25.3835  -12.9325 C   0  0  0  0  0  0  0  0  0  0  0  0
  -16.1621   19.7462  -19.3704 C   0  0  0  0  0  0  0  0  0  0  0  0
  -12.3548   11.9855  -19.6399 C   0  0  0  0  0  0  0  0  0  0  0  0
   -8.7672   13.7123  -20.0438 C   0  0  2  0  0  0  0  0  0  0  0  0
   -7.4243   13.6423  -19.3200 C   0  0  0  0  0  0  0  0  0  0  0  0
   -7.4843   13.4572  -20.8455 C   0  0  0  0  0  0  0  0  0  0  0  0
   -9.4569   15.0894  -20.1926 C   0  0  0  0  0  0  0  0  0  0  0  0
  -14.1601   11.5661  -17.9900 C   0  0  2  0  0  0  0  0  0  0  0  0
  -13.6443   10.2684  -17.3610 C   0  0  0  0  0  0  0  0  0  0  0  0
  -13.3911   10.0813  -16.0457 C   0  0  0  0  0  0  0  0  0  0  0  0
  -13.5952   11.1845  -14.9836 C   0  0  0  0  0  0  0  0  0  0  0  0
  -12.2508   11.5166  -14.2961 C   0  0  0  0  0  0  0  0  0  0  0  0
  -14.7641   11.4835  -19.3975 C   0  0  0  0  0  0  0  0  0  0  0  0
  -12.5019   12.4684  -13.0844 C   0  0  0  0  0  0  0  0  0  0  0  0
  -20.1646   16.7504  -12.1978 C   0  0  1  0  0  0  0  0  0  0  0  0
  -21.2163   16.0681  -13.0818 C   0  0  0  0  0  0  0  0  0  0  0  0
  -20.8585   15.4682  -11.7130 C   0  0  0  0  0  0  0  0  0  0  0  0
  -20.6098   18.0788  -11.5383 C   0  0  2  0  0  0  0  0  0  0  0  0
  -20.5723   17.9180  -10.1756 F   0  0  0  0  0  0  0  0  0  0  0  0
  -21.8675   18.3688  -11.9350 F   0  0  0  0  0  0  0  0  0  0  0  0
  -19.7361   19.0440  -11.9740 F   0  0  0  0  0  0  0  0  0  0  0  0
  -14.1161   16.0418  -16.2788 N   0  0  0  0  0  0  0  0  0  0  0  0
  -13.8334   13.9557  -18.8818 N   0  0  0  0  0  0  0  0  0  0  0  0
  -16.4805   15.3081  -13.6821 N   0  0  0  0  0  0  0  0  0  0  0  0
  -14.1786   20.6553  -16.0301 N   0  0  0  0  0  0  0  0  0  0  0  0
  -15.6504   22.0304  -18.3604 N   0  0  0  0  0  0  0  0  0  0  0  0
  -11.2126   12.7379  -19.2443 N   0  0  0  0  0  0  0  0  0  0  0  0
  -12.4919   14.1527  -17.0037 O   0  0  0  0  0  0  0  0  0  0  0  0
  -15.3909   14.1306  -16.0840 O   0  0  0  0  0  0  0  0  0  0  0  0
  -18.2249   15.4939  -12.0429 O   0  0  0  0  0  0  0  0  0  0  0  0
  -16.0519   15.2142  -11.3984 O   0  0  0  0  0  0  0  0  0  0  0  0
  -14.6926   18.5575  -17.1056 O   0  0  0  0  0  0  0  0  0  0  0  0
  -13.2435   25.2224  -14.0883 O   0  0  0  0  0  0  0  0  0  0  0  0
  -12.2315   11.0612  -20.3946 O   0  0  0  0  0  0  0  0  0  0  0  0
   -9.7978   11.4231  -21.0577 O   0  0  0  0  0  0  0  0  0  0  0  0
   -9.0552   11.4628  -18.7923 O   0  0  0  0  0  0  0  0  0  0  0  0
   -9.7664   12.2236  -19.8246 S   0  0  1  0  0  0  0  0  0  0  0  0
  -18.7281   16.4522  -13.8114 H   0  0  0  0  0  0  0  0  0  0  0  0
  -18.1319   17.5243  -12.5544 H   0  0  0  0  0  0  0  0  0  0  0  0
  -14.5119   16.1969  -18.4374 H   0  0  0  0  0  0  0  0  0  0  0  0
  -11.7508   17.0875  -17.6865 H   0  0  0  0  0  0  0  0  0  0  0  0
  -12.8080   17.6924  -18.9321 H   0  0  0  0  0  0  0  0  0  0  0  0
  -12.6362   19.0868  -17.1182 H   0  0  0  0  0  0  0  0  0  0  0  0
  -12.4504   17.1360  -15.2207 H   0  0  0  0  0  0  0  0  0  0  0  0
  -13.9822   17.8467  -14.8624 H   0  0  0  0  0  0  0  0  0  0  0  0
  -14.5972   16.1526  -13.7013 H   0  0  0  0  0  0  0  0  0  0  0  0
  -14.7256   14.0415  -12.2543 H   0  0  0  0  0  0  0  0  0  0  0  0
  -15.0355   13.0890  -13.7546 H   0  0  0  0  0  0  0  0  0  0  0  0
  -12.7939   13.9585  -14.6626 H   0  0  0  0  0  0  0  0  0  0  0  0
  -12.4757   14.6590  -13.0415 H   0  0  0  0  0  0  0  0  0  0  0  0
  -13.1517   22.4374  -14.1297 H   0  0  0  0  0  0  0  0  0  0  0  0
  -14.5845   26.2175  -16.2814 H   0  0  0  0  0  0  0  0  0  0  0  0
  -15.6991   24.7983  -18.1843 H   0  0  0  0  0  0  0  0  0  0  0  0
  -13.3951   25.2536  -12.0410 H   0  0  0  0  0  0  0  0  0  0  0  0
  -14.4673   26.3912  -12.9258 H   0  0  0  0  0  0  0  0  0  0  0  0
  -14.8294   24.6318  -12.9258 H   0  0  0  0  0  0  0  0  0  0  0  0
  -16.7525   18.9393  -18.9118 H   0  0  0  0  0  0  0  0  0  0  0  0
  -16.8178   20.3710  -19.9946 H   0  0  0  0  0  0  0  0  0  0  0  0
  -15.3682   19.3103  -19.9946 H   0  0  0  0  0  0  0  0  0  0  0  0
   -6.9812   14.5545  -18.8939 H   0  0  0  0  0  0  0  0  0  0  0  0
   -7.0231   13.0551  -18.4808 H   0  0  0  0  0  0  0  0  0  0  0  0
   -7.2988   12.4674  -21.2882 H   0  0  0  0  0  0  0  0  0  0  0  0
   -6.9964   13.9331  -21.7089 H   0  0  0  0  0  0  0  0  0  0  0  0
   -9.6650   15.5050  -19.1956 H   0  0  0  0  0  0  0  0  0  0  0  0
   -8.7949   15.7734  -20.7440 H   0  0  0  0  0  0  0  0  0  0  0  0
  -10.4010   14.9690  -20.7440 H   0  0  0  0  0  0  0  0  0  0  0  0
  -14.3850   11.8114  -16.9415 H   0  0  0  0  0  0  0  0  0  0  0  0
  -13.4649    9.4178  -18.0351 H   0  0  0  0  0  0  0  0  0  0  0  0
  -13.0230    9.0983  -15.7170 H   0  0  0  0  0  0  0  0  0  0  0  0
  -13.9881   12.0895  -15.4701 H   0  0  0  0  0  0  0  0  0  0  0  0
  -14.3079   10.8269  -14.2259 H   0  0  0  0  0  0  0  0  0  0  0  0
  -11.7824   10.5871  -13.9403 H   0  0  0  0  0  0  0  0  0  0  0  0
  -11.5848   12.0124  -15.0176 H   0  0  0  0  0  0  0  0  0  0  0  0
  -15.7981   11.8167  -19.5703 H   0  0  0  0  0  0  0  0  0  0  0  0
  -14.8965   10.6791  -20.1360 H   0  0  0  0  0  0  0  0  0  0  0  0
  -11.5643   12.5985  -12.5241 H   0  0  0  0  0  0  0  0  0  0  0  0
  -13.2700   12.0256  -12.4333 H   0  0  0  0  0  0  0  0  0  0  0  0
  -22.1970   16.5421  -13.2350 H   0  0  0  0  0  0  0  0  0  0  0  0
  -21.2372   15.6905  -14.1148 H   0  0  0  0  0  0  0  0  0  0  0  0
  -20.2947   14.5254  -11.6557 H   0  0  0  0  0  0  0  0  0  0  0  0
  -21.4269   15.1823  -10.8157 H   0  0  0  0  0  0  0  0  0  0  0  0
  -14.3863   14.4976  -19.5612 H   0  0  0  0  0  0  0  0  0  0  0  0
  -17.2004   15.3466  -14.4178 H   0  0  0  0  0  0  0  0  0  0  0  0
  -11.2897   13.5595  -18.6280 H   0  0  0  0  0  0  0  0  0  0  0  0
  1 13  1  0
  1 42  1  0
  1 49  2  0
 35  2  1  6
  2 50  1  0
  3  5  2  0
  3 45  1  0
  3 52  1  0
  4 17  1  0
  4 20  1  0
  4 46  2  0
  5 22  1  0
  5 46  1  0
  6 18  2  0
  6 19  1  0
  6 53  1  0
  7  8  1  0
  7 11  1  0
  7 42  1  0
  8  9  1  0
  9 10  1  0
  9 52  1  0
 10 42  1  0
 11 43  1  0
 11 48  2  0
 12 23  1  6
 12 28  1  0
 12 33  1  0
 12 43  1  0
 13 15  1  0
 13 44  1  0
 14 44  1  0
 14 50  1  0
 14 51  2  0
 15 16  1  0
 16 34  1  0
 17 18  1  0
 17 45  2  0
 19 20  2  0
 21 53  1  0
 23 47  1  0
 23 54  2  0
 24 25  1  0
 24 26  1  0
 24 27  1  6
 24 57  1  0
 25 26  1  0
 28 29  1  0
 28 33  1  0
 29 30  2  3
 30 31  1  0
 31 32  1  0
 32 34  1  0
 35 36  1  0
 35 37  1  0
 35 38  1  0
 36 37  1  0
 38 39  1  1
 38 40  1  0
 38 41  1  0
 57 47  1  1
 55 57  2  0
 56 57  2  0
  2 58  1  0
  2 59  1  0
  7 60  1  6
  8 61  1  0
  8 62  1  0
  9 63  1  1
 10 64  1  0
 10 65  1  0
 13 66  1  1
 15 67  1  0
 15 68  1  0
 16 69  1  0
 16 70  1  0
 18 71  1  0
 19 72  1  0
 20 73  1  0
 21 74  1  0
 21 75  1  0
 21 76  1  0
 22 77  1  0
 22 78  1  0
 22 79  1  0
 25 80  1  0
 25 81  1  0
 26 82  1  0
 26 83  1  0
 27 84  1  0
 27 85  1  0
 27 86  1  0
 28 87  1  1
 29 88  1  0
 30 89  1  0
 31 90  1  0
 31 91  1  0
 32 92  1  0
 32 93  1  0
 33 94  1  0
 33 95  1  0
 34 96  1  0
 34 97  1  0
 36 98  1  0
 36 99  1  0
 37100  1  0
 37101  1  0
 43102  1  0
 44103  1  0
 47104  1  0
M  END
>  <filename_input>  (11) 
7MMH_ZJY_docked.sdf

>  <pdb_id>  (11) 
7MMH_ZJY

>  <pose_rank>  (11) 
10

>  <num_atoms_heavy>  (11) 
57

>  <num_torsions>  (11) 
11

>  <pose>  (11) 
[-14.900806054981421, 15.062158725919252, -15.532192610721346, -2.966202427508513, -0.2269068429162838, 1.6595982930864892, -14.348015653782292, -10.447290372528393, -12.007681039698168, -2.9448146726585898, -0.7653291409360108, 6.895733531620748, 5.5909928554469825, -1.3113486507268306, 30.64227070419147, -19.50396871890584, -1.4548812209658128]

>  <energy>  (11) 
-661.9087604422868

>  <inter_energy>  (11) 
-710.0900678325294

>  <intra_energy>  (11) 
64.33459828627116

>  <rmsd>  (11) 
9.26402

>  <sdf_rank>  (11) 
0

$$$$

     RDKit          3D

104110  0  0  0  0  0  0  0  0999 V2000
  -16.8746   19.5234  -16.9671 C   0  0  0  0  0  0  0  0  0  0  0  0
  -21.3845   21.3777  -19.0351 C   0  0  0  0  0  0  0  0  0  0  0  0
  -13.4196   23.0077  -16.3134 C   0  0  0  0  0  0  0  0  0  0  0  0
  -10.9620   24.1361  -17.2111 C   0  0  0  0  0  0  0  0  0  0  0  0
  -13.3981   24.2050  -17.2715 C   0  0  0  0  0  0  0  0  0  0  0  0
   -8.3779   22.9081  -16.2440 C   0  0  0  0  0  0  0  0  0  0  0  0
  -14.4056   19.7717  -16.2484 C   0  0  1  0  0  0  0  0  0  0  0  0
  -13.6762   20.5212  -14.9955 C   0  0  0  0  0  0  0  0  0  0  0  0
  -14.4600   21.5855  -14.8237 C   0  0  2  0  0  0  0  0  0  0  0  0
  -15.9304   20.9823  -14.8623 C   0  0  0  0  0  0  0  0  0  0  0  0
  -14.4438   18.2908  -16.3673 C   0  0  0  0  0  0  0  0  0  0  0  0
  -13.6689   16.4178  -17.9101 C   0  0  2  0  0  0  0  0  0  0  0  0
  -18.3260   19.8784  -16.6236 C   0  0  2  0  0  0  0  0  0  0  0  0
  -19.7592   19.7760  -18.6252 C   0  0  0  0  0  0  0  0  0  0  0  0
  -19.0842   18.5663  -16.3910 C   0  0  0  0  0  0  0  0  0  0  0  0
  -18.4940   17.8040  -15.1605 C   0  0  0  0  0  0  0  0  0  0  0  0
  -10.9829   22.9350  -16.2690 C   0  0  0  0  0  0  0  0  0  0  0  0
   -9.6923   22.2869  -15.7490 C   0  0  0  0  0  0  0  0  0  0  0  0
   -8.3491   24.1031  -17.1993 C   0  0  0  0  0  0  0  0  0  0  0  0
   -9.6227   24.7492  -17.6947 C   0  0  0  0  0  0  0  0  0  0  0  0
   -6.7767   21.2038  -16.5062 C   0  0  0  0  0  0  0  0  0  0  0  0
  -14.7116   24.8230  -17.7469 C   0  0  0  0  0  0  0  0  0  0  0  0
  -12.9537   15.3493  -17.1235 C   0  0  0  0  0  0  0  0  0  0  0  0
  -13.9462   11.8062  -15.8448 C   0  0  2  0  0  0  0  0  0  0  0  0
  -13.3294   11.0568  -17.0239 C   0  0  0  0  0  0  0  0  0  0  0  0
  -13.0848   10.5630  -15.5881 C   0  0  0  0  0  0  0  0  0  0  0  0
  -15.4722   11.6948  -15.6137 C   0  0  0  0  0  0  0  0  0  0  0  0
  -15.0434   15.8486  -18.3649 C   0  0  2  0  0  0  0  0  0  0  0  0
  -15.7688   14.5090  -18.2068 C   0  0  0  0  0  0  0  0  0  0  0  0
  -16.9930   14.3406  -17.6571 C   0  0  0  0  0  0  0  0  0  0  0  0
  -17.8357   15.5110  -17.1033 C   0  0  0  0  0  0  0  0  0  0  0  0
  -18.0958   15.3115  -15.5924 C   0  0  0  0  0  0  0  0  0  0  0  0
  -13.8700   15.9102  -19.3508 C   0  0  0  0  0  0  0  0  0  0  0  0
  -19.1218   16.3761  -15.0913 C   0  0  0  0  0  0  0  0  0  0  0  0
  -22.7009   20.6117  -19.1982 C   0  0  1  0  0  0  0  0  0  0  0  0
  -23.6534   21.2268  -20.2314 C   0  0  0  0  0  0  0  0  0  0  0  0
  -22.9410   19.9002  -20.5386 C   0  0  0  0  0  0  0  0  0  0  0  0
  -23.3801   19.9981  -17.9492 C   0  0  2  0  0  0  0  0  0  0  0  0
  -22.6787   20.3946  -16.8378 F   0  0  0  0  0  0  0  0  0  0  0  0
  -23.3603   18.6519  -18.0523 F   0  0  0  0  0  0  0  0  0  0  0  0
  -24.6735   20.4584  -17.9414 F   0  0  0  0  0  0  0  0  0  0  0  0
  -15.7823   20.0271  -16.1387 N   0  0  0  0  0  0  0  0  0  0  0  0
  -13.6491   17.8088  -17.4560 N   0  0  0  0  0  0  0  0  0  0  0  0
  -18.9691   20.5489  -17.7019 N   0  0  0  0  0  0  0  0  0  0  0  0
  -12.2396   22.3526  -15.8219 N   0  0  0  0  0  0  0  0  0  0  0  0
  -12.1627   24.7731  -17.7252 N   0  0  0  0  0  0  0  0  0  0  0  0
  -13.8156   14.5037  -16.3689 N   0  0  0  0  0  0  0  0  0  0  0  0
  -15.0671   17.5838  -15.6383 O   0  0  0  0  0  0  0  0  0  0  0  0
  -16.6523   18.8369  -17.9114 O   0  0  0  0  0  0  0  0  0  0  0  0
  -20.4236   20.5236  -19.6120 O   0  0  0  0  0  0  0  0  0  0  0  0
  -19.8392   18.5759  -18.5725 O   0  0  0  0  0  0  0  0  0  0  0  0
  -14.6454   22.4804  -15.9554 O   0  0  0  0  0  0  0  0  0  0  0  0
   -7.1896   22.3549  -15.8138 O   0  0  0  0  0  0  0  0  0  0  0  0
  -11.7639   15.2228  -17.0369 O   0  0  0  0  0  0  0  0  0  0  0  0
  -13.0446   13.5798  -14.0087 O   0  0  0  0  0  0  0  0  0  0  0  0
  -11.7187   13.1248  -15.9374 O   0  0  0  0  0  0  0  0  0  0  0  0
  -13.0872   13.3478  -15.4601 S   0  0  1  0  0  0  0  0  0  0  0  0
  -21.4227   22.3399  -19.5667 H   0  0  0  0  0  0  0  0  0  0  0  0
  -21.1615   21.6206  -17.9857 H   0  0  0  0  0  0  0  0  0  0  0  0
  -13.7982   20.1577  -17.0804 H   0  0  0  0  0  0  0  0  0  0  0  0
  -13.6636   19.8837  -14.0991 H   0  0  0  0  0  0  0  0  0  0  0  0
  -12.6200   20.7693  -15.1771 H   0  0  0  0  0  0  0  0  0  0  0  0
  -14.0282   22.1088  -13.9579 H   0  0  0  0  0  0  0  0  0  0  0  0
  -16.1669   20.4157  -13.9495 H   0  0  0  0  0  0  0  0  0  0  0  0
  -16.7419   21.7227  -14.9197 H   0  0  0  0  0  0  0  0  0  0  0  0
  -18.3263   20.5342  -15.7405 H   0  0  0  0  0  0  0  0  0  0  0  0
  -20.1450   18.7894  -16.2039 H   0  0  0  0  0  0  0  0  0  0  0  0
  -18.9820   17.9329  -17.2845 H   0  0  0  0  0  0  0  0  0  0  0  0
  -17.4025   17.7211  -15.2682 H   0  0  0  0  0  0  0  0  0  0  0  0
  -18.7275   18.3553  -14.2378 H   0  0  0  0  0  0  0  0  0  0  0  0
   -9.7079   21.4279  -15.0621 H   0  0  0  0  0  0  0  0  0  0  0  0
   -7.3795   24.5010  -17.5333 H   0  0  0  0  0  0  0  0  0  0  0  0
   -9.6002   25.6175  -18.3696 H   0  0  0  0  0  0  0  0  0  0  0  0
   -6.4965   20.4225  -15.7843 H   0  0  0  0  0  0  0  0  0  0  0  0
   -7.6007   20.8407  -17.1381 H   0  0  0  0  0  0  0  0  0  0  0  0
   -5.9099   21.4472  -17.1381 H   0  0  0  0  0  0  0  0  0  0  0  0
  -15.3190   25.1088  -16.8755 H   0  0  0  0  0  0  0  0  0  0  0  0
  -14.4985   25.7153  -18.3538 H   0  0  0  0  0  0  0  0  0  0  0  0
  -15.2632   24.0899  -18.3538 H   0  0  0  0  0  0  0  0  0  0  0  0
  -13.9713   10.4765  -17.7030 H   0  0  0  0  0  0  0  0  0  0  0  0
  -12.6849   11.3353  -17.8706 H   0  0  0  0  0  0  0  0  0  0  0  0
  -12.0893   10.6669  -15.1317 H   0  0  0  0  0  0  0  0  0  0  0  0
  -13.2279    9.6112  -15.0556 H   0  0  0  0  0  0  0  0  0  0  0  0
  -15.6793   11.6797  -14.5335 H   0  0  0  0  0  0  0  0  0  0  0  0
  -15.9764   12.5585  -16.0717 H   0  0  0  0  0  0  0  0  0  0  0  0
  -15.8457   10.7670  -16.0717 H   0  0  0  0  0  0  0  0  0  0  0  0
  -16.0461   16.2485  -18.1538 H   0  0  0  0  0  0  0  0  0  0  0  0
  -15.2512   13.6092  -18.5706 H   0  0  0  0  0  0  0  0  0  0  0  0
  -17.4077   13.3233  -17.6017 H   0  0  0  0  0  0  0  0  0  0  0  0
  -17.2925   16.4551  -17.2573 H   0  0  0  0  0  0  0  0  0  0  0  0
  -18.7993   15.5425  -17.6330 H   0  0  0  0  0  0  0  0  0  0  0  0
  -18.5013   14.3034  -15.4210 H   0  0  0  0  0  0  0  0  0  0  0  0
  -17.1510   15.4276  -15.0412 H   0  0  0  0  0  0  0  0  0  0  0  0
  -13.8930   16.6260  -20.1857 H   0  0  0  0  0  0  0  0  0  0  0  0
  -13.3582   15.1759  -19.9904 H   0  0  0  0  0  0  0  0  0  0  0  0
  -19.3997   16.1514  -14.0510 H   0  0  0  0  0  0  0  0  0  0  0  0
  -20.0143   16.3448  -15.7335 H   0  0  0  0  0  0  0  0  0  0  0  0
  -24.7369   21.2382  -20.0422 H   0  0  0  0  0  0  0  0  0  0  0  0
  -23.7307   22.2024  -20.7338 H   0  0  0  0  0  0  0  0  0  0  0  0
  -22.1426   19.8664  -21.2944 H   0  0  0  0  0  0  0  0  0  0  0  0
  -23.2664   18.8930  -20.8379 H   0  0  0  0  0  0  0  0  0  0  0  0
  -13.0326   18.4741  -17.9440 H   0  0  0  0  0  0  0  0  0  0  0  0
  -18.8715   21.5675  -17.8195 H   0  0  0  0  0  0  0  0  0  0  0  0
  -14.8397   14.6116  -16.3922 H   0  0  0  0  0  0  0  0  0  0  0  0
  1 13  1  0
  1 42  1  0
  1 49  2  0
 35  2  1  1
  2 50  1  0
  3  5  2  0
  3 45  1  0
  3 52  1  0
  4 17  1  0
  4 20  1  0
  4 46  2  0
  5 22  1  0
  5 46  1  0
  6 18  2  0
  6 19  1  0
  6 53  1  0
  7  8  1  0
  7 11  1  0
  7 42  1  0
  8  9  1  0
  9 10  1  0
  9 52  1  0
 10 42  1  0
 11 43  1  0
 11 48  2  0
 12 23  1  1
 12 28  1  0
 12 33  1  0
 12 43  1  0
 13 15  1  0
 13 44  1  0
 14 44  1  0
 14 50  1  0
 14 51  2  0
 15 16  1  0
 16 34  1  0
 17 18  1  0
 17 45  2  0
 19 20  2  0
 21 53  1  0
 23 47  1  0
 23 54  2  0
 24 25  1  0
 24 26  1  0
 24 27  1  6
 24 57  1  0
 25 26  1  0
 28 29  1  0
 28 33  1  0
 29 30  2  3
 30 31  1  0
 31 32  1  0
 32 34  1  0
 35 36  1  0
 35 37  1  0
 35 38  1  0
 36 37  1  0
 38 39  1  1
 38 40  1  0
 38 41  1  0
 57 47  1  6
 55 57  2  0
 56 57  2  0
  2 58  1  0
  2 59  1  0
  7 60  1  6
  8 61  1  0
  8 62  1  0
  9 63  1  1
 10 64  1  0
 10 65  1  0
 13 66  1  1
 15 67  1  0
 15 68  1  0
 16 69  1  0
 16 70  1  0
 18 71  1  0
 19 72  1  0
 20 73  1  0
 21 74  1  0
 21 75  1  0
 21 76  1  0
 22 77  1  0
 22 78  1  0
 22 79  1  0
 25 80  1  0
 25 81  1  0
 26 82  1  0
 26 83  1  0
 27 84  1  0
 27 85  1  0
 27 86  1  0
 28 87  1  6
 29 88  1  0
 30 89  1  0
 31 90  1  0
 31 91  1  0
 32 92  1  0
 32 93  1  0
 33 94  1  0
 33 95  1  0
 34 96  1  0
 34 97  1  0
 36 98  1  0
 36 99  1  0
 37100  1  0
 37101  1  0
 43102  1  0
 44103  1  0
 47104  1  0
M  END
>  <filename_input>  (12) 
7MMH_ZJY_docked.sdf

>  <pdb_id>  (12) 
7MMH_ZJY

>  <pose_rank>  (12) 
11

>  <num_atoms_heavy>  (12) 
57

>  <num_torsions>  (12) 
11

>  <pose>  (12) 
[-16.8745963081239, 19.523438727167843, -16.9670924645616, 3.1533253583297354, -0.47512020317234666, 0.33921250123971497, 3.1275531281960394, -4.367105119853271, 1.8565392518639832, 3.0841226758567726, 1.0914145609963803, 1.9013725936743309, 0.7428019208397809, -1.9426457819693923, -5.860700253500091, 0.5634302803030615, -4.876666179784195]

>  <energy>  (12) 
-466.1110503591851

>  <inter_energy>  (12) 
-645.089394081134

>  <intra_energy>  (12) 
173.02926855385314

>  <rmsd>  (12) 
8.62043

>  <sdf_rank>  (12) 
0

$$$$

     RDKit          3D

104110  0  0  0  0  0  0  0  0999 V2000
  -15.7384   20.5572  -17.1400 C   0  0  0  0  0  0  0  0  0  0  0  0
  -19.1056   19.2418  -14.4783 C   0  0  0  0  0  0  0  0  0  0  0  0
  -13.9117   15.6930  -17.3354 C   0  0  0  0  0  0  0  0  0  0  0  0
  -12.7692   13.1232  -16.8771 C   0  0  0  0  0  0  0  0  0  0  0  0
  -13.6577   15.1785  -15.9131 C   0  0  0  0  0  0  0  0  0  0  0  0
  -12.0469   11.4239  -19.2670 C   0  0  0  0  0  0  0  0  0  0  0  0
  -13.3894   19.4858  -17.2313 C   0  0  1  0  0  0  0  0  0  0  0  0
  -12.6868   18.4176  -18.2457 C   0  0  0  0  0  0  0  0  0  0  0  0
  -13.7157   17.6338  -18.5678 C   0  0  2  0  0  0  0  0  0  0  0  0
  -14.8817   18.6604  -18.9057 C   0  0  0  0  0  0  0  0  0  0  0  0
  -12.9703   20.9105  -17.1727 C   0  0  0  0  0  0  0  0  0  0  0  0
  -11.9876   22.6096  -15.5491 C   0  0  2  0  0  0  0  0  0  0  0  0
  -17.1139   20.6308  -17.8130 C   0  0  2  0  0  0  0  0  0  0  0  0
  -18.4968   18.9266  -16.6931 C   0  0  0  0  0  0  0  0  0  0  0  0
  -17.3352   22.0793  -18.2643 C   0  0  0  0  0  0  0  0  0  0  0  0
  -16.2755   22.4855  -19.3390 C   0  0  0  0  0  0  0  0  0  0  0  0
  -13.0083   13.6409  -18.2933 C   0  0  0  0  0  0  0  0  0  0  0  0
  -12.6621   12.8055  -19.5336 C   0  0  0  0  0  0  0  0  0  0  0  0
  -11.7913   10.9041  -17.8507 C   0  0  0  0  0  0  0  0  0  0  0  0
  -12.1504   11.7231  -16.6320 C   0  0  0  0  0  0  0  0  0  0  0  0
  -11.5261   11.3285  -21.5598 C   0  0  0  0  0  0  0  0  0  0  0  0
  -14.0352   16.0436  -14.7122 C   0  0  0  0  0  0  0  0  0  0  0  0
  -10.8108   23.3149  -16.1731 C   0  0  0  0  0  0  0  0  0  0  0  0
   -7.7906   22.4093  -18.1125 C   0  0  2  0  0  0  0  0  0  0  0  0
   -7.8594   20.9014  -17.8815 C   0  0  0  0  0  0  0  0  0  0  0  0
   -8.9620   21.6048  -18.6904 C   0  0  0  0  0  0  0  0  0  0  0  0
   -6.7302   22.9599  -19.0958 C   0  0  0  0  0  0  0  0  0  0  0  0
  -13.1675   23.6195  -15.4591 C   0  0  2  0  0  0  0  0  0  0  0  0
  -13.3661   25.0919  -15.8310 C   0  0  0  0  0  0  0  0  0  0  0  0
  -14.3176   25.5681  -16.6658 C   0  0  0  0  0  0  0  0  0  0  0  0
  -15.3515   24.6608  -17.3693 C   0  0  0  0  0  0  0  0  0  0  0  0
  -15.1952   24.7662  -18.9038 C   0  0  0  0  0  0  0  0  0  0  0  0
  -12.3236   23.3070  -14.2170 C   0  0  0  0  0  0  0  0  0  0  0  0
  -16.3749   24.0210  -19.6039 C   0  0  0  0  0  0  0  0  0  0  0  0
  -20.3399   19.0344  -13.5953 C   0  0  1  0  0  0  0  0  0  0  0  0
  -20.1676   17.9400  -12.5343 C   0  0  0  0  0  0  0  0  0  0  0  0
  -20.2180   19.4169  -12.1123 C   0  0  0  0  0  0  0  0  0  0  0  0
  -21.7495   19.1311  -14.2289 C   0  0  2  0  0  0  0  0  0  0  0  0
  -21.8249   20.3046  -14.9371 F   0  0  0  0  0  0  0  0  0  0  0  0
  -22.6764   19.1235  -13.2470 F   0  0  0  0  0  0  0  0  0  0  0  0
  -21.8941   18.0270  -15.0319 F   0  0  0  0  0  0  0  0  0  0  0  0
  -14.7152   19.6557  -17.6627 N   0  0  0  0  0  0  0  0  0  0  0  0
  -12.3211   21.2394  -15.9401 N   0  0  0  0  0  0  0  0  0  0  0  0
  -18.1594   20.3111  -16.9016 N   0  0  0  0  0  0  0  0  0  0  0  0
  -13.5804   14.9591  -18.5248 N   0  0  0  0  0  0  0  0  0  0  0  0
  -13.0818   13.8866  -15.6808 N   0  0  0  0  0  0  0  0  0  0  0  0
   -9.5729   22.6264  -16.0281 N   0  0  0  0  0  0  0  0  0  0  0  0
  -13.1550   21.6918  -18.0533 O   0  0  0  0  0  0  0  0  0  0  0  0
  -15.5180   21.2400  -16.1924 O   0  0  0  0  0  0  0  0  0  0  0  0
  -19.4834   18.6937  -15.7202 O   0  0  0  0  0  0  0  0  0  0  0  0
  -17.9868   18.0286  -17.3119 O   0  0  0  0  0  0  0  0  0  0  0  0
  -14.4244   16.9670  -17.4866 O   0  0  0  0  0  0  0  0  0  0  0  0
  -11.7080   10.6384  -20.3492 O   0  0  0  0  0  0  0  0  0  0  0  0
  -10.8372   24.3981  -16.6882 O   0  0  0  0  0  0  0  0  0  0  0  0
   -7.1015   23.5396  -15.7507 O   0  0  0  0  0  0  0  0  0  0  0  0
   -8.6206   24.6828  -17.1896 O   0  0  0  0  0  0  0  0  0  0  0  0
   -8.2500   23.3694  -16.6530 S   0  0  1  0  0  0  0  0  0  0  0  0
  -18.8705   20.3118  -14.5777 H   0  0  0  0  0  0  0  0  0  0  0  0
  -18.2022   18.7710  -14.0633 H   0  0  0  0  0  0  0  0  0  0  0  0
  -13.1378   19.0240  -16.2651 H   0  0  0  0  0  0  0  0  0  0  0  0
  -12.2722   18.9195  -19.1323 H   0  0  0  0  0  0  0  0  0  0  0  0
  -11.8351   17.8780  -17.8059 H   0  0  0  0  0  0  0  0  0  0  0  0
  -13.2984   16.9128  -19.2861 H   0  0  0  0  0  0  0  0  0  0  0  0
  -14.7157   19.1701  -19.8662 H   0  0  0  0  0  0  0  0  0  0  0  0
  -15.8811   18.2161  -19.0227 H   0  0  0  0  0  0  0  0  0  0  0  0
  -17.1335   19.9155  -18.6484 H   0  0  0  0  0  0  0  0  0  0  0  0
  -18.3428   22.1743  -18.6953 H   0  0  0  0  0  0  0  0  0  0  0  0
  -17.2314   22.7432  -17.3934 H   0  0  0  0  0  0  0  0  0  0  0  0
  -15.2676   22.2399  -18.9731 H   0  0  0  0  0  0  0  0  0  0  0  0
  -16.4671   21.9364  -20.2727 H   0  0  0  0  0  0  0  0  0  0  0  0
  -12.8440   13.1749  -20.5536 H   0  0  0  0  0  0  0  0  0  0  0  0
  -11.3359    9.9118  -17.7163 H   0  0  0  0  0  0  0  0  0  0  0  0
  -11.9798   11.3418  -15.6144 H   0  0  0  0  0  0  0  0  0  0  0  0
  -11.2510   12.3725  -21.3489 H   0  0  0  0  0  0  0  0  0  0  0  0
  -10.7240   10.8478  -22.1390 H   0  0  0  0  0  0  0  0  0  0  0  0
  -12.4610   11.3055  -22.1390 H   0  0  0  0  0  0  0  0  0  0  0  0
  -13.7997   15.5039  -13.7830 H   0  0  0  0  0  0  0  0  0  0  0  0
  -13.4657   16.9841  -14.7443 H   0  0  0  0  0  0  0  0  0  0  0  0
  -15.1121   16.2657  -14.7443 H   0  0  0  0  0  0  0  0  0  0  0  0
   -7.1463   20.2344  -18.3882 H   0  0  0  0  0  0  0  0  0  0  0  0
   -7.8410   20.2489  -16.9961 H   0  0  0  0  0  0  0  0  0  0  0  0
   -9.9705   21.7172  -18.2657 H   0  0  0  0  0  0  0  0  0  0  0  0
   -9.3997   21.4734  -19.6910 H   0  0  0  0  0  0  0  0  0  0  0  0
   -5.8940   23.3940  -18.5280 H   0  0  0  0  0  0  0  0  0  0  0  0
   -6.3575   22.1414  -19.7292 H   0  0  0  0  0  0  0  0  0  0  0  0
   -7.1852   23.7356  -19.7292 H   0  0  0  0  0  0  0  0  0  0  0  0
  -14.1738   23.5269  -15.8937 H   0  0  0  0  0  0  0  0  0  0  0  0
  -12.6776   25.8228  -15.3818 H   0  0  0  0  0  0  0  0  0  0  0  0
  -14.3573   26.6514  -16.8526 H   0  0  0  0  0  0  0  0  0  0  0  0
  -15.1914   23.6179  -17.0582 H   0  0  0  0  0  0  0  0  0  0  0  0
  -16.3644   24.9845  -17.0879 H   0  0  0  0  0  0  0  0  0  0  0  0
  -15.2040   25.8254  -19.2005 H   0  0  0  0  0  0  0  0  0  0  0  0
  -14.2427   24.3065  -19.2059 H   0  0  0  0  0  0  0  0  0  0  0  0
  -12.7597   22.7275  -13.3900 H   0  0  0  0  0  0  0  0  0  0  0  0
  -11.7546   23.9129  -13.4965 H   0  0  0  0  0  0  0  0  0  0  0  0
  -16.3300   24.2065  -20.6873 H   0  0  0  0  0  0  0  0  0  0  0  0
  -17.3267   24.3944  -19.1982 H   0  0  0  0  0  0  0  0  0  0  0  0
  -21.0065   17.2704  -12.2936 H   0  0  0  0  0  0  0  0  0  0  0  0
  -19.4613   17.1109  -12.3800 H   0  0  0  0  0  0  0  0  0  0  0  0
  -19.3088   19.9158  -11.7456 H   0  0  0  0  0  0  0  0  0  0  0  0
  -20.8243   20.0049  -11.4076 H   0  0  0  0  0  0  0  0  0  0  0  0
  -12.0764   20.4736  -15.2963 H   0  0  0  0  0  0  0  0  0  0  0  0
  -18.6650   21.0557  -16.4007 H   0  0  0  0  0  0  0  0  0  0  0  0
   -9.5112   21.7126  -15.5569 H   0  0  0  0  0  0  0  0  0  0  0  0
  1 13  1  0
  1 42  1  0
  1 49  2  0
 35  2  1  6
  2 50  1  0
  3  5  2  0
  3 45  1  0
  3 52  1  0
  4 17  1  0
  4 20  1  0
  4 46  2  0
  5 22  1  0
  5 46  1  0
  6 18  2  0
  6 19  1  0
  6 53  1  0
  7  8  1  0
  7 11  1  0
  7 42  1  0
  8  9  1  0
  9 10  1  0
  9 52  1  0
 10 42  1  0
 11 43  1  0
 11 48  2  0
 12 23  1  6
 12 28  1  0
 12 33  1  0
 12 43  1  0
 13 15  1  0
 13 44  1  0
 14 44  1  0
 14 50  1  0
 14 51  2  0
 15 16  1  0
 16 34  1  0
 17 18  1  0
 17 45  2  0
 19 20  2  0
 21 53  1  0
 23 47  1  0
 23 54  2  0
 24 25  1  0
 24 26  1  0
 24 27  1  6
 24 57  1  0
 25 26  1  0
 28 29  1  0
 28 33  1  0
 29 30  2  3
 30 31  1  0
 31 32  1  0
 32 34  1  0
 35 36  1  0
 35 37  1  0
 35 38  1  0
 36 37  1  0
 38 39  1  6
 38 40  1  0
 38 41  1  0
 57 47  1  1
 55 57  2  0
 56 57  2  0
  2 58  1  0
  2 59  1  0
  7 60  1  1
  8 61  1  0
  8 62  1  0
  9 63  1  6
 10 64  1  0
 10 65  1  0
 13 66  1  6
 15 67  1  0
 15 68  1  0
 16 69  1  0
 16 70  1  0
 18 71  1  0
 19 72  1  0
 20 73  1  0
 21 74  1  0
 21 75  1  0
 21 76  1  0
 22 77  1  0
 22 78  1  0
 22 79  1  0
 25 80  1  0
 25 81  1  0
 26 82  1  0
 26 83  1  0
 27 84  1  0
 27 85  1  0
 27 86  1  0
 28 87  1  1
 29 88  1  0
 30 89  1  0
 31 90  1  0
 31 91  1  0
 32 92  1  0
 32 93  1  0
 33 94  1  0
 33 95  1  0
 34 96  1  0
 34 97  1  0
 36 98  1  0
 36 99  1  0
 37100  1  0
 37101  1  0
 43102  1  0
 44103  1  0
 47104  1  0
M  END
>  <filename_input>  (13) 
7MMH_ZJY_docked.sdf

>  <pdb_id>  (13) 
7MMH_ZJY

>  <pose_rank>  (13) 
12

>  <num_atoms_heavy>  (13) 
57

>  <num_torsions>  (13) 
11

>  <pose>  (13) 
[-15.73838792096217, 20.557244232907653, -17.139984156539857, -1.2188096694472093, -4.153327839028125, -4.605233897072161, 6.2704796241085585, -4.237657165702036, 0.32539106192809214, 0.5832801982703775, 0.1021930095519483, -0.9127540908863947, 1.1265598215991521, 2.029153711198783, -0.17114310305084124, -0.419078969320367, 0.35943801090937966]

>  <energy>  (13) 
-737.880729306399

>  <inter_energy>  (13) 
-808.5517692718896

>  <intra_energy>  (13) 
74.63907166713287

>  <rmsd>  (13) 
2.1843

>  <sdf_rank>  (13) 
0

$$$$

     RDKit          3D

104110  0  0  0  0  0  0  0  0999 V2000
  -15.7792   15.9535  -15.5995 C   0  0  0  0  0  0  0  0  0  0  0  0
  -20.4307   18.1013  -12.9513 C   0  0  0  0  0  0  0  0  0  0  0  0
  -14.3287   20.5584  -17.5083 C   0  0  0  0  0  0  0  0  0  0  0  0
  -13.8176   23.0066  -18.8738 C   0  0  0  0  0  0  0  0  0  0  0  0
  -14.2408   21.8881  -16.7494 C   0  0  0  0  0  0  0  0  0  0  0  0
  -13.4652   22.9341  -21.8723 C   0  0  0  0  0  0  0  0  0  0  0  0
  -13.8513   16.8101  -17.0908 C   0  0  1  0  0  0  0  0  0  0  0  0
  -12.7252   17.9761  -16.9014 C   0  0  0  0  0  0  0  0  0  0  0  0
  -13.3997   18.8935  -16.2087 C   0  0  2  0  0  0  0  0  0  0  0  0
  -14.1178   18.0524  -15.0665 C   0  0  0  0  0  0  0  0  0  0  0  0
  -13.4984   15.3664  -17.0967 C   0  0  0  0  0  0  0  0  0  0  0  0
  -13.5883   13.3227  -18.6145 C   0  0  2  0  0  0  0  0  0  0  0  0
  -16.5037   16.1249  -14.2593 C   0  0  2  0  0  0  0  0  0  0  0  0
  -18.7218   16.5701  -13.2832 C   0  0  0  0  0  0  0  0  0  0  0  0
  -16.3741   14.8065  -13.4874 C   0  0  0  0  0  0  0  0  0  0  0  0
  -14.8745   14.5069  -13.1641 C   0  0  0  0  0  0  0  0  0  0  0  0
  -13.9196   21.6852  -19.6315 C   0  0  0  0  0  0  0  0  0  0  0  0
  -13.7394   21.6048  -21.1537 C   0  0  0  0  0  0  0  0  0  0  0  0
  -13.3756   24.2642  -21.1213 C   0  0  0  0  0  0  0  0  0  0  0  0
  -13.5361   24.3360  -19.6200 C   0  0  0  0  0  0  0  0  0  0  0  0
  -13.4684   21.6605  -23.8510 C   0  0  0  0  0  0  0  0  0  0  0  0
  -14.4121   21.9110  -15.2317 C   0  0  0  0  0  0  0  0  0  0  0  0
  -12.2458   12.6388  -18.6571 C   0  0  0  0  0  0  0  0  0  0  0  0
  -10.5531   10.2701  -21.5110 C   0  0  2  0  0  0  0  0  0  0  0  0
  -10.4910    8.7443  -21.5149 C   0  0  0  0  0  0  0  0  0  0  0  0
  -11.8020    9.4598  -21.8815 C   0  0  0  0  0  0  0  0  0  0  0  0
   -9.8264   11.0433  -22.6374 C   0  0  0  0  0  0  0  0  0  0  0  0
  -14.5670   12.4224  -17.8072 C   0  0  2  0  0  0  0  0  0  0  0  0
  -14.4643   11.0643  -17.1066 C   0  0  0  0  0  0  0  0  0  0  0  0
  -14.7370   10.8325  -15.8024 C   0  0  0  0  0  0  0  0  0  0  0  0
  -15.1979   11.9398  -14.8287 C   0  0  0  0  0  0  0  0  0  0  0  0
  -14.1752   12.0980  -13.6801 C   0  0  0  0  0  0  0  0  0  0  0  0
  -14.6133   12.4303  -19.3404 C   0  0  0  0  0  0  0  0  0  0  0  0
  -14.7514   13.0590  -12.5929 C   0  0  0  0  0  0  0  0  0  0  0  0
  -21.6989   18.5168  -13.7032 C   0  0  1  0  0  0  0  0  0  0  0  0
  -21.5703   19.8518  -14.4475 C   0  0  0  0  0  0  0  0  0  0  0  0
  -21.6342   18.5355  -15.2381 C   0  0  0  0  0  0  0  0  0  0  0  0
  -23.0825   18.2411  -13.0649 C   0  0  2  0  0  0  0  0  0  0  0  0
  -23.7435   19.4371  -12.9338 F   0  0  0  0  0  0  0  0  0  0  0  0
  -22.9043   17.6762  -11.8514 F   0  0  0  0  0  0  0  0  0  0  0  0
  -23.7353   17.3737  -13.9053 F   0  0  0  0  0  0  0  0  0  0  0  0
  -14.6727   16.8393  -15.9519 N   0  0  0  0  0  0  0  0  0  0  0  0
  -13.6766   14.7650  -18.3834 N   0  0  0  0  0  0  0  0  0  0  0  0
  -17.8939   16.3678  -14.4442 N   0  0  0  0  0  0  0  0  0  0  0  0
  -14.1933   20.4378  -18.9332 N   0  0  0  0  0  0  0  0  0  0  0  0
  -13.9851   23.1209  -17.4348 N   0  0  0  0  0  0  0  0  0  0  0  0
  -12.0663   11.7730  -19.7731 N   0  0  0  0  0  0  0  0  0  0  0  0
  -13.1111   14.7755  -16.1371 O   0  0  0  0  0  0  0  0  0  0  0  0
  -16.1288   15.0949  -16.3432 O   0  0  0  0  0  0  0  0  0  0  0  0
  -20.0643   16.8823  -13.5557 O   0  0  0  0  0  0  0  0  0  0  0  0
  -18.3066   16.4675  -12.1578 O   0  0  0  0  0  0  0  0  0  0  0  0
  -14.6262   19.4159  -16.7907 O   0  0  0  0  0  0  0  0  0  0  0  0
  -13.3064   22.9168  -23.2426 O   0  0  0  0  0  0  0  0  0  0  0  0
  -11.3954   12.7142  -17.8143 O   0  0  0  0  0  0  0  0  0  0  0  0
  -10.4085    9.9351  -18.8283 O   0  0  0  0  0  0  0  0  0  0  0  0
   -9.5244   11.9234  -19.8029 O   0  0  0  0  0  0  0  0  0  0  0  0
  -10.6373   10.9697  -19.8478 S   0  0  1  0  0  0  0  0  0  0  0  0
  -19.6378   18.8537  -13.0751 H   0  0  0  0  0  0  0  0  0  0  0  0
  -20.5912   18.0067  -11.8672 H   0  0  0  0  0  0  0  0  0  0  0  0
  -14.2236   17.0666  -18.0936 H   0  0  0  0  0  0  0  0  0  0  0  0
  -11.8562   17.6064  -16.3372 H   0  0  0  0  0  0  0  0  0  0  0  0
  -12.3060   18.3498  -17.8472 H   0  0  0  0  0  0  0  0  0  0  0  0
  -12.6663   19.6916  -16.0214 H   0  0  0  0  0  0  0  0  0  0  0  0
  -13.4077   17.7106  -14.2990 H   0  0  0  0  0  0  0  0  0  0  0  0
  -14.8767   18.5978  -14.4864 H   0  0  0  0  0  0  0  0  0  0  0  0
  -16.0571   16.9774  -13.7266 H   0  0  0  0  0  0  0  0  0  0  0  0
  -16.9395   14.8807  -12.5467 H   0  0  0  0  0  0  0  0  0  0  0  0
  -16.7745   13.9905  -14.1070 H   0  0  0  0  0  0  0  0  0  0  0  0
  -14.2760   14.5920  -14.0830 H   0  0  0  0  0  0  0  0  0  0  0  0
  -14.5052   15.2296  -12.4215 H   0  0  0  0  0  0  0  0  0  0  0  0
  -13.8029   20.6510  -21.6980 H   0  0  0  0  0  0  0  0  0  0  0  0
  -13.1902   25.1893  -21.6868 H   0  0  0  0  0  0  0  0  0  0  0  0
  -13.4565   25.2909  -19.0798 H   0  0  0  0  0  0  0  0  0  0  0  0
  -13.5681   20.8873  -23.0749 H   0  0  0  0  0  0  0  0  0  0  0  0
  -14.3727   21.6702  -24.4772 H   0  0  0  0  0  0  0  0  0  0  0  0
  -12.5912   21.4405  -24.4772 H   0  0  0  0  0  0  0  0  0  0  0  0
  -13.4318   21.7804  -14.7500 H   0  0  0  0  0  0  0  0  0  0  0  0
  -14.8454   22.8747  -14.9261 H   0  0  0  0  0  0  0  0  0  0  0  0
  -15.0825   21.0942  -14.9261 H   0  0  0  0  0  0  0  0  0  0  0  0
   -9.9154    8.2194  -22.2915 H   0  0  0  0  0  0  0  0  0  0  0  0
  -10.2033    7.9761  -20.7820 H   0  0  0  0  0  0  0  0  0  0  0  0
  -12.6599    9.4246  -21.1940 H   0  0  0  0  0  0  0  0  0  0  0  0
  -12.4903    9.4359  -22.7392 H   0  0  0  0  0  0  0  0  0  0  0  0
   -9.1372   11.7765  -22.1931 H   0  0  0  0  0  0  0  0  0  0  0  0
   -9.2583   10.3363  -23.2598 H   0  0  0  0  0  0  0  0  0  0  0  0
  -10.5671   11.5666  -23.2598 H   0  0  0  0  0  0  0  0  0  0  0  0
  -15.1354   12.6809  -16.9016 H   0  0  0  0  0  0  0  0  0  0  0  0
  -14.1420   10.2062  -17.7148 H   0  0  0  0  0  0  0  0  0  0  0  0
  -14.6254    9.8082  -15.4172 H   0  0  0  0  0  0  0  0  0  0  0  0
  -15.2826   12.8914  -15.3739 H   0  0  0  0  0  0  0  0  0  0  0  0
  -16.1745   11.6625  -14.4050 H   0  0  0  0  0  0  0  0  0  0  0  0
  -13.9753   11.1144  -13.2301 H   0  0  0  0  0  0  0  0  0  0  0  0
  -13.2402   12.5178  -14.0794 H   0  0  0  0  0  0  0  0  0  0  0  0
  -15.4675   12.8886  -19.8602 H   0  0  0  0  0  0  0  0  0  0  0  0
  -14.5499   11.6567  -20.1198 H   0  0  0  0  0  0  0  0  0  0  0  0
  -14.0790   13.0677  -11.7224 H   0  0  0  0  0  0  0  0  0  0  0  0
  -15.7489   12.7052  -12.2933 H   0  0  0  0  0  0  0  0  0  0  0  0
  -22.4193   20.5508  -14.4738 H   0  0  0  0  0  0  0  0  0  0  0  0
  -20.8723   20.7010  -14.4063 H   0  0  0  0  0  0  0  0  0  0  0  0
  -20.7390   18.1605  -15.7557 H   0  0  0  0  0  0  0  0  0  0  0  0
  -22.2663   18.1442  -16.0488 H   0  0  0  0  0  0  0  0  0  0  0  0
  -13.8770   15.3779  -19.1865 H   0  0  0  0  0  0  0  0  0  0  0  0
  -18.3002   16.3982  -15.3902 H   0  0  0  0  0  0  0  0  0  0  0  0
  -12.7931   11.6572  -20.4937 H   0  0  0  0  0  0  0  0  0  0  0  0
  1 13  1  0
  1 42  1  0
  1 49  2  0
 35  2  1  1
  2 50  1  0
  3  5  2  0
  3 45  1  0
  3 52  1  0
  4 17  1  0
  4 20  1  0
  4 46  2  0
  5 22  1  0
  5 46  1  0
  6 18  2  0
  6 19  1  0
  6 53  1  0
  7  8  1  0
  7 11  1  0
  7 42  1  0
  8  9  1  0
  9 10  1  0
  9 52  1  0
 10 42  1  0
 11 43  1  0
 11 48  2  0
 12 23  1  6
 12 28  1  0
 12 33  1  0
 12 43  1  0
 13 15  1  0
 13 44  1  0
 14 44  1  0
 14 50  1  0
 14 51  2  0
 15 16  1  0
 16 34  1  0
 17 18  1  0
 17 45  2  0
 19 20  2  0
 21 53  1  0
 23 47  1  0
 23 54  2  0
 24 25  1  0
 24 26  1  0
 24 27  1  6
 24 57  1  0
 25 26  1  0
 28 29  1  0
 28 33  1  0
 29 30  2  3
 30 31  1  0
 31 32  1  0
 32 34  1  0
 35 36  1  0
 35 37  1  0
 35 38  1  0
 36 37  1  0
 38 39  1  1
 38 40  1  0
 38 41  1  0
 57 47  1  1
 55 57  2  0
 56 57  2  0
  2 58  1  0
  2 59  1  0
  7 60  1  6
  8 61  1  0
  8 62  1  0
  9 63  1  1
 10 64  1  0
 10 65  1  0
 13 66  1  1
 15 67  1  0
 15 68  1  0
 16 69  1  0
 16 70  1  0
 18 71  1  0
 19 72  1  0
 20 73  1  0
 21 74  1  0
 21 75  1  0
 21 76  1  0
 22 77  1  0
 22 78  1  0
 22 79  1  0
 25 80  1  0
 25 81  1  0
 26 82  1  0
 26 83  1  0
 27 84  1  0
 27 85  1  0
 27 86  1  0
 28 87  1  1
 29 88  1  0
 30 89  1  0
 31 90  1  0
 31 91  1  0
 32 92  1  0
 32 93  1  0
 33 94  1  0
 33 95  1  0
 34 96  1  0
 34 97  1  0
 36 98  1  0
 36 99  1  0
 37100  1  0
 37101  1  0
 43102  1  0
 44103  1  0
 47104  1  0
M  END
>  <filename_input>  (14) 
7MMH_ZJY_docked.sdf

>  <pdb_id>  (14) 
7MMH_ZJY

>  <pose_rank>  (14) 
13

>  <num_atoms_heavy>  (14) 
57

>  <num_torsions>  (14) 
11

>  <pose>  (14) 
[-15.779193102984983, 15.953482737264212, -15.599538283200415, -3.163830555781667, 0.007860568905226017, 1.0680596712466008, 4.620435874022699, 0.8870854831760852, 0.11014712159604484, 2.9207352404252, -3.1707193630852135, 4.057309660309713, 0.09689391423017728, 0.7174132200850906, -0.12437975261122167, 2.008069073540921, 0.0345449651467086]

>  <energy>  (14) 
-441.3884393164445

>  <inter_energy>  (14) 
-467.9392451878058

>  <intra_energy>  (14) 
37.57934897029149

>  <rmsd>  (14) 
9.27677

>  <sdf_rank>  (14) 
0

$$$$

     RDKit          3D

104110  0  0  0  0  0  0  0  0999 V2000
  -15.8831   15.4622  -15.1426 C   0  0  0  0  0  0  0  0  0  0  0  0
  -10.8348   13.4352  -16.3174 C   0  0  0  0  0  0  0  0  0  0  0  0
  -14.9309   19.8033  -17.5173 C   0  0  0  0  0  0  0  0  0  0  0  0
  -14.5839   22.6315  -17.5007 C   0  0  0  0  0  0  0  0  0  0  0  0
  -13.9530   20.4781  -16.5477 C   0  0  0  0  0  0  0  0  0  0  0  0
  -16.2049   24.2903  -19.4350 C   0  0  0  0  0  0  0  0  0  0  0  0
  -17.0608   17.6934  -15.6985 C   0  0  1  0  0  0  0  0  0  0  0  0
  -17.4483   18.4336  -17.1006 C   0  0  0  0  0  0  0  0  0  0  0  0
  -16.4266   18.0845  -17.8820 C   0  0  2  0  0  0  0  0  0  0  0  0
  -16.2720   16.5228  -17.6272 C   0  0  0  0  0  0  0  0  0  0  0  0
  -18.0949   17.1278  -14.7934 C   0  0  0  0  0  0  0  0  0  0  0  0
  -18.9991   17.3925  -12.4267 C   0  0  2  0  0  0  0  0  0  0  0  0
  -15.2177   14.2114  -15.7285 C   0  0  2  0  0  0  0  0  0  0  0  0
  -13.0613   13.0230  -15.8198 C   0  0  0  0  0  0  0  0  0  0  0  0
  -16.0225   12.9930  -15.2612 C   0  0  0  0  0  0  0  0  0  0  0  0
  -17.4778   13.0480  -15.8290 C   0  0  0  0  0  0  0  0  0  0  0  0
  -15.5683   21.9614  -18.4560 C   0  0  0  0  0  0  0  0  0  0  0  0
  -16.4049   22.7679  -19.4589 C   0  0  0  0  0  0  0  0  0  0  0  0
  -15.2305   24.9701  -18.4707 C   0  0  0  0  0  0  0  0  0  0  0  0
  -14.3956   24.1702  -17.4970 C   0  0  0  0  0  0  0  0  0  0  0  0
  -16.3433   25.2899  -21.5607 C   0  0  0  0  0  0  0  0  0  0  0  0
  -13.1322   19.6278  -15.5800 C   0  0  0  0  0  0  0  0  0  0  0  0
  -20.5007   17.5206  -12.4478 C   0  0  0  0  0  0  0  0  0  0  0  0
  -23.2247   16.4247  -15.2833 C   0  0  2  0  0  0  0  0  0  0  0  0
  -23.3495   14.9127  -15.1089 C   0  0  0  0  0  0  0  0  0  0  0  0
  -24.6149   15.7832  -15.1865 C   0  0  0  0  0  0  0  0  0  0  0  0
  -22.7715   16.9765  -16.6561 C   0  0  0  0  0  0  0  0  0  0  0  0
  -18.6383   15.9992  -11.8362 C   0  0  2  0  0  0  0  0  0  0  0  0
  -19.4376   14.8127  -11.2893 C   0  0  0  0  0  0  0  0  0  0  0  0
  -19.3644   13.5415  -11.7451 C   0  0  0  0  0  0  0  0  0  0  0  0
  -18.4404   13.1155  -12.9076 C   0  0  0  0  0  0  0  0  0  0  0  0
  -19.2812   12.5567  -14.0784 C   0  0  0  0  0  0  0  0  0  0  0  0
  -18.5420   17.2557  -10.9617 C   0  0  0  0  0  0  0  0  0  0  0  0
  -18.3358   11.9325  -15.1526 C   0  0  0  0  0  0  0  0  0  0  0  0
  -10.3245   12.1466  -16.9697 C   0  0  1  0  0  0  0  0  0  0  0  0
   -9.5251   11.2446  -16.0208 C   0  0  0  0  0  0  0  0  0  0  0  0
  -10.9292   10.8216  -16.4807 C   0  0  0  0  0  0  0  0  0  0  0  0
   -9.8193   12.1869  -18.4330 C   0  0  2  0  0  0  0  0  0  0  0  0
  -10.6093   13.0602  -19.1385 F   0  0  0  0  0  0  0  0  0  0  0  0
   -9.9090   10.9492  -18.9653 F   0  0  0  0  0  0  0  0  0  0  0  0
   -8.5087   12.5927  -18.3834 F   0  0  0  0  0  0  0  0  0  0  0  0
  -16.3769   16.5121  -16.0296 N   0  0  0  0  0  0  0  0  0  0  0  0
  -18.2014   17.8531  -13.5639 N   0  0  0  0  0  0  0  0  0  0  0  0
  -13.8902   14.0490  -15.2415 N   0  0  0  0  0  0  0  0  0  0  0  0
  -15.7529   20.5177  -18.4538 N   0  0  0  0  0  0  0  0  0  0  0  0
  -13.7781   21.9009  -16.5370 N   0  0  0  0  0  0  0  0  0  0  0  0
  -21.1045   17.1157  -13.6721 N   0  0  0  0  0  0  0  0  0  0  0  0
  -18.7604   16.1762  -15.0611 O   0  0  0  0  0  0  0  0  0  0  0  0
  -15.9906   15.5647  -13.9634 O   0  0  0  0  0  0  0  0  0  0  0  0
  -11.7417   12.9817  -15.3390 O   0  0  0  0  0  0  0  0  0  0  0  0
  -13.4642   12.2441  -16.6446 O   0  0  0  0  0  0  0  0  0  0  0  0
  -15.0852   18.4325  -17.4397 O   0  0  0  0  0  0  0  0  0  0  0  0
  -16.9419   25.0612  -20.3100 O   0  0  0  0  0  0  0  0  0  0  0  0
  -21.1750   17.9897  -11.5735 O   0  0  0  0  0  0  0  0  0  0  0  0
  -23.2684   18.6430  -13.7316 O   0  0  0  0  0  0  0  0  0  0  0  0
  -23.3747   16.4968  -12.6984 O   0  0  0  0  0  0  0  0  0  0  0  0
  -22.7353   17.2730  -13.7655 S   0  0  1  0  0  0  0  0  0  0  0  0
  -10.0078   13.9945  -15.8556 H   0  0  0  0  0  0  0  0  0  0  0  0
  -11.2982   14.1227  -17.0403 H   0  0  0  0  0  0  0  0  0  0  0  0
  -16.5758   18.5279  -15.1709 H   0  0  0  0  0  0  0  0  0  0  0  0
  -18.4036   18.0617  -17.4996 H   0  0  0  0  0  0  0  0  0  0  0  0
  -17.5883   19.5207  -17.0077 H   0  0  0  0  0  0  0  0  0  0  0  0
  -16.6616   18.5320  -18.8590 H   0  0  0  0  0  0  0  0  0  0  0  0
  -17.0832   15.9470  -18.0968 H   0  0  0  0  0  0  0  0  0  0  0  0
  -15.3618   16.0656  -18.0426 H   0  0  0  0  0  0  0  0  0  0  0  0
  -15.1898   14.3104  -16.8236 H   0  0  0  0  0  0  0  0  0  0  0  0
  -15.5299   12.0758  -15.6163 H   0  0  0  0  0  0  0  0  0  0  0  0
  -16.0689   12.9973  -14.1622 H   0  0  0  0  0  0  0  0  0  0  0  0
  -17.9193   14.0324  -15.6146 H   0  0  0  0  0  0  0  0  0  0  0  0
  -17.4561   12.8885  -16.9171 H   0  0  0  0  0  0  0  0  0  0  0  0
  -17.1066   22.2837  -20.1541 H   0  0  0  0  0  0  0  0  0  0  0  0
  -15.1354   26.0659  -18.4864 H   0  0  0  0  0  0  0  0  0  0  0  0
  -13.6847   24.6592  -16.8148 H   0  0  0  0  0  0  0  0  0  0  0  0
  -15.3249   25.6791  -21.4141 H   0  0  0  0  0  0  0  0  0  0  0  0
  -16.2976   24.3459  -22.1235 H   0  0  0  0  0  0  0  0  0  0  0  0
  -16.9388   26.0239  -22.1235 H   0  0  0  0  0  0  0  0  0  0  0  0
  -13.3915   19.8965  -14.5453 H   0  0  0  0  0  0  0  0  0  0  0  0
  -13.3533   18.5636  -15.7488 H   0  0  0  0  0  0  0  0  0  0  0  0
  -12.0608   19.8111  -15.7488 H   0  0  0  0  0  0  0  0  0  0  0  0
  -23.0929   14.2403  -15.9407 H   0  0  0  0  0  0  0  0  0  0  0  0
  -22.9544   14.1776  -14.3923 H   0  0  0  0  0  0  0  0  0  0  0  0
  -25.2325   15.9390  -14.2897 H   0  0  0  0  0  0  0  0  0  0  0  0
  -25.5213   15.7881  -15.8097 H   0  0  0  0  0  0  0  0  0  0  0  0
  -22.0802   17.8183  -16.5029 H   0  0  0  0  0  0  0  0  0  0  0  0
  -22.2620   16.1817  -17.2207 H   0  0  0  0  0  0  0  0  0  0  0  0
  -23.6502   17.3218  -17.2207 H   0  0  0  0  0  0  0  0  0  0  0  0
  -18.0486   15.1969  -12.3036 H   0  0  0  0  0  0  0  0  0  0  0  0
  -20.1286   15.0110  -10.4567 H   0  0  0  0  0  0  0  0  0  0  0  0
  -19.9918   12.7755  -11.2659 H   0  0  0  0  0  0  0  0  0  0  0  0
  -17.8675   13.9879  -13.2552 H   0  0  0  0  0  0  0  0  0  0  0  0
  -17.7533   12.3332  -12.5527 H   0  0  0  0  0  0  0  0  0  0  0  0
  -19.9664   11.7836  -13.7005 H   0  0  0  0  0  0  0  0  0  0  0  0
  -19.8613   13.3732  -14.5332 H   0  0  0  0  0  0  0  0  0  0  0  0
  -17.5561   17.6372  -10.6576 H   0  0  0  0  0  0  0  0  0  0  0  0
  -18.9612   17.5553   -9.9899 H   0  0  0  0  0  0  0  0  0  0  0  0
  -18.9408   11.4249  -15.9183 H   0  0  0  0  0  0  0  0  0  0  0  0
  -17.6651   11.2102  -14.6643 H   0  0  0  0  0  0  0  0  0  0  0  0
   -8.6401   10.7056  -16.3898 H   0  0  0  0  0  0  0  0  0  0  0  0
   -9.0349   11.3824  -15.0458 H   0  0  0  0  0  0  0  0  0  0  0  0
  -11.7671   10.8290  -15.7681 H   0  0  0  0  0  0  0  0  0  0  0  0
  -11.3532    9.9321  -16.9694 H   0  0  0  0  0  0  0  0  0  0  0  0
  -17.6913   18.7434  -13.4751 H   0  0  0  0  0  0  0  0  0  0  0  0
  -13.5292   14.6537  -14.4899 H   0  0  0  0  0  0  0  0  0  0  0  0
  -20.5485   16.7446  -14.4557 H   0  0  0  0  0  0  0  0  0  0  0  0
  1 13  1  0
  1 42  1  0
  1 49  2  0
 35  2  1  1
  2 50  1  0
  3  5  2  0
  3 45  1  0
  3 52  1  0
  4 17  1  0
  4 20  1  0
  4 46  2  0
  5 22  1  0
  5 46  1  0
  6 18  2  0
  6 19  1  0
  6 53  1  0
  7  8  1  0
  7 11  1  0
  7 42  1  0
  8  9  1  0
  9 10  1  0
  9 52  1  0
 10 42  1  0
 11 43  1  0
 11 48  2  0
 12 23  1  1
 12 28  1  0
 12 33  1  0
 12 43  1  0
 13 15  1  0
 13 44  1  0
 14 44  1  0
 14 50  1  0
 14 51  2  0
 15 16  1  0
 16 34  1  0
 17 18  1  0
 17 45  2  0
 19 20  2  0
 21 53  1  0
 23 47  1  0
 23 54  2  0
 24 25  1  0
 24 26  1  0
 24 27  1  6
 24 57  1  0
 25 26  1  0
 28 29  1  0
 28 33  1  0
 29 30  2  3
 30 31  1  0
 31 32  1  0
 32 34  1  0
 35 36  1  0
 35 37  1  0
 35 38  1  0
 36 37  1  0
 38 39  1  6
 38 40  1  0
 38 41  1  0
 57 47  1  1
 55 57  2  0
 56 57  2  0
  2 58  1  0
  2 59  1  0
  7 60  1  1
  8 61  1  0
  8 62  1  0
  9 63  1  6
 10 64  1  0
 10 65  1  0
 13 66  1  6
 15 67  1  0
 15 68  1  0
 16 69  1  0
 16 70  1  0
 18 71  1  0
 19 72  1  0
 20 73  1  0
 21 74  1  0
 21 75  1  0
 21 76  1  0
 22 77  1  0
 22 78  1  0
 22 79  1  0
 25 80  1  0
 25 81  1  0
 26 82  1  0
 26 83  1  0
 27 84  1  0
 27 85  1  0
 27 86  1  0
 28 87  1  6
 29 88  1  0
 30 89  1  0
 31 90  1  0
 31 91  1  0
 32 92  1  0
 32 93  1  0
 33 94  1  0
 33 95  1  0
 34 96  1  0
 34 97  1  0
 36 98  1  0
 36 99  1  0
 37100  1  0
 37101  1  0
 43102  1  0
 44103  1  0
 47104  1  0
M  END
>  <filename_input>  (15) 
7MMH_ZJY_docked.sdf

>  <pdb_id>  (15) 
7MMH_ZJY

>  <pose_rank>  (15) 
14

>  <num_atoms_heavy>  (15) 
57

>  <num_torsions>  (15) 
11

>  <pose>  (15) 
[-15.883114781042435, 15.462191762855037, -15.142563866919929, 0.3775869577751666, 0.6952299526415515, 2.275725746052724, -1.5395001917923241, 1.1465724984635033, 1.8824286263425942, -2.4191628382103247, 0.34497516011753315, 0.8605153249722303, 0.04948028922277446, -2.0759045555394366, 0.27916089847284153, -0.16594144407720376, -1.5782989876138098]

>  <energy>  (15) 
-467.44604028115737

>  <inter_energy>  (15) 
-556.9594205301846

>  <intra_energy>  (15) 
90.61356368462623

>  <rmsd>  (15) 
11.0782

>  <sdf_rank>  (15) 
0

$$$$

     RDKit          3D

104110  0  0  0  0  0  0  0  0999 V2000
  -15.5536   14.5916  -15.3816 C   0  0  0  0  0  0  0  0  0  0  0  0
  -20.1725   14.1716  -13.7768 C   0  0  0  0  0  0  0  0  0  0  0  0
  -14.7697   19.7034  -15.6509 C   0  0  0  0  0  0  0  0  0  0  0  0
  -14.6590   22.4266  -16.4821 C   0  0  0  0  0  0  0  0  0  0  0  0
  -16.0405   20.4662  -16.0450 C   0  0  0  0  0  0  0  0  0  0  0  0
  -11.9658   23.7891  -16.5885 C   0  0  0  0  0  0  0  0  0  0  0  0
  -13.8630   16.1612  -16.5445 C   0  0  1  0  0  0  0  0  0  0  0  0
  -12.8588   17.3252  -15.9964 C   0  0  0  0  0  0  0  0  0  0  0  0
  -13.5687   17.8454  -14.9954 C   0  0  2  0  0  0  0  0  0  0  0  0
  -14.0921   16.5715  -14.2011 C   0  0  0  0  0  0  0  0  0  0  0  0
  -13.3565   14.8706  -17.0795 C   0  0  0  0  0  0  0  0  0  0  0  0
  -13.3503   13.4929  -19.2222 C   0  0  2  0  0  0  0  0  0  0  0  0
  -16.1772   14.1869  -14.0408 C   0  0  2  0  0  0  0  0  0  0  0  0
  -18.2274   15.3474  -13.3193 C   0  0  0  0  0  0  0  0  0  0  0  0
  -15.8401   12.7114  -13.7963 C   0  0  0  0  0  0  0  0  0  0  0  0
  -14.2948   12.5181  -13.6614 C   0  0  0  0  0  0  0  0  0  0  0  0
  -13.3920   21.6634  -16.1040 C   0  0  0  0  0  0  0  0  0  0  0  0
  -12.0058   22.3216  -16.1376 C   0  0  0  0  0  0  0  0  0  0  0  0
  -13.2298   24.5563  -16.9824 C   0  0  0  0  0  0  0  0  0  0  0  0
  -14.5948   23.9092  -16.9307 C   0  0  0  0  0  0  0  0  0  0  0  0
   -9.6504   23.5960  -16.9613 C   0  0  0  0  0  0  0  0  0  0  0  0
  -17.3979   19.7690  -15.9788 C   0  0  0  0  0  0  0  0  0  0  0  0
  -11.9496   13.0503  -19.5598 C   0  0  0  0  0  0  0  0  0  0  0  0
  -10.3733   11.4964  -22.9355 C   0  0  2  0  0  0  0  0  0  0  0  0
  -10.0291   12.7672  -23.7091 C   0  0  0  0  0  0  0  0  0  0  0  0
   -8.9851   11.6465  -23.5711 C   0  0  0  0  0  0  0  0  0  0  0  0
  -11.3595   10.4873  -23.5708 C   0  0  0  0  0  0  0  0  0  0  0  0
  -14.1536   12.2467  -18.7511 C   0  0  2  0  0  0  0  0  0  0  0  0
  -13.8448   10.7557  -18.5863 C   0  0  0  0  0  0  0  0  0  0  0  0
  -13.9799   10.0491  -17.4411 C   0  0  0  0  0  0  0  0  0  0  0  0
  -14.4753   10.6755  -16.1186 C   0  0  0  0  0  0  0  0  0  0  0  0
  -13.3829   10.5559  -15.0310 C   0  0  0  0  0  0  0  0  0  0  0  0
  -14.3293   12.7835  -20.1772 C   0  0  0  0  0  0  0  0  0  0  0  0
  -13.9669   10.9917  -13.6503 C   0  0  0  0  0  0  0  0  0  0  0  0
  -21.2548   14.4897  -14.8131 C   0  0  1  0  0  0  0  0  0  0  0  0
  -20.7789   15.4074  -15.9464 C   0  0  0  0  0  0  0  0  0  0  0  0
  -21.0635   13.9237  -16.2285 C   0  0  0  0  0  0  0  0  0  0  0  0
  -22.7122   14.7156  -14.3412 C   0  0  2  0  0  0  0  0  0  0  0  0
  -23.0641   13.6777  -13.5146 F   0  0  0  0  0  0  0  0  0  0  0  0
  -23.5257   14.7445  -15.4186 F   0  0  0  0  0  0  0  0  0  0  0  0
  -22.7310   15.9266  -13.6949 F   0  0  0  0  0  0  0  0  0  0  0  0
  -14.5840   15.6822  -15.4384 N   0  0  0  0  0  0  0  0  0  0  0  0
  -13.5756   14.7385  -18.4879 N   0  0  0  0  0  0  0  0  0  0  0  0
  -17.5962   14.2935  -14.0710 N   0  0  0  0  0  0  0  0  0  0  0  0
  -13.4499   20.2687  -15.6918 N   0  0  0  0  0  0  0  0  0  0  0  0
  -15.9865   21.8358  -16.4647 N   0  0  0  0  0  0  0  0  0  0  0  0
  -11.8525   12.2765  -20.7510 N   0  0  0  0  0  0  0  0  0  0  0  0
  -12.8277   14.0382  -16.4105 O   0  0  0  0  0  0  0  0  0  0  0  0
  -15.8688   14.0087  -16.3683 O   0  0  0  0  0  0  0  0  0  0  0  0
  -19.6222   15.4311  -13.4664 O   0  0  0  0  0  0  0  0  0  0  0  0
  -17.6154   16.0975  -12.6036 O   0  0  0  0  0  0  0  0  0  0  0  0
  -14.8894   18.3717  -15.3031 O   0  0  0  0  0  0  0  0  0  0  0  0
  -10.7419   24.4231  -16.6460 O   0  0  0  0  0  0  0  0  0  0  0  0
  -10.9761   13.2334  -18.8831 O   0  0  0  0  0  0  0  0  0  0  0  0
   -9.8933   10.5176  -20.4571 O   0  0  0  0  0  0  0  0  0  0  0  0
   -9.3657   12.7937  -20.9327 O   0  0  0  0  0  0  0  0  0  0  0  0
  -10.3552   11.7325  -21.1448 S   0  0  1  0  0  0  0  0  0  0  0  0
  -20.6114   13.7049  -12.8827 H   0  0  0  0  0  0  0  0  0  0  0  0
  -19.4215   13.4605  -14.1513 H   0  0  0  0  0  0  0  0  0  0  0  0
  -14.3441   16.7004  -17.3738 H   0  0  0  0  0  0  0  0  0  0  0  0
  -11.9104   16.8998  -15.6366 H   0  0  0  0  0  0  0  0  0  0  0  0
  -12.5640   18.0576  -16.7624 H   0  0  0  0  0  0  0  0  0  0  0  0
  -12.9135   18.6171  -14.5650 H   0  0  0  0  0  0  0  0  0  0  0  0
  -13.2870   16.0799  -13.6353 H   0  0  0  0  0  0  0  0  0  0  0  0
  -14.8544   16.7748  -13.4347 H   0  0  0  0  0  0  0  0  0  0  0  0
  -15.7830   14.8506  -13.2571 H   0  0  0  0  0  0  0  0  0  0  0  0
  -16.3290   12.3771  -12.8693 H   0  0  0  0  0  0  0  0  0  0  0  0
  -16.1998   12.1180  -14.6498 H   0  0  0  0  0  0  0  0  0  0  0  0
  -13.7886   12.9969  -14.5126 H   0  0  0  0  0  0  0  0  0  0  0  0
  -13.9454   12.9778  -12.7252 H   0  0  0  0  0  0  0  0  0  0  0  0
  -11.0944   21.7742  -15.8553 H   0  0  0  0  0  0  0  0  0  0  0  0
  -13.1430   25.6026  -17.3108 H   0  0  0  0  0  0  0  0  0  0  0  0
  -15.5042   24.4666  -17.1998 H   0  0  0  0  0  0  0  0  0  0  0  0
   -9.1802   23.2397  -16.0329 H   0  0  0  0  0  0  0  0  0  0  0  0
  -10.0008   22.7346  -17.5489 H   0  0  0  0  0  0  0  0  0  0  0  0
   -8.9159   24.1663  -17.5489 H   0  0  0  0  0  0  0  0  0  0  0  0
  -17.6838   19.6221  -14.9268 H   0  0  0  0  0  0  0  0  0  0  0  0
  -18.1541   20.3903  -16.4810 H   0  0  0  0  0  0  0  0  0  0  0  0
  -17.3334   18.7924  -16.4810 H   0  0  0  0  0  0  0  0  0  0  0  0
  -10.5007   12.9624  -24.6836 H   0  0  0  0  0  0  0  0  0  0  0  0
  -10.0484   13.8437  -23.4839 H   0  0  0  0  0  0  0  0  0  0  0  0
   -8.1003   11.7930  -22.9342 H   0  0  0  0  0  0  0  0  0  0  0  0
   -8.3801   11.0533  -24.2726 H   0  0  0  0  0  0  0  0  0  0  0  0
  -11.8908    9.9437  -22.7756 H   0  0  0  0  0  0  0  0  0  0  0  0
  -12.0867   11.0283  -24.1941 H   0  0  0  0  0  0  0  0  0  0  0  0
  -10.8021    9.7727  -24.1941 H   0  0  0  0  0  0  0  0  0  0  0  0
  -14.6685   12.0953  -17.7910 H   0  0  0  0  0  0  0  0  0  0  0  0
  -13.4832   10.2145  -19.4731 H   0  0  0  0  0  0  0  0  0  0  0  0
  -13.7252    8.9791  -17.4517 H   0  0  0  0  0  0  0  0  0  0  0  0
  -14.7088   11.7375  -16.2842 H   0  0  0  0  0  0  0  0  0  0  0  0
  -15.3766   10.1415  -15.7832 H   0  0  0  0  0  0  0  0  0  0  0  0
  -13.0398    9.5125  -14.9703 H   0  0  0  0  0  0  0  0  0  0  0  0
  -12.5361   11.2080  -15.2912 H   0  0  0  0  0  0  0  0  0  0  0  0
  -15.2691   13.2776  -20.4646 H   0  0  0  0  0  0  0  0  0  0  0  0
  -14.2478   12.3464  -21.1833 H   0  0  0  0  0  0  0  0  0  0  0  0
  -13.2286   10.7843  -12.8617 H   0  0  0  0  0  0  0  0  0  0  0  0
  -14.8911   10.4273  -13.4572 H   0  0  0  0  0  0  0  0  0  0  0  0
  -21.4505   16.1817  -16.3456 H   0  0  0  0  0  0  0  0  0  0  0  0
  -19.9185   16.0762  -16.0959 H   0  0  0  0  0  0  0  0  0  0  0  0
  -20.2325   13.2341  -16.4378 H   0  0  0  0  0  0  0  0  0  0  0  0
  -21.6979   13.3743  -16.9396 H   0  0  0  0  0  0  0  0  0  0  0  0
  -13.9085   15.5613  -19.0106 H   0  0  0  0  0  0  0  0  0  0  0  0
  -18.1608   13.6297  -14.6200 H   0  0  0  0  0  0  0  0  0  0  0  0
  -12.6765   12.0697  -21.3335 H   0  0  0  0  0  0  0  0  0  0  0  0
  1 13  1  0
  1 42  1  0
  1 49  2  0
 35  2  1  1
  2 50  1  0
  3  5  2  0
  3 45  1  0
  3 52  1  0
  4 17  1  0
  4 20  1  0
  4 46  2  0
  5 22  1  0
  5 46  1  0
  6 18  2  0
  6 19  1  0
  6 53  1  0
  7  8  1  0
  7 11  1  0
  7 42  1  0
  8  9  1  0
  9 10  1  0
  9 52  1  0
 10 42  1  0
 11 43  1  0
 11 48  2  0
 12 23  1  6
 12 28  1  0
 12 33  1  0
 12 43  1  0
 13 15  1  0
 13 44  1  0
 14 44  1  0
 14 50  1  0
 14 51  2  0
 15 16  1  0
 16 34  1  0
 17 18  1  0
 17 45  2  0
 19 20  2  0
 21 53  1  0
 23 47  1  0
 23 54  2  0
 24 25  1  0
 24 26  1  0
 24 27  1  6
 24 57  1  0
 25 26  1  0
 28 29  1  0
 28 33  1  0
 29 30  2  3
 30 31  1  0
 31 32  1  0
 32 34  1  0
 35 36  1  0
 35 37  1  0
 35 38  1  0
 36 37  1  0
 38 39  1  1
 38 40  1  0
 38 41  1  0
 57 47  1  1
 55 57  2  0
 56 57  2  0
  2 58  1  0
  2 59  1  0
  7 60  1  6
  8 61  1  0
  8 62  1  0
  9 63  1  1
 10 64  1  0
 10 65  1  0
 13 66  1  1
 15 67  1  0
 15 68  1  0
 16 69  1  0
 16 70  1  0
 18 71  1  0
 19 72  1  0
 20 73  1  0
 21 74  1  0
 21 75  1  0
 21 76  1  0
 22 77  1  0
 22 78  1  0
 22 79  1  0
 25 80  1  0
 25 81  1  0
 26 82  1  0
 26 83  1  0
 27 84  1  0
 27 85  1  0
 27 86  1  0
 28 87  1  1
 29 88  1  0
 30 89  1  0
 31 90  1  0
 31 91  1  0
 32 92  1  0
 32 93  1  0
 33 94  1  0
 33 95  1  0
 34 96  1  0
 34 97  1  0
 36 98  1  0
 36 99  1  0
 37100  1  0
 37101  1  0
 43102  1  0
 44103  1  0
 47104  1  0
M  END
>  <filename_input>  (16) 
7MMH_ZJY_docked.sdf

>  <pdb_id>  (16) 
7MMH_ZJY

>  <pose_rank>  (16) 
15

>  <num_atoms_heavy>  (16) 
57

>  <num_torsions>  (16) 
11

>  <pose>  (16) 
[-15.55359859290785, 14.591555738213076, -15.381621064215631, -2.835720432878813, -0.3524645213047677, 1.022731683258533, -6.720301211153414, -2.7611235039107895, -11.446700081367045, 5.836022681572188, 0.12463733432300791, -2.555783817702129, 0.32381235783317175, -1.9947073038965109, -0.0654356427111508, 0.31195912758004424, 0.5397104307123386]

>  <energy>  (16) 
-437.3326337498623

>  <inter_energy>  (16) 
-460.24502960175

>  <intra_energy>  (16) 
38.94177548263189

>  <rmsd>  (16) 
9.39287

>  <sdf_rank>  (16) 
0

$$$$

     RDKit          3D

104110  0  0  0  0  0  0  0  0999 V2000
  -17.8107   17.9777  -16.6172 C   0  0  0  0  0  0  0  0  0  0  0  0
  -17.9678   18.1016  -21.5172 C   0  0  0  0  0  0  0  0  0  0  0  0
  -13.6483   20.7984  -16.8171 C   0  0  0  0  0  0  0  0  0  0  0  0
  -12.1378   22.9087  -17.9935 C   0  0  0  0  0  0  0  0  0  0  0  0
  -14.3281   21.8971  -17.6433 C   0  0  0  0  0  0  0  0  0  0  0  0
   -9.1446   22.9314  -17.5922 C   0  0  0  0  0  0  0  0  0  0  0  0
  -16.0077   18.1558  -14.7755 C   0  0  1  0  0  0  0  0  0  0  0  0
  -15.2280   19.4167  -14.0929 C   0  0  0  0  0  0  0  0  0  0  0  0
  -15.1174   20.2557  -15.1226 C   0  0  2  0  0  0  0  0  0  0  0  0
  -16.5704   20.2560  -15.7679 C   0  0  0  0  0  0  0  0  0  0  0  0
  -16.9980   17.3410  -14.0245 C   0  0  0  0  0  0  0  0  0  0  0  0
  -17.3858   14.9521  -13.2296 C   0  0  2  0  0  0  0  0  0  0  0  0
  -18.6866   18.7639  -17.5997 C   0  0  2  0  0  0  0  0  0  0  0  0
  -17.1767   17.9045  -19.3469 C   0  0  0  0  0  0  0  0  0  0  0  0
  -20.1516   18.4884  -17.2414 C   0  0  0  0  0  0  0  0  0  0  0  0
  -20.4744   19.0232  -15.8085 C   0  0  0  0  0  0  0  0  0  0  0  0
  -11.4590   21.8070  -17.1835 C   0  0  0  0  0  0  0  0  0  0  0  0
   -9.9420   21.7866  -16.9502 C   0  0  0  0  0  0  0  0  0  0  0  0
   -9.8164   24.0313  -18.4171 C   0  0  0  0  0  0  0  0  0  0  0  0
  -11.3128   24.0570  -18.6292 C   0  0  0  0  0  0  0  0  0  0  0  0
   -7.0208   22.7140  -18.5817 C   0  0  0  0  0  0  0  0  0  0  0  0
  -15.8437   21.8798  -17.8320 C   0  0  0  0  0  0  0  0  0  0  0  0
  -17.7358   14.9351  -11.7636 C   0  0  0  0  0  0  0  0  0  0  0  0
  -16.9788   12.1288   -8.8872 C   0  0  2  0  0  0  0  0  0  0  0  0
  -17.9979   11.2208   -8.2025 C   0  0  0  0  0  0  0  0  0  0  0  0
  -17.5165   10.8969   -9.6267 C   0  0  0  0  0  0  0  0  0  0  0  0
  -15.5123   12.0994   -8.3942 C   0  0  0  0  0  0  0  0  0  0  0  0
  -18.6658   14.5964  -14.0390 C   0  0  2  0  0  0  0  0  0  0  0  0
  -20.1110   14.2373  -13.6810 C   0  0  0  0  0  0  0  0  0  0  0  0
  -21.2119   14.8914  -14.1157 C   0  0  0  0  0  0  0  0  0  0  0  0
  -21.1477   16.1178  -15.0532 C   0  0  0  0  0  0  0  0  0  0  0  0
  -21.7628   17.3532  -14.3563 C   0  0  0  0  0  0  0  0  0  0  0  0
  -17.5873   13.5333  -13.7954 C   0  0  0  0  0  0  0  0  0  0  0  0
  -21.8907   18.5242  -15.3808 C   0  0  0  0  0  0  0  0  0  0  0  0
  -18.1653   17.1386  -22.6920 C   0  0  1  0  0  0  0  0  0  0  0  0
  -18.3783   15.6794  -22.2699 C   0  0  0  0  0  0  0  0  0  0  0  0
  -19.5494   16.4901  -22.8469 C   0  0  0  0  0  0  0  0  0  0  0  0
  -17.3401   17.3435  -23.9862 C   0  0  2  0  0  0  0  0  0  0  0  0
  -17.6477   18.5772  -24.5036 F   0  0  0  0  0  0  0  0  0  0  0  0
  -17.6621   16.3771  -24.8727 F   0  0  0  0  0  0  0  0  0  0  0  0
  -16.0187   17.2429  -23.6277 F   0  0  0  0  0  0  0  0  0  0  0  0
  -16.8505   18.6795  -15.7696 N   0  0  0  0  0  0  0  0  0  0  0  0
  -16.5341   16.0100  -13.7744 N   0  0  0  0  0  0  0  0  0  0  0  0
  -18.4927   18.3246  -18.9395 N   0  0  0  0  0  0  0  0  0  0  0  0
  -12.2313   20.7232  -16.5942 N   0  0  0  0  0  0  0  0  0  0  0  0
  -13.5696   22.9588  -18.2369 N   0  0  0  0  0  0  0  0  0  0  0  0
  -17.3068   13.7656  -11.0740 N   0  0  0  0  0  0  0  0  0  0  0  0
  -18.0600   17.7497  -13.6709 O   0  0  0  0  0  0  0  0  0  0  0  0
  -17.9233   16.7962  -16.5558 O   0  0  0  0  0  0  0  0  0  0  0  0
  -17.0884   17.4113  -20.6595 O   0  0  0  0  0  0  0  0  0  0  0  0
  -16.2142   17.9798  -18.6277 O   0  0  0  0  0  0  0  0  0  0  0  0
  -14.4342   19.7790  -16.3150 O   0  0  0  0  0  0  0  0  0  0  0  0
   -7.7759   22.9523  -17.4208 O   0  0  0  0  0  0  0  0  0  0  0  0
  -18.3857   15.7645  -11.1900 O   0  0  0  0  0  0  0  0  0  0  0  0
  -19.1279   13.7544   -9.1499 O   0  0  0  0  0  0  0  0  0  0  0  0
  -16.9857   14.7145   -8.7328 O   0  0  0  0  0  0  0  0  0  0  0  0
  -17.6979   13.6750   -9.4829 S   0  0  1  0  0  0  0  0  0  0  0  0
  -17.5214   19.0477  -21.8571 H   0  0  0  0  0  0  0  0  0  0  0  0
  -18.9142   18.3729  -21.0265 H   0  0  0  0  0  0  0  0  0  0  0  0
  -15.1509   17.5070  -15.0100 H   0  0  0  0  0  0  0  0  0  0  0  0
  -15.8185   19.8590  -13.2769 H   0  0  0  0  0  0  0  0  0  0  0  0
  -14.2669   19.1494  -13.6295 H   0  0  0  0  0  0  0  0  0  0  0  0
  -14.6271   21.1457  -14.7013 H   0  0  0  0  0  0  0  0  0  0  0  0
  -17.2962   20.8022  -15.1474 H   0  0  0  0  0  0  0  0  0  0  0  0
  -16.6506   20.7496  -16.7476 H   0  0  0  0  0  0  0  0  0  0  0  0
  -18.4226   19.8294  -17.5285 H   0  0  0  0  0  0  0  0  0  0  0  0
  -20.8035   18.9914  -17.9708 H   0  0  0  0  0  0  0  0  0  0  0  0
  -20.3252   17.4024  -17.2634 H   0  0  0  0  0  0  0  0  0  0  0  0
  -19.7225   18.6489  -15.0982 H   0  0  0  0  0  0  0  0  0  0  0  0
  -20.4557   20.1230  -15.8118 H   0  0  0  0  0  0  0  0  0  0  0  0
   -9.4546   20.9982  -16.3579 H   0  0  0  0  0  0  0  0  0  0  0  0
   -9.1963   24.8211  -18.8660 H   0  0  0  0  0  0  0  0  0  0  0  0
  -11.7959   24.8567  -19.2099 H   0  0  0  0  0  0  0  0  0  0  0  0
   -6.0067   22.3941  -18.3002 H   0  0  0  0  0  0  0  0  0  0  0  0
   -7.5025   21.9243  -19.1768 H   0  0  0  0  0  0  0  0  0  0  0  0
   -6.9620   23.6373  -19.1768 H   0  0  0  0  0  0  0  0  0  0  0  0
  -16.3357   21.8741  -16.8482 H   0  0  0  0  0  0  0  0  0  0  0  0
  -16.1538   22.7744  -18.3919 H   0  0  0  0  0  0  0  0  0  0  0  0
  -16.1332   20.9782  -18.3919 H   0  0  0  0  0  0  0  0  0  0  0  0
  -17.6890   10.5849   -7.3597 H   0  0  0  0  0  0  0  0  0  0  0  0
  -18.9793   11.3718   -7.7292 H   0  0  0  0  0  0  0  0  0  0  0  0
  -18.1987   11.0210  -10.4806 H   0  0  0  0  0  0  0  0  0  0  0  0
  -17.0640   10.0224  -10.1172 H   0  0  0  0  0  0  0  0  0  0  0  0
  -15.4952   12.0991   -7.2944 H   0  0  0  0  0  0  0  0  0  0  0  0
  -15.0177   11.1911   -8.7689 H   0  0  0  0  0  0  0  0  0  0  0  0
  -14.9816   12.9871   -8.7689 H   0  0  0  0  0  0  0  0  0  0  0  0
  -19.1628   15.1930  -14.8182 H   0  0  0  0  0  0  0  0  0  0  0  0
  -20.2663   13.3757  -13.0149 H   0  0  0  0  0  0  0  0  0  0  0  0
  -22.1988   14.5338  -13.7866 H   0  0  0  0  0  0  0  0  0  0  0  0
  -20.0979   16.3278  -15.3057 H   0  0  0  0  0  0  0  0  0  0  0  0
  -21.7172   15.9006  -15.9689 H   0  0  0  0  0  0  0  0  0  0  0  0
  -22.7595   17.0960  -13.9684 H   0  0  0  0  0  0  0  0  0  0  0  0
  -21.1128   17.6647  -13.5254 H   0  0  0  0  0  0  0  0  0  0  0  0
  -16.9642   13.1834  -14.6317 H   0  0  0  0  0  0  0  0  0  0  0  0
  -17.5827   12.5212  -13.3645 H   0  0  0  0  0  0  0  0  0  0  0  0
  -22.4436   19.3543  -14.9167 H   0  0  0  0  0  0  0  0  0  0  0  0
  -22.4289   18.1656  -16.2706 H   0  0  0  0  0  0  0  0  0  0  0  0
  -17.9300   14.8656  -22.8586 H   0  0  0  0  0  0  0  0  0  0  0  0
  -18.2106   15.1045  -21.3472 H   0  0  0  0  0  0  0  0  0  0  0  0
  -20.3786   16.8002  -22.1940 H   0  0  0  0  0  0  0  0  0  0  0  0
  -20.2562   16.3529  -23.6786 H   0  0  0  0  0  0  0  0  0  0  0  0
  -15.5519   15.7859  -13.9886 H   0  0  0  0  0  0  0  0  0  0  0  0
  -19.2786   18.3074  -19.6051 H   0  0  0  0  0  0  0  0  0  0  0  0
  -16.7802   13.0178  -11.5476 H   0  0  0  0  0  0  0  0  0  0  0  0
  1 13  1  0
  1 42  1  0
  1 49  2  0
 35  2  1  1
  2 50  1  0
  3  5  2  0
  3 45  1  0
  3 52  1  0
  4 17  1  0
  4 20  1  0
  4 46  2  0
  5 22  1  0
  5 46  1  0
  6 18  2  0
  6 19  1  0
  6 53  1  0
  7  8  1  0
  7 11  1  0
  7 42  1  0
  8  9  1  0
  9 10  1  0
  9 52  1  0
 10 42  1  0
 11 43  1  0
 11 48  2  0
 12 23  1  1
 12 28  1  0
 12 33  1  0
 12 43  1  0
 13 15  1  0
 13 44  1  0
 14 44  1  0
 14 50  1  0
 14 51  2  0
 15 16  1  0
 16 34  1  0
 17 18  1  0
 17 45  2  0
 19 20  2  0
 21 53  1  0
 23 47  1  0
 23 54  2  0
 24 25  1  0
 24 26  1  0
 24 27  1  1
 24 57  1  0
 25 26  1  0
 28 29  1  0
 28 33  1  0
 29 30  2  3
 30 31  1  0
 31 32  1  0
 32 34  1  0
 35 36  1  0
 35 37  1  0
 35 38  1  0
 36 37  1  0
 38 39  1  6
 38 40  1  0
 38 41  1  0
 57 47  1  6
 55 57  2  0
 56 57  2  0
  2 58  1  0
  2 59  1  0
  7 60  1  6
  8 61  1  0
  8 62  1  0
  9 63  1  1
 10 64  1  0
 10 65  1  0
 13 66  1  6
 15 67  1  0
 15 68  1  0
 16 69  1  0
 16 70  1  0
 18 71  1  0
 19 72  1  0
 20 73  1  0
 21 74  1  0
 21 75  1  0
 21 76  1  0
 22 77  1  0
 22 78  1  0
 22 79  1  0
 25 80  1  0
 25 81  1  0
 26 82  1  0
 26 83  1  0
 27 84  1  0
 27 85  1  0
 27 86  1  0
 28 87  1  6
 29 88  1  0
 30 89  1  0
 31 90  1  0
 31 91  1  0
 32 92  1  0
 32 93  1  0
 33 94  1  0
 33 95  1  0
 34 96  1  0
 34 97  1  0
 36 98  1  0
 36 99  1  0
 37100  1  0
 37101  1  0
 43102  1  0
 44103  1  0
 47104  1  0
M  END
>  <filename_input>  (17) 
7MMH_ZJY_docked.sdf

>  <pdb_id>  (17) 
7MMH_ZJY

>  <pose_rank>  (17) 
16

>  <num_atoms_heavy>  (17) 
57

>  <num_torsions>  (17) 
11

>  <pose>  (17) 
[-17.81065205145789, 17.97773786837219, -16.617232180934163, 1.925182250892331, -0.8499281714475747, 1.0545035091413695, 0.8512229093804367, 3.651491864493085, -5.4782920897227765, -0.5313448825521087, -0.07586069208667616, -2.018844086104449, -0.08754225988684863, 0.5813844532763293, -7.233609458480152, -4.194549863657612, 1.9428889712953543]

>  <energy>  (17) 
-322.13647195546724

>  <inter_energy>  (17) 
-447.5000706059266

>  <intra_energy>  (17) 
116.40804707369288

>  <rmsd>  (17) 
10.1129

>  <sdf_rank>  (17) 
0

$$$$

     RDKit          3D

104110  0  0  0  0  0  0  0  0999 V2000
  -14.0438   20.6856  -17.8205 C   0  0  0  0  0  0  0  0  0  0  0  0
  -10.2557   19.4608  -20.8303 C   0  0  0  0  0  0  0  0  0  0  0  0
  -12.6701   15.8178  -16.5655 C   0  0  0  0  0  0  0  0  0  0  0  0
  -11.8394   13.1042  -16.3104 C   0  0  0  0  0  0  0  0  0  0  0  0
  -11.9649   15.0912  -17.7173 C   0  0  0  0  0  0  0  0  0  0  0  0
  -12.3935   11.6691  -13.7115 C   0  0  0  0  0  0  0  0  0  0  0  0
  -15.3713   18.5868  -17.1084 C   0  0  1  0  0  0  0  0  0  0  0  0
  -15.2444   17.5586  -15.8473 C   0  0  0  0  0  0  0  0  0  0  0  0
  -13.9257   17.5269  -15.6561 C   0  0  2  0  0  0  0  0  0  0  0  0
  -13.5006   19.0582  -15.6977 C   0  0  0  0  0  0  0  0  0  0  0  0
  -16.5162   19.5238  -17.2497 C   0  0  0  0  0  0  0  0  0  0  0  0
  -18.4484   20.0500  -18.8241 C   0  0  2  0  0  0  0  0  0  0  0  0
  -12.8790   21.6171  -17.4656 C   0  0  2  0  0  0  0  0  0  0  0  0
  -11.5805   20.5078  -19.2417 C   0  0  0  0  0  0  0  0  0  0  0  0
  -13.4543   23.0217  -17.2498 C   0  0  0  0  0  0  0  0  0  0  0  0
  -14.4362   23.0299  -16.0336 C   0  0  0  0  0  0  0  0  0  0  0  0
  -12.5545   13.8226  -15.1689 C   0  0  0  0  0  0  0  0  0  0  0  0
  -12.8480   13.1312  -13.8303 C   0  0  0  0  0  0  0  0  0  0  0  0
  -11.6888   10.9382  -14.8564 C   0  0  0  0  0  0  0  0  0  0  0  0
  -11.3860   11.6287  -16.1665 C   0  0  0  0  0  0  0  0  0  0  0  0
  -13.8126   11.3890  -11.8555 C   0  0  0  0  0  0  0  0  0  0  0  0
  -11.6823   15.8302  -19.0239 C   0  0  0  0  0  0  0  0  0  0  0  0
  -19.7423   20.1444  -18.0567 C   0  0  0  0  0  0  0  0  0  0  0  0
  -22.9236   17.6031  -17.9165 C   0  0  2  0  0  0  0  0  0  0  0  0
  -23.8263   17.9275  -19.1047 C   0  0  0  0  0  0  0  0  0  0  0  0
  -22.5145   17.1560  -19.3259 C   0  0  0  0  0  0  0  0  0  0  0  0
  -23.3822   16.5181  -16.9130 C   0  0  0  0  0  0  0  0  0  0  0  0
  -18.0491   21.4822  -19.2817 C   0  0  2  0  0  0  0  0  0  0  0  0
  -18.6652   22.8773  -19.1410 C   0  0  0  0  0  0  0  0  0  0  0  0
  -18.0561   23.9511  -18.5888 C   0  0  0  0  0  0  0  0  0  0  0  0
  -16.6229   23.9032  -18.0138 C   0  0  0  0  0  0  0  0  0  0  0  0
  -16.6433   24.2400  -16.5050 C   0  0  0  0  0  0  0  0  0  0  0  0
  -18.7052   20.5113  -20.2715 C   0  0  0  0  0  0  0  0  0  0  0  0
  -15.1807   24.4014  -15.9835 C   0  0  0  0  0  0  0  0  0  0  0  0
  -10.4436   19.5895  -22.3451 C   0  0  1  0  0  0  0  0  0  0  0  0
  -10.9660   20.9608  -22.7917 C   0  0  0  0  0  0  0  0  0  0  0  0
   -9.5134   20.5583  -23.0910 C   0  0  0  0  0  0  0  0  0  0  0  0
  -10.9811   18.3789  -23.1472 C   0  0  2  0  0  0  0  0  0  0  0  0
  -12.1938   18.0140  -22.6174 F   0  0  0  0  0  0  0  0  0  0  0  0
  -10.1051   17.3566  -23.0437 F   0  0  0  0  0  0  0  0  0  0  0  0
  -11.0848   18.7898  -24.4531 F   0  0  0  0  0  0  0  0  0  0  0  0
  -14.3273   19.5188  -16.9891 N   0  0  0  0  0  0  0  0  0  0  0  0
  -17.3682   19.1847  -18.3489 N   0  0  0  0  0  0  0  0  0  0  0  0
  -11.9393   21.7079  -18.5308 N   0  0  0  0  0  0  0  0  0  0  0  0
  -12.9890   15.2049  -15.3063 N   0  0  0  0  0  0  0  0  0  0  0  0
  -11.5475   13.7256  -17.5912 N   0  0  0  0  0  0  0  0  0  0  0  0
  -20.5440   18.9692  -18.1163 N   0  0  0  0  0  0  0  0  0  0  0  0
  -16.7034   20.4540  -16.5289 O   0  0  0  0  0  0  0  0  0  0  0  0
  -14.7087   20.9250  -18.7761 O   0  0  0  0  0  0  0  0  0  0  0  0
  -10.7096   20.6966  -20.3280 O   0  0  0  0  0  0  0  0  0  0  0  0
  -11.9807   19.4168  -18.9273 O   0  0  0  0  0  0  0  0  0  0  0  0
  -13.0885   17.1181  -16.7732 O   0  0  0  0  0  0  0  0  0  0  0  0
  -12.6438   10.9996  -12.5316 O   0  0  0  0  0  0  0  0  0  0  0  0
  -20.1522   21.1216  -17.4943 O   0  0  0  0  0  0  0  0  0  0  0  0
  -22.7622   20.2701  -17.4790 O   0  0  0  0  0  0  0  0  0  0  0  0
  -21.7871   18.7703  -15.9027 O   0  0  0  0  0  0  0  0  0  0  0  0
  -21.9842   19.0310  -17.3322 S   0  0  1  0  0  0  0  0  0  0  0  0
  -10.8566   18.6309  -20.4302 H   0  0  0  0  0  0  0  0  0  0  0  0
   -9.2148   19.2439  -20.5482 H   0  0  0  0  0  0  0  0  0  0  0  0
  -15.4264   17.8653  -17.9369 H   0  0  0  0  0  0  0  0  0  0  0  0
  -15.7688   17.9448  -14.9608 H   0  0  0  0  0  0  0  0  0  0  0  0
  -15.6930   16.5710  -16.0295 H   0  0  0  0  0  0  0  0  0  0  0  0
  -13.7895   16.8702  -14.7842 H   0  0  0  0  0  0  0  0  0  0  0  0
  -13.8166   19.5978  -14.7927 H   0  0  0  0  0  0  0  0  0  0  0  0
  -12.4174   19.2454  -15.7404 H   0  0  0  0  0  0  0  0  0  0  0  0
  -12.3735   21.2207  -16.5726 H   0  0  0  0  0  0  0  0  0  0  0  0
  -12.6307   23.7243  -17.0549 H   0  0  0  0  0  0  0  0  0  0  0  0
  -14.0044   23.3237  -18.1533 H   0  0  0  0  0  0  0  0  0  0  0  0
  -15.1691   22.2175  -16.1470 H   0  0  0  0  0  0  0  0  0  0  0  0
  -13.8710   22.8821  -15.1015 H   0  0  0  0  0  0  0  0  0  0  0  0
  -13.3542   13.6525  -13.0044 H   0  0  0  0  0  0  0  0  0  0  0  0
  -11.3960    9.8863  -14.7230 H   0  0  0  0  0  0  0  0  0  0  0  0
  -10.8660   11.1064  -16.9831 H   0  0  0  0  0  0  0  0  0  0  0  0
  -13.6442   11.3328  -10.7700 H   0  0  0  0  0  0  0  0  0  0  0  0
  -14.0704   12.4215  -12.1337 H   0  0  0  0  0  0  0  0  0  0  0  0
  -14.6381   10.7173  -12.1337 H   0  0  0  0  0  0  0  0  0  0  0  0
  -11.2977   16.8362  -18.8003 H   0  0  0  0  0  0  0  0  0  0  0  0
  -10.9340   15.2725  -19.6061 H   0  0  0  0  0  0  0  0  0  0  0  0
  -12.6118   15.9140  -19.6061 H   0  0  0  0  0  0  0  0  0  0  0  0
  -24.7923   17.4135  -19.2178 H   0  0  0  0  0  0  0  0  0  0  0  0
  -24.2668   18.8468  -19.5182 H   0  0  0  0  0  0  0  0  0  0  0  0
  -21.6686   17.6416  -19.8343 H   0  0  0  0  0  0  0  0  0  0  0  0
  -22.2424   16.1974  -19.7919 H   0  0  0  0  0  0  0  0  0  0  0  0
  -23.2290   16.8805  -15.8858 H   0  0  0  0  0  0  0  0  0  0  0  0
  -24.4491   16.3010  -17.0700 H   0  0  0  0  0  0  0  0  0  0  0  0
  -22.7946   15.6016  -17.0700 H   0  0  0  0  0  0  0  0  0  0  0  0
  -17.1217   22.0307  -19.0604 H   0  0  0  0  0  0  0  0  0  0  0  0
  -19.6880   23.0175  -19.5206 H   0  0  0  0  0  0  0  0  0  0  0  0
  -18.6064   24.9026  -18.5472 H   0  0  0  0  0  0  0  0  0  0  0  0
  -16.2078   22.8944  -18.1556 H   0  0  0  0  0  0  0  0  0  0  0  0
  -15.9998   24.6421  -18.5389 H   0  0  0  0  0  0  0  0  0  0  0  0
  -17.1937   25.1793  -16.3473 H   0  0  0  0  0  0  0  0  0  0  0  0
  -17.1386   23.4257  -15.9560 H   0  0  0  0  0  0  0  0  0  0  0  0
  -18.1133   20.0857  -21.0952 H   0  0  0  0  0  0  0  0  0  0  0  0
  -19.5896   20.5529  -20.9242 H   0  0  0  0  0  0  0  0  0  0  0  0
  -15.2030   24.7650  -14.9455 H   0  0  0  0  0  0  0  0  0  0  0  0
  -14.6491   25.1220  -16.6224 H   0  0  0  0  0  0  0  0  0  0  0  0
  -11.6971   21.0307  -23.6107 H   0  0  0  0  0  0  0  0  0  0  0  0
  -11.4493   21.8107  -22.2876 H   0  0  0  0  0  0  0  0  0  0  0  0
   -8.6856   21.0475  -22.5568 H   0  0  0  0  0  0  0  0  0  0  0  0
   -8.8929   20.4992  -23.9974 H   0  0  0  0  0  0  0  0  0  0  0  0
  -17.2131   18.2868  -18.8293 H   0  0  0  0  0  0  0  0  0  0  0  0
  -11.5239   22.6145  -18.7884 H   0  0  0  0  0  0  0  0  0  0  0  0
  -20.2370   18.1269  -18.6234 H   0  0  0  0  0  0  0  0  0  0  0  0
  1 13  1  0
  1 42  1  0
  1 49  2  0
 35  2  1  1
  2 50  1  0
  3  5  2  0
  3 45  1  0
  3 52  1  0
  4 17  1  0
  4 20  1  0
  4 46  2  0
  5 22  1  0
  5 46  1  0
  6 18  2  0
  6 19  1  0
  6 53  1  0
  7  8  1  0
  7 11  1  0
  7 42  1  0
  8  9  1  0
  9 10  1  0
  9 52  1  0
 10 42  1  0
 11 43  1  0
 11 48  2  0
 12 23  1  1
 12 28  1  0
 12 33  1  0
 12 43  1  0
 13 15  1  0
 13 44  1  0
 14 44  1  0
 14 50  1  0
 14 51  2  0
 15 16  1  0
 16 34  1  0
 17 18  1  0
 17 45  2  0
 19 20  2  0
 21 53  1  0
 23 47  1  0
 23 54  2  0
 24 25  1  0
 24 26  1  0
 24 27  1  1
 24 57  1  0
 25 26  1  0
 28 29  1  0
 28 33  1  0
 29 30  2  3
 30 31  1  0
 31 32  1  0
 32 34  1  0
 35 36  1  0
 35 37  1  0
 35 38  1  0
 36 37  1  0
 38 39  1  1
 38 40  1  0
 38 41  1  0
 57 47  1  6
 55 57  2  0
 56 57  2  0
  2 58  1  0
  2 59  1  0
  7 60  1  6
  8 61  1  0
  8 62  1  0
  9 63  1  1
 10 64  1  0
 10 65  1  0
 13 66  1  1
 15 67  1  0
 15 68  1  0
 16 69  1  0
 16 70  1  0
 18 71  1  0
 19 72  1  0
 20 73  1  0
 21 74  1  0
 21 75  1  0
 21 76  1  0
 22 77  1  0
 22 78  1  0
 22 79  1  0
 25 80  1  0
 25 81  1  0
 26 82  1  0
 26 83  1  0
 27 84  1  0
 27 85  1  0
 27 86  1  0
 28 87  1  6
 29 88  1  0
 30 89  1  0
 31 90  1  0
 31 91  1  0
 32 92  1  0
 32 93  1  0
 33 94  1  0
 33 95  1  0
 34 96  1  0
 34 97  1  0
 36 98  1  0
 36 99  1  0
 37100  1  0
 37101  1  0
 43102  1  0
 44103  1  0
 47104  1  0
M  END
>  <filename_input>  (18) 
7MMH_ZJY_docked.sdf

>  <pdb_id>  (18) 
7MMH_ZJY

>  <pose_rank>  (18) 
17

>  <num_atoms_heavy>  (18) 
57

>  <num_torsions>  (18) 
11

>  <pose>  (18) 
[-14.043841141443272, 20.685611682743392, -17.820488564406336, 0.8960042414540097, -2.844701109158297, 0.24268103479943298, 0.7345557411392192, 18.591261092416953, 12.168881694047114, -1.2439333519284592, 1.9864766638799065, -1.153129876716013, 5.9252073533429686, 1.154263050184936, 43.672764030233665, -24.972191152968353, 0.5482562044819699]

>  <energy>  (18) 
-483.1761286941491

>  <inter_energy>  (18) 
-565.4185119654543

>  <intra_energy>  (18) 
76.7233501864244

>  <rmsd>  (18) 
9.08378

>  <sdf_rank>  (18) 
0

$$$$

     RDKit          3D

104110  0  0  0  0  0  0  0  0999 V2000
  -13.9674   16.1180  -18.4305 C   0  0  0  0  0  0  0  0  0  0  0  0
  -14.3358   11.9437  -20.6622 C   0  0  0  0  0  0  0  0  0  0  0  0
  -15.3564   15.1389  -13.6731 C   0  0  0  0  0  0  0  0  0  0  0  0
  -17.0992   14.8893  -11.4327 C   0  0  0  0  0  0  0  0  0  0  0  0
  -14.9653   14.2973  -12.4522 C   0  0  0  0  0  0  0  0  0  0  0  0
  -19.7612   16.3131  -11.5161 C   0  0  0  0  0  0  0  0  0  0  0  0
  -14.7960   17.3818  -16.3352 C   0  0  1  0  0  0  0  0  0  0  0  0
  -14.2040   17.5480  -14.8233 C   0  0  0  0  0  0  0  0  0  0  0  0
  -13.6411   16.3569  -14.6209 C   0  0  2  0  0  0  0  0  0  0  0  0
  -12.8171   16.0965  -15.9554 C   0  0  0  0  0  0  0  0  0  0  0  0
  -14.8353   18.5152  -17.2956 C   0  0  0  0  0  0  0  0  0  0  0  0
  -16.4975   19.9086  -18.6313 C   0  0  2  0  0  0  0  0  0  0  0  0
  -12.8645   15.2201  -19.0032 C   0  0  2  0  0  0  0  0  0  0  0  0
  -12.8768   12.7567  -19.0543 C   0  0  0  0  0  0  0  0  0  0  0  0
  -12.2079   15.9726  -20.1665 C   0  0  0  0  0  0  0  0  0  0  0  0
  -11.5177   17.2779  -19.6538 C   0  0  0  0  0  0  0  0  0  0  0  0
  -17.4951   15.7152  -12.6540 C   0  0  0  0  0  0  0  0  0  0  0  0
  -18.8351   16.4598  -12.7324 C   0  0  0  0  0  0  0  0  0  0  0  0
  -19.3771   15.4756  -10.2944 C   0  0  0  0  0  0  0  0  0  0  0  0
  -18.0488   14.7586  -10.2143 C   0  0  0  0  0  0  0  0  0  0  0  0
  -21.8380   16.6623  -10.4664 C   0  0  0  0  0  0  0  0  0  0  0  0
  -13.6125   13.5888  -12.4179 C   0  0  0  0  0  0  0  0  0  0  0  0
  -16.2352   21.3790  -18.4285 C   0  0  0  0  0  0  0  0  0  0  0  0
  -14.0506   23.3422  -15.6323 C   0  0  2  0  0  0  0  0  0  0  0  0
  -13.2251   24.6262  -15.6763 C   0  0  0  0  0  0  0  0  0  0  0  0
  -14.2899   24.4356  -14.5832 C   0  0  0  0  0  0  0  0  0  0  0  0
  -13.3610   22.0341  -15.1763 C   0  0  0  0  0  0  0  0  0  0  0  0
  -16.0705   19.5340  -20.0795 C   0  0  2  0  0  0  0  0  0  0  0  0
  -15.4932   20.3008  -21.2730 C   0  0  0  0  0  0  0  0  0  0  0  0
  -14.3383   20.0038  -21.9111 C   0  0  0  0  0  0  0  0  0  0  0  0
  -13.4310   18.8216  -21.5037 C   0  0  0  0  0  0  0  0  0  0  0  0
  -12.0385   19.3413  -21.0783 C   0  0  0  0  0  0  0  0  0  0  0  0
  -17.5515   19.7504  -19.7439 C   0  0  0  0  0  0  0  0  0  0  0  0
  -11.0670   18.1358  -20.8780 C   0  0  0  0  0  0  0  0  0  0  0  0
  -15.1124   10.6527  -20.9389 C   0  0  1  0  0  0  0  0  0  0  0  0
  -14.3820    9.6760  -21.8692 C   0  0  0  0  0  0  0  0  0  0  0  0
  -14.5319    9.3465  -20.3757 C   0  0  0  0  0  0  0  0  0  0  0  0
  -16.6495   10.7163  -21.1149 C   0  0  2  0  0  0  0  0  0  0  0  0
  -17.0338   12.0337  -21.0809 F   0  0  0  0  0  0  0  0  0  0  0  0
  -17.2379   10.0371  -20.1070 F   0  0  0  0  0  0  0  0  0  0  0  0
  -16.9303   10.1220  -22.3202 F   0  0  0  0  0  0  0  0  0  0  0  0
  -13.9250   16.5255  -17.0287 N   0  0  0  0  0  0  0  0  0  0  0  0
  -16.1706   18.9468  -17.5780 N   0  0  0  0  0  0  0  0  0  0  0  0
  -13.3974   14.0113  -19.5331 N   0  0  0  0  0  0  0  0  0  0  0  0
  -16.6085   15.8308  -13.8025 N   0  0  0  0  0  0  0  0  0  0  0  0
  -15.8414   14.1695  -11.3248 N   0  0  0  0  0  0  0  0  0  0  0  0
  -15.6115   21.6956  -17.1882 N   0  0  0  0  0  0  0  0  0  0  0  0
  -13.8636   19.0089  -17.7774 O   0  0  0  0  0  0  0  0  0  0  0  0
  -14.8520   16.4753  -19.1392 O   0  0  0  0  0  0  0  0  0  0  0  0
  -13.5109   11.6133  -19.5686 O   0  0  0  0  0  0  0  0  0  0  0  0
  -11.9569   12.6825  -18.2812 O   0  0  0  0  0  0  0  0  0  0  0  0
  -14.4850   15.1786  -14.7446 O   0  0  0  0  0  0  0  0  0  0  0  0
  -20.9823   16.9545  -11.5420 O   0  0  0  0  0  0  0  0  0  0  0  0
  -16.5711   22.2585  -19.1720 O   0  0  0  0  0  0  0  0  0  0  0  0
  -16.5037   24.0927  -16.4981 O   0  0  0  0  0  0  0  0  0  0  0  0
  -14.7193   23.9121  -18.0691 O   0  0  0  0  0  0  0  0  0  0  0  0
  -15.3397   23.2874  -16.8964 S   0  0  1  0  0  0  0  0  0  0  0  0
  -13.7320   12.2323  -21.5351 H   0  0  0  0  0  0  0  0  0  0  0  0
  -14.9948   12.7996  -20.4540 H   0  0  0  0  0  0  0  0  0  0  0  0
  -15.8349   17.1049  -16.1030 H   0  0  0  0  0  0  0  0  0  0  0  0
  -13.4606   18.3570  -14.7705 H   0  0  0  0  0  0  0  0  0  0  0  0
  -14.9630   17.8163  -14.0737 H   0  0  0  0  0  0  0  0  0  0  0  0
  -13.1908   16.4315  -13.6201 H   0  0  0  0  0  0  0  0  0  0  0  0
  -11.9195   16.7296  -16.0150 H   0  0  0  0  0  0  0  0  0  0  0  0
  -12.4183   15.0779  -16.0715 H   0  0  0  0  0  0  0  0  0  0  0  0
  -12.1563   14.9783  -18.1970 H   0  0  0  0  0  0  0  0  0  0  0  0
  -11.4534   15.3249  -20.6368 H   0  0  0  0  0  0  0  0  0  0  0  0
  -12.9836   16.2438  -20.8979 H   0  0  0  0  0  0  0  0  0  0  0  0
  -12.2282   17.8540  -19.0426 H   0  0  0  0  0  0  0  0  0  0  0  0
  -10.6411   17.0168  -19.0429 H   0  0  0  0  0  0  0  0  0  0  0  0
  -19.1156   17.0631  -13.6084 H   0  0  0  0  0  0  0  0  0  0  0  0
  -20.0837   15.3935   -9.4554 H   0  0  0  0  0  0  0  0  0  0  0  0
  -17.7679   14.1692   -9.3290 H   0  0  0  0  0  0  0  0  0  0  0  0
  -21.3101   16.8426   -9.5184 H   0  0  0  0  0  0  0  0  0  0  0  0
  -22.7272   17.3077  -10.5194 H   0  0  0  0  0  0  0  0  0  0  0  0
  -22.1467   15.6078  -10.5194 H   0  0  0  0  0  0  0  0  0  0  0  0
  -13.3084   13.4295  -11.3729 H   0  0  0  0  0  0  0  0  0  0  0  0
  -13.6942   12.6177  -12.9281 H   0  0  0  0  0  0  0  0  0  0  0  0
  -12.8608   14.2090  -12.9281 H   0  0  0  0  0  0  0  0  0  0  0  0
  -12.1571   24.6024  -15.4137 H   0  0  0  0  0  0  0  0  0  0  0  0
  -13.0211   25.3936  -16.4376 H   0  0  0  0  0  0  0  0  0  0  0  0
  -15.2160   25.0287  -14.6067 H   0  0  0  0  0  0  0  0  0  0  0  0
  -14.2949   24.4742  -13.4839 H   0  0  0  0  0  0  0  0  0  0  0  0
  -13.3402   21.9946  -14.0772 H   0  0  0  0  0  0  0  0  0  0  0  0
  -13.9209   21.1702  -15.5638 H   0  0  0  0  0  0  0  0  0  0  0  0
  -12.3319   22.0079  -15.5638 H   0  0  0  0  0  0  0  0  0  0  0  0
  -15.3339   18.7807  -20.3957 H   0  0  0  0  0  0  0  0  0  0  0  0
  -16.0654   21.1648  -21.6419 H   0  0  0  0  0  0  0  0  0  0  0  0
  -14.0307   20.6331  -22.7592 H   0  0  0  0  0  0  0  0  0  0  0  0
  -13.8910   18.2834  -20.6618 H   0  0  0  0  0  0  0  0  0  0  0  0
  -13.3151   18.1445  -22.3629 H   0  0  0  0  0  0  0  0  0  0  0  0
  -11.6412   20.0053  -21.8602 H   0  0  0  0  0  0  0  0  0  0  0  0
  -12.1295   19.8973  -20.1336 H   0  0  0  0  0  0  0  0  0  0  0  0
  -18.2405   18.8931  -19.7279 H   0  0  0  0  0  0  0  0  0  0  0  0
  -18.3505   20.3891  -20.1484 H   0  0  0  0  0  0  0  0  0  0  0  0
  -10.0494   18.5145  -20.7014 H   0  0  0  0  0  0  0  0  0  0  0  0
  -11.0825   17.5082  -21.7813 H   0  0  0  0  0  0  0  0  0  0  0  0
  -14.9480    9.1027  -22.6183 H   0  0  0  0  0  0  0  0  0  0  0  0
  -13.5355    9.7529  -22.5674 H   0  0  0  0  0  0  0  0  0  0  0  0
  -13.6529    9.3747  -19.7150 H   0  0  0  0  0  0  0  0  0  0  0  0
  -14.9352    8.4989  -19.8021 H   0  0  0  0  0  0  0  0  0  0  0  0
  -16.9396   18.5611  -17.0117 H   0  0  0  0  0  0  0  0  0  0  0  0
  -14.1411   14.0334  -20.2453 H   0  0  0  0  0  0  0  0  0  0  0  0
  -15.3457   20.9659  -16.5117 H   0  0  0  0  0  0  0  0  0  0  0  0
  1 13  1  0
  1 42  1  0
  1 49  2  0
 35  2  1  1
  2 50  1  0
  3  5  2  0
  3 45  1  0
  3 52  1  0
  4 17  1  0
  4 20  1  0
  4 46  2  0
  5 22  1  0
  5 46  1  0
  6 18  2  0
  6 19  1  0
  6 53  1  0
  7  8  1  0
  7 11  1  0
  7 42  1  0
  8  9  1  0
  9 10  1  0
  9 52  1  0
 10 42  1  0
 11 43  1  0
 11 48  2  0
 12 23  1  1
 12 28  1  0
 12 33  1  0
 12 43  1  0
 13 15  1  0
 13 44  1  0
 14 44  1  0
 14 50  1  0
 14 51  2  0
 15 16  1  0
 16 34  1  0
 17 18  1  0
 17 45  2  0
 19 20  2  0
 21 53  1  0
 23 47  1  0
 23 54  2  0
 24 25  1  0
 24 26  1  0
 24 27  1  1
 24 57  1  0
 25 26  1  0
 28 29  1  0
 28 33  1  0
 29 30  2  3
 30 31  1  0
 31 32  1  0
 32 34  1  0
 35 36  1  0
 35 37  1  0
 35 38  1  0
 36 37  1  0
 38 39  1  6
 38 40  1  0
 38 41  1  0
 57 47  1  6
 55 57  2  0
 56 57  2  0
  2 58  1  0
  2 59  1  0
  7 60  1  1
  8 61  1  0
  8 62  1  0
  9 63  1  1
 10 64  1  0
 10 65  1  0
 13 66  1  1
 15 67  1  0
 15 68  1  0
 16 69  1  0
 16 70  1  0
 18 71  1  0
 19 72  1  0
 20 73  1  0
 21 74  1  0
 21 75  1  0
 21 76  1  0
 22 77  1  0
 22 78  1  0
 22 79  1  0
 25 80  1  0
 25 81  1  0
 26 82  1  0
 26 83  1  0
 27 84  1  0
 27 85  1  0
 27 86  1  0
 28 87  1  1
 29 88  1  0
 30 89  1  0
 31 90  1  0
 31 91  1  0
 32 92  1  0
 32 93  1  0
 33 94  1  0
 33 95  1  0
 34 96  1  0
 34 97  1  0
 36 98  1  0
 36 99  1  0
 37100  1  0
 37101  1  0
 43102  1  0
 44103  1  0
 47104  1  0
M  END
>  <filename_input>  (19) 
7MMH_ZJY_docked.sdf

>  <pdb_id>  (19) 
7MMH_ZJY

>  <pose_rank>  (19) 
18

>  <num_atoms_heavy>  (19) 
57

>  <num_torsions>  (19) 
11

>  <pose>  (19) 
[-13.967361679431015, 16.117972689085576, -18.430492696320425, -0.7110128284433627, -1.831106982284647, 0.835517924270009, -0.7194271701075722, -3.0234582056331356, 0.5885603204464793, -2.800610424348924, 1.070172529458487, 0.11776368214918416, 0.23719634476089355, -0.8215277831269667, 0.2558351435452484, 1.8112734130243067, -3.2651098521265918]

>  <energy>  (19) 
-429.3261810611941

>  <inter_energy>  (19) 
-469.39950235165935

>  <intra_energy>  (19) 
46.0705693783407

>  <rmsd>  (19) 
8.33229

>  <sdf_rank>  (19) 
0

$$$$

     RDKit          3D

104110  0  0  0  0  0  0  0  0999 V2000
  -15.3010   17.1463  -15.0318 C   0  0  0  0  0  0  0  0  0  0  0  0
  -14.3262   21.9488  -14.9741 C   0  0  0  0  0  0  0  0  0  0  0  0
  -19.9672   18.7956  -16.3046 C   0  0  0  0  0  0  0  0  0  0  0  0
  -22.6703   19.6793  -16.1263 C   0  0  0  0  0  0  0  0  0  0  0  0
  -20.5393   19.8091  -17.3034 C   0  0  0  0  0  0  0  0  0  0  0  0
  -24.3973   18.5845  -13.9038 C   0  0  0  0  0  0  0  0  0  0  0  0
  -17.7102   16.2188  -15.1304 C   0  0  1  0  0  0  0  0  0  0  0  0
  -18.8006   16.0661  -16.3352 C   0  0  0  0  0  0  0  0  0  0  0  0
  -18.5446   17.1481  -17.0702 C   0  0  2  0  0  0  0  0  0  0  0  0
  -16.9600   17.1515  -17.1991 C   0  0  0  0  0  0  0  0  0  0  0  0
  -17.0548   15.0401  -14.5060 C   0  0  0  0  0  0  0  0  0  0  0  0
  -16.8376   13.8703  -12.2536 C   0  0  2  0  0  0  0  0  0  0  0  0
  -14.1647   17.7834  -15.8402 C   0  0  2  0  0  0  0  0  0  0  0  0
  -13.4988   20.1344  -16.1566 C   0  0  0  0  0  0  0  0  0  0  0  0
  -12.9601   16.8370  -15.7770 C   0  0  0  0  0  0  0  0  0  0  0  0
  -13.3002   15.4722  -16.4589 C   0  0  0  0  0  0  0  0  0  0  0  0
  -22.0969   18.6816  -15.1231 C   0  0  0  0  0  0  0  0  0  0  0  0
  -22.9434   18.0962  -13.9843 C   0  0  0  0  0  0  0  0  0  0  0  0
  -24.9747   19.5950  -14.8972 C   0  0  0  0  0  0  0  0  0  0  0  0
  -24.1424   20.1552  -16.0279 C   0  0  0  0  0  0  0  0  0  0  0  0
  -24.6746   16.9956  -12.1905 C   0  0  0  0  0  0  0  0  0  0  0  0
  -19.6586   20.3492  -18.4285 C   0  0  0  0  0  0  0  0  0  0  0  0
  -17.1221   12.3970  -12.3957 C   0  0  0  0  0  0  0  0  0  0  0  0
  -18.6078    9.7100   -9.6945 C   0  0  2  0  0  0  0  0  0  0  0  0
  -17.6632    8.8165   -8.8937 C   0  0  0  0  0  0  0  0  0  0  0  0
  -17.8096   10.3025   -8.5261 C   0  0  0  0  0  0  0  0  0  0  0  0
  -20.1333    9.5241   -9.5138 C   0  0  0  0  0  0  0  0  0  0  0  0
  -15.3138   14.0485  -11.9961 C   0  0  2  0  0  0  0  0  0  0  0  0
  -14.1204   13.1000  -11.8477 C   0  0  0  0  0  0  0  0  0  0  0  0
  -12.9947   13.1335  -12.5965 C   0  0  0  0  0  0  0  0  0  0  0  0
  -12.7659   14.1606  -13.7277 C   0  0  0  0  0  0  0  0  0  0  0  0
  -12.5939   13.4326  -15.0808 C   0  0  0  0  0  0  0  0  0  0  0  0
  -16.3074   14.1294  -10.8304 C   0  0  0  0  0  0  0  0  0  0  0  0
  -12.1504   14.4550  -16.1741 C   0  0  0  0  0  0  0  0  0  0  0  0
  -14.4234   23.2820  -15.7221 C   0  0  1  0  0  0  0  0  0  0  0  0
  -15.2293   23.2058  -17.0250 C   0  0  0  0  0  0  0  0  0  0  0  0
  -15.8075   23.9434  -15.8070 C   0  0  0  0  0  0  0  0  0  0  0  0
  -13.1949   24.2242  -15.7534 C   0  0  2  0  0  0  0  0  0  0  0  0
  -13.6342   25.4977  -16.0171 F   0  0  0  0  0  0  0  0  0  0  0  0
  -12.3503   23.8163  -16.7248 F   0  0  0  0  0  0  0  0  0  0  0  0
  -12.5935   24.1241  -14.5234 F   0  0  0  0  0  0  0  0  0  0  0  0
  -16.5781   16.8476  -15.6742 N   0  0  0  0  0  0  0  0  0  0  0  0
  -17.4717   14.8360  -13.1519 N   0  0  0  0  0  0  0  0  0  0  0  0
  -13.7536   19.0237  -15.2759 N   0  0  0  0  0  0  0  0  0  0  0  0
  -20.7123   18.2414  -15.2088 N   0  0  0  0  0  0  0  0  0  0  0  0
  -21.8985   20.2558  -17.2144 N   0  0  0  0  0  0  0  0  0  0  0  0
  -17.6521   11.7884  -11.2227 N   0  0  0  0  0  0  0  0  0  0  0  0
  -16.2693   14.3434  -15.0695 O   0  0  0  0  0  0  0  0  0  0  0  0
  -15.1288   16.9006  -13.8817 O   0  0  0  0  0  0  0  0  0  0  0  0
  -13.1753   21.3417  -15.5149 O   0  0  0  0  0  0  0  0  0  0  0  0
  -13.5433   20.0417  -17.3561 O   0  0  0  0  0  0  0  0  0  0  0  0
  -18.6355   18.4462  -16.4201 O   0  0  0  0  0  0  0  0  0  0  0  0
  -25.1967   18.0961  -12.8911 O   0  0  0  0  0  0  0  0  0  0  0  0
  -16.8708   11.7257  -13.3578 O   0  0  0  0  0  0  0  0  0  0  0  0
  -16.8044    9.3197  -11.6758 O   0  0  0  0  0  0  0  0  0  0  0  0
  -19.0436    9.9138  -12.2397 O   0  0  0  0  0  0  0  0  0  0  0  0
  -17.9420   10.1755  -11.3078 S   0  0  1  0  0  0  0  0  0  0  0  0
  -14.2105   22.1139  -13.8927 H   0  0  0  0  0  0  0  0  0  0  0  0
  -15.2278   21.3295  -15.0906 H   0  0  0  0  0  0  0  0  0  0  0  0
  -18.3391   16.6957  -14.3643 H   0  0  0  0  0  0  0  0  0  0  0  0
  -18.6362   15.1428  -16.9101 H   0  0  0  0  0  0  0  0  0  0  0  0
  -19.8423   15.9980  -15.9886 H   0  0  0  0  0  0  0  0  0  0  0  0
  -19.2348   17.0713  -17.9232 H   0  0  0  0  0  0  0  0  0  0  0  0
  -16.6007   16.3642  -17.8781 H   0  0  0  0  0  0  0  0  0  0  0  0
  -16.5236   18.0693  -17.6200 H   0  0  0  0  0  0  0  0  0  0  0  0
  -14.5195   17.9551  -16.8671 H   0  0  0  0  0  0  0  0  0  0  0  0
  -12.1086   17.2996  -16.2975 H   0  0  0  0  0  0  0  0  0  0  0  0
  -12.7060   16.6543  -14.7225 H   0  0  0  0  0  0  0  0  0  0  0  0
  -14.2450   15.0829  -16.0518 H   0  0  0  0  0  0  0  0  0  0  0  0
  -13.4044   15.6175  -17.5443 H   0  0  0  0  0  0  0  0  0  0  0  0
  -22.5328   17.3696  -13.2678 H   0  0  0  0  0  0  0  0  0  0  0  0
  -26.0194   19.9211  -14.7861 H   0  0  0  0  0  0  0  0  0  0  0  0
  -24.5634   20.8701  -16.7501 H   0  0  0  0  0  0  0  0  0  0  0  0
  -24.7600   17.1756  -11.1087 H   0  0  0  0  0  0  0  0  0  0  0  0
  -25.2390   16.0899  -12.4572 H   0  0  0  0  0  0  0  0  0  0  0  0
  -23.6161   16.8598  -12.4572 H   0  0  0  0  0  0  0  0  0  0  0  0
  -18.7960   20.8782  -17.9971 H   0  0  0  0  0  0  0  0  0  0  0  0
  -19.3033   19.5135  -19.0493 H   0  0  0  0  0  0  0  0  0  0  0  0
  -20.2423   21.0448  -19.0493 H   0  0  0  0  0  0  0  0  0  0  0  0
  -18.0715    8.0424   -8.2272 H   0  0  0  0  0  0  0  0  0  0  0  0
  -16.8190    8.1568   -9.1430 H   0  0  0  0  0  0  0  0  0  0  0  0
  -16.9838   11.0025   -8.7216 H   0  0  0  0  0  0  0  0  0  0  0  0
  -18.0623   10.8586   -7.6112 H   0  0  0  0  0  0  0  0  0  0  0  0
  -20.3746    9.4947   -8.4410 H   0  0  0  0  0  0  0  0  0  0  0  0
  -20.6636   10.3643   -9.9860 H   0  0  0  0  0  0  0  0  0  0  0  0
  -20.4463    8.5812   -9.9860 H   0  0  0  0  0  0  0  0  0  0  0  0
  -14.5899   14.6297  -12.5862 H   0  0  0  0  0  0  0  0  0  0  0  0
  -14.1842   12.3275  -11.0672 H   0  0  0  0  0  0  0  0  0  0  0  0
  -12.2056   12.3952  -12.3907 H   0  0  0  0  0  0  0  0  0  0  0  0
  -13.6318   14.8365  -13.7858 H   0  0  0  0  0  0  0  0  0  0  0  0
  -11.8544   14.7370  -13.5111 H   0  0  0  0  0  0  0  0  0  0  0  0
  -11.8282   12.6494  -14.9801 H   0  0  0  0  0  0  0  0  0  0  0  0
  -13.5512   12.9770  -15.3742 H   0  0  0  0  0  0  0  0  0  0  0  0
  -16.5006   15.0956  -10.3413 H   0  0  0  0  0  0  0  0  0  0  0  0
  -16.4075   13.6160   -9.8627 H   0  0  0  0  0  0  0  0  0  0  0  0
  -11.9065   13.9137  -17.1001 H   0  0  0  0  0  0  0  0  0  0  0  0
  -11.2667   15.0031  -15.8157 H   0  0  0  0  0  0  0  0  0  0  0  0
  -14.9023   23.7744  -17.9079 H   0  0  0  0  0  0  0  0  0  0  0  0
  -15.5767   22.3915  -17.6779 H   0  0  0  0  0  0  0  0  0  0  0  0
  -16.6573   23.5141  -15.2560 H   0  0  0  0  0  0  0  0  0  0  0  0
  -16.1997   24.9545  -15.6233 H   0  0  0  0  0  0  0  0  0  0  0  0
  -18.2570   15.3968  -12.7918 H   0  0  0  0  0  0  0  0  0  0  0  0
  -13.6405   19.1251  -14.2572 H   0  0  0  0  0  0  0  0  0  0  0  0
  -17.8429   12.3305  -10.3680 H   0  0  0  0  0  0  0  0  0  0  0  0
  1 13  1  0
  1 42  1  0
  1 49  2  0
 35  2  1  1
  2 50  1  0
  3  5  2  0
  3 45  1  0
  3 52  1  0
  4 17  1  0
  4 20  1  0
  4 46  2  0
  5 22  1  0
  5 46  1  0
  6 18  2  0
  6 19  1  0
  6 53  1  0
  7  8  1  0
  7 11  1  0
  7 42  1  0
  8  9  1  0
  9 10  1  0
  9 52  1  0
 10 42  1  0
 11 43  1  0
 11 48  2  0
 12 23  1  1
 12 28  1  0
 12 33  1  0
 12 43  1  0
 13 15  1  0
 13 44  1  0
 14 44  1  0
 14 50  1  0
 14 51  2  0
 15 16  1  0
 16 34  1  0
 17 18  1  0
 17 45  2  0
 19 20  2  0
 21 53  1  0
 23 47  1  0
 23 54  2  0
 24 25  1  0
 24 26  1  0
 24 27  1  6
 24 57  1  0
 25 26  1  0
 28 29  1  0
 28 33  1  0
 29 30  2  3
 30 31  1  0
 31 32  1  0
 32 34  1  0
 35 36  1  0
 35 37  1  0
 35 38  1  0
 36 37  1  0
 38 39  1  6
 38 40  1  0
 38 41  1  0
 57 47  1  1
 55 57  2  0
 56 57  2  0
  2 58  1  0
  2 59  1  0
  7 60  1  1
  8 61  1  0
  8 62  1  0
  9 63  1  6
 10 64  1  0
 10 65  1  0
 13 66  1  6
 15 67  1  0
 15 68  1  0
 16 69  1  0
 16 70  1  0
 18 71  1  0
 19 72  1  0
 20 73  1  0
 21 74  1  0
 21 75  1  0
 21 76  1  0
 22 77  1  0
 22 78  1  0
 22 79  1  0
 25 80  1  0
 25 81  1  0
 26 82  1  0
 26 83  1  0
 27 84  1  0
 27 85  1  0
 27 86  1  0
 28 87  1  6
 29 88  1  0
 30 89  1  0
 31 90  1  0
 31 91  1  0
 32 92  1  0
 32 93  1  0
 33 94  1  0
 33 95  1  0
 34 96  1  0
 34 97  1  0
 36 98  1  0
 36 99  1  0
 37100  1  0
 37101  1  0
 43102  1  0
 44103  1  0
 47104  1  0
M  END
>  <filename_input>  (20) 
7MMH_ZJY_docked.sdf

>  <pdb_id>  (20) 
7MMH_ZJY

>  <pose_rank>  (20) 
19

>  <num_atoms_heavy>  (20) 
57

>  <num_torsions>  (20) 
11

>  <pose>  (20) 
[-15.300964522870304, 17.146285632014813, -15.031755420636014, -0.03674110588145726, -0.5128857682770043, -2.3531918341117373, -7.21138243840869, -4.5767744434871505, 1.5125285544908613, 6.545872496521397, -1.7682880536098409, -2.0599372906030533, -0.11392147234583448, 0.8247220760177328, 0.13536053106601892, -4.584804819684188, -0.22029882446374863]

>  <energy>  (20) 
-538.2171340869784

>  <inter_energy>  (20) 
-564.4676545918152

>  <intra_energy>  (20) 
30.26819522785279

>  <rmsd>  (20) 
11.4129

>  <sdf_rank>  (20) 
0

$$$$

     RDKit          3D

104110  0  0  0  0  0  0  0  0999 V2000
  -13.0008   15.2290  -18.7437 C   0  0  0  0  0  0  0  0  0  0  0  0
  -15.2626   11.3466  -20.2599 C   0  0  0  0  0  0  0  0  0  0  0  0
  -14.6702   13.4356  -14.1564 C   0  0  0  0  0  0  0  0  0  0  0  0
  -15.6142   11.9346  -11.9260 C   0  0  0  0  0  0  0  0  0  0  0  0
  -14.1706   12.0106  -13.8890 C   0  0  0  0  0  0  0  0  0  0  0  0
  -17.6471   13.2089  -10.0919 C   0  0  0  0  0  0  0  0  0  0  0  0
  -13.5218   16.4313  -16.5172 C   0  0  1  0  0  0  0  0  0  0  0  0
  -13.0708   16.1655  -14.9713 C   0  0  0  0  0  0  0  0  0  0  0  0
  -13.0078   14.8347  -14.9331 C   0  0  2  0  0  0  0  0  0  0  0  0
  -12.2025   14.4563  -16.2506 C   0  0  0  0  0  0  0  0  0  0  0  0
  -13.0430   17.6090  -17.2869 C   0  0  0  0  0  0  0  0  0  0  0  0
  -13.9306   19.6864  -18.4638 C   0  0  2  0  0  0  0  0  0  0  0  0
  -12.2505   14.0628  -19.3974 C   0  0  2  0  0  0  0  0  0  0  0  0
  -13.0027   11.7958  -20.0021 C   0  0  0  0  0  0  0  0  0  0  0  0
  -11.2467   14.6544  -20.3940 C   0  0  0  0  0  0  0  0  0  0  0  0
  -10.1836   15.5246  -19.6484 C   0  0  0  0  0  0  0  0  0  0  0  0
  -16.1227   13.3476  -12.2001 C   0  0  0  0  0  0  0  0  0  0  0  0
  -17.1496   14.0333  -11.2883 C   0  0  0  0  0  0  0  0  0  0  0  0
  -17.1525   11.7869   -9.8188 C   0  0  0  0  0  0  0  0  0  0  0  0
  -16.1278   11.1224  -10.7095 C   0  0  0  0  0  0  0  0  0  0  0  0
  -18.0527   14.5949   -8.2340 C   0  0  0  0  0  0  0  0  0  0  0  0
  -13.1357   11.3799  -14.8188 C   0  0  0  0  0  0  0  0  0  0  0  0
  -13.1704   20.9094  -18.0185 C   0  0  0  0  0  0  0  0  0  0  0  0
  -13.2930   23.0017  -14.6284 C   0  0  2  0  0  0  0  0  0  0  0  0
  -14.1177   24.2567  -14.9059 C   0  0  0  0  0  0  0  0  0  0  0  0
  -14.8110   22.8868  -14.8180 C   0  0  0  0  0  0  0  0  0  0  0  0
  -12.7191   22.7926  -13.2066 C   0  0  0  0  0  0  0  0  0  0  0  0
  -13.5224   19.3679  -19.9308 C   0  0  2  0  0  0  0  0  0  0  0  0
  -12.5835   20.0064  -20.9587 C   0  0  0  0  0  0  0  0  0  0  0  0
  -11.5581   19.3799  -21.5792 C   0  0  0  0  0  0  0  0  0  0  0  0
  -11.1947   17.9007  -21.3208 C   0  0  0  0  0  0  0  0  0  0  0  0
   -9.7609   17.7965  -20.7519 C   0  0  0  0  0  0  0  0  0  0  0  0
  -14.8473   20.0827  -19.6370 C   0  0  0  0  0  0  0  0  0  0  0  0
   -9.3252   16.2983  -20.6983 C   0  0  0  0  0  0  0  0  0  0  0  0
  -16.1513   10.9710  -21.4496 C   0  0  1  0  0  0  0  0  0  0  0  0
  -15.5316    9.9212  -22.3806 C   0  0  0  0  0  0  0  0  0  0  0  0
  -16.7199    9.5441  -21.4820 C   0  0  0  0  0  0  0  0  0  0  0  0
  -16.9851   12.0722  -22.1497 C   0  0  2  0  0  0  0  0  0  0  0  0
  -16.4969   13.2953  -21.7622 F   0  0  0  0  0  0  0  0  0  0  0  0
  -18.2774   11.9513  -21.7772 F   0  0  0  0  0  0  0  0  0  0  0  0
  -16.8548   11.8625  -23.5002 F   0  0  0  0  0  0  0  0  0  0  0  0
  -12.9582   15.4063  -17.2946 N   0  0  0  0  0  0  0  0  0  0  0  0
  -14.0902   18.5455  -17.5615 N   0  0  0  0  0  0  0  0  0  0  0  0
  -13.1309   13.2239  -20.1370 N   0  0  0  0  0  0  0  0  0  0  0  0
  -15.6484   14.1076  -13.3473 N   0  0  0  0  0  0  0  0  0  0  0  0
  -14.6454   11.2534  -12.7682 N   0  0  0  0  0  0  0  0  0  0  0  0
  -13.1400   21.0967  -16.6073 N   0  0  0  0  0  0  0  0  0  0  0  0
  -11.9136   17.7566  -17.6370 O   0  0  0  0  0  0  0  0  0  0  0  0
  -13.6141   15.9821  -19.4287 O   0  0  0  0  0  0  0  0  0  0  0  0
  -13.9599   11.0428  -20.7028 O   0  0  0  0  0  0  0  0  0  0  0  0
  -12.1342   11.2756  -19.3507 O   0  0  0  0  0  0  0  0  0  0  0  0
  -14.2069   14.0891  -15.2822 O   0  0  0  0  0  0  0  0  0  0  0  0
  -18.5791   13.7766   -9.2480 O   0  0  0  0  0  0  0  0  0  0  0  0
  -12.6823   21.7318  -18.7428 O   0  0  0  0  0  0  0  0  0  0  0  0
  -12.1749   23.5261  -17.0378 O   0  0  0  0  0  0  0  0  0  0  0  0
  -11.0495   22.0673  -15.5245 O   0  0  0  0  0  0  0  0  0  0  0  0
  -12.3604   22.4363  -16.0682 S   0  0  1  0  0  0  0  0  0  0  0  0
  -15.3563   12.4169  -20.0235 H   0  0  0  0  0  0  0  0  0  0  0  0
  -15.5347   10.8088  -19.3397 H   0  0  0  0  0  0  0  0  0  0  0  0
  -14.6081   16.5401  -16.3821 H   0  0  0  0  0  0  0  0  0  0  0  0
  -12.0925   16.6197  -14.7553 H   0  0  0  0  0  0  0  0  0  0  0  0
  -13.7523   16.6018  -14.2261 H   0  0  0  0  0  0  0  0  0  0  0  0
  -12.6682   14.6043  -13.9125 H   0  0  0  0  0  0  0  0  0  0  0  0
  -11.1344   14.7054  -16.1659 H   0  0  0  0  0  0  0  0  0  0  0  0
  -12.1949   13.3867  -16.5071 H   0  0  0  0  0  0  0  0  0  0  0  0
  -11.7680   13.4698  -18.6064 H   0  0  0  0  0  0  0  0  0  0  0  0
  -10.7374   13.8359  -20.9239 H   0  0  0  0  0  0  0  0  0  0  0  0
  -11.7884   15.2902  -21.1097 H   0  0  0  0  0  0  0  0  0  0  0  0
  -10.6930   16.2425  -18.9888 H   0  0  0  0  0  0  0  0  0  0  0  0
   -9.5322   14.8753  -19.0450 H   0  0  0  0  0  0  0  0  0  0  0  0
  -17.5081   15.0554  -11.4805 H   0  0  0  0  0  0  0  0  0  0  0  0
  -17.5516   11.2357   -8.9546 H   0  0  0  0  0  0  0  0  0  0  0  0
  -15.7621   10.1056  -10.5032 H   0  0  0  0  0  0  0  0  0  0  0  0
  -18.3202   14.1791   -7.2514 H   0  0  0  0  0  0  0  0  0  0  0  0
  -16.9576   14.6371   -8.3285 H   0  0  0  0  0  0  0  0  0  0  0  0
  -18.4682   15.6090   -8.3285 H   0  0  0  0  0  0  0  0  0  0  0  0
  -12.3483   10.8999  -14.2191 H   0  0  0  0  0  0  0  0  0  0  0  0
  -13.6243   10.6258  -15.4534 H   0  0  0  0  0  0  0  0  0  0  0  0
  -12.6894   12.1597  -15.4534 H   0  0  0  0  0  0  0  0  0  0  0  0
  -14.2694   25.0018  -14.1110 H   0  0  0  0  0  0  0  0  0  0  0  0
  -14.0796   25.0622  -15.6541 H   0  0  0  0  0  0  0  0  0  0  0  0
  -15.2191   22.4165  -15.7248 H   0  0  0  0  0  0  0  0  0  0  0  0
  -15.6413   22.4691  -14.2296 H   0  0  0  0  0  0  0  0  0  0  0  0
  -13.4784   23.0692  -12.4604 H   0  0  0  0  0  0  0  0  0  0  0  0
  -12.4429   21.7361  -13.0744 H   0  0  0  0  0  0  0  0  0  0  0  0
  -11.8280   23.4239  -13.0744 H   0  0  0  0  0  0  0  0  0  0  0  0
  -13.0843   18.4397  -20.3263 H   0  0  0  0  0  0  0  0  0  0  0  0
  -12.7576   21.0623  -21.2133 H   0  0  0  0  0  0  0  0  0  0  0  0
  -10.9549   19.9499  -22.3013 H   0  0  0  0  0  0  0  0  0  0  0  0
  -11.9048   17.4728  -20.5979 H   0  0  0  0  0  0  0  0  0  0  0  0
  -11.2463   17.3467  -22.2697 H   0  0  0  0  0  0  0  0  0  0  0  0
   -9.0690   18.3558  -21.3988 H   0  0  0  0  0  0  0  0  0  0  0  0
   -9.7397   18.2192  -19.7366 H   0  0  0  0  0  0  0  0  0  0  0  0
  -15.8002   19.5549  -19.7901 H   0  0  0  0  0  0  0  0  0  0  0  0
  -15.3101   21.0222  -19.9734 H   0  0  0  0  0  0  0  0  0  0  0  0
   -8.2639   16.2385  -20.4151 H   0  0  0  0  0  0  0  0  0  0  0  0
   -9.4755   15.8450  -21.6892 H   0  0  0  0  0  0  0  0  0  0  0  0
  -15.6691   10.0017  -23.4690 H   0  0  0  0  0  0  0  0  0  0  0  0
  -14.5185    9.5226  -22.5379 H   0  0  0  0  0  0  0  0  0  0  0  0
  -16.5696    8.8723  -20.6240 H   0  0  0  0  0  0  0  0  0  0  0  0
  -17.7149    9.1062  -21.6500 H   0  0  0  0  0  0  0  0  0  0  0  0
  -15.0015   18.4095  -17.1011 H   0  0  0  0  0  0  0  0  0  0  0  0
  -13.8461   13.6305  -20.7568 H   0  0  0  0  0  0  0  0  0  0  0  0
  -13.5829   20.4284  -15.9607 H   0  0  0  0  0  0  0  0  0  0  0  0
  1 13  1  0
  1 42  1  0
  1 49  2  0
 35  2  1  1
  2 50  1  0
  3  5  2  0
  3 45  1  0
  3 52  1  0
  4 17  1  0
  4 20  1  0
  4 46  2  0
  5 22  1  0
  5 46  1  0
  6 18  2  0
  6 19  1  0
  6 53  1  0
  7  8  1  0
  7 11  1  0
  7 42  1  0
  8  9  1  0
  9 10  1  0
  9 52  1  0
 10 42  1  0
 11 43  1  0
 11 48  2  0
 12 23  1  1
 12 28  1  0
 12 33  1  0
 12 43  1  0
 13 15  1  0
 13 44  1  0
 14 44  1  0
 14 50  1  0
 14 51  2  0
 15 16  1  0
 16 34  1  0
 17 18  1  0
 17 45  2  0
 19 20  2  0
 21 53  1  0
 23 47  1  0
 23 54  2  0
 24 25  1  0
 24 26  1  0
 24 27  1  1
 24 57  1  0
 25 26  1  0
 28 29  1  0
 28 33  1  0
 29 30  2  3
 30 31  1  0
 31 32  1  0
 32 34  1  0
 35 36  1  0
 35 37  1  0
 35 38  1  0
 36 37  1  0
 38 39  1  6
 38 40  1  0
 38 41  1  0
 57 47  1  6
 55 57  2  0
 56 57  2  0
  2 58  1  0
  2 59  1  0
  7 60  1  1
  8 61  1  0
  8 62  1  0
  9 63  1  1
 10 64  1  0
 10 65  1  0
 13 66  1  1
 15 67  1  0
 15 68  1  0
 16 69  1  0
 16 70  1  0
 18 71  1  0
 19 72  1  0
 20 73  1  0
 21 74  1  0
 21 75  1  0
 21 76  1  0
 22 77  1  0
 22 78  1  0
 22 79  1  0
 25 80  1  0
 25 81  1  0
 26 82  1  0
 26 83  1  0
 27 84  1  0
 27 85  1  0
 27 86  1  0
 28 87  1  1
 29 88  1  0
 30 89  1  0
 31 90  1  0
 31 91  1  0
 32 92  1  0
 32 93  1  0
 33 94  1  0
 33 95  1  0
 34 96  1  0
 34 97  1  0
 36 98  1  0
 36 99  1  0
 37100  1  0
 37101  1  0
 43102  1  0
 44103  1  0
 47104  1  0
M  END
>  <filename_input>  (21) 
7MMH_ZJY_docked.sdf

>  <pdb_id>  (21) 
7MMH_ZJY

>  <pose_rank>  (21) 
20

>  <num_atoms_heavy>  (21) 
57

>  <num_torsions>  (21) 
11

>  <pose>  (21) 
[-13.000793368843057, 15.229035272828646, -18.743678803475266, -0.9701134299866152, -1.7275095682511643, 0.4230810576891215, -0.899613375207742, 1.9866893874163858, -12.555931070077477, -7.148952908179911, 1.259846191474161, -0.3624539853950572, -0.7444029502968894, 0.9251902727172275, -6.764131899047347, 1.8868830156040002, -1.484118888526224]

>  <energy>  (21) 
-522.9920500981848

>  <inter_energy>  (21) 
-563.7456427678687

>  <intra_energy>  (21) 
48.09640217351473

>  <rmsd>  (21) 
8.22025

>  <sdf_rank>  (21) 
0

$$$$

     RDKit          3D

104110  0  0  0  0  0  0  0  0999 V2000
  -15.9571   16.1849  -15.4568 C   0  0  0  0  0  0  0  0  0  0  0  0
  -11.9639   11.6278  -15.1682 C   0  0  0  0  0  0  0  0  0  0  0  0
  -19.5178   14.1367  -12.6772 C   0  0  0  0  0  0  0  0  0  0  0  0
  -20.4079   12.3762  -10.6211 C   0  0  0  0  0  0  0  0  0  0  0  0
  -20.9898   14.0952  -12.2488 C   0  0  0  0  0  0  0  0  0  0  0  0
  -18.3763   10.5896   -9.2789 C   0  0  0  0  0  0  0  0  0  0  0  0
  -18.2832   17.2321  -15.0486 C   0  0  1  0  0  0  0  0  0  0  0  0
  -19.1997   17.4331  -13.7132 C   0  0  0  0  0  0  0  0  0  0  0  0
  -18.9062   16.3356  -13.0161 C   0  0  2  0  0  0  0  0  0  0  0  0
  -17.3204   16.2517  -13.0931 C   0  0  0  0  0  0  0  0  0  0  0  0
  -17.6551   18.3796  -15.7539 C   0  0  0  0  0  0  0  0  0  0  0  0
  -17.6716   19.5490  -18.0168 C   0  0  2  0  0  0  0  0  0  0  0  0
  -14.7597   15.4869  -14.8012 C   0  0  2  0  0  0  0  0  0  0  0  0
  -13.2811   13.5322  -15.0532 C   0  0  0  0  0  0  0  0  0  0  0  0
  -13.5270   16.3717  -15.0207 C   0  0  0  0  0  0  0  0  0  0  0  0
  -13.7064   17.7482  -14.3022 C   0  0  0  0  0  0  0  0  0  0  0  0
  -18.9399   12.4277  -11.0371 C   0  0  0  0  0  0  0  0  0  0  0  0
  -17.8782   11.5312  -10.3851 C   0  0  0  0  0  0  0  0  0  0  0  0
  -19.8435   10.5426   -8.8470 C   0  0  0  0  0  0  0  0  0  0  0  0
  -20.8887   11.4146   -9.5042 C   0  0  0  0  0  0  0  0  0  0  0  0
  -17.9667    8.9930   -7.5995 C   0  0  0  0  0  0  0  0  0  0  0  0
  -22.0096   14.9975  -12.9410 C   0  0  0  0  0  0  0  0  0  0  0  0
  -17.8603   21.0341  -17.8409 C   0  0  0  0  0  0  0  0  0  0  0  0
  -16.0822   23.6459  -15.2452 C   0  0  2  0  0  0  0  0  0  0  0  0
  -14.9863   24.5965  -15.7221 C   0  0  0  0  0  0  0  0  0  0  0  0
  -16.1405   25.1288  -14.8563 C   0  0  0  0  0  0  0  0  0  0  0  0
  -15.7405   22.6167  -14.1414 C   0  0  0  0  0  0  0  0  0  0  0  0
  -16.2048   19.2956  -18.4690 C   0  0  2  0  0  0  0  0  0  0  0  0
  -14.9941   20.1835  -18.7715 C   0  0  0  0  0  0  0  0  0  0  0  0
  -13.7843   20.0893  -18.1744 C   0  0  0  0  0  0  0  0  0  0  0  0
  -13.4636   19.0459  -17.0811 C   0  0  0  0  0  0  0  0  0  0  0  0
  -13.0816   19.7569  -15.7625 C   0  0  0  0  0  0  0  0  0  0  0  0
  -17.3435   19.2712  -19.4963 C   0  0  0  0  0  0  0  0  0  0  0  0
  -12.5530   18.7077  -14.7344 C   0  0  0  0  0  0  0  0  0  0  0  0
  -11.3768   10.9638  -16.4175 C   0  0  1  0  0  0  0  0  0  0  0  0
  -12.0517    9.6381  -16.7915 C   0  0  0  0  0  0  0  0  0  0  0  0
  -12.2745   10.8849  -17.6617 C   0  0  0  0  0  0  0  0  0  0  0  0
   -9.8486   11.0245  -16.6604 C   0  0  2  0  0  0  0  0  0  0  0  0
   -9.6076   10.7110  -17.9749 F   0  0  0  0  0  0  0  0  0  0  0  0
   -9.2374   10.1316  -15.8527 F   0  0  0  0  0  0  0  0  0  0  0  0
   -9.4532   12.3015  -16.3477 F   0  0  0  0  0  0  0  0  0  0  0  0
  -17.1237   16.5441  -14.6550 N   0  0  0  0  0  0  0  0  0  0  0  0
  -18.2325   18.6117  -17.0430 N   0  0  0  0  0  0  0  0  0  0  0  0
  -14.4884   14.2305  -15.4124 N   0  0  0  0  0  0  0  0  0  0  0  0
  -18.4856   13.3369  -12.0789 N   0  0  0  0  0  0  0  0  0  0  0  0
  -21.4391   13.2112  -11.2137 N   0  0  0  0  0  0  0  0  0  0  0  0
  -17.0627   21.6062  -16.8095 N   0  0  0  0  0  0  0  0  0  0  0  0
  -16.7691   19.0327  -15.2975 O   0  0  0  0  0  0  0  0  0  0  0  0
  -15.9227   16.4277  -16.6197 O   0  0  0  0  0  0  0  0  0  0  0  0
  -13.1285   12.2650  -15.6406 O   0  0  0  0  0  0  0  0  0  0  0  0
  -12.4509   13.9975  -14.3159 O   0  0  0  0  0  0  0  0  0  0  0  0
  -19.1460   15.0474  -13.6475 O   0  0  0  0  0  0  0  0  0  0  0  0
  -17.4587    9.7707   -8.6540 O   0  0  0  0  0  0  0  0  0  0  0  0
  -18.6540   21.7130  -18.4310 O   0  0  0  0  0  0  0  0  0  0  0  0
  -18.6149   23.6655  -16.2021 O   0  0  0  0  0  0  0  0  0  0  0  0
  -16.7965   23.9719  -17.7136 O   0  0  0  0  0  0  0  0  0  0  0  0
  -17.2584   23.2141  -16.5463 S   0  0  1  0  0  0  0  0  0  0  0  0
  -12.2113   10.8757  -14.4045 H   0  0  0  0  0  0  0  0  0  0  0  0
  -11.2622   12.3261  -14.6886 H   0  0  0  0  0  0  0  0  0  0  0  0
  -19.0293   16.7917  -15.7264 H   0  0  0  0  0  0  0  0  0  0  0  0
  -18.9159   18.3439  -13.1654 H   0  0  0  0  0  0  0  0  0  0  0  0
  -20.2727   17.5556  -13.9223 H   0  0  0  0  0  0  0  0  0  0  0  0
  -19.4756   16.4427  -12.0811 H   0  0  0  0  0  0  0  0  0  0  0  0
  -16.8369   17.0162  -12.4672 H   0  0  0  0  0  0  0  0  0  0  0  0
  -16.8804   15.3108  -12.7310 H   0  0  0  0  0  0  0  0  0  0  0  0
  -14.9872   15.3278  -13.7368 H   0  0  0  0  0  0  0  0  0  0  0  0
  -12.6399   15.8640  -14.6141 H   0  0  0  0  0  0  0  0  0  0  0  0
  -13.4022   16.5470  -16.0995 H   0  0  0  0  0  0  0  0  0  0  0  0
  -14.6750   18.1868  -14.5842 H   0  0  0  0  0  0  0  0  0  0  0  0
  -13.6768   17.6026  -13.2123 H   0  0  0  0  0  0  0  0  0  0  0  0
  -16.8224   11.5613  -10.6923 H   0  0  0  0  0  0  0  0  0  0  0  0
  -20.1445    9.8586   -8.0398 H   0  0  0  0  0  0  0  0  0  0  0  0
  -21.9456   11.3688   -9.2028 H   0  0  0  0  0  0  0  0  0  0  0  0
  -17.6737    9.4415   -6.6389 H   0  0  0  0  0  0  0  0  0  0  0  0
  -19.0640    8.9555   -7.6672 H   0  0  0  0  0  0  0  0  0  0  0  0
  -17.5601    7.9731   -7.6672 H   0  0  0  0  0  0  0  0  0  0  0  0
  -22.6064   15.5254  -12.1827 H   0  0  0  0  0  0  0  0  0  0  0  0
  -21.4833   15.7310  -13.5694 H   0  0  0  0  0  0  0  0  0  0  0  0
  -22.6735   14.3856  -13.5694 H   0  0  0  0  0  0  0  0  0  0  0  0
  -13.9726   24.5221  -15.3016 H   0  0  0  0  0  0  0  0  0  0  0  0
  -14.5610   24.8642  -16.7006 H   0  0  0  0  0  0  0  0  0  0  0  0
  -16.9042   25.7850  -15.2991 H   0  0  0  0  0  0  0  0  0  0  0  0
  -16.2136   25.6847  -13.9100 H   0  0  0  0  0  0  0  0  0  0  0  0
  -15.8926   23.0750  -13.1530 H   0  0  0  0  0  0  0  0  0  0  0  0
  -16.3953   21.7388  -14.2432 H   0  0  0  0  0  0  0  0  0  0  0  0
  -14.6905   22.3048  -14.2432 H   0  0  0  0  0  0  0  0  0  0  0  0
  -15.4412   18.6755  -17.9767 H   0  0  0  0  0  0  0  0  0  0  0  0
  -15.1189   20.9624  -19.5381 H   0  0  0  0  0  0  0  0  0  0  0  0
  -12.9919   20.7879  -18.4814 H   0  0  0  0  0  0  0  0  0  0  0  0
  -14.3479   18.4142  -16.9107 H   0  0  0  0  0  0  0  0  0  0  0  0
  -12.6182   18.4254  -17.4131 H   0  0  0  0  0  0  0  0  0  0  0  0
  -12.2966   20.5011  -15.9622 H   0  0  0  0  0  0  0  0  0  0  0  0
  -13.9686   20.2587  -15.3484 H   0  0  0  0  0  0  0  0  0  0  0  0
  -17.6470   18.3186  -19.9552 H   0  0  0  0  0  0  0  0  0  0  0  0
  -17.5416   19.7941  -20.4436 H   0  0  0  0  0  0  0  0  0  0  0  0
  -12.1644   19.2310  -13.8484 H   0  0  0  0  0  0  0  0  0  0  0  0
  -11.7519   18.1176  -15.2034 H   0  0  0  0  0  0  0  0  0  0  0  0
  -11.4475    8.8019  -17.1732 H   0  0  0  0  0  0  0  0  0  0  0  0
  -12.7085    8.9258  -16.2706 H   0  0  0  0  0  0  0  0  0  0  0  0
  -13.2542   11.3851  -17.6661 H   0  0  0  0  0  0  0  0  0  0  0  0
  -12.1492   11.1222  -18.7285 H   0  0  0  0  0  0  0  0  0  0  0  0
  -19.0852   18.0932  -17.2978 H   0  0  0  0  0  0  0  0  0  0  0  0
  -15.1430   13.8283  -16.0985 H   0  0  0  0  0  0  0  0  0  0  0  0
  -16.3996   21.0422  -16.2590 H   0  0  0  0  0  0  0  0  0  0  0  0
  1 13  1  0
  1 42  1  0
  1 49  2  0
 35  2  1  1
  2 50  1  0
  3  5  2  0
  3 45  1  0
  3 52  1  0
  4 17  1  0
  4 20  1  0
  4 46  2  0
  5 22  1  0
  5 46  1  0
  6 18  2  0
  6 19  1  0
  6 53  1  0
  7  8  1  0
  7 11  1  0
  7 42  1  0
  8  9  1  0
  9 10  1  0
  9 52  1  0
 10 42  1  0
 11 43  1  0
 11 48  2  0
 12 23  1  6
 12 28  1  0
 12 33  1  0
 12 43  1  0
 13 15  1  0
 13 44  1  0
 14 44  1  0
 14 50  1  0
 14 51  2  0
 15 16  1  0
 16 34  1  0
 17 18  1  0
 17 45  2  0
 19 20  2  0
 21 53  1  0
 23 47  1  0
 23 54  2  0
 24 25  1  0
 24 26  1  0
 24 27  1  1
 24 57  1  0
 25 26  1  0
 28 29  1  0
 28 33  1  0
 29 30  2  3
 30 31  1  0
 31 32  1  0
 32 34  1  0
 35 36  1  0
 35 37  1  0
 35 38  1  0
 36 37  1  0
 38 39  1  6
 38 40  1  0
 38 41  1  0
 57 47  1  6
 55 57  2  0
 56 57  2  0
  2 58  1  0
  2 59  1  0
  7 60  1  6
  8 61  1  0
  8 62  1  0
  9 63  1  1
 10 64  1  0
 10 65  1  0
 13 66  1  1
 15 67  1  0
 15 68  1  0
 16 69  1  0
 16 70  1  0
 18 71  1  0
 19 72  1  0
 20 73  1  0
 21 74  1  0
 21 75  1  0
 21 76  1  0
 22 77  1  0
 22 78  1  0
 22 79  1  0
 25 80  1  0
 25 81  1  0
 26 82  1  0
 26 83  1  0
 27 84  1  0
 27 85  1  0
 27 86  1  0
 28 87  1  1
 29 88  1  0
 30 89  1  0
 31 90  1  0
 31 91  1  0
 32 92  1  0
 32 93  1  0
 33 94  1  0
 33 95  1  0
 34 96  1  0
 34 97  1  0
 36 98  1  0
 36 99  1  0
 37100  1  0
 37101  1  0
 43102  1  0
 44103  1  0
 47104  1  0
M  END
>  <filename_input>  (22) 
7MMH_ZJY_docked.sdf

>  <pdb_id>  (22) 
7MMH_ZJY

>  <pose_rank>  (22) 
21

>  <num_atoms_heavy>  (22) 
57

>  <num_torsions>  (22) 
11

>  <pose>  (22) 
[-15.95710043414472, 16.18485240264981, -15.456750872763886, 1.1936083073526704, 2.9279303436135375, -0.7171793717398329, 10.732194875159076, 6.244621706722036, 1.138595348830741, -2.6903592906122933, -1.862499974130828, 1.3633908830672126, -0.08181785688924911, -1.5041051316912804, 5.216071640903213, -1.3490344541044186, 3.0713162647091314]

>  <energy>  (22) 
-471.2116768756848

>  <inter_energy>  (22) 
-515.5021782472207

>  <intra_energy>  (22) 
62.014644314755984

>  <rmsd>  (22) 
8.74964

>  <sdf_rank>  (22) 
0

$$$$

     RDKit          3D

104110  0  0  0  0  0  0  0  0999 V2000
  -15.7638   20.5011  -15.7208 C   0  0  0  0  0  0  0  0  0  0  0  0
  -20.3559   19.5138  -14.1629 C   0  0  0  0  0  0  0  0  0  0  0  0
  -13.6688   15.7862  -15.8512 C   0  0  0  0  0  0  0  0  0  0  0  0
  -12.2428   13.4320  -15.1140 C   0  0  0  0  0  0  0  0  0  0  0  0
  -13.8834   15.1222  -14.4856 C   0  0  0  0  0  0  0  0  0  0  0  0
  -10.2718   12.2686  -17.0844 C   0  0  0  0  0  0  0  0  0  0  0  0
  -13.3882   19.4968  -15.8700 C   0  0  1  0  0  0  0  0  0  0  0  0
  -12.6776   18.4569  -16.9079 C   0  0  0  0  0  0  0  0  0  0  0  0
  -13.6907   17.6471  -17.2153 C   0  0  2  0  0  0  0  0  0  0  0  0
  -14.8917   18.6432  -17.5202 C   0  0  0  0  0  0  0  0  0  0  0  0
  -13.0080   20.9321  -15.8079 C   0  0  0  0  0  0  0  0  0  0  0  0
  -12.0393   22.6452  -14.1905 C   0  0  2  0  0  0  0  0  0  0  0  0
  -17.1547   20.5414  -16.3645 C   0  0  2  0  0  0  0  0  0  0  0  0
  -18.3793   18.7916  -15.1358 C   0  0  0  0  0  0  0  0  0  0  0  0
  -17.4258   21.9866  -16.7986 C   0  0  0  0  0  0  0  0  0  0  0  0
  -16.4005   22.4311  -17.8916 C   0  0  0  0  0  0  0  0  0  0  0  0
  -12.0181   14.1010  -16.4677 C   0  0  0  0  0  0  0  0  0  0  0  0
  -11.0314   13.5372  -17.4995 C   0  0  0  0  0  0  0  0  0  0  0  0
  -10.4815   11.6006  -15.7238 C   0  0  0  0  0  0  0  0  0  0  0  0
  -11.4674   12.1494  -14.7180 C   0  0  0  0  0  0  0  0  0  0  0  0
   -9.1806   10.3389  -17.8734 C   0  0  0  0  0  0  0  0  0  0  0  0
  -14.8894   15.7150  -13.5008 C   0  0  0  0  0  0  0  0  0  0  0  0
  -10.8959   23.3882  -14.8327 C   0  0  0  0  0  0  0  0  0  0  0  0
   -8.3397   22.2892  -17.8074 C   0  0  2  0  0  0  0  0  0  0  0  0
   -7.9833   20.8719  -17.3643 C   0  0  0  0  0  0  0  0  0  0  0  0
   -9.3252   21.1421  -18.0651 C   0  0  0  0  0  0  0  0  0  0  0  0
   -7.5942   22.8949  -19.0206 C   0  0  0  0  0  0  0  0  0  0  0  0
  -13.2448   23.6207  -14.0673 C   0  0  2  0  0  0  0  0  0  0  0  0
  -13.4921   25.0899  -14.4223 C   0  0  0  0  0  0  0  0  0  0  0  0
  -14.4739   25.5459  -15.2331 C   0  0  0  0  0  0  0  0  0  0  0  0
  -15.4965   24.6156  -15.9228 C   0  0  0  0  0  0  0  0  0  0  0  0
  -15.3755   24.7376  -17.4592 C   0  0  0  0  0  0  0  0  0  0  0  0
  -12.3666   23.3221  -12.8457 C   0  0  0  0  0  0  0  0  0  0  0  0
  -16.5483   23.9652  -18.1411 C   0  0  0  0  0  0  0  0  0  0  0  0
  -21.6498   18.7077  -14.3124 C   0  0  1  0  0  0  0  0  0  0  0  0
  -22.6228   19.2820  -15.3499 C   0  0  0  0  0  0  0  0  0  0  0  0
  -21.8729   17.9731  -15.6431 C   0  0  0  0  0  0  0  0  0  0  0  0
  -22.3072   18.0900  -13.0537 C   0  0  2  0  0  0  0  0  0  0  0  0
  -23.5766   18.5988  -12.9359 F   0  0  0  0  0  0  0  0  0  0  0  0
  -21.5752   18.4178  -11.9674 F   0  0  0  0  0  0  0  0  0  0  0  0
  -22.3055   16.7297  -13.2391 F   0  0  0  0  0  0  0  0  0  0  0  0
  -14.7270   19.6329  -16.2724 N   0  0  0  0  0  0  0  0  0  0  0  0
  -12.3425   21.2693  -14.5862 N   0  0  0  0  0  0  0  0  0  0  0  0
  -18.1715   20.1851  -15.4344 N   0  0  0  0  0  0  0  0  0  0  0  0
  -12.7385   15.3107  -16.8369 N   0  0  0  0  0  0  0  0  0  0  0  0
  -13.1659   13.9386  -14.1125 N   0  0  0  0  0  0  0  0  0  0  0  0
  -10.1261   22.6053  -15.7392 N   0  0  0  0  0  0  0  0  0  0  0  0
  -13.2329   21.7150  -16.6777 O   0  0  0  0  0  0  0  0  0  0  0  0
  -15.5428   21.1821  -14.7722 O   0  0  0  0  0  0  0  0  0  0  0  0
  -19.3460   18.5311  -14.1501 O   0  0  0  0  0  0  0  0  0  0  0  0
  -17.7836   17.9070  -15.6944 O   0  0  0  0  0  0  0  0  0  0  0  0
  -14.3576   16.9521  -16.1255 O   0  0  0  0  0  0  0  0  0  0  0  0
   -9.3651   11.7284  -17.9727 O   0  0  0  0  0  0  0  0  0  0  0  0
  -10.5650   24.5139  -14.5826 O   0  0  0  0  0  0  0  0  0  0  0  0
   -7.7017   23.6585  -15.5605 O   0  0  0  0  0  0  0  0  0  0  0  0
   -9.2779   24.5933  -17.0859 O   0  0  0  0  0  0  0  0  0  0  0  0
   -8.8424   23.3527  -16.4366 S   0  0  1  0  0  0  0  0  0  0  0  0
  -20.2225   20.2014  -15.0110 H   0  0  0  0  0  0  0  0  0  0  0  0
  -20.3487   20.1422  -13.2601 H   0  0  0  0  0  0  0  0  0  0  0  0
  -13.1037   19.0345  -14.9132 H   0  0  0  0  0  0  0  0  0  0  0  0
  -12.2958   18.9774  -17.7985 H   0  0  0  0  0  0  0  0  0  0  0  0
  -11.8021   17.9379  -16.4905 H   0  0  0  0  0  0  0  0  0  0  0  0
  -13.2686   16.9439  -17.9483 H   0  0  0  0  0  0  0  0  0  0  0  0
  -14.7602   19.1651  -18.4795 H   0  0  0  0  0  0  0  0  0  0  0  0
  -15.8806   18.1720  -17.6202 H   0  0  0  0  0  0  0  0  0  0  0  0
  -17.1718   19.8325  -17.2054 H   0  0  0  0  0  0  0  0  0  0  0  0
  -18.4444   22.0567  -17.2078 H   0  0  0  0  0  0  0  0  0  0  0  0
  -17.3223   22.6462  -15.9243 H   0  0  0  0  0  0  0  0  0  0  0  0
  -15.3788   22.2109  -17.5487 H   0  0  0  0  0  0  0  0  0  0  0  0
  -16.5962   21.8843  -18.8258 H   0  0  0  0  0  0  0  0  0  0  0  0
  -10.8773   14.0138  -18.4788 H   0  0  0  0  0  0  0  0  0  0  0  0
   -9.9015   10.7005  -15.4719 H   0  0  0  0  0  0  0  0  0  0  0  0
  -11.6279   11.6594  -13.7463 H   0  0  0  0  0  0  0  0  0  0  0  0
   -9.1422   10.0490  -16.8130 H   0  0  0  0  0  0  0  0  0  0  0  0
  -10.0180    9.8218  -18.3647 H   0  0  0  0  0  0  0  0  0  0  0  0
   -8.2374   10.0581  -18.3647 H   0  0  0  0  0  0  0  0  0  0  0  0
  -14.5548   15.5178  -12.4716 H   0  0  0  0  0  0  0  0  0  0  0  0
  -14.9629   16.8008  -13.6608 H   0  0  0  0  0  0  0  0  0  0  0  0
  -15.8748   15.2532  -13.6608 H   0  0  0  0  0  0  0  0  0  0  0  0
   -7.1921   20.3149  -17.8876 H   0  0  0  0  0  0  0  0  0  0  0  0
   -7.6823   20.4071  -16.4139 H   0  0  0  0  0  0  0  0  0  0  0  0
  -10.2652   21.0850  -17.4966 H   0  0  0  0  0  0  0  0  0  0  0  0
   -9.8380   20.7384  -18.9506 H   0  0  0  0  0  0  0  0  0  0  0  0
   -6.7865   23.5511  -18.6643 H   0  0  0  0  0  0  0  0  0  0  0  0
   -7.1667   22.0850  -19.6299 H   0  0  0  0  0  0  0  0  0  0  0  0
   -8.2994   23.4791  -19.6299 H   0  0  0  0  0  0  0  0  0  0  0  0
  -14.2570   23.5034  -14.4817 H   0  0  0  0  0  0  0  0  0  0  0  0
  -12.8151   25.8362  -13.9812 H   0  0  0  0  0  0  0  0  0  0  0  0
  -14.5476   26.6291  -15.4097 H   0  0  0  0  0  0  0  0  0  0  0  0
  -15.3009   23.5752  -15.6241 H   0  0  0  0  0  0  0  0  0  0  0  0
  -16.5120   24.9085  -15.6176 H   0  0  0  0  0  0  0  0  0  0  0  0
  -15.4200   25.7985  -17.7466 H   0  0  0  0  0  0  0  0  0  0  0  0
  -14.4170   24.3072  -17.7849 H   0  0  0  0  0  0  0  0  0  0  0  0
  -12.7689   22.7240  -12.0149 H   0  0  0  0  0  0  0  0  0  0  0  0
  -11.7997   23.9380  -12.1320 H   0  0  0  0  0  0  0  0  0  0  0  0
  -16.5314   24.1606  -19.2235 H   0  0  0  0  0  0  0  0  0  0  0  0
  -17.5015   24.3085  -17.7126 H   0  0  0  0  0  0  0  0  0  0  0  0
  -23.7057   19.2641  -15.1573 H   0  0  0  0  0  0  0  0  0  0  0  0
  -22.7301   20.2487  -15.8639 H   0  0  0  0  0  0  0  0  0  0  0  0
  -21.0760   17.9533  -16.4011 H   0  0  0  0  0  0  0  0  0  0  0  0
  -22.1696   16.9532  -15.9291 H   0  0  0  0  0  0  0  0  0  0  0  0
  -12.0631   20.5055  -13.9542 H   0  0  0  0  0  0  0  0  0  0  0  0
  -18.7477   20.9101  -14.9834 H   0  0  0  0  0  0  0  0  0  0  0  0
  -10.3619   21.6242  -15.9458 H   0  0  0  0  0  0  0  0  0  0  0  0
  1 13  1  0
  1 42  1  0
  1 49  2  0
 35  2  1  1
  2 50  1  0
  3  5  2  0
  3 45  1  0
  3 52  1  0
  4 17  1  0
  4 20  1  0
  4 46  2  0
  5 22  1  0
  5 46  1  0
  6 18  2  0
  6 19  1  0
  6 53  1  0
  7  8  1  0
  7 11  1  0
  7 42  1  0
  8  9  1  0
  9 10  1  0
  9 52  1  0
 10 42  1  0
 11 43  1  0
 11 48  2  0
 12 23  1  6
 12 28  1  0
 12 33  1  0
 12 43  1  0
 13 15  1  0
 13 44  1  0
 14 44  1  0
 14 50  1  0
 14 51  2  0
 15 16  1  0
 16 34  1  0
 17 18  1  0
 17 45  2  0
 19 20  2  0
 21 53  1  0
 23 47  1  0
 23 54  2  0
 24 25  1  0
 24 26  1  0
 24 27  1  6
 24 57  1  0
 25 26  1  0
 28 29  1  0
 28 33  1  0
 29 30  2  3
 30 31  1  0
 31 32  1  0
 32 34  1  0
 35 36  1  0
 35 37  1  0
 35 38  1  0
 36 37  1  0
 38 39  1  1
 38 40  1  0
 38 41  1  0
 57 47  1  1
 55 57  2  0
 56 57  2  0
  2 58  1  0
  2 59  1  0
  7 60  1  1
  8 61  1  0
  8 62  1  0
  9 63  1  6
 10 64  1  0
 10 65  1  0
 13 66  1  6
 15 67  1  0
 15 68  1  0
 16 69  1  0
 16 70  1  0
 18 71  1  0
 19 72  1  0
 20 73  1  0
 21 74  1  0
 21 75  1  0
 21 76  1  0
 22 77  1  0
 22 78  1  0
 22 79  1  0
 25 80  1  0
 25 81  1  0
 26 82  1  0
 26 83  1  0
 27 84  1  0
 27 85  1  0
 27 86  1  0
 28 87  1  1
 29 88  1  0
 30 89  1  0
 31 90  1  0
 31 91  1  0
 32 92  1  0
 32 93  1  0
 33 94  1  0
 33 95  1  0
 34 96  1  0
 34 97  1  0
 36 98  1  0
 36 99  1  0
 37100  1  0
 37101  1  0
 43102  1  0
 44103  1  0
 47104  1  0
M  END
>  <filename_input>  (23) 
7MMH_ZJY_docked.sdf

>  <pdb_id>  (23) 
7MMH_ZJY

>  <pose_rank>  (23) 
22

>  <num_atoms_heavy>  (23) 
57

>  <num_torsions>  (23) 
11

>  <pose>  (23) 
[-15.763825801448547, 20.501063732770366, -15.720792933840642, -2.0742017997155386, 5.651391093953334, -1.7861977184955626, 0.08902659866103611, 3.5816227981204753, -0.524512100017934, 2.6405244058386854, -3.1852343820834417, -0.0049719307165607615, 0.12589390764818348, 1.7684385104987574, -6.285122004674603, -6.293996014708093, -2.6480765059259888]

>  <energy>  (23) 
-1597.0662182800365

>  <inter_energy>  (23) 
-1622.750052150934

>  <intra_energy>  (23) 
41.71834678048662

>  <rmsd>  (23) 
1.52093

>  <sdf_rank>  (23) 
0

$$$$

     RDKit          3D

104110  0  0  0  0  0  0  0  0999 V2000
  -15.5681   16.7298  -15.8793 C   0  0  0  0  0  0  0  0  0  0  0  0
  -12.2847   13.6005  -17.1662 C   0  0  0  0  0  0  0  0  0  0  0  0
  -18.7023   13.8081  -12.9357 C   0  0  0  0  0  0  0  0  0  0  0  0
  -20.4278   11.9450  -11.6433 C   0  0  0  0  0  0  0  0  0  0  0  0
  -18.2809   13.0999  -11.6424 C   0  0  0  0  0  0  0  0  0  0  0  0
  -23.1194   11.3748  -12.8887 C   0  0  0  0  0  0  0  0  0  0  0  0
  -18.0444   16.8551  -15.1536 C   0  0  1  0  0  0  0  0  0  0  0  0
  -18.7855   16.8313  -13.6997 C   0  0  0  0  0  0  0  0  0  0  0  0
  -18.0000   16.0049  -13.0094 C   0  0  2  0  0  0  0  0  0  0  0  0
  -16.5313   16.5198  -13.3342 C   0  0  0  0  0  0  0  0  0  0  0  0
  -18.0100   18.0754  -16.0012 C   0  0  0  0  0  0  0  0  0  0  0  0
  -18.7736   18.9109  -18.2832 C   0  0  2  0  0  0  0  0  0  0  0  0
  -14.1195   16.6087  -15.3921 C   0  0  2  0  0  0  0  0  0  0  0  0
  -13.2371   14.3182  -15.1780 C   0  0  0  0  0  0  0  0  0  0  0  0
  -13.3686   17.8663  -15.8450 C   0  0  0  0  0  0  0  0  0  0  0  0
  -13.9756   19.1389  -15.1701 C   0  0  0  0  0  0  0  0  0  0  0  0
  -20.8418   12.6388  -12.9386 C   0  0  0  0  0  0  0  0  0  0  0  0
  -22.2034   12.3821  -13.5991 C   0  0  0  0  0  0  0  0  0  0  0  0
  -22.7055   10.6650  -11.5978 C   0  0  0  0  0  0  0  0  0  0  0  0
  -21.3708   10.9343  -10.9414 C   0  0  0  0  0  0  0  0  0  0  0  0
  -25.0359   10.0095  -12.8894 C   0  0  0  0  0  0  0  0  0  0  0  0
  -16.9205   13.4030  -11.0172 C   0  0  0  0  0  0  0  0  0  0  0  0
  -19.5015   20.2237  -18.1469 C   0  0  0  0  0  0  0  0  0  0  0  0
  -21.2809   22.5719  -20.9801 C   0  0  2  0  0  0  0  0  0  0  0  0
  -20.2003   23.3648  -21.7120 C   0  0  0  0  0  0  0  0  0  0  0  0
  -20.3977   21.8712  -22.0206 C   0  0  0  0  0  0  0  0  0  0  0  0
  -22.7628   22.8334  -21.3407 C   0  0  0  0  0  0  0  0  0  0  0  0
  -17.3960   19.1861  -18.9513 C   0  0  2  0  0  0  0  0  0  0  0  0
  -16.6771   20.4297  -19.4828 C   0  0  0  0  0  0  0  0  0  0  0  0
  -15.4600   20.8626  -19.0825 C   0  0  0  0  0  0  0  0  0  0  0  0
  -14.6195   20.1372  -18.0081 C   0  0  0  0  0  0  0  0  0  0  0  0
  -14.3776   21.0721  -16.8008 C   0  0  0  0  0  0  0  0  0  0  0  0
  -18.5577   18.6265  -19.7820 C   0  0  0  0  0  0  0  0  0  0  0  0
  -13.3537   20.4132  -15.8236 C   0  0  0  0  0  0  0  0  0  0  0  0
  -11.6200   12.3389  -17.7256 C   0  0  1  0  0  0  0  0  0  0  0  0
  -12.6034   11.3498  -18.3639 C   0  0  0  0  0  0  0  0  0  0  0  0
  -11.6364   12.1504  -19.2502 C   0  0  0  0  0  0  0  0  0  0  0  0
  -10.4392   11.6995  -16.9544 C   0  0  2  0  0  0  0  0  0  0  0  0
   -9.6971   10.9573  -17.8392 F   0  0  0  0  0  0  0  0  0  0  0  0
  -10.9280   10.9033  -15.9795 F   0  0  0  0  0  0  0  0  0  0  0  0
   -9.7203   12.7351  -16.4108 F   0  0  0  0  0  0  0  0  0  0  0  0
  -16.6681   16.7017  -14.9190 N   0  0  0  0  0  0  0  0  0  0  0  0
  -18.7938   17.9372  -17.1910 N   0  0  0  0  0  0  0  0  0  0  0  0
  -13.4617   15.4924  -15.9811 N   0  0  0  0  0  0  0  0  0  0  0  0
  -19.9534   13.5806  -13.6036 N   0  0  0  0  0  0  0  0  0  0  0  0
  -19.1471   12.1612  -10.9916 N   0  0  0  0  0  0  0  0  0  0  0  0
  -20.0577   20.7125  -19.3631 N   0  0  0  0  0  0  0  0  0  0  0  0
  -17.3975   19.0586  -15.7218 O   0  0  0  0  0  0  0  0  0  0  0  0
  -15.7819   16.8460  -17.0427 O   0  0  0  0  0  0  0  0  0  0  0  0
  -12.6545   13.2346  -15.8567 O   0  0  0  0  0  0  0  0  0  0  0  0
  -13.5117   14.2641  -14.0072 O   0  0  0  0  0  0  0  0  0  0  0  0
  -17.7984   14.6638  -13.5354 O   0  0  0  0  0  0  0  0  0  0  0  0
  -24.3502   11.1013  -13.4485 O   0  0  0  0  0  0  0  0  0  0  0  0
  -19.5709   20.8846  -17.1481 O   0  0  0  0  0  0  0  0  0  0  0  0
  -20.0880   23.2639  -18.6502 O   0  0  0  0  0  0  0  0  0  0  0  0
  -22.1122   22.0052  -18.5933 O   0  0  0  0  0  0  0  0  0  0  0  0
  -20.8265   22.1599  -19.2812 S   0  0  1  0  0  0  0  0  0  0  0  0
  -11.5772   14.4427  -17.1526 H   0  0  0  0  0  0  0  0  0  0  0  0
  -13.1402   13.9342  -17.7718 H   0  0  0  0  0  0  0  0  0  0  0  0
  -18.6407   16.0976  -15.6833 H   0  0  0  0  0  0  0  0  0  0  0  0
  -18.8107   17.8330  -13.2460 H   0  0  0  0  0  0  0  0  0  0  0  0
  -19.8387   16.5162  -13.7405 H   0  0  0  0  0  0  0  0  0  0  0  0
  -18.4399   15.9845  -12.0014 H   0  0  0  0  0  0  0  0  0  0  0  0
  -16.3074   17.4707  -12.8286 H   0  0  0  0  0  0  0  0  0  0  0  0
  -15.7167   15.8582  -13.0046 H   0  0  0  0  0  0  0  0  0  0  0  0
  -14.1271   16.4863  -14.2989 H   0  0  0  0  0  0  0  0  0  0  0  0
  -12.3093   17.7770  -15.5623 H   0  0  0  0  0  0  0  0  0  0  0  0
  -13.4628   17.9633  -16.9367 H   0  0  0  0  0  0  0  0  0  0  0  0
  -15.0662   19.1467  -15.3138 H   0  0  0  0  0  0  0  0  0  0  0  0
  -13.7508   19.1288  -14.0934 H   0  0  0  0  0  0  0  0  0  0  0  0
  -22.5053   12.8900  -14.5270 H   0  0  0  0  0  0  0  0  0  0  0  0
  -23.3950    9.9423  -11.1371 H   0  0  0  0  0  0  0  0  0  0  0  0
  -21.0810   10.4345  -10.0054 H   0  0  0  0  0  0  0  0  0  0  0  0
  -24.9953   10.0741  -11.7921 H   0  0  0  0  0  0  0  0  0  0  0  0
  -26.0851   10.0276  -13.2193 H   0  0  0  0  0  0  0  0  0  0  0  0
  -24.5640    9.0722  -13.2193 H   0  0  0  0  0  0  0  0  0  0  0  0
  -17.0083   13.3834   -9.9209 H   0  0  0  0  0  0  0  0  0  0  0  0
  -16.1915   12.6452  -11.3403 H   0  0  0  0  0  0  0  0  0  0  0  0
  -16.5822   14.3985  -11.3403 H   0  0  0  0  0  0  0  0  0  0  0  0
  -20.4840   24.1225  -22.4573 H   0  0  0  0  0  0  0  0  0  0  0  0
  -19.3490   23.9886  -21.4015 H   0  0  0  0  0  0  0  0  0  0  0  0
  -19.6437   21.1377  -21.6992 H   0  0  0  0  0  0  0  0  0  0  0  0
  -20.5827   21.2804  -22.9299 H   0  0  0  0  0  0  0  0  0  0  0  0
  -23.3519   22.9373  -20.4176 H   0  0  0  0  0  0  0  0  0  0  0  0
  -22.8389   23.7588  -21.9304 H   0  0  0  0  0  0  0  0  0  0  0  0
  -23.1510   21.9898  -21.9304 H   0  0  0  0  0  0  0  0  0  0  0  0
  -16.3943   18.9555  -18.5595 H   0  0  0  0  0  0  0  0  0  0  0  0
  -17.1936   21.0197  -20.2542 H   0  0  0  0  0  0  0  0  0  0  0  0
  -15.0494   21.7733  -19.5431 H   0  0  0  0  0  0  0  0  0  0  0  0
  -15.1577   19.2391  -17.6706 H   0  0  0  0  0  0  0  0  0  0  0  0
  -13.6498   19.8520  -18.4421 H   0  0  0  0  0  0  0  0  0  0  0  0
  -13.9776   22.0330  -17.1565 H   0  0  0  0  0  0  0  0  0  0  0  0
  -15.3283   21.2408  -16.2738 H   0  0  0  0  0  0  0  0  0  0  0  0
  -18.5226   17.5881  -20.1430 H   0  0  0  0  0  0  0  0  0  0  0  0
  -19.0647   18.9347  -20.7083 H   0  0  0  0  0  0  0  0  0  0  0  0
  -13.0886   21.1332  -15.0354 H   0  0  0  0  0  0  0  0  0  0  0  0
  -12.4540   20.1251  -16.3871 H   0  0  0  0  0  0  0  0  0  0  0  0
  -12.4591   10.2675  -18.2306 H   0  0  0  0  0  0  0  0  0  0  0  0
  -13.6939   11.2083  -18.3333 H   0  0  0  0  0  0  0  0  0  0  0  0
  -12.0199   12.9511  -19.8997 H   0  0  0  0  0  0  0  0  0  0  0  0
  -10.8844   11.8941  -20.0111 H   0  0  0  0  0  0  0  0  0  0  0  0
  -19.4022   17.1112  -17.2830 H   0  0  0  0  0  0  0  0  0  0  0  0
  -13.1521   15.5238  -16.9630 H   0  0  0  0  0  0  0  0  0  0  0  0
  -19.9817   20.1866  -20.2455 H   0  0  0  0  0  0  0  0  0  0  0  0
  1 13  1  0
  1 42  1  0
  1 49  2  0
 35  2  1  6
  2 50  1  0
  3  5  2  0
  3 45  1  0
  3 52  1  0
  4 17  1  0
  4 20  1  0
  4 46  2  0
  5 22  1  0
  5 46  1  0
  6 18  2  0
  6 19  1  0
  6 53  1  0
  7  8  1  0
  7 11  1  0
  7 42  1  0
  8  9  1  0
  9 10  1  0
  9 52  1  0
 10 42  1  0
 11 43  1  0
 11 48  2  0
 12 23  1  6
 12 28  1  0
 12 33  1  0
 12 43  1  0
 13 15  1  0
 13 44  1  0
 14 44  1  0
 14 50  1  0
 14 51  2  0
 15 16  1  0
 16 34  1  0
 17 18  1  0
 17 45  2  0
 19 20  2  0
 21 53  1  0
 23 47  1  0
 23 54  2  0
 24 25  1  0
 24 26  1  0
 24 27  1  6
 24 57  1  0
 25 26  1  0
 28 29  1  0
 28 33  1  0
 29 30  2  3
 30 31  1  0
 31 32  1  0
 32 34  1  0
 35 36  1  0
 35 37  1  0
 35 38  1  0
 36 37  1  0
 38 39  1  6
 38 40  1  0
 38 41  1  0
 57 47  1  6
 55 57  2  0
 56 57  2  0
  2 58  1  0
  2 59  1  0
  7 60  1  6
  8 61  1  0
  8 62  1  0
  9 63  1  1
 10 64  1  0
 10 65  1  0
 13 66  1  1
 15 67  1  0
 15 68  1  0
 16 69  1  0
 16 70  1  0
 18 71  1  0
 19 72  1  0
 20 73  1  0
 21 74  1  0
 21 75  1  0
 21 76  1  0
 22 77  1  0
 22 78  1  0
 22 79  1  0
 25 80  1  0
 25 81  1  0
 26 82  1  0
 26 83  1  0
 27 84  1  0
 27 85  1  0
 27 86  1  0
 28 87  1  1
 29 88  1  0
 30 89  1  0
 31 90  1  0
 31 91  1  0
 32 92  1  0
 32 93  1  0
 33 94  1  0
 33 95  1  0
 34 96  1  0
 34 97  1  0
 36 98  1  0
 36 99  1  0
 37100  1  0
 37101  1  0
 43102  1  0
 44103  1  0
 47104  1  0
M  END
>  <filename_input>  (24) 
7MMH_ZJY_docked.sdf

>  <pdb_id>  (24) 
7MMH_ZJY

>  <pose_rank>  (24) 
23

>  <num_atoms_heavy>  (24) 
57

>  <num_torsions>  (24) 
11

>  <pose>  (24) 
[-15.568113466553768, 16.72981833611697, -15.879340298121214, 0.5468252502762769, 3.0723449972333157, -0.9373808508527112, -0.3695864722152871, -3.13229895564857, 0.38585632062887354, 0.2281149811601249, -1.748379089437093, 3.8057278223695046, -0.2061922153750916, 1.213620891312848, -0.16383095879480433, -4.387843805760731, 2.946550390218346]

>  <energy>  (24) 
-473.4235331024203

>  <inter_energy>  (24) 
-504.02889015533384

>  <intra_energy>  (24) 
25.23678967921488

>  <rmsd>  (24) 
9.56432

>  <sdf_rank>  (24) 
0

$$$$

     RDKit          3D

104110  0  0  0  0  0  0  0  0999 V2000
  -15.5331   16.0417  -17.8966 C   0  0  0  0  0  0  0  0  0  0  0  0
  -16.3776   11.7679  -15.5081 C   0  0  0  0  0  0  0  0  0  0  0  0
  -11.4355   12.9840  -18.3484 C   0  0  0  0  0  0  0  0  0  0  0  0
   -9.7486   10.7096  -18.6651 C   0  0  0  0  0  0  0  0  0  0  0  0
  -11.3750   11.8849  -17.2807 C   0  0  0  0  0  0  0  0  0  0  0  0
   -8.0554   10.5112  -21.1580 C   0  0  0  0  0  0  0  0  0  0  0  0
  -13.0331   16.6927  -17.9182 C   0  0  1  0  0  0  0  0  0  0  0  0
  -11.7824   16.2927  -18.8876 C   0  0  0  0  0  0  0  0  0  0  0  0
  -12.0756   15.0307  -19.2003 C   0  0  2  0  0  0  0  0  0  0  0  0
  -13.6165   15.0855  -19.5882 C   0  0  0  0  0  0  0  0  0  0  0  0
  -13.6086   18.0627  -17.8984 C   0  0  0  0  0  0  0  0  0  0  0  0
  -13.9700   20.0249  -16.3147 C   0  0  2  0  0  0  0  0  0  0  0  0
  -16.6247   15.2203  -18.5923 C   0  0  2  0  0  0  0  0  0  0  0  0
  -16.6431   13.0538  -17.4190 C   0  0  0  0  0  0  0  0  0  0  0  0
  -17.6956   16.1969  -19.0925 C   0  0  0  0  0  0  0  0  0  0  0  0
  -17.0960   17.1649  -20.1634 C   0  0  0  0  0  0  0  0  0  0  0  0
   -9.7976   11.8107  -19.7214 C   0  0  0  0  0  0  0  0  0  0  0  0
   -8.9587   11.7438  -21.0051 C   0  0  0  0  0  0  0  0  0  0  0  0
   -7.9906    9.4105  -20.0970 C   0  0  0  0  0  0  0  0  0  0  0  0
   -8.8320    9.4720  -18.8427 C   0  0  0  0  0  0  0  0  0  0  0  0
   -6.3813    9.3234  -22.3085 C   0  0  0  0  0  0  0  0  0  0  0  0
  -12.2426   11.9921  -16.0281 C   0  0  0  0  0  0  0  0  0  0  0  0
  -13.4825   21.3054  -16.9427 C   0  0  0  0  0  0  0  0  0  0  0  0
  -13.9058   24.8072  -16.5276 C   0  0  2  0  0  0  0  0  0  0  0  0
  -14.0761   25.6809  -17.7684 C   0  0  0  0  0  0  0  0  0  0  0  0
  -15.0042   24.4751  -17.5457 C   0  0  0  0  0  0  0  0  0  0  0  0
  -14.3342   25.3793  -15.1551 C   0  0  0  0  0  0  0  0  0  0  0  0
  -15.5246   20.0643  -16.2746 C   0  0  2  0  0  0  0  0  0  0  0  0
  -16.5955   21.0750  -16.6958 C   0  0  0  0  0  0  0  0  0  0  0  0
  -17.6071   20.8310  -17.5596 C   0  0  0  0  0  0  0  0  0  0  0  0
  -17.8142   19.4643  -18.2496 C   0  0  0  0  0  0  0  0  0  0  0  0
  -17.7107   19.6218  -19.7841 C   0  0  0  0  0  0  0  0  0  0  0  0
  -14.7126   20.3734  -15.0105 C   0  0  0  0  0  0  0  0  0  0  0  0
  -18.1332   18.2887  -20.4782 C   0  0  0  0  0  0  0  0  0  0  0  0
  -16.6868   12.5719  -14.2415 C   0  0  1  0  0  0  0  0  0  0  0  0
  -15.4433   12.9504  -13.4271 C   0  0  0  0  0  0  0  0  0  0  0  0
  -16.2127   14.0327  -14.2005 C   0  0  0  0  0  0  0  0  0  0  0  0
  -17.9456   12.2216  -13.4104 C   0  0  2  0  0  0  0  0  0  0  0  0
  -18.8841   11.6826  -14.2548 F   0  0  0  0  0  0  0  0  0  0  0  0
  -18.4273   13.3480  -12.8426 F   0  0  0  0  0  0  0  0  0  0  0  0
  -17.5419   11.3337  -12.4443 F   0  0  0  0  0  0  0  0  0  0  0  0
  -14.1546   15.9809  -18.3749 N   0  0  0  0  0  0  0  0  0  0  0  0
  -13.3519   18.7461  -16.6671 N   0  0  0  0  0  0  0  0  0  0  0  0
  -17.2626   14.3260  -17.6872 N   0  0  0  0  0  0  0  0  0  0  0  0
  -10.6506   12.9777  -19.5514 N   0  0  0  0  0  0  0  0  0  0  0  0
  -10.5260   10.7406  -17.4377 N   0  0  0  0  0  0  0  0  0  0  0  0
  -12.9930   22.2640  -16.0107 N   0  0  0  0  0  0  0  0  0  0  0  0
  -14.2167   18.5387  -18.8060 O   0  0  0  0  0  0  0  0  0  0  0  0
  -15.8230   16.7244  -16.9678 O   0  0  0  0  0  0  0  0  0  0  0  0
  -17.2944   12.2652  -16.4556 O   0  0  0  0  0  0  0  0  0  0  0  0
  -15.6483   12.6785  -17.9837 O   0  0  0  0  0  0  0  0  0  0  0  0
  -12.2389   14.0824  -18.1095 O   0  0  0  0  0  0  0  0  0  0  0  0
   -7.2731   10.4093  -22.2897 O   0  0  0  0  0  0  0  0  0  0  0  0
  -13.5497   21.5827  -18.1080 O   0  0  0  0  0  0  0  0  0  0  0  0
  -11.9462   23.6614  -18.0032 O   0  0  0  0  0  0  0  0  0  0  0  0
  -11.4866   24.3008  -15.7527 O   0  0  0  0  0  0  0  0  0  0  0  0
  -12.4873   23.6942  -16.6363 S   0  0  1  0  0  0  0  0  0  0  0  0
  -15.3422   11.9392  -15.8377 H   0  0  0  0  0  0  0  0  0  0  0  0
  -16.4707   10.6825  -15.3558 H   0  0  0  0  0  0  0  0  0  0  0  0
  -12.5775   16.5079  -16.9342 H   0  0  0  0  0  0  0  0  0  0  0  0
  -11.7494   16.9305  -19.7832 H   0  0  0  0  0  0  0  0  0  0  0  0
  -10.7957   16.4187  -18.4181 H   0  0  0  0  0  0  0  0  0  0  0  0
  -11.2745   14.7244  -19.8891 H   0  0  0  0  0  0  0  0  0  0  0  0
  -13.7788   15.5711  -20.5617 H   0  0  0  0  0  0  0  0  0  0  0  0
  -14.1074   14.1082  -19.7063 H   0  0  0  0  0  0  0  0  0  0  0  0
  -16.1622   14.6408  -19.4049 H   0  0  0  0  0  0  0  0  0  0  0  0
  -18.5230   15.6280  -19.5416 H   0  0  0  0  0  0  0  0  0  0  0  0
  -18.0614   16.7902  -18.2416 H   0  0  0  0  0  0  0  0  0  0  0  0
  -16.1713   17.6162  -19.7746 H   0  0  0  0  0  0  0  0  0  0  0  0
  -16.8686   16.6042  -21.0820 H   0  0  0  0  0  0  0  0  0  0  0  0
   -9.0019   12.5325  -21.7707 H   0  0  0  0  0  0  0  0  0  0  0  0
   -7.3164    8.5550  -20.2505 H   0  0  0  0  0  0  0  0  0  0  0  0
   -8.7954    8.6726  -18.0880 H   0  0  0  0  0  0  0  0  0  0  0  0
   -6.1398    9.0294  -21.2764 H   0  0  0  0  0  0  0  0  0  0  0  0
   -6.8471    8.4754  -22.8319 H   0  0  0  0  0  0  0  0  0  0  0  0
   -5.4590    9.6155  -22.8319 H   0  0  0  0  0  0  0  0  0  0  0  0
  -11.6068   11.9135  -15.1339 H   0  0  0  0  0  0  0  0  0  0  0  0
  -12.7628   12.9613  -16.0242 H   0  0  0  0  0  0  0  0  0  0  0  0
  -12.9830   11.1786  -16.0242 H   0  0  0  0  0  0  0  0  0  0  0  0
  -14.4700   26.7033  -17.6711 H   0  0  0  0  0  0  0  0  0  0  0  0
  -13.4146   26.0130  -18.5822 H   0  0  0  0  0  0  0  0  0  0  0  0
  -14.9127   23.5840  -18.1841 H   0  0  0  0  0  0  0  0  0  0  0  0
  -16.0932   24.3273  -17.4980 H   0  0  0  0  0  0  0  0  0  0  0  0
  -13.8843   24.7786  -14.3509 H   0  0  0  0  0  0  0  0  0  0  0  0
  -13.9925   26.4214  -15.0694 H   0  0  0  0  0  0  0  0  0  0  0  0
  -15.4303   25.3446  -15.0694 H   0  0  0  0  0  0  0  0  0  0  0  0
  -16.2326   19.3507  -16.7212 H   0  0  0  0  0  0  0  0  0  0  0  0
  -16.5369   22.0831  -16.2595 H   0  0  0  0  0  0  0  0  0  0  0  0
  -18.3151   21.6431  -17.7811 H   0  0  0  0  0  0  0  0  0  0  0  0
  -17.0421   18.7614  -17.9033 H   0  0  0  0  0  0  0  0  0  0  0  0
  -18.8126   19.0800  -17.9940 H   0  0  0  0  0  0  0  0  0  0  0  0
  -18.3762   20.4330  -20.1143 H   0  0  0  0  0  0  0  0  0  0  0  0
  -16.6726   19.8621  -20.0571 H   0  0  0  0  0  0  0  0  0  0  0  0
  -14.7115   19.6610  -14.1723 H   0  0  0  0  0  0  0  0  0  0  0  0
  -14.6764   21.2132  -14.3010 H   0  0  0  0  0  0  0  0  0  0  0  0
  -18.1810   18.4447  -21.5660 H   0  0  0  0  0  0  0  0  0  0  0  0
  -19.1196   17.9834  -20.0990 H   0  0  0  0  0  0  0  0  0  0  0  0
  -15.4787   12.9300  -12.3279 H   0  0  0  0  0  0  0  0  0  0  0  0
  -14.3980   12.6088  -13.4000 H   0  0  0  0  0  0  0  0  0  0  0  0
  -15.7667   14.4919  -15.0952 H   0  0  0  0  0  0  0  0  0  0  0  0
  -16.6772   14.9949  -13.9388 H   0  0  0  0  0  0  0  0  0  0  0  0
  -12.6996   18.3164  -15.9958 H   0  0  0  0  0  0  0  0  0  0  0  0
  -18.1503   14.5837  -17.2328 H   0  0  0  0  0  0  0  0  0  0  0  0
  -12.9582   22.0704  -14.9996 H   0  0  0  0  0  0  0  0  0  0  0  0
  1 13  1  0
  1 42  1  0
  1 49  2  0
 35  2  1  6
  2 50  1  0
  3  5  2  0
  3 45  1  0
  3 52  1  0
  4 17  1  0
  4 20  1  0
  4 46  2  0
  5 22  1  0
  5 46  1  0
  6 18  2  0
  6 19  1  0
  6 53  1  0
  7  8  1  0
  7 11  1  0
  7 42  1  0
  8  9  1  0
  9 10  1  0
  9 52  1  0
 10 42  1  0
 11 43  1  0
 11 48  2  0
 12 23  1  6
 12 28  1  0
 12 33  1  0
 12 43  1  0
 13 15  1  0
 13 44  1  0
 14 44  1  0
 14 50  1  0
 14 51  2  0
 15 16  1  0
 16 34  1  0
 17 18  1  0
 17 45  2  0
 19 20  2  0
 21 53  1  0
 23 47  1  0
 23 54  2  0
 24 25  1  0
 24 26  1  0
 24 27  1  1
 24 57  1  0
 25 26  1  0
 28 29  1  0
 28 33  1  0
 29 30  2  3
 30 31  1  0
 31 32  1  0
 32 34  1  0
 35 36  1  0
 35 37  1  0
 35 38  1  0
 36 37  1  0
 38 39  1  6
 38 40  1  0
 38 41  1  0
 57 47  1  1
 55 57  2  0
 56 57  2  0
  2 58  1  0
  2 59  1  0
  7 60  1  1
  8 61  1  0
  8 62  1  0
  9 63  1  6
 10 64  1  0
 10 65  1  0
 13 66  1  6
 15 67  1  0
 15 68  1  0
 16 69  1  0
 16 70  1  0
 18 71  1  0
 19 72  1  0
 20 73  1  0
 21 74  1  0
 21 75  1  0
 21 76  1  0
 22 77  1  0
 22 78  1  0
 22 79  1  0
 25 80  1  0
 25 81  1  0
 26 82  1  0
 26 83  1  0
 27 84  1  0
 27 85  1  0
 27 86  1  0
 28 87  1  1
 29 88  1  0
 30 89  1  0
 31 90  1  0
 31 91  1  0
 32 92  1  0
 32 93  1  0
 33 94  1  0
 33 95  1  0
 34 96  1  0
 34 97  1  0
 36 98  1  0
 36 99  1  0
 37100  1  0
 37101  1  0
 43102  1  0
 44103  1  0
 47104  1  0
M  END
>  <filename_input>  (25) 
7MMH_ZJY_docked.sdf

>  <pdb_id>  (25) 
7MMH_ZJY

>  <pose_rank>  (25) 
24

>  <num_atoms_heavy>  (25) 
57

>  <num_torsions>  (25) 
11

>  <pose>  (25) 
[-15.53314192717854, 16.041721611677016, -17.896553900866333, 0.19964670056063522, 0.4387648232580506, -5.603680096778493, 0.009475124611898157, 0.7374310190942511, -0.8272252124592087, 2.5121546484246404, 0.49952817774255326, -2.0217495991890653, -1.6164081782691047, 0.3551960537727746, -7.022382830229194, 0.26553496357415074, 3.0351854818980377]

>  <energy>  (25) 
-433.813551112716

>  <inter_energy>  (25) 
-465.0632981838537

>  <intra_energy>  (25) 
38.056149032430625

>  <rmsd>  (25) 
5.40268

>  <sdf_rank>  (25) 
0

$$$$

     RDKit          3D

104110  0  0  0  0  0  0  0  0999 V2000
  -15.7670   20.5220  -15.6440 C   0  0  0  0  0  0  0  0  0  0  0  0
  -19.5290   17.1640  -13.9040 C   0  0  0  0  0  0  0  0  0  0  0  0
  -13.6760   15.8060  -15.7740 C   0  0  0  0  0  0  0  0  0  0  0  0
  -12.2490   13.4530  -15.0350 C   0  0  0  0  0  0  0  0  0  0  0  0
  -13.8980   15.1370  -14.4120 C   0  0  0  0  0  0  0  0  0  0  0  0
  -10.2620   12.3010  -16.9960 C   0  0  0  0  0  0  0  0  0  0  0  0
  -13.3930   19.5150  -15.8000 C   0  0  1  0  0  0  0  0  0  0  0  0
  -12.6870   18.4730  -16.8390 C   0  0  0  0  0  0  0  0  0  0  0  0
  -13.7020   17.6640  -17.1420 C   0  0  2  0  0  0  0  0  0  0  0  0
  -14.9030   18.6610  -17.4440 C   0  0  0  0  0  0  0  0  0  0  0  0
  -13.0110   20.9500  -15.7410 C   0  0  0  0  0  0  0  0  0  0  0  0
  -12.0350   22.6640  -14.1290 C   0  0  2  0  0  0  0  0  0  0  0  0
  -17.1600   20.5630  -16.2830 C   0  0  2  0  0  0  0  0  0  0  0  0
  -18.4580   18.8140  -15.1310 C   0  0  0  0  0  0  0  0  0  0  0  0
  -17.4310   22.0080  -16.7180 C   0  0  0  0  0  0  0  0  0  0  0  0
  -16.4090   22.4500  -17.8150 C   0  0  0  0  0  0  0  0  0  0  0  0
  -12.0170   14.1270  -16.3850 C   0  0  0  0  0  0  0  0  0  0  0  0
  -11.0220   13.5690  -17.4120 C   0  0  0  0  0  0  0  0  0  0  0  0
  -10.4790   11.6280  -15.6390 C   0  0  0  0  0  0  0  0  0  0  0  0
  -11.4730   12.1710  -14.6380 C   0  0  0  0  0  0  0  0  0  0  0  0
   -9.2030   12.4640  -19.0910 C   0  0  0  0  0  0  0  0  0  0  0  0
  -14.9120   15.7240  -13.4320 C   0  0  0  0  0  0  0  0  0  0  0  0
  -10.8930   23.4050  -14.7760 C   0  0  0  0  0  0  0  0  0  0  0  0
   -8.2230   22.2070  -17.6270 C   0  0  2  0  0  0  0  0  0  0  0  0
   -6.7750   22.4830  -18.0260 C   0  0  0  0  0  0  0  0  0  0  0  0
   -7.1020   21.3090  -17.0880 C   0  0  0  0  0  0  0  0  0  0  0  0
   -9.1830   21.6160  -18.6870 C   0  0  0  0  0  0  0  0  0  0  0  0
  -13.2390   23.6410  -14.0030 C   0  0  2  0  0  0  0  0  0  0  0  0
  -13.4860   25.1100  -14.3590 C   0  0  0  0  0  0  0  0  0  0  0  0
  -14.4700   25.5660  -15.1670 C   0  0  0  0  0  0  0  0  0  0  0  0
  -15.4960   24.6360  -15.8520 C   0  0  0  0  0  0  0  0  0  0  0  0
  -15.3800   24.7560  -17.3890 C   0  0  0  0  0  0  0  0  0  0  0  0
  -12.3570   23.3430  -12.7840 C   0  0  0  0  0  0  0  0  0  0  0  0
  -16.5560   23.9840  -18.0660 C   0  0  0  0  0  0  0  0  0  0  0  0
  -20.0630   17.0760  -12.4710 C   0  0  1  0  0  0  0  0  0  0  0  0
  -21.5440   17.4520  -12.3360 C   0  0  0  0  0  0  0  0  0  0  0  0
  -21.1060   15.9880  -12.1730 C   0  0  0  0  0  0  0  0  0  0  0  0
  -19.1550   17.5150  -11.2960 C   0  0  2  0  0  0  0  0  0  0  0  0
  -17.9950   16.7830  -11.3500 F   0  0  0  0  0  0  0  0  0  0  0  0
  -19.7960   17.2800  -10.1310 F   0  0  0  0  0  0  0  0  0  0  0  0
  -18.9310   18.8600  -11.4560 F   0  0  0  0  0  0  0  0  0  0  0  0
  -14.7330   19.6520  -16.1980 N   0  0  0  0  0  0  0  0  0  0  0  0
  -12.3410   21.2880  -14.5220 N   0  0  0  0  0  0  0  0  0  0  0  0
  -18.1740   20.2090  -15.3490 N   0  0  0  0  0  0  0  0  0  0  0  0
  -12.7380   15.3360  -16.7550 N   0  0  0  0  0  0  0  0  0  0  0  0
  -13.1800   13.9540  -14.0380 N   0  0  0  0  0  0  0  0  0  0  0  0
  -10.1310   22.6220  -15.6890 N   0  0  0  0  0  0  0  0  0  0  0  0
  -13.2380   21.7320  -16.6110 O   0  0  0  0  0  0  0  0  0  0  0  0
  -15.5420   21.2040  -14.6970 O   0  0  0  0  0  0  0  0  0  0  0  0
  -19.4150   18.5490  -14.1370 O   0  0  0  0  0  0  0  0  0  0  0  0
  -17.9300   17.9330  -15.7590 O   0  0  0  0  0  0  0  0  0  0  0  0
  -14.3660   16.9710  -16.0490 O   0  0  0  0  0  0  0  0  0  0  0  0
   -9.3480   11.7660  -17.8800 O   0  0  0  0  0  0  0  0  0  0  0  0
  -10.5570   24.5290  -14.5250 O   0  0  0  0  0  0  0  0  0  0  0  0
   -7.7730   23.8140  -15.4950 O   0  0  0  0  0  0  0  0  0  0  0  0
   -9.3080   24.5160  -17.1790 O   0  0  0  0  0  0  0  0  0  0  0  0
   -8.8490   23.3670  -16.3920 S   0  0  1  0  0  0  0  0  0  0  0  0
  -18.5494   16.6708  -13.9879 H   0  0  0  0  0  0  0  0  0  0  0  0
  -20.1831   16.6630  -14.6327 H   0  0  0  0  0  0  0  0  0  0  0  0
  -13.1057   19.0536  -14.8437 H   0  0  0  0  0  0  0  0  0  0  0  0
  -12.3077   18.9920  -17.7316 H   0  0  0  0  0  0  0  0  0  0  0  0
  -11.8106   17.9536  -16.4240 H   0  0  0  0  0  0  0  0  0  0  0  0
  -13.2831   16.9594  -17.8756 H   0  0  0  0  0  0  0  0  0  0  0  0
  -14.7742   19.1815  -18.4044 H   0  0  0  0  0  0  0  0  0  0  0  0
  -15.8927   18.1907  -17.5401 H   0  0  0  0  0  0  0  0  0  0  0  0
  -17.1807   19.8531  -17.1230 H   0  0  0  0  0  0  0  0  0  0  0  0
  -18.4509   22.0787  -17.1239 H   0  0  0  0  0  0  0  0  0  0  0  0
  -17.3238   22.6685  -15.8449 H   0  0  0  0  0  0  0  0  0  0  0  0
  -15.3863   22.2292  -17.4753 H   0  0  0  0  0  0  0  0  0  0  0  0
  -16.6085   21.9023  -18.7478 H   0  0  0  0  0  0  0  0  0  0  0  0
  -10.8627   14.0492  -18.3887 H   0  0  0  0  0  0  0  0  0  0  0  0
   -9.8984   10.7286  -15.3862 H   0  0  0  0  0  0  0  0  0  0  0  0
  -11.6387   11.6775  -13.6690 H   0  0  0  0  0  0  0  0  0  0  0  0
   -8.9834   13.5212  -18.8809 H   0  0  0  0  0  0  0  0  0  0  0  0
   -8.3767   12.0259  -19.6701 H   0  0  0  0  0  0  0  0  0  0  0  0
  -10.1354   12.3913  -19.6701 H   0  0  0  0  0  0  0  0  0  0  0  0
  -14.5795   15.5315  -12.4013 H   0  0  0  0  0  0  0  0  0  0  0  0
  -14.9934   16.8089  -13.5945 H   0  0  0  0  0  0  0  0  0  0  0  0
  -15.8933   15.2543  -13.5945 H   0  0  0  0  0  0  0  0  0  0  0  0
   -6.4417   22.2875  -19.0559 H   0  0  0  0  0  0  0  0  0  0  0  0
   -6.1076   23.3559  -17.9754 H   0  0  0  0  0  0  0  0  0  0  0  0
   -6.8199   21.3572  -16.0259 H   0  0  0  0  0  0  0  0  0  0  0  0
   -6.8989   20.2279  -17.0913 H   0  0  0  0  0  0  0  0  0  0  0  0
  -10.0155   21.1035  -18.1826 H   0  0  0  0  0  0  0  0  0  0  0  0
   -9.5788   22.4270  -19.3160 H   0  0  0  0  0  0  0  0  0  0  0  0
   -8.6371   20.8974  -19.3160 H   0  0  0  0  0  0  0  0  0  0  0  0
  -14.2527   23.5242  -14.4138 H   0  0  0  0  0  0  0  0  0  0  0  0
  -12.8066   25.8561  -13.9211 H   0  0  0  0  0  0  0  0  0  0  0  0
  -14.5432   26.6491  -15.3447 H   0  0  0  0  0  0  0  0  0  0  0  0
  -15.3005   23.5957  -15.5527 H   0  0  0  0  0  0  0  0  0  0  0  0
  -16.5101   24.9303  -15.5438 H   0  0  0  0  0  0  0  0  0  0  0  0
  -15.4244   25.8165  -17.6776 H   0  0  0  0  0  0  0  0  0  0  0  0
  -14.4231   24.3242  -17.7175 H   0  0  0  0  0  0  0  0  0  0  0  0
  -12.7572   22.7463  -11.9511 H   0  0  0  0  0  0  0  0  0  0  0  0
  -11.7871   23.9591  -12.0730 H   0  0  0  0  0  0  0  0  0  0  0  0
  -16.5425   24.1780  -19.1487 H   0  0  0  0  0  0  0  0  0  0  0  0
  -17.5073   24.3288  -17.6346 H   0  0  0  0  0  0  0  0  0  0  0  0
  -21.8887   18.0234  -11.4616 H   0  0  0  0  0  0  0  0  0  0  0  0
  -22.2730   17.9797  -12.9685 H   0  0  0  0  0  0  0  0  0  0  0  0
  -21.3642   15.2472  -12.9441 H   0  0  0  0  0  0  0  0  0  0  0  0
  -21.2297   15.2204  -11.3948 H   0  0  0  0  0  0  0  0  0  0  0  0
  -12.0603   20.5247  -13.8900 H   0  0  0  0  0  0  0  0  0  0  0  0
  -18.6947   20.9366  -14.8388 H   0  0  0  0  0  0  0  0  0  0  0  0
  -10.3712   21.6422  -15.8967 H   0  0  0  0  0  0  0  0  0  0  0  0
  1 13  1  0
  1 42  1  0
  1 49  2  0
 35  2  1  6
  2 50  1  0
  3  5  2  0
  3 45  1  0
  3 52  1  0
  4 17  1  0
  4 20  1  0
  4 46  2  0
  5 22  1  0
  5 46  1  0
  6 18  2  0
  6 19  1  0
  6 53  1  0
  7  8  1  0
  7 11  1  0
  7 42  1  0
  8  9  1  0
  9 10  1  0
  9 52  1  0
 10 42  1  0
 11 43  1  0
 11 48  2  0
 12 23  1  6
 12 28  1  0
 12 33  1  0
 12 43  1  0
 13 15  1  0
 13 44  1  0
 14 44  1  0
 14 50  1  0
 14 51  2  0
 15 16  1  0
 16 34  1  0
 17 18  1  0
 17 45  2  0
 19 20  2  0
 21 53  1  0
 23 47  1  0
 23 54  2  0
 24 25  1  0
 24 26  1  0
 24 27  1  6
 24 57  1  0
 25 26  1  0
 28 29  1  0
 28 33  1  0
 29 30  2  3
 30 31  1  0
 31 32  1  0
 32 34  1  0
 35 36  1  0
 35 37  1  0
 35 38  1  0
 36 37  1  0
 38 39  1  1
 38 40  1  0
 38 41  1  0
 57 47  1  1
 55 57  2  0
 56 57  2  0
  2 58  1  0
  2 59  1  0
  7 60  1  1
  8 61  1  0
  8 62  1  0
  9 63  1  6
 10 64  1  0
 10 65  1  0
 13 66  1  6
 15 67  1  0
 15 68  1  0
 16 69  1  0
 16 70  1  0
 18 71  1  0
 19 72  1  0
 20 73  1  0
 21 74  1  0
 21 75  1  0
 21 76  1  0
 22 77  1  0
 22 78  1  0
 22 79  1  0
 25 80  1  0
 25 81  1  0
 26 82  1  0
 26 83  1  0
 27 84  1  0
 27 85  1  0
 27 86  1  0
 28 87  1  1
 29 88  1  0
 30 89  1  0
 31 90  1  0
 31 91  1  0
 32 92  1  0
 32 93  1  0
 33 94  1  0
 33 95  1  0
 34 96  1  0
 34 97  1  0
 36 98  1  0
 36 99  1  0
 37100  1  0
 37101  1  0
 43102  1  0
 44103  1  0
 47104  1  0
M  END
>  <filename_input>  (26) 
7MMH_ZJY_docked.sdf

>  <pdb_id>  (26) 
7MMH_ZJY

>  <pose_rank>  (26) 
25

>  <num_atoms_heavy>  (26) 
57

>  <num_torsions>  (26) 
11

>  <pose>  (26) 
[-15.767, 20.522, -15.644, 1e-06, 1e-06, 1e-06, 0.0, 0.0, 0.0, 0.0, 0.0, 0.0, 0.0, 0.0, 0.0, 0.0, 0.0]

>  <energy>  (26) 
-1767.445270163661

>  <inter_energy>  (26) 
-1812.3579551155922

>  <intra_energy>  (26) 
43.936562040421734

>  <rmsd>  (26) 
0.0

>  <sdf_rank>  (26) 
0

$$$$
