
     RDKit          3D

 16 16  0  0  0  0  0  0  0  0999 V2000
   12.8289    8.5302    3.3226 C   0  0  0  0  0  0  0  0  0  0  0  0
   12.6643    7.1458    3.3759 C   0  0  0  0  0  0  0  0  0  0  0  0
   13.1083    6.3189    2.3411 C   0  0  0  0  0  0  0  0  0  0  0  0
   13.7287    6.8857    1.2434 C   0  0  0  0  0  0  0  0  0  0  0  0
   13.8931    8.2694    1.1843 C   0  0  0  0  0  0  0  0  0  0  0  0
   13.4485    9.0909    2.2175 C   0  0  0  0  0  0  0  0  0  0  0  0
   14.5086    8.9195    0.0850 O   0  0  0  0  0  0  0  0  0  0  0  0
   15.2461    8.2451   -1.1352 P   0  0  1  0  0  0  0  0  0  0  0  0
   15.9048    9.4434   -1.7587 O   0  0  0  0  0  0  0  0  0  0  0  0
   16.2899    7.2726   -0.7049 O   0  0  0  0  0  0  0  0  0  0  0  0
   14.2726    7.6246   -2.0826 O   0  0  0  0  0  0  0  0  0  0  0  0
   12.4722    9.1669    4.1457 H   0  0  0  0  0  0  0  0  0  0  0  0
   12.1743    6.6956    4.2518 H   0  0  0  0  0  0  0  0  0  0  0  0
   12.9658    5.2297    2.3991 H   0  0  0  0  0  0  0  0  0  0  0  0
   14.0902    6.2496    0.4220 H   0  0  0  0  0  0  0  0  0  0  0  0
   13.5886   10.1803    2.1563 H   0  0  0  0  0  0  0  0  0  0  0  0
  1  2  2  0
  1  6  1  0
  2  3  1  0
  3  4  2  0
  4  5  1  0
  5  6  2  0
  5  7  1  0
  7  8  1  0
  8  9  1  6
  8 10  1  0
  8 11  2  0
  1 12  1  0
  2 13  1  0
  3 14  1  0
  4 15  1  0
  6 16  1  0
M  CHG  2   9  -1  10  -1
M  END
>  <filename_input>  (1) 
7MOI_HPS_docked.sdf

>  <pdb_id>  (1) 
7MOI_HPS

>  <pose_rank>  (1) 
0

>  <num_atoms_heavy>  (1) 
11

>  <num_torsions>  (1) 
2

>  <pose>  (1) 
[12.82889682959467, 8.530229590185858, 3.3226499795393307, -0.6752586664892066, -0.011993541051235698, 0.8869058410716064, 12.75880408001347, 0.2839661547875009]

>  <energy>  (1) 
-327.68402792734616

>  <inter_energy>  (1) 
-332.7218728106635

>  <intra_energy>  (1) 
4.533448411345817

>  <rmsd>  (1) 
1.49487

>  <sdf_rank>  (1) 
0

$$$$

     RDKit          3D

 16 16  0  0  0  0  0  0  0  0999 V2000
   12.3942    6.9520    1.4202 C   0  0  0  0  0  0  0  0  0  0  0  0
   12.3578    7.9718    2.3716 C   0  0  0  0  0  0  0  0  0  0  0  0
   13.2867    9.0152    2.3573 C   0  0  0  0  0  0  0  0  0  0  0  0
   14.2593    9.0392    1.3751 C   0  0  0  0  0  0  0  0  0  0  0  0
   14.3014    8.0206    0.4233 C   0  0  0  0  0  0  0  0  0  0  0  0
   13.3742    6.9814    0.4412 C   0  0  0  0  0  0  0  0  0  0  0  0
   15.2773    7.9746   -0.6040 O   0  0  0  0  0  0  0  0  0  0  0  0
   15.6281    9.1088   -1.6423 P   0  0  1  0  0  0  0  0  0  0  0  0
   14.5382    8.9040   -2.6566 O   0  0  0  0  0  0  0  0  0  0  0  0
   15.5116   10.4744   -1.0574 O   0  0  0  0  0  0  0  0  0  0  0  0
   16.9707    8.8859   -2.2571 O   0  0  0  0  0  0  0  0  0  0  0  0
   11.6559    6.1370    1.4468 H   0  0  0  0  0  0  0  0  0  0  0  0
   11.5809    7.9538    3.1500 H   0  0  0  0  0  0  0  0  0  0  0  0
   13.2446    9.8082    3.1184 H   0  0  0  0  0  0  0  0  0  0  0  0
   14.9951    9.8563    1.3445 H   0  0  0  0  0  0  0  0  0  0  0  0
   13.4199    6.1873   -0.3186 H   0  0  0  0  0  0  0  0  0  0  0  0
  1  2  2  0
  1  6  1  0
  2  3  1  0
  3  4  2  0
  4  5  1  0
  5  6  2  0
  5  7  1  0
  7  8  1  0
  8  9  1  6
  8 10  1  0
  8 11  2  0
  1 12  1  0
  2 13  1  0
  3 14  1  0
  4 15  1  0
  6 16  1  0
M  CHG  2   9  -1  10  -1
M  END
>  <filename_input>  (2) 
7MOI_HPS_docked.sdf

>  <pdb_id>  (2) 
7MOI_HPS

>  <pose_rank>  (2) 
1

>  <num_atoms_heavy>  (2) 
11

>  <num_torsions>  (2) 
2

>  <pose>  (2) 
[12.39415025069736, 6.952008791508382, 1.4201628995562794, -2.757703658158278, -0.7430081962927616, 2.5584027293698974, -6.892609734067547, 1.8051680931934726]

>  <energy>  (2) 
-486.42112767187825

>  <inter_energy>  (2) 
-482.1603316194903

>  <intra_energy>  (2) 
7.818168667199783

>  <rmsd>  (2) 
1.11446

>  <sdf_rank>  (2) 
0

$$$$

     RDKit          3D

 16 16  0  0  0  0  0  0  0  0999 V2000
   12.4459    6.7265    1.2569 C   0  0  0  0  0  0  0  0  0  0  0  0
   12.6158    5.4302    0.7700 C   0  0  0  0  0  0  0  0  0  0  0  0
   13.6291    5.1207   -0.1406 C   0  0  0  0  0  0  0  0  0  0  0  0
   14.4847    6.1209   -0.5635 C   0  0  0  0  0  0  0  0  0  0  0  0
   14.3172    7.4190   -0.0817 C   0  0  0  0  0  0  0  0  0  0  0  0
   13.3053    7.7240    0.8255 C   0  0  0  0  0  0  0  0  0  0  0  0
   15.1489    8.4955   -0.4809 O   0  0  0  0  0  0  0  0  0  0  0  0
   15.5063    8.9337   -1.9533 P   0  0  1  0  0  0  0  0  0  0  0  0
   16.2333   10.2226   -1.6910 O   0  0  0  0  0  0  0  0  0  0  0  0
   16.4252    7.9739   -2.6276 O   0  0  0  0  0  0  0  0  0  0  0  0
   14.2744    9.1770   -2.7617 O   0  0  0  0  0  0  0  0  0  0  0  0
   11.6419    6.9532    1.9725 H   0  0  0  0  0  0  0  0  0  0  0  0
   11.9371    4.6343    1.1105 H   0  0  0  0  0  0  0  0  0  0  0  0
   13.7448    4.0935   -0.5166 H   0  0  0  0  0  0  0  0  0  0  0  0
   15.2921    5.8944   -1.2754 H   0  0  0  0  0  0  0  0  0  0  0  0
   13.1888    8.7525    1.1978 H   0  0  0  0  0  0  0  0  0  0  0  0
  1  2  2  0
  1  6  1  0
  2  3  1  0
  3  4  2  0
  4  5  1  0
  5  6  2  0
  5  7  1  0
  7  8  1  0
  8  9  1  1
  8 10  1  0
  8 11  2  0
  1 12  1  0
  2 13  1  0
  3 14  1  0
  4 15  1  0
  6 16  1  0
M  CHG  2   9  -1  10  -1
M  END
>  <filename_input>  (3) 
7MOI_HPS_docked.sdf

>  <pdb_id>  (3) 
7MOI_HPS

>  <pose_rank>  (3) 
2

>  <num_atoms_heavy>  (3) 
11

>  <num_torsions>  (3) 
2

>  <pose>  (3) 
[12.445915744124548, 6.726502468981085, 1.2569067833662206, 2.1974904694817234, 2.8410772972539045, -3.633445805869033, 1.2240682125359061, -0.05633599395322214]

>  <energy>  (3) 
-480.72758346692905

>  <inter_energy>  (3) 
-464.54678950805095

>  <intra_energy>  (3) 
1.3841957531853704

>  <rmsd>  (3) 
1.86632

>  <sdf_rank>  (3) 
0

$$$$

     RDKit          3D

 16 16  0  0  0  0  0  0  0  0999 V2000
   12.3378    5.0087   -0.5883 C   0  0  0  0  0  0  0  0  0  0  0  0
   11.0438    5.3432   -0.9886 C   0  0  0  0  0  0  0  0  0  0  0  0
   10.6754    6.6690   -1.2296 C   0  0  0  0  0  0  0  0  0  0  0  0
   11.6160    7.6698   -1.0727 C   0  0  0  0  0  0  0  0  0  0  0  0
   12.9102    7.3408   -0.6702 C   0  0  0  0  0  0  0  0  0  0  0  0
   13.2738    6.0179   -0.4299 C   0  0  0  0  0  0  0  0  0  0  0  0
   13.9216    8.3154   -0.4776 O   0  0  0  0  0  0  0  0  0  0  0  0
   15.0133    8.7800   -1.5168 P   0  0  1  0  0  0  0  0  0  0  0  0
   15.8996    7.5668   -1.5501 O   0  0  0  0  0  0  0  0  0  0  0  0
   14.4455    9.0173   -2.8739 O   0  0  0  0  0  0  0  0  0  0  0  0
   15.7654    9.9703   -1.0189 O   0  0  0  0  0  0  0  0  0  0  0  0
   12.6108    3.9596   -0.4014 H   0  0  0  0  0  0  0  0  0  0  0  0
   10.2974    4.5455   -1.1172 H   0  0  0  0  0  0  0  0  0  0  0  0
    9.6490    6.9136   -1.5405 H   0  0  0  0  0  0  0  0  0  0  0  0
   11.3456    8.7187   -1.2641 H   0  0  0  0  0  0  0  0  0  0  0  0
   14.2997    5.7753   -0.1156 H   0  0  0  0  0  0  0  0  0  0  0  0
  1  2  2  0
  1  6  1  0
  2  3  1  0
  3  4  2  0
  4  5  1  0
  5  6  2  0
  5  7  1  0
  7  8  1  0
  8  9  1  6
  8 10  1  0
  8 11  2  0
  1 12  1  0
  2 13  1  0
  3 14  1  0
  4 15  1  0
  6 16  1  0
M  CHG  2   9  -1  10  -1
M  END
>  <filename_input>  (4) 
7MOI_HPS_docked.sdf

>  <pdb_id>  (4) 
7MOI_HPS

>  <pose_rank>  (4) 
3

>  <num_atoms_heavy>  (4) 
11

>  <num_torsions>  (4) 
2

>  <pose>  (4) 
[12.337782004127135, 5.008657977161417, -0.5883115462278334, -4.714315186885107, -0.93459708574733, -0.18603275742977346, 4.957239973547887, -10.587671405348093]

>  <energy>  (4) 
-302.28205193672136

>  <inter_energy>  (4) 
-297.5673954642656

>  <intra_energy>  (4) 
3.7177441428830544

>  <rmsd>  (4) 
2.54926

>  <sdf_rank>  (4) 
0

$$$$

     RDKit          3D

 16 16  0  0  0  0  0  0  0  0999 V2000
   12.4388    8.0670    2.2245 C   0  0  0  0  0  0  0  0  0  0  0  0
   11.6123    7.3068    1.3966 C   0  0  0  0  0  0  0  0  0  0  0  0
   11.8392    7.2209    0.0208 C   0  0  0  0  0  0  0  0  0  0  0  0
   12.9097    7.9004   -0.5301 C   0  0  0  0  0  0  0  0  0  0  0  0
   13.7373    8.6639    0.2930 C   0  0  0  0  0  0  0  0  0  0  0  0
   13.5074    8.7479    1.6642 C   0  0  0  0  0  0  0  0  0  0  0  0
   14.8447    9.3959   -0.2047 O   0  0  0  0  0  0  0  0  0  0  0  0
   15.5328    9.2488   -1.6162 P   0  0  1  0  0  0  0  0  0  0  0  0
   16.1649    7.8925   -1.4774 O   0  0  0  0  0  0  0  0  0  0  0  0
   14.5462    9.2248   -2.7327 O   0  0  0  0  0  0  0  0  0  0  0  0
   16.5746   10.2985   -1.8246 O   0  0  0  0  0  0  0  0  0  0  0  0
   12.2449    8.1249    3.3057 H   0  0  0  0  0  0  0  0  0  0  0  0
   10.7633    6.7632    1.8368 H   0  0  0  0  0  0  0  0  0  0  0  0
   11.1741    6.6197   -0.6165 H   0  0  0  0  0  0  0  0  0  0  0  0
   13.1075    7.8393   -1.6104 H   0  0  0  0  0  0  0  0  0  0  0  0
   14.1715    9.3524    2.2995 H   0  0  0  0  0  0  0  0  0  0  0  0
  1  2  2  0
  1  6  1  0
  2  3  1  0
  3  4  2  0
  4  5  1  0
  5  6  2  0
  5  7  1  0
  7  8  1  0
  8  9  1  1
  8 10  1  0
  8 11  2  0
  1 12  1  0
  2 13  1  0
  3 14  1  0
  4 15  1  0
  6 16  1  0
M  CHG  2   9  -1  10  -1
M  END
>  <filename_input>  (5) 
7MOI_HPS_docked.sdf

>  <pdb_id>  (5) 
7MOI_HPS

>  <pose_rank>  (5) 
4

>  <num_atoms_heavy>  (5) 
11

>  <num_torsions>  (5) 
2

>  <pose>  (5) 
[12.438762053188944, 8.067017465001502, 2.224513749029894, -0.039200137659627765, 3.442762061912754, -4.893559127862803, -12.496268125072904, -10.543272550137445]

>  <energy>  (5) 
-380.0359440838841

>  <inter_energy>  (5) 
-401.8551517705948

>  <intra_energy>  (5) 
10.495489365304651

>  <rmsd>  (5) 
0.611394

>  <sdf_rank>  (5) 
0

$$$$

     RDKit          3D

 16 16  0  0  0  0  0  0  0  0999 V2000
   12.2779    6.3680    1.4546 C   0  0  0  0  0  0  0  0  0  0  0  0
   11.3187    5.7709    0.6361 C   0  0  0  0  0  0  0  0  0  0  0  0
   11.5153    5.6399   -0.7408 C   0  0  0  0  0  0  0  0  0  0  0  0
   12.6886    6.1079   -1.3024 C   0  0  0  0  0  0  0  0  0  0  0  0
   13.6494    6.7080   -0.4887 C   0  0  0  0  0  0  0  0  0  0  0  0
   13.4496    6.8377    0.8836 C   0  0  0  0  0  0  0  0  0  0  0  0
   14.8691    7.2210   -0.9976 O   0  0  0  0  0  0  0  0  0  0  0  0
   15.3440    8.7250   -1.0095 P   0  0  1  0  0  0  0  0  0  0  0  0
   14.1050    9.4037   -1.5221 O   0  0  0  0  0  0  0  0  0  0  0  0
   15.6610    9.2346    0.3544 O   0  0  0  0  0  0  0  0  0  0  0  0
   16.4851    8.9267   -1.9516 O   0  0  0  0  0  0  0  0  0  0  0  0
   12.1064    6.4643    2.5368 H   0  0  0  0  0  0  0  0  0  0  0  0
   10.3874    5.3950    1.0847 H   0  0  0  0  0  0  0  0  0  0  0  0
   10.7456    5.1699   -1.3707 H   0  0  0  0  0  0  0  0  0  0  0  0
   12.8633    6.0077   -2.3838 H   0  0  0  0  0  0  0  0  0  0  0  0
   14.2189    7.3111    1.5114 H   0  0  0  0  0  0  0  0  0  0  0  0
  1  2  2  0
  1  6  1  0
  2  3  1  0
  3  4  2  0
  4  5  1  0
  5  6  2  0
  5  7  1  0
  7  8  1  0
  8  9  1  6
  8 10  1  0
  8 11  2  0
  1 12  1  0
  2 13  1  0
  3 14  1  0
  4 15  1  0
  6 16  1  0
M  CHG  2   9  -1  10  -1
M  END
>  <filename_input>  (6) 
7MOI_HPS_docked.sdf

>  <pdb_id>  (6) 
7MOI_HPS

>  <pose_rank>  (6) 
5

>  <num_atoms_heavy>  (6) 
11

>  <num_torsions>  (6) 
2

>  <pose>  (6) 
[12.277885779292133, 6.3679607767332005, 1.4545685842450007, 0.5973366826886017, 5.706768573222514, -2.093637504868633, -10.225973447391045, -3.873781564519369]

>  <energy>  (6) 
-307.3148110638366

>  <inter_energy>  (6) 
-312.27273870957254

>  <intra_energy>  (6) 
2.647271503669207

>  <rmsd>  (6) 
2.18378

>  <sdf_rank>  (6) 
0

$$$$

     RDKit          3D

 16 16  0  0  0  0  0  0  0  0999 V2000
   15.7785    8.0383   -1.6567 C   0  0  0  0  0  0  0  0  0  0  0  0
   16.2890    9.1764   -1.0318 C   0  0  0  0  0  0  0  0  0  0  0  0
   15.6935    9.7072    0.1150 C   0  0  0  0  0  0  0  0  0  0  0  0
   14.5771    9.0870    0.6442 C   0  0  0  0  0  0  0  0  0  0  0  0
   14.0613    7.9505    0.0216 C   0  0  0  0  0  0  0  0  0  0  0  0
   14.6571    7.4246   -1.1223 C   0  0  0  0  0  0  0  0  0  0  0  0
   12.9134    7.2709    0.5014 O   0  0  0  0  0  0  0  0  0  0  0  0
   12.7881    5.7406    0.8620 P   0  0  1  0  0  0  0  0  0  0  0  0
   12.9561    5.7920    2.3546 O   0  0  0  0  0  0  0  0  0  0  0  0
   11.4455    5.1843    0.5325 O   0  0  0  0  0  0  0  0  0  0  0  0
   13.8837    4.9432    0.2342 O   0  0  0  0  0  0  0  0  0  0  0  0
   16.2589    7.6344   -2.5601 H   0  0  0  0  0  0  0  0  0  0  0  0
   17.1799    9.6666   -1.4514 H   0  0  0  0  0  0  0  0  0  0  0  0
   16.1081   10.6079    0.5914 H   0  0  0  0  0  0  0  0  0  0  0  0
   14.0986    9.4872    1.5503 H   0  0  0  0  0  0  0  0  0  0  0  0
   14.2392    6.5259   -1.5994 H   0  0  0  0  0  0  0  0  0  0  0  0
  1  2  2  0
  1  6  1  0
  2  3  1  0
  3  4  2  0
  4  5  1  0
  5  6  2  0
  5  7  1  0
  7  8  1  0
  8  9  1  1
  8 10  1  0
  8 11  2  0
  1 12  1  0
  2 13  1  0
  3 14  1  0
  4 15  1  0
  6 16  1  0
M  CHG  2   9  -1  10  -1
M  END
>  <filename_input>  (7) 
7MOI_HPS_docked.sdf

>  <pdb_id>  (7) 
7MOI_HPS

>  <pose_rank>  (7) 
6

>  <num_atoms_heavy>  (7) 
11

>  <num_torsions>  (7) 
2

>  <pose>  (7) 
[15.778475391816372, 8.038332377650057, -1.6567385053019574, 1.8228687277215434, -2.6022252922749987, 1.0590619041195302, -8.149465709058095, -1.3377916308612097]

>  <energy>  (7) 
-278.9666098783691

>  <inter_energy>  (7) 
-288.53227702206374

>  <intra_energy>  (7) 
13.391874728946927

>  <rmsd>  (7) 
4.3376

>  <sdf_rank>  (7) 
0

$$$$

     RDKit          3D

 16 16  0  0  0  0  0  0  0  0999 V2000
   10.4246    6.4290    3.7083 C   0  0  0  0  0  0  0  0  0  0  0  0
    9.1390    6.0607    3.3107 C   0  0  0  0  0  0  0  0  0  0  0  0
    8.7862    5.9886    1.9608 C   0  0  0  0  0  0  0  0  0  0  0  0
    9.7344    6.2837    0.9990 C   0  0  0  0  0  0  0  0  0  0  0  0
   11.0202    6.6549    1.3915 C   0  0  0  0  0  0  0  0  0  0  0  0
   11.3681    6.7267    2.7383 C   0  0  0  0  0  0  0  0  0  0  0  0
   12.0384    6.9828    0.4611 O   0  0  0  0  0  0  0  0  0  0  0  0
   12.9757    5.9857   -0.3230 P   0  0  1  0  0  0  0  0  0  0  0  0
   12.9206    6.5790   -1.7027 O   0  0  0  0  0  0  0  0  0  0  0  0
   14.3805    6.0127    0.1733 O   0  0  0  0  0  0  0  0  0  0  0  0
   12.4176    4.6004   -0.3209 O   0  0  0  0  0  0  0  0  0  0  0  0
   10.6851    6.4821    4.7756 H   0  0  0  0  0  0  0  0  0  0  0  0
    8.3866    5.8220    4.0768 H   0  0  0  0  0  0  0  0  0  0  0  0
    7.7662    5.7003    1.6668 H   0  0  0  0  0  0  0  0  0  0  0  0
    9.4764    6.2262   -0.0687 H   0  0  0  0  0  0  0  0  0  0  0  0
   12.3876    7.0185    3.0307 H   0  0  0  0  0  0  0  0  0  0  0  0
  1  2  2  0
  1  6  1  0
  2  3  1  0
  3  4  2  0
  4  5  1  0
  5  6  2  0
  5  7  1  0
  7  8  1  0
  8  9  1  6
  8 10  1  0
  8 11  2  0
  1 12  1  0
  2 13  1  0
  3 14  1  0
  4 15  1  0
  6 16  1  0
M  CHG  2   9  -1  10  -1
M  END
>  <filename_input>  (8) 
7MOI_HPS_docked.sdf

>  <pdb_id>  (8) 
7MOI_HPS

>  <pose_rank>  (8) 
7

>  <num_atoms_heavy>  (8) 
11

>  <num_torsions>  (8) 
2

>  <pose>  (8) 
[10.424569417081925, 6.428977937146372, 3.7082547073870358, 0.5815367046931158, 11.190708097848061, -6.22450388677865, -13.678386188576736, 5.585832842309825]

>  <energy>  (8) 
-156.0856552111665

>  <inter_energy>  (8) 
-152.60677837268108

>  <intra_energy>  (8) 
0.8516745739607116

>  <rmsd>  (8) 
4.02658

>  <sdf_rank>  (8) 
0

$$$$

     RDKit          3D

 16 16  0  0  0  0  0  0  0  0999 V2000
   12.1729    7.1269    3.8738 C   0  0  0  0  0  0  0  0  0  0  0  0
   10.8038    7.3127    3.6801 C   0  0  0  0  0  0  0  0  0  0  0  0
   10.3083    7.9370    2.5328 C   0  0  0  0  0  0  0  0  0  0  0  0
   11.1949    8.3750    1.5667 C   0  0  0  0  0  0  0  0  0  0  0  0
   12.5646    8.1939    1.7570 C   0  0  0  0  0  0  0  0  0  0  0  0
   13.0551    7.5719    2.9026 C   0  0  0  0  0  0  0  0  0  0  0  0
   13.5310    8.6285    0.8151 O   0  0  0  0  0  0  0  0  0  0  0  0
   13.9586    7.9059   -0.5201 P   0  0  1  0  0  0  0  0  0  0  0  0
   12.8142    6.9478   -0.6965 O   0  0  0  0  0  0  0  0  0  0  0  0
   14.0099    8.8372   -1.6822 O   0  0  0  0  0  0  0  0  0  0  0  0
   15.2451    7.1668   -0.3497 O   0  0  0  0  0  0  0  0  0  0  0  0
   12.5462    6.6345    4.7839 H   0  0  0  0  0  0  0  0  0  0  0  0
   10.0991    6.9600    4.4475 H   0  0  0  0  0  0  0  0  0  0  0  0
    9.2256    8.0784    2.3996 H   0  0  0  0  0  0  0  0  0  0  0  0
   10.8225    8.8631    0.6540 H   0  0  0  0  0  0  0  0  0  0  0  0
   14.1384    7.4345    3.0357 H   0  0  0  0  0  0  0  0  0  0  0  0
  1  2  2  0
  1  6  1  0
  2  3  1  0
  3  4  2  0
  4  5  1  0
  5  6  2  0
  5  7  1  0
  7  8  1  0
  8  9  1  6
  8 10  1  0
  8 11  2  0
  1 12  1  0
  2 13  1  0
  3 14  1  0
  4 15  1  0
  6 16  1  0
M  CHG  2   9  -1  10  -1
M  END
>  <filename_input>  (9) 
7MOI_HPS_docked.sdf

>  <pdb_id>  (9) 
7MOI_HPS

>  <pose_rank>  (9) 
8

>  <num_atoms_heavy>  (9) 
11

>  <num_torsions>  (9) 
2

>  <pose>  (9) 
[12.172878089083056, 7.126863384763325, 3.8738354363298537, 0.4730666947154212, 0.42078543225167275, -0.3816593799441644, -13.633847017590167, -9.052892735541793]

>  <energy>  (9) 
-216.22428120860621

>  <inter_energy>  (9) 
-220.51245729855228

>  <intra_energy>  (9) 
6.696432861735012

>  <rmsd>  (9) 
2.44615

>  <sdf_rank>  (9) 
0

$$$$

     RDKit          3D

 16 16  0  0  0  0  0  0  0  0999 V2000
   12.7935    6.8750    0.6737 C   0  0  0  0  0  0  0  0  0  0  0  0
   12.8482    5.4809    0.6722 C   0  0  0  0  0  0  0  0  0  0  0  0
   13.8390    4.7913   -0.0309 C   0  0  0  0  0  0  0  0  0  0  0  0
   14.7884    5.5073   -0.7359 C   0  0  0  0  0  0  0  0  0  0  0  0
   14.7364    6.9011   -0.7397 C   0  0  0  0  0  0  0  0  0  0  0  0
   13.7465    7.5853   -0.0382 C   0  0  0  0  0  0  0  0  0  0  0  0
   15.6688    7.6986   -1.4499 O   0  0  0  0  0  0  0  0  0  0  0  0
   15.5994    9.2534   -1.7054 P   0  0  1  0  0  0  0  0  0  0  0  0
   14.4172    9.3308   -2.6299 O   0  0  0  0  0  0  0  0  0  0  0  0
   15.3095   10.0239   -0.4633 O   0  0  0  0  0  0  0  0  0  0  0  0
   16.8344    9.7479   -2.3844 O   0  0  0  0  0  0  0  0  0  0  0  0
   12.0056    7.4022    1.2316 H   0  0  0  0  0  0  0  0  0  0  0  0
   12.0948    4.9124    1.2370 H   0  0  0  0  0  0  0  0  0  0  0  0
   13.8634    3.6916   -0.0236 H   0  0  0  0  0  0  0  0  0  0  0  0
   15.5797    4.9813   -1.2902 H   0  0  0  0  0  0  0  0  0  0  0  0
   13.7216    8.6850   -0.0494 H   0  0  0  0  0  0  0  0  0  0  0  0
  1  2  2  0
  1  6  1  0
  2  3  1  0
  3  4  2  0
  4  5  1  0
  5  6  2  0
  5  7  1  0
  7  8  1  0
  8  9  1  6
  8 10  1  0
  8 11  2  0
  1 12  1  0
  2 13  1  0
  3 14  1  0
  4 15  1  0
  6 16  1  0
M  CHG  2   9  -1  10  -1
M  END
>  <filename_input>  (10) 
7MOI_HPS_docked.sdf

>  <pdb_id>  (10) 
7MOI_HPS

>  <pose_rank>  (10) 
9

>  <num_atoms_heavy>  (10) 
11

>  <num_torsions>  (10) 
2

>  <pose>  (10) 
[12.79349501246277, 6.875014113429924, 0.6736856571491666, -0.8616959202149383, -0.504642972071998, 0.8636642675372687, -9.264408574287108, -4.245758782494059]

>  <energy>  (10) 
-403.1672621934782

>  <inter_energy>  (10) 
-428.558747837892

>  <intra_energy>  (10) 
18.467061008423194

>  <rmsd>  (10) 
2.39264

>  <sdf_rank>  (10) 
0

$$$$

     RDKit          3D

 16 16  0  0  0  0  0  0  0  0999 V2000
   12.2696    7.9819    3.5748 C   0  0  0  0  0  0  0  0  0  0  0  0
   11.0987    7.5182    2.9746 C   0  0  0  0  0  0  0  0  0  0  0  0
   10.9934    7.3867    1.5877 C   0  0  0  0  0  0  0  0  0  0  0  0
   12.0758    7.7188    0.7945 C   0  0  0  0  0  0  0  0  0  0  0  0
   13.2477    8.1853    1.3897 C   0  0  0  0  0  0  0  0  0  0  0  0
   13.3488    8.3160    2.7727 C   0  0  0  0  0  0  0  0  0  0  0  0
   14.3914    8.5556    0.6382 O   0  0  0  0  0  0  0  0  0  0  0  0
   14.6781    8.2488   -0.8821 P   0  0  1  0  0  0  0  0  0  0  0  0
   13.5740    9.0307   -1.5366 O   0  0  0  0  0  0  0  0  0  0  0  0
   15.9960    8.7785   -1.3329 O   0  0  0  0  0  0  0  0  0  0  0  0
   14.5403    6.7914   -1.1775 O   0  0  0  0  0  0  0  0  0  0  0  0
   12.3351    8.0807    4.6684 H   0  0  0  0  0  0  0  0  0  0  0  0
   10.2395    7.2503    3.6071 H   0  0  0  0  0  0  0  0  0  0  0  0
   10.0603    7.0233    1.1324 H   0  0  0  0  0  0  0  0  0  0  0  0
   12.0132    7.6158   -0.2989 H   0  0  0  0  0  0  0  0  0  0  0  0
   14.2814    8.6829    3.2261 H   0  0  0  0  0  0  0  0  0  0  0  0
  1  2  2  0
  1  6  1  0
  2  3  1  0
  3  4  2  0
  4  5  1  0
  5  6  2  0
  5  7  1  0
  7  8  1  0
  8  9  1  6
  8 10  1  0
  8 11  2  0
  1 12  1  0
  2 13  1  0
  3 14  1  0
  4 15  1  0
  6 16  1  0
M  CHG  2   9  -1  10  -1
M  END
>  <filename_input>  (11) 
7MOI_HPS_docked.sdf

>  <pdb_id>  (11) 
7MOI_HPS

>  <pose_rank>  (11) 
10

>  <num_atoms_heavy>  (11) 
11

>  <num_torsions>  (11) 
2

>  <pose>  (11) 
[12.269598248099232, 7.981896356842524, 3.5748423068435033, 1.3954821722699586, -3.5105907832555148, 4.924941686414081, -12.47589270275473, -8.219069529964944]

>  <energy>  (11) 
-265.7744198989783

>  <inter_energy>  (11) 
-282.97087688729175

>  <intra_energy>  (11) 
11.446671443452745

>  <rmsd>  (11) 
1.48451

>  <sdf_rank>  (11) 
0

$$$$

     RDKit          3D

 16 16  0  0  0  0  0  0  0  0999 V2000
    9.7591    5.6198    0.2570 C   0  0  0  0  0  0  0  0  0  0  0  0
    9.3674    5.1008   -0.9774 C   0  0  0  0  0  0  0  0  0  0  0  0
   10.2364    5.0872   -2.0711 C   0  0  0  0  0  0  0  0  0  0  0  0
   11.5139    5.5948   -1.9242 C   0  0  0  0  0  0  0  0  0  0  0  0
   11.9093    6.1173   -0.6929 C   0  0  0  0  0  0  0  0  0  0  0  0
   11.0399    6.1300    0.3952 C   0  0  0  0  0  0  0  0  0  0  0  0
   13.1984    6.6648   -0.4737 O   0  0  0  0  0  0  0  0  0  0  0  0
   13.5771    8.1876   -0.3146 P   0  0  1  0  0  0  0  0  0  0  0  0
   13.2002    8.4193    1.1216 O   0  0  0  0  0  0  0  0  0  0  0  0
   15.0359    8.4348   -0.4911 O   0  0  0  0  0  0  0  0  0  0  0  0
   12.7593    9.0482   -1.2208 O   0  0  0  0  0  0  0  0  0  0  0  0
    9.0616    5.6240    1.1076 H   0  0  0  0  0  0  0  0  0  0  0  0
    8.3521    4.6933   -1.0919 H   0  0  0  0  0  0  0  0  0  0  0  0
    9.9081    4.6775   -3.0377 H   0  0  0  0  0  0  0  0  0  0  0  0
   12.2138    5.5867   -2.7727 H   0  0  0  0  0  0  0  0  0  0  0  0
   11.3687    6.5432    1.3601 H   0  0  0  0  0  0  0  0  0  0  0  0
  1  2  2  0
  1  6  1  0
  2  3  1  0
  3  4  2  0
  4  5  1  0
  5  6  2  0
  5  7  1  0
  7  8  1  0
  8  9  1  1
  8 10  1  0
  8 11  2  0
  1 12  1  0
  2 13  1  0
  3 14  1  0
  4 15  1  0
  6 16  1  0
M  CHG  2   9  -1  10  -1
M  END
>  <filename_input>  (12) 
7MOI_HPS_docked.sdf

>  <pdb_id>  (12) 
7MOI_HPS

>  <pose_rank>  (12) 
11

>  <num_atoms_heavy>  (12) 
11

>  <num_torsions>  (12) 
2

>  <pose>  (12) 
[9.759088455557194, 5.6198390447688915, 0.2569944858581601, -0.4324406591818006, 5.5412319853720975, -0.5135676558703256, -10.377274029714913, -1.6591517383708405]

>  <energy>  (12) 
-188.93669168955176

>  <inter_energy>  (12) 
-194.50740564609833

>  <intra_energy>  (12) 
4.0964011941118725

>  <rmsd>  (12) 
3.78952

>  <sdf_rank>  (12) 
0

$$$$

     RDKit          3D

 16 16  0  0  0  0  0  0  0  0999 V2000
   12.1722    8.2721    4.1441 C   0  0  0  0  0  0  0  0  0  0  0  0
   10.7889    8.4408    4.0775 C   0  0  0  0  0  0  0  0  0  0  0  0
   10.0724    8.1342    2.9181 C   0  0  0  0  0  0  0  0  0  0  0  0
   10.7495    7.6481    1.8152 C   0  0  0  0  0  0  0  0  0  0  0  0
   12.1328    7.4801    1.8760 C   0  0  0  0  0  0  0  0  0  0  0  0
   12.8440    7.7878    3.0334 C   0  0  0  0  0  0  0  0  0  0  0  0
   12.8929    6.9983    0.7806 O   0  0  0  0  0  0  0  0  0  0  0  0
   13.2977    7.7869   -0.5240 P   0  0  1  0  0  0  0  0  0  0  0  0
   13.1919    9.2044   -0.0362 O   0  0  0  0  0  0  0  0  0  0  0  0
   14.6997    7.5105   -0.9464 O   0  0  0  0  0  0  0  0  0  0  0  0
   12.3291    7.5360   -1.6327 O   0  0  0  0  0  0  0  0  0  0  0  0
   12.7212    8.5198    5.0646 H   0  0  0  0  0  0  0  0  0  0  0  0
   10.2506    8.8237    4.9571 H   0  0  0  0  0  0  0  0  0  0  0  0
    8.9824    8.2778    2.8831 H   0  0  0  0  0  0  0  0  0  0  0  0
   10.2011    7.3954    0.8958 H   0  0  0  0  0  0  0  0  0  0  0  0
   13.9345    7.6468    3.0655 H   0  0  0  0  0  0  0  0  0  0  0  0
  1  2  2  0
  1  6  1  0
  2  3  1  0
  3  4  2  0
  4  5  1  0
  5  6  2  0
  5  7  1  0
  7  8  1  0
  8  9  1  1
  8 10  1  0
  8 11  2  0
  1 12  1  0
  2 13  1  0
  3 14  1  0
  4 15  1  0
  6 16  1  0
M  CHG  2   9  -1  10  -1
M  END
>  <filename_input>  (13) 
7MOI_HPS_docked.sdf

>  <pdb_id>  (13) 
7MOI_HPS

>  <pose_rank>  (13) 
12

>  <num_atoms_heavy>  (13) 
11

>  <num_torsions>  (13) 
2

>  <pose>  (13) 
[12.17220055015147, 8.272114925385043, 4.1441375222866546, 2.221629784997013, -2.727679727952771, 4.19804055562483, -10.922561634712354, -8.948313034285144]

>  <energy>  (13) 
-210.3229843990171

>  <inter_energy>  (13) 
-208.95264248523213

>  <intra_energy>  (13) 
2.0112668911983054

>  <rmsd>  (13) 
2.86381

>  <sdf_rank>  (13) 
0

$$$$

     RDKit          3D

 16 16  0  0  0  0  0  0  0  0999 V2000
    9.0405    6.3405   -1.2078 C   0  0  0  0  0  0  0  0  0  0  0  0
    9.3493    5.4218   -2.2113 C   0  0  0  0  0  0  0  0  0  0  0  0
   10.6603    4.9886   -2.4244 C   0  0  0  0  0  0  0  0  0  0  0  0
   11.6718    5.4779   -1.6192 C   0  0  0  0  0  0  0  0  0  0  0  0
   11.3686    6.3986   -0.6164 C   0  0  0  0  0  0  0  0  0  0  0  0
   10.0605    6.8289   -0.4073 C   0  0  0  0  0  0  0  0  0  0  0  0
   12.3560    6.9510    0.2378 O   0  0  0  0  0  0  0  0  0  0  0  0
   12.3614    6.9588    1.8150 P   0  0  1  0  0  0  0  0  0  0  0  0
   11.5159    8.1705    2.0900 O   0  0  0  0  0  0  0  0  0  0  0  0
   11.7043    5.7533    2.3943 O   0  0  0  0  0  0  0  0  0  0  0  0
   13.7423    7.1450    2.3525 O   0  0  0  0  0  0  0  0  0  0  0  0
    8.0029    6.6721   -1.0545 H   0  0  0  0  0  0  0  0  0  0  0  0
    8.5430    5.0299   -2.8486 H   0  0  0  0  0  0  0  0  0  0  0  0
   10.8849    4.2667   -3.2234 H   0  0  0  0  0  0  0  0  0  0  0  0
   12.7091    5.1434   -1.7684 H   0  0  0  0  0  0  0  0  0  0  0  0
    9.8381    7.5535    0.3899 H   0  0  0  0  0  0  0  0  0  0  0  0
  1  2  2  0
  1  6  1  0
  2  3  1  0
  3  4  2  0
  4  5  1  0
  5  6  2  0
  5  7  1  0
  7  8  1  0
  8  9  1  1
  8 10  1  0
  8 11  2  0
  1 12  1  0
  2 13  1  0
  3 14  1  0
  4 15  1  0
  6 16  1  0
M  CHG  2   9  -1  10  -1
M  END
>  <filename_input>  (14) 
7MOI_HPS_docked.sdf

>  <pdb_id>  (14) 
7MOI_HPS

>  <pose_rank>  (14) 
13

>  <num_atoms_heavy>  (14) 
11

>  <num_torsions>  (14) 
2

>  <pose>  (14) 
[9.040491056897507, 6.340521290508075, -1.2078316599423689, 1.2665662452209456, 4.691233083025369, -0.1711059532983901, -14.439265412764579, -4.527420078394176]

>  <energy>  (14) 
-169.16923369073643

>  <inter_energy>  (14) 
-168.4787779584737

>  <intra_energy>  (14) 
6.0785429550982935

>  <rmsd>  (14) 
5.09122

>  <sdf_rank>  (14) 
0

$$$$

     RDKit          3D

 16 16  0  0  0  0  0  0  0  0999 V2000
   11.7203    6.7922    3.0165 C   0  0  0  0  0  0  0  0  0  0  0  0
   12.3625    7.3768    1.9246 C   0  0  0  0  0  0  0  0  0  0  0  0
   11.7526    7.4412    0.6694 C   0  0  0  0  0  0  0  0  0  0  0  0
   10.4829    6.9186    0.5085 C   0  0  0  0  0  0  0  0  0  0  0  0
    9.8379    6.3308    1.5965 C   0  0  0  0  0  0  0  0  0  0  0  0
   10.4494    6.2675    2.8463 C   0  0  0  0  0  0  0  0  0  0  0  0
    8.5417    5.7644    1.5016 O   0  0  0  0  0  0  0  0  0  0  0  0
    8.0348    4.7054    0.4484 P   0  0  1  0  0  0  0  0  0  0  0  0
    9.1922    3.7469    0.4387 O   0  0  0  0  0  0  0  0  0  0  0  0
    6.8054    3.9945    0.8999 O   0  0  0  0  0  0  0  0  0  0  0  0
    7.8498    5.3242   -0.8981 O   0  0  0  0  0  0  0  0  0  0  0  0
   12.2156    6.7486    3.9978 H   0  0  0  0  0  0  0  0  0  0  0  0
   13.3711    7.7961    2.0548 H   0  0  0  0  0  0  0  0  0  0  0  0
   12.2765    7.9024   -0.1809 H   0  0  0  0  0  0  0  0  0  0  0  0
    9.9847    6.9660   -0.4710 H   0  0  0  0  0  0  0  0  0  0  0  0
    9.9255    5.8029    3.6947 H   0  0  0  0  0  0  0  0  0  0  0  0
  1  2  2  0
  1  6  1  0
  2  3  1  0
  3  4  2  0
  4  5  1  0
  5  6  2  0
  5  7  1  0
  7  8  1  0
  8  9  1  6
  8 10  1  0
  8 11  2  0
  1 12  1  0
  2 13  1  0
  3 14  1  0
  4 15  1  0
  6 16  1  0
M  CHG  2   9  -1  10  -1
M  END
>  <filename_input>  (15) 
7MOI_HPS_docked.sdf

>  <pdb_id>  (15) 
7MOI_HPS

>  <pose_rank>  (15) 
14

>  <num_atoms_heavy>  (15) 
11

>  <num_torsions>  (15) 
2

>  <pose>  (15) 
[11.720347799757393, 6.792200272998043, 3.0165473008801778, 0.7584349937452453, 0.026468647508740242, 3.1366327415623245, -11.338693408818141, -8.57285068323805]

>  <energy>  (15) 
-153.30071528807608

>  <inter_energy>  (15) 
-152.99523390819218

>  <intra_energy>  (15) 
2.3135512257590944

>  <rmsd>  (15) 
6.55853

>  <sdf_rank>  (15) 
0

$$$$

     RDKit          3D

 16 16  0  0  0  0  0  0  0  0999 V2000
   12.5918    5.5101   -0.1567 C   0  0  0  0  0  0  0  0  0  0  0  0
   12.5450    6.8484    0.2349 C   0  0  0  0  0  0  0  0  0  0  0  0
   11.4597    7.6655   -0.0907 C   0  0  0  0  0  0  0  0  0  0  0  0
   10.4073    7.1335   -0.8124 C   0  0  0  0  0  0  0  0  0  0  0  0
   10.4506    5.7969   -1.2084 C   0  0  0  0  0  0  0  0  0  0  0  0
   11.5348    4.9855   -0.8827 C   0  0  0  0  0  0  0  0  0  0  0  0
    9.4138    5.1887   -1.9600 O   0  0  0  0  0  0  0  0  0  0  0  0
    9.4460    4.7875   -3.4850 P   0  0  1  0  0  0  0  0  0  0  0  0
    7.9904    4.9146   -3.8368 O   0  0  0  0  0  0  0  0  0  0  0  0
   10.2410    5.7406   -4.3096 O   0  0  0  0  0  0  0  0  0  0  0  0
    9.9125    3.3804   -3.6667 O   0  0  0  0  0  0  0  0  0  0  0  0
   13.4548    4.8811    0.1070 H   0  0  0  0  0  0  0  0  0  0  0  0
   13.3810    7.2694    0.8127 H   0  0  0  0  0  0  0  0  0  0  0  0
   11.4426    8.7196    0.2233 H   0  0  0  0  0  0  0  0  0  0  0  0
    9.5415    7.7603   -1.0724 H   0  0  0  0  0  0  0  0  0  0  0  0
   11.5518    3.9325   -1.2006 H   0  0  0  0  0  0  0  0  0  0  0  0
  1  2  2  0
  1  6  1  0
  2  3  1  0
  3  4  2  0
  4  5  1  0
  5  6  2  0
  5  7  1  0
  7  8  1  0
  8  9  1  6
  8 10  1  0
  8 11  2  0
  1 12  1  0
  2 13  1  0
  3 14  1  0
  4 15  1  0
  6 16  1  0
M  CHG  2   9  -1  10  -1
M  END
>  <filename_input>  (16) 
7MOI_HPS_docked.sdf

>  <pdb_id>  (16) 
7MOI_HPS

>  <pose_rank>  (16) 
15

>  <num_atoms_heavy>  (16) 
11

>  <num_torsions>  (16) 
2

>  <pose>  (16) 
[12.59177878379367, 5.510127493183183, -0.15667722166352835, -2.2631771240842258, 5.020562513813872, -6.597094522641772, -16.66006542044983, -11.979295746468477]

>  <energy>  (16) 
-162.9806295575747

>  <inter_energy>  (16) 
-170.6617489271768

>  <intra_energy>  (16) 
1.9356964678955704e-06

>  <rmsd>  (16) 
5.90006

>  <sdf_rank>  (16) 
0

$$$$

     RDKit          3D

 16 16  0  0  0  0  0  0  0  0999 V2000
    9.6354   13.5259    8.0696 C   0  0  0  0  0  0  0  0  0  0  0  0
    9.4926   12.5289    7.1042 C   0  0  0  0  0  0  0  0  0  0  0  0
   10.2825   12.5116    5.9521 C   0  0  0  0  0  0  0  0  0  0  0  0
   11.2296   13.5018    5.7684 C   0  0  0  0  0  0  0  0  0  0  0  0
   11.3742   14.5023    6.7294 C   0  0  0  0  0  0  0  0  0  0  0  0
   10.5843   14.5169    7.8764 C   0  0  0  0  0  0  0  0  0  0  0  0
   12.3154   15.5547    6.6010 O   0  0  0  0  0  0  0  0  0  0  0  0
   12.1052   16.9448    5.8860 P   0  0  1  0  0  0  0  0  0  0  0  0
   13.1085   17.7894    6.6198 O   0  0  0  0  0  0  0  0  0  0  0  0
   12.4567   16.9014    4.4386 O   0  0  0  0  0  0  0  0  0  0  0  0
   10.7208   17.4623    6.1011 O   0  0  0  0  0  0  0  0  0  0  0  0
    9.0041   13.5253    8.9704 H   0  0  0  0  0  0  0  0  0  0  0  0
    8.7417   11.7391    7.2535 H   0  0  0  0  0  0  0  0  0  0  0  0
   10.1525   11.7195    5.2000 H   0  0  0  0  0  0  0  0  0  0  0  0
   11.8648   13.5007    4.8703 H   0  0  0  0  0  0  0  0  0  0  0  0
   10.7132   15.3117    8.6258 H   0  0  0  0  0  0  0  0  0  0  0  0
  1  2  2  0
  1  6  1  0
  2  3  1  0
  3  4  2  0
  4  5  1  0
  5  6  2  0
  5  7  1  0
  7  8  1  0
  8  9  1  1
  8 10  1  0
  8 11  2  0
  1 12  1  0
  2 13  1  0
  3 14  1  0
  4 15  1  0
  6 16  1  0
M  CHG  2   9  -1  10  -1
M  END
>  <filename_input>  (17) 
7MOI_HPS_docked.sdf

>  <pdb_id>  (17) 
7MOI_HPS

>  <pose_rank>  (17) 
16

>  <num_atoms_heavy>  (17) 
11

>  <num_torsions>  (17) 
2

>  <pose>  (17) 
[9.63536963530303, 13.525928782458307, 8.069557148699777, 0.6676344185367764, 3.835843966765296, -3.8185817303196616, 1.867289370338751, -0.3654541073639789]

>  <energy>  (17) 
-140.09662006554893

>  <inter_energy>  (17) 
-121.14605302827543

>  <intra_energy>  (17) 
0.7508658577932257

>  <rmsd>  (17) 
9.96062

>  <sdf_rank>  (17) 
0

$$$$

     RDKit          3D

 16 16  0  0  0  0  0  0  0  0999 V2000
    5.4192   11.6938   -2.9434 C   0  0  0  0  0  0  0  0  0  0  0  0
    5.1656   11.3435   -4.2698 C   0  0  0  0  0  0  0  0  0  0  0  0
    5.6216   12.1293   -5.3311 C   0  0  0  0  0  0  0  0  0  0  0  0
    6.3444   13.2760   -5.0595 C   0  0  0  0  0  0  0  0  0  0  0  0
    6.5982   13.6319   -3.7351 C   0  0  0  0  0  0  0  0  0  0  0  0
    6.1412   12.8465   -2.6795 C   0  0  0  0  0  0  0  0  0  0  0  0
    7.3213   14.7993   -3.3827 O   0  0  0  0  0  0  0  0  0  0  0  0
    8.8875   14.9675   -3.3035 P   0  0  1  0  0  0  0  0  0  0  0  0
    8.9896   16.3101   -2.6360 O   0  0  0  0  0  0  0  0  0  0  0  0
    9.5300   13.9349   -2.4424 O   0  0  0  0  0  0  0  0  0  0  0  0
    9.4991   15.0068   -4.6654 O   0  0  0  0  0  0  0  0  0  0  0  0
    5.0516   11.0644   -2.1196 H   0  0  0  0  0  0  0  0  0  0  0  0
    4.5941   10.4285   -4.4847 H   0  0  0  0  0  0  0  0  0  0  0  0
    5.4082   11.8390   -6.3704 H   0  0  0  0  0  0  0  0  0  0  0  0
    6.7167   13.9037   -5.8826 H   0  0  0  0  0  0  0  0  0  0  0  0
    6.3526   13.1402   -1.6407 H   0  0  0  0  0  0  0  0  0  0  0  0
  1  2  2  0
  1  6  1  0
  2  3  1  0
  3  4  2  0
  4  5  1  0
  5  6  2  0
  5  7  1  0
  7  8  1  0
  8  9  1  1
  8 10  1  0
  8 11  2  0
  1 12  1  0
  2 13  1  0
  3 14  1  0
  4 15  1  0
  6 16  1  0
M  CHG  2   9  -1  10  -1
M  END
>  <filename_input>  (18) 
7MOI_HPS_docked.sdf

>  <pdb_id>  (18) 
7MOI_HPS

>  <pose_rank>  (18) 
17

>  <num_atoms_heavy>  (18) 
11

>  <num_torsions>  (18) 
2

>  <pose>  (18) 
[5.419230436017878, 11.693788334539105, -2.9434106967260805, 0.5702810362582598, -0.533735982174338, 0.5969815175895415, -1.135985236403749, 0.2635045599103137]

>  <energy>  (18) 
-130.58836800878817

>  <inter_energy>  (18) 
-109.01423686559596

>  <intra_energy>  (18) 
0.03235262366901177

>  <rmsd>  (18) 
9.64142

>  <sdf_rank>  (18) 
0

$$$$

     RDKit          3D

 16 16  0  0  0  0  0  0  0  0999 V2000
    7.8946   14.7588   -6.0538 C   0  0  0  0  0  0  0  0  0  0  0  0
    7.1802   13.6300   -5.6517 C   0  0  0  0  0  0  0  0  0  0  0  0
    7.1390   13.2322   -4.3131 C   0  0  0  0  0  0  0  0  0  0  0  0
    7.8172   13.9775   -3.3666 C   0  0  0  0  0  0  0  0  0  0  0  0
    8.5351   15.1053   -3.7640 C   0  0  0  0  0  0  0  0  0  0  0  0
    8.5747   15.4984   -5.0997 C   0  0  0  0  0  0  0  0  0  0  0  0
    9.2631   15.9087   -2.8506 O   0  0  0  0  0  0  0  0  0  0  0  0
    8.7492   17.1829   -2.0762 P   0  0  1  0  0  0  0  0  0  0  0  0
    7.4192   16.6892   -1.5802 O   0  0  0  0  0  0  0  0  0  0  0  0
    9.6139   17.5321   -0.9139 O   0  0  0  0  0  0  0  0  0  0  0  0
    8.5712   18.3440   -2.9985 O   0  0  0  0  0  0  0  0  0  0  0  0
    7.9177   15.0572   -7.1123 H   0  0  0  0  0  0  0  0  0  0  0  0
    6.6375   13.0402   -6.4051 H   0  0  0  0  0  0  0  0  0  0  0  0
    6.5736   12.3367   -4.0157 H   0  0  0  0  0  0  0  0  0  0  0  0
    7.7908   13.6829   -2.3071 H   0  0  0  0  0  0  0  0  0  0  0  0
    9.1434   16.3922   -5.3958 H   0  0  0  0  0  0  0  0  0  0  0  0
  1  2  2  0
  1  6  1  0
  2  3  1  0
  3  4  2  0
  4  5  1  0
  5  6  2  0
  5  7  1  0
  7  8  1  0
  8  9  1  1
  8 10  1  0
  8 11  2  0
  1 12  1  0
  2 13  1  0
  3 14  1  0
  4 15  1  0
  6 16  1  0
M  CHG  2   9  -1  10  -1
M  END
>  <filename_input>  (19) 
7MOI_HPS_docked.sdf

>  <pdb_id>  (19) 
7MOI_HPS

>  <pose_rank>  (19) 
18

>  <num_atoms_heavy>  (19) 
11

>  <num_torsions>  (19) 
2

>  <pose>  (19) 
[7.894639983901624, 14.758842197306445, -6.053788586687226, -2.242369468249191, -1.812326133608943, -0.19230635140134938, -1.2706623068768157, -2.251855802651628]

>  <energy>  (19) 
-129.65218071319313

>  <inter_energy>  (19) 
-110.49950307507521

>  <intra_energy>  (19) 
3.354310857613433

>  <rmsd>  (19) 
10.4553

>  <sdf_rank>  (19) 
0

$$$$

     RDKit          3D

 16 16  0  0  0  0  0  0  0  0999 V2000
    9.4292   14.5939    5.2990 C   0  0  0  0  0  0  0  0  0  0  0  0
   10.3716   14.0385    4.4331 C   0  0  0  0  0  0  0  0  0  0  0  0
   11.7423   14.1505    4.6788 C   0  0  0  0  0  0  0  0  0  0  0  0
   12.1726   14.8222    5.8078 C   0  0  0  0  0  0  0  0  0  0  0  0
   11.2344   15.3815    6.6752 C   0  0  0  0  0  0  0  0  0  0  0  0
    9.8686   15.2686    6.4265 C   0  0  0  0  0  0  0  0  0  0  0  0
   11.6037   16.0938    7.8440 O   0  0  0  0  0  0  0  0  0  0  0  0
   12.1343   15.4940    9.2027 P   0  0  1  0  0  0  0  0  0  0  0  0
   12.6796   16.7313    9.8588 O   0  0  0  0  0  0  0  0  0  0  0  0
   11.0413   14.9276   10.0424 O   0  0  0  0  0  0  0  0  0  0  0  0
   13.2216   14.4972    8.9686 O   0  0  0  0  0  0  0  0  0  0  0  0
    8.3536   14.4976    5.0897 H   0  0  0  0  0  0  0  0  0  0  0  0
   10.0279   13.5005    3.5372 H   0  0  0  0  0  0  0  0  0  0  0  0
   12.4704   13.7094    3.9822 H   0  0  0  0  0  0  0  0  0  0  0  0
   13.2478   14.9150    6.0208 H   0  0  0  0  0  0  0  0  0  0  0  0
    9.1419   15.7133    7.1223 H   0  0  0  0  0  0  0  0  0  0  0  0
  1  2  2  0
  1  6  1  0
  2  3  1  0
  3  4  2  0
  4  5  1  0
  5  6  2  0
  5  7  1  0
  7  8  1  0
  8  9  1  1
  8 10  1  0
  8 11  2  0
  1 12  1  0
  2 13  1  0
  3 14  1  0
  4 15  1  0
  6 16  1  0
M  CHG  2   9  -1  10  -1
M  END
>  <filename_input>  (20) 
7MOI_HPS_docked.sdf

>  <pdb_id>  (20) 
7MOI_HPS

>  <pose_rank>  (20) 
19

>  <num_atoms_heavy>  (20) 
11

>  <num_torsions>  (20) 
2

>  <pose>  (20) 
[9.42919732739177, 14.593897285211723, 5.298964690227564, -0.003957851975520732, -1.7678740297463222, 0.24522058025747479, -0.9859013677620515, -0.17274011439828102]

>  <energy>  (20) 
-78.12968303299348

>  <inter_energy>  (20) 
-81.28263222939776

>  <intra_energy>  (20) 
1.9345149397866641

>  <rmsd>  (20) 
10.8749

>  <sdf_rank>  (20) 
0

$$$$

     RDKit          3D

 16 16  0  0  0  0  0  0  0  0999 V2000
   19.1207   -1.3953    6.4950 C   0  0  0  0  0  0  0  0  0  0  0  0
   18.8779   -0.5952    7.6118 C   0  0  0  0  0  0  0  0  0  0  0  0
   19.7034    0.4871    7.9263 C   0  0  0  0  0  0  0  0  0  0  0  0
   20.7811    0.7734    7.1090 C   0  0  0  0  0  0  0  0  0  0  0  0
   21.0295   -0.0252    5.9929 C   0  0  0  0  0  0  0  0  0  0  0  0
   20.2048   -1.1040    5.6829 C   0  0  0  0  0  0  0  0  0  0  0  0
   22.1221    0.2022    5.1186 O   0  0  0  0  0  0  0  0  0  0  0  0
   22.0869    0.2847    3.5440 P   0  0  1  0  0  0  0  0  0  0  0  0
   20.9083    1.1944    3.3395 O   0  0  0  0  0  0  0  0  0  0  0  0
   23.3095    0.9214    2.9780 O   0  0  0  0  0  0  0  0  0  0  0  0
   21.8320   -1.0552    2.9355 O   0  0  0  0  0  0  0  0  0  0  0  0
   18.4614   -2.2447    6.2627 H   0  0  0  0  0  0  0  0  0  0  0  0
   18.0176   -0.8215    8.2589 H   0  0  0  0  0  0  0  0  0  0  0  0
   19.4984    1.1041    8.8135 H   0  0  0  0  0  0  0  0  0  0  0  0
   21.4382    1.6254    7.3376 H   0  0  0  0  0  0  0  0  0  0  0  0
   20.4133   -1.7221    4.7972 H   0  0  0  0  0  0  0  0  0  0  0  0
  1  2  2  0
  1  6  1  0
  2  3  1  0
  3  4  2  0
  4  5  1  0
  5  6  2  0
  5  7  1  0
  7  8  1  0
  8  9  1  1
  8 10  1  0
  8 11  2  0
  1 12  1  0
  2 13  1  0
  3 14  1  0
  4 15  1  0
  6 16  1  0
M  CHG  2   9  -1  10  -1
M  END
>  <filename_input>  (21) 
7MOI_HPS_docked.sdf

>  <pdb_id>  (21) 
7MOI_HPS

>  <pose_rank>  (21) 
20

>  <num_atoms_heavy>  (21) 
11

>  <num_torsions>  (21) 
2

>  <pose>  (21) 
[19.120675426385926, -1.395347097957051, 6.4949799714762255, -2.918262035124158, -0.9804301350075918, 2.162872252871107, -1.9559884785238781, -2.2438640886390506]

>  <energy>  (21) 
-123.93730622307879

>  <inter_energy>  (21) 
-102.10489459963041

>  <intra_energy>  (21) 
6.728802239355615

>  <rmsd>  (21) 
12.2207

>  <sdf_rank>  (21) 
0

$$$$

     RDKit          3D

 16 16  0  0  0  0  0  0  0  0999 V2000
   21.2742    0.7197    3.0798 C   0  0  0  0  0  0  0  0  0  0  0  0
   22.5007    0.2488    3.5492 C   0  0  0  0  0  0  0  0  0  0  0  0
   22.7396    0.0728    4.9144 C   0  0  0  0  0  0  0  0  0  0  0  0
   21.7360    0.3672    5.8184 C   0  0  0  0  0  0  0  0  0  0  0  0
   20.5090    0.8408    5.3542 C   0  0  0  0  0  0  0  0  0  0  0  0
   20.2747    1.0159    3.9924 C   0  0  0  0  0  0  0  0  0  0  0  0
   19.4401    1.1741    6.2238 O   0  0  0  0  0  0  0  0  0  0  0  0
   18.8434    0.2934    7.3882 P   0  0  1  0  0  0  0  0  0  0  0  0
   18.6550   -1.0171    6.6770 O   0  0  0  0  0  0  0  0  0  0  0  0
   19.8006    0.1131    8.5159 O   0  0  0  0  0  0  0  0  0  0  0  0
   17.5326    0.8319    7.8595 O   0  0  0  0  0  0  0  0  0  0  0  0
   21.1034    0.8538    2.0015 H   0  0  0  0  0  0  0  0  0  0  0  0
   23.2971    0.0109    2.8287 H   0  0  0  0  0  0  0  0  0  0  0  0
   23.7147   -0.2956    5.2658 H   0  0  0  0  0  0  0  0  0  0  0  0
   21.9040    0.2289    6.8966 H   0  0  0  0  0  0  0  0  0  0  0  0
   19.3002    1.3877    3.6429 H   0  0  0  0  0  0  0  0  0  0  0  0
  1  2  2  0
  1  6  1  0
  2  3  1  0
  3  4  2  0
  4  5  1  0
  5  6  2  0
  5  7  1  0
  7  8  1  0
  8  9  1  6
  8 10  1  0
  8 11  2  0
  1 12  1  0
  2 13  1  0
  3 14  1  0
  4 15  1  0
  6 16  1  0
M  CHG  2   9  -1  10  -1
M  END
>  <filename_input>  (22) 
7MOI_HPS_docked.sdf

>  <pdb_id>  (22) 
7MOI_HPS

>  <pose_rank>  (22) 
21

>  <num_atoms_heavy>  (22) 
11

>  <num_torsions>  (22) 
2

>  <pose>  (22) 
[21.27423156231908, 0.7197117935648728, 3.0797906369957935, 0.10406237759704753, -3.0005977768078127, -0.08008963957265712, -0.546304663031214, 2.370094171096436]

>  <energy>  (22) 
-122.78311171824039

>  <inter_energy>  (22) 
-104.89407519260936

>  <intra_energy>  (22) 
2.5881422826132905

>  <rmsd>  (22) 
12.5344

>  <sdf_rank>  (22) 
0

$$$$

     RDKit          3D

 16 16  0  0  0  0  0  0  0  0999 V2000
    7.8550   14.5917    0.4002 C   0  0  0  0  0  0  0  0  0  0  0  0
    6.5811   14.0247    0.4455 C   0  0  0  0  0  0  0  0  0  0  0  0
    6.0224   13.3977   -0.6710 C   0  0  0  0  0  0  0  0  0  0  0  0
    6.7512   13.3340   -1.8441 C   0  0  0  0  0  0  0  0  0  0  0  0
    8.0241   13.9018   -1.8951 C   0  0  0  0  0  0  0  0  0  0  0  0
    8.5775   14.5269   -0.7802 C   0  0  0  0  0  0  0  0  0  0  0  0
    8.8221   13.8844   -3.0667 O   0  0  0  0  0  0  0  0  0  0  0  0
    9.2735   15.1209   -3.9356 P   0  0  1  0  0  0  0  0  0  0  0  0
    9.1586   14.5453   -5.3191 O   0  0  0  0  0  0  0  0  0  0  0  0
    8.3479   16.2810   -3.8022 O   0  0  0  0  0  0  0  0  0  0  0  0
   10.6856   15.5063   -3.6393 O   0  0  0  0  0  0  0  0  0  0  0  0
    8.2794   15.0829    1.2883 H   0  0  0  0  0  0  0  0  0  0  0  0
    6.0039   14.0723    1.3807 H   0  0  0  0  0  0  0  0  0  0  0  0
    5.0147   12.9600   -0.6173 H   0  0  0  0  0  0  0  0  0  0  0  0
    6.3298   12.8388   -2.7313 H   0  0  0  0  0  0  0  0  0  0  0  0
    9.5840   14.9672   -0.8366 H   0  0  0  0  0  0  0  0  0  0  0  0
  1  2  2  0
  1  6  1  0
  2  3  1  0
  3  4  2  0
  4  5  1  0
  5  6  2  0
  5  7  1  0
  7  8  1  0
  8  9  1  6
  8 10  1  0
  8 11  2  0
  1 12  1  0
  2 13  1  0
  3 14  1  0
  4 15  1  0
  6 16  1  0
M  CHG  2   9  -1  10  -1
M  END
>  <filename_input>  (23) 
7MOI_HPS_docked.sdf

>  <pdb_id>  (23) 
7MOI_HPS

>  <pose_rank>  (23) 
22

>  <num_atoms_heavy>  (23) 
11

>  <num_torsions>  (23) 
2

>  <pose>  (23) 
[7.855010085794281, 14.59174805598418, 0.4002497364923493, 4.170619014449974, -3.8410591894573316, 0.7022284605088429, 2.3194317471773864, 0.7570494111113443]

>  <energy>  (23) 
-81.97059274675945

>  <inter_energy>  (23) 
-78.09637153183394

>  <intra_energy>  (23) 
0.28968555685336944

>  <rmsd>  (23) 
8.74809

>  <sdf_rank>  (23) 
0

$$$$

     RDKit          3D

 16 16  0  0  0  0  0  0  0  0999 V2000
    9.6148    6.2936    2.0339 C   0  0  0  0  0  0  0  0  0  0  0  0
    8.7614    5.4389    1.3355 C   0  0  0  0  0  0  0  0  0  0  0  0
    8.8474    5.2968   -0.0516 C   0  0  0  0  0  0  0  0  0  0  0  0
    9.8031    6.0154   -0.7454 C   0  0  0  0  0  0  0  0  0  0  0  0
   10.6568    6.8732   -0.0522 C   0  0  0  0  0  0  0  0  0  0  0  0
   10.5676    7.0131    1.3308 C   0  0  0  0  0  0  0  0  0  0  0  0
   11.6510    7.6493   -0.6995 O   0  0  0  0  0  0  0  0  0  0  0  0
   13.2136    7.5569   -0.5065 P   0  0  1  0  0  0  0  0  0  0  0  0
   13.4250    8.6010    0.5536 O   0  0  0  0  0  0  0  0  0  0  0  0
   13.6475    6.2288    0.0113 O   0  0  0  0  0  0  0  0  0  0  0  0
   13.9382    7.9226   -1.7602 O   0  0  0  0  0  0  0  0  0  0  0  0
    9.5326    6.3947    3.1261 H   0  0  0  0  0  0  0  0  0  0  0  0
    8.0042    4.8644    1.8893 H   0  0  0  0  0  0  0  0  0  0  0  0
    8.1629    4.6211   -0.5853 H   0  0  0  0  0  0  0  0  0  0  0  0
    9.8895    5.9114   -1.8371 H   0  0  0  0  0  0  0  0  0  0  0  0
   11.2506    7.6919    1.8625 H   0  0  0  0  0  0  0  0  0  0  0  0
  1  2  2  0
  1  6  1  0
  2  3  1  0
  3  4  2  0
  4  5  1  0
  5  6  2  0
  5  7  1  0
  7  8  1  0
  8  9  1  1
  8 10  1  0
  8 11  2  0
  1 12  1  0
  2 13  1  0
  3 14  1  0
  4 15  1  0
  6 16  1  0
M  CHG  2   9  -1  10  -1
M  END
>  <filename_input>  (24) 
7MOI_HPS_docked.sdf

>  <pdb_id>  (24) 
7MOI_HPS

>  <pose_rank>  (24) 
23

>  <num_atoms_heavy>  (24) 
11

>  <num_torsions>  (24) 
2

>  <pose>  (24) 
[9.614837213926874, 6.293605645363119, 2.033857532802303, -4.223620484531672, -9.312148154586652, 49.54461590138636, -26.847325076343605, -17.25313252105748]

>  <energy>  (24) 
-177.66415875058908

>  <inter_energy>  (24) 
-175.98801314645482

>  <intra_energy>  (24) 
2.4824086542285557

>  <rmsd>  (24) 
3.767

>  <sdf_rank>  (24) 
0

$$$$

     RDKit          3D

 16 16  0  0  0  0  0  0  0  0999 V2000
    6.0165   14.0167   -2.1178 C   0  0  0  0  0  0  0  0  0  0  0  0
    4.9516   14.1659   -3.0068 C   0  0  0  0  0  0  0  0  0  0  0  0
    5.1638   14.4720   -4.3533 C   0  0  0  0  0  0  0  0  0  0  0  0
    6.4581   14.6250   -4.8145 C   0  0  0  0  0  0  0  0  0  0  0  0
    7.5258   14.4795   -3.9291 C   0  0  0  0  0  0  0  0  0  0  0  0
    7.3104   14.1751   -2.5871 C   0  0  0  0  0  0  0  0  0  0  0  0
    8.8770   14.6342   -4.3294 O   0  0  0  0  0  0  0  0  0  0  0  0
    9.6957   15.9781   -4.4358 P   0  0  1  0  0  0  0  0  0  0  0  0
   11.0877   15.4773   -4.1709 O   0  0  0  0  0  0  0  0  0  0  0  0
    9.6348   16.5775   -5.7987 O   0  0  0  0  0  0  0  0  0  0  0  0
    9.2766   16.9540   -3.3859 O   0  0  0  0  0  0  0  0  0  0  0  0
    5.8315   13.7769   -1.0603 H   0  0  0  0  0  0  0  0  0  0  0  0
    3.9225   14.0397   -2.6395 H   0  0  0  0  0  0  0  0  0  0  0  0
    4.3113   14.5899   -5.0383 H   0  0  0  0  0  0  0  0  0  0  0  0
    6.6445   14.8600   -5.8728 H   0  0  0  0  0  0  0  0  0  0  0  0
    8.1640   14.0610   -1.9027 H   0  0  0  0  0  0  0  0  0  0  0  0
  1  2  2  0
  1  6  1  0
  2  3  1  0
  3  4  2  0
  4  5  1  0
  5  6  2  0
  5  7  1  0
  7  8  1  0
  8  9  1  1
  8 10  1  0
  8 11  2  0
  1 12  1  0
  2 13  1  0
  3 14  1  0
  4 15  1  0
  6 16  1  0
M  CHG  2   9  -1  10  -1
M  END
>  <filename_input>  (25) 
7MOI_HPS_docked.sdf

>  <pdb_id>  (25) 
7MOI_HPS

>  <pose_rank>  (25) 
24

>  <num_atoms_heavy>  (25) 
11

>  <num_torsions>  (25) 
2

>  <pose>  (25) 
[6.0164666092047305, 14.016672269489218, -2.1178144747146, -3.6001888152641435, 1.6997810661615627, 4.172105102976455, 1.8069159843468117, -0.42032665966818616]

>  <energy>  (25) 
-118.16971837791922

>  <inter_energy>  (25) 
-110.94213185393964

>  <intra_energy>  (25) 
0.320821866567339

>  <rmsd>  (25) 
9.98634

>  <sdf_rank>  (25) 
0

$$$$

     RDKit          3D

 16 16  0  0  0  0  0  0  0  0999 V2000
   13.0580    8.4640    2.5660 C   0  0  0  0  0  0  0  0  0  0  0  0
   11.9440    7.9420    1.9080 C   0  0  0  0  0  0  0  0  0  0  0  0
   11.9060    7.8300    0.5160 C   0  0  0  0  0  0  0  0  0  0  0  0
   12.9990    8.2410   -0.2240 C   0  0  0  0  0  0  0  0  0  0  0  0
   14.1140    8.7660    0.4290 C   0  0  0  0  0  0  0  0  0  0  0  0
   14.1480    8.8770    1.8170 C   0  0  0  0  0  0  0  0  0  0  0  0
   15.2640    9.2180   -0.2660 O   0  0  0  0  0  0  0  0  0  0  0  0
   15.6900    8.8650   -1.7430 P   0  0  1  0  0  0  0  0  0  0  0  0
   16.9010    9.7410   -1.9000 O   0  0  0  0  0  0  0  0  0  0  0  0
   16.0870    7.4370   -1.8970 O   0  0  0  0  0  0  0  0  0  0  0  0
   14.6290    9.2500   -2.7210 O   0  0  0  0  0  0  0  0  0  0  0  0
   13.0708    8.5464    3.6628 H   0  0  0  0  0  0  0  0  0  0  0  0
   11.0766    7.6114    2.4982 H   0  0  0  0  0  0  0  0  0  0  0  0
   11.0170    7.4197    0.0147 H   0  0  0  0  0  0  0  0  0  0  0  0
   12.9894    8.1545   -1.3206 H   0  0  0  0  0  0  0  0  0  0  0  0
   15.0365    9.2908    2.3164 H   0  0  0  0  0  0  0  0  0  0  0  0
  1  2  2  0
  1  6  1  0
  2  3  1  0
  3  4  2  0
  4  5  1  0
  5  6  2  0
  5  7  1  0
  7  8  1  0
  8  9  1  6
  8 10  1  0
  8 11  2  0
  1 12  1  0
  2 13  1  0
  3 14  1  0
  4 15  1  0
  6 16  1  0
M  CHG  2   9  -1  10  -1
M  END
>  <filename_input>  (26) 
7MOI_HPS_docked.sdf

>  <pdb_id>  (26) 
7MOI_HPS

>  <pose_rank>  (26) 
25

>  <num_atoms_heavy>  (26) 
11

>  <num_torsions>  (26) 
2

>  <pose>  (26) 
[13.058, 8.464, 2.566, 1e-06, 1e-06, 1e-06, 0.0, 0.0]

>  <energy>  (26) 
-450.66879943358015

>  <inter_energy>  (26) 
-461.7841047083454

>  <intra_energy>  (26) 
6.128749678269953

>  <rmsd>  (26) 
0.0

>  <sdf_rank>  (26) 
0

$$$$
