
     RDKit          3D

 79 81  0  0  0  0  0  0  0  0999 V2000
   19.2268   21.6904   13.3097 N   0  0  0  0  0  0  0  0  0  0  0  0
   19.5967   21.5870   14.5910 C   0  0  0  0  0  0  0  0  0  0  0  0
   18.8388   21.6624   15.6890 N   0  0  0  0  0  0  0  0  0  0  0  0
   17.5567   21.8740   15.3780 C   0  0  0  0  0  0  0  0  0  0  0  0
   17.0167   22.0041   14.1068 C   0  0  0  0  0  0  0  0  0  0  0  0
   17.9219   21.8957   13.0308 C   0  0  0  0  0  0  0  0  0  0  0  0
   17.5112   21.9914   11.7530 N   0  0  0  0  0  0  0  0  0  0  0  0
   15.6559   22.2195   14.1728 N   0  0  0  0  0  0  0  0  0  0  0  0
   15.3935   22.2116   15.4537 C   0  0  0  0  0  0  0  0  0  0  0  0
   16.4967   22.0057   16.2447 N   0  0  0  0  0  0  0  0  0  0  0  0
   16.5633   21.9478   17.6957 C   0  0  1  0  0  0  0  0  0  0  0  0
   15.3223   22.4367   18.4333 C   0  0  2  0  0  0  0  0  0  0  0  0
   15.3312   23.8568   18.4975 O   0  0  0  0  0  0  0  0  0  0  0  0
   15.5550   21.7905   19.7987 C   0  0  2  0  0  0  0  0  0  0  0  0
   16.3837   22.6757   20.5786 O   0  0  0  0  0  0  0  0  0  0  0  0
   16.0039   23.2500   22.0135 P   0  0  1  0  0  0  0  0  0  0  0  0
   16.5375   22.3665   23.0927 O   0  0  0  0  0  0  0  0  0  0  0  0
   16.5709   24.6711   22.0697 O   0  0  0  0  0  0  0  0  0  0  0  0
   14.4714   23.3298   22.0247 O   0  0  0  0  0  0  0  0  0  0  0  0
   16.3733   20.5264   19.4903 C   0  0  2  0  0  0  0  0  0  0  0  0
   16.7183   20.6022   18.0907 O   0  0  0  0  0  0  0  0  0  0  0  0
   15.6416   19.2380   19.7676 C   0  0  0  0  0  0  0  0  0  0  0  0
   15.4471   19.1400   21.1861 O   0  0  0  0  0  0  0  0  0  0  0  0
   14.3961   18.1405   21.8245 P   0  0  2  0  0  0  0  0  0  0  0  0
   13.0229   18.4280   21.3640 O   0  0  0  0  0  0  0  0  0  0  0  0
   14.6592   18.1457   23.3306 O   0  0  0  0  0  0  0  0  0  0  0  0
   14.8818   16.7359   21.2601 O   0  0  0  0  0  0  0  0  0  0  0  0
   14.7786   15.2274   21.7528 P   0  0  2  0  0  0  0  0  0  0  0  0
   13.5485   14.9683   22.5162 O   0  0  0  0  0  0  0  0  0  0  0  0
   16.1393   14.8724   22.4193 O   0  0  0  0  0  0  0  0  0  0  0  0
   14.6789   14.4073   20.4048 O   0  0  0  0  0  0  0  0  0  0  0  0
   14.7818   12.3120   19.1961 C   0  0  2  0  0  0  0  0  0  0  0  0
   15.5048   13.2673   20.1409 C   0  0  0  0  0  0  0  0  0  0  0  0
   15.6065   12.1490   17.9090 C   0  0  0  0  0  0  0  0  0  0  0  0
   13.3976   12.8835   18.8457 C   0  0  0  0  0  0  0  0  0  0  0  0
   14.6230   10.9266   19.8741 C   0  0  1  0  0  0  0  0  0  0  0  0
   13.2528   10.6292   20.1035 O   0  0  0  0  0  0  0  0  0  0  0  0
   15.2934    9.7641   19.1525 C   0  0  0  0  0  0  0  0  0  0  0  0
   16.5122    9.6366   19.1871 O   0  0  0  0  0  0  0  0  0  0  0  0
   14.4850    8.9197   18.5118 N   0  0  0  0  0  0  0  0  0  0  0  0
   14.9775    7.7594   17.7821 C   0  0  0  0  0  0  0  0  0  0  0  0
   15.0992    6.5295   18.6747 C   0  0  0  0  0  0  0  0  0  0  0  0
   16.4070    5.8152   18.4706 C   0  0  0  0  0  0  0  0  0  0  0  0
   17.3168    5.8788   19.2933 O   0  0  0  0  0  0  0  0  0  0  0  0
   16.4902    5.1127   17.3438 N   0  0  0  0  0  0  0  0  0  0  0  0
   17.6480    4.2670   17.0848 C   0  0  0  0  0  0  0  0  0  0  0  0
   17.2640    2.9992   16.4413 C   0  0  0  0  0  0  0  0  0  0  0  0
   20.6696   21.4170   14.7642 H   0  0  0  0  0  0  0  0  0  0  0  0
   16.5151   22.1480   11.5426 H   0  0  0  0  0  0  0  0  0  0  0  0
   18.1928   21.9080   10.9853 H   0  0  0  0  0  0  0  0  0  0  0  0
   14.3818   22.3565   15.8602 H   0  0  0  0  0  0  0  0  0  0  0  0
   17.4014   22.6104   17.9575 H   0  0  0  0  0  0  0  0  0  0  0  0
   14.3528   22.1823   17.9802 H   0  0  0  0  0  0  0  0  0  0  0  0
   15.3330   24.1442   19.4449 H   0  0  0  0  0  0  0  0  0  0  0  0
   14.6205   21.5806   20.3397 H   0  0  0  0  0  0  0  0  0  0  0  0
   17.2526   20.5036   20.1509 H   0  0  0  0  0  0  0  0  0  0  0  0
   14.6678   19.2432   19.2559 H   0  0  0  0  0  0  0  0  0  0  0  0
   16.2224   18.3795   19.3994 H   0  0  0  0  0  0  0  0  0  0  0  0
   16.4455   13.5977   19.6763 H   0  0  0  0  0  0  0  0  0  0  0  0
   15.7201   12.7485   21.0866 H   0  0  0  0  0  0  0  0  0  0  0  0
   16.6551   11.9417   18.1691 H   0  0  0  0  0  0  0  0  0  0  0  0
   15.2032   11.3132   17.3184 H   0  0  0  0  0  0  0  0  0  0  0  0
   15.5515   13.0754   17.3184 H   0  0  0  0  0  0  0  0  0  0  0  0
   12.8491   13.1099   19.7720 H   0  0  0  0  0  0  0  0  0  0  0  0
   13.5195   13.8049   18.2573 H   0  0  0  0  0  0  0  0  0  0  0  0
   12.8340   12.1445   18.2573 H   0  0  0  0  0  0  0  0  0  0  0  0
   15.1605   11.0270   20.8285 H   0  0  0  0  0  0  0  0  0  0  0  0
   13.0819   10.5920   21.0779 H   0  0  0  0  0  0  0  0  0  0  0  0
   13.4703    9.0950   18.5338 H   0  0  0  0  0  0  0  0  0  0  0  0
   14.2804    7.5345   16.9614 H   0  0  0  0  0  0  0  0  0  0  0  0
   15.9802    8.0006   17.3993 H   0  0  0  0  0  0  0  0  0  0  0  0
   15.0264    6.8446   19.7261 H   0  0  0  0  0  0  0  0  0  0  0  0
   14.2872    5.8357   18.4114 H   0  0  0  0  0  0  0  0  0  0  0  0
   15.7310    5.1670   16.6499 H   0  0  0  0  0  0  0  0  0  0  0  0
   18.3424    4.8062   16.4238 H   0  0  0  0  0  0  0  0  0  0  0  0
   18.1231    4.0319   18.0487 H   0  0  0  0  0  0  0  0  0  0  0  0
   17.0371    2.2498   17.2139 H   0  0  0  0  0  0  0  0  0  0  0  0
   16.3745    3.1607   15.8147 H   0  0  0  0  0  0  0  0  0  0  0  0
   18.0937    2.6401   15.8147 H   0  0  0  0  0  0  0  0  0  0  0  0
  1  2  2  0
  1  6  1  0
  2  3  1  0
  3  4  2  0
  4  5  1  0
  4 10  1  0
  5  6  2  0
  5  8  1  0
  6  7  1  0
  8  9  2  0
  9 10  1  0
 11 10  1  0
 11 12  1  0
 11 21  1  0
 12 13  1  0
 12 14  1  0
 14 15  1  0
 14 20  1  0
 15 16  1  0
 16 17  2  0
 16 18  1  1
 16 19  1  0
 20 21  1  0
 20 22  1  0
 22 23  1  0
 23 24  1  0
 24 25  2  0
 24 26  1  1
 24 27  1  0
 27 28  1  0
 28 29  2  0
 28 30  1  1
 28 31  1  0
 31 33  1  0
 32 33  1  1
 32 34  1  0
 32 35  1  0
 32 36  1  0
 36 37  1  0
 36 38  1  0
 38 39  2  0
 38 40  1  0
 40 41  1  0
 41 42  1  0
 42 43  1  0
 43 44  2  0
 43 45  1  0
 45 46  1  0
 46 47  1  0
  2 48  1  0
  7 49  1  0
  7 50  1  0
  9 51  1  0
 11 52  1  1
 12 53  1  6
 13 54  1  0
 14 55  1  1
 20 56  1  1
 22 57  1  0
 22 58  1  0
 33 59  1  0
 33 60  1  0
 34 61  1  0
 34 62  1  0
 34 63  1  0
 35 64  1  0
 35 65  1  0
 35 66  1  0
 36 67  1  1
 37 68  1  0
 40 69  1  0
 41 70  1  0
 41 71  1  0
 42 72  1  0
 42 73  1  0
 45 74  1  0
 46 75  1  0
 46 76  1  0
 47 77  1  0
 47 78  1  0
 47 79  1  0
M  CHG  4  18  -1  19  -1  26  -1  30  -1
M  END
>  <filename_input>  (1) 
7MSR_DCA_docked.sdf

>  <pdb_id>  (1) 
7MSR_DCA

>  <pose_rank>  (1) 
0

>  <num_atoms_heavy>  (1) 
47

>  <num_torsions>  (1) 
17

>  <pose>  (1) 
[14.396059294017993, 18.14047330792758, 21.82449513655486, 0.03801410819234668, -0.04378031634074673, 0.3819901787025776, 1.0394315263491696, -0.706594386059352, 1.2395763385590786, 0.07517463908218865, -3.113195268842206, 0.9804675586066846, -3.429373964015755, 0.17783319759667127, 0.9105808492197708, 2.470934635834665, 4.0164836901806575, -6.534784745845526, 0.37261004980030993, 0.08521121765861879, 0.17896662852511758, 0.4928615131031945, 0.6738128439747588]

>  <energy>  (1) 
-1134.1667955767252

>  <inter_energy>  (1) 
-1146.4370180545518

>  <intra_energy>  (1) 
16.416066346625904

>  <rmsd>  (1) 
1.3145

>  <sdf_rank>  (1) 
0

$$$$

     RDKit          3D

 79 81  0  0  0  0  0  0  0  0999 V2000
   14.3292    6.3897   18.7712 N   0  0  0  0  0  0  0  0  0  0  0  0
   13.2445    7.0383   19.2091 C   0  0  0  0  0  0  0  0  0  0  0  0
   13.0695    8.3514   19.3851 N   0  0  0  0  0  0  0  0  0  0  0  0
   14.1719    9.0338   19.0618 C   0  0  0  0  0  0  0  0  0  0  0  0
   15.3700    8.5121   18.5962 C   0  0  0  0  0  0  0  0  0  0  0  0
   15.4229    7.1109   18.4452 C   0  0  0  0  0  0  0  0  0  0  0  0
   16.5278    6.4934   17.9883 N   0  0  0  0  0  0  0  0  0  0  0  0
   16.2873    9.5174   18.3720 N   0  0  0  0  0  0  0  0  0  0  0  0
   15.6463   10.6112   18.6917 C   0  0  0  0  0  0  0  0  0  0  0  0
   14.3586   10.3955   19.1167 N   0  0  0  0  0  0  0  0  0  0  0  0
   13.3800   11.3784   19.5522 C   0  0  1  0  0  0  0  0  0  0  0  0
   13.4515   11.7742   21.0223 C   0  0  2  0  0  0  0  0  0  0  0  0
   12.8034   10.7890   21.8161 O   0  0  0  0  0  0  0  0  0  0  0  0
   12.6756   13.0903   20.9793 C   0  0  2  0  0  0  0  0  0  0  0  0
   11.2723   12.7885   21.1150 O   0  0  0  0  0  0  0  0  0  0  0  0
   10.1592   13.8249   21.5837 P   0  0  1  0  0  0  0  0  0  0  0  0
   10.5450   14.4630   22.8776 O   0  0  0  0  0  0  0  0  0  0  0  0
   10.0056   14.8337   20.4423 O   0  0  0  0  0  0  0  0  0  0  0  0
    8.8659   13.0065   21.6958 O   0  0  0  0  0  0  0  0  0  0  0  0
   12.9084   13.6266   19.5577 C   0  0  2  0  0  0  0  0  0  0  0  0
   13.5909   12.5773   18.8389 O   0  0  0  0  0  0  0  0  0  0  0  0
   13.7212   14.8950   19.5049 C   0  0  0  0  0  0  0  0  0  0  0  0
   14.5627   14.9258   20.6671 O   0  0  0  0  0  0  0  0  0  0  0  0
   14.9484   16.2815   21.3913 P   0  0  2  0  0  0  0  0  0  0  0  0
   16.0385   16.9841   20.6855 O   0  0  0  0  0  0  0  0  0  0  0  0
   15.1596   15.9353   22.8654 O   0  0  0  0  0  0  0  0  0  0  0  0
   13.5988   17.1151   21.2856 O   0  0  0  0  0  0  0  0  0  0  0  0
   13.1319   18.5651   21.7420 P   0  0  2  0  0  0  0  0  0  0  0  0
   13.5731   18.8944   23.1058 O   0  0  0  0  0  0  0  0  0  0  0  0
   11.6137   18.6768   21.4194 O   0  0  0  0  0  0  0  0  0  0  0  0
   13.9024   19.5271   20.7517 O   0  0  0  0  0  0  0  0  0  0  0  0
   15.0206   21.6733   20.6784 C   0  0  2  0  0  0  0  0  0  0  0  0
   15.0971   20.2190   21.1331 C   0  0  0  0  0  0  0  0  0  0  0  0
   14.7015   22.5678   21.8873 C   0  0  0  0  0  0  0  0  0  0  0  0
   13.9108   21.8257   19.6244 C   0  0  0  0  0  0  0  0  0  0  0  0
   16.3822   22.1049   20.0751 C   0  0  1  0  0  0  0  0  0  0  0  0
   17.4592   21.4695   20.7496 O   0  0  0  0  0  0  0  0  0  0  0  0
   16.5232   21.9089   18.5707 C   0  0  0  0  0  0  0  0  0  0  0  0
   16.1329   22.7754   17.7962 O   0  0  0  0  0  0  0  0  0  0  0  0
   17.0914   20.7706   18.1727 N   0  0  0  0  0  0  0  0  0  0  0  0
   17.2992   20.4436   16.7687 C   0  0  0  0  0  0  0  0  0  0  0  0
   18.3253   21.3603   16.1120 C   0  0  0  0  0  0  0  0  0  0  0  0
   18.1198   21.4583   14.6252 C   0  0  0  0  0  0  0  0  0  0  0  0
   19.0289   21.2405   13.8284 O   0  0  0  0  0  0  0  0  0  0  0  0
   16.8862   21.7884   14.2521 N   0  0  0  0  0  0  0  0  0  0  0  0
   16.5161   21.7881   12.8429 C   0  0  0  0  0  0  0  0  0  0  0  0
   15.9695   23.0894   12.4226 C   0  0  0  0  0  0  0  0  0  0  0  0
   12.3799    6.4056   19.4580 H   0  0  0  0  0  0  0  0  0  0  0  0
   17.3611    7.0457   17.7402 H   0  0  0  0  0  0  0  0  0  0  0  0
   16.5402    5.4685   17.8868 H   0  0  0  0  0  0  0  0  0  0  0  0
   16.0972   11.6124   18.6261 H   0  0  0  0  0  0  0  0  0  0  0  0
   12.4085   10.8942   19.3740 H   0  0  0  0  0  0  0  0  0  0  0  0
   14.4586   11.8656   21.4552 H   0  0  0  0  0  0  0  0  0  0  0  0
   12.9394   10.9957   22.7747 H   0  0  0  0  0  0  0  0  0  0  0  0
   12.9832   13.7964   21.7647 H   0  0  0  0  0  0  0  0  0  0  0  0
   11.9366   13.8912   19.1153 H   0  0  0  0  0  0  0  0  0  0  0  0
   14.3393   14.9057   18.5951 H   0  0  0  0  0  0  0  0  0  0  0  0
   13.0604   15.7742   19.4858 H   0  0  0  0  0  0  0  0  0  0  0  0
   15.2058   20.1838   22.2271 H   0  0  0  0  0  0  0  0  0  0  0  0
   15.9636   19.7355   20.6583 H   0  0  0  0  0  0  0  0  0  0  0  0
   14.8994   22.0129   22.8163 H   0  0  0  0  0  0  0  0  0  0  0  0
   15.3343   23.4669   21.8554 H   0  0  0  0  0  0  0  0  0  0  0  0
   13.6425   22.8634   21.8554 H   0  0  0  0  0  0  0  0  0  0  0  0
   12.9422   21.9587   20.1285 H   0  0  0  0  0  0  0  0  0  0  0  0
   14.1205   22.7035   18.9955 H   0  0  0  0  0  0  0  0  0  0  0  0
   13.8761   20.9239   18.9955 H   0  0  0  0  0  0  0  0  0  0  0  0
   16.4174   23.1930   20.2325 H   0  0  0  0  0  0  0  0  0  0  0  0
   17.3276   21.5471   21.7278 H   0  0  0  0  0  0  0  0  0  0  0  0
   17.3960   20.0945   18.8876 H   0  0  0  0  0  0  0  0  0  0  0  0
   17.6533   19.4047   16.6952 H   0  0  0  0  0  0  0  0  0  0  0  0
   16.3414   20.5769   16.2446 H   0  0  0  0  0  0  0  0  0  0  0  0
   18.2363   22.3652   16.5503 H   0  0  0  0  0  0  0  0  0  0  0  0
   19.3245   20.9366   16.2907 H   0  0  0  0  0  0  0  0  0  0  0  0
   16.1880   22.0458   14.9643 H   0  0  0  0  0  0  0  0  0  0  0  0
   17.4088   21.5651   12.2401 H   0  0  0  0  0  0  0  0  0  0  0  0
   15.7381   21.0250   12.6930 H   0  0  0  0  0  0  0  0  0  0  0  0
   15.7187   23.6863   13.3119 H   0  0  0  0  0  0  0  0  0  0  0  0
   16.7187   23.6248   11.8210 H   0  0  0  0  0  0  0  0  0  0  0  0
   15.0626   22.9290   11.8210 H   0  0  0  0  0  0  0  0  0  0  0  0
  1  2  2  0
  1  6  1  0
  2  3  1  0
  3  4  2  0
  4  5  1  0
  4 10  1  0
  5  6  2  0
  5  8  1  0
  6  7  1  0
  8  9  2  0
  9 10  1  0
 11 10  1  0
 11 12  1  0
 11 21  1  0
 12 13  1  0
 12 14  1  0
 14 15  1  0
 14 20  1  0
 15 16  1  0
 16 17  2  0
 16 18  1  6
 16 19  1  0
 20 21  1  0
 20 22  1  0
 22 23  1  0
 23 24  1  0
 24 25  2  0
 24 26  1  1
 24 27  1  0
 27 28  1  0
 28 29  2  0
 28 30  1  1
 28 31  1  0
 31 33  1  0
 32 33  1  1
 32 34  1  0
 32 35  1  0
 32 36  1  0
 36 37  1  0
 36 38  1  0
 38 39  2  0
 38 40  1  0
 40 41  1  0
 41 42  1  0
 42 43  1  0
 43 44  2  0
 43 45  1  0
 45 46  1  0
 46 47  1  0
  2 48  1  0
  7 49  1  0
  7 50  1  0
  9 51  1  0
 11 52  1  1
 12 53  1  1
 13 54  1  0
 14 55  1  1
 20 56  1  6
 22 57  1  0
 22 58  1  0
 33 59  1  0
 33 60  1  0
 34 61  1  0
 34 62  1  0
 34 63  1  0
 35 64  1  0
 35 65  1  0
 35 66  1  0
 36 67  1  6
 37 68  1  0
 40 69  1  0
 41 70  1  0
 41 71  1  0
 42 72  1  0
 42 73  1  0
 45 74  1  0
 46 75  1  0
 46 76  1  0
 47 77  1  0
 47 78  1  0
 47 79  1  0
M  CHG  4  18  -1  19  -1  26  -1  30  -1
M  END
>  <filename_input>  (2) 
7MSR_DCA_docked.sdf

>  <pdb_id>  (2) 
7MSR_DCA

>  <pose_rank>  (2) 
1

>  <num_atoms_heavy>  (2) 
47

>  <num_torsions>  (2) 
17

>  <pose>  (2) 
[14.948371306681555, 16.28151466288065, 21.39131235379533, 0.4989375260216166, -0.4624123499946666, 4.139030313429842, 1.5158249035411369, -2.0275471624069716, 3.489227535090455, 1.3539734929340816, -3.3932094932427552, -1.621595459032049, 3.061775433361819, -0.19061539874723013, 0.5506278687066436, -1.5888581550963845, -0.6175531131487899, -0.5930578001429662, 1.248815131334996, 1.7198270421355744, -1.0914314625649582, 1.1063532154626283, -1.8638871525347684]

>  <energy>  (2) 
-842.1154742266083

>  <inter_energy>  (2) 
-868.5913969046184

>  <intra_energy>  (2) 
24.275856946968666

>  <rmsd>  (2) 
11.563

>  <sdf_rank>  (2) 
0

$$$$

     RDKit          3D

 79 81  0  0  0  0  0  0  0  0999 V2000
   15.4619   22.4751   13.5263 N   0  0  0  0  0  0  0  0  0  0  0  0
   14.9103   22.4160   14.7433 C   0  0  0  0  0  0  0  0  0  0  0  0
   15.4817   22.0858   15.9054 N   0  0  0  0  0  0  0  0  0  0  0  0
   16.7733   21.7858   15.7412 C   0  0  0  0  0  0  0  0  0  0  0  0
   17.4885   21.7984   14.5526 C   0  0  0  0  0  0  0  0  0  0  0  0
   16.7716   22.1738   13.3975 C   0  0  0  0  0  0  0  0  0  0  0  0
   17.3636   22.2355   12.1907 N   0  0  0  0  0  0  0  0  0  0  0  0
   18.7995   21.4267   14.7664 N   0  0  0  0  0  0  0  0  0  0  0  0
   18.8622   21.2042   16.0532 C   0  0  0  0  0  0  0  0  0  0  0  0
   17.6726   21.4035   16.7093 N   0  0  0  0  0  0  0  0  0  0  0  0
   17.3896   21.2395   18.1257 C   0  0  1  0  0  0  0  0  0  0  0  0
   16.0976   21.8801   18.6190 C   0  0  2  0  0  0  0  0  0  0  0  0
   16.3020   23.2711   18.8291 O   0  0  0  0  0  0  0  0  0  0  0  0
   15.9070   21.1152   19.9285 C   0  0  2  0  0  0  0  0  0  0  0  0
   16.6530   21.7952   20.9580 O   0  0  0  0  0  0  0  0  0  0  0  0
   16.0156   22.4596   22.2561 P   0  0  1  0  0  0  0  0  0  0  0  0
   16.9963   23.3719   22.9166 O   0  0  0  0  0  0  0  0  0  0  0  0
   14.7485   23.1813   21.7896 O   0  0  0  0  0  0  0  0  0  0  0  0
   15.6107   21.2837   23.1552 O   0  0  0  0  0  0  0  0  0  0  0  0
   16.5777   19.7548   19.6792 C   0  0  2  0  0  0  0  0  0  0  0  0
   17.2468   19.8638   18.4049 O   0  0  0  0  0  0  0  0  0  0  0  0
   15.6186   18.5921   19.6554 C   0  0  0  0  0  0  0  0  0  0  0  0
   15.8831   17.7810   20.8094 O   0  0  0  0  0  0  0  0  0  0  0  0
   14.7198   17.1175   21.6565 P   0  0  2  0  0  0  0  0  0  0  0  0
   13.3895   17.4577   21.1134 O   0  0  0  0  0  0  0  0  0  0  0  0
   15.0031   17.4631   23.1186 O   0  0  0  0  0  0  0  0  0  0  0  0
   15.0093   15.5657   21.4682 O   0  0  0  0  0  0  0  0  0  0  0  0
   15.5337   14.6544   20.2752 P   0  0  2  0  0  0  0  0  0  0  0  0
   16.9650   14.3385   20.3963 O   0  0  0  0  0  0  0  0  0  0  0  0
   15.0404   15.3086   18.9522 O   0  0  0  0  0  0  0  0  0  0  0  0
   14.7346   13.3037   20.4668 O   0  0  0  0  0  0  0  0  0  0  0  0
   13.1105   11.9523   19.2845 C   0  0  2  0  0  0  0  0  0  0  0  0
   13.3428   13.1875   20.1493 C   0  0  0  0  0  0  0  0  0  0  0  0
   13.6348   12.2203   17.8643 C   0  0  0  0  0  0  0  0  0  0  0  0
   11.6052   11.6428   19.2222 C   0  0  0  0  0  0  0  0  0  0  0  0
   13.8722   10.7426   19.8850 C   0  0  1  0  0  0  0  0  0  0  0  0
   13.2012   10.2406   21.0323 O   0  0  0  0  0  0  0  0  0  0  0  0
   14.1636    9.6051   18.9141 C   0  0  0  0  0  0  0  0  0  0  0  0
   13.2514    8.8987   18.4995 O   0  0  0  0  0  0  0  0  0  0  0  0
   15.4370    9.4463   18.5534 N   0  0  0  0  0  0  0  0  0  0  0  0
   15.8694    8.4070   17.6291 C   0  0  0  0  0  0  0  0  0  0  0  0
   16.8752    7.4548   18.2663 C   0  0  0  0  0  0  0  0  0  0  0  0
   16.4448    6.0190   18.1428 C   0  0  0  0  0  0  0  0  0  0  0  0
   17.1142    5.1910   17.5304 O   0  0  0  0  0  0  0  0  0  0  0  0
   15.2986    5.7248   18.7508 N   0  0  0  0  0  0  0  0  0  0  0  0
   14.8339    4.3458   18.8231 C   0  0  0  0  0  0  0  0  0  0  0  0
   13.3694    4.2704   18.9580 C   0  0  0  0  0  0  0  0  0  0  0  0
   13.8422   22.6738   14.7946 H   0  0  0  0  0  0  0  0  0  0  0  0
   18.3629   22.0052   12.0949 H   0  0  0  0  0  0  0  0  0  0  0  0
   16.8174   22.5131   11.3628 H   0  0  0  0  0  0  0  0  0  0  0  0
   19.7834   20.8866   16.5635 H   0  0  0  0  0  0  0  0  0  0  0  0
   18.2324   21.7332   18.6317 H   0  0  0  0  0  0  0  0  0  0  0  0
   15.2337   21.8225   17.9405 H   0  0  0  0  0  0  0  0  0  0  0  0
   16.3294   23.4575   19.8009 H   0  0  0  0  0  0  0  0  0  0  0  0
   14.8516   21.0300   20.2268 H   0  0  0  0  0  0  0  0  0  0  0  0
   17.2653   19.5411   20.5108 H   0  0  0  0  0  0  0  0  0  0  0  0
   14.5827   18.9609   19.6868 H   0  0  0  0  0  0  0  0  0  0  0  0
   15.7499   18.0047   18.7347 H   0  0  0  0  0  0  0  0  0  0  0  0
   12.7626   13.0962   21.0794 H   0  0  0  0  0  0  0  0  0  0  0  0
   13.0205   14.0827   19.5974 H   0  0  0  0  0  0  0  0  0  0  0  0
   14.6129   12.7202   17.9228 H   0  0  0  0  0  0  0  0  0  0  0  0
   13.7421   11.2664   17.3270 H   0  0  0  0  0  0  0  0  0  0  0  0
   12.9246   12.8659   17.3270 H   0  0  0  0  0  0  0  0  0  0  0  0
   11.2053   11.5605   20.2436 H   0  0  0  0  0  0  0  0  0  0  0  0
   11.0860   12.4529   18.6893 H   0  0  0  0  0  0  0  0  0  0  0  0
   11.4478   10.6935   18.6893 H   0  0  0  0  0  0  0  0  0  0  0  0
   14.8559   11.1499   20.1614 H   0  0  0  0  0  0  0  0  0  0  0  0
   13.6489   10.5755   21.8493 H   0  0  0  0  0  0  0  0  0  0  0  0
   16.1442   10.0849   18.9443 H   0  0  0  0  0  0  0  0  0  0  0  0
   14.9898    7.8302   17.3072 H   0  0  0  0  0  0  0  0  0  0  0  0
   16.3604    8.8962   16.7750 H   0  0  0  0  0  0  0  0  0  0  0  0
   17.8476    7.5788   17.7673 H   0  0  0  0  0  0  0  0  0  0  0  0
   16.9446    7.6989   19.3367 H   0  0  0  0  0  0  0  0  0  0  0  0
   14.7360    6.4770   19.1733 H   0  0  0  0  0  0  0  0  0  0  0  0
   15.1348    3.8198   17.9050 H   0  0  0  0  0  0  0  0  0  0  0  0
   15.2844    3.8785   19.7111 H   0  0  0  0  0  0  0  0  0  0  0  0
   13.0997    4.2565   20.0244 H   0  0  0  0  0  0  0  0  0  0  0  0
   12.9111    5.1461   18.4753 H   0  0  0  0  0  0  0  0  0  0  0  0
   13.0035    3.3522   18.4753 H   0  0  0  0  0  0  0  0  0  0  0  0
  1  2  2  0
  1  6  1  0
  2  3  1  0
  3  4  2  0
  4  5  1  0
  4 10  1  0
  5  6  2  0
  5  8  1  0
  6  7  1  0
  8  9  2  0
  9 10  1  0
 11 10  1  0
 11 12  1  0
 11 21  1  0
 12 13  1  0
 12 14  1  0
 14 15  1  0
 14 20  1  0
 15 16  1  0
 16 17  2  0
 16 18  1  6
 16 19  1  0
 20 21  1  0
 20 22  1  0
 22 23  1  0
 23 24  1  0
 24 25  2  0
 24 26  1  1
 24 27  1  0
 27 28  1  0
 28 29  2  0
 28 30  1  6
 28 31  1  0
 31 33  1  0
 32 33  1  1
 32 34  1  0
 32 35  1  0
 32 36  1  0
 36 37  1  0
 36 38  1  0
 38 39  2  0
 38 40  1  0
 40 41  1  0
 41 42  1  0
 42 43  1  0
 43 44  2  0
 43 45  1  0
 45 46  1  0
 46 47  1  0
  2 48  1  0
  7 49  1  0
  7 50  1  0
  9 51  1  0
 11 52  1  1
 12 53  1  6
 13 54  1  0
 14 55  1  1
 20 56  1  1
 22 57  1  0
 22 58  1  0
 33 59  1  0
 33 60  1  0
 34 61  1  0
 34 62  1  0
 34 63  1  0
 35 64  1  0
 35 65  1  0
 35 66  1  0
 36 67  1  1
 37 68  1  0
 40 69  1  0
 41 70  1  0
 41 71  1  0
 42 72  1  0
 42 73  1  0
 45 74  1  0
 46 75  1  0
 46 76  1  0
 47 77  1  0
 47 78  1  0
 47 79  1  0
M  CHG  4  18  -1  19  -1  26  -1  30  -1
M  END
>  <filename_input>  (3) 
7MSR_DCA_docked.sdf

>  <pdb_id>  (3) 
7MSR_DCA

>  <pose_rank>  (3) 
2

>  <num_atoms_heavy>  (3) 
47

>  <num_torsions>  (3) 
17

>  <pose>  (3) 
[14.71976186796078, 17.117501410519537, 21.656487341203494, 3.838466961534327, -0.0010391696326081713, -4.549113029542355, -2.2765207463566326, 0.4744522368915029, 0.24358275142568367, -0.2941946314435384, -0.19581043118684846, 0.29614451469233477, 0.33263173058956397, 2.8265926219146227, -0.8262187325834581, 2.694236755089662, -1.136439635676365, 0.7884157787741464, -0.03195521011950105, -0.6992081237903378, 3.2723008886108422, -5.904986264209967, 2.4628456109942936]

>  <energy>  (3) 
-982.7220667761214

>  <inter_energy>  (3) 
-1028.7862658211966

>  <intra_energy>  (3) 
39.19962418413199

>  <rmsd>  (3) 
2.23126

>  <sdf_rank>  (3) 
0

$$$$

     RDKit          3D

 79 81  0  0  0  0  0  0  0  0999 V2000
   18.9854   21.8036   13.3159 N   0  0  0  0  0  0  0  0  0  0  0  0
   19.5262   21.6304   14.5269 C   0  0  0  0  0  0  0  0  0  0  0  0
   18.9201   21.6057   15.7177 N   0  0  0  0  0  0  0  0  0  0  0  0
   17.6025   21.7895   15.5936 C   0  0  0  0  0  0  0  0  0  0  0  0
   16.8938   21.9823   14.4167 C   0  0  0  0  0  0  0  0  0  0  0  0
   17.6497   21.9780   13.2260 C   0  0  0  0  0  0  0  0  0  0  0  0
   17.0691   22.1417   12.0232 N   0  0  0  0  0  0  0  0  0  0  0  0
   15.5486   22.1423   14.6761 N   0  0  0  0  0  0  0  0  0  0  0  0
   15.4603   22.0409   15.9766 C   0  0  0  0  0  0  0  0  0  0  0  0
   16.6648   21.8249   16.5994 N   0  0  0  0  0  0  0  0  0  0  0  0
   16.9264   21.6748   18.0214 C   0  0  1  0  0  0  0  0  0  0  0  0
   15.7205   21.8515   18.9366 C   0  0  2  0  0  0  0  0  0  0  0  0
   15.4696   23.2362   19.1370 O   0  0  0  0  0  0  0  0  0  0  0  0
   16.2439   21.1657   20.1982 C   0  0  2  0  0  0  0  0  0  0  0  0
   16.9838   22.1383   20.9633 O   0  0  0  0  0  0  0  0  0  0  0  0
   16.5487   22.6984   22.3881 P   0  0  1  0  0  0  0  0  0  0  0  0
   16.1614   24.1375   22.2926 O   0  0  0  0  0  0  0  0  0  0  0  0
   15.4044   21.8022   22.8692 O   0  0  0  0  0  0  0  0  0  0  0  0
   17.7643   22.4772   23.2982 O   0  0  0  0  0  0  0  0  0  0  0  0
   17.2395   20.1159   19.6794 C   0  0  2  0  0  0  0  0  0  0  0  0
   17.3817   20.3615   18.2641 O   0  0  0  0  0  0  0  0  0  0  0  0
   16.8055   18.6908   19.9100 C   0  0  0  0  0  0  0  0  0  0  0  0
   15.3784   18.6857   20.0621 O   0  0  0  0  0  0  0  0  0  0  0  0
   14.6744   18.1575   21.3799 P   0  0  2  0  0  0  0  0  0  0  0  0
   13.2237   18.4327   21.3690 O   0  0  0  0  0  0  0  0  0  0  0  0
   15.4945   18.6993   22.5509 O   0  0  0  0  0  0  0  0  0  0  0  0
   14.9370   16.5918   21.2973 O   0  0  0  0  0  0  0  0  0  0  0  0
   14.3948   15.4052   20.3880 P   0  0  2  0  0  0  0  0  0  0  0  0
   15.1043   15.3124   19.1031 O   0  0  0  0  0  0  0  0  0  0  0  0
   12.8438   15.5272   20.3579 O   0  0  0  0  0  0  0  0  0  0  0  0
   14.7558   14.1106   21.2207 O   0  0  0  0  0  0  0  0  0  0  0  0
   15.2752   11.8564   20.5061 C   0  0  2  0  0  0  0  0  0  0  0  0
   14.1812   12.8310   20.9316 C   0  0  0  0  0  0  0  0  0  0  0  0
   15.2867   10.6548   21.4650 C   0  0  0  0  0  0  0  0  0  0  0  0
   16.6411   12.5617   20.5561 C   0  0  0  0  0  0  0  0  0  0  0  0
   14.9956   11.3523   19.0667 C   0  0  1  0  0  0  0  0  0  0  0  0
   15.4264   10.0078   18.9083 O   0  0  0  0  0  0  0  0  0  0  0  0
   13.5551   11.4959   18.5911 C   0  0  0  0  0  0  0  0  0  0  0  0
   13.2165   12.4747   17.9352 O   0  0  0  0  0  0  0  0  0  0  0  0
   12.7219   10.5089   18.9204 N   0  0  0  0  0  0  0  0  0  0  0  0
   11.3178   10.5023   18.5334 C   0  0  0  0  0  0  0  0  0  0  0  0
   10.5654    9.3152   19.1242 C   0  0  0  0  0  0  0  0  0  0  0  0
    9.0936    9.3761   18.8205 C   0  0  0  0  0  0  0  0  0  0  0  0
    8.6729    9.5646   17.6821 O   0  0  0  0  0  0  0  0  0  0  0  0
    8.2982    9.2032   19.8729 N   0  0  0  0  0  0  0  0  0  0  0  0
    6.8549    9.1060   19.6994 C   0  0  0  0  0  0  0  0  0  0  0  0
    6.3771    7.7236   19.8708 C   0  0  0  0  0  0  0  0  0  0  0  0
   20.6169   21.4894   14.5452 H   0  0  0  0  0  0  0  0  0  0  0  0
   16.0499   22.2746   11.9571 H   0  0  0  0  0  0  0  0  0  0  0  0
   17.6440   22.1341   11.1686 H   0  0  0  0  0  0  0  0  0  0  0  0
   14.5083   22.1213   16.5218 H   0  0  0  0  0  0  0  0  0  0  0  0
   17.6511   22.4698   18.2513 H   0  0  0  0  0  0  0  0  0  0  0  0
   14.7664   21.4432   18.5717 H   0  0  0  0  0  0  0  0  0  0  0  0
   15.4348   23.4282   20.1076 H   0  0  0  0  0  0  0  0  0  0  0  0
   15.4430   20.7350   20.8171 H   0  0  0  0  0  0  0  0  0  0  0  0
   18.1846   20.2199   20.2326 H   0  0  0  0  0  0  0  0  0  0  0  0
   17.0923   18.0685   19.0495 H   0  0  0  0  0  0  0  0  0  0  0  0
   17.2891   18.2828   20.8097 H   0  0  0  0  0  0  0  0  0  0  0  0
   13.6782   12.4452   21.8306 H   0  0  0  0  0  0  0  0  0  0  0  0
   13.4519   12.9369   20.1150 H   0  0  0  0  0  0  0  0  0  0  0  0
   15.2833   11.0151   22.5043 H   0  0  0  0  0  0  0  0  0  0  0  0
   14.3945   10.0362   21.2883 H   0  0  0  0  0  0  0  0  0  0  0  0
   16.1907   10.0534   21.2883 H   0  0  0  0  0  0  0  0  0  0  0  0
   16.9368   12.7143   21.6045 H   0  0  0  0  0  0  0  0  0  0  0  0
   17.3938   11.9395   20.0497 H   0  0  0  0  0  0  0  0  0  0  0  0
   16.5697   13.5356   20.0497 H   0  0  0  0  0  0  0  0  0  0  0  0
   15.5837   12.0237   18.4237 H   0  0  0  0  0  0  0  0  0  0  0  0
   15.5582    9.5964   19.7991 H   0  0  0  0  0  0  0  0  0  0  0  0
   13.0860    9.7184   19.4711 H   0  0  0  0  0  0  0  0  0  0  0  0
   10.8479   11.4318   18.8875 H   0  0  0  0  0  0  0  0  0  0  0  0
   11.2689   10.4227   17.4374 H   0  0  0  0  0  0  0  0  0  0  0  0
   10.9776    8.3870   18.7016 H   0  0  0  0  0  0  0  0  0  0  0  0
   10.6893    9.3429   20.2169 H   0  0  0  0  0  0  0  0  0  0  0  0
    8.7055    9.1376   20.8167 H   0  0  0  0  0  0  0  0  0  0  0  0
    6.3623    9.7483   20.4442 H   0  0  0  0  0  0  0  0  0  0  0  0
    6.6102    9.4288   18.6767 H   0  0  0  0  0  0  0  0  0  0  0  0
    6.2975    7.4935   20.9436 H   0  0  0  0  0  0  0  0  0  0  0  0
    5.3895    7.6157   19.3985 H   0  0  0  0  0  0  0  0  0  0  0  0
    7.0872    7.0289   19.3985 H   0  0  0  0  0  0  0  0  0  0  0  0
  1  2  2  0
  1  6  1  0
  2  3  1  0
  3  4  2  0
  4  5  1  0
  4 10  1  0
  5  6  2  0
  5  8  1  0
  6  7  1  0
  8  9  2  0
  9 10  1  0
 11 10  1  0
 11 12  1  0
 11 21  1  0
 12 13  1  0
 12 14  1  0
 14 15  1  0
 14 20  1  0
 15 16  1  0
 16 17  2  0
 16 18  1  1
 16 19  1  0
 20 21  1  0
 20 22  1  0
 22 23  1  0
 23 24  1  0
 24 25  2  0
 24 26  1  1
 24 27  1  0
 27 28  1  0
 28 29  2  0
 28 30  1  6
 28 31  1  0
 31 33  1  0
 32 33  1  1
 32 34  1  0
 32 35  1  0
 32 36  1  0
 36 37  1  0
 36 38  1  0
 38 39  2  0
 38 40  1  0
 40 41  1  0
 41 42  1  0
 42 43  1  0
 43 44  2  0
 43 45  1  0
 45 46  1  0
 46 47  1  0
  2 48  1  0
  7 49  1  0
  7 50  1  0
  9 51  1  0
 11 52  1  1
 12 53  1  6
 13 54  1  0
 14 55  1  1
 20 56  1  1
 22 57  1  0
 22 58  1  0
 33 59  1  0
 33 60  1  0
 34 61  1  0
 34 62  1  0
 34 63  1  0
 35 64  1  0
 35 65  1  0
 35 66  1  0
 36 67  1  6
 37 68  1  0
 40 69  1  0
 41 70  1  0
 41 71  1  0
 42 72  1  0
 42 73  1  0
 45 74  1  0
 46 75  1  0
 46 76  1  0
 47 77  1  0
 47 78  1  0
 47 79  1  0
M  CHG  4  18  -1  19  -1  26  -1  30  -1
M  END
>  <filename_input>  (4) 
7MSR_DCA_docked.sdf

>  <pdb_id>  (4) 
7MSR_DCA

>  <pose_rank>  (4) 
3

>  <num_atoms_heavy>  (4) 
47

>  <num_torsions>  (4) 
17

>  <pose>  (4) 
[14.674354701327795, 18.157536912607288, 21.379868609344346, 2.8039049627006776, -3.9702773581750845, -2.941192610738619, -2.8740383877176874, 0.18209525142096533, 1.8401394008839644, -0.5368035891771812, 3.197894431540073, 2.7058077994951684, 3.220833489855701, 1.8520456272221342, 0.0267232683409009, 1.4989006911180396, 3.4085228014086226, -2.4835314517489055, -4.5782494676772005, 1.6516022044875438, 0.343282478763489, 0.3037677217351325, 3.3995308149087835]

>  <energy>  (4) 
-948.093131198497

>  <inter_energy>  (4) 
-979.8682235356595

>  <intra_energy>  (4) 
32.154999496041775

>  <rmsd>  (4) 
3.51134

>  <sdf_rank>  (4) 
0

$$$$

     RDKit          3D

 79 81  0  0  0  0  0  0  0  0999 V2000
   16.0130    4.8184   16.6757 N   0  0  0  0  0  0  0  0  0  0  0  0
   14.9231    5.5649   16.4659 C   0  0  0  0  0  0  0  0  0  0  0  0
   14.5576    6.6995   17.0699 N   0  0  0  0  0  0  0  0  0  0  0  0
   15.4508    7.0650   17.9939 C   0  0  0  0  0  0  0  0  0  0  0  0
   16.6232    6.4034   18.3292 C   0  0  0  0  0  0  0  0  0  0  0  0
   16.8993    5.2215   17.6110 C   0  0  0  0  0  0  0  0  0  0  0  0
   18.0136    4.5028   17.8398 N   0  0  0  0  0  0  0  0  0  0  0  0
   17.2928    7.0722   19.3326 N   0  0  0  0  0  0  0  0  0  0  0  0
   16.5380    8.1100   19.5830 C   0  0  0  0  0  0  0  0  0  0  0  0
   15.4057    8.1723   18.8088 N   0  0  0  0  0  0  0  0  0  0  0  0
   14.3557    9.1773   18.8324 C   0  0  1  0  0  0  0  0  0  0  0  0
   13.2058    8.9078   19.7959 C   0  0  2  0  0  0  0  0  0  0  0  0
   12.2973    7.9838   19.2115 O   0  0  0  0  0  0  0  0  0  0  0  0
   12.6172   10.3141   19.9043 C   0  0  2  0  0  0  0  0  0  0  0  0
   11.6841   10.4947   18.8201 O   0  0  0  0  0  0  0  0  0  0  0  0
   10.3953   11.4270   18.8737 P   0  0  1  0  0  0  0  0  0  0  0  0
   10.7689   12.8556   18.6511 O   0  0  0  0  0  0  0  0  0  0  0  0
    9.4329   10.8885   17.8117 O   0  0  0  0  0  0  0  0  0  0  0  0
    9.7820   11.1902   20.2604 O   0  0  0  0  0  0  0  0  0  0  0  0
   13.8119   11.2500   19.6604 C   0  0  2  0  0  0  0  0  0  0  0  0
   14.9094   10.4039   19.2562 O   0  0  0  0  0  0  0  0  0  0  0  0
   14.2105   12.0641   20.8648 C   0  0  0  0  0  0  0  0  0  0  0  0
   13.4060   13.2525   20.8771 O   0  0  0  0  0  0  0  0  0  0  0  0
   13.3769   14.2363   22.1192 P   0  0  2  0  0  0  0  0  0  0  0  0
   13.2691   13.4994   23.3942 O   0  0  0  0  0  0  0  0  0  0  0  0
   12.3096   15.2864   21.8096 O   0  0  0  0  0  0  0  0  0  0  0  0
   14.7933   14.9507   22.0158 O   0  0  0  0  0  0  0  0  0  0  0  0
   15.5317   15.8345   20.9192 P   0  0  2  0  0  0  0  0  0  0  0  0
   15.1638   15.4516   19.5477 O   0  0  0  0  0  0  0  0  0  0  0  0
   17.0426   15.8524   21.2913 O   0  0  0  0  0  0  0  0  0  0  0  0
   14.9603   17.2866   21.1729 O   0  0  0  0  0  0  0  0  0  0  0  0
   15.5084   19.6416   21.0485 C   0  0  2  0  0  0  0  0  0  0  0  0
   15.7446   18.3219   21.7767 C   0  0  0  0  0  0  0  0  0  0  0  0
   14.9961   20.6899   22.0495 C   0  0  0  0  0  0  0  0  0  0  0  0
   14.4601   19.4386   19.9415 C   0  0  0  0  0  0  0  0  0  0  0  0
   16.8385   20.1420   20.4283 C   0  0  1  0  0  0  0  0  0  0  0  0
   17.4491   19.1227   19.6494 O   0  0  0  0  0  0  0  0  0  0  0  0
   16.7394   21.4275   19.6164 C   0  0  0  0  0  0  0  0  0  0  0  0
   16.4589   22.4858   20.1680 O   0  0  0  0  0  0  0  0  0  0  0  0
   16.9815   21.3225   18.3098 N   0  0  0  0  0  0  0  0  0  0  0  0
   16.9303   22.4633   17.4057 C   0  0  0  0  0  0  0  0  0  0  0  0
   16.3579   22.0900   16.0429 C   0  0  0  0  0  0  0  0  0  0  0  0
   17.4337   21.9534   15.0007 C   0  0  0  0  0  0  0  0  0  0  0  0
   18.4927   21.3759   15.2326 O   0  0  0  0  0  0  0  0  0  0  0  0
   17.1418   22.4962   13.8216 N   0  0  0  0  0  0  0  0  0  0  0  0
   18.0374   22.3204   12.6859 C   0  0  0  0  0  0  0  0  0  0  0  0
   17.2936   22.1511   11.4262 C   0  0  0  0  0  0  0  0  0  0  0  0
   14.2349    5.1950   15.6916 H   0  0  0  0  0  0  0  0  0  0  0  0
   18.6884    4.8122   18.5539 H   0  0  0  0  0  0  0  0  0  0  0  0
   18.1919    3.6433   17.3010 H   0  0  0  0  0  0  0  0  0  0  0  0
   16.7871    8.8640   20.3441 H   0  0  0  0  0  0  0  0  0  0  0  0
   13.9531    9.1760   17.8088 H   0  0  0  0  0  0  0  0  0  0  0  0
   13.4748    8.4623   20.7651 H   0  0  0  0  0  0  0  0  0  0  0  0
   11.8173    7.4957   19.9267 H   0  0  0  0  0  0  0  0  0  0  0  0
   12.1130   10.4962   20.8649 H   0  0  0  0  0  0  0  0  0  0  0  0
   13.5325   11.9893   18.8953 H   0  0  0  0  0  0  0  0  0  0  0  0
   14.0355   11.4843   21.7830 H   0  0  0  0  0  0  0  0  0  0  0  0
   15.2784   12.3237   20.8166 H   0  0  0  0  0  0  0  0  0  0  0  0
   15.4551   18.4306   22.8323 H   0  0  0  0  0  0  0  0  0  0  0  0
   16.8099   18.0560   21.7095 H   0  0  0  0  0  0  0  0  0  0  0  0
   15.1704   20.3333   23.0753 H   0  0  0  0  0  0  0  0  0  0  0  0
   15.5325   21.6377   21.8947 H   0  0  0  0  0  0  0  0  0  0  0  0
   13.9187   20.8489   21.8947 H   0  0  0  0  0  0  0  0  0  0  0  0
   13.4773   19.2484   20.3976 H   0  0  0  0  0  0  0  0  0  0  0  0
   14.4058   20.3430   19.3176 H   0  0  0  0  0  0  0  0  0  0  0  0
   14.7473   18.5794   19.3176 H   0  0  0  0  0  0  0  0  0  0  0  0
   17.4666   20.3923   21.2960 H   0  0  0  0  0  0  0  0  0  0  0  0
   17.8540   18.4470   20.2490 H   0  0  0  0  0  0  0  0  0  0  0  0
   17.2145   20.3965   17.9236 H   0  0  0  0  0  0  0  0  0  0  0  0
   16.2976   23.2433   17.8545 H   0  0  0  0  0  0  0  0  0  0  0  0
   17.9591   22.8219   17.2542 H   0  0  0  0  0  0  0  0  0  0  0  0
   15.8249   21.1319   16.1314 H   0  0  0  0  0  0  0  0  0  0  0  0
   15.6777   22.8947   15.7269 H   0  0  0  0  0  0  0  0  0  0  0  0
   16.2768   23.0443   13.7110 H   0  0  0  0  0  0  0  0  0  0  0  0
   18.6841   23.2062   12.6017 H   0  0  0  0  0  0  0  0  0  0  0  0
   18.6333   21.4117   12.8568 H   0  0  0  0  0  0  0  0  0  0  0  0
   16.2434   21.9120   11.6497 H   0  0  0  0  0  0  0  0  0  0  0  0
   17.3415   23.0831   10.8440 H   0  0  0  0  0  0  0  0  0  0  0  0
   17.7402   21.3317   10.8440 H   0  0  0  0  0  0  0  0  0  0  0  0
  1  2  2  0
  1  6  1  0
  2  3  1  0
  3  4  2  0
  4  5  1  0
  4 10  1  0
  5  6  2  0
  5  8  1  0
  6  7  1  0
  8  9  2  0
  9 10  1  0
 11 10  1  0
 11 12  1  0
 11 21  1  0
 12 13  1  0
 12 14  1  0
 14 15  1  0
 14 20  1  0
 15 16  1  0
 16 17  2  0
 16 18  1  6
 16 19  1  0
 20 21  1  0
 20 22  1  0
 22 23  1  0
 23 24  1  0
 24 25  2  0
 24 26  1  6
 24 27  1  0
 27 28  1  0
 28 29  2  0
 28 30  1  6
 28 31  1  0
 31 33  1  0
 32 33  1  1
 32 34  1  0
 32 35  1  0
 32 36  1  0
 36 37  1  0
 36 38  1  0
 38 39  2  0
 38 40  1  0
 40 41  1  0
 41 42  1  0
 42 43  1  0
 43 44  2  0
 43 45  1  0
 45 46  1  0
 46 47  1  0
  2 48  1  0
  7 49  1  0
  7 50  1  0
  9 51  1  0
 11 52  1  6
 12 53  1  1
 13 54  1  0
 14 55  1  1
 20 56  1  6
 22 57  1  0
 22 58  1  0
 33 59  1  0
 33 60  1  0
 34 61  1  0
 34 62  1  0
 34 63  1  0
 35 64  1  0
 35 65  1  0
 35 66  1  0
 36 67  1  1
 37 68  1  0
 40 69  1  0
 41 70  1  0
 41 71  1  0
 42 72  1  0
 42 73  1  0
 45 74  1  0
 46 75  1  0
 46 76  1  0
 47 77  1  0
 47 78  1  0
 47 79  1  0
M  CHG  4  18  -1  19  -1  26  -1  30  -1
M  END
>  <filename_input>  (5) 
7MSR_DCA_docked.sdf

>  <pdb_id>  (5) 
7MSR_DCA

>  <pose_rank>  (5) 
4

>  <num_atoms_heavy>  (5) 
47

>  <num_torsions>  (5) 
17

>  <pose>  (5) 
[13.376888097850426, 14.236303490299429, 22.119151825163883, 2.3327709820611475, -1.1329730024222795, -2.4866533588163326, -0.6036032718334101, -1.8281465852096703, 0.8267232027254302, -0.16391060955156014, -3.0648827349349763, -0.12018162445159782, 2.716038975044432, -3.863317828604124, 1.456232927621648, 1.3804478933479938, -2.239277736621851, 0.020435024797338504, -5.7955953717015225, -0.24900297731679, -1.153386759635515, 0.9431633100923299, 0.4604376873026039]

>  <energy>  (5) 
-953.7459752665072

>  <inter_energy>  (5) 
-967.8846269889995

>  <intra_energy>  (5) 
15.93315936327001

>  <rmsd>  (5) 
12.4344

>  <sdf_rank>  (5) 
0

$$$$

     RDKit          3D

 79 81  0  0  0  0  0  0  0  0999 V2000
   19.2416   21.9204   13.2550 N   0  0  0  0  0  0  0  0  0  0  0  0
   19.6564   21.6791   14.5036 C   0  0  0  0  0  0  0  0  0  0  0  0
   18.9271   21.5373   15.6144 N   0  0  0  0  0  0  0  0  0  0  0  0
   17.6229   21.6724   15.3572 C   0  0  0  0  0  0  0  0  0  0  0  0
   17.0368   21.9233   14.1252 C   0  0  0  0  0  0  0  0  0  0  0  0
   17.9162   22.0428   13.0291 C   0  0  0  0  0  0  0  0  0  0  0  0
   17.4616   22.2724   11.7836 N   0  0  0  0  0  0  0  0  0  0  0  0
   15.6649   22.0043   14.2433 N   0  0  0  0  0  0  0  0  0  0  0  0
   15.4418   21.8002   15.5153 C   0  0  0  0  0  0  0  0  0  0  0  0
   16.5813   21.5900   16.2518 N   0  0  0  0  0  0  0  0  0  0  0  0
   16.6950   21.3434   17.6799 C   0  0  1  0  0  0  0  0  0  0  0  0
   15.4498   21.6500   18.5037 C   0  0  2  0  0  0  0  0  0  0  0  0
   15.3756   23.0464   18.7588 O   0  0  0  0  0  0  0  0  0  0  0  0
   15.7618   20.8434   19.7639 C   0  0  2  0  0  0  0  0  0  0  0  0
   16.5593   21.6674   20.6379 O   0  0  0  0  0  0  0  0  0  0  0  0
   16.0489   22.3063   22.0032 P   0  0  1  0  0  0  0  0  0  0  0  0
   16.3208   21.3877   23.1489 O   0  0  0  0  0  0  0  0  0  0  0  0
   16.7604   23.6553   22.1371 O   0  0  0  0  0  0  0  0  0  0  0  0
   14.5493   22.5582   21.7964 O   0  0  0  0  0  0  0  0  0  0  0  0
   16.6446   19.6861   19.2699 C   0  0  2  0  0  0  0  0  0  0  0  0
   16.9421   19.9696   17.8861 O   0  0  0  0  0  0  0  0  0  0  0  0
   16.0000   18.3285   19.3866 C   0  0  0  0  0  0  0  0  0  0  0  0
   16.4744   17.7198   20.5966 O   0  0  0  0  0  0  0  0  0  0  0  0
   15.4931   17.0323   21.6337 P   0  0  2  0  0  0  0  0  0  0  0  0
   14.4113   17.9479   22.0480 O   0  0  0  0  0  0  0  0  0  0  0  0
   16.3770   16.4315   22.7270 O   0  0  0  0  0  0  0  0  0  0  0  0
   14.8976   15.8269   20.7854 O   0  0  0  0  0  0  0  0  0  0  0  0
   15.5166   14.6330   19.9367 P   0  0  2  0  0  0  0  0  0  0  0  0
   16.8694   14.2681   20.3834 O   0  0  0  0  0  0  0  0  0  0  0  0
   15.3154   14.9899   18.4354 O   0  0  0  0  0  0  0  0  0  0  0  0
   14.5653   13.4148   20.2694 O   0  0  0  0  0  0  0  0  0  0  0  0
   13.2276   11.4643   19.7518 C   0  0  2  0  0  0  0  0  0  0  0  0
   13.6802   12.8482   19.2963 C   0  0  0  0  0  0  0  0  0  0  0  0
   14.0339   11.0488   20.9931 C   0  0  0  0  0  0  0  0  0  0  0  0
   13.4678   10.4467   18.6238 C   0  0  0  0  0  0  0  0  0  0  0  0
   11.7209   11.5004   20.1161 C   0  0  1  0  0  0  0  0  0  0  0  0
   11.4384   12.5792   20.9963 O   0  0  0  0  0  0  0  0  0  0  0  0
   10.7619   11.5306   18.9325 C   0  0  0  0  0  0  0  0  0  0  0  0
   10.7400   12.4986   18.1805 O   0  0  0  0  0  0  0  0  0  0  0  0
    9.9829   10.4605   18.7743 N   0  0  0  0  0  0  0  0  0  0  0  0
    9.0207   10.3413   17.6874 C   0  0  0  0  0  0  0  0  0  0  0  0
    7.7256    9.6751   18.1382 C   0  0  0  0  0  0  0  0  0  0  0  0
    7.9410    8.2402   18.5344 C   0  0  0  0  0  0  0  0  0  0  0  0
    8.4319    7.4203   17.7628 O   0  0  0  0  0  0  0  0  0  0  0  0
    7.5675    7.9411   19.7758 N   0  0  0  0  0  0  0  0  0  0  0  0
    7.8423    6.6228   20.3321 C   0  0  0  0  0  0  0  0  0  0  0  0
    6.7274    6.1388   21.1637 C   0  0  0  0  0  0  0  0  0  0  0  0
   20.7446   21.5848   14.6336 H   0  0  0  0  0  0  0  0  0  0  0  0
   16.4500   22.3654   11.6137 H   0  0  0  0  0  0  0  0  0  0  0  0
   18.1252   22.3550   11.0002 H   0  0  0  0  0  0  0  0  0  0  0  0
   14.4335   21.7972   15.9550 H   0  0  0  0  0  0  0  0  0  0  0  0
   17.4994   22.0169   18.0103 H   0  0  0  0  0  0  0  0  0  0  0  0
   14.4840   21.3973   18.0417 H   0  0  0  0  0  0  0  0  0  0  0  0
   15.3673   23.2033   19.7363 H   0  0  0  0  0  0  0  0  0  0  0  0
   14.8584   20.5044   20.2920 H   0  0  0  0  0  0  0  0  0  0  0  0
   17.5432   19.6312   19.9019 H   0  0  0  0  0  0  0  0  0  0  0  0
   14.9060   18.4359   19.4258 H   0  0  0  0  0  0  0  0  0  0  0  0
   16.2565   17.7055   18.5170 H   0  0  0  0  0  0  0  0  0  0  0  0
   12.8014   13.4995   19.1792 H   0  0  0  0  0  0  0  0  0  0  0  0
   14.2070   12.7595   18.3347 H   0  0  0  0  0  0  0  0  0  0  0  0
   13.4818   11.3333   21.9010 H   0  0  0  0  0  0  0  0  0  0  0  0
   14.1870    9.9596   20.9832 H   0  0  0  0  0  0  0  0  0  0  0  0
   15.0097   11.5563   20.9832 H   0  0  0  0  0  0  0  0  0  0  0  0
   13.6998    9.4638   19.0599 H   0  0  0  0  0  0  0  0  0  0  0  0
   12.5635   10.3679   18.0024 H   0  0  0  0  0  0  0  0  0  0  0  0
   14.3118   10.7805   18.0024 H   0  0  0  0  0  0  0  0  0  0  0  0
   11.5381   10.5375   20.6156 H   0  0  0  0  0  0  0  0  0  0  0  0
   11.5193   12.2703   21.9334 H   0  0  0  0  0  0  0  0  0  0  0  0
   10.0648    9.6861   19.4484 H   0  0  0  0  0  0  0  0  0  0  0  0
    8.7885   11.3471   17.3073 H   0  0  0  0  0  0  0  0  0  0  0  0
    9.4702    9.7126   16.9046 H   0  0  0  0  0  0  0  0  0  0  0  0
    7.3243   10.2259   19.0017 H   0  0  0  0  0  0  0  0  0  0  0  0
    7.0211    9.6933   17.2937 H   0  0  0  0  0  0  0  0  0  0  0  0
    7.0807    8.6462   20.3474 H   0  0  0  0  0  0  0  0  0  0  0  0
    8.0048    5.9144   19.5064 H   0  0  0  0  0  0  0  0  0  0  0  0
    8.7365    6.6990   20.9683 H   0  0  0  0  0  0  0  0  0  0  0  0
    6.9871    6.2515   22.2267 H   0  0  0  0  0  0  0  0  0  0  0  0
    5.8236    6.7255   20.9428 H   0  0  0  0  0  0  0  0  0  0  0  0
    6.5390    5.0778   20.9428 H   0  0  0  0  0  0  0  0  0  0  0  0
  1  2  2  0
  1  6  1  0
  2  3  1  0
  3  4  2  0
  4  5  1  0
  4 10  1  0
  5  6  2  0
  5  8  1  0
  6  7  1  0
  8  9  2  0
  9 10  1  0
 11 10  1  0
 11 12  1  0
 11 21  1  0
 12 13  1  0
 12 14  1  0
 14 15  1  0
 14 20  1  0
 15 16  1  0
 16 17  2  0
 16 18  1  1
 16 19  1  0
 20 21  1  0
 20 22  1  0
 22 23  1  0
 23 24  1  0
 24 25  2  0
 24 26  1  1
 24 27  1  0
 27 28  1  0
 28 29  2  0
 28 30  1  6
 28 31  1  0
 31 33  1  0
 32 33  1  6
 32 34  1  0
 32 35  1  0
 32 36  1  0
 36 37  1  0
 36 38  1  0
 38 39  2  0
 38 40  1  0
 40 41  1  0
 41 42  1  0
 42 43  1  0
 43 44  2  0
 43 45  1  0
 45 46  1  0
 46 47  1  0
  2 48  1  0
  7 49  1  0
  7 50  1  0
  9 51  1  0
 11 52  1  1
 12 53  1  6
 13 54  1  0
 14 55  1  1
 20 56  1  1
 22 57  1  0
 22 58  1  0
 33 59  1  0
 33 60  1  0
 34 61  1  0
 34 62  1  0
 34 63  1  0
 35 64  1  0
 35 65  1  0
 35 66  1  0
 36 67  1  1
 37 68  1  0
 40 69  1  0
 41 70  1  0
 41 71  1  0
 42 72  1  0
 42 73  1  0
 45 74  1  0
 46 75  1  0
 46 76  1  0
 47 77  1  0
 47 78  1  0
 47 79  1  0
M  CHG  4  18  -1  19  -1  26  -1  30  -1
M  END
>  <filename_input>  (6) 
7MSR_DCA_docked.sdf

>  <pdb_id>  (6) 
7MSR_DCA

>  <pose_rank>  (6) 
5

>  <num_atoms_heavy>  (6) 
47

>  <num_torsions>  (6) 
17

>  <pose>  (6) 
[15.493087668794896, 17.032318565391922, 21.633733068105368, -3.4219082697569956, -4.383651032618895, 1.2197124666902612, -0.7095505034131778, -0.8168254830587526, 0.8958688750252681, 0.2627279397386253, 0.9372335100090109, -1.8949675128239465, 0.4176643503391328, 2.451736541218337, 2.1068512764568785, -0.3647567593661554, -0.9088326443725276, -0.14093531948728466, -0.16718716373163967, -0.44629662256285657, 0.15160699414151205, 0.22466613787550113, 0.6492119365378866]

>  <energy>  (6) 
-950.3583468994515

>  <inter_energy>  (6) 
-968.8685531430165

>  <intra_energy>  (6) 
17.831189510768986

>  <rmsd>  (6) 
3.79117

>  <sdf_rank>  (6) 
0

$$$$

     RDKit          3D

 79 81  0  0  0  0  0  0  0  0999 V2000
   19.2991   21.6852   13.2831 N   0  0  0  0  0  0  0  0  0  0  0  0
   19.3541   21.3568   14.5786 C   0  0  0  0  0  0  0  0  0  0  0  0
   18.3891   21.4253   15.5005 N   0  0  0  0  0  0  0  0  0  0  0  0
   17.2537   21.8976   14.9779 C   0  0  0  0  0  0  0  0  0  0  0  0
   17.0364   22.2807   13.6624 C   0  0  0  0  0  0  0  0  0  0  0  0
   18.1336   22.1511   12.7859 C   0  0  0  0  0  0  0  0  0  0  0  0
   18.0373   22.4787   11.4844 N   0  0  0  0  0  0  0  0  0  0  0  0
   15.7414   22.7228   13.4891 N   0  0  0  0  0  0  0  0  0  0  0  0
   15.2010   22.5994   14.6732 C   0  0  0  0  0  0  0  0  0  0  0  0
   16.0575   22.1036   15.6250 N   0  0  0  0  0  0  0  0  0  0  0  0
   15.7889   21.8518   17.0313 C   0  0  1  0  0  0  0  0  0  0  0  0
   15.7663   23.0830   17.9296 C   0  0  2  0  0  0  0  0  0  0  0  0
   17.0965   23.4601   18.2595 O   0  0  0  0  0  0  0  0  0  0  0  0
   15.0058   22.5199   19.1299 C   0  0  2  0  0  0  0  0  0  0  0  0
   15.9578   21.8823   20.0051 O   0  0  0  0  0  0  0  0  0  0  0  0
   16.2351   22.3077   21.5134 P   0  0  1  0  0  0  0  0  0  0  0  0
   15.7668   23.7039   21.7616 O   0  0  0  0  0  0  0  0  0  0  0  0
   15.5212   21.2737   22.3882 O   0  0  0  0  0  0  0  0  0  0  0  0
   17.7499   22.1542   21.7052 O   0  0  0  0  0  0  0  0  0  0  0  0
   14.1048   21.4262   18.5346 C   0  0  2  0  0  0  0  0  0  0  0  0
   14.5029   21.2844   17.1543 O   0  0  0  0  0  0  0  0  0  0  0  0
   12.6312   21.7342   18.6127 C   0  0  0  0  0  0  0  0  0  0  0  0
   11.9791   20.6089   19.2195 O   0  0  0  0  0  0  0  0  0  0  0  0
   10.5145   20.7063   19.8167 P   0  0  2  0  0  0  0  0  0  0  0  0
    9.7433   21.7986   19.1903 O   0  0  0  0  0  0  0  0  0  0  0  0
   10.6717   20.7249   21.3374 O   0  0  0  0  0  0  0  0  0  0  0  0
    9.8944   19.2977   19.4184 O   0  0  0  0  0  0  0  0  0  0  0  0
    9.4703   17.9880   20.2145 P   0  0  2  0  0  0  0  0  0  0  0  0
    9.3890   16.8039   19.3460 O   0  0  0  0  0  0  0  0  0  0  0  0
    8.2200   18.3570   21.0641 O   0  0  0  0  0  0  0  0  0  0  0  0
   10.6751   17.7592   21.2124 O   0  0  0  0  0  0  0  0  0  0  0  0
   12.1367   16.5714   22.7338 C   0  0  2  0  0  0  0  0  0  0  0  0
   10.7968   16.5719   22.0041 C   0  0  0  0  0  0  0  0  0  0  0  0
   11.9255   17.0342   24.1846 C   0  0  0  0  0  0  0  0  0  0  0  0
   13.1078   17.5330   22.0282 C   0  0  0  0  0  0  0  0  0  0  0  0
   12.7277   15.1380   22.7410 C   0  0  1  0  0  0  0  0  0  0  0  0
   12.2799   14.4113   23.8768 O   0  0  0  0  0  0  0  0  0  0  0  0
   12.4871   14.3244   21.4754 C   0  0  0  0  0  0  0  0  0  0  0  0
   13.1610   14.5300   20.4722 O   0  0  0  0  0  0  0  0  0  0  0  0
   11.5306   13.3982   21.5400 N   0  0  0  0  0  0  0  0  0  0  0  0
   11.1893   12.5395   20.4142 C   0  0  0  0  0  0  0  0  0  0  0  0
   11.4516   11.0681   20.7148 C   0  0  0  0  0  0  0  0  0  0  0  0
   12.7072   10.5746   20.0498 C   0  0  0  0  0  0  0  0  0  0  0  0
   12.6780    9.7620   19.1292 O   0  0  0  0  0  0  0  0  0  0  0  0
   13.8346   11.0914   20.5313 N   0  0  0  0  0  0  0  0  0  0  0  0
   15.1114   10.8020   19.8919 C   0  0  0  0  0  0  0  0  0  0  0  0
   16.0980   11.8675   20.1373 C   0  0  0  0  0  0  0  0  0  0  0  0
   20.3248   20.9796   14.9330 H   0  0  0  0  0  0  0  0  0  0  0  0
   17.1471   22.8340   11.1072 H   0  0  0  0  0  0  0  0  0  0  0  0
   18.8537   22.3741   10.8652 H   0  0  0  0  0  0  0  0  0  0  0  0
   14.1560   22.8680   14.8873 H   0  0  0  0  0  0  0  0  0  0  0  0
   16.6172   21.2051   17.3562 H   0  0  0  0  0  0  0  0  0  0  0  0
   15.3147   23.9907   17.5029 H   0  0  0  0  0  0  0  0  0  0  0  0
   17.1970   23.4886   19.2439 H   0  0  0  0  0  0  0  0  0  0  0  0
   14.4465   23.2886   19.6834 H   0  0  0  0  0  0  0  0  0  0  0  0
   14.2352   20.5030   19.1183 H   0  0  0  0  0  0  0  0  0  0  0  0
   12.4691   22.6346   19.2233 H   0  0  0  0  0  0  0  0  0  0  0  0
   12.2236   21.9184   17.6078 H   0  0  0  0  0  0  0  0  0  0  0  0
    9.9802   16.5387   22.7403 H   0  0  0  0  0  0  0  0  0  0  0  0
   10.7408   15.6909   21.3478 H   0  0  0  0  0  0  0  0  0  0  0  0
   12.2814   16.2542   24.8738 H   0  0  0  0  0  0  0  0  0  0  0  0
   12.4891   17.9626   24.3590 H   0  0  0  0  0  0  0  0  0  0  0  0
   10.8549   17.2169   24.3590 H   0  0  0  0  0  0  0  0  0  0  0  0
   13.6774   18.0970   22.7815 H   0  0  0  0  0  0  0  0  0  0  0  0
   13.8022   16.9567   21.3992 H   0  0  0  0  0  0  0  0  0  0  0  0
   12.5383   18.2331   21.3992 H   0  0  0  0  0  0  0  0  0  0  0  0
   13.8159   15.2921   22.7868 H   0  0  0  0  0  0  0  0  0  0  0  0
   12.5673   14.8777   24.7013 H   0  0  0  0  0  0  0  0  0  0  0  0
   11.0115   13.2851   22.4224 H   0  0  0  0  0  0  0  0  0  0  0  0
   10.1223   12.6690   20.1801 H   0  0  0  0  0  0  0  0  0  0  0  0
   11.8228   12.8294   19.5629 H   0  0  0  0  0  0  0  0  0  0  0  0
   11.5513   10.9397   21.8027 H   0  0  0  0  0  0  0  0  0  0  0  0
   10.6060   10.4841   20.3223 H   0  0  0  0  0  0  0  0  0  0  0  0
   13.8047   11.7001   21.3616 H   0  0  0  0  0  0  0  0  0  0  0  0
   15.5033    9.8548   20.2909 H   0  0  0  0  0  0  0  0  0  0  0  0
   14.9437   10.7337   18.8069 H   0  0  0  0  0  0  0  0  0  0  0  0
   16.2261   12.0060   21.2210 H   0  0  0  0  0  0  0  0  0  0  0  0
   17.0613   11.5861   19.6871 H   0  0  0  0  0  0  0  0  0  0  0  0
   15.7432   12.8064   19.6871 H   0  0  0  0  0  0  0  0  0  0  0  0
  1  2  2  0
  1  6  1  0
  2  3  1  0
  3  4  2  0
  4  5  1  0
  4 10  1  0
  5  6  2  0
  5  8  1  0
  6  7  1  0
  8  9  2  0
  9 10  1  0
 11 10  1  0
 11 12  1  0
 11 21  1  0
 12 13  1  0
 12 14  1  0
 14 15  1  0
 14 20  1  0
 15 16  1  0
 16 17  2  0
 16 18  1  1
 16 19  1  0
 20 21  1  0
 20 22  1  0
 22 23  1  0
 23 24  1  0
 24 25  2  0
 24 26  1  1
 24 27  1  0
 27 28  1  0
 28 29  2  0
 28 30  1  1
 28 31  1  0
 31 33  1  0
 32 33  1  6
 32 34  1  0
 32 35  1  0
 32 36  1  0
 36 37  1  0
 36 38  1  0
 38 39  2  0
 38 40  1  0
 40 41  1  0
 41 42  1  0
 42 43  1  0
 43 44  2  0
 43 45  1  0
 45 46  1  0
 46 47  1  0
  2 48  1  0
  7 49  1  0
  7 50  1  0
  9 51  1  0
 11 52  1  1
 12 53  1  6
 13 54  1  0
 14 55  1  1
 20 56  1  1
 22 57  1  0
 22 58  1  0
 33 59  1  0
 33 60  1  0
 34 61  1  0
 34 62  1  0
 34 63  1  0
 35 64  1  0
 35 65  1  0
 35 66  1  0
 36 67  1  1
 37 68  1  0
 40 69  1  0
 41 70  1  0
 41 71  1  0
 42 72  1  0
 42 73  1  0
 45 74  1  0
 46 75  1  0
 46 76  1  0
 47 77  1  0
 47 78  1  0
 47 79  1  0
M  CHG  4  18  -1  19  -1  26  -1  30  -1
M  END
>  <filename_input>  (7) 
7MSR_DCA_docked.sdf

>  <pdb_id>  (7) 
7MSR_DCA

>  <pose_rank>  (7) 
6

>  <num_atoms_heavy>  (7) 
47

>  <num_torsions>  (7) 
17

>  <pose>  (7) 
[10.51450141162742, 20.706290174915175, 19.816692886518048, 1.5084230642748806, 1.4678331675299465, 5.480533898268866, 0.2819850106170765, 8.516931243736892, 2.2528231867050392, 0.4488197067726463, -3.458623075020973, -2.5760866992850504, -3.366878595618007, 0.6766480612658886, 1.4493104967576282, -1.3198036359797578, -2.0318936007339126, 1.224488630819906, 0.37437159295575284, -0.9794047812452303, -0.939808048133353, 0.4063760201961086, -1.2856988454771698]

>  <energy>  (7) 
-740.6059117730599

>  <inter_energy>  (7) 
-752.3874589278491

>  <intra_energy>  (7) 
15.445940843937542

>  <rmsd>  (7) 
4.45578

>  <sdf_rank>  (7) 
0

$$$$

     RDKit          3D

 79 81  0  0  0  0  0  0  0  0999 V2000
   18.0078    7.3333   18.5472 N   0  0  0  0  0  0  0  0  0  0  0  0
   17.6891    8.6297   18.6311 C   0  0  0  0  0  0  0  0  0  0  0  0
   16.4811    9.1875   18.7549 N   0  0  0  0  0  0  0  0  0  0  0  0
   15.5207    8.2592   18.7876 C   0  0  0  0  0  0  0  0  0  0  0  0
   15.6863    6.8840   18.7116 C   0  0  0  0  0  0  0  0  0  0  0  0
   17.0133    6.4215   18.5921 C   0  0  0  0  0  0  0  0  0  0  0  0
   17.2975    5.1080   18.5239 N   0  0  0  0  0  0  0  0  0  0  0  0
   14.4680    6.2402   18.7726 N   0  0  0  0  0  0  0  0  0  0  0  0
   13.5998    7.2110   18.8880 C   0  0  0  0  0  0  0  0  0  0  0  0
   14.1654    8.4620   18.9059 N   0  0  0  0  0  0  0  0  0  0  0  0
   13.4969    9.7484   19.0126 C   0  0  1  0  0  0  0  0  0  0  0  0
   12.7311    9.9887   20.3083 C   0  0  2  0  0  0  0  0  0  0  0  0
   11.4652    9.3454   20.2434 O   0  0  0  0  0  0  0  0  0  0  0  0
   12.6131   11.5120   20.2665 C   0  0  2  0  0  0  0  0  0  0  0  0
   11.4423   11.8503   19.4961 O   0  0  0  0  0  0  0  0  0  0  0  0
   10.0490   12.3111   20.1119 P   0  0  1  0  0  0  0  0  0  0  0  0
    8.9387   11.4504   19.6053 O   0  0  0  0  0  0  0  0  0  0  0  0
   10.2102   12.2446   21.6330 O   0  0  0  0  0  0  0  0  0  0  0  0
    9.8890   13.7797   19.6967 O   0  0  0  0  0  0  0  0  0  0  0  0
   13.8483   11.9710   19.4752 C   0  0  2  0  0  0  0  0  0  0  0  0
   14.4679   10.7710   18.9655 O   0  0  0  0  0  0  0  0  0  0  0  0
   14.8449   12.7539   20.2914 C   0  0  0  0  0  0  0  0  0  0  0  0
   14.7723   14.1255   19.8752 O   0  0  0  0  0  0  0  0  0  0  0  0
   14.0836   15.2402   20.7665 P   0  0  2  0  0  0  0  0  0  0  0  0
   13.9190   14.7940   22.1643 O   0  0  0  0  0  0  0  0  0  0  0  0
   12.8329   15.6842   20.0073 O   0  0  0  0  0  0  0  0  0  0  0  0
   15.1356   16.4296   20.6899 O   0  0  0  0  0  0  0  0  0  0  0  0
   16.4153   16.8573   21.5315 P   0  0  2  0  0  0  0  0  0  0  0  0
   17.5578   15.9571   21.3138 O   0  0  0  0  0  0  0  0  0  0  0  0
   15.9400   17.0924   22.9945 O   0  0  0  0  0  0  0  0  0  0  0  0
   16.8009   18.2646   20.9229 O   0  0  0  0  0  0  0  0  0  0  0  0
   17.5416   19.6172   19.0563 C   0  0  2  0  0  0  0  0  0  0  0  0
   16.5087   18.6164   19.5656 C   0  0  0  0  0  0  0  0  0  0  0  0
   18.3987   18.9530   17.9666 C   0  0  0  0  0  0  0  0  0  0  0  0
   18.4471   20.0592   20.2184 C   0  0  0  0  0  0  0  0  0  0  0  0
   16.8213   20.8502   18.4520 C   0  0  1  0  0  0  0  0  0  0  0  0
   15.8810   20.4533   17.4636 O   0  0  0  0  0  0  0  0  0  0  0  0
   16.1552   21.7783   19.4601 C   0  0  0  0  0  0  0  0  0  0  0  0
   16.7876   22.7014   19.9609 O   0  0  0  0  0  0  0  0  0  0  0  0
   14.8762   21.5279   19.7401 N   0  0  0  0  0  0  0  0  0  0  0  0
   14.1043   22.3306   20.6789 C   0  0  0  0  0  0  0  0  0  0  0  0
   12.8495   21.6077   21.1554 C   0  0  0  0  0  0  0  0  0  0  0  0
   12.8835   21.3403   22.6351 C   0  0  0  0  0  0  0  0  0  0  0  0
   13.6881   21.8975   23.3772 O   0  0  0  0  0  0  0  0  0  0  0  0
   11.9764   20.4679   23.0663 N   0  0  0  0  0  0  0  0  0  0  0  0
   11.8115   20.2183   24.4923 C   0  0  0  0  0  0  0  0  0  0  0  0
   10.6644   20.9574   25.0461 C   0  0  0  0  0  0  0  0  0  0  0  0
   18.5356    9.3312   18.5931 H   0  0  0  0  0  0  0  0  0  0  0  0
   16.5370    4.4141   18.5583 H   0  0  0  0  0  0  0  0  0  0  0  0
   18.2754    4.7964   18.4374 H   0  0  0  0  0  0  0  0  0  0  0  0
   12.5156    7.0410   18.9638 H   0  0  0  0  0  0  0  0  0  0  0  0
   12.7756    9.7513   18.1821 H   0  0  0  0  0  0  0  0  0  0  0  0
   13.1949    9.6037   21.2285 H   0  0  0  0  0  0  0  0  0  0  0  0
   11.1333    9.1767   21.1607 H   0  0  0  0  0  0  0  0  0  0  0  0
   12.5458   11.9655   21.2664 H   0  0  0  0  0  0  0  0  0  0  0  0
   13.5247   12.6602   18.6813 H   0  0  0  0  0  0  0  0  0  0  0  0
   14.5982   12.6738   21.3604 H   0  0  0  0  0  0  0  0  0  0  0  0
   15.8604   12.3596   20.1392 H   0  0  0  0  0  0  0  0  0  0  0  0
   16.5373   17.7121   18.9399 H   0  0  0  0  0  0  0  0  0  0  0  0
   15.5081   19.0705   19.5158 H   0  0  0  0  0  0  0  0  0  0  0  0
   19.1843   18.3443   18.4382 H   0  0  0  0  0  0  0  0  0  0  0  0
   17.7625   18.3098   17.3409 H   0  0  0  0  0  0  0  0  0  0  0  0
   18.8628   19.7297   17.3409 H   0  0  0  0  0  0  0  0  0  0  0  0
   17.9588   19.8208   21.1748 H   0  0  0  0  0  0  0  0  0  0  0  0
   19.4090   19.5293   20.1557 H   0  0  0  0  0  0  0  0  0  0  0  0
   18.6210   21.1435   20.1557 H   0  0  0  0  0  0  0  0  0  0  0  0
   17.6296   21.4429   17.9989 H   0  0  0  0  0  0  0  0  0  0  0  0
   15.0644   20.1086   17.9045 H   0  0  0  0  0  0  0  0  0  0  0  0
   14.4147   20.7342   19.2733 H   0  0  0  0  0  0  0  0  0  0  0  0
   14.7343   22.5598   21.5511 H   0  0  0  0  0  0  0  0  0  0  0  0
   13.7902   23.2488   20.1610 H   0  0  0  0  0  0  0  0  0  0  0  0
   11.9720   22.2303   20.9266 H   0  0  0  0  0  0  0  0  0  0  0  0
   12.7956   20.6399   20.6353 H   0  0  0  0  0  0  0  0  0  0  0  0
   11.3866   19.9655   22.3876 H   0  0  0  0  0  0  0  0  0  0  0  0
   11.6511   19.1415   24.6494 H   0  0  0  0  0  0  0  0  0  0  0  0
   12.7210   20.5609   25.0075 H   0  0  0  0  0  0  0  0  0  0  0  0
   10.7067   20.9302   26.1449 H   0  0  0  0  0  0  0  0  0  0  0  0
   10.7014   22.0020   24.7035 H   0  0  0  0  0  0  0  0  0  0  0  0
    9.7285   20.4920   24.7035 H   0  0  0  0  0  0  0  0  0  0  0  0
  1  2  2  0
  1  6  1  0
  2  3  1  0
  3  4  2  0
  4  5  1  0
  4 10  1  0
  5  6  2  0
  5  8  1  0
  6  7  1  0
  8  9  2  0
  9 10  1  0
 11 10  1  0
 11 12  1  0
 11 21  1  0
 12 13  1  0
 12 14  1  0
 14 15  1  0
 14 20  1  0
 15 16  1  0
 16 17  2  0
 16 18  1  1
 16 19  1  0
 20 21  1  0
 20 22  1  0
 22 23  1  0
 23 24  1  0
 24 25  2  0
 24 26  1  6
 24 27  1  0
 27 28  1  0
 28 29  2  0
 28 30  1  1
 28 31  1  0
 31 33  1  0
 32 33  1  1
 32 34  1  0
 32 35  1  0
 32 36  1  0
 36 37  1  0
 36 38  1  0
 38 39  2  0
 38 40  1  0
 40 41  1  0
 41 42  1  0
 42 43  1  0
 43 44  2  0
 43 45  1  0
 45 46  1  0
 46 47  1  0
  2 48  1  0
  7 49  1  0
  7 50  1  0
  9 51  1  0
 11 52  1  6
 12 53  1  1
 13 54  1  0
 14 55  1  1
 20 56  1  6
 22 57  1  0
 22 58  1  0
 33 59  1  0
 33 60  1  0
 34 61  1  0
 34 62  1  0
 34 63  1  0
 35 64  1  0
 35 65  1  0
 35 66  1  0
 36 67  1  6
 37 68  1  0
 40 69  1  0
 41 70  1  0
 41 71  1  0
 42 72  1  0
 42 73  1  0
 45 74  1  0
 46 75  1  0
 46 76  1  0
 47 77  1  0
 47 78  1  0
 47 79  1  0
M  CHG  4  18  -1  19  -1  26  -1  30  -1
M  END
>  <filename_input>  (8) 
7MSR_DCA_docked.sdf

>  <pdb_id>  (8) 
7MSR_DCA

>  <pose_rank>  (8) 
7

>  <num_atoms_heavy>  (8) 
47

>  <num_torsions>  (8) 
17

>  <pose>  (8) 
[14.083583575734202, 15.240184889081085, 20.76646035672885, -2.367552262421413, 0.7178685520202684, 1.8088778570063975, -3.188064714853545, -0.013231641963230983, -1.5382348308570573, 1.0705760041500052, 3.0494938747762848, -1.9610545238035384, -3.174030888770591, 2.092493118192988, -0.9956950501491336, 0.8791514984182551, 3.300614830330831, 1.0961025338853005, -0.6304451607887633, -0.6302921722431754, 1.5063296511328954, 0.11213788508767186, -3.1318280111741585]

>  <energy>  (8) 
-701.995311411221

>  <inter_energy>  (8) 
-753.4498167529212

>  <intra_energy>  (8) 
48.416084844337725

>  <rmsd>  (8) 
11.9415

>  <sdf_rank>  (8) 
0

$$$$

     RDKit          3D

 79 81  0  0  0  0  0  0  0  0999 V2000
   16.6174   22.5025   12.3936 N   0  0  0  0  0  0  0  0  0  0  0  0
   15.7017   23.3211   12.9232 C   0  0  0  0  0  0  0  0  0  0  0  0
   15.4057   23.5237   14.2105 N   0  0  0  0  0  0  0  0  0  0  0  0
   16.1674   22.7678   15.0066 C   0  0  0  0  0  0  0  0  0  0  0  0
   17.1539   21.8744   14.6153 C   0  0  0  0  0  0  0  0  0  0  0  0
   17.3758   21.7593   13.2273 C   0  0  0  0  0  0  0  0  0  0  0  0
   18.3161   20.9347   12.7308 N   0  0  0  0  0  0  0  0  0  0  0  0
   17.7282   21.2679   15.7129 N   0  0  0  0  0  0  0  0  0  0  0  0
   17.1008   21.7936   16.7324 C   0  0  0  0  0  0  0  0  0  0  0  0
   16.1426   22.7120   16.3808 N   0  0  0  0  0  0  0  0  0  0  0  0
   15.2627   23.4710   17.2541 C   0  0  1  0  0  0  0  0  0  0  0  0
   14.0382   22.7234   17.7685 C   0  0  2  0  0  0  0  0  0  0  0  0
   13.0268   22.7153   16.7697 O   0  0  0  0  0  0  0  0  0  0  0  0
   13.6718   23.6061   18.9613 C   0  0  2  0  0  0  0  0  0  0  0  0
   12.8337   24.6783   18.4852 O   0  0  0  0  0  0  0  0  0  0  0  0
   11.7950   25.4876   19.3790 P   0  0  1  0  0  0  0  0  0  0  0  0
   12.5070   26.4415   20.2809 O   0  0  0  0  0  0  0  0  0  0  0  0
   10.8429   26.1850   18.4036 O   0  0  0  0  0  0  0  0  0  0  0  0
   11.0113   24.4205   20.1550 O   0  0  0  0  0  0  0  0  0  0  0  0
   15.0087   24.2159   19.4123 C   0  0  2  0  0  0  0  0  0  0  0  0
   15.9793   23.8414   18.4117 O   0  0  0  0  0  0  0  0  0  0  0  0
   15.4690   23.7510   20.7704 C   0  0  0  0  0  0  0  0  0  0  0  0
   14.3021   23.5055   21.5691 O   0  0  0  0  0  0  0  0  0  0  0  0
   14.2585   22.3632   22.6665 P   0  0  2  0  0  0  0  0  0  0  0  0
   13.7790   22.8753   23.9658 O   0  0  0  0  0  0  0  0  0  0  0  0
   15.6260   21.6804   22.6295 O   0  0  0  0  0  0  0  0  0  0  0  0
   13.2011   21.3471   22.0527 O   0  0  0  0  0  0  0  0  0  0  0  0
   13.2876   20.0354   21.1579 P   0  0  2  0  0  0  0  0  0  0  0  0
   14.6272   19.8326   20.5857 O   0  0  0  0  0  0  0  0  0  0  0  0
   12.0752   20.0690   20.1829 O   0  0  0  0  0  0  0  0  0  0  0  0
   13.0352   18.8677   22.1934 O   0  0  0  0  0  0  0  0  0  0  0  0
   13.3678   16.4756   22.0225 C   0  0  2  0  0  0  0  0  0  0  0  0
   13.9848   17.8170   22.4070 C   0  0  0  0  0  0  0  0  0  0  0  0
   11.9583   16.7085   21.4545 C   0  0  0  0  0  0  0  0  0  0  0  0
   13.2739   15.5764   23.2668 C   0  0  0  0  0  0  0  0  0  0  0  0
   14.2417   15.7887   20.9415 C   0  0  1  0  0  0  0  0  0  0  0  0
   15.6194   16.0616   21.1555 O   0  0  0  0  0  0  0  0  0  0  0  0
   14.0275   14.2885   20.7827 C   0  0  0  0  0  0  0  0  0  0  0  0
   12.8996   13.8145   20.8603 O   0  0  0  0  0  0  0  0  0  0  0  0
   15.1171   13.5563   20.5513 N   0  0  0  0  0  0  0  0  0  0  0  0
   15.0710   12.1115   20.3725 C   0  0  0  0  0  0  0  0  0  0  0  0
   14.9167   11.7194   18.9073 C   0  0  0  0  0  0  0  0  0  0  0  0
   13.8635   10.6627   18.7171 C   0  0  0  0  0  0  0  0  0  0  0  0
   14.1308    9.5546   18.2596 O   0  0  0  0  0  0  0  0  0  0  0  0
   12.6376   11.0222   19.0884 N   0  0  0  0  0  0  0  0  0  0  0  0
   11.5502   10.0525   19.0826 C   0  0  0  0  0  0  0  0  0  0  0  0
   10.2992   10.6393   18.5732 C   0  0  0  0  0  0  0  0  0  0  0  0
   15.1128   23.9066   12.2018 H   0  0  0  0  0  0  0  0  0  0  0  0
   18.8936   20.3687   13.3688 H   0  0  0  0  0  0  0  0  0  0  0  0
   18.4584   20.8696   11.7127 H   0  0  0  0  0  0  0  0  0  0  0  0
   17.3205   21.5248   17.7762 H   0  0  0  0  0  0  0  0  0  0  0  0
   14.9165   24.3092   16.6315 H   0  0  0  0  0  0  0  0  0  0  0  0
   14.1855   21.6645   18.0275 H   0  0  0  0  0  0  0  0  0  0  0  0
   12.1361   22.7082   17.2019 H   0  0  0  0  0  0  0  0  0  0  0  0
   13.1549   23.0552   19.7609 H   0  0  0  0  0  0  0  0  0  0  0  0
   14.8868   25.3048   19.5090 H   0  0  0  0  0  0  0  0  0  0  0  0
   16.0553   22.8257   20.6702 H   0  0  0  0  0  0  0  0  0  0  0  0
   16.1041   24.5148   21.2429 H   0  0  0  0  0  0  0  0  0  0  0  0
   14.8761   17.9993   21.7888 H   0  0  0  0  0  0  0  0  0  0  0  0
   14.2684   17.7947   23.4696 H   0  0  0  0  0  0  0  0  0  0  0  0
   11.2441   16.8266   22.2828 H   0  0  0  0  0  0  0  0  0  0  0  0
   11.9576   17.6190   20.8372 H   0  0  0  0  0  0  0  0  0  0  0  0
   11.6647   15.8467   20.8372 H   0  0  0  0  0  0  0  0  0  0  0  0
   13.3386   16.1964   24.1730 H   0  0  0  0  0  0  0  0  0  0  0  0
   12.3146   15.0381   23.2586 H   0  0  0  0  0  0  0  0  0  0  0  0
   14.1012   14.8514   23.2586 H   0  0  0  0  0  0  0  0  0  0  0  0
   13.9033   16.2339   19.9942 H   0  0  0  0  0  0  0  0  0  0  0  0
   15.8016   16.0976   22.1279 H   0  0  0  0  0  0  0  0  0  0  0  0
   16.0291   14.0317   20.4967 H   0  0  0  0  0  0  0  0  0  0  0  0
   16.0040   11.6763   20.7598 H   0  0  0  0  0  0  0  0  0  0  0  0
   14.1957   11.7304   20.9190 H   0  0  0  0  0  0  0  0  0  0  0  0
   14.6343   12.6112   18.3285 H   0  0  0  0  0  0  0  0  0  0  0  0
   15.8771   11.3096   18.5613 H   0  0  0  0  0  0  0  0  0  0  0  0
   12.4560   11.9927   19.3818 H   0  0  0  0  0  0  0  0  0  0  0  0
   11.8327    9.2042   18.4419 H   0  0  0  0  0  0  0  0  0  0  0  0
   11.3781    9.7245   20.1183 H   0  0  0  0  0  0  0  0  0  0  0  0
    9.6629   10.9377   19.4195 H   0  0  0  0  0  0  0  0  0  0  0  0
   10.5314   11.5224   17.9598 H   0  0  0  0  0  0  0  0  0  0  0  0
    9.7687    9.8961   17.9598 H   0  0  0  0  0  0  0  0  0  0  0  0
  1  2  2  0
  1  6  1  0
  2  3  1  0
  3  4  2  0
  4  5  1  0
  4 10  1  0
  5  6  2  0
  5  8  1  0
  6  7  1  0
  8  9  2  0
  9 10  1  0
 11 10  1  0
 11 12  1  0
 11 21  1  0
 12 13  1  0
 12 14  1  0
 14 15  1  0
 14 20  1  0
 15 16  1  0
 16 17  2  0
 16 18  1  6
 16 19  1  0
 20 21  1  0
 20 22  1  0
 22 23  1  0
 23 24  1  0
 24 25  2  0
 24 26  1  1
 24 27  1  0
 27 28  1  0
 28 29  2  0
 28 30  1  6
 28 31  1  0
 31 33  1  0
 32 33  1  1
 32 34  1  0
 32 35  1  0
 32 36  1  0
 36 37  1  0
 36 38  1  0
 38 39  2  0
 38 40  1  0
 40 41  1  0
 41 42  1  0
 42 43  1  0
 43 44  2  0
 43 45  1  0
 45 46  1  0
 46 47  1  0
  2 48  1  0
  7 49  1  0
  7 50  1  0
  9 51  1  0
 11 52  1  6
 12 53  1  1
 13 54  1  0
 14 55  1  1
 20 56  1  1
 22 57  1  0
 22 58  1  0
 33 59  1  0
 33 60  1  0
 34 61  1  0
 34 62  1  0
 34 63  1  0
 35 64  1  0
 35 65  1  0
 35 66  1  0
 36 67  1  6
 37 68  1  0
 40 69  1  0
 41 70  1  0
 41 71  1  0
 42 72  1  0
 42 73  1  0
 45 74  1  0
 46 75  1  0
 46 76  1  0
 47 77  1  0
 47 78  1  0
 47 79  1  0
M  CHG  4  18  -1  19  -1  26  -1  30  -1
M  END
>  <filename_input>  (9) 
7MSR_DCA_docked.sdf

>  <pdb_id>  (9) 
7MSR_DCA

>  <pose_rank>  (9) 
8

>  <num_atoms_heavy>  (9) 
47

>  <num_torsions>  (9) 
17

>  <pose>  (9) 
[14.258494481988466, 22.36316820160825, 22.66652263699276, -2.225539644988544, -4.347677945661563, 0.27583860186023035, 0.012635192836470353, 4.814391849132992, -3.167853747887098, 1.656355406665734, 1.1440115370773312, -0.40834253401286913, -4.0457384406954615, 0.2345328669888169, 0.9198041195772125, -1.4336450828799108, -0.8709147351721989, -9.510381554956837, 0.08529805437877258, 0.6950763147190674, -0.9951516242822991, -5.240997146361471, 0.3647912312507815]

>  <energy>  (9) 
-658.7151632187929

>  <inter_energy>  (9) 
-692.3998519113027

>  <intra_energy>  (9) 
31.548343006168853

>  <rmsd>  (9) 
4.71422

>  <sdf_rank>  (9) 
0

$$$$

     RDKit          3D

 79 81  0  0  0  0  0  0  0  0999 V2000
   16.0003   23.0928   13.1827 N   0  0  0  0  0  0  0  0  0  0  0  0
   15.1155   23.1752   14.1824 C   0  0  0  0  0  0  0  0  0  0  0  0
   15.1759   22.6276   15.3999 N   0  0  0  0  0  0  0  0  0  0  0  0
   16.2972   21.9179   15.5559 C   0  0  0  0  0  0  0  0  0  0  0  0
   17.3064   21.7358   14.6217 C   0  0  0  0  0  0  0  0  0  0  0  0
   17.1267   22.3745   13.3773 C   0  0  0  0  0  0  0  0  0  0  0  0
   18.0455   22.2807   12.3987 N   0  0  0  0  0  0  0  0  0  0  0  0
   18.3084   20.9375   15.1331 N   0  0  0  0  0  0  0  0  0  0  0  0
   17.9056   20.6572   16.3449 C   0  0  0  0  0  0  0  0  0  0  0  0
   16.6959   21.2187   16.6714 N   0  0  0  0  0  0  0  0  0  0  0  0
   15.9604   21.1044   17.9201 C   0  0  1  0  0  0  0  0  0  0  0  0
   16.0022   22.3302   18.8250 C   0  0  2  0  0  0  0  0  0  0  0  0
   17.2222   22.3462   19.5543 O   0  0  0  0  0  0  0  0  0  0  0  0
   14.7945   22.0414   19.7163 C   0  0  2  0  0  0  0  0  0  0  0  0
   15.2313   21.2051   20.8065 O   0  0  0  0  0  0  0  0  0  0  0  0
   15.1078   21.5804   22.3481 P   0  0  1  0  0  0  0  0  0  0  0  0
   14.2963   20.5594   23.0756 O   0  0  0  0  0  0  0  0  0  0  0  0
   16.5400   21.6933   22.8775 O   0  0  0  0  0  0  0  0  0  0  0  0
   14.4610   22.9718   22.3752 O   0  0  0  0  0  0  0  0  0  0  0  0
   13.8537   21.2095   18.8300 C   0  0  2  0  0  0  0  0  0  0  0  0
   14.5938   20.9112   17.6271 O   0  0  0  0  0  0  0  0  0  0  0  0
   12.5649   21.9073   18.4776 C   0  0  0  0  0  0  0  0  0  0  0  0
   12.0897   22.5734   19.6567 O   0  0  0  0  0  0  0  0  0  0  0  0
   10.8653   22.0228   20.4987 P   0  0  2  0  0  0  0  0  0  0  0  0
    9.6088   22.7140   20.1472 O   0  0  0  0  0  0  0  0  0  0  0  0
   11.3066   22.0454   21.9624 O   0  0  0  0  0  0  0  0  0  0  0  0
   10.8009   20.5010   20.0432 O   0  0  0  0  0  0  0  0  0  0  0  0
   10.2117   19.1624   20.6676 P   0  0  2  0  0  0  0  0  0  0  0  0
    9.8499   18.1746   19.6398 O   0  0  0  0  0  0  0  0  0  0  0  0
    9.1194   19.5812   21.6937 O   0  0  0  0  0  0  0  0  0  0  0  0
   11.4304   18.5704   21.4825 O   0  0  0  0  0  0  0  0  0  0  0  0
   12.2376   16.3550   22.0322 C   0  0  2  0  0  0  0  0  0  0  0  0
   12.2149   17.4751   20.9965 C   0  0  0  0  0  0  0  0  0  0  0  0
   11.9483   16.9428   23.4230 C   0  0  0  0  0  0  0  0  0  0  0  0
   13.6234   15.6878   22.0389 C   0  0  0  0  0  0  0  0  0  0  0  0
   11.1494   15.3047   21.6906 C   0  0  1  0  0  0  0  0  0  0  0  0
   10.9943   15.1751   20.2843 O   0  0  0  0  0  0  0  0  0  0  0  0
   11.3446   13.9312   22.3206 C   0  0  0  0  0  0  0  0  0  0  0  0
   11.1996   13.7800   23.5285 O   0  0  0  0  0  0  0  0  0  0  0  0
   11.6635   12.9388   21.4898 N   0  0  0  0  0  0  0  0  0  0  0  0
   11.8767   11.5710   21.9427 C   0  0  0  0  0  0  0  0  0  0  0  0
   12.3899   10.6700   20.8251 C   0  0  0  0  0  0  0  0  0  0  0  0
   13.7418   11.1051   20.3296 C   0  0  0  0  0  0  0  0  0  0  0  0
   14.6892   11.2748   21.0927 O   0  0  0  0  0  0  0  0  0  0  0  0
   13.8248   11.2801   19.0134 N   0  0  0  0  0  0  0  0  0  0  0  0
   15.1075   11.5710   18.3867 C   0  0  0  0  0  0  0  0  0  0  0  0
   15.2901   13.0152   18.1633 C   0  0  0  0  0  0  0  0  0  0  0  0
   14.2168   23.7745   13.9743 H   0  0  0  0  0  0  0  0  0  0  0  0
   18.9042   21.7321   12.5494 H   0  0  0  0  0  0  0  0  0  0  0  0
   17.8902   22.7574   11.4990 H   0  0  0  0  0  0  0  0  0  0  0  0
   18.4830   20.0292   17.0393 H   0  0  0  0  0  0  0  0  0  0  0  0
   16.4467   20.2711   18.4484 H   0  0  0  0  0  0  0  0  0  0  0  0
   15.9615   23.3087   18.3242 H   0  0  0  0  0  0  0  0  0  0  0  0
   17.0266   22.3436   20.5248 H   0  0  0  0  0  0  0  0  0  0  0  0
   14.3239   22.9538   20.1112 H   0  0  0  0  0  0  0  0  0  0  0  0
   13.5492   20.3092   19.3838 H   0  0  0  0  0  0  0  0  0  0  0  0
   12.7436   22.6424   17.6790 H   0  0  0  0  0  0  0  0  0  0  0  0
   11.8201   21.1810   18.1203 H   0  0  0  0  0  0  0  0  0  0  0  0
   11.7757   17.0983   20.0610 H   0  0  0  0  0  0  0  0  0  0  0  0
   13.2432   17.8191   20.8115 H   0  0  0  0  0  0  0  0  0  0  0  0
   12.2936   16.2412   24.1966 H   0  0  0  0  0  0  0  0  0  0  0  0
   12.4780   17.9005   23.5338 H   0  0  0  0  0  0  0  0  0  0  0  0
   10.8664   17.1073   23.5338 H   0  0  0  0  0  0  0  0  0  0  0  0
   13.9497   15.5306   23.0776 H   0  0  0  0  0  0  0  0  0  0  0  0
   13.5661   14.7185   21.5219 H   0  0  0  0  0  0  0  0  0  0  0  0
   14.3454   16.3369   21.5219 H   0  0  0  0  0  0  0  0  0  0  0  0
   10.2312   15.7062   22.1441 H   0  0  0  0  0  0  0  0  0  0  0  0
   10.2493   14.5527   20.0904 H   0  0  0  0  0  0  0  0  0  0  0  0
   11.7633   13.1478   20.4861 H   0  0  0  0  0  0  0  0  0  0  0  0
   12.6140   11.5785   22.7590 H   0  0  0  0  0  0  0  0  0  0  0  0
   10.9094   11.1720   22.2821 H   0  0  0  0  0  0  0  0  0  0  0  0
   12.4649    9.6402   21.2046 H   0  0  0  0  0  0  0  0  0  0  0  0
   11.6827   10.7326   19.9849 H   0  0  0  0  0  0  0  0  0  0  0  0
   12.9765   11.2095   18.4334 H   0  0  0  0  0  0  0  0  0  0  0  0
   15.9141   11.2067   19.0400 H   0  0  0  0  0  0  0  0  0  0  0  0
   15.1336   11.0670   17.4093 H   0  0  0  0  0  0  0  0  0  0  0  0
   15.3553   13.5308   19.1327 H   0  0  0  0  0  0  0  0  0  0  0  0
   16.2167   13.1840   17.5951 H   0  0  0  0  0  0  0  0  0  0  0  0
   14.4346   13.4093   17.5951 H   0  0  0  0  0  0  0  0  0  0  0  0
  1  2  2  0
  1  6  1  0
  2  3  1  0
  3  4  2  0
  4  5  1  0
  4 10  1  0
  5  6  2  0
  5  8  1  0
  6  7  1  0
  8  9  2  0
  9 10  1  0
 11 10  1  0
 11 12  1  0
 11 21  1  0
 12 13  1  0
 12 14  1  0
 14 15  1  0
 14 20  1  0
 15 16  1  0
 16 17  2  0
 16 18  1  1
 16 19  1  0
 20 21  1  0
 20 22  1  0
 22 23  1  0
 23 24  1  0
 24 25  2  0
 24 26  1  1
 24 27  1  0
 27 28  1  0
 28 29  2  0
 28 30  1  1
 28 31  1  0
 31 33  1  0
 32 33  1  6
 32 34  1  0
 32 35  1  0
 32 36  1  0
 36 37  1  0
 36 38  1  0
 38 39  2  0
 38 40  1  0
 40 41  1  0
 41 42  1  0
 42 43  1  0
 43 44  2  0
 43 45  1  0
 45 46  1  0
 46 47  1  0
  2 48  1  0
  7 49  1  0
  7 50  1  0
  9 51  1  0
 11 52  1  1
 12 53  1  6
 13 54  1  0
 14 55  1  1
 20 56  1  1
 22 57  1  0
 22 58  1  0
 33 59  1  0
 33 60  1  0
 34 61  1  0
 34 62  1  0
 34 63  1  0
 35 64  1  0
 35 65  1  0
 35 66  1  0
 36 67  1  1
 37 68  1  0
 40 69  1  0
 41 70  1  0
 41 71  1  0
 42 72  1  0
 42 73  1  0
 45 74  1  0
 46 75  1  0
 46 76  1  0
 47 77  1  0
 47 78  1  0
 47 79  1  0
M  CHG  4  18  -1  19  -1  26  -1  30  -1
M  END
>  <filename_input>  (10) 
7MSR_DCA_docked.sdf

>  <pdb_id>  (10) 
7MSR_DCA

>  <pose_rank>  (10) 
9

>  <num_atoms_heavy>  (10) 
47

>  <num_torsions>  (10) 
17

>  <pose>  (10) 
[10.865302506901353, 22.02278318650976, 20.498736689740827, 2.2088059458444267, -4.9220057357409575, -3.0179270538736582, -30.3027388179274, -36.28515308090615, -34.254171605907395, -23.604971072999355, 13.243495275934853, -0.42363642797108964, -3.5020358319091454, -4.387522585168785, 4.362953761063146, 1.5512333219028593, -0.1362998555752622, -7.191719296458747, -23.165268621338104, -5.75935639314036, 2.2286664915443284, 0.4398055485124304, 1.179013874329753]

>  <energy>  (10) 
-670.3278191649343

>  <inter_energy>  (10) 
-696.0271529451134

>  <intra_energy>  (10) 
24.316544306817224

>  <rmsd>  (10) 
4.60603

>  <sdf_rank>  (10) 
0

$$$$

     RDKit          3D

 79 81  0  0  0  0  0  0  0  0999 V2000
    6.3361    6.3677   15.8135 N   0  0  0  0  0  0  0  0  0  0  0  0
    6.8492    7.5941   15.6660 C   0  0  0  0  0  0  0  0  0  0  0  0
    7.5932    8.2981   16.5243 N   0  0  0  0  0  0  0  0  0  0  0  0
    7.8025    7.6170   17.6546 C   0  0  0  0  0  0  0  0  0  0  0  0
    7.3413    6.3447   17.9599 C   0  0  0  0  0  0  0  0  0  0  0  0
    6.5741    5.7042   16.9649 C   0  0  0  0  0  0  0  0  0  0  0  0
    6.0851    4.4633   17.1430 N   0  0  0  0  0  0  0  0  0  0  0  0
    7.7502    5.9657   19.2215 N   0  0  0  0  0  0  0  0  0  0  0  0
    8.4429    6.9872   19.6527 C   0  0  0  0  0  0  0  0  0  0  0  0
    8.5190    8.0242   18.7559 N   0  0  0  0  0  0  0  0  0  0  0  0
    9.1955    9.3010   18.9146 C   0  0  1  0  0  0  0  0  0  0  0  0
    9.5302    9.6969   20.3479 C   0  0  2  0  0  0  0  0  0  0  0  0
    8.3767   10.2390   20.9773 O   0  0  0  0  0  0  0  0  0  0  0  0
   10.6022   10.7545   20.0861 C   0  0  2  0  0  0  0  0  0  0  0  0
    9.9427   12.0194   19.8766 O   0  0  0  0  0  0  0  0  0  0  0  0
   10.5569   13.4393   20.2501 P   0  0  1  0  0  0  0  0  0  0  0  0
   11.1851   13.4019   21.6044 O   0  0  0  0  0  0  0  0  0  0  0  0
   11.5530   13.7807   19.1386 O   0  0  0  0  0  0  0  0  0  0  0  0
    9.3800   14.4213   20.1762 O   0  0  0  0  0  0  0  0  0  0  0  0
   11.2434   10.3297   18.7553 C   0  0  2  0  0  0  0  0  0  0  0  0
   10.4390    9.2427   18.2504 O   0  0  0  0  0  0  0  0  0  0  0  0
   12.6796    9.8887   18.8785 C   0  0  0  0  0  0  0  0  0  0  0  0
   13.4805   11.0586   19.1013 O   0  0  0  0  0  0  0  0  0  0  0  0
   14.6546   11.0847   20.1653 P   0  0  2  0  0  0  0  0  0  0  0  0
   15.9592   10.7832   19.5430 O   0  0  0  0  0  0  0  0  0  0  0  0
   14.1986   10.2039   21.3288 O   0  0  0  0  0  0  0  0  0  0  0  0
   14.6207   12.5929   20.6667 O   0  0  0  0  0  0  0  0  0  0  0  0
   15.2897   13.9541   20.1886 P   0  0  2  0  0  0  0  0  0  0  0  0
   14.9000   14.3212   18.8188 O   0  0  0  0  0  0  0  0  0  0  0  0
   16.8083   13.8532   20.5129 O   0  0  0  0  0  0  0  0  0  0  0  0
   14.6643   15.0317   21.1618 O   0  0  0  0  0  0  0  0  0  0  0  0
   14.9198   17.2989   21.9721 C   0  0  2  0  0  0  0  0  0  0  0  0
   15.4736   15.8774   21.9872 C   0  0  0  0  0  0  0  0  0  0  0  0
   14.3479   17.6364   23.3587 C   0  0  0  0  0  0  0  0  0  0  0  0
   13.8027   17.4053   20.9202 C   0  0  0  0  0  0  0  0  0  0  0  0
   16.0559   18.2993   21.6363 C   0  0  1  0  0  0  0  0  0  0  0  0
   17.1138   17.6505   20.9445 O   0  0  0  0  0  0  0  0  0  0  0  0
   15.6255   19.5472   20.8753 C   0  0  0  0  0  0  0  0  0  0  0  0
   14.7959   20.3093   21.3587 O   0  0  0  0  0  0  0  0  0  0  0  0
   16.2045   19.7477   19.6915 N   0  0  0  0  0  0  0  0  0  0  0  0
   15.9000   20.8977   18.8512 C   0  0  0  0  0  0  0  0  0  0  0  0
   15.8119   20.5230   17.3760 C   0  0  0  0  0  0  0  0  0  0  0  0
   16.7793   21.3126   16.5377 C   0  0  0  0  0  0  0  0  0  0  0  0
   17.9281   21.5371   16.9100 O   0  0  0  0  0  0  0  0  0  0  0  0
   16.2946   21.7340   15.3726 N   0  0  0  0  0  0  0  0  0  0  0  0
   17.1632   22.3941   14.4069 C   0  0  0  0  0  0  0  0  0  0  0  0
   17.2298   21.6516   13.1368 C   0  0  0  0  0  0  0  0  0  0  0  0
    6.6292    8.0901   14.7092 H   0  0  0  0  0  0  0  0  0  0  0  0
    6.2679    3.9590   18.0223 H   0  0  0  0  0  0  0  0  0  0  0  0
    5.5279    4.0178   16.4001 H   0  0  0  0  0  0  0  0  0  0  0  0
    8.9210    7.0136   20.6430 H   0  0  0  0  0  0  0  0  0  0  0  0
    8.4856   10.0384   18.5118 H   0  0  0  0  0  0  0  0  0  0  0  0
    9.8589    8.8860   21.0145 H   0  0  0  0  0  0  0  0  0  0  0  0
    8.4829   10.1891   21.9603 H   0  0  0  0  0  0  0  0  0  0  0  0
   11.3279   10.8435   20.9080 H   0  0  0  0  0  0  0  0  0  0  0  0
   11.2678   11.1981   18.0806 H   0  0  0  0  0  0  0  0  0  0  0  0
   12.7867    9.1951   19.7255 H   0  0  0  0  0  0  0  0  0  0  0  0
   13.0022    9.3709   17.9631 H   0  0  0  0  0  0  0  0  0  0  0  0
   15.4681   15.4944   23.0184 H   0  0  0  0  0  0  0  0  0  0  0  0
   16.5031   15.8849   21.5997 H   0  0  0  0  0  0  0  0  0  0  0  0
   15.0171   17.2415   24.1373 H   0  0  0  0  0  0  0  0  0  0  0  0
   14.2652   18.7281   23.4654 H   0  0  0  0  0  0  0  0  0  0  0  0
   13.3523   17.1811   23.4654 H   0  0  0  0  0  0  0  0  0  0  0  0
   12.8303   17.4979   21.4261 H   0  0  0  0  0  0  0  0  0  0  0  0
   13.9746   18.2911   20.2911 H   0  0  0  0  0  0  0  0  0  0  0  0
   13.8043   16.5030   20.2911 H   0  0  0  0  0  0  0  0  0  0  0  0
   16.4005   18.6594   22.6169 H   0  0  0  0  0  0  0  0  0  0  0  0
   17.7469   17.2623   21.5991 H   0  0  0  0  0  0  0  0  0  0  0  0
   16.8957   19.0611   19.3573 H   0  0  0  0  0  0  0  0  0  0  0  0
   14.9360   21.3227   19.1674 H   0  0  0  0  0  0  0  0  0  0  0  0
   16.7151   21.6272   18.9672 H   0  0  0  0  0  0  0  0  0  0  0  0
   16.0386   19.4522   17.2670 H   0  0  0  0  0  0  0  0  0  0  0  0
   14.7939   20.7506   17.0269 H   0  0  0  0  0  0  0  0  0  0  0  0
   15.2985   21.5927   15.1518 H   0  0  0  0  0  0  0  0  0  0  0  0
   16.7742   23.4039   14.2095 H   0  0  0  0  0  0  0  0  0  0  0  0
   18.1770   22.4379   14.8317 H   0  0  0  0  0  0  0  0  0  0  0  0
   17.3262   20.5759   13.3455 H   0  0  0  0  0  0  0  0  0  0  0  0
   16.3119   21.8320   12.5581 H   0  0  0  0  0  0  0  0  0  0  0  0
   18.1010   21.9924   12.5581 H   0  0  0  0  0  0  0  0  0  0  0  0
  1  2  2  0
  1  6  1  0
  2  3  1  0
  3  4  2  0
  4  5  1  0
  4 10  1  0
  5  6  2  0
  5  8  1  0
  6  7  1  0
  8  9  2  0
  9 10  1  0
 11 10  1  0
 11 12  1  0
 11 21  1  0
 12 13  1  0
 12 14  1  0
 14 15  1  0
 14 20  1  0
 15 16  1  0
 16 17  2  0
 16 18  1  6
 16 19  1  0
 20 21  1  0
 20 22  1  0
 22 23  1  0
 23 24  1  0
 24 25  2  0
 24 26  1  1
 24 27  1  0
 27 28  1  0
 28 29  2  0
 28 30  1  6
 28 31  1  0
 31 33  1  0
 32 33  1  1
 32 34  1  0
 32 35  1  0
 32 36  1  0
 36 37  1  0
 36 38  1  0
 38 39  2  0
 38 40  1  0
 40 41  1  0
 41 42  1  0
 42 43  1  0
 43 44  2  0
 43 45  1  0
 45 46  1  0
 46 47  1  0
  2 48  1  0
  7 49  1  0
  7 50  1  0
  9 51  1  0
 11 52  1  6
 12 53  1  1
 13 54  1  0
 14 55  1  1
 20 56  1  6
 22 57  1  0
 22 58  1  0
 33 59  1  0
 33 60  1  0
 34 61  1  0
 34 62  1  0
 34 63  1  0
 35 64  1  0
 35 65  1  0
 35 66  1  0
 36 67  1  1
 37 68  1  0
 40 69  1  0
 41 70  1  0
 41 71  1  0
 42 72  1  0
 42 73  1  0
 45 74  1  0
 46 75  1  0
 46 76  1  0
 47 77  1  0
 47 78  1  0
 47 79  1  0
M  CHG  4  18  -1  19  -1  26  -1  30  -1
M  END
>  <filename_input>  (11) 
7MSR_DCA_docked.sdf

>  <pdb_id>  (11) 
7MSR_DCA

>  <pose_rank>  (11) 
10

>  <num_atoms_heavy>  (11) 
47

>  <num_torsions>  (11) 
17

>  <pose>  (11) 
[14.65457416724625, 11.08469551339781, 20.16525042248646, -0.19774569742646597, -1.0287220128455323, 3.0515512820171242, -3.1690091039884236, -0.2057934361589064, 1.1018508839004593, -0.16627678817782465, -3.249175108596222, -0.6246939406895688, -3.6860094855468533, -3.8014793131442457, 1.116772499685353, 1.352205498314012, 3.640407944469013, 2.453771496805895, -0.08018020467353791, -0.021768020050698167, 0.08607839739621538, 0.9294216873370534, -1.7132507769219534]

>  <energy>  (11) 
-676.4085793287732

>  <inter_energy>  (11) 
-686.7506590462382

>  <intra_energy>  (11) 
11.413813431354487

>  <rmsd>  (11) 
12.88

>  <sdf_rank>  (11) 
0

$$$$

     RDKit          3D

 79 81  0  0  0  0  0  0  0  0999 V2000
    9.7231   14.6222   19.9495 N   0  0  0  0  0  0  0  0  0  0  0  0
    9.6915   15.9456   19.7579 C   0  0  0  0  0  0  0  0  0  0  0  0
   10.2189   16.9130   20.5142 N   0  0  0  0  0  0  0  0  0  0  0  0
   10.8379   16.4067   21.5846 C   0  0  0  0  0  0  0  0  0  0  0  0
   10.9575   15.0668   21.9236 C   0  0  0  0  0  0  0  0  0  0  0  0
   10.3645   14.1441   21.0370 C   0  0  0  0  0  0  0  0  0  0  0  0
   10.4282   12.8178   21.2551 N   0  0  0  0  0  0  0  0  0  0  0  0
   11.6597   14.9209   23.1018 N   0  0  0  0  0  0  0  0  0  0  0  0
   11.9549   16.1458   23.4509 C   0  0  0  0  0  0  0  0  0  0  0  0
   11.4909   17.0987   22.5781 N   0  0  0  0  0  0  0  0  0  0  0  0
   11.6327   18.5427   22.6663 C   0  0  1  0  0  0  0  0  0  0  0  0
   12.2479   19.0677   23.9582 C   0  0  2  0  0  0  0  0  0  0  0  0
   11.2581   19.1106   24.9777 O   0  0  0  0  0  0  0  0  0  0  0  0
   12.6732   20.4624   23.5003 C   0  0  2  0  0  0  0  0  0  0  0  0
   11.5480   21.3496   23.6600 O   0  0  0  0  0  0  0  0  0  0  0  0
   11.6522   22.8985   24.0105 P   0  0  1  0  0  0  0  0  0  0  0  0
   12.9204   23.4761   23.4734 O   0  0  0  0  0  0  0  0  0  0  0  0
   10.4004   23.5557   23.4230 O   0  0  0  0  0  0  0  0  0  0  0  0
   11.5759   22.9730   25.5414 O   0  0  0  0  0  0  0  0  0  0  0  0
   12.9423   20.3066   21.9950 C   0  0  2  0  0  0  0  0  0  0  0  0
   12.5013   18.9780   21.6432 O   0  0  0  0  0  0  0  0  0  0  0  0
   14.3882   20.4848   21.6077 C   0  0  0  0  0  0  0  0  0  0  0  0
   15.0305   19.2054   21.7082 O   0  0  0  0  0  0  0  0  0  0  0  0
   15.8519   18.5791   20.5064 P   0  0  2  0  0  0  0  0  0  0  0  0
   17.3066   18.7451   20.6971 O   0  0  0  0  0  0  0  0  0  0  0  0
   15.2318   19.1385   19.2257 O   0  0  0  0  0  0  0  0  0  0  0  0
   15.4582   17.0415   20.5950 O   0  0  0  0  0  0  0  0  0  0  0  0
   15.8425   15.8340   21.5558 P   0  0  2  0  0  0  0  0  0  0  0  0
   15.1589   15.9106   22.8558 O   0  0  0  0  0  0  0  0  0  0  0  0
   17.3949   15.7266   21.5530 O   0  0  0  0  0  0  0  0  0  0  0  0
   15.2750   14.5676   20.7983 O   0  0  0  0  0  0  0  0  0  0  0  0
   14.3602   13.2892   18.9569 C   0  0  2  0  0  0  0  0  0  0  0  0
   14.5501   14.6743   19.5677 C   0  0  0  0  0  0  0  0  0  0  0  0
   15.1642   13.1954   17.6499 C   0  0  0  0  0  0  0  0  0  0  0  0
   12.8695   13.0589   18.6561 C   0  0  0  0  0  0  0  0  0  0  0  0
   14.8711   12.2080   19.9438 C   0  0  1  0  0  0  0  0  0  0  0  0
   13.7974   11.6625   20.6976 O   0  0  0  0  0  0  0  0  0  0  0  0
   15.6900   11.0855   19.3185 C   0  0  0  0  0  0  0  0  0  0  0  0
   16.9148   11.1402   19.3208 O   0  0  0  0  0  0  0  0  0  0  0  0
   15.0016   10.0706   18.7963 N   0  0  0  0  0  0  0  0  0  0  0  0
   15.6441    8.9237   18.1692 C   0  0  0  0  0  0  0  0  0  0  0  0
   15.7786    7.7462   19.1281 C   0  0  0  0  0  0  0  0  0  0  0  0
   15.5576    6.4298   18.4347 C   0  0  0  0  0  0  0  0  0  0  0  0
   14.4441    5.9180   18.3528 O   0  0  0  0  0  0  0  0  0  0  0  0
   16.6533    5.8792   17.9186 N   0  0  0  0  0  0  0  0  0  0  0  0
   16.5611    4.6730   17.1067 C   0  0  0  0  0  0  0  0  0  0  0  0
   17.7870    3.8617   17.1945 C   0  0  0  0  0  0  0  0  0  0  0  0
    9.1598   16.2833   18.8561 H   0  0  0  0  0  0  0  0  0  0  0  0
   10.9181   12.4554   22.0855 H   0  0  0  0  0  0  0  0  0  0  0  0
    9.9870   12.1651   20.5916 H   0  0  0  0  0  0  0  0  0  0  0  0
   12.5230   16.3905   24.3605 H   0  0  0  0  0  0  0  0  0  0  0  0
   10.6029   18.9232   22.5973 H   0  0  0  0  0  0  0  0  0  0  0  0
   13.0668   18.4713   24.3869 H   0  0  0  0  0  0  0  0  0  0  0  0
   11.6971   19.0915   25.8648 H   0  0  0  0  0  0  0  0  0  0  0  0
   13.5380   20.8525   24.0571 H   0  0  0  0  0  0  0  0  0  0  0  0
   12.4020   21.0979   21.4547 H   0  0  0  0  0  0  0  0  0  0  0  0
   14.4556   20.8572   20.5748 H   0  0  0  0  0  0  0  0  0  0  0  0
   14.8767   21.2131   22.2716 H   0  0  0  0  0  0  0  0  0  0  0  0
   13.5659   15.1258   19.7617 H   0  0  0  0  0  0  0  0  0  0  0  0
   15.1161   15.3055   18.8667 H   0  0  0  0  0  0  0  0  0  0  0  0
   16.2317   13.0709   17.8843 H   0  0  0  0  0  0  0  0  0  0  0  0
   14.8140   12.3320   17.0651 H   0  0  0  0  0  0  0  0  0  0  0  0
   15.0222   14.1162   17.0651 H   0  0  0  0  0  0  0  0  0  0  0  0
   12.3137   12.9730   19.6014 H   0  0  0  0  0  0  0  0  0  0  0  0
   12.4772   13.9071   18.0758 H   0  0  0  0  0  0  0  0  0  0  0  0
   12.7515   12.1319   18.0758 H   0  0  0  0  0  0  0  0  0  0  0  0
   15.5687   12.7471   20.6015 H   0  0  0  0  0  0  0  0  0  0  0  0
   13.9895   11.7601   21.6639 H   0  0  0  0  0  0  0  0  0  0  0  0
   13.9728   10.0985   18.8379 H   0  0  0  0  0  0  0  0  0  0  0  0
   15.0424    8.6094   17.3037 H   0  0  0  0  0  0  0  0  0  0  0  0
   16.6558    9.2281   17.8627 H   0  0  0  0  0  0  0  0  0  0  0  0
   16.7895    7.7543   19.5617 H   0  0  0  0  0  0  0  0  0  0  0  0
   15.0111    7.8531   19.9088 H   0  0  0  0  0  0  0  0  0  0  0  0
   17.5729    6.3086   18.0943 H   0  0  0  0  0  0  0  0  0  0  0  0
   15.7097    4.0714   17.4576 H   0  0  0  0  0  0  0  0  0  0  0  0
   16.4248    4.9755   16.0579 H   0  0  0  0  0  0  0  0  0  0  0  0
   18.0407    3.6938   18.2517 H   0  0  0  0  0  0  0  0  0  0  0  0
   17.6224    2.8936   16.6988 H   0  0  0  0  0  0  0  0  0  0  0  0
   18.6138    4.3915   16.6988 H   0  0  0  0  0  0  0  0  0  0  0  0
  1  2  2  0
  1  6  1  0
  2  3  1  0
  3  4  2  0
  4  5  1  0
  4 10  1  0
  5  6  2  0
  5  8  1  0
  6  7  1  0
  8  9  2  0
  9 10  1  0
 11 10  1  0
 11 12  1  0
 11 21  1  0
 12 13  1  0
 12 14  1  0
 14 15  1  0
 14 20  1  0
 15 16  1  0
 16 17  2  0
 16 18  1  6
 16 19  1  0
 20 21  1  0
 20 22  1  0
 22 23  1  0
 23 24  1  0
 24 25  2  0
 24 26  1  6
 24 27  1  0
 27 28  1  0
 28 29  2  0
 28 30  1  1
 28 31  1  0
 31 33  1  0
 32 33  1  1
 32 34  1  0
 32 35  1  0
 32 36  1  0
 36 37  1  0
 36 38  1  0
 38 39  2  0
 38 40  1  0
 40 41  1  0
 41 42  1  0
 42 43  1  0
 43 44  2  0
 43 45  1  0
 45 46  1  0
 46 47  1  0
  2 48  1  0
  7 49  1  0
  7 50  1  0
  9 51  1  0
 11 52  1  6
 12 53  1  1
 13 54  1  0
 14 55  1  1
 20 56  1  6
 22 57  1  0
 22 58  1  0
 33 59  1  0
 33 60  1  0
 34 61  1  0
 34 62  1  0
 34 63  1  0
 35 64  1  0
 35 65  1  0
 35 66  1  0
 36 67  1  1
 37 68  1  0
 40 69  1  0
 41 70  1  0
 41 71  1  0
 42 72  1  0
 42 73  1  0
 45 74  1  0
 46 75  1  0
 46 76  1  0
 47 77  1  0
 47 78  1  0
 47 79  1  0
M  CHG  4  18  -1  19  -1  26  -1  30  -1
M  END
>  <filename_input>  (12) 
7MSR_DCA_docked.sdf

>  <pdb_id>  (12) 
7MSR_DCA

>  <pose_rank>  (12) 
11

>  <num_atoms_heavy>  (12) 
47

>  <num_torsions>  (12) 
17

>  <pose>  (12) 
[15.851865494000954, 18.579149044119873, 20.506375313988098, -0.5314942724931415, -2.7830684752335277, -0.4309200121711973, 3.3447975346543304, 0.06776990398018629, -1.0859701219214115, 0.38571972058052006, -0.8888390384161537, 0.6744025020392118, -3.046466080361003, 0.32553762120657315, -0.5414224956893677, -0.9469944053825832, -1.0828082768743204, 2.5674293789055014, -0.26511272945236336, 2.79800542879596, 0.28419396614366543, 0.9110552880739659, -0.41889571495293193]

>  <energy>  (12) 
-679.4158872831856

>  <inter_energy>  (12) 
-701.1581930643861

>  <intra_energy>  (12) 
21.514004356509993

>  <rmsd>  (12) 
6.28273

>  <sdf_rank>  (12) 
0

$$$$

     RDKit          3D

 79 81  0  0  0  0  0  0  0  0999 V2000
   16.2168   10.8144   18.9672 N   0  0  0  0  0  0  0  0  0  0  0  0
   16.0984   12.0532   19.4577 C   0  0  0  0  0  0  0  0  0  0  0  0
   15.1243   12.5621   20.2179 N   0  0  0  0  0  0  0  0  0  0  0  0
   14.1824   11.6492   20.4723 C   0  0  0  0  0  0  0  0  0  0  0  0
   14.1588   10.3314   20.0395 C   0  0  0  0  0  0  0  0  0  0  0  0
   15.2511    9.9145   19.2508 C   0  0  0  0  0  0  0  0  0  0  0  0
   15.3435    8.6552   18.7858 N   0  0  0  0  0  0  0  0  0  0  0  0
   13.0264    9.6876   20.4931 N   0  0  0  0  0  0  0  0  0  0  0  0
   12.3955   10.6008   21.1841 C   0  0  0  0  0  0  0  0  0  0  0  0
   13.0377   11.8140   21.2169 N   0  0  0  0  0  0  0  0  0  0  0  0
   12.6143   13.0367   21.8795 C   0  0  1  0  0  0  0  0  0  0  0  0
   13.7291   14.0104   22.2429 C   0  0  2  0  0  0  0  0  0  0  0  0
   14.3618   13.5882   23.4438 O   0  0  0  0  0  0  0  0  0  0  0  0
   12.9120   15.2880   22.4330 C   0  0  2  0  0  0  0  0  0  0  0  0
   12.4289   15.3135   23.7912 O   0  0  0  0  0  0  0  0  0  0  0  0
   11.9887   16.6259   24.5766 P   0  0  1  0  0  0  0  0  0  0  0  0
   12.7178   17.8207   24.0562 O   0  0  0  0  0  0  0  0  0  0  0  0
   10.4703   16.7341   24.4124 O   0  0  0  0  0  0  0  0  0  0  0  0
   12.3062   16.3409   26.0507 O   0  0  0  0  0  0  0  0  0  0  0  0
   11.7006   15.1106   21.5037 C   0  0  2  0  0  0  0  0  0  0  0  0
   11.7681   13.7561   21.0093 O   0  0  0  0  0  0  0  0  0  0  0  0
   11.6672   16.0762   20.3467 C   0  0  0  0  0  0  0  0  0  0  0  0
   11.3918   17.3826   20.8730 O   0  0  0  0  0  0  0  0  0  0  0  0
   10.2769   18.3223   20.2522 P   0  0  2  0  0  0  0  0  0  0  0  0
    9.5883   19.1105   21.2937 O   0  0  0  0  0  0  0  0  0  0  0  0
    9.4221   17.4339   19.3479 O   0  0  0  0  0  0  0  0  0  0  0  0
   11.1292   19.2800   19.3122 O   0  0  0  0  0  0  0  0  0  0  0  0
   11.7429   20.7404   19.4518 P   0  0  2  0  0  0  0  0  0  0  0  0
   10.8348   21.6680   20.1430 O   0  0  0  0  0  0  0  0  0  0  0  0
   12.2711   21.1482   18.0460 O   0  0  0  0  0  0  0  0  0  0  0  0
   12.9978   20.5229   20.3886 O   0  0  0  0  0  0  0  0  0  0  0  0
   15.3233   20.9106   20.9396 C   0  0  2  0  0  0  0  0  0  0  0  0
   14.3325   20.4517   19.8740 C   0  0  0  0  0  0  0  0  0  0  0  0
   15.0079   20.2008   22.2663 C   0  0  0  0  0  0  0  0  0  0  0  0
   15.2029   22.4316   21.1339 C   0  0  0  0  0  0  0  0  0  0  0  0
   16.7663   20.5484   20.5027 C   0  0  1  0  0  0  0  0  0  0  0  0
   16.8789   19.1588   20.2296 O   0  0  0  0  0  0  0  0  0  0  0  0
   17.3178   21.3543   19.3331 C   0  0  0  0  0  0  0  0  0  0  0  0
   17.9763   22.3679   19.5381 O   0  0  0  0  0  0  0  0  0  0  0  0
   17.0498   20.8872   18.1138 N   0  0  0  0  0  0  0  0  0  0  0  0
   17.5132   21.5449   16.8996 C   0  0  0  0  0  0  0  0  0  0  0  0
   16.3910   21.7326   15.8848 C   0  0  0  0  0  0  0  0  0  0  0  0
   16.9208   21.9025   14.4874 C   0  0  0  0  0  0  0  0  0  0  0  0
   16.2462   22.4084   13.5943 O   0  0  0  0  0  0  0  0  0  0  0  0
   18.1664   21.4718   14.3058 N   0  0  0  0  0  0  0  0  0  0  0  0
   18.8478   21.6968   13.0378 C   0  0  0  0  0  0  0  0  0  0  0  0
   20.2524   21.2570   13.0881 C   0  0  0  0  0  0  0  0  0  0  0  0
   16.9127   12.7465   19.2005 H   0  0  0  0  0  0  0  0  0  0  0  0
   14.6056    7.9704   19.0034 H   0  0  0  0  0  0  0  0  0  0  0  0
   16.1522    8.3761   18.2122 H   0  0  0  0  0  0  0  0  0  0  0  0
   11.4381   10.4143   21.6925 H   0  0  0  0  0  0  0  0  0  0  0  0
   12.1417   12.6929   22.8114 H   0  0  0  0  0  0  0  0  0  0  0  0
   14.5473   14.1100   21.5145 H   0  0  0  0  0  0  0  0  0  0  0  0
   13.8528   13.9279   24.2220 H   0  0  0  0  0  0  0  0  0  0  0  0
   13.4881   16.2016   22.2246 H   0  0  0  0  0  0  0  0  0  0  0  0
   10.7831   15.3164   22.0744 H   0  0  0  0  0  0  0  0  0  0  0  0
   12.6395   16.0775   19.8323 H   0  0  0  0  0  0  0  0  0  0  0  0
   10.8924   15.7823   19.6234 H   0  0  0  0  0  0  0  0  0  0  0  0
   14.5586   19.4138   19.5881 H   0  0  0  0  0  0  0  0  0  0  0  0
   14.4175   21.1059   18.9938 H   0  0  0  0  0  0  0  0  0  0  0  0
   15.2961   20.8494   23.1067 H   0  0  0  0  0  0  0  0  0  0  0  0
   13.9302   19.9873   22.3208 H   0  0  0  0  0  0  0  0  0  0  0  0
   15.5717   19.2579   22.3208 H   0  0  0  0  0  0  0  0  0  0  0  0
   15.1845   22.6636   22.2090 H   0  0  0  0  0  0  0  0  0  0  0  0
   16.0644   22.9304   20.6659 H   0  0  0  0  0  0  0  0  0  0  0  0
   14.2737   22.7886   20.6659 H   0  0  0  0  0  0  0  0  0  0  0  0
   17.3896   20.8231   21.3664 H   0  0  0  0  0  0  0  0  0  0  0  0
   16.9196   18.6571   21.0821 H   0  0  0  0  0  0  0  0  0  0  0  0
   16.4920   20.0257   18.0266 H   0  0  0  0  0  0  0  0  0  0  0  0
   17.9207   22.5318   17.1643 H   0  0  0  0  0  0  0  0  0  0  0  0
   18.2816   20.9057   16.4404 H   0  0  0  0  0  0  0  0  0  0  0  0
   15.7359   20.8494   15.9117 H   0  0  0  0  0  0  0  0  0  0  0  0
   15.8382   22.6450   16.1529 H   0  0  0  0  0  0  0  0  0  0  0  0
   18.6523   20.9761   15.0667 H   0  0  0  0  0  0  0  0  0  0  0  0
   18.3266   21.1352   12.2485 H   0  0  0  0  0  0  0  0  0  0  0  0
   18.8342   22.7766   12.8282 H   0  0  0  0  0  0  0  0  0  0  0  0
   20.5683   21.1581   14.1371 H   0  0  0  0  0  0  0  0  0  0  0  0
   20.3507   20.2851   12.5824 H   0  0  0  0  0  0  0  0  0  0  0  0
   20.8874   21.9993   12.5824 H   0  0  0  0  0  0  0  0  0  0  0  0
  1  2  2  0
  1  6  1  0
  2  3  1  0
  3  4  2  0
  4  5  1  0
  4 10  1  0
  5  6  2  0
  5  8  1  0
  6  7  1  0
  8  9  2  0
  9 10  1  0
 11 10  1  0
 11 12  1  0
 11 21  1  0
 12 13  1  0
 12 14  1  0
 14 15  1  0
 14 20  1  0
 15 16  1  0
 16 17  2  0
 16 18  1  1
 16 19  1  0
 20 21  1  0
 20 22  1  0
 22 23  1  0
 23 24  1  0
 24 25  2  0
 24 26  1  6
 24 27  1  0
 27 28  1  0
 28 29  2  0
 28 30  1  6
 28 31  1  0
 31 33  1  0
 32 33  1  6
 32 34  1  0
 32 35  1  0
 32 36  1  0
 36 37  1  0
 36 38  1  0
 38 39  2  0
 38 40  1  0
 40 41  1  0
 41 42  1  0
 42 43  1  0
 43 44  2  0
 43 45  1  0
 45 46  1  0
 46 47  1  0
  2 48  1  0
  7 49  1  0
  7 50  1  0
  9 51  1  0
 11 52  1  1
 12 53  1  6
 13 54  1  0
 14 55  1  6
 20 56  1  1
 22 57  1  0
 22 58  1  0
 33 59  1  0
 33 60  1  0
 34 61  1  0
 34 62  1  0
 34 63  1  0
 35 64  1  0
 35 65  1  0
 35 66  1  0
 36 67  1  1
 37 68  1  0
 40 69  1  0
 41 70  1  0
 41 71  1  0
 42 72  1  0
 42 73  1  0
 45 74  1  0
 46 75  1  0
 46 76  1  0
 47 77  1  0
 47 78  1  0
 47 79  1  0
M  CHG  4  18  -1  19  -1  26  -1  30  -1
M  END
>  <filename_input>  (13) 
7MSR_DCA_docked.sdf

>  <pdb_id>  (13) 
7MSR_DCA

>  <pose_rank>  (13) 
12

>  <num_atoms_heavy>  (13) 
47

>  <num_torsions>  (13) 
17

>  <pose>  (13) 
[10.276880392514348, 18.322252705931064, 20.252171384977675, -3.4519086886265082, 1.5364162215687458, 1.1553205461766054, 84.62899189605135, -8.241759981985037, -55.82587772910709, -62.74241437660128, 8.212391887176551, -1.9918282064203263, -3.0974060118409956, 2.633934244389271, 0.49582736055471693, -2.171502190334786, -1.6761510442952883, -141.19766137768946, 190.00748150899102, -56.51145444344658, 3.116832765933475, 19.924545711666767, -1.4209222150799146]

>  <energy>  (13) 
-681.0991604608055

>  <inter_energy>  (13) 
-708.5220518097367

>  <intra_energy>  (13) 
35.35352478790844

>  <rmsd>  (13) 
10.7431

>  <sdf_rank>  (13) 
0

$$$$

     RDKit          3D

 79 81  0  0  0  0  0  0  0  0999 V2000
   19.0856   21.6572   13.4051 N   0  0  0  0  0  0  0  0  0  0  0  0
   19.0297   21.6304   14.7412 C   0  0  0  0  0  0  0  0  0  0  0  0
   17.9914   21.8933   15.5403 N   0  0  0  0  0  0  0  0  0  0  0  0
   16.9070   22.2213   14.8320 C   0  0  0  0  0  0  0  0  0  0  0  0
   16.8032   22.2950   13.4505 C   0  0  0  0  0  0  0  0  0  0  0  0
   17.9691   21.9845   12.7203 C   0  0  0  0  0  0  0  0  0  0  0  0
   17.9844   22.0087   11.3750 N   0  0  0  0  0  0  0  0  0  0  0  0
   15.5303   22.6706   13.0747 N   0  0  0  0  0  0  0  0  0  0  0  0
   14.8918   22.8109   14.2070 C   0  0  0  0  0  0  0  0  0  0  0  0
   15.6622   22.5533   15.3140 N   0  0  0  0  0  0  0  0  0  0  0  0
   15.2750   22.6221   16.7135 C   0  0  1  0  0  0  0  0  0  0  0  0
   14.5872   23.9119   17.1453 C   0  0  2  0  0  0  0  0  0  0  0  0
   15.5616   24.9215   17.3736 O   0  0  0  0  0  0  0  0  0  0  0  0
   13.9255   23.4379   18.4389 C   0  0  2  0  0  0  0  0  0  0  0  0
   14.8827   23.5744   19.5085 O   0  0  0  0  0  0  0  0  0  0  0  0
   14.5686   24.2022   20.9368 P   0  0  1  0  0  0  0  0  0  0  0  0
   14.4195   23.1279   21.9634 O   0  0  0  0  0  0  0  0  0  0  0  0
   15.7182   25.1660   21.2431 O   0  0  0  0  0  0  0  0  0  0  0  0
   13.2809   25.0152   20.7472 O   0  0  0  0  0  0  0  0  0  0  0  0
   13.6773   21.9376   18.2155 C   0  0  2  0  0  0  0  0  0  0  0  0
   14.3377   21.6009   16.9769 O   0  0  0  0  0  0  0  0  0  0  0  0
   12.2198   21.5610   18.1366 C   0  0  0  0  0  0  0  0  0  0  0  0
   11.9321   20.6866   19.2376 O   0  0  0  0  0  0  0  0  0  0  0  0
   10.5084   20.6487   19.9326 P   0  0  2  0  0  0  0  0  0  0  0  0
    9.5750   21.6104   19.3130 O   0  0  0  0  0  0  0  0  0  0  0  0
   10.7616   20.7676   21.4357 O   0  0  0  0  0  0  0  0  0  0  0  0
   10.0333   19.1591   19.6452 O   0  0  0  0  0  0  0  0  0  0  0  0
    8.6841   18.3456   19.8616 P   0  0  2  0  0  0  0  0  0  0  0  0
    7.8862   18.2425   18.6304 O   0  0  0  0  0  0  0  0  0  0  0  0
    7.9975   18.9320   21.1290 O   0  0  0  0  0  0  0  0  0  0  0  0
    9.1869   16.8904   20.2211 O   0  0  0  0  0  0  0  0  0  0  0  0
   10.5862   15.1902   21.2276 C   0  0  2  0  0  0  0  0  0  0  0  0
   10.4811   16.6462   20.7838 C   0  0  0  0  0  0  0  0  0  0  0  0
    9.3976   14.3983   20.6588 C   0  0  0  0  0  0  0  0  0  0  0  0
   10.5594   15.1168   22.7637 C   0  0  0  0  0  0  0  0  0  0  0  0
   11.9057   14.5749   20.6942 C   0  0  1  0  0  0  0  0  0  0  0  0
   12.0202   14.7613   19.2904 O   0  0  0  0  0  0  0  0  0  0  0  0
   13.1767   15.0505   21.3870 C   0  0  0  0  0  0  0  0  0  0  0  0
   13.7802   14.3040   22.1496 O   0  0  0  0  0  0  0  0  0  0  0  0
   13.5759   16.2907   21.1052 N   0  0  0  0  0  0  0  0  0  0  0  0
   14.7736   16.8829   21.6851 C   0  0  0  0  0  0  0  0  0  0  0  0
   14.7612   18.4048   21.5973 C   0  0  0  0  0  0  0  0  0  0  0  0
   15.8753   18.9260   20.7316 C   0  0  0  0  0  0  0  0  0  0  0  0
   16.7772   18.1977   20.3258 O   0  0  0  0  0  0  0  0  0  0  0  0
   15.7975   20.2219   20.4407 N   0  0  0  0  0  0  0  0  0  0  0  0
   16.7359   20.8260   19.5041 C   0  0  0  0  0  0  0  0  0  0  0  0
   17.6253   21.7924   20.1703 C   0  0  0  0  0  0  0  0  0  0  0  0
   19.9647   21.3548   15.2511 H   0  0  0  0  0  0  0  0  0  0  0  0
   17.1314   22.2587   10.8547 H   0  0  0  0  0  0  0  0  0  0  0  0
   18.8492   21.7772   10.8656 H   0  0  0  0  0  0  0  0  0  0  0  0
   13.8345   23.1080   14.2672 H   0  0  0  0  0  0  0  0  0  0  0  0
   16.2236   22.5381   17.2640 H   0  0  0  0  0  0  0  0  0  0  0  0
   13.8859   24.3567   16.4240 H   0  0  0  0  0  0  0  0  0  0  0  0
   15.6837   25.0480   18.3478 H   0  0  0  0  0  0  0  0  0  0  0  0
   13.0103   23.9970   18.6835 H   0  0  0  0  0  0  0  0  0  0  0  0
   14.0700   21.3809   19.0792 H   0  0  0  0  0  0  0  0  0  0  0  0
   11.5958   22.4645   18.2035 H   0  0  0  0  0  0  0  0  0  0  0  0
   12.0037   21.0600   17.1815 H   0  0  0  0  0  0  0  0  0  0  0  0
   11.2529   16.8540   20.0281 H   0  0  0  0  0  0  0  0  0  0  0  0
   10.6279   17.3023   21.6544 H   0  0  0  0  0  0  0  0  0  0  0  0
    8.7948   13.9967   21.4866 H   0  0  0  0  0  0  0  0  0  0  0  0
    8.7758   15.0633   20.0414 H   0  0  0  0  0  0  0  0  0  0  0  0
    9.7717   13.5684   20.0414 H   0  0  0  0  0  0  0  0  0  0  0  0
   10.9081   16.0723   23.1826 H   0  0  0  0  0  0  0  0  0  0  0  0
    9.5318   14.9207   23.1035 H   0  0  0  0  0  0  0  0  0  0  0  0
   11.2193   14.3049   23.1035 H   0  0  0  0  0  0  0  0  0  0  0  0
   11.8245   13.5048   20.9355 H   0  0  0  0  0  0  0  0  0  0  0  0
   12.5297   15.5903   19.1080 H   0  0  0  0  0  0  0  0  0  0  0  0
   13.0143   16.8534   20.4503 H   0  0  0  0  0  0  0  0  0  0  0  0
   14.8377   16.5892   22.7433 H   0  0  0  0  0  0  0  0  0  0  0  0
   15.6414   16.5178   21.1162 H   0  0  0  0  0  0  0  0  0  0  0  0
   13.7996   18.7287   21.1725 H   0  0  0  0  0  0  0  0  0  0  0  0
   14.9019   18.8059   22.6119 H   0  0  0  0  0  0  0  0  0  0  0  0
   15.0690   20.8021   20.8807 H   0  0  0  0  0  0  0  0  0  0  0  0
   17.3478   20.0322   19.0509 H   0  0  0  0  0  0  0  0  0  0  0  0
   16.1575   21.3638   18.7385 H   0  0  0  0  0  0  0  0  0  0  0  0
   17.5290   21.6878   21.2611 H   0  0  0  0  0  0  0  0  0  0  0  0
   18.6664   21.5974   19.8737 H   0  0  0  0  0  0  0  0  0  0  0  0
   17.3447   22.8138   19.8737 H   0  0  0  0  0  0  0  0  0  0  0  0
  1  2  2  0
  1  6  1  0
  2  3  1  0
  3  4  2  0
  4  5  1  0
  4 10  1  0
  5  6  2  0
  5  8  1  0
  6  7  1  0
  8  9  2  0
  9 10  1  0
 11 10  1  0
 11 12  1  0
 11 21  1  0
 12 13  1  0
 12 14  1  0
 14 15  1  0
 14 20  1  0
 15 16  1  0
 16 17  2  0
 16 18  1  1
 16 19  1  0
 20 21  1  0
 20 22  1  0
 22 23  1  0
 23 24  1  0
 24 25  2  0
 24 26  1  1
 24 27  1  0
 27 28  1  0
 28 29  2  0
 28 30  1  1
 28 31  1  0
 31 33  1  0
 32 33  1  1
 32 34  1  0
 32 35  1  0
 32 36  1  0
 36 37  1  0
 36 38  1  0
 38 39  2  0
 38 40  1  0
 40 41  1  0
 41 42  1  0
 42 43  1  0
 43 44  2  0
 43 45  1  0
 45 46  1  0
 46 47  1  0
  2 48  1  0
  7 49  1  0
  7 50  1  0
  9 51  1  0
 11 52  1  1
 12 53  1  6
 13 54  1  0
 14 55  1  1
 20 56  1  1
 22 57  1  0
 22 58  1  0
 33 59  1  0
 33 60  1  0
 34 61  1  0
 34 62  1  0
 34 63  1  0
 35 64  1  0
 35 65  1  0
 35 66  1  0
 36 67  1  6
 37 68  1  0
 40 69  1  0
 41 70  1  0
 41 71  1  0
 42 72  1  0
 42 73  1  0
 45 74  1  0
 46 75  1  0
 46 76  1  0
 47 77  1  0
 47 78  1  0
 47 79  1  0
M  CHG  4  18  -1  19  -1  26  -1  30  -1
M  END
>  <filename_input>  (14) 
7MSR_DCA_docked.sdf

>  <pdb_id>  (14) 
7MSR_DCA

>  <pose_rank>  (14) 
13

>  <num_atoms_heavy>  (14) 
47

>  <num_torsions>  (14) 
17

>  <pose>  (14) 
[10.508432061619041, 20.648659480112897, 19.932634261572545, 3.094184480386854, 0.9718889279669636, 5.012681037499572, 7.917731515465847, 0.4774827208752337, -0.6179311566959617, -5.87744156299136, -4.987680247023819, 4.333391250525776, -2.853402412924537, 2.1159725979160813, 1.2247120223229984, 0.45637049780827227, -0.4195316601654696, -5.491938196053401, -18.73204412657299, -7.064898121439276, 5.805568961896351, 0.6691707470999557, 0.8614506938674218]

>  <energy>  (14) 
-636.300801124066

>  <inter_energy>  (14) 
-652.139432110741

>  <intra_energy>  (14) 
20.608193148426704

>  <rmsd>  (14) 
6.65177

>  <sdf_rank>  (14) 
0

$$$$

     RDKit          3D

 79 81  0  0  0  0  0  0  0  0999 V2000
    9.9946   10.0122   18.5973 N   0  0  0  0  0  0  0  0  0  0  0  0
    9.9429   11.1769   17.9416 C   0  0  0  0  0  0  0  0  0  0  0  0
   10.0054   12.4175   18.4344 N   0  0  0  0  0  0  0  0  0  0  0  0
   10.1320   12.4038   19.7644 C   0  0  0  0  0  0  0  0  0  0  0  0
   10.1995   11.2873   20.5849 C   0  0  0  0  0  0  0  0  0  0  0  0
   10.1316   10.0348   19.9402 C   0  0  0  0  0  0  0  0  0  0  0  0
   10.2007    8.8825   20.6317 N   0  0  0  0  0  0  0  0  0  0  0  0
   10.3241   11.6586   21.9075 N   0  0  0  0  0  0  0  0  0  0  0  0
   10.3362   12.9655   21.8719 C   0  0  0  0  0  0  0  0  0  0  0  0
   10.2256   13.4873   20.6067 N   0  0  0  0  0  0  0  0  0  0  0  0
   10.1967   14.8858   20.2112 C   0  0  1  0  0  0  0  0  0  0  0  0
    9.2157   15.7675   20.9750 C   0  0  2  0  0  0  0  0  0  0  0  0
    7.9073   15.5990   20.4454 O   0  0  0  0  0  0  0  0  0  0  0  0
    9.7985   17.1449   20.6603 C   0  0  2  0  0  0  0  0  0  0  0  0
    9.2439   17.5909   19.4064 O   0  0  0  0  0  0  0  0  0  0  0  0
    8.9834   19.1115   19.0155 P   0  0  1  0  0  0  0  0  0  0  0  0
   10.2755   19.8294   18.8024 O   0  0  0  0  0  0  0  0  0  0  0  0
    8.1001   19.0870   17.7652 O   0  0  0  0  0  0  0  0  0  0  0  0
    8.1729   19.6956   20.1804 O   0  0  0  0  0  0  0  0  0  0  0  0
   11.2990   16.8873   20.4484 C   0  0  2  0  0  0  0  0  0  0  0  0
   11.4655   15.4535   20.4538 O   0  0  0  0  0  0  0  0  0  0  0  0
   12.1835   17.5088   21.4990 C   0  0  0  0  0  0  0  0  0  0  0  0
   12.9754   16.4629   22.0809 O   0  0  0  0  0  0  0  0  0  0  0  0
   14.1746   16.7669   23.0711 P   0  0  2  0  0  0  0  0  0  0  0  0
   13.8983   16.2623   24.4310 O   0  0  0  0  0  0  0  0  0  0  0  0
   14.4948   18.2535   22.9132 O   0  0  0  0  0  0  0  0  0  0  0  0
   15.3691   15.9491   22.4140 O   0  0  0  0  0  0  0  0  0  0  0  0
   16.3501   16.1807   21.1841 P   0  0  2  0  0  0  0  0  0  0  0  0
   17.7525   16.3248   21.6031 O   0  0  0  0  0  0  0  0  0  0  0  0
   15.7290   17.3109   20.3132 O   0  0  0  0  0  0  0  0  0  0  0  0
   16.2382   14.8321   20.3667 O   0  0  0  0  0  0  0  0  0  0  0  0
   15.1864   12.9152   19.3268 C   0  0  2  0  0  0  0  0  0  0  0  0
   15.0258   14.0717   20.3089 C   0  0  0  0  0  0  0  0  0  0  0  0
   16.6366   12.8784   18.8177 C   0  0  0  0  0  0  0  0  0  0  0  0
   14.2331   13.1143   18.1363 C   0  0  0  0  0  0  0  0  0  0  0  0
   14.8662   11.5758   20.0392 C   0  0  1  0  0  0  0  0  0  0  0  0
   13.8112   11.7403   20.9765 O   0  0  0  0  0  0  0  0  0  0  0  0
   14.5645   10.4003   19.1181 C   0  0  0  0  0  0  0  0  0  0  0  0
   13.4182   10.1949   18.7349 O   0  0  0  0  0  0  0  0  0  0  0  0
   15.6034    9.6441   18.7636 N   0  0  0  0  0  0  0  0  0  0  0  0
   15.4733    8.4899   17.8848 C   0  0  0  0  0  0  0  0  0  0  0  0
   16.0471    7.2241   18.5115 C   0  0  0  0  0  0  0  0  0  0  0  0
   15.8786    6.0281   17.6151 C   0  0  0  0  0  0  0  0  0  0  0  0
   15.2001    6.0738   16.5922 O   0  0  0  0  0  0  0  0  0  0  0  0
   16.5238    4.9352   18.0143 N   0  0  0  0  0  0  0  0  0  0  0  0
   16.5549    3.7470   17.1717 C   0  0  0  0  0  0  0  0  0  0  0  0
   17.9323    3.3689   16.8130 C   0  0  0  0  0  0  0  0  0  0  0  0
    9.8342   11.1036   16.8495 H   0  0  0  0  0  0  0  0  0  0  0  0
   10.3052    8.9022   21.6562 H   0  0  0  0  0  0  0  0  0  0  0  0
   10.1492    7.9808   20.1365 H   0  0  0  0  0  0  0  0  0  0  0  0
   10.4268   13.5899   22.7730 H   0  0  0  0  0  0  0  0  0  0  0  0
    9.8890   14.8649   19.1553 H   0  0  0  0  0  0  0  0  0  0  0  0
    9.1114   15.5639   22.0510 H   0  0  0  0  0  0  0  0  0  0  0  0
    7.2587   15.5155   21.1887 H   0  0  0  0  0  0  0  0  0  0  0  0
    9.5929   17.8881   21.4448 H   0  0  0  0  0  0  0  0  0  0  0  0
   11.6084   17.3541   19.5016 H   0  0  0  0  0  0  0  0  0  0  0  0
   12.8392   18.2622   21.0381 H   0  0  0  0  0  0  0  0  0  0  0  0
   11.5746   18.0037   22.2699 H   0  0  0  0  0  0  0  0  0  0  0  0
   14.7971   13.6729   21.3082 H   0  0  0  0  0  0  0  0  0  0  0  0
   14.2052   14.7223   19.9722 H   0  0  0  0  0  0  0  0  0  0  0  0
   17.3258   12.8609   19.6748 H   0  0  0  0  0  0  0  0  0  0  0  0
   16.7880   11.9761   18.2069 H   0  0  0  0  0  0  0  0  0  0  0  0
   16.8336   13.7718   18.2069 H   0  0  0  0  0  0  0  0  0  0  0  0
   13.2201   13.3259   18.5092 H   0  0  0  0  0  0  0  0  0  0  0  0
   14.5823   13.9589   17.5242 H   0  0  0  0  0  0  0  0  0  0  0  0
   14.2151   12.2006   17.5242 H   0  0  0  0  0  0  0  0  0  0  0  0
   15.8013   11.3108   20.5543 H   0  0  0  0  0  0  0  0  0  0  0  0
   14.1745   11.6837   21.8956 H   0  0  0  0  0  0  0  0  0  0  0  0
   16.5367    9.8859   19.1262 H   0  0  0  0  0  0  0  0  0  0  0  0
   14.4071    8.3269   17.6689 H   0  0  0  0  0  0  0  0  0  0  0  0
   16.0394    8.6991   16.9651 H   0  0  0  0  0  0  0  0  0  0  0  0
   17.1195    7.3767   18.7029 H   0  0  0  0  0  0  0  0  0  0  0  0
   15.5010    7.0290   19.4462 H   0  0  0  0  0  0  0  0  0  0  0  0
   17.0046    4.9291   18.9252 H   0  0  0  0  0  0  0  0  0  0  0  0
   16.0862    2.9129   17.7144 H   0  0  0  0  0  0  0  0  0  0  0  0
   16.0082    3.9706   16.2437 H   0  0  0  0  0  0  0  0  0  0  0  0
   18.5188    3.2079   17.7296 H   0  0  0  0  0  0  0  0  0  0  0  0
   17.9157    2.4421   16.2208 H   0  0  0  0  0  0  0  0  0  0  0  0
   18.3912    4.1743   16.2208 H   0  0  0  0  0  0  0  0  0  0  0  0
  1  2  2  0
  1  6  1  0
  2  3  1  0
  3  4  2  0
  4  5  1  0
  4 10  1  0
  5  6  2  0
  5  8  1  0
  6  7  1  0
  8  9  2  0
  9 10  1  0
 11 10  1  0
 11 12  1  0
 11 21  1  0
 12 13  1  0
 12 14  1  0
 14 15  1  0
 14 20  1  0
 15 16  1  0
 16 17  2  0
 16 18  1  6
 16 19  1  0
 20 21  1  0
 20 22  1  0
 22 23  1  0
 23 24  1  0
 24 25  2  0
 24 26  1  1
 24 27  1  0
 27 28  1  0
 28 29  2  0
 28 30  1  6
 28 31  1  0
 31 33  1  0
 32 33  1  1
 32 34  1  0
 32 35  1  0
 32 36  1  0
 36 37  1  0
 36 38  1  0
 38 39  2  0
 38 40  1  0
 40 41  1  0
 41 42  1  0
 42 43  1  0
 43 44  2  0
 43 45  1  0
 45 46  1  0
 46 47  1  0
  2 48  1  0
  7 49  1  0
  7 50  1  0
  9 51  1  0
 11 52  1  6
 12 53  1  1
 13 54  1  0
 14 55  1  1
 20 56  1  6
 22 57  1  0
 22 58  1  0
 33 59  1  0
 33 60  1  0
 34 61  1  0
 34 62  1  0
 34 63  1  0
 35 64  1  0
 35 65  1  0
 35 66  1  0
 36 67  1  1
 37 68  1  0
 40 69  1  0
 41 70  1  0
 41 71  1  0
 42 72  1  0
 42 73  1  0
 45 74  1  0
 46 75  1  0
 46 76  1  0
 47 77  1  0
 47 78  1  0
 47 79  1  0
M  CHG  4  18  -1  19  -1  26  -1  30  -1
M  END
>  <filename_input>  (15) 
7MSR_DCA_docked.sdf

>  <pdb_id>  (15) 
7MSR_DCA

>  <pose_rank>  (15) 
14

>  <num_atoms_heavy>  (15) 
47

>  <num_torsions>  (15) 
17

>  <pose>  (15) 
[14.17460604927324, 16.766908229929154, 23.071127525316943, 1.2266524582882303, -2.8771780074384337, -2.677026380410515, -0.266982824379831, 0.7500149590776122, -6.754178626190093, -5.8250639054989195, -5.111827815444715, -0.39193232478535145, 0.01678115629467013, 2.7298035859634964, 0.08663813328421066, 0.47349919171997606, 3.6580613526644217, 2.793758638624533, 0.5025418072635792, -2.871767746484557, -0.46548134678491193, 0.9329568044614139, 0.28491702319776174]

>  <energy>  (15) 
-730.3025460204575

>  <inter_energy>  (15) 
-739.9877292988232

>  <intra_energy>  (15) 
15.407621266850716

>  <rmsd>  (15) 
7.90173

>  <sdf_rank>  (15) 
0

$$$$

     RDKit          3D

 79 81  0  0  0  0  0  0  0  0999 V2000
   11.4906   26.8984   13.8915 N   0  0  0  0  0  0  0  0  0  0  0  0
   12.3710   26.2112   14.6275 C   0  0  0  0  0  0  0  0  0  0  0  0
   13.2242   25.2594   14.2380 N   0  0  0  0  0  0  0  0  0  0  0  0
   13.1169   25.0203   12.9278 C   0  0  0  0  0  0  0  0  0  0  0  0
   12.2585   25.6430   12.0334 C   0  0  0  0  0  0  0  0  0  0  0  0
   11.4143   26.6376   12.5691 C   0  0  0  0  0  0  0  0  0  0  0  0
   10.5497   27.3188   11.7950 N   0  0  0  0  0  0  0  0  0  0  0  0
   12.4236   25.1344   10.7619 N   0  0  0  0  0  0  0  0  0  0  0  0
   13.3625   24.2347   10.8977 C   0  0  0  0  0  0  0  0  0  0  0  0
   13.8316   24.1119   12.1822 N   0  0  0  0  0  0  0  0  0  0  0  0
   14.8573   23.2107   12.6815 C   0  0  1  0  0  0  0  0  0  0  0  0
   16.1033   23.8794   13.2502 C   0  0  2  0  0  0  0  0  0  0  0  0
   16.9680   24.2630   12.1893 O   0  0  0  0  0  0  0  0  0  0  0  0
   16.6699   22.7238   14.0747 C   0  0  2  0  0  0  0  0  0  0  0  0
   17.4857   21.9114   13.2069 O   0  0  0  0  0  0  0  0  0  0  0  0
   19.0710   21.7986   13.2900 P   0  0  1  0  0  0  0  0  0  0  0  0
   19.5571   20.6217   12.5097 O   0  0  0  0  0  0  0  0  0  0  0  0
   19.6228   23.1290   12.7708 O   0  0  0  0  0  0  0  0  0  0  0  0
   19.3905   21.6827   14.7865 O   0  0  0  0  0  0  0  0  0  0  0  0
   15.4372   21.8974   14.4748 C   0  0  2  0  0  0  0  0  0  0  0  0
   14.3229   22.4610   13.7507 O   0  0  0  0  0  0  0  0  0  0  0  0
   15.1441   21.9077   15.9534 C   0  0  0  0  0  0  0  0  0  0  0  0
   16.3981   21.9604   16.6492 O   0  0  0  0  0  0  0  0  0  0  0  0
   16.4881   22.2794   18.1989 P   0  0  2  0  0  0  0  0  0  0  0  0
   15.6603   23.4466   18.5628 O   0  0  0  0  0  0  0  0  0  0  0  0
   17.9774   22.3263   18.5414 O   0  0  0  0  0  0  0  0  0  0  0  0
   15.8903   20.9578   18.8496 O   0  0  0  0  0  0  0  0  0  0  0  0
   15.6374   20.4485   20.3347 P   0  0  2  0  0  0  0  0  0  0  0  0
   14.2527   20.6716   20.7773 O   0  0  0  0  0  0  0  0  0  0  0  0
   16.7859   21.0222   21.2142 O   0  0  0  0  0  0  0  0  0  0  0  0
   15.8527   18.8859   20.2282 O   0  0  0  0  0  0  0  0  0  0  0  0
   15.0388   17.0597   21.5938 C   0  0  2  0  0  0  0  0  0  0  0  0
   14.7768   17.9536   20.3854 C   0  0  0  0  0  0  0  0  0  0  0  0
   14.4610   17.7254   22.8533 C   0  0  0  0  0  0  0  0  0  0  0  0
   16.5541   16.8635   21.7703 C   0  0  0  0  0  0  0  0  0  0  0  0
   14.3507   15.6857   21.3868 C   0  0  1  0  0  0  0  0  0  0  0  0
   12.9393   15.8319   21.3154 O   0  0  0  0  0  0  0  0  0  0  0  0
   14.8503   14.8761   20.1967 C   0  0  0  0  0  0  0  0  0  0  0  0
   14.9820   15.4081   19.1000 O   0  0  0  0  0  0  0  0  0  0  0  0
   15.1334   13.5945   20.4295 N   0  0  0  0  0  0  0  0  0  0  0  0
   15.6250   12.6963   19.3936 C   0  0  0  0  0  0  0  0  0  0  0  0
   15.1540   11.2622   19.6071 C   0  0  0  0  0  0  0  0  0  0  0  0
   13.7941   11.2075   20.2473 C   0  0  0  0  0  0  0  0  0  0  0  0
   12.7622   11.3166   19.5901 O   0  0  0  0  0  0  0  0  0  0  0  0
   13.8038   11.0258   21.5653 N   0  0  0  0  0  0  0  0  0  0  0  0
   12.5575   10.8212   22.2915 C   0  0  0  0  0  0  0  0  0  0  0  0
   12.2715   11.9372   23.2089 C   0  0  0  0  0  0  0  0  0  0  0  0
   12.3960   26.4636   15.6979 H   0  0  0  0  0  0  0  0  0  0  0  0
   10.4933   27.1181   10.7863 H   0  0  0  0  0  0  0  0  0  0  0  0
    9.9445   28.0408   12.2111 H   0  0  0  0  0  0  0  0  0  0  0  0
   13.7418   23.6316   10.0597 H   0  0  0  0  0  0  0  0  0  0  0  0
   15.1553   22.6216   11.8016 H   0  0  0  0  0  0  0  0  0  0  0  0
   15.9422   24.8012   13.8284 H   0  0  0  0  0  0  0  0  0  0  0  0
   17.8056   24.6345   12.5642 H   0  0  0  0  0  0  0  0  0  0  0  0
   17.2637   23.0616   14.9368 H   0  0  0  0  0  0  0  0  0  0  0  0
   15.6229   20.8417   14.2276 H   0  0  0  0  0  0  0  0  0  0  0  0
   14.5374   22.7892   16.2083 H   0  0  0  0  0  0  0  0  0  0  0  0
   14.5833   21.0059   16.2401 H   0  0  0  0  0  0  0  0  0  0  0  0
   13.8362   18.5037   20.5355 H   0  0  0  0  0  0  0  0  0  0  0  0
   14.7021   17.3301   19.4823 H   0  0  0  0  0  0  0  0  0  0  0  0
   14.8802   17.2425   23.7484 H   0  0  0  0  0  0  0  0  0  0  0  0
   14.7230   18.7938   22.8564 H   0  0  0  0  0  0  0  0  0  0  0  0
   13.3664   17.6163   22.8564 H   0  0  0  0  0  0  0  0  0  0  0  0
   16.7972   16.8320   22.8427 H   0  0  0  0  0  0  0  0  0  0  0  0
   16.8589   15.9183   21.2973 H   0  0  0  0  0  0  0  0  0  0  0  0
   17.0897   17.6997   21.2973 H   0  0  0  0  0  0  0  0  0  0  0  0
   14.6332   15.1028   22.2759 H   0  0  0  0  0  0  0  0  0  0  0  0
   12.5648   15.8706   22.2310 H   0  0  0  0  0  0  0  0  0  0  0  0
   14.9990   13.2242   21.3812 H   0  0  0  0  0  0  0  0  0  0  0  0
   15.2603   13.0478   18.4172 H   0  0  0  0  0  0  0  0  0  0  0  0
   16.7242   12.7014   19.4347 H   0  0  0  0  0  0  0  0  0  0  0  0
   15.1088   10.7540   18.6325 H   0  0  0  0  0  0  0  0  0  0  0  0
   15.8680   10.7657   20.2806 H   0  0  0  0  0  0  0  0  0  0  0  0
   14.6985   11.0298   22.0756 H   0  0  0  0  0  0  0  0  0  0  0  0
   11.7335   10.7345   21.5680 H   0  0  0  0  0  0  0  0  0  0  0  0
   12.6559    9.9029   22.8892 H   0  0  0  0  0  0  0  0  0  0  0  0
   12.3607   11.5892   24.2486 H   0  0  0  0  0  0  0  0  0  0  0  0
   12.9902   12.7509   23.0316 H   0  0  0  0  0  0  0  0  0  0  0  0
   11.2501   12.3050   23.0316 H   0  0  0  0  0  0  0  0  0  0  0  0
  1  2  2  0
  1  6  1  0
  2  3  1  0
  3  4  2  0
  4  5  1  0
  4 10  1  0
  5  6  2  0
  5  8  1  0
  6  7  1  0
  8  9  2  0
  9 10  1  0
 11 10  1  0
 11 12  1  0
 11 21  1  0
 12 13  1  0
 12 14  1  0
 14 15  1  0
 14 20  1  0
 15 16  1  0
 16 17  2  0
 16 18  1  6
 16 19  1  0
 20 21  1  0
 20 22  1  0
 22 23  1  0
 23 24  1  0
 24 25  2  0
 24 26  1  1
 24 27  1  0
 27 28  1  0
 28 29  2  0
 28 30  1  1
 28 31  1  0
 31 33  1  0
 32 33  1  6
 32 34  1  0
 32 35  1  0
 32 36  1  0
 36 37  1  0
 36 38  1  0
 38 39  2  0
 38 40  1  0
 40 41  1  0
 41 42  1  0
 42 43  1  0
 43 44  2  0
 43 45  1  0
 45 46  1  0
 46 47  1  0
  2 48  1  0
  7 49  1  0
  7 50  1  0
  9 51  1  0
 11 52  1  6
 12 53  1  1
 13 54  1  0
 14 55  1  1
 20 56  1  6
 22 57  1  0
 22 58  1  0
 33 59  1  0
 33 60  1  0
 34 61  1  0
 34 62  1  0
 34 63  1  0
 35 64  1  0
 35 65  1  0
 35 66  1  0
 36 67  1  1
 37 68  1  0
 40 69  1  0
 41 70  1  0
 41 71  1  0
 42 72  1  0
 42 73  1  0
 45 74  1  0
 46 75  1  0
 46 76  1  0
 47 77  1  0
 47 78  1  0
 47 79  1  0
M  CHG  4  18  -1  19  -1  26  -1  30  -1
M  END
>  <filename_input>  (16) 
7MSR_DCA_docked.sdf

>  <pdb_id>  (16) 
7MSR_DCA

>  <pose_rank>  (16) 
15

>  <num_atoms_heavy>  (16) 
47

>  <num_torsions>  (16) 
17

>  <pose>  (16) 
[16.488094169806164, 22.279352629019236, 18.198875364879775, -0.4450221826410059, 1.1045610224786198, -0.35850944485598596, 1.4920774756266684, 0.4340799798538446, -2.9947911584544498, -4.627220601776757, 2.6323178283008106, -2.1320668708437336, 0.7336121499892049, 2.3383602233728653, -2.4640370890337673, 2.075747445295206, -0.4292704766529016, -0.02113239572585875, 0.44305879522821484, 0.6584096524676561, 2.4453520315499997, 0.253381611330144, 1.9402373198908243]

>  <energy>  (16) 
-605.6524165926791

>  <inter_energy>  (16) 
-660.7414533708237

>  <intra_energy>  (16) 
47.11231079415442

>  <rmsd>  (16) 
6.81389

>  <sdf_rank>  (16) 
0

$$$$

     RDKit          3D

 79 81  0  0  0  0  0  0  0  0999 V2000
   14.9638    4.2199   17.5013 N   0  0  0  0  0  0  0  0  0  0  0  0
   14.2626    5.2339   18.0203 C   0  0  0  0  0  0  0  0  0  0  0  0
   14.6977    6.4309   18.4247 N   0  0  0  0  0  0  0  0  0  0  0  0
   16.0183    6.5472   18.2581 C   0  0  0  0  0  0  0  0  0  0  0  0
   16.8810    5.5936   17.7377 C   0  0  0  0  0  0  0  0  0  0  0  0
   16.2951    4.3743   17.3387 C   0  0  0  0  0  0  0  0  0  0  0  0
   17.0305    3.3806   16.8073 N   0  0  0  0  0  0  0  0  0  0  0  0
   18.1777    6.0635   17.7217 N   0  0  0  0  0  0  0  0  0  0  0  0
   18.0857    7.2704   18.2159 C   0  0  0  0  0  0  0  0  0  0  0  0
   16.8071    7.6324   18.5616 N   0  0  0  0  0  0  0  0  0  0  0  0
   16.3543    8.8864   19.1410 C   0  0  1  0  0  0  0  0  0  0  0  0
   15.6694    9.8490   18.1780 C   0  0  2  0  0  0  0  0  0  0  0  0
   16.6493   10.5574   17.4305 O   0  0  0  0  0  0  0  0  0  0  0  0
   14.9380   10.7455   19.1766 C   0  0  2  0  0  0  0  0  0  0  0  0
   15.8448   11.7862   19.5931 O   0  0  0  0  0  0  0  0  0  0  0  0
   15.4350   13.3027   19.8483 P   0  0  1  0  0  0  0  0  0  0  0  0
   14.8255   13.8974   18.6214 O   0  0  0  0  0  0  0  0  0  0  0  0
   14.4801   13.2926   21.0451 O   0  0  0  0  0  0  0  0  0  0  0  0
   16.7337   14.0092   20.2596 O   0  0  0  0  0  0  0  0  0  0  0  0
   14.6744    9.8360   20.3874 C   0  0  2  0  0  0  0  0  0  0  0  0
   15.3876    8.6077   20.1303 O   0  0  0  0  0  0  0  0  0  0  0  0
   13.2160    9.5399   20.6274 C   0  0  0  0  0  0  0  0  0  0  0  0
   12.4508   10.3180   19.6954 O   0  0  0  0  0  0  0  0  0  0  0  0
   10.9876    9.9009   19.2525 P   0  0  2  0  0  0  0  0  0  0  0  0
   10.7091    8.4840   19.5608 O   0  0  0  0  0  0  0  0  0  0  0  0
   10.8312   10.3595   17.8024 O   0  0  0  0  0  0  0  0  0  0  0  0
   10.0811   10.8472   20.1526 O   0  0  0  0  0  0  0  0  0  0  0  0
    9.0864   10.6254   21.3733 P   0  0  2  0  0  0  0  0  0  0  0  0
    9.5984    9.6474   22.3451 O   0  0  0  0  0  0  0  0  0  0  0  0
    7.6726   10.3830   20.7700 O   0  0  0  0  0  0  0  0  0  0  0  0
    9.0645   12.0349   22.0894 O   0  0  0  0  0  0  0  0  0  0  0  0
   10.1444   13.3526   23.8096 C   0  0  2  0  0  0  0  0  0  0  0  0
    9.2231   12.1751   23.5059 C   0  0  0  0  0  0  0  0  0  0  0  0
   11.5941   12.9622   23.4786 C   0  0  0  0  0  0  0  0  0  0  0  0
   10.0419   13.7154   25.3008 C   0  0  0  0  0  0  0  0  0  0  0  0
    9.7382   14.5718   22.9422 C   0  0  1  0  0  0  0  0  0  0  0  0
    8.4083   14.9791   23.2323 O   0  0  0  0  0  0  0  0  0  0  0  0
   10.6766   15.7699   23.0166 C   0  0  0  0  0  0  0  0  0  0  0  0
   10.7005   16.4736   24.0202 O   0  0  0  0  0  0  0  0  0  0  0  0
   11.4498   15.9832   21.9519 N   0  0  0  0  0  0  0  0  0  0  0  0
   12.4001   17.0844   21.8774 C   0  0  0  0  0  0  0  0  0  0  0  0
   13.8414   16.6093   22.0236 C   0  0  0  0  0  0  0  0  0  0  0  0
   14.8243   17.7315   21.8319 C   0  0  0  0  0  0  0  0  0  0  0  0
   15.5374   18.1335   22.7476 O   0  0  0  0  0  0  0  0  0  0  0  0
   14.8607   18.2386   20.6024 N   0  0  0  0  0  0  0  0  0  0  0  0
   15.8591   19.2377   20.2451 C   0  0  0  0  0  0  0  0  0  0  0  0
   15.2365   20.5002   19.8123 C   0  0  0  0  0  0  0  0  0  0  0  0
   13.1821    5.0587   18.1288 H   0  0  0  0  0  0  0  0  0  0  0  0
   18.0461    3.5006   16.6842 H   0  0  0  0  0  0  0  0  0  0  0  0
   16.5779    2.5000   16.5236 H   0  0  0  0  0  0  0  0  0  0  0  0
   18.9530    7.9349   18.3431 H   0  0  0  0  0  0  0  0  0  0  0  0
   17.2737    9.3652   19.5088 H   0  0  0  0  0  0  0  0  0  0  0  0
   15.0114    9.3971   17.4211 H   0  0  0  0  0  0  0  0  0  0  0  0
   17.2745   11.0094   18.0510 H   0  0  0  0  0  0  0  0  0  0  0  0
   14.0220   11.1923   18.7626 H   0  0  0  0  0  0  0  0  0  0  0  0
   15.0153   10.3505   21.2979 H   0  0  0  0  0  0  0  0  0  0  0  0
   13.0208    8.4689   20.4697 H   0  0  0  0  0  0  0  0  0  0  0  0
   12.9373    9.7949   21.6605 H   0  0  0  0  0  0  0  0  0  0  0  0
    8.2404   12.3520   23.9674 H   0  0  0  0  0  0  0  0  0  0  0  0
    9.6645   11.2541   23.9145 H   0  0  0  0  0  0  0  0  0  0  0  0
   12.1555   12.8111   24.4125 H   0  0  0  0  0  0  0  0  0  0  0  0
   11.5985   12.0309   22.8933 H   0  0  0  0  0  0  0  0  0  0  0  0
   12.0656   13.7654   22.8933 H   0  0  0  0  0  0  0  0  0  0  0  0
   10.2908   12.8343   25.9105 H   0  0  0  0  0  0  0  0  0  0  0  0
   10.7452   14.5298   25.5291 H   0  0  0  0  0  0  0  0  0  0  0  0
    9.0165   14.0416   25.5291 H   0  0  0  0  0  0  0  0  0  0  0  0
    9.8122   14.2067   21.9072 H   0  0  0  0  0  0  0  0  0  0  0  0
    8.2817   15.0179   24.2134 H   0  0  0  0  0  0  0  0  0  0  0  0
   11.3720   15.3429   21.1489 H   0  0  0  0  0  0  0  0  0  0  0  0
   12.2884   17.5840   20.9038 H   0  0  0  0  0  0  0  0  0  0  0  0
   12.1851   17.7741   22.7069 H   0  0  0  0  0  0  0  0  0  0  0  0
   13.9761   16.1868   23.0303 H   0  0  0  0  0  0  0  0  0  0  0  0
   14.0314   15.8535   21.2474 H   0  0  0  0  0  0  0  0  0  0  0  0
   14.1784   17.9227   19.8984 H   0  0  0  0  0  0  0  0  0  0  0  0
   16.4945   19.4357   21.1210 H   0  0  0  0  0  0  0  0  0  0  0  0
   16.4535   18.8439   19.4075 H   0  0  0  0  0  0  0  0  0  0  0  0
   14.9466   21.0879   20.6958 H   0  0  0  0  0  0  0  0  0  0  0  0
   15.9543   21.0751   19.2089 H   0  0  0  0  0  0  0  0  0  0  0  0
   14.3433   20.2805   19.2089 H   0  0  0  0  0  0  0  0  0  0  0  0
  1  2  2  0
  1  6  1  0
  2  3  1  0
  3  4  2  0
  4  5  1  0
  4 10  1  0
  5  6  2  0
  5  8  1  0
  6  7  1  0
  8  9  2  0
  9 10  1  0
 11 10  1  0
 11 12  1  0
 11 21  1  0
 12 13  1  0
 12 14  1  0
 14 15  1  0
 14 20  1  0
 15 16  1  0
 16 17  2  0
 16 18  1  1
 16 19  1  0
 20 21  1  0
 20 22  1  0
 22 23  1  0
 23 24  1  0
 24 25  2  0
 24 26  1  6
 24 27  1  0
 27 28  1  0
 28 29  2  0
 28 30  1  6
 28 31  1  0
 31 33  1  0
 32 33  1  1
 32 34  1  0
 32 35  1  0
 32 36  1  0
 36 37  1  0
 36 38  1  0
 38 39  2  0
 38 40  1  0
 40 41  1  0
 41 42  1  0
 42 43  1  0
 43 44  2  0
 43 45  1  0
 45 46  1  0
 46 47  1  0
  2 48  1  0
  7 49  1  0
  7 50  1  0
  9 51  1  0
 11 52  1  1
 12 53  1  6
 13 54  1  0
 14 55  1  6
 20 56  1  1
 22 57  1  0
 22 58  1  0
 33 59  1  0
 33 60  1  0
 34 61  1  0
 34 62  1  0
 34 63  1  0
 35 64  1  0
 35 65  1  0
 35 66  1  0
 36 67  1  6
 37 68  1  0
 40 69  1  0
 41 70  1  0
 41 71  1  0
 42 72  1  0
 42 73  1  0
 45 74  1  0
 46 75  1  0
 46 76  1  0
 47 77  1  0
 47 78  1  0
 47 79  1  0
M  CHG  4  18  -1  19  -1  26  -1  30  -1
M  END
>  <filename_input>  (17) 
7MSR_DCA_docked.sdf

>  <pdb_id>  (17) 
7MSR_DCA

>  <pose_rank>  (17) 
16

>  <num_atoms_heavy>  (17) 
47

>  <num_torsions>  (17) 
17

>  <pose>  (17) 
[10.987555316543201, 9.900915395201535, 19.252500322543117, -2.71832894590033, -1.0467145578816917, 0.25990100891440104, -28.70993147029005, -6.824736270873548, -15.915702458780743, 18.678179522957237, -56.75311562301012, -37.65254141903374, -31.13088570890664, -5.7928560811684155, 12.59570271556103, 2.6180525153176903, -0.5338398591918341, 31.908791673452335, 75.64686385833333, 82.84393847746337, 46.1819242298144, 0.7921437309697823, -1.9474142894455115]

>  <energy>  (17) 
-712.0727298751009

>  <inter_energy>  (17) 
-723.1457201210106

>  <intra_energy>  (17) 
25.641002947788756

>  <rmsd>  (17) 
11.8057

>  <sdf_rank>  (17) 
0

$$$$

     RDKit          3D

 79 81  0  0  0  0  0  0  0  0999 V2000
   12.2375   27.1033   22.8196 N   0  0  0  0  0  0  0  0  0  0  0  0
   12.5245   26.5751   21.6247 C   0  0  0  0  0  0  0  0  0  0  0  0
   13.2790   25.5093   21.3408 N   0  0  0  0  0  0  0  0  0  0  0  0
   13.7774   24.9598   22.4520 C   0  0  0  0  0  0  0  0  0  0  0  0
   13.5755   25.3857   23.7567 C   0  0  0  0  0  0  0  0  0  0  0  0
   12.7509   26.5177   23.9224 C   0  0  0  0  0  0  0  0  0  0  0  0
   12.4727   27.0135   25.1421 N   0  0  0  0  0  0  0  0  0  0  0  0
   14.2519   24.5767   24.6458 N   0  0  0  0  0  0  0  0  0  0  0  0
   14.8369   23.6876   23.8865 C   0  0  0  0  0  0  0  0  0  0  0  0
   14.5929   23.8560   22.5458 N   0  0  0  0  0  0  0  0  0  0  0  0
   15.0892   23.0597   21.4355 C   0  0  1  0  0  0  0  0  0  0  0  0
   16.5969   23.1013   21.2157 C   0  0  2  0  0  0  0  0  0  0  0  0
   16.9462   24.2859   20.5118 O   0  0  0  0  0  0  0  0  0  0  0  0
   16.7742   21.8443   20.3645 C   0  0  2  0  0  0  0  0  0  0  0  0
   16.5498   22.2008   18.9857 O   0  0  0  0  0  0  0  0  0  0  0  0
   17.1974   21.4578   17.7361 P   0  0  1  0  0  0  0  0  0  0  0  0
   18.1073   20.3631   18.1875 O   0  0  0  0  0  0  0  0  0  0  0  0
   16.0289   20.9513   16.8863 O   0  0  0  0  0  0  0  0  0  0  0  0
   17.9380   22.5512   16.9544 O   0  0  0  0  0  0  0  0  0  0  0  0
   15.6297   20.9178   20.8053 C   0  0  2  0  0  0  0  0  0  0  0  0
   14.7916   21.7024   21.6803 O   0  0  0  0  0  0  0  0  0  0  0  0
   16.0881   19.6714   21.5186 C   0  0  0  0  0  0  0  0  0  0  0  0
   14.9363   19.0592   22.1169 O   0  0  0  0  0  0  0  0  0  0  0  0
   14.2663   17.7564   21.5128 P   0  0  2  0  0  0  0  0  0  0  0  0
   15.0690   17.1942   20.4083 O   0  0  0  0  0  0  0  0  0  0  0  0
   12.8092   18.1182   21.2234 O   0  0  0  0  0  0  0  0  0  0  0  0
   14.2741   16.7663   22.7566 O   0  0  0  0  0  0  0  0  0  0  0  0
   13.7061   15.3081   23.0390 P   0  0  2  0  0  0  0  0  0  0  0  0
   12.2631   15.3122   23.3231 O   0  0  0  0  0  0  0  0  0  0  0  0
   14.6529   14.6449   24.0808 O   0  0  0  0  0  0  0  0  0  0  0  0
   13.9136   14.5605   21.6615 O   0  0  0  0  0  0  0  0  0  0  0  0
   13.4113   13.0351   19.8497 C   0  0  2  0  0  0  0  0  0  0  0  0
   13.1943   13.3693   21.3224 C   0  0  0  0  0  0  0  0  0  0  0  0
   12.9272   14.2105   18.9850 C   0  0  0  0  0  0  0  0  0  0  0  0
   12.6134   11.7716   19.4853 C   0  0  0  0  0  0  0  0  0  0  0  0
   14.9206   12.7994   19.5837 C   0  0  1  0  0  0  0  0  0  0  0  0
   15.6659   12.8787   20.7907 O   0  0  0  0  0  0  0  0  0  0  0  0
   15.2618   11.5107   18.8459 C   0  0  0  0  0  0  0  0  0  0  0  0
   14.8601   11.3297   17.7019 O   0  0  0  0  0  0  0  0  0  0  0  0
   16.0113   10.6299   19.5086 N   0  0  0  0  0  0  0  0  0  0  0  0
   16.4230    9.3566   18.9337 C   0  0  0  0  0  0  0  0  0  0  0  0
   15.9972    8.1734   19.7958 C   0  0  0  0  0  0  0  0  0  0  0  0
   14.6282    8.3729   20.3857 C   0  0  0  0  0  0  0  0  0  0  0  0
   14.4601    8.9550   21.4542 O   0  0  0  0  0  0  0  0  0  0  0  0
   13.6291    7.8794   19.6588 N   0  0  0  0  0  0  0  0  0  0  0  0
   12.2453    8.1194   20.0465 C   0  0  0  0  0  0  0  0  0  0  0  0
   11.3159    7.8724   18.9311 C   0  0  0  0  0  0  0  0  0  0  0  0
   12.0793   27.0872   20.7588 H   0  0  0  0  0  0  0  0  0  0  0  0
   12.8655   26.5651   25.9821 H   0  0  0  0  0  0  0  0  0  0  0  0
   11.8670   27.8413   25.2357 H   0  0  0  0  0  0  0  0  0  0  0  0
   15.4669   22.8787   24.2851 H   0  0  0  0  0  0  0  0  0  0  0  0
   14.6012   23.4920   20.5496 H   0  0  0  0  0  0  0  0  0  0  0  0
   17.2222   23.1176   22.1205 H   0  0  0  0  0  0  0  0  0  0  0  0
   17.1580   25.0041   21.1594 H   0  0  0  0  0  0  0  0  0  0  0  0
   17.7687   21.3873   20.4748 H   0  0  0  0  0  0  0  0  0  0  0  0
   15.1011   20.5571   19.9106 H   0  0  0  0  0  0  0  0  0  0  0  0
   16.5499   18.9778   20.8004 H   0  0  0  0  0  0  0  0  0  0  0  0
   16.8335   19.9213   22.2879 H   0  0  0  0  0  0  0  0  0  0  0  0
   13.5553   12.5358   21.9429 H   0  0  0  0  0  0  0  0  0  0  0  0
   12.1213   13.5293   21.5039 H   0  0  0  0  0  0  0  0  0  0  0  0
   12.5896   15.0301   19.6364 H   0  0  0  0  0  0  0  0  0  0  0  0
   13.7532   14.5632   18.3501 H   0  0  0  0  0  0  0  0  0  0  0  0
   12.0923   13.8791   18.3501 H   0  0  0  0  0  0  0  0  0  0  0  0
   12.2920   11.2627   20.4060 H   0  0  0  0  0  0  0  0  0  0  0  0
   11.7294   12.0538   18.8946 H   0  0  0  0  0  0  0  0  0  0  0  0
   13.2482   11.0947   18.8946 H   0  0  0  0  0  0  0  0  0  0  0  0
   15.2070   13.6121   18.9000 H   0  0  0  0  0  0  0  0  0  0  0  0
   15.0505   12.8132   21.5634 H   0  0  0  0  0  0  0  0  0  0  0  0
   16.3118   10.8592   20.4668 H   0  0  0  0  0  0  0  0  0  0  0  0
   15.9663    9.2527   17.9384 H   0  0  0  0  0  0  0  0  0  0  0  0
   17.5212    9.3524   18.8714 H   0  0  0  0  0  0  0  0  0  0  0  0
   15.9879    7.2658   19.1743 H   0  0  0  0  0  0  0  0  0  0  0  0
   16.7149    8.0797   20.6241 H   0  0  0  0  0  0  0  0  0  0  0  0
   13.8353    7.3240   18.8163 H   0  0  0  0  0  0  0  0  0  0  0  0
   11.9875    7.4497   20.8802 H   0  0  0  0  0  0  0  0  0  0  0  0
   12.1508    9.1742   20.3442 H   0  0  0  0  0  0  0  0  0  0  0  0
   10.3254    7.6092   19.3306 H   0  0  0  0  0  0  0  0  0  0  0  0
   11.2334    8.7798   18.3148 H   0  0  0  0  0  0  0  0  0  0  0  0
   11.6948    7.0438   18.3148 H   0  0  0  0  0  0  0  0  0  0  0  0
  1  2  2  0
  1  6  1  0
  2  3  1  0
  3  4  2  0
  4  5  1  0
  4 10  1  0
  5  6  2  0
  5  8  1  0
  6  7  1  0
  8  9  2  0
  9 10  1  0
 11 10  1  0
 11 12  1  0
 11 21  1  0
 12 13  1  0
 12 14  1  0
 14 15  1  0
 14 20  1  0
 15 16  1  0
 16 17  2  0
 16 18  1  6
 16 19  1  0
 20 21  1  0
 20 22  1  0
 22 23  1  0
 23 24  1  0
 24 25  2  0
 24 26  1  6
 24 27  1  0
 27 28  1  0
 28 29  2  0
 28 30  1  1
 28 31  1  0
 31 33  1  0
 32 33  1  1
 32 34  1  0
 32 35  1  0
 32 36  1  0
 36 37  1  0
 36 38  1  0
 38 39  2  0
 38 40  1  0
 40 41  1  0
 41 42  1  0
 42 43  1  0
 43 44  2  0
 43 45  1  0
 45 46  1  0
 46 47  1  0
  2 48  1  0
  7 49  1  0
  7 50  1  0
  9 51  1  0
 11 52  1  6
 12 53  1  1
 13 54  1  0
 14 55  1  6
 20 56  1  6
 22 57  1  0
 22 58  1  0
 33 59  1  0
 33 60  1  0
 34 61  1  0
 34 62  1  0
 34 63  1  0
 35 64  1  0
 35 65  1  0
 35 66  1  0
 36 67  1  6
 37 68  1  0
 40 69  1  0
 41 70  1  0
 41 71  1  0
 42 72  1  0
 42 73  1  0
 45 74  1  0
 46 75  1  0
 46 76  1  0
 47 77  1  0
 47 78  1  0
 47 79  1  0
M  CHG  4  18  -1  19  -1  26  -1  30  -1
M  END
>  <filename_input>  (18) 
7MSR_DCA_docked.sdf

>  <pdb_id>  (18) 
7MSR_DCA

>  <pose_rank>  (18) 
17

>  <num_atoms_heavy>  (18) 
47

>  <num_torsions>  (18) 
17

>  <pose>  (18) 
[14.26625998048933, 17.756358441786766, 21.512767335175315, 1.9870079240692464, 3.572054835235762, -1.1561982375555042, 1.418168008796114, -2.636606487322412, 2.4371568224455262, 0.38312484466803387, 0.055679687189135324, -0.9598664359287404, 2.6610892388309053, 2.7580378594903046, -2.3493527229337103, -0.8991642979365204, -1.8942804869222576, 0.9265707873500748, -0.6456222555753333, -2.0995975289034776, -0.7316188510885906, 0.9836174689632786, -0.9689521621394025]

>  <energy>  (18) 
-552.3336951816117

>  <inter_energy>  (18) 
-593.9551864235058

>  <intra_energy>  (18) 
46.8245833592858

>  <rmsd>  (18) 
5.62775

>  <sdf_rank>  (18) 
0

$$$$

     RDKit          3D

 79 81  0  0  0  0  0  0  0  0999 V2000
   19.4428   22.0392   12.6520 N   0  0  0  0  0  0  0  0  0  0  0  0
   19.6116   21.3382   13.7786 C   0  0  0  0  0  0  0  0  0  0  0  0
   18.7624   21.1753   14.7974 N   0  0  0  0  0  0  0  0  0  0  0  0
   17.6201   21.8352   14.5851 C   0  0  0  0  0  0  0  0  0  0  0  0
   17.2929   22.6021   13.4764 C   0  0  0  0  0  0  0  0  0  0  0  0
   18.2730   22.6870   12.4658 C   0  0  0  0  0  0  0  0  0  0  0  0
   18.0626   23.3910   11.3386 N   0  0  0  0  0  0  0  0  0  0  0  0
   16.0283   23.1370   13.6073 N   0  0  0  0  0  0  0  0  0  0  0  0
   15.6123   22.6928   14.7644 C   0  0  0  0  0  0  0  0  0  0  0  0
   16.5233   21.8962   15.4130 N   0  0  0  0  0  0  0  0  0  0  0  0
   16.3901   21.2506   16.7087 C   0  0  1  0  0  0  0  0  0  0  0  0
   17.0689   21.9619   17.8733 C   0  0  2  0  0  0  0  0  0  0  0  0
   18.4581   21.6605   17.8750 O   0  0  0  0  0  0  0  0  0  0  0  0
   16.3309   21.3140   19.0445 C   0  0  2  0  0  0  0  0  0  0  0  0
   17.0107   20.0875   19.3798 O   0  0  0  0  0  0  0  0  0  0  0  0
   16.5518   19.0739   20.5177 P   0  0  1  0  0  0  0  0  0  0  0  0
   15.2890   18.3791   20.1264 O   0  0  0  0  0  0  0  0  0  0  0  0
   17.7225   18.1105   20.7306 O   0  0  0  0  0  0  0  0  0  0  0  0
   16.3830   19.9312   21.7793 O   0  0  0  0  0  0  0  0  0  0  0  0
   14.9512   20.9488   18.4738 C   0  0  2  0  0  0  0  0  0  0  0  0
   15.0230   21.2028   17.0547 O   0  0  0  0  0  0  0  0  0  0  0  0
   13.8109   21.7295   19.0760 C   0  0  0  0  0  0  0  0  0  0  0  0
   13.4912   22.8025   18.1783 O   0  0  0  0  0  0  0  0  0  0  0  0
   13.7534   24.3198   18.5530 P   0  0  2  0  0  0  0  0  0  0  0  0
   12.5664   25.1578   18.2902 O   0  0  0  0  0  0  0  0  0  0  0  0
   15.0662   24.7089   17.8727 O   0  0  0  0  0  0  0  0  0  0  0  0
   14.0321   24.2371   20.1159 O   0  0  0  0  0  0  0  0  0  0  0  0
   13.5613   25.0650   21.3894 P   0  0  2  0  0  0  0  0  0  0  0  0
   12.0970   25.1623   21.4866 O   0  0  0  0  0  0  0  0  0  0  0  0
   14.3828   26.3865   21.4021 O   0  0  0  0  0  0  0  0  0  0  0  0
   14.0571   24.1829   22.6041 O   0  0  0  0  0  0  0  0  0  0  0  0
   13.9801   22.3377   24.1698 C   0  0  2  0  0  0  0  0  0  0  0  0
   13.1720   23.3337   23.3436 C   0  0  0  0  0  0  0  0  0  0  0  0
   15.4776   22.6536   24.0245 C   0  0  0  0  0  0  0  0  0  0  0  0
   13.7089   20.9103   23.6654 C   0  0  0  0  0  0  0  0  0  0  0  0
   13.5815   22.4526   25.6638 C   0  0  1  0  0  0  0  0  0  0  0  0
   12.2577   21.9809   25.8725 O   0  0  0  0  0  0  0  0  0  0  0  0
   14.5328   21.7839   26.6484 C   0  0  0  0  0  0  0  0  0  0  0  0
   14.6063   20.5613   26.7020 O   0  0  0  0  0  0  0  0  0  0  0  0
   15.2610   22.5972   27.4133 N   0  0  0  0  0  0  0  0  0  0  0  0
   16.2169   22.1064   28.3966 C   0  0  0  0  0  0  0  0  0  0  0  0
   17.6436   22.1057   27.8591 C   0  0  0  0  0  0  0  0  0  0  0  0
   18.5059   23.1228   28.5548 C   0  0  0  0  0  0  0  0  0  0  0  0
   19.0491   22.8864   29.6308 O   0  0  0  0  0  0  0  0  0  0  0  0
   18.6347   24.2802   27.9114 N   0  0  0  0  0  0  0  0  0  0  0  0
   19.5469   25.3026   28.4065 C   0  0  0  0  0  0  0  0  0  0  0  0
   20.1258   26.0948   27.3083 C   0  0  0  0  0  0  0  0  0  0  0  0
   20.5802   20.8268   13.8801 H   0  0  0  0  0  0  0  0  0  0  0  0
   17.1693   23.8844   11.1987 H   0  0  0  0  0  0  0  0  0  0  0  0
   18.7948   23.4366   10.6156 H   0  0  0  0  0  0  0  0  0  0  0  0
   14.6232   22.9351   15.1803 H   0  0  0  0  0  0  0  0  0  0  0  0
   16.8725   20.2709   16.5767 H   0  0  0  0  0  0  0  0  0  0  0  0
   17.0200   23.0608   17.8700 H   0  0  0  0  0  0  0  0  0  0  0  0
   18.7795   21.5908   18.8088 H   0  0  0  0  0  0  0  0  0  0  0  0
   16.2754   21.9641   19.9301 H   0  0  0  0  0  0  0  0  0  0  0  0
   14.7357   19.8971   18.7136 H   0  0  0  0  0  0  0  0  0  0  0  0
   12.9359   21.0753   19.2038 H   0  0  0  0  0  0  0  0  0  0  0  0
   14.0951   22.1255   20.0621 H   0  0  0  0  0  0  0  0  0  0  0  0
   12.5531   23.9474   24.0146 H   0  0  0  0  0  0  0  0  0  0  0  0
   12.5265   22.7842   22.6426 H   0  0  0  0  0  0  0  0  0  0  0  0
   15.9307   22.7492   25.0223 H   0  0  0  0  0  0  0  0  0  0  0  0
   15.9722   21.8400   23.4736 H   0  0  0  0  0  0  0  0  0  0  0  0
   15.6015   23.5977   23.4736 H   0  0  0  0  0  0  0  0  0  0  0  0
   13.5808   20.2358   24.5249 H   0  0  0  0  0  0  0  0  0  0  0  0
   12.7937   20.9046   23.0553 H   0  0  0  0  0  0  0  0  0  0  0  0
   14.5584   20.5694   23.0553 H   0  0  0  0  0  0  0  0  0  0  0  0
   13.6456   23.5291   25.8810 H   0  0  0  0  0  0  0  0  0  0  0  0
   12.0794   21.9173   26.8442 H   0  0  0  0  0  0  0  0  0  0  0  0
   15.1429   23.6146   27.3044 H   0  0  0  0  0  0  0  0  0  0  0  0
   16.1735   22.7518   29.2863 H   0  0  0  0  0  0  0  0  0  0  0  0
   15.9472   21.0688   28.6425 H   0  0  0  0  0  0  0  0  0  0  0  0
   18.0797   21.1072   28.0096 H   0  0  0  0  0  0  0  0  0  0  0  0
   17.6054   22.3650   26.7907 H   0  0  0  0  0  0  0  0  0  0  0  0
   18.0858   24.4545   27.0575 H   0  0  0  0  0  0  0  0  0  0  0  0
   18.9961   25.9759   29.0798 H   0  0  0  0  0  0  0  0  0  0  0  0
   20.3692   24.8003   28.9372 H   0  0  0  0  0  0  0  0  0  0  0  0
   20.7263   26.9165   27.7258 H   0  0  0  0  0  0  0  0  0  0  0  0
   20.7670   25.4500   26.6894 H   0  0  0  0  0  0  0  0  0  0  0  0
   19.3166   26.5098   26.6894 H   0  0  0  0  0  0  0  0  0  0  0  0
  1  2  2  0
  1  6  1  0
  2  3  1  0
  3  4  2  0
  4  5  1  0
  4 10  1  0
  5  6  2  0
  5  8  1  0
  6  7  1  0
  8  9  2  0
  9 10  1  0
 11 10  1  0
 11 12  1  0
 11 21  1  0
 12 13  1  0
 12 14  1  0
 14 15  1  0
 14 20  1  0
 15 16  1  0
 16 17  2  0
 16 18  1  1
 16 19  1  0
 20 21  1  0
 20 22  1  0
 22 23  1  0
 23 24  1  0
 24 25  2  0
 24 26  1  6
 24 27  1  0
 27 28  1  0
 28 29  2  0
 28 30  1  1
 28 31  1  0
 31 33  1  0
 32 33  1  6
 32 34  1  0
 32 35  1  0
 32 36  1  0
 36 37  1  0
 36 38  1  0
 38 39  2  0
 38 40  1  0
 40 41  1  0
 41 42  1  0
 42 43  1  0
 43 44  2  0
 43 45  1  0
 45 46  1  0
 46 47  1  0
  2 48  1  0
  7 49  1  0
  7 50  1  0
  9 51  1  0
 11 52  1  6
 12 53  1  6
 13 54  1  0
 14 55  1  1
 20 56  1  6
 22 57  1  0
 22 58  1  0
 33 59  1  0
 33 60  1  0
 34 61  1  0
 34 62  1  0
 34 63  1  0
 35 64  1  0
 35 65  1  0
 35 66  1  0
 36 67  1  1
 37 68  1  0
 40 69  1  0
 41 70  1  0
 41 71  1  0
 42 72  1  0
 42 73  1  0
 45 74  1  0
 46 75  1  0
 46 76  1  0
 47 77  1  0
 47 78  1  0
 47 79  1  0
M  CHG  4  18  -1  19  -1  26  -1  30  -1
M  END
>  <filename_input>  (19) 
7MSR_DCA_docked.sdf

>  <pdb_id>  (19) 
7MSR_DCA

>  <pose_rank>  (19) 
18

>  <num_atoms_heavy>  (19) 
47

>  <num_torsions>  (19) 
17

>  <pose>  (19) 
[13.753380437147857, 24.319813255191537, 18.552950438371507, -1.6797757601380707, 1.2136619716648838, -0.5211049614644043, -3.994199099313496, -0.3184154183664612, -2.8135049832277415, 0.28992987451546715, 1.1679838321990443, 0.17973627545946189, 0.33299398503498884, 0.3417172394257001, -1.0766487397747848, 2.080801580533669, 4.141638884682855, -1.4907620652568396, 1.8501008787395916, 2.9762372530134416, -1.3348213460580156, 1.4978627137368254, 0.27950208481443645]

>  <energy>  (19) 
-638.8611350475185

>  <inter_energy>  (19) 
-663.6273287441351

>  <intra_energy>  (19) 
25.58976287636685

>  <rmsd>  (19) 
10.5221

>  <sdf_rank>  (19) 
0

$$$$

     RDKit          3D

 79 81  0  0  0  0  0  0  0  0999 V2000
   13.5952   22.4876   26.1786 N   0  0  0  0  0  0  0  0  0  0  0  0
   14.0195   21.5676   25.3052 C   0  0  0  0  0  0  0  0  0  0  0  0
   14.2721   21.7069   24.0004 N   0  0  0  0  0  0  0  0  0  0  0  0
   14.0418   22.9588   23.5941 C   0  0  0  0  0  0  0  0  0  0  0  0
   13.6019   24.0207   24.3709 C   0  0  0  0  0  0  0  0  0  0  0  0
   13.3805   23.7449   25.7361 C   0  0  0  0  0  0  0  0  0  0  0  0
   12.9664   24.6997   26.5890 N   0  0  0  0  0  0  0  0  0  0  0  0
   13.4716   25.1632   23.6091 N   0  0  0  0  0  0  0  0  0  0  0  0
   13.8315   24.7892   22.4092 C   0  0  0  0  0  0  0  0  0  0  0  0
   14.1919   23.4670   22.3248 N   0  0  0  0  0  0  0  0  0  0  0  0
   14.6307   22.7287   21.1519 C   0  0  1  0  0  0  0  0  0  0  0  0
   16.0421   22.1575   21.2217 C   0  0  2  0  0  0  0  0  0  0  0  0
   16.9870   23.1768   20.9238 O   0  0  0  0  0  0  0  0  0  0  0  0
   15.9550   21.1035   20.1182 C   0  0  2  0  0  0  0  0  0  0  0  0
   16.2612   21.7423   18.8625 O   0  0  0  0  0  0  0  0  0  0  0  0
   16.1973   21.0315   17.4399 P   0  0  1  0  0  0  0  0  0  0  0  0
   14.8162   21.1041   16.8763 O   0  0  0  0  0  0  0  0  0  0  0  0
   17.2380   21.7335   16.5634 O   0  0  0  0  0  0  0  0  0  0  0  0
   16.6545   19.5878   17.6880 O   0  0  0  0  0  0  0  0  0  0  0  0
   14.4730   20.6966   20.0924 C   0  0  2  0  0  0  0  0  0  0  0  0
   13.7900   21.6090   20.9783 O   0  0  0  0  0  0  0  0  0  0  0  0
   14.2183   19.2756   20.5265 C   0  0  0  0  0  0  0  0  0  0  0  0
   15.4829   18.6859   20.8623 O   0  0  0  0  0  0  0  0  0  0  0  0
   15.7455   17.1283   20.7348 P   0  0  2  0  0  0  0  0  0  0  0  0
   17.0722   16.7554   21.2649 O   0  0  0  0  0  0  0  0  0  0  0  0
   15.4257   16.7565   19.2867 O   0  0  0  0  0  0  0  0  0  0  0  0
   14.5973   16.5175   21.6490 O   0  0  0  0  0  0  0  0  0  0  0  0
   14.2075   15.0568   22.1422 P   0  0  2  0  0  0  0  0  0  0  0  0
   12.7933   14.9540   22.5325 O   0  0  0  0  0  0  0  0  0  0  0  0
   15.2839   14.6244   23.1794 O   0  0  0  0  0  0  0  0  0  0  0  0
   14.4059   14.1682   20.8496 O   0  0  0  0  0  0  0  0  0  0  0  0
   15.5601   12.3007   19.8288 C   0  0  2  0  0  0  0  0  0  0  0  0
   14.5911   12.7496   20.9184 C   0  0  0  0  0  0  0  0  0  0  0  0
   16.1594   10.9376   20.2117 C   0  0  0  0  0  0  0  0  0  0  0  0
   16.6912   13.3334   19.6880 C   0  0  0  0  0  0  0  0  0  0  0  0
   14.8045   12.1608   18.4821 C   0  0  1  0  0  0  0  0  0  0  0  0
   15.6614   12.4547   17.3877 O   0  0  0  0  0  0  0  0  0  0  0  0
   14.1128   10.8222   18.2556 C   0  0  0  0  0  0  0  0  0  0  0  0
   14.6661    9.9443   17.6029 O   0  0  0  0  0  0  0  0  0  0  0  0
   12.9086   10.6771   18.8085 N   0  0  0  0  0  0  0  0  0  0  0  0
   12.1276    9.4540   18.6841 C   0  0  0  0  0  0  0  0  0  0  0  0
   11.4798    9.0502   20.0037 C   0  0  0  0  0  0  0  0  0  0  0  0
    9.9801    8.9991   19.9002 C   0  0  0  0  0  0  0  0  0  0  0  0
    9.3816    7.9553   19.6533 O   0  0  0  0  0  0  0  0  0  0  0  0
    9.3660   10.1616   20.1036 N   0  0  0  0  0  0  0  0  0  0  0  0
    7.9118   10.2276   20.1644 C   0  0  0  0  0  0  0  0  0  0  0  0
    7.4451   11.5402   20.6421 C   0  0  0  0  0  0  0  0  0  0  0  0
   14.1823   20.5605   25.7165 H   0  0  0  0  0  0  0  0  0  0  0  0
   12.8033   25.6583   26.2492 H   0  0  0  0  0  0  0  0  0  0  0  0
   12.8126   24.4721   27.5817 H   0  0  0  0  0  0  0  0  0  0  0  0
   13.8444   25.4713   21.5462 H   0  0  0  0  0  0  0  0  0  0  0  0
   14.5991   23.4668   20.3369 H   0  0  0  0  0  0  0  0  0  0  0  0
   16.3592   21.7566   22.1957 H   0  0  0  0  0  0  0  0  0  0  0  0
   17.3394   23.5569   21.7673 H   0  0  0  0  0  0  0  0  0  0  0  0
   16.6349   20.2541   20.2805 H   0  0  0  0  0  0  0  0  0  0  0  0
   14.1093   20.7483   19.0556 H   0  0  0  0  0  0  0  0  0  0  0  0
   13.5559   19.2657   21.4046 H   0  0  0  0  0  0  0  0  0  0  0  0
   13.7324   18.7085   19.7189 H   0  0  0  0  0  0  0  0  0  0  0  0
   15.0005   12.4823   21.9037 H   0  0  0  0  0  0  0  0  0  0  0  0
   13.6224   12.2497   20.7709 H   0  0  0  0  0  0  0  0  0  0  0  0
   16.1984   10.8490   21.3074 H   0  0  0  0  0  0  0  0  0  0  0  0
   15.5321   10.1329   19.8008 H   0  0  0  0  0  0  0  0  0  0  0  0
   17.1765   10.8558   19.8008 H   0  0  0  0  0  0  0  0  0  0  0  0
   17.0310   13.6436   20.6872 H   0  0  0  0  0  0  0  0  0  0  0  0
   17.5314   12.8843   19.1381 H   0  0  0  0  0  0  0  0  0  0  0  0
   16.3202   14.2108   19.1381 H   0  0  0  0  0  0  0  0  0  0  0  0
   13.9937   12.9014   18.5463 H   0  0  0  0  0  0  0  0  0  0  0  0
   16.5406   12.7563   17.7287 H   0  0  0  0  0  0  0  0  0  0  0  0
   12.5141   11.4623   19.3459 H   0  0  0  0  0  0  0  0  0  0  0  0
   11.3377    9.6123   17.9350 H   0  0  0  0  0  0  0  0  0  0  0  0
   12.8096    8.6462   18.3804 H   0  0  0  0  0  0  0  0  0  0  0  0
   11.8504    8.0555   20.2921 H   0  0  0  0  0  0  0  0  0  0  0  0
   11.7437    9.8060   20.7582 H   0  0  0  0  0  0  0  0  0  0  0  0
    9.9223   11.0208   20.2189 H   0  0  0  0  0  0  0  0  0  0  0  0
    7.5046   10.0492   19.1582 H   0  0  0  0  0  0  0  0  0  0  0  0
    7.5632    9.4614   20.8725 H   0  0  0  0  0  0  0  0  0  0  0  0
    7.4416   11.5499   21.7421 H   0  0  0  0  0  0  0  0  0  0  0  0
    8.1188   12.3264   20.2706 H   0  0  0  0  0  0  0  0  0  0  0  0
    6.4263   11.7246   20.2706 H   0  0  0  0  0  0  0  0  0  0  0  0
  1  2  2  0
  1  6  1  0
  2  3  1  0
  3  4  2  0
  4  5  1  0
  4 10  1  0
  5  6  2  0
  5  8  1  0
  6  7  1  0
  8  9  2  0
  9 10  1  0
 11 10  1  0
 11 12  1  0
 11 21  1  0
 12 13  1  0
 12 14  1  0
 14 15  1  0
 14 20  1  0
 15 16  1  0
 16 17  2  0
 16 18  1  6
 16 19  1  0
 20 21  1  0
 20 22  1  0
 22 23  1  0
 23 24  1  0
 24 25  2  0
 24 26  1  6
 24 27  1  0
 27 28  1  0
 28 29  2  0
 28 30  1  1
 28 31  1  0
 31 33  1  0
 32 33  1  1
 32 34  1  0
 32 35  1  0
 32 36  1  0
 36 37  1  0
 36 38  1  0
 38 39  2  0
 38 40  1  0
 40 41  1  0
 41 42  1  0
 42 43  1  0
 43 44  2  0
 43 45  1  0
 45 46  1  0
 46 47  1  0
  2 48  1  0
  7 49  1  0
  7 50  1  0
  9 51  1  0
 11 52  1  6
 12 53  1  1
 13 54  1  0
 14 55  1  1
 20 56  1  6
 22 57  1  0
 22 58  1  0
 33 59  1  0
 33 60  1  0
 34 61  1  0
 34 62  1  0
 34 63  1  0
 35 64  1  0
 35 65  1  0
 35 66  1  0
 36 67  1  1
 37 68  1  0
 40 69  1  0
 41 70  1  0
 41 71  1  0
 42 72  1  0
 42 73  1  0
 45 74  1  0
 46 75  1  0
 46 76  1  0
 47 77  1  0
 47 78  1  0
 47 79  1  0
M  CHG  4  18  -1  19  -1  26  -1  30  -1
M  END
>  <filename_input>  (20) 
7MSR_DCA_docked.sdf

>  <pdb_id>  (20) 
7MSR_DCA

>  <pose_rank>  (20) 
19

>  <num_atoms_heavy>  (20) 
47

>  <num_torsions>  (20) 
17

>  <pose>  (20) 
[15.745543443719642, 17.128314605798117, 20.73481492137237, 1.3989522658757558, 2.5967457144344372, -0.588738700084415, -23.5404707391265, -66.84363756325935, -29.678848929825012, -23.947461086628717, 10.142651144805471, 7.857872661263929, -0.1282143738769042, 1.023188028430554, -0.9364305607934071, 2.275512656422532, -1.7686551516247986, -21.092595598422417, 26.28383310621391, 7.545400763742441, 2.464430071805181, 14.102849593571053, 0.570461241809969]

>  <energy>  (20) 
-643.6315084829505

>  <inter_energy>  (20) 
-670.3034737526696

>  <intra_energy>  (20) 
25.074412575348866

>  <rmsd>  (20) 
6.31174

>  <sdf_rank>  (20) 
0

$$$$

     RDKit          3D

 79 81  0  0  0  0  0  0  0  0999 V2000
    7.0011    5.7954   19.5085 N   0  0  0  0  0  0  0  0  0  0  0  0
    7.2365    6.9222   20.1897 C   0  0  0  0  0  0  0  0  0  0  0  0
    7.7254    8.0829   19.7429 N   0  0  0  0  0  0  0  0  0  0  0  0
    7.9912    8.0242   18.4347 C   0  0  0  0  0  0  0  0  0  0  0  0
    7.8048    6.9372   17.5932 C   0  0  0  0  0  0  0  0  0  0  0  0
    7.2730    5.7735   18.1863 C   0  0  0  0  0  0  0  0  0  0  0  0
    7.0363    4.6616   17.4663 N   0  0  0  0  0  0  0  0  0  0  0  0
    8.1952    7.2423   16.3059 N   0  0  0  0  0  0  0  0  0  0  0  0
    8.5985    8.4838   16.3807 C   0  0  0  0  0  0  0  0  0  0  0  0
    8.5021    9.0236   17.6395 N   0  0  0  0  0  0  0  0  0  0  0  0
    8.8680   10.3619   18.0733 C   0  0  1  0  0  0  0  0  0  0  0  0
    7.7254   11.2183   18.6064 C   0  0  2  0  0  0  0  0  0  0  0  0
    6.9986   11.7777   17.5203 O   0  0  0  0  0  0  0  0  0  0  0  0
    8.5218   12.2704   19.3777 C   0  0  2  0  0  0  0  0  0  0  0  0
    8.8936   13.3158   18.4569 O   0  0  0  0  0  0  0  0  0  0  0  0
    8.6528   14.8702   18.6987 P   0  0  1  0  0  0  0  0  0  0  0  0
    9.9118   15.5344   19.1505 O   0  0  0  0  0  0  0  0  0  0  0  0
    8.1218   15.4320   17.3771 O   0  0  0  0  0  0  0  0  0  0  0  0
    7.5383   14.9482   19.7508 O   0  0  0  0  0  0  0  0  0  0  0  0
    9.8047   11.5413   19.8079 C   0  0  2  0  0  0  0  0  0  0  0  0
    9.7802   10.2594   19.1449 O   0  0  0  0  0  0  0  0  0  0  0  0
    9.9295   11.3444   21.2972 C   0  0  0  0  0  0  0  0  0  0  0  0
   10.2719   12.6102   21.8803 O   0  0  0  0  0  0  0  0  0  0  0  0
   11.4725   12.7689   22.9024 P   0  0  2  0  0  0  0  0  0  0  0  0
   12.2901   11.5415   22.9757 O   0  0  0  0  0  0  0  0  0  0  0  0
   10.8633   13.2989   24.2006 O   0  0  0  0  0  0  0  0  0  0  0  0
   12.3136   13.9511   22.2525 O   0  0  0  0  0  0  0  0  0  0  0  0
   13.8379   14.4028   22.2917 P   0  0  2  0  0  0  0  0  0  0  0  0
   14.4179   14.3074   23.6398 O   0  0  0  0  0  0  0  0  0  0  0  0
   13.9262   15.7704   21.5545 O   0  0  0  0  0  0  0  0  0  0  0  0
   14.5628   13.3262   21.3889 O   0  0  0  0  0  0  0  0  0  0  0  0
   14.9574   12.8913   19.0401 C   0  0  2  0  0  0  0  0  0  0  0  0
   15.3778   13.6914   20.2692 C   0  0  0  0  0  0  0  0  0  0  0  0
   15.0146   13.7977   17.7996 C   0  0  0  0  0  0  0  0  0  0  0  0
   13.5209   12.3749   19.2282 C   0  0  0  0  0  0  0  0  0  0  0  0
   15.9242   11.6960   18.8383 C   0  0  1  0  0  0  0  0  0  0  0  0
   16.7345   11.5003   19.9887 O   0  0  0  0  0  0  0  0  0  0  0  0
   15.2656   10.3820   18.4369 C   0  0  0  0  0  0  0  0  0  0  0  0
   14.7035   10.2795   17.3522 O   0  0  0  0  0  0  0  0  0  0  0  0
   15.3512    9.3840   19.3164 N   0  0  0  0  0  0  0  0  0  0  0  0
   14.7759    8.0684   19.0724 C   0  0  0  0  0  0  0  0  0  0  0  0
   15.8138    6.9578   19.1895 C   0  0  0  0  0  0  0  0  0  0  0  0
   15.8347    6.0783   17.9695 C   0  0  0  0  0  0  0  0  0  0  0  0
   14.9152    6.0757   17.1553 O   0  0  0  0  0  0  0  0  0  0  0  0
   16.9214    5.3208   17.8453 N   0  0  0  0  0  0  0  0  0  0  0  0
   17.1315    4.5226   16.6447 C   0  0  0  0  0  0  0  0  0  0  0  0
   17.5636    3.1527   16.9695 C   0  0  0  0  0  0  0  0  0  0  0  0
    6.9951    6.8891   21.2623 H   0  0  0  0  0  0  0  0  0  0  0  0
    7.2445    4.6472   16.4577 H   0  0  0  0  0  0  0  0  0  0  0  0
    6.6469    3.8250   17.9238 H   0  0  0  0  0  0  0  0  0  0  0  0
    8.9800    9.0444   15.5146 H   0  0  0  0  0  0  0  0  0  0  0  0
    9.2645   10.8439   17.1676 H   0  0  0  0  0  0  0  0  0  0  0  0
    6.9685   10.7000   19.2134 H   0  0  0  0  0  0  0  0  0  0  0  0
    6.2648   12.3425   17.8704 H   0  0  0  0  0  0  0  0  0  0  0  0
    7.9626   12.6987   20.2226 H   0  0  0  0  0  0  0  0  0  0  0  0
   10.6727   12.1559   19.5271 H   0  0  0  0  0  0  0  0  0  0  0  0
    8.9733   10.9892   21.7090 H   0  0  0  0  0  0  0  0  0  0  0  0
   10.7035   10.5959   21.5222 H   0  0  0  0  0  0  0  0  0  0  0  0
   15.2569   14.7654   20.0646 H   0  0  0  0  0  0  0  0  0  0  0  0
   16.4310   13.4741   20.5008 H   0  0  0  0  0  0  0  0  0  0  0  0
   15.0811   14.8490   18.1164 H   0  0  0  0  0  0  0  0  0  0  0  0
   15.8983   13.5397   17.1974 H   0  0  0  0  0  0  0  0  0  0  0  0
   14.1056   13.6529   17.1974 H   0  0  0  0  0  0  0  0  0  0  0  0
   13.2978   12.2947   20.3024 H   0  0  0  0  0  0  0  0  0  0  0  0
   12.8149   13.0755   18.7584 H   0  0  0  0  0  0  0  0  0  0  0  0
   13.4225   11.3852   18.7584 H   0  0  0  0  0  0  0  0  0  0  0  0
   16.5425   11.9880   17.9766 H   0  0  0  0  0  0  0  0  0  0  0  0
   16.1881   11.6323   20.8036 H   0  0  0  0  0  0  0  0  0  0  0  0
   15.8444    9.5502   20.2052 H   0  0  0  0  0  0  0  0  0  0  0  0
   13.9787    7.8878   19.8084 H   0  0  0  0  0  0  0  0  0  0  0  0
   14.3815    8.0564   18.0456 H   0  0  0  0  0  0  0  0  0  0  0  0
   16.8075    7.4118   19.3176 H   0  0  0  0  0  0  0  0  0  0  0  0
   15.5484    6.3333   20.0553 H   0  0  0  0  0  0  0  0  0  0  0  0
   17.6187    5.2985   18.6030 H   0  0  0  0  0  0  0  0  0  0  0  0
   16.1892    4.4744   16.0793 H   0  0  0  0  0  0  0  0  0  0  0  0
   17.9243    5.0000   16.0502 H   0  0  0  0  0  0  0  0  0  0  0  0
   17.6023    3.0298   18.0620 H   0  0  0  0  0  0  0  0  0  0  0  0
   16.8490    2.4324   16.5447 H   0  0  0  0  0  0  0  0  0  0  0  0
   18.5621    2.9727   16.5447 H   0  0  0  0  0  0  0  0  0  0  0  0
  1  2  2  0
  1  6  1  0
  2  3  1  0
  3  4  2  0
  4  5  1  0
  4 10  1  0
  5  6  2  0
  5  8  1  0
  6  7  1  0
  8  9  2  0
  9 10  1  0
 11 10  1  0
 11 12  1  0
 11 21  1  0
 12 13  1  0
 12 14  1  0
 14 15  1  0
 14 20  1  0
 15 16  1  0
 16 17  2  0
 16 18  1  6
 16 19  1  0
 20 21  1  0
 20 22  1  0
 22 23  1  0
 23 24  1  0
 24 25  2  0
 24 26  1  1
 24 27  1  0
 27 28  1  0
 28 29  2  0
 28 30  1  6
 28 31  1  0
 31 33  1  0
 32 33  1  1
 32 34  1  0
 32 35  1  0
 32 36  1  0
 36 37  1  0
 36 38  1  0
 38 39  2  0
 38 40  1  0
 40 41  1  0
 41 42  1  0
 42 43  1  0
 43 44  2  0
 43 45  1  0
 45 46  1  0
 46 47  1  0
  2 48  1  0
  7 49  1  0
  7 50  1  0
  9 51  1  0
 11 52  1  6
 12 53  1  1
 13 54  1  0
 14 55  1  1
 20 56  1  6
 22 57  1  0
 22 58  1  0
 33 59  1  0
 33 60  1  0
 34 61  1  0
 34 62  1  0
 34 63  1  0
 35 64  1  0
 35 65  1  0
 35 66  1  0
 36 67  1  6
 37 68  1  0
 40 69  1  0
 41 70  1  0
 41 71  1  0
 42 72  1  0
 42 73  1  0
 45 74  1  0
 46 75  1  0
 46 76  1  0
 47 77  1  0
 47 78  1  0
 47 79  1  0
M  CHG  4  18  -1  19  -1  26  -1  30  -1
M  END
>  <filename_input>  (21) 
7MSR_DCA_docked.sdf

>  <pdb_id>  (21) 
7MSR_DCA

>  <pose_rank>  (21) 
20

>  <num_atoms_heavy>  (21) 
47

>  <num_torsions>  (21) 
17

>  <pose>  (21) 
[11.472523432344758, 12.768893934668888, 22.902350205982373, -0.39579268009465507, 0.27197071373887716, 2.687105375070346, 8.241160381156071, -1.9929662073625134, 1.1440357850926262, 1.4415393496710207, 3.5473071975302144, 5.485623962736534, -3.5791800151376143, 0.8004210567309575, -5.247108962071759, 0.3441034763938776, -0.7882378280071365, 7.251916431945246, 1.5271246128977503, -6.330526727629342, -3.8299419409818096, 6.86204506595001, 0.8229270182724897]

>  <energy>  (21) 
-668.6063839015463

>  <inter_energy>  (21) 
-689.1086052344817

>  <intra_energy>  (21) 
25.431570744821336

>  <rmsd>  (21) 
10.6807

>  <sdf_rank>  (21) 
0

$$$$

     RDKit          3D

 79 81  0  0  0  0  0  0  0  0999 V2000
    6.5871    3.7127   15.0124 N   0  0  0  0  0  0  0  0  0  0  0  0
    6.1716    4.0597   16.2355 C   0  0  0  0  0  0  0  0  0  0  0  0
    6.4842    5.1461   16.9480 N   0  0  0  0  0  0  0  0  0  0  0  0
    7.3307    5.9353   16.2803 C   0  0  0  0  0  0  0  0  0  0  0  0
    7.8515    5.7175   15.0131 C   0  0  0  0  0  0  0  0  0  0  0  0
    7.4356    4.5374   14.3624 C   0  0  0  0  0  0  0  0  0  0  0  0
    7.8640    4.2274   13.1251 N   0  0  0  0  0  0  0  0  0  0  0  0
    8.6973    6.7443   14.6485 N   0  0  0  0  0  0  0  0  0  0  0  0
    8.6743    7.5556   15.6734 C   0  0  0  0  0  0  0  0  0  0  0  0
    7.8662    7.1311   16.6991 N   0  0  0  0  0  0  0  0  0  0  0  0
    7.6196    7.7807   17.9760 C   0  0  1  0  0  0  0  0  0  0  0  0
    8.5370    7.3603   19.1183 C   0  0  2  0  0  0  0  0  0  0  0  0
    8.0861    6.1288   19.6668 O   0  0  0  0  0  0  0  0  0  0  0  0
    8.3254    8.5351   20.0728 C   0  0  2  0  0  0  0  0  0  0  0  0
    7.1660    8.2525   20.8820 O   0  0  0  0  0  0  0  0  0  0  0  0
    7.0045    8.6546   22.4134 P   0  0  1  0  0  0  0  0  0  0  0  0
    6.3659    7.5465   23.1845 O   0  0  0  0  0  0  0  0  0  0  0  0
    8.4089    9.0002   22.9157 O   0  0  0  0  0  0  0  0  0  0  0  0
    6.1543    9.9321   22.4088 O   0  0  0  0  0  0  0  0  0  0  0  0
    7.9832    9.7190   19.1541 C   0  0  2  0  0  0  0  0  0  0  0  0
    7.8295    9.1681   17.8287 O   0  0  0  0  0  0  0  0  0  0  0  0
    9.0274   10.8061   19.1381 C   0  0  0  0  0  0  0  0  0  0  0  0
    9.9809   10.5141   20.1701 O   0  0  0  0  0  0  0  0  0  0  0  0
   11.5425   10.5242   19.9006 P   0  0  2  0  0  0  0  0  0  0  0  0
   11.9080    9.6265   18.7868 O   0  0  0  0  0  0  0  0  0  0  0  0
   12.2130   10.2906   21.2547 O   0  0  0  0  0  0  0  0  0  0  0  0
   11.8039   12.0387   19.4938 O   0  0  0  0  0  0  0  0  0  0  0  0
   11.8059   13.4284   20.2668 P   0  0  2  0  0  0  0  0  0  0  0  0
   11.1089   13.3534   21.5597 O   0  0  0  0  0  0  0  0  0  0  0  0
   11.3456   14.5143   19.2517 O   0  0  0  0  0  0  0  0  0  0  0  0
   13.3375   13.6771   20.5703 O   0  0  0  0  0  0  0  0  0  0  0  0
   15.3554   13.1392   19.3454 C   0  0  2  0  0  0  0  0  0  0  0  0
   14.3304   12.6643   20.3708 C   0  0  0  0  0  0  0  0  0  0  0  0
   16.1120   14.3537   19.9077 C   0  0  0  0  0  0  0  0  0  0  0  0
   14.6363   13.5430   18.0472 C   0  0  0  0  0  0  0  0  0  0  0  0
   16.3689   12.0025   19.0540 C   0  0  1  0  0  0  0  0  0  0  0  0
   17.1995   11.7632   20.1815 O   0  0  0  0  0  0  0  0  0  0  0  0
   15.7612   10.6922   18.5688 C   0  0  0  0  0  0  0  0  0  0  0  0
   15.0723   10.6695   17.5549 O   0  0  0  0  0  0  0  0  0  0  0  0
   16.0323    9.6087   19.2963 N   0  0  0  0  0  0  0  0  0  0  0  0
   15.5276    8.2855   18.9558 C   0  0  0  0  0  0  0  0  0  0  0  0
   16.3576    7.6181   17.8650 C   0  0  0  0  0  0  0  0  0  0  0  0
   15.9203    6.2008   17.6152 C   0  0  0  0  0  0  0  0  0  0  0  0
   14.7854    5.9296   17.2317 O   0  0  0  0  0  0  0  0  0  0  0  0
   16.8558    5.2805   17.8341 N   0  0  0  0  0  0  0  0  0  0  0  0
   16.6082    3.8831   17.5043 C   0  0  0  0  0  0  0  0  0  0  0  0
   17.7317    3.2918   16.7581 C   0  0  0  0  0  0  0  0  0  0  0  0
    5.4791    3.3558   16.7203 H   0  0  0  0  0  0  0  0  0  0  0  0
    8.5114    4.8581   12.6312 H   0  0  0  0  0  0  0  0  0  0  0  0
    7.5446    3.3593   12.6719 H   0  0  0  0  0  0  0  0  0  0  0  0
    9.2496    8.4925   15.7107 H   0  0  0  0  0  0  0  0  0  0  0  0
    6.5914    7.4894   18.2367 H   0  0  0  0  0  0  0  0  0  0  0  0
    9.5909    7.1827   18.8583 H   0  0  0  0  0  0  0  0  0  0  0  0
    8.1052    6.1810   20.6552 H   0  0  0  0  0  0  0  0  0  0  0  0
    9.1946    8.7254   20.7195 H   0  0  0  0  0  0  0  0  0  0  0  0
    7.0701   10.2052   19.5278 H   0  0  0  0  0  0  0  0  0  0  0  0
    9.5298   10.8278   18.1598 H   0  0  0  0  0  0  0  0  0  0  0  0
    8.5625   11.7878   19.3113 H   0  0  0  0  0  0  0  0  0  0  0  0
   14.8374   12.4573   21.3248 H   0  0  0  0  0  0  0  0  0  0  0  0
   13.8456   11.7485   20.0019 H   0  0  0  0  0  0  0  0  0  0  0  0
   16.0918   14.3213   21.0071 H   0  0  0  0  0  0  0  0  0  0  0  0
   17.1550   14.3295   19.5592 H   0  0  0  0  0  0  0  0  0  0  0  0
   15.6303   15.2792   19.5592 H   0  0  0  0  0  0  0  0  0  0  0  0
   13.7015   14.0678   18.2938 H   0  0  0  0  0  0  0  0  0  0  0  0
   15.2862   14.2081   17.4596 H   0  0  0  0  0  0  0  0  0  0  0  0
   14.4068   12.6418   17.4596 H   0  0  0  0  0  0  0  0  0  0  0  0
   16.9648   12.3785   18.2093 H   0  0  0  0  0  0  0  0  0  0  0  0
   16.6807   11.9127   21.0113 H   0  0  0  0  0  0  0  0  0  0  0  0
   16.6232    9.7114   20.1337 H   0  0  0  0  0  0  0  0  0  0  0  0
   15.5519    7.6542   19.8563 H   0  0  0  0  0  0  0  0  0  0  0  0
   14.5013    8.4017   18.5772 H   0  0  0  0  0  0  0  0  0  0  0  0
   16.2489    8.1931   16.9336 H   0  0  0  0  0  0  0  0  0  0  0  0
   17.4055    7.5976   18.1986 H   0  0  0  0  0  0  0  0  0  0  0  0
   17.7612    5.5578   18.2394 H   0  0  0  0  0  0  0  0  0  0  0  0
   16.4624    3.3175   18.4364 H   0  0  0  0  0  0  0  0  0  0  0  0
   15.7115    3.8346   16.8691 H   0  0  0  0  0  0  0  0  0  0  0  0
   18.4765    2.8998   17.4663 H   0  0  0  0  0  0  0  0  0  0  0  0
   17.3606    2.4722   16.1252 H   0  0  0  0  0  0  0  0  0  0  0  0
   18.1973    4.0617   16.1252 H   0  0  0  0  0  0  0  0  0  0  0  0
  1  2  2  0
  1  6  1  0
  2  3  1  0
  3  4  2  0
  4  5  1  0
  4 10  1  0
  5  6  2  0
  5  8  1  0
  6  7  1  0
  8  9  2  0
  9 10  1  0
 11 10  1  0
 11 12  1  0
 11 21  1  0
 12 13  1  0
 12 14  1  0
 14 15  1  0
 14 20  1  0
 15 16  1  0
 16 17  2  0
 16 18  1  1
 16 19  1  0
 20 21  1  0
 20 22  1  0
 22 23  1  0
 23 24  1  0
 24 25  2  0
 24 26  1  1
 24 27  1  0
 27 28  1  0
 28 29  2  0
 28 30  1  6
 28 31  1  0
 31 33  1  0
 32 33  1  1
 32 34  1  0
 32 35  1  0
 32 36  1  0
 36 37  1  0
 36 38  1  0
 38 39  2  0
 38 40  1  0
 40 41  1  0
 41 42  1  0
 42 43  1  0
 43 44  2  0
 43 45  1  0
 45 46  1  0
 46 47  1  0
  2 48  1  0
  7 49  1  0
  7 50  1  0
  9 51  1  0
 11 52  1  1
 12 53  1  6
 13 54  1  0
 14 55  1  1
 20 56  1  1
 22 57  1  0
 22 58  1  0
 33 59  1  0
 33 60  1  0
 34 61  1  0
 34 62  1  0
 34 63  1  0
 35 64  1  0
 35 65  1  0
 35 66  1  0
 36 67  1  6
 37 68  1  0
 40 69  1  0
 41 70  1  0
 41 71  1  0
 42 72  1  0
 42 73  1  0
 45 74  1  0
 46 75  1  0
 46 76  1  0
 47 77  1  0
 47 78  1  0
 47 79  1  0
M  CHG  4  18  -1  19  -1  26  -1  30  -1
M  END
>  <filename_input>  (22) 
7MSR_DCA_docked.sdf

>  <pdb_id>  (22) 
7MSR_DCA

>  <pose_rank>  (22) 
21

>  <num_atoms_heavy>  (22) 
47

>  <num_torsions>  (22) 
17

>  <pose>  (22) 
[11.542518639459578, 10.524243657126288, 19.900644366627525, 0.9551316721913484, -0.21181150787778102, 2.663102846160232, 12.168064192748703, 4.717493668399252, 30.188429355896147, 18.356905955049157, 27.346563324692266, 4.054713578054136, 8.85323775580643, 0.04222477380393805, 6.2940920826679125, -4.588795702678174, 3.8750109494497256, 43.81905315314743, -12.761983262664044, -30.314566166010827, 5.0828533119475425, 0.8390995353084728, 2.9232861376018544]

>  <energy>  (22) 
-666.7486232682401

>  <inter_energy>  (22) 
-690.1759962314617

>  <intra_energy>  (22) 
32.66360850948755

>  <rmsd>  (22) 
12.4907

>  <sdf_rank>  (22) 
0

$$$$

     RDKit          3D

 79 81  0  0  0  0  0  0  0  0999 V2000
   19.3558   22.0352   13.2474 N   0  0  0  0  0  0  0  0  0  0  0  0
   19.5793   21.6816   14.5179 C   0  0  0  0  0  0  0  0  0  0  0  0
   18.6922   21.4534   15.4909 N   0  0  0  0  0  0  0  0  0  0  0  0
   17.4411   21.6265   15.0551 C   0  0  0  0  0  0  0  0  0  0  0  0
   17.0456   21.9904   13.7761 C   0  0  0  0  0  0  0  0  0  0  0  0
   18.0790   22.1933   12.8381 C   0  0  0  0  0  0  0  0  0  0  0  0
   17.8156   22.5353   11.5636 N   0  0  0  0  0  0  0  0  0  0  0  0
   15.6715   22.0781   13.6952 N   0  0  0  0  0  0  0  0  0  0  0  0
   15.2607   21.7676   14.8969 C   0  0  0  0  0  0  0  0  0  0  0  0
   16.2775   21.4802   15.7738 N   0  0  0  0  0  0  0  0  0  0  0  0
   16.1764   21.1096   17.1758 C   0  0  1  0  0  0  0  0  0  0  0  0
   17.4782   20.6752   17.8390 C   0  0  2  0  0  0  0  0  0  0  0  0
   17.7554   19.3205   17.5092 O   0  0  0  0  0  0  0  0  0  0  0  0
   17.0970   20.8505   19.3087 C   0  0  2  0  0  0  0  0  0  0  0  0
   16.4514   19.6400   19.7522 O   0  0  0  0  0  0  0  0  0  0  0  0
   15.5107   19.5257   21.0309 P   0  0  1  0  0  0  0  0  0  0  0  0
   14.1150   19.9387   20.6968 O   0  0  0  0  0  0  0  0  0  0  0  0
   15.6068   18.0729   21.5046 O   0  0  0  0  0  0  0  0  0  0  0  0
   16.1536   20.4328   22.0886 O   0  0  0  0  0  0  0  0  0  0  0  0
   16.0453   21.9715   19.3012 C   0  0  2  0  0  0  0  0  0  0  0  0
   15.7461   22.2328   17.9135 O   0  0  0  0  0  0  0  0  0  0  0  0
   16.4968   23.2421   19.9750 C   0  0  0  0  0  0  0  0  0  0  0  0
   15.3276   24.0152   20.2828 O   0  0  0  0  0  0  0  0  0  0  0  0
   15.4125   25.4043   21.0407 P   0  0  2  0  0  0  0  0  0  0  0  0
   14.4949   26.4011   20.4536 O   0  0  0  0  0  0  0  0  0  0  0  0
   16.8974   25.7603   21.1186 O   0  0  0  0  0  0  0  0  0  0  0  0
   14.9371   25.0170   22.5074 O   0  0  0  0  0  0  0  0  0  0  0  0
   13.5291   24.8357   23.2239 P   0  0  2  0  0  0  0  0  0  0  0  0
   12.4209   25.3958   22.4357 O   0  0  0  0  0  0  0  0  0  0  0  0
   13.6995   25.3230   24.6919 O   0  0  0  0  0  0  0  0  0  0  0  0
   13.3358   23.2670   23.2610 O   0  0  0  0  0  0  0  0  0  0  0  0
   12.3869   21.4926   24.6076 C   0  0  2  0  0  0  0  0  0  0  0  0
   13.5209   22.5021   24.4577 C   0  0  0  0  0  0  0  0  0  0  0  0
   12.0710   20.8756   23.2353 C   0  0  0  0  0  0  0  0  0  0  0  0
   11.1338   22.2021   25.1481 C   0  0  0  0  0  0  0  0  0  0  0  0
   12.8153   20.3656   25.5824 C   0  0  1  0  0  0  0  0  0  0  0  0
   13.6621   19.4283   24.9321 O   0  0  0  0  0  0  0  0  0  0  0  0
   13.4592   20.8337   26.8816 C   0  0  0  0  0  0  0  0  0  0  0  0
   12.8015   21.4584   27.7063 O   0  0  0  0  0  0  0  0  0  0  0  0
   14.7423   20.5164   27.0542 N   0  0  0  0  0  0  0  0  0  0  0  0
   15.4918   20.8894   28.2461 C   0  0  0  0  0  0  0  0  0  0  0  0
   16.3472   22.1311   28.0207 C   0  0  0  0  0  0  0  0  0  0  0  0
   17.8153   21.8332   28.1554 C   0  0  0  0  0  0  0  0  0  0  0  0
   18.6484   22.3169   27.3934 O   0  0  0  0  0  0  0  0  0  0  0  0
   18.1307   21.0198   29.1598 N   0  0  0  0  0  0  0  0  0  0  0  0
   19.5259   20.7550   29.4851 C   0  0  0  0  0  0  0  0  0  0  0  0
   19.8995   19.3613   29.1903 C   0  0  0  0  0  0  0  0  0  0  0  0
   20.6359   21.5627   14.7998 H   0  0  0  0  0  0  0  0  0  0  0  0
   16.8407   22.6554   11.2536 H   0  0  0  0  0  0  0  0  0  0  0  0
   18.5888   22.6771   10.8981 H   0  0  0  0  0  0  0  0  0  0  0  0
   14.1981   21.7392   15.1796 H   0  0  0  0  0  0  0  0  0  0  0  0
   15.4853   20.2539   17.1832 H   0  0  0  0  0  0  0  0  0  0  0  0
   18.3836   21.2265   17.5456 H   0  0  0  0  0  0  0  0  0  0  0  0
   17.8631   18.7939   18.3405 H   0  0  0  0  0  0  0  0  0  0  0  0
   17.9606   21.0707   19.9535 H   0  0  0  0  0  0  0  0  0  0  0  0
   15.1687   21.6388   19.8764 H   0  0  0  0  0  0  0  0  0  0  0  0
   17.0409   23.0019   20.9004 H   0  0  0  0  0  0  0  0  0  0  0  0
   17.1692   23.8091   19.3144 H   0  0  0  0  0  0  0  0  0  0  0  0
   14.4808   21.9676   24.4044 H   0  0  0  0  0  0  0  0  0  0  0  0
   13.5209   23.1792   25.3247 H   0  0  0  0  0  0  0  0  0  0  0  0
   11.5738   19.9045   23.3756 H   0  0  0  0  0  0  0  0  0  0  0  0
   11.4071   21.5497   22.6742 H   0  0  0  0  0  0  0  0  0  0  0  0
   13.0060   20.7312   22.6742 H   0  0  0  0  0  0  0  0  0  0  0  0
   11.1523   22.1916   26.2479 H   0  0  0  0  0  0  0  0  0  0  0  0
   11.1190   23.2426   24.7915 H   0  0  0  0  0  0  0  0  0  0  0  0
   10.2340   21.6795   24.7915 H   0  0  0  0  0  0  0  0  0  0  0  0
   11.8698   19.8888   25.8802 H   0  0  0  0  0  0  0  0  0  0  0  0
   14.1452   18.8936   25.6109 H   0  0  0  0  0  0  0  0  0  0  0  0
   15.2236   19.9856   26.3142 H   0  0  0  0  0  0  0  0  0  0  0  0
   14.7826   21.0906   29.0625 H   0  0  0  0  0  0  0  0  0  0  0  0
   16.1643   20.0560   28.4978 H   0  0  0  0  0  0  0  0  0  0  0  0
   16.1540   22.5171   27.0090 H   0  0  0  0  0  0  0  0  0  0  0  0
   16.0785   22.8735   28.7866 H   0  0  0  0  0  0  0  0  0  0  0  0
   17.3834   20.5743   29.7112 H   0  0  0  0  0  0  0  0  0  0  0  0
   20.1638   21.4278   28.8931 H   0  0  0  0  0  0  0  0  0  0  0  0
   19.6650   20.9265   30.5628 H   0  0  0  0  0  0  0  0  0  0  0  0
   20.0462   18.8138   30.1330 H   0  0  0  0  0  0  0  0  0  0  0  0
   19.0981   18.8821   28.6089 H   0  0  0  0  0  0  0  0  0  0  0  0
   20.8331   19.3471   28.6089 H   0  0  0  0  0  0  0  0  0  0  0  0
  1  2  2  0
  1  6  1  0
  2  3  1  0
  3  4  2  0
  4  5  1  0
  4 10  1  0
  5  6  2  0
  5  8  1  0
  6  7  1  0
  8  9  2  0
  9 10  1  0
 11 10  1  0
 11 12  1  0
 11 21  1  0
 12 13  1  0
 12 14  1  0
 14 15  1  0
 14 20  1  0
 15 16  1  0
 16 17  2  0
 16 18  1  1
 16 19  1  0
 20 21  1  0
 20 22  1  0
 22 23  1  0
 23 24  1  0
 24 25  2  0
 24 26  1  1
 24 27  1  0
 27 28  1  0
 28 29  2  0
 28 30  1  1
 28 31  1  0
 31 33  1  0
 32 33  1  6
 32 34  1  0
 32 35  1  0
 32 36  1  0
 36 37  1  0
 36 38  1  0
 38 39  2  0
 38 40  1  0
 40 41  1  0
 41 42  1  0
 42 43  1  0
 43 44  2  0
 43 45  1  0
 45 46  1  0
 46 47  1  0
  2 48  1  0
  7 49  1  0
  7 50  1  0
  9 51  1  0
 11 52  1  6
 12 53  1  6
 13 54  1  0
 14 55  1  1
 20 56  1  1
 22 57  1  0
 22 58  1  0
 33 59  1  0
 33 60  1  0
 34 61  1  0
 34 62  1  0
 34 63  1  0
 35 64  1  0
 35 65  1  0
 35 66  1  0
 36 67  1  1
 37 68  1  0
 40 69  1  0
 41 70  1  0
 41 71  1  0
 42 72  1  0
 42 73  1  0
 45 74  1  0
 46 75  1  0
 46 76  1  0
 47 77  1  0
 47 78  1  0
 47 79  1  0
M  CHG  4  18  -1  19  -1  26  -1  30  -1
M  END
>  <filename_input>  (23) 
7MSR_DCA_docked.sdf

>  <pdb_id>  (23) 
7MSR_DCA

>  <pose_rank>  (23) 
22

>  <num_atoms_heavy>  (23) 
47

>  <num_torsions>  (23) 
17

>  <pose>  (23) 
[15.412519469852134, 25.404336117292992, 21.04067309860727, -1.2554667525172813, 0.9370526447676969, -0.7632167659811275, -3.0876853674290468, 4.776520424707608, 0.7732338246043174, 12.358060986618284, 1.8012609620266566, -2.3961445952570064, 2.718821623644708, 3.1884142636709667, 1.21945723441359, 3.0558916075228058, -0.3959722910752473, -9.351247348900197, -11.9356393725962, -7.846784020282213, -2.871651125340367, 1.810572844180791, 0.522889381301989]

>  <energy>  (23) 
-649.9573945713896

>  <inter_energy>  (23) 
-694.136195645841

>  <intra_energy>  (23) 
58.467044467469634

>  <rmsd>  (23) 
9.75

>  <sdf_rank>  (23) 
0

$$$$

     RDKit          3D

 79 81  0  0  0  0  0  0  0  0999 V2000
    8.9641   16.3402   26.3509 N   0  0  0  0  0  0  0  0  0  0  0  0
    9.2317   17.2748   25.4322 C   0  0  0  0  0  0  0  0  0  0  0  0
   10.2571   17.3381   24.5777 N   0  0  0  0  0  0  0  0  0  0  0  0
   11.0781   16.2949   24.7292 C   0  0  0  0  0  0  0  0  0  0  0  0
   10.9414   15.2493   25.6307 C   0  0  0  0  0  0  0  0  0  0  0  0
    9.8101   15.2950   26.4716 C   0  0  0  0  0  0  0  0  0  0  0  0
    9.5656   14.3290   27.3758 N   0  0  0  0  0  0  0  0  0  0  0  0
   11.9834   14.3546   25.5040 N   0  0  0  0  0  0  0  0  0  0  0  0
   12.7184   14.8547   24.5454 C   0  0  0  0  0  0  0  0  0  0  0  0
   12.2305   16.0287   24.0270 N   0  0  0  0  0  0  0  0  0  0  0  0
   12.7979   16.8474   22.9682 C   0  0  1  0  0  0  0  0  0  0  0  0
   14.2573   17.2464   23.1528 C   0  0  2  0  0  0  0  0  0  0  0  0
   14.3433   18.3516   24.0426 O   0  0  0  0  0  0  0  0  0  0  0  0
   14.6107   17.6270   21.7153 C   0  0  2  0  0  0  0  0  0  0  0  0
   14.2449   19.0071   21.5139 O   0  0  0  0  0  0  0  0  0  0  0  0
   15.0878   20.0580   20.6665 P   0  0  1  0  0  0  0  0  0  0  0  0
   16.0450   19.3569   19.7596 O   0  0  0  0  0  0  0  0  0  0  0  0
   14.0684   20.9155   19.9118 O   0  0  0  0  0  0  0  0  0  0  0  0
   15.7993   20.9368   21.7041 O   0  0  0  0  0  0  0  0  0  0  0  0
   13.6818   16.7608   20.8497 C   0  0  2  0  0  0  0  0  0  0  0  0
   12.7673   16.1164   21.7619 O   0  0  0  0  0  0  0  0  0  0  0  0
   14.4005   15.7219   20.0271 C   0  0  0  0  0  0  0  0  0  0  0  0
   14.3210   14.4733   20.7301 O   0  0  0  0  0  0  0  0  0  0  0  0
   13.2565   13.3615   20.3532 P   0  0  2  0  0  0  0  0  0  0  0  0
   12.3050   13.8435   19.3322 O   0  0  0  0  0  0  0  0  0  0  0  0
   12.6851   12.8490   21.6755 O   0  0  0  0  0  0  0  0  0  0  0  0
   14.1719   12.2098   19.7507 O   0  0  0  0  0  0  0  0  0  0  0  0
   15.5973   12.1556   19.0479 P   0  0  2  0  0  0  0  0  0  0  0  0
   16.7015   12.3426   20.0012 O   0  0  0  0  0  0  0  0  0  0  0  0
   15.5318   13.1001   17.8129 O   0  0  0  0  0  0  0  0  0  0  0  0
   15.6848   10.6715   18.5098 O   0  0  0  0  0  0  0  0  0  0  0  0
   14.1336    8.8566   18.9118 C   0  0  2  0  0  0  0  0  0  0  0  0
   14.5484    9.9851   17.9726 C   0  0  0  0  0  0  0  0  0  0  0  0
   13.9710    9.4140   20.3353 C   0  0  0  0  0  0  0  0  0  0  0  0
   15.2155    7.7634   18.9128 C   0  0  0  0  0  0  0  0  0  0  0  0
   12.7813    8.2584   18.4452 C   0  0  1  0  0  0  0  0  0  0  0  0
   12.7177    6.8678   18.7298 O   0  0  0  0  0  0  0  0  0  0  0  0
   11.5372    8.9559   18.9812 C   0  0  0  0  0  0  0  0  0  0  0  0
   10.7454    8.3462   19.6912 O   0  0  0  0  0  0  0  0  0  0  0  0
   11.3836   10.2358   18.6416 N   0  0  0  0  0  0  0  0  0  0  0  0
   10.2488   11.0359   19.0812 C   0  0  0  0  0  0  0  0  0  0  0  0
    9.5710   11.7563   17.9210 C   0  0  0  0  0  0  0  0  0  0  0  0
    8.6074   12.8075   18.3992 C   0  0  0  0  0  0  0  0  0  0  0  0
    8.8639   13.5376   19.3531 O   0  0  0  0  0  0  0  0  0  0  0  0
    7.4741   12.8834   17.7065 N   0  0  0  0  0  0  0  0  0  0  0  0
    6.5124   13.9436   17.9782 C   0  0  0  0  0  0  0  0  0  0  0  0
    5.4341   13.9716   16.9755 C   0  0  0  0  0  0  0  0  0  0  0  0
    8.5103   18.1031   25.3720 H   0  0  0  0  0  0  0  0  0  0  0  0
   10.2124   13.5325   27.4660 H   0  0  0  0  0  0  0  0  0  0  0  0
    8.7317   14.3859   27.9776 H   0  0  0  0  0  0  0  0  0  0  0  0
   13.6430   14.3785   24.1870 H   0  0  0  0  0  0  0  0  0  0  0  0
   12.1884   17.7631   22.9745 H   0  0  0  0  0  0  0  0  0  0  0  0
   14.9210   16.4841   23.5870 H   0  0  0  0  0  0  0  0  0  0  0  0
   14.3179   18.0257   24.9771 H   0  0  0  0  0  0  0  0  0  0  0  0
   15.6765   17.4856   21.4829 H   0  0  0  0  0  0  0  0  0  0  0  0
   13.1765   17.4066   20.1164 H   0  0  0  0  0  0  0  0  0  0  0  0
   13.9210   15.6277   19.0416 H   0  0  0  0  0  0  0  0  0  0  0  0
   15.4509   16.0113   19.8757 H   0  0  0  0  0  0  0  0  0  0  0  0
   13.7136   10.6927   17.8611 H   0  0  0  0  0  0  0  0  0  0  0  0
   14.8102    9.5626   16.9912 H   0  0  0  0  0  0  0  0  0  0  0  0
   14.2011    8.6250   21.0665 H   0  0  0  0  0  0  0  0  0  0  0  0
   14.6599   10.2594   20.4790 H   0  0  0  0  0  0  0  0  0  0  0  0
   12.9355    9.7563   20.4790 H   0  0  0  0  0  0  0  0  0  0  0  0
   15.4729    7.5033   19.9502 H   0  0  0  0  0  0  0  0  0  0  0  0
   14.8353    6.8708   18.3945 H   0  0  0  0  0  0  0  0  0  0  0  0
   16.1120    8.1344   18.3945 H   0  0  0  0  0  0  0  0  0  0  0  0
   12.7675    8.4304   17.3589 H   0  0  0  0  0  0  0  0  0  0  0  0
   12.7114    6.7316   19.7103 H   0  0  0  0  0  0  0  0  0  0  0  0
   12.0969   10.6770   18.0436 H   0  0  0  0  0  0  0  0  0  0  0  0
    9.5150   10.3748   19.5654 H   0  0  0  0  0  0  0  0  0  0  0  0
   10.6225   11.7979   19.7810 H   0  0  0  0  0  0  0  0  0  0  0  0
   10.3425   12.2366   17.3013 H   0  0  0  0  0  0  0  0  0  0  0  0
    9.0039   11.0121   17.3425 H   0  0  0  0  0  0  0  0  0  0  0  0
    7.2752   12.1879   16.9733 H   0  0  0  0  0  0  0  0  0  0  0  0
    6.0708   13.7783   18.9720 H   0  0  0  0  0  0  0  0  0  0  0  0
    7.0431   14.9063   17.9376 H   0  0  0  0  0  0  0  0  0  0  0  0
    4.4598   13.9969   17.4855 H   0  0  0  0  0  0  0  0  0  0  0  0
    5.5418   14.8673   16.3461 H   0  0  0  0  0  0  0  0  0  0  0  0
    5.4952   13.0716   16.3461 H   0  0  0  0  0  0  0  0  0  0  0  0
  1  2  2  0
  1  6  1  0
  2  3  1  0
  3  4  2  0
  4  5  1  0
  4 10  1  0
  5  6  2  0
  5  8  1  0
  6  7  1  0
  8  9  2  0
  9 10  1  0
 11 10  1  0
 11 12  1  0
 11 21  1  0
 12 13  1  0
 12 14  1  0
 14 15  1  0
 14 20  1  0
 15 16  1  0
 16 17  2  0
 16 18  1  6
 16 19  1  0
 20 21  1  0
 20 22  1  0
 22 23  1  0
 23 24  1  0
 24 25  2  0
 24 26  1  1
 24 27  1  0
 27 28  1  0
 28 29  2  0
 28 30  1  6
 28 31  1  0
 31 33  1  0
 32 33  1  6
 32 34  1  0
 32 35  1  0
 32 36  1  0
 36 37  1  0
 36 38  1  0
 38 39  2  0
 38 40  1  0
 40 41  1  0
 41 42  1  0
 42 43  1  0
 43 44  2  0
 43 45  1  0
 45 46  1  0
 46 47  1  0
  2 48  1  0
  7 49  1  0
  7 50  1  0
  9 51  1  0
 11 52  1  6
 12 53  1  1
 13 54  1  0
 14 55  1  6
 20 56  1  6
 22 57  1  0
 22 58  1  0
 33 59  1  0
 33 60  1  0
 34 61  1  0
 34 62  1  0
 34 63  1  0
 35 64  1  0
 35 65  1  0
 35 66  1  0
 36 67  1  6
 37 68  1  0
 40 69  1  0
 41 70  1  0
 41 71  1  0
 42 72  1  0
 42 73  1  0
 45 74  1  0
 46 75  1  0
 46 76  1  0
 47 77  1  0
 47 78  1  0
 47 79  1  0
M  CHG  4  18  -1  19  -1  26  -1  30  -1
M  END
>  <filename_input>  (24) 
7MSR_DCA_docked.sdf

>  <pdb_id>  (24) 
7MSR_DCA

>  <pose_rank>  (24) 
23

>  <num_atoms_heavy>  (24) 
47

>  <num_torsions>  (24) 
17

>  <pose>  (24) 
[13.256527507045822, 13.361501958477726, 20.353237639832578, -1.7250058319583146, 4.35220866642943, -2.756396637517248, 4.203314260775636, 6.320181305447519, -0.38805987235453093, 1.7655763754759364, 1.9895781579171927, 1.546935381340823, -0.49774755944780363, 2.65915804492436, 0.333302853642099, 1.3315972237019795, -1.7341476975535903, 0.6860853105408388, -0.7443018961175102, -3.3146544283166537, -0.5160150923660007, -5.489677468920844, 5.663808593106964]

>  <energy>  (24) 
-474.8587611883368

>  <inter_energy>  (24) 
-531.721646482462

>  <intra_energy>  (24) 
56.173903444881645

>  <rmsd>  (24) 
8.74718

>  <sdf_rank>  (24) 
0

$$$$

     RDKit          3D

 79 81  0  0  0  0  0  0  0  0999 V2000
   16.0292   10.5637   19.5253 N   0  0  0  0  0  0  0  0  0  0  0  0
   15.5412   11.6834   20.0706 C   0  0  0  0  0  0  0  0  0  0  0  0
   14.2737   12.1030   20.1259 N   0  0  0  0  0  0  0  0  0  0  0  0
   13.4502   11.2341   19.5324 C   0  0  0  0  0  0  0  0  0  0  0  0
   13.7978   10.0368   18.9241 C   0  0  0  0  0  0  0  0  0  0  0  0
   15.1681    9.7035   18.9413 C   0  0  0  0  0  0  0  0  0  0  0  0
   15.6215    8.5607   18.3943 N   0  0  0  0  0  0  0  0  0  0  0  0
   12.6827    9.4052   18.4140 N   0  0  0  0  0  0  0  0  0  0  0  0
   11.6954   10.2066   18.7178 C   0  0  0  0  0  0  0  0  0  0  0  0
   12.0850   11.3342   19.3976 N   0  0  0  0  0  0  0  0  0  0  0  0
   11.2540   12.4272   19.8750 C   0  0  1  0  0  0  0  0  0  0  0  0
   10.2554   12.0679   20.9689 C   0  0  2  0  0  0  0  0  0  0  0  0
    9.1085   11.4594   20.3900 O   0  0  0  0  0  0  0  0  0  0  0  0
    9.9584   13.4609   21.5232 C   0  0  2  0  0  0  0  0  0  0  0  0
    8.9028   14.0429   20.7321 O   0  0  0  0  0  0  0  0  0  0  0  0
    8.3548   15.5280   20.8963 P   0  0  1  0  0  0  0  0  0  0  0  0
    9.1394   16.4757   20.0499 O   0  0  0  0  0  0  0  0  0  0  0  0
    6.8709   15.4807   20.5221 O   0  0  0  0  0  0  0  0  0  0  0  0
    8.4759   15.8407   22.3938 O   0  0  0  0  0  0  0  0  0  0  0  0
   11.2437   14.2613   21.2581 C   0  0  2  0  0  0  0  0  0  0  0  0
   12.0847   13.4142   20.4465 O   0  0  0  0  0  0  0  0  0  0  0  0
   11.9822   14.6689   22.5074 C   0  0  0  0  0  0  0  0  0  0  0  0
   13.0220   15.5811   22.1248 O   0  0  0  0  0  0  0  0  0  0  0  0
   13.0964   17.0586   22.6929 P   0  0  2  0  0  0  0  0  0  0  0  0
   13.7669   17.1027   24.0077 O   0  0  0  0  0  0  0  0  0  0  0  0
   11.6808   17.6278   22.5945 O   0  0  0  0  0  0  0  0  0  0  0  0
   13.9839   17.7954   21.5989 O   0  0  0  0  0  0  0  0  0  0  0  0
   15.3131   17.4402   20.8013 P   0  0  2  0  0  0  0  0  0  0  0  0
   15.0851   16.4432   19.7445 O   0  0  0  0  0  0  0  0  0  0  0  0
   16.4134   17.1421   21.8605 O   0  0  0  0  0  0  0  0  0  0  0  0
   15.6899   18.8019   20.0917 O   0  0  0  0  0  0  0  0  0  0  0  0
   16.7884   20.9326   19.7518 C   0  0  2  0  0  0  0  0  0  0  0  0
   16.4961   19.7989   20.7301 C   0  0  0  0  0  0  0  0  0  0  0  0
   16.3603   20.5069   18.3379 C   0  0  0  0  0  0  0  0  0  0  0  0
   18.2951   21.2417   19.7569 C   0  0  0  0  0  0  0  0  0  0  0  0
   15.9903   22.1968   20.1629 C   0  0  1  0  0  0  0  0  0  0  0  0
   14.8109   22.3274   19.3816 O   0  0  0  0  0  0  0  0  0  0  0  0
   15.6470   22.3014   21.6436 C   0  0  0  0  0  0  0  0  0  0  0  0
   16.5324   22.4883   22.4707 O   0  0  0  0  0  0  0  0  0  0  0  0
   14.3574   22.1888   21.9617 N   0  0  0  0  0  0  0  0  0  0  0  0
   13.8749   22.2727   23.3334 C   0  0  0  0  0  0  0  0  0  0  0  0
   13.5939   20.8972   23.9278 C   0  0  0  0  0  0  0  0  0  0  0  0
   14.0597   20.7967   25.3544 C   0  0  0  0  0  0  0  0  0  0  0  0
   14.5541   21.7534   25.9450 O   0  0  0  0  0  0  0  0  0  0  0  0
   13.8859   19.6033   25.9163 N   0  0  0  0  0  0  0  0  0  0  0  0
   14.1696   19.4051   27.3315 C   0  0  0  0  0  0  0  0  0  0  0  0
   12.9553   19.5355   28.1545 C   0  0  0  0  0  0  0  0  0  0  0  0
   16.2834   12.3485   20.5362 H   0  0  0  0  0  0  0  0  0  0  0  0
   14.9626    7.9060   17.9493 H   0  0  0  0  0  0  0  0  0  0  0  0
   16.6274    8.3408   18.4207 H   0  0  0  0  0  0  0  0  0  0  0  0
   10.6485    9.9968   18.4530 H   0  0  0  0  0  0  0  0  0  0  0  0
   10.6896   12.7492   18.9874 H   0  0  0  0  0  0  0  0  0  0  0  0
   10.6001   11.3511   21.7287 H   0  0  0  0  0  0  0  0  0  0  0  0
    8.5065   11.1400   21.1080 H   0  0  0  0  0  0  0  0  0  0  0  0
    9.6665   13.4484   22.5836 H   0  0  0  0  0  0  0  0  0  0  0  0
   10.9767   15.2064   20.7627 H   0  0  0  0  0  0  0  0  0  0  0  0
   11.2908   15.1616   23.2068 H   0  0  0  0  0  0  0  0  0  0  0  0
   12.4097   13.7865   23.0060 H   0  0  0  0  0  0  0  0  0  0  0  0
   15.9590   20.1990   21.6026 H   0  0  0  0  0  0  0  0  0  0  0  0
   17.4446   19.3457   21.0541 H   0  0  0  0  0  0  0  0  0  0  0  0
   15.5819   19.7329   18.4079 H   0  0  0  0  0  0  0  0  0  0  0  0
   15.9631   21.3785   17.7971 H   0  0  0  0  0  0  0  0  0  0  0  0
   17.2297   20.1048   17.7971 H   0  0  0  0  0  0  0  0  0  0  0  0
   18.6509   21.3147   20.7952 H   0  0  0  0  0  0  0  0  0  0  0  0
   18.8365   20.4359   19.2396 H   0  0  0  0  0  0  0  0  0  0  0  0
   18.4754   22.1956   19.2396 H   0  0  0  0  0  0  0  0  0  0  0  0
   16.6791   23.0308   19.9631 H   0  0  0  0  0  0  0  0  0  0  0  0
   14.0268   22.4142   19.9797 H   0  0  0  0  0  0  0  0  0  0  0  0
   13.6740   22.0362   21.2063 H   0  0  0  0  0  0  0  0  0  0  0  0
   14.6367   22.7755   23.9472 H   0  0  0  0  0  0  0  0  0  0  0  0
   12.9311   22.8378   23.3264 H   0  0  0  0  0  0  0  0  0  0  0  0
   12.5106   20.7095   23.8934 H   0  0  0  0  0  0  0  0  0  0  0  0
   14.1448   20.1513   23.3362 H   0  0  0  0  0  0  0  0  0  0  0  0
   13.5484   18.8141   25.3468 H   0  0  0  0  0  0  0  0  0  0  0  0
   14.5898   18.3985   27.4733 H   0  0  0  0  0  0  0  0  0  0  0  0
   14.8837   20.1791   27.6495 H   0  0  0  0  0  0  0  0  0  0  0  0
   13.2292   19.5061   29.2194 H   0  0  0  0  0  0  0  0  0  0  0  0
   12.4607   20.4919   27.9294 H   0  0  0  0  0  0  0  0  0  0  0  0
   12.2690   18.7059   27.9294 H   0  0  0  0  0  0  0  0  0  0  0  0
  1  2  2  0
  1  6  1  0
  2  3  1  0
  3  4  2  0
  4  5  1  0
  4 10  1  0
  5  6  2  0
  5  8  1  0
  6  7  1  0
  8  9  2  0
  9 10  1  0
 11 10  1  0
 11 12  1  0
 11 21  1  0
 12 13  1  0
 12 14  1  0
 14 15  1  0
 14 20  1  0
 15 16  1  0
 16 17  2  0
 16 18  1  6
 16 19  1  0
 20 21  1  0
 20 22  1  0
 22 23  1  0
 23 24  1  0
 24 25  2  0
 24 26  1  1
 24 27  1  0
 27 28  1  0
 28 29  2  0
 28 30  1  1
 28 31  1  0
 31 33  1  0
 32 33  1  1
 32 34  1  0
 32 35  1  0
 32 36  1  0
 36 37  1  0
 36 38  1  0
 38 39  2  0
 38 40  1  0
 40 41  1  0
 41 42  1  0
 42 43  1  0
 43 44  2  0
 43 45  1  0
 45 46  1  0
 46 47  1  0
  2 48  1  0
  7 49  1  0
  7 50  1  0
  9 51  1  0
 11 52  1  6
 12 53  1  1
 13 54  1  0
 14 55  1  1
 20 56  1  6
 22 57  1  0
 22 58  1  0
 33 59  1  0
 33 60  1  0
 34 61  1  0
 34 62  1  0
 34 63  1  0
 35 64  1  0
 35 65  1  0
 35 66  1  0
 36 67  1  6
 37 68  1  0
 40 69  1  0
 41 70  1  0
 41 71  1  0
 42 72  1  0
 42 73  1  0
 45 74  1  0
 46 75  1  0
 46 76  1  0
 47 77  1  0
 47 78  1  0
 47 79  1  0
M  CHG  4  18  -1  19  -1  26  -1  30  -1
M  END
>  <filename_input>  (25) 
7MSR_DCA_docked.sdf

>  <pdb_id>  (25) 
7MSR_DCA

>  <pose_rank>  (25) 
24

>  <num_atoms_heavy>  (25) 
47

>  <num_torsions>  (25) 
17

>  <pose>  (25) 
[13.096391378924581, 17.058646985620836, 22.692853221872607, 1.5279692888937588, -1.2276160117679242, -2.143675286962284, 3.8842888680939867, 0.035720045519543324, 0.4895027152061956, 0.4765472604104115, 0.8943280465806446, -2.7543861004718337, -3.526673196566855, -3.1214055266351126, -0.6073986059293945, 0.6735909579258911, 3.225521481182613, -4.021013861768453, -6.657266705872292, -1.7243485512461476, 1.5501542423801677, 1.548277794080818, 0.6078048589151622]

>  <energy>  (25) 
-547.2512560683352

>  <inter_energy>  (25) 
-594.8864650268133

>  <intra_energy>  (25) 
44.3080995011143

>  <rmsd>  (25) 
11.1976

>  <sdf_rank>  (25) 
0

$$$$

     RDKit          3D

 79 81  0  0  0  0  0  0  0  0999 V2000
   19.1580   21.9130   13.8750 N   0  0  0  0  0  0  0  0  0  0  0  0
   19.5840   21.7190   15.1280 C   0  0  0  0  0  0  0  0  0  0  0  0
   18.8660   21.6360   16.2520 N   0  0  0  0  0  0  0  0  0  0  0  0
   17.5610   21.7800   16.0040 C   0  0  0  0  0  0  0  0  0  0  0  0
   16.9640   21.9870   14.7690 C   0  0  0  0  0  0  0  0  0  0  0  0
   17.8320   22.0460   13.6590 C   0  0  0  0  0  0  0  0  0  0  0  0
   17.3660   22.2290   12.4100 N   0  0  0  0  0  0  0  0  0  0  0  0
   15.5950   22.0940   14.8990 N   0  0  0  0  0  0  0  0  0  0  0  0
   15.3840   21.9480   16.1810 C   0  0  0  0  0  0  0  0  0  0  0  0
   16.5290   21.7520   16.9130 N   0  0  0  0  0  0  0  0  0  0  0  0
   16.6560   21.5650   18.3490 C   0  0  1  0  0  0  0  0  0  0  0  0
   15.5100   22.1150   19.1900 C   0  0  2  0  0  0  0  0  0  0  0  0
   15.6740   23.5160   19.3660 O   0  0  0  0  0  0  0  0  0  0  0  0
   15.7350   21.3350   20.4850 C   0  0  2  0  0  0  0  0  0  0  0  0
   16.6890   22.0610   21.2860 O   0  0  0  0  0  0  0  0  0  0  0  0
   16.3130   23.0780   22.4510 P   0  0  1  0  0  0  0  0  0  0  0  0
   15.4040   22.4300   23.4430 O   0  0  0  0  0  0  0  0  0  0  0  0
   17.6390   23.5350   23.0650 O   0  0  0  0  0  0  0  0  0  0  0  0
   15.6570   24.2740   21.7480 O   0  0  0  0  0  0  0  0  0  0  0  0
   16.3980   20.0240   20.0330 C   0  0  2  0  0  0  0  0  0  0  0  0
   16.6840   20.1820   18.6270 O   0  0  0  0  0  0  0  0  0  0  0  0
   15.5460   18.7990   20.2470 C   0  0  0  0  0  0  0  0  0  0  0  0
   15.5030   18.5350   21.6570 O   0  0  0  0  0  0  0  0  0  0  0  0
   14.1890   18.0190   22.3770 P   0  0  2  0  0  0  0  0  0  0  0  0
   13.0000   18.7850   21.9530 O   0  0  0  0  0  0  0  0  0  0  0  0
   14.5100   17.9690   23.8710 O   0  0  0  0  0  0  0  0  0  0  0  0
   14.0890   16.5190   21.8600 O   0  0  0  0  0  0  0  0  0  0  0  0
   14.5700   15.1050   22.4060 P   0  0  2  0  0  0  0  0  0  0  0  0
   13.7790   14.6490   23.5590 O   0  0  0  0  0  0  0  0  0  0  0  0
   16.1160   15.1810   22.5660 O   0  0  0  0  0  0  0  0  0  0  0  0
   14.2620   14.1240   21.2050 O   0  0  0  0  0  0  0  0  0  0  0  0
   15.0620   12.9310   19.2560 C   0  0  2  0  0  0  0  0  0  0  0  0
   14.8500   14.2930   19.9100 C   0  0  0  0  0  0  0  0  0  0  0  0
   16.0420   12.1060   20.1060 C   0  0  0  0  0  0  0  0  0  0  0  0
   15.6460   13.1220   17.8460 C   0  0  0  0  0  0  0  0  0  0  0  0
   13.7100   12.1770   19.1680 C   0  0  1  0  0  0  0  0  0  0  0  0
   12.7600   12.9260   18.4230 O   0  0  0  0  0  0  0  0  0  0  0  0
   13.7880   10.7540   18.6290 C   0  0  0  0  0  0  0  0  0  0  0  0
   13.6920   10.5440   17.4250 O   0  0  0  0  0  0  0  0  0  0  0  0
   13.9720    9.7890   19.5300 N   0  0  0  0  0  0  0  0  0  0  0  0
   14.0720    8.3820   19.1670 C   0  0  0  0  0  0  0  0  0  0  0  0
   15.4460    8.0300   18.6080 C   0  0  0  0  0  0  0  0  0  0  0  0
   15.5970    6.5510   18.3800 C   0  0  0  0  0  0  0  0  0  0  0  0
   15.0910    5.7230   19.1330 O   0  0  0  0  0  0  0  0  0  0  0  0
   16.3080    6.2210   17.3050 N   0  0  0  0  0  0  0  0  0  0  0  0
   16.4200    4.8280   16.8930 C   0  0  0  0  0  0  0  0  0  0  0  0
   17.5670    4.1610   17.5320 C   0  0  0  0  0  0  0  0  0  0  0  0
   20.6721   21.6136   15.2496 H   0  0  0  0  0  0  0  0  0  0  0  0
   16.3539   22.3302   12.2476 H   0  0  0  0  0  0  0  0  0  0  0  0
   18.0213   22.2679   11.6163 H   0  0  0  0  0  0  0  0  0  0  0  0
   14.3811   21.9793   16.6318 H   0  0  0  0  0  0  0  0  0  0  0  0
   17.5715   22.1133   18.6161 H   0  0  0  0  0  0  0  0  0  0  0  0
   14.4989   22.0010   18.7721 H   0  0  0  0  0  0  0  0  0  0  0  0
   15.6986   23.7265   20.3331 H   0  0  0  0  0  0  0  0  0  0  0  0
   14.8095   21.1775   21.0582 H   0  0  0  0  0  0  0  0  0  0  0  0
   17.2994   19.8550   20.6404 H   0  0  0  0  0  0  0  0  0  0  0  0
   14.5289   18.9800   19.8691 H   0  0  0  0  0  0  0  0  0  0  0  0
   15.9685   17.9383   19.7078 H   0  0  0  0  0  0  0  0  0  0  0  0
   14.1811   14.8995   19.2817 H   0  0  0  0  0  0  0  0  0  0  0  0
   15.8206   14.7998   20.0155 H   0  0  0  0  0  0  0  0  0  0  0  0
   15.8371   12.2785   21.1729 H   0  0  0  0  0  0  0  0  0  0  0  0
   15.9166   11.0375   19.8766 H   0  0  0  0  0  0  0  0  0  0  0  0
   17.0735   12.4117   19.8766 H   0  0  0  0  0  0  0  0  0  0  0  0
   16.6889   13.4631   17.9242 H   0  0  0  0  0  0  0  0  0  0  0  0
   15.6126   12.1661   17.3027 H   0  0  0  0  0  0  0  0  0  0  0  0
   15.0542   13.8734   17.3027 H   0  0  0  0  0  0  0  0  0  0  0  0
   13.3858   12.0757   20.2143 H   0  0  0  0  0  0  0  0  0  0  0  0
   12.1550   13.4030   19.0447 H   0  0  0  0  0  0  0  0  0  0  0  0
   14.0465   10.0491   20.5238 H   0  0  0  0  0  0  0  0  0  0  0  0
   13.8862    7.7707   20.0624 H   0  0  0  0  0  0  0  0  0  0  0  0
   13.3261    8.1804   18.3841 H   0  0  0  0  0  0  0  0  0  0  0  0
   15.5851    8.5534   17.6505 H   0  0  0  0  0  0  0  0  0  0  0  0
   16.2028    8.3404   19.3434 H   0  0  0  0  0  0  0  0  0  0  0  0
   16.7825    6.9553   16.7603 H   0  0  0  0  0  0  0  0  0  0  0  0
   15.4979    4.2981   17.1737 H   0  0  0  0  0  0  0  0  0  0  0  0
   16.5728    4.8040   15.8039 H   0  0  0  0  0  0  0  0  0  0  0  0
   17.4636    4.2212   18.6255 H   0  0  0  0  0  0  0  0  0  0  0  0
   17.5956    3.1054   17.2239 H   0  0  0  0  0  0  0  0  0  0  0  0
   18.4986    4.6582   17.2239 H   0  0  0  0  0  0  0  0  0  0  0  0
  1  2  2  0
  1  6  1  0
  2  3  1  0
  3  4  2  0
  4  5  1  0
  4 10  1  0
  5  6  2  0
  5  8  1  0
  6  7  1  0
  8  9  2  0
  9 10  1  0
 11 10  1  0
 11 12  1  0
 11 21  1  0
 12 13  1  0
 12 14  1  0
 14 15  1  0
 14 20  1  0
 15 16  1  0
 16 17  2  0
 16 18  1  1
 16 19  1  0
 20 21  1  0
 20 22  1  0
 22 23  1  0
 23 24  1  0
 24 25  2  0
 24 26  1  1
 24 27  1  0
 27 28  1  0
 28 29  2  0
 28 30  1  1
 28 31  1  0
 31 33  1  0
 32 33  1  1
 32 34  1  0
 32 35  1  0
 32 36  1  0
 36 37  1  0
 36 38  1  0
 38 39  2  0
 38 40  1  0
 40 41  1  0
 41 42  1  0
 42 43  1  0
 43 44  2  0
 43 45  1  0
 45 46  1  0
 46 47  1  0
  2 48  1  0
  7 49  1  0
  7 50  1  0
  9 51  1  0
 11 52  1  1
 12 53  1  6
 13 54  1  0
 14 55  1  1
 20 56  1  1
 22 57  1  0
 22 58  1  0
 33 59  1  0
 33 60  1  0
 34 61  1  0
 34 62  1  0
 34 63  1  0
 35 64  1  0
 35 65  1  0
 35 66  1  0
 36 67  1  1
 37 68  1  0
 40 69  1  0
 41 70  1  0
 41 71  1  0
 42 72  1  0
 42 73  1  0
 45 74  1  0
 46 75  1  0
 46 76  1  0
 47 77  1  0
 47 78  1  0
 47 79  1  0
M  CHG  4  18  -1  19  -1  26  -1  30  -1
M  END
>  <filename_input>  (26) 
7MSR_DCA_docked.sdf

>  <pdb_id>  (26) 
7MSR_DCA

>  <pose_rank>  (26) 
25

>  <num_atoms_heavy>  (26) 
47

>  <num_torsions>  (26) 
17

>  <pose>  (26) 
[14.189, 18.019, 22.377, 1e-06, 1e-06, 1e-06, 0.0, 0.0, 0.0, 0.0, 0.0, 0.0, 0.0, 0.0, 0.0, 0.0, 0.0, 0.0, 0.0, 0.0, 0.0, 0.0, 0.0]

>  <energy>  (26) 
-1092.7571532362733

>  <inter_energy>  (26) 
-1147.4071818085251

>  <intra_energy>  (26) 
54.95436853740756

>  <rmsd>  (26) 
0.0

>  <sdf_rank>  (26) 
0

$$$$
