
     RDKit          3D

 59 64  0  0  0  0  0  0  0  0999 V2000
   19.1791  -12.4771  -18.2662 C   0  0  0  0  0  0  0  0  0  0  0  0
   21.3506  -10.0096  -14.5017 C   0  0  0  0  0  0  0  0  0  0  0  0
   20.6312   -9.4444  -13.4344 C   0  0  0  0  0  0  0  0  0  0  0  0
   20.4658  -10.1349  -12.2239 C   0  0  0  0  0  0  0  0  0  0  0  0
   21.0487  -11.3903  -12.1338 C   0  0  0  0  0  0  0  0  0  0  0  0
   22.0095  -13.1566  -10.8366 C   0  0  0  0  0  0  0  0  0  0  0  0
   22.2400  -13.9611  -12.1133 C   0  0  1  0  0  0  0  0  0  0  0  0
   21.0795  -14.9540  -12.3671 C   0  0  0  0  0  0  0  0  0  0  0  0
   18.7739  -14.4152  -11.6261 C   0  0  0  0  0  0  0  0  0  0  0  0
   17.6305  -13.4473  -11.9405 C   0  0  0  0  0  0  0  0  0  0  0  0
   18.1444  -13.5889  -14.2840 C   0  0  0  0  0  0  0  0  0  0  0  0
   18.6728  -11.4973  -19.1155 C   0  0  0  0  0  0  0  0  0  0  0  0
   19.2778  -14.5522  -13.9704 C   0  0  0  0  0  0  0  0  0  0  0  0
   22.4622  -10.9875  -17.3366 C   0  0  0  0  0  0  0  0  0  0  0  0
   23.1770   -9.8327  -17.6411 C   0  0  0  0  0  0  0  0  0  0  0  0
   22.6577   -8.8662  -18.4971 C   0  0  0  0  0  0  0  0  0  0  0  0
   21.4061   -9.0487  -19.0656 C   0  0  0  0  0  0  0  0  0  0  0  0
   20.6771  -10.1988  -18.7871 C   0  0  0  0  0  0  0  0  0  0  0  0
   21.1931  -11.1777  -17.9273 C   0  0  0  0  0  0  0  0  0  0  0  0
   20.4327  -12.3212  -17.6721 C   0  0  0  0  0  0  0  0  0  0  0  0
   19.4184  -10.3540  -19.3772 C   0  0  0  0  0  0  0  0  0  0  0  0
   23.0949  -11.8802  -16.4563 C   0  0  0  0  0  0  0  0  0  0  0  0
   22.6175  -12.0752  -15.1803 C   0  0  0  0  0  0  0  0  0  0  0  0
   22.8640  -13.1725  -14.4358 C   0  0  0  0  0  0  0  0  0  0  0  0
   23.6312  -14.4393  -14.8151 C   0  0  0  0  0  0  0  0  0  0  0  0
   21.7210  -11.8625  -13.1977 C   0  0  0  0  0  0  0  0  0  0  0  0
   21.8929  -11.2331  -14.3822 C   0  0  0  0  0  0  0  0  0  0  0  0
   22.3043  -13.0444  -13.2336 N   0  0  0  0  0  0  0  0  0  0  0  0
   19.8229  -14.2363  -12.6506 N   0  0  2  0  0  0  0  0  0  0  0  0
   24.1996  -12.3198  -16.7927 O   0  0  0  0  0  0  0  0  0  0  0  0
   20.9460  -12.1729  -10.9873 O   0  0  0  0  0  0  0  0  0  0  0  0
   17.1233  -13.6921  -13.2786 O   0  0  0  0  0  0  0  0  0  0  0  0
   18.5868  -13.3811  -18.0615 H   0  0  0  0  0  0  0  0  0  0  0  0
   21.4701   -9.4474  -15.4396 H   0  0  0  0  0  0  0  0  0  0  0  0
   20.1903   -8.4433  -13.5501 H   0  0  0  0  0  0  0  0  0  0  0  0
   19.9004   -9.7009  -11.3860 H   0  0  0  0  0  0  0  0  0  0  0  0
   21.7384  -13.8492  -10.0262 H   0  0  0  0  0  0  0  0  0  0  0  0
   22.9390  -12.6146  -10.6081 H   0  0  0  0  0  0  0  0  0  0  0  0
   23.1763  -14.5280  -12.0032 H   0  0  0  0  0  0  0  0  0  0  0  0
   21.3323  -15.5905  -13.2279 H   0  0  0  0  0  0  0  0  0  0  0  0
   20.9378  -15.5659  -11.4641 H   0  0  0  0  0  0  0  0  0  0  0  0
   19.1848  -14.1954  -10.6297 H   0  0  0  0  0  0  0  0  0  0  0  0
   18.4074  -15.4523  -11.6336 H   0  0  0  0  0  0  0  0  0  0  0  0
   16.8196  -13.5931  -11.2117 H   0  0  0  0  0  0  0  0  0  0  0  0
   18.0060  -12.4151  -11.8811 H   0  0  0  0  0  0  0  0  0  0  0  0
   18.5345  -12.5605  -14.3035 H   0  0  0  0  0  0  0  0  0  0  0  0
   17.7146  -13.8419  -15.2644 H   0  0  0  0  0  0  0  0  0  0  0  0
   17.6838  -11.6278  -19.5790 H   0  0  0  0  0  0  0  0  0  0  0  0
   18.8961  -15.5838  -13.9741 H   0  0  0  0  0  0  0  0  0  0  0  0
   20.0673  -14.4554  -14.7302 H   0  0  0  0  0  0  0  0  0  0  0  0
   24.1717   -9.6810  -17.1965 H   0  0  0  0  0  0  0  0  0  0  0  0
   23.2386   -7.9596  -18.7223 H   0  0  0  0  0  0  0  0  0  0  0  0
   20.9902   -8.2830  -19.7370 H   0  0  0  0  0  0  0  0  0  0  0  0
   20.8227  -13.1009  -17.0013 H   0  0  0  0  0  0  0  0  0  0  0  0
   19.0208   -9.5753  -20.0447 H   0  0  0  0  0  0  0  0  0  0  0  0
   23.9485  -14.9632  -13.9014 H   0  0  0  0  0  0  0  0  0  0  0  0
   22.9803  -15.0983  -15.4084 H   0  0  0  0  0  0  0  0  0  0  0  0
   24.5168  -14.1678  -15.4084 H   0  0  0  0  0  0  0  0  0  0  0  0
   20.1006  -13.2447  -12.6304 H   0  0  0  0  0  0  0  0  0  0  0  0
  1 12  2  0
  1 20  1  0
  2  3  2  0
  2 27  1  0
  3  4  1  0
  4  5  2  0
  5 26  1  0
  5 31  1  0
  6  7  1  0
  6 31  1  0
  7  8  1  0
  7 28  1  0
 29  8  1  0
  9 10  1  0
  9 29  1  0
 10 32  1  0
 11 13  1  0
 11 32  1  0
 12 21  1  0
 13 29  1  0
 14 15  2  0
 14 19  1  0
 14 22  1  0
 15 16  1  0
 16 17  2  0
 17 18  1  0
 18 19  1  0
 18 21  2  0
 19 20  2  0
 22 23  1  0
 22 30  2  0
 23 24  2  0
 23 27  1  0
 24 25  1  0
 24 28  1  0
 26 27  2  0
 26 28  1  0
  1 33  1  0
  2 34  1  0
  3 35  1  0
  4 36  1  0
  6 37  1  0
  6 38  1  0
  7 39  1  1
  8 40  1  0
  8 41  1  0
  9 42  1  0
  9 43  1  0
 10 44  1  0
 10 45  1  0
 11 46  1  0
 11 47  1  0
 12 48  1  0
 13 49  1  0
 13 50  1  0
 15 51  1  0
 16 52  1  0
 17 53  1  0
 20 54  1  0
 21 55  1  0
 25 56  1  0
 25 57  1  0
 25 58  1  0
 29 59  1  6
M  CHG  1  29   1
M  END
>  <filename_input>  (1) 
7MWN_WI5_docked.sdf

>  <pdb_id>  (1) 
7MWN_WI5

>  <pose_rank>  (1) 
0

>  <num_atoms_heavy>  (1) 
32

>  <num_torsions>  (1) 
4

>  <pose>  (1) 
[21.3505625166279, -10.009633525541636, -14.5016888134006, -2.7464134812074104, -3.6212311320698825, 4.246614052512076, 12.612892583965515, -0.11421461565602584, -0.05741864328355783, -12.43189400906923]

>  <energy>  (1) 
-829.8416669829297

>  <inter_energy>  (1) 
-898.1035015958797

>  <intra_energy>  (1) 
74.02405608595913

>  <rmsd>  (1) 
0.310984

>  <sdf_rank>  (1) 
0

$$$$

     RDKit          3D

 59 64  0  0  0  0  0  0  0  0999 V2000
   22.5868   -8.6021  -18.2651 C   0  0  0  0  0  0  0  0  0  0  0  0
   21.1678  -10.3254  -14.3450 C   0  0  0  0  0  0  0  0  0  0  0  0
   20.5050   -9.6466  -13.3077 C   0  0  0  0  0  0  0  0  0  0  0  0
   20.3039  -10.2504  -12.0570 C   0  0  0  0  0  0  0  0  0  0  0  0
   20.7940  -11.5381  -11.8967 C   0  0  0  0  0  0  0  0  0  0  0  0
   21.6381  -13.2913  -10.5041 C   0  0  0  0  0  0  0  0  0  0  0  0
   21.7933  -14.1845  -11.7323 C   0  0  1  0  0  0  0  0  0  0  0  0
   20.5599  -15.1019  -11.9174 C   0  0  0  0  0  0  0  0  0  0  0  0
   18.1999  -14.3741  -12.1538 C   0  0  0  0  0  0  0  0  0  0  0  0
   17.3220  -13.4915  -13.0445 C   0  0  0  0  0  0  0  0  0  0  0  0
   18.5721  -14.1842  -14.9767 C   0  0  0  0  0  0  0  0  0  0  0  0
   21.6891   -8.4407  -19.3168 C   0  0  0  0  0  0  0  0  0  0  0  0
   19.4414  -15.0624  -14.0912 C   0  0  0  0  0  0  0  0  0  0  0  0
   21.8888  -12.1201  -17.2657 C   0  0  0  0  0  0  0  0  0  0  0  0
   21.0268  -13.1377  -17.6640 C   0  0  0  0  0  0  0  0  0  0  0  0
   20.1315  -12.9568  -18.7139 C   0  0  0  0  0  0  0  0  0  0  0  0
   20.0870  -11.7420  -19.3811 C   0  0  0  0  0  0  0  0  0  0  0  0
   20.9290  -10.7056  -18.9951 C   0  0  0  0  0  0  0  0  0  0  0  0
   21.8325  -10.8788  -17.9381 C   0  0  0  0  0  0  0  0  0  0  0  0
   22.6617   -9.8144  -17.5771 C   0  0  0  0  0  0  0  0  0  0  0  0
   20.8590   -9.4920  -19.6871 C   0  0  0  0  0  0  0  0  0  0  0  0
   22.7460  -12.4319  -16.1980 C   0  0  0  0  0  0  0  0  0  0  0  0
   22.2711  -12.5155  -14.9090 C   0  0  0  0  0  0  0  0  0  0  0  0
   22.4453  -13.5823  -14.1024 C   0  0  0  0  0  0  0  0  0  0  0  0
   23.1126  -14.9226  -14.4115 C   0  0  0  0  0  0  0  0  0  0  0  0
   21.4168  -12.1206  -12.9358 C   0  0  0  0  0  0  0  0  0  0  0  0
   21.6201  -11.5765  -14.1569 C   0  0  0  0  0  0  0  0  0  0  0  0
   21.9112  -13.3426  -12.9057 N   0  0  0  0  0  0  0  0  0  0  0  0
   19.5422  -14.4538  -12.7652 N   0  0  2  0  0  0  0  0  0  0  0  0
   23.9605  -12.4230  -16.4257 O   0  0  0  0  0  0  0  0  0  0  0  0
   20.6480  -12.2421  -10.7048 O   0  0  0  0  0  0  0  0  0  0  0  0
   17.2694  -14.0359  -14.3893 O   0  0  0  0  0  0  0  0  0  0  0  0
   23.2421   -7.7680  -17.9741 H   0  0  0  0  0  0  0  0  0  0  0  0
   21.3169   -9.8298  -15.3156 H   0  0  0  0  0  0  0  0  0  0  0  0
   20.1374   -8.6242  -13.4795 H   0  0  0  0  0  0  0  0  0  0  0  0
   19.7822   -9.7272  -11.2421 H   0  0  0  0  0  0  0  0  0  0  0  0
   21.3267  -13.9130   -9.6517 H   0  0  0  0  0  0  0  0  0  0  0  0
   22.6077  -12.8072  -10.3155 H   0  0  0  0  0  0  0  0  0  0  0  0
   22.6866  -14.8117  -11.5958 H   0  0  0  0  0  0  0  0  0  0  0  0
   20.8785  -16.0415  -12.3924 H   0  0  0  0  0  0  0  0  0  0  0  0
   20.1188  -15.2999  -10.9294 H   0  0  0  0  0  0  0  0  0  0  0  0
   18.2737  -13.9328  -11.1489 H   0  0  0  0  0  0  0  0  0  0  0  0
   17.7621  -15.3792  -12.0643 H   0  0  0  0  0  0  0  0  0  0  0  0
   16.3047  -13.4520  -12.6279 H   0  0  0  0  0  0  0  0  0  0  0  0
   17.7505  -12.4791  -13.0824 H   0  0  0  0  0  0  0  0  0  0  0  0
   19.0403  -13.1943  -15.0808 H   0  0  0  0  0  0  0  0  0  0  0  0
   18.4721  -14.6539  -15.9664 H   0  0  0  0  0  0  0  0  0  0  0  0
   21.6369   -7.4822  -19.8540 H   0  0  0  0  0  0  0  0  0  0  0  0
   18.9885  -16.0611  -14.0046 H   0  0  0  0  0  0  0  0  0  0  0  0
   20.4444  -15.1566  -14.5329 H   0  0  0  0  0  0  0  0  0  0  0  0
   21.0537  -14.1038  -17.1386 H   0  0  0  0  0  0  0  0  0  0  0  0
   19.4608  -13.7754  -19.0138 H   0  0  0  0  0  0  0  0  0  0  0  0
   19.3852  -11.5985  -20.2159 H   0  0  0  0  0  0  0  0  0  0  0  0
   23.3757   -9.9318  -16.7486 H   0  0  0  0  0  0  0  0  0  0  0  0
   20.1507   -9.3703  -20.5199 H   0  0  0  0  0  0  0  0  0  0  0  0
   23.3661  -15.4318  -13.4699 H   0  0  0  0  0  0  0  0  0  0  0  0
   22.4219  -15.5506  -14.9934 H   0  0  0  0  0  0  0  0  0  0  0  0
   24.0299  -14.7499  -14.9934 H   0  0  0  0  0  0  0  0  0  0  0  0
   19.8883  -13.4888  -12.8640 H   0  0  0  0  0  0  0  0  0  0  0  0
  1 12  2  0
  1 20  1  0
  2  3  2  0
  2 27  1  0
  3  4  1  0
  4  5  2  0
  5 26  1  0
  5 31  1  0
  6  7  1  0
  6 31  1  0
  7  8  1  0
  7 28  1  0
 29  8  1  0
  9 10  1  0
  9 29  1  0
 10 32  1  0
 11 13  1  0
 11 32  1  0
 12 21  1  0
 13 29  1  0
 14 15  2  0
 14 19  1  0
 14 22  1  0
 15 16  1  0
 16 17  2  0
 17 18  1  0
 18 19  1  0
 18 21  2  0
 19 20  2  0
 22 23  1  0
 22 30  2  0
 23 24  2  0
 23 27  1  0
 24 25  1  0
 24 28  1  0
 26 27  2  0
 26 28  1  0
  1 33  1  0
  2 34  1  0
  3 35  1  0
  4 36  1  0
  6 37  1  0
  6 38  1  0
  7 39  1  1
  8 40  1  0
  8 41  1  0
  9 42  1  0
  9 43  1  0
 10 44  1  0
 10 45  1  0
 11 46  1  0
 11 47  1  0
 12 48  1  0
 13 49  1  0
 13 50  1  0
 15 51  1  0
 16 52  1  0
 17 53  1  0
 20 54  1  0
 21 55  1  0
 25 56  1  0
 25 57  1  0
 25 58  1  0
 29 59  1  6
M  CHG  1  29   1
M  END
>  <filename_input>  (2) 
7MWN_WI5_docked.sdf

>  <pdb_id>  (2) 
7MWN_WI5

>  <pose_rank>  (2) 
1

>  <num_atoms_heavy>  (2) 
32

>  <num_torsions>  (2) 
4

>  <pose>  (2) 
[21.167770620673135, -10.325431062764835, -14.34496450481238, -0.030350433028337575, 0.04436069996639135, -0.11816603307748312, -0.5024786149012659, 9.225647030858186, 12.934331101352745, -0.06405739112662318]

>  <energy>  (2) 
-832.036266888012

>  <inter_energy>  (2) 
-877.95123793809

>  <intra_energy>  (2) 
53.00653609074484

>  <rmsd>  (2) 
1.91642

>  <sdf_rank>  (2) 
0

$$$$

     RDKit          3D

 59 64  0  0  0  0  0  0  0  0999 V2000
   18.3967  -15.6454  -13.0134 C   0  0  0  0  0  0  0  0  0  0  0  0
   19.3917  -13.3330  -16.2526 C   0  0  0  0  0  0  0  0  0  0  0  0
   18.4066  -12.7133  -17.0410 C   0  0  0  0  0  0  0  0  0  0  0  0
   18.7374  -11.6962  -17.9495 C   0  0  0  0  0  0  0  0  0  0  0  0
   20.0758  -11.3413  -18.0328 C   0  0  0  0  0  0  0  0  0  0  0  0
   21.9271  -10.4563  -19.2636 C   0  0  0  0  0  0  0  0  0  0  0  0
   22.8311  -10.6808  -18.0541 C   0  0  1  0  0  0  0  0  0  0  0  0
   22.9524   -9.3958  -17.1990 C   0  0  0  0  0  0  0  0  0  0  0  0
   21.0401   -8.6084  -15.8284 C   0  0  0  0  0  0  0  0  0  0  0  0
   20.2328   -9.0087  -14.5911 C   0  0  0  0  0  0  0  0  0  0  0  0
   22.2386   -9.7964  -13.5272 C   0  0  0  0  0  0  0  0  0  0  0  0
   18.1804  -15.4079  -11.6590 C   0  0  0  0  0  0  0  0  0  0  0  0
   23.0395   -9.3959  -14.7556 C   0  0  0  0  0  0  0  0  0  0  0  0
   21.7557  -14.1084  -13.4791 C   0  0  0  0  0  0  0  0  0  0  0  0
   22.6819  -13.4319  -12.6906 C   0  0  0  0  0  0  0  0  0  0  0  0
   22.4465  -13.1981  -11.3391 C   0  0  0  0  0  0  0  0  0  0  0  0
   21.2681  -13.6408  -10.7574 C   0  0  0  0  0  0  0  0  0  0  0  0
   20.3215  -14.3083  -11.5256 C   0  0  0  0  0  0  0  0  0  0  0  0
   20.5500  -14.5466  -12.8875 C   0  0  0  0  0  0  0  0  0  0  0  0
   19.5752  -15.2191  -13.6283 C   0  0  0  0  0  0  0  0  0  0  0  0
   19.1424  -14.7410  -10.9098 C   0  0  0  0  0  0  0  0  0  0  0  0
   22.1157  -14.2840  -14.8251 C   0  0  0  0  0  0  0  0  0  0  0  0
   21.8593  -13.3076  -15.7605 C   0  0  0  0  0  0  0  0  0  0  0  0
   22.8061  -12.5371  -16.3341 C   0  0  0  0  0  0  0  0  0  0  0  0
   24.3100  -12.4994  -16.0618 C   0  0  0  0  0  0  0  0  0  0  0  0
   20.9584  -11.9805  -17.2459 C   0  0  0  0  0  0  0  0  0  0  0  0
   20.6774  -12.9559  -16.3525 C   0  0  0  0  0  0  0  0  0  0  0  0
   22.2510  -11.7206  -17.2284 N   0  0  0  0  0  0  0  0  0  0  0  0
   22.1933   -9.5246  -15.9414 N   0  0  2  0  0  0  0  0  0  0  0  0
   22.4757  -15.4139  -15.1721 O   0  0  0  0  0  0  0  0  0  0  0  0
   20.5237  -10.3414  -18.8913 O   0  0  0  0  0  0  0  0  0  0  0  0
   21.0749   -8.9622  -13.4094 O   0  0  0  0  0  0  0  0  0  0  0  0
   17.6331  -16.1730  -13.6038 H   0  0  0  0  0  0  0  0  0  0  0  0
   19.1085  -14.1308  -15.5502 H   0  0  0  0  0  0  0  0  0  0  0  0
   17.3580  -13.0313  -16.9441 H   0  0  0  0  0  0  0  0  0  0  0  0
   17.9715  -11.2036  -18.5665 H   0  0  0  0  0  0  0  0  0  0  0  0
   22.2361   -9.5294  -19.7688 H   0  0  0  0  0  0  0  0  0  0  0  0
   22.0290  -11.3284  -19.9262 H   0  0  0  0  0  0  0  0  0  0  0  0
   23.8309  -10.9645  -18.4148 H   0  0  0  0  0  0  0  0  0  0  0  0
   24.0123   -9.2193  -16.9631 H   0  0  0  0  0  0  0  0  0  0  0  0
   22.5400   -8.5527  -17.7727 H   0  0  0  0  0  0  0  0  0  0  0  0
   20.4103   -8.6895  -16.7266 H   0  0  0  0  0  0  0  0  0  0  0  0
   21.3876   -7.5688  -15.7362 H   0  0  0  0  0  0  0  0  0  0  0  0
   19.3906   -8.3123  -14.4653 H   0  0  0  0  0  0  0  0  0  0  0  0
   19.8548  -10.0331  -14.7238 H   0  0  0  0  0  0  0  0  0  0  0  0
   21.9264  -10.8469  -13.6218 H   0  0  0  0  0  0  0  0  0  0  0  0
   22.8644   -9.6740  -12.6308 H   0  0  0  0  0  0  0  0  0  0  0  0
   17.2492  -15.7477  -11.1822 H   0  0  0  0  0  0  0  0  0  0  0  0
   23.3741   -8.3530  -14.6533 H   0  0  0  0  0  0  0  0  0  0  0  0
   23.9183  -10.0501  -14.8546 H   0  0  0  0  0  0  0  0  0  0  0  0
   23.6183  -13.0751  -13.1445 H   0  0  0  0  0  0  0  0  0  0  0  0
   23.1933  -12.6635  -10.7337 H   0  0  0  0  0  0  0  0  0  0  0  0
   21.0824  -13.4635   -9.6878 H   0  0  0  0  0  0  0  0  0  0  0  0
   19.7367  -15.4132  -14.6989 H   0  0  0  0  0  0  0  0  0  0  0  0
   18.9776  -14.5544   -9.8384 H   0  0  0  0  0  0  0  0  0  0  0  0
   24.4861  -12.4949  -14.9760 H   0  0  0  0  0  0  0  0  0  0  0  0
   24.7856  -13.3858  -16.5068 H   0  0  0  0  0  0  0  0  0  0  0  0
   24.7405  -11.5901  -16.5068 H   0  0  0  0  0  0  0  0  0  0  0  0
   21.8168  -10.4824  -15.9830 H   0  0  0  0  0  0  0  0  0  0  0  0
  1 12  2  0
  1 20  1  0
  2  3  2  0
  2 27  1  0
  3  4  1  0
  4  5  2  0
  5 26  1  0
  5 31  1  0
  6  7  1  0
  6 31  1  0
  7  8  1  0
  7 28  1  0
 29  8  1  0
  9 10  1  0
  9 29  1  0
 10 32  1  0
 11 13  1  0
 11 32  1  0
 12 21  1  0
 13 29  1  0
 14 15  2  0
 14 19  1  0
 14 22  1  0
 15 16  1  0
 16 17  2  0
 17 18  1  0
 18 19  1  0
 18 21  2  0
 19 20  2  0
 22 23  1  0
 22 30  2  0
 23 24  2  0
 23 27  1  0
 24 25  1  0
 24 28  1  0
 26 27  2  0
 26 28  1  0
  1 33  1  0
  2 34  1  0
  3 35  1  0
  4 36  1  0
  6 37  1  0
  6 38  1  0
  7 39  1  6
  8 40  1  0
  8 41  1  0
  9 42  1  0
  9 43  1  0
 10 44  1  0
 10 45  1  0
 11 46  1  0
 11 47  1  0
 12 48  1  0
 13 49  1  0
 13 50  1  0
 15 51  1  0
 16 52  1  0
 17 53  1  0
 20 54  1  0
 21 55  1  0
 25 56  1  0
 25 57  1  0
 25 58  1  0
 29 59  1  6
M  CHG  1  29   1
M  END
>  <filename_input>  (3) 
7MWN_WI5_docked.sdf

>  <pdb_id>  (3) 
7MWN_WI5

>  <pose_rank>  (3) 
2

>  <num_atoms_heavy>  (3) 
32

>  <num_torsions>  (3) 
4

>  <pose>  (3) 
[19.391699078254444, -13.333044350632921, -16.252578086164878, 3.148244697556411, -1.4647907468889059, -0.39937997210228293, -0.8109906642996729, 2.7391276223767926, -5.6254505843230405, 6.41819017879653]

>  <energy>  (3) 
-814.6136791974533

>  <inter_energy>  (3) 
-839.6481649131053

>  <intra_energy>  (3) 
45.301109866584426

>  <rmsd>  (3) 
6.18281

>  <sdf_rank>  (3) 
0

$$$$

     RDKit          3D

 59 64  0  0  0  0  0  0  0  0999 V2000
   22.7423  -11.0624  -18.5593 C   0  0  0  0  0  0  0  0  0  0  0  0
   22.9704  -14.3021  -15.1404 C   0  0  0  0  0  0  0  0  0  0  0  0
   23.9991  -14.3315  -14.1829 C   0  0  0  0  0  0  0  0  0  0  0  0
   23.7404  -14.0591  -12.8307 C   0  0  0  0  0  0  0  0  0  0  0  0
   22.4277  -13.7677  -12.4901 C   0  0  0  0  0  0  0  0  0  0  0  0
   20.6460  -13.7274  -10.8935 C   0  0  0  0  0  0  0  0  0  0  0  0
   19.7195  -13.1326  -11.9509 C   0  0  1  0  0  0  0  0  0  0  0  0
   19.6718  -11.5884  -11.8493 C   0  0  0  0  0  0  0  0  0  0  0  0
   21.5756  -10.0801  -12.3552 C   0  0  0  0  0  0  0  0  0  0  0  0
   22.4956   -9.6913  -13.5151 C   0  0  0  0  0  0  0  0  0  0  0  0
   20.6513   -9.8645  -15.0464 C   0  0  0  0  0  0  0  0  0  0  0  0
   22.1615  -10.0678  -19.3411 C   0  0  0  0  0  0  0  0  0  0  0  0
   19.7383  -10.2479  -13.8929 C   0  0  0  0  0  0  0  0  0  0  0  0
   19.7381  -13.0067  -17.5316 C   0  0  0  0  0  0  0  0  0  0  0  0
   18.3624  -12.9321  -17.7300 C   0  0  0  0  0  0  0  0  0  0  0  0
   17.7984  -11.9272  -18.5101 C   0  0  0  0  0  0  0  0  0  0  0  0
   18.6133  -10.9749  -19.1034 C   0  0  0  0  0  0  0  0  0  0  0  0
   19.9891  -11.0200  -18.9111 C   0  0  0  0  0  0  0  0  0  0  0  0
   20.5652  -12.0276  -18.1259 C   0  0  0  0  0  0  0  0  0  0  0  0
   21.9513  -12.0401  -17.9536 C   0  0  0  0  0  0  0  0  0  0  0  0
   20.7838  -10.0442  -19.5218 C   0  0  0  0  0  0  0  0  0  0  0  0
   20.1802  -14.0708  -16.7289 C   0  0  0  0  0  0  0  0  0  0  0  0
   20.5052  -13.8733  -15.4062 C   0  0  0  0  0  0  0  0  0  0  0  0
   19.6135  -13.5663  -14.4420 C   0  0  0  0  0  0  0  0  0  0  0  0
   18.1126  -13.3041  -14.5685 C   0  0  0  0  0  0  0  0  0  0  0  0
   21.5001  -13.7592  -13.4629 C   0  0  0  0  0  0  0  0  0  0  0  0
   21.7118  -14.0055  -14.7756 C   0  0  0  0  0  0  0  0  0  0  0  0
   20.2263  -13.4843  -13.2619 N   0  0  0  0  0  0  0  0  0  0  0  0
   20.5173  -10.9647  -12.8839 N   0  0  2  0  0  0  0  0  0  0  0  0
   20.4616  -15.1307  -17.2983 O   0  0  0  0  0  0  0  0  0  0  0  0
   22.0507  -13.4734  -11.1829 O   0  0  0  0  0  0  0  0  0  0  0  0
   21.7288   -9.0451  -14.5650 O   0  0  0  0  0  0  0  0  0  0  0  0
   23.8331  -11.0780  -18.4177 H   0  0  0  0  0  0  0  0  0  0  0  0
   23.1971  -14.5230  -16.1939 H   0  0  0  0  0  0  0  0  0  0  0  0
   25.0248  -14.5723  -14.4989 H   0  0  0  0  0  0  0  0  0  0  0  0
   24.5410  -14.0759  -12.0765 H   0  0  0  0  0  0  0  0  0  0  0  0
   20.4001  -13.2834   -9.9176 H   0  0  0  0  0  0  0  0  0  0  0  0
   20.4953  -14.8170  -10.8887 H   0  0  0  0  0  0  0  0  0  0  0  0
   18.7070  -13.5317  -11.7906 H   0  0  0  0  0  0  0  0  0  0  0  0
   18.6332  -11.2510  -11.9819 H   0  0  0  0  0  0  0  0  0  0  0  0
   20.0503  -11.2902  -10.8605 H   0  0  0  0  0  0  0  0  0  0  0  0
   22.1530  -10.6100  -11.5832 H   0  0  0  0  0  0  0  0  0  0  0  0
   21.1302   -9.1809  -11.9048 H   0  0  0  0  0  0  0  0  0  0  0  0
   23.2684   -8.9988  -13.1502 H   0  0  0  0  0  0  0  0  0  0  0  0
   22.9672  -10.5987  -13.9203 H   0  0  0  0  0  0  0  0  0  0  0  0
   21.0627  -10.7760  -15.5045 H   0  0  0  0  0  0  0  0  0  0  0  0
   20.0736   -9.3011  -15.7939 H   0  0  0  0  0  0  0  0  0  0  0  0
   22.7923   -9.3014  -19.8152 H   0  0  0  0  0  0  0  0  0  0  0  0
   19.3060   -9.3396  -13.4478 H   0  0  0  0  0  0  0  0  0  0  0  0
   18.9266  -10.8924  -14.2613 H   0  0  0  0  0  0  0  0  0  0  0  0
   17.7084  -13.6820  -17.2611 H   0  0  0  0  0  0  0  0  0  0  0  0
   16.7088  -11.8884  -18.6558 H   0  0  0  0  0  0  0  0  0  0  0  0
   18.1708  -10.1835  -19.7263 H   0  0  0  0  0  0  0  0  0  0  0  0
   22.4206  -12.8224  -17.3390 H   0  0  0  0  0  0  0  0  0  0  0  0
   20.3207   -9.2625  -20.1418 H   0  0  0  0  0  0  0  0  0  0  0  0
   17.6681  -13.2264  -13.5653 H   0  0  0  0  0  0  0  0  0  0  0  0
   17.9496  -12.3638  -15.1156 H   0  0  0  0  0  0  0  0  0  0  0  0
   17.6404  -14.1333  -15.1156 H   0  0  0  0  0  0  0  0  0  0  0  0
   20.9864  -11.7665  -13.3289 H   0  0  0  0  0  0  0  0  0  0  0  0
  1 12  2  0
  1 20  1  0
  2  3  2  0
  2 27  1  0
  3  4  1  0
  4  5  2  0
  5 26  1  0
  5 31  1  0
  6  7  1  0
  6 31  1  0
  7  8  1  0
  7 28  1  0
 29  8  1  0
  9 10  1  0
  9 29  1  0
 10 32  1  0
 11 13  1  0
 11 32  1  0
 12 21  1  0
 13 29  1  0
 14 15  2  0
 14 19  1  0
 14 22  1  0
 15 16  1  0
 16 17  2  0
 17 18  1  0
 18 19  1  0
 18 21  2  0
 19 20  2  0
 22 23  1  0
 22 30  2  0
 23 24  2  0
 23 27  1  0
 24 25  1  0
 24 28  1  0
 26 27  2  0
 26 28  1  0
  1 33  1  0
  2 34  1  0
  3 35  1  0
  4 36  1  0
  6 37  1  0
  6 38  1  0
  7 39  1  1
  8 40  1  0
  8 41  1  0
  9 42  1  0
  9 43  1  0
 10 44  1  0
 10 45  1  0
 11 46  1  0
 11 47  1  0
 12 48  1  0
 13 49  1  0
 13 50  1  0
 15 51  1  0
 16 52  1  0
 17 53  1  0
 20 54  1  0
 21 55  1  0
 25 56  1  0
 25 57  1  0
 25 58  1  0
 29 59  1  6
M  CHG  1  29   1
M  END
>  <filename_input>  (4) 
7MWN_WI5_docked.sdf

>  <pdb_id>  (4) 
7MWN_WI5

>  <pose_rank>  (4) 
3

>  <num_atoms_heavy>  (4) 
32

>  <num_torsions>  (4) 
4

>  <pose>  (4) 
[22.97041472271429, -14.302097298002137, -15.140445356081845, -0.033834461573935215, -0.545542044640317, 3.9355033148975744, 11.051482049749557, 2.481088048443584, 13.128185760927655, 6.281092185434751]

>  <energy>  (4) 
-742.0437650441203

>  <inter_energy>  (4) 
-804.1915284749329

>  <intra_energy>  (4) 
59.961952789666036

>  <rmsd>  (4) 
3.9902

>  <sdf_rank>  (4) 
0

$$$$

     RDKit          3D

 59 64  0  0  0  0  0  0  0  0999 V2000
   21.4509  -10.8295  -12.2507 C   0  0  0  0  0  0  0  0  0  0  0  0
   18.4092  -14.1625  -15.7320 C   0  0  0  0  0  0  0  0  0  0  0  0
   17.6581  -13.7508  -16.8466 C   0  0  0  0  0  0  0  0  0  0  0  0
   18.2822  -13.2307  -17.9908 C   0  0  0  0  0  0  0  0  0  0  0  0
   19.6668  -13.1501  -17.9676 C   0  0  0  0  0  0  0  0  0  0  0  0
   21.7741  -13.1131  -19.1004 C   0  0  0  0  0  0  0  0  0  0  0  0
   22.4879  -12.9899  -17.7566 C   0  0  1  0  0  0  0  0  0  0  0  0
   22.7913  -11.5101  -17.4169 C   0  0  0  0  0  0  0  0  0  0  0  0
   22.4653   -9.6380  -19.0121 C   0  0  0  0  0  0  0  0  0  0  0  0
   21.3519   -8.9337  -19.7913 C   0  0  0  0  0  0  0  0  0  0  0  0
   19.8634   -9.2030  -17.9238 C   0  0  0  0  0  0  0  0  0  0  0  0
   20.6955  -10.3268  -11.1950 C   0  0  0  0  0  0  0  0  0  0  0  0
   20.9709   -9.8999  -17.1501 C   0  0  0  0  0  0  0  0  0  0  0  0
   20.0459  -14.2634  -12.5608 C   0  0  0  0  0  0  0  0  0  0  0  0
   19.0784  -15.0278  -11.9150 C   0  0  0  0  0  0  0  0  0  0  0  0
   18.3365  -14.5107  -10.8572 C   0  0  0  0  0  0  0  0  0  0  0  0
   18.5595  -13.2110  -10.4284 C   0  0  0  0  0  0  0  0  0  0  0  0
   19.5282  -12.4308  -11.0486 C   0  0  0  0  0  0  0  0  0  0  0  0
   20.2808  -12.9441  -12.1135 C   0  0  0  0  0  0  0  0  0  0  0  0
   21.2468  -12.1313  -12.7113 C   0  0  0  0  0  0  0  0  0  0  0  0
   19.7302  -11.1242  -10.5919 C   0  0  0  0  0  0  0  0  0  0  0  0
   20.7199  -14.8999  -13.6156 C   0  0  0  0  0  0  0  0  0  0  0  0
   20.7669  -14.3352  -14.8698 C   0  0  0  0  0  0  0  0  0  0  0  0
   21.9058  -14.0058  -15.5130 C   0  0  0  0  0  0  0  0  0  0  0  0
   23.3501  -14.1015  -15.0209 C   0  0  0  0  0  0  0  0  0  0  0  0
   20.3143  -13.5641  -16.8648 C   0  0  0  0  0  0  0  0  0  0  0  0
   19.7489  -14.0601  -15.7410 C   0  0  0  0  0  0  0  0  0  0  0  0
   21.6245  -13.5236  -16.7226 N   0  0  0  0  0  0  0  0  0  0  0  0
   21.8391  -10.6077  -18.0903 N   0  0  2  0  0  0  0  0  0  0  0  0
   21.0848  -16.0661  -13.4326 O   0  0  0  0  0  0  0  0  0  0  0  0
   20.3963  -12.6446  -19.0398 O   0  0  0  0  0  0  0  0  0  0  0  0
   20.4325   -8.2866  -18.8728 O   0  0  0  0  0  0  0  0  0  0  0  0
   22.2145  -10.1960  -12.7256 H   0  0  0  0  0  0  0  0  0  0  0  0
   17.8976  -14.5707  -14.8479 H   0  0  0  0  0  0  0  0  0  0  0  0
   16.5618  -13.8379  -16.8214 H   0  0  0  0  0  0  0  0  0  0  0  0
   17.7008  -12.9023  -18.8650 H   0  0  0  0  0  0  0  0  0  0  0  0
   22.3185  -12.5152  -19.8462 H   0  0  0  0  0  0  0  0  0  0  0  0
   21.7555  -14.1781  -19.3750 H   0  0  0  0  0  0  0  0  0  0  0  0
   23.4364  -13.5439  -17.8144 H   0  0  0  0  0  0  0  0  0  0  0  0
   22.7141  -11.3676  -16.3289 H   0  0  0  0  0  0  0  0  0  0  0  0
   23.8069  -11.2715  -17.7656 H   0  0  0  0  0  0  0  0  0  0  0  0
   23.1328  -10.1648  -19.7099 H   0  0  0  0  0  0  0  0  0  0  0  0
   23.0576   -8.9035  -18.4468 H   0  0  0  0  0  0  0  0  0  0  0  0
   21.7953   -8.1772  -20.4555 H   0  0  0  0  0  0  0  0  0  0  0  0
   20.8024   -9.6781  -20.3862 H   0  0  0  0  0  0  0  0  0  0  0  0
   19.2625   -9.9542  -18.4572 H   0  0  0  0  0  0  0  0  0  0  0  0
   19.2250   -8.6471  -17.2213 H   0  0  0  0  0  0  0  0  0  0  0  0
   20.8624   -9.2996  -10.8386 H   0  0  0  0  0  0  0  0  0  0  0  0
   21.5591   -9.1535  -16.5960 H   0  0  0  0  0  0  0  0  0  0  0  0
   20.5325  -10.6159  -16.4394 H   0  0  0  0  0  0  0  0  0  0  0  0
   18.8968  -16.0606  -12.2471 H   0  0  0  0  0  0  0  0  0  0  0  0
   17.5750  -15.1316  -10.3626 H   0  0  0  0  0  0  0  0  0  0  0  0
   17.9696  -12.7974   -9.5971 H   0  0  0  0  0  0  0  0  0  0  0  0
   21.8482  -12.5182  -13.5471 H   0  0  0  0  0  0  0  0  0  0  0  0
   19.1283  -10.7300   -9.7599 H   0  0  0  0  0  0  0  0  0  0  0  0
   23.3634  -14.1024  -13.9210 H   0  0  0  0  0  0  0  0  0  0  0  0
   23.8036  -15.0317  -15.3938 H   0  0  0  0  0  0  0  0  0  0  0  0
   23.9224  -13.2393  -15.3938 H   0  0  0  0  0  0  0  0  0  0  0  0
   21.2661  -11.2440  -18.6628 H   0  0  0  0  0  0  0  0  0  0  0  0
  1 12  2  0
  1 20  1  0
  2  3  2  0
  2 27  1  0
  3  4  1  0
  4  5  2  0
  5 26  1  0
  5 31  1  0
  6  7  1  0
  6 31  1  0
  7  8  1  0
  7 28  1  0
 29  8  1  0
  9 10  1  0
  9 29  1  0
 10 32  1  0
 11 13  1  0
 11 32  1  0
 12 21  1  0
 13 29  1  0
 14 15  2  0
 14 19  1  0
 14 22  1  0
 15 16  1  0
 16 17  2  0
 17 18  1  0
 18 19  1  0
 18 21  2  0
 19 20  2  0
 22 23  1  0
 22 30  2  0
 23 24  2  0
 23 27  1  0
 24 25  1  0
 24 28  1  0
 26 27  2  0
 26 28  1  0
  1 33  1  0
  2 34  1  0
  3 35  1  0
  4 36  1  0
  6 37  1  0
  6 38  1  0
  7 39  1  6
  8 40  1  0
  8 41  1  0
  9 42  1  0
  9 43  1  0
 10 44  1  0
 10 45  1  0
 11 46  1  0
 11 47  1  0
 12 48  1  0
 13 49  1  0
 13 50  1  0
 15 51  1  0
 16 52  1  0
 17 53  1  0
 20 54  1  0
 21 55  1  0
 25 56  1  0
 25 57  1  0
 25 58  1  0
 29 59  1  6
M  CHG  1  29   1
M  END
>  <filename_input>  (5) 
7MWN_WI5_docked.sdf

>  <pdb_id>  (5) 
7MWN_WI5

>  <pose_rank>  (5) 
4

>  <num_atoms_heavy>  (5) 
32

>  <num_torsions>  (5) 
4

>  <pose>  (5) 
[18.409228377162094, -14.162535868297036, -15.732018697271174, 2.794617768878318, -1.5952892568844939, 0.15244779666416872, -6.88133809397357, 0.14107232927677363, -0.7603127057911884, 0.03231566270871786]

>  <energy>  (5) 
-737.3966140163421

>  <inter_energy>  (5) 
-789.0165361665139

>  <intra_energy>  (5) 
50.89338948484712

>  <rmsd>  (5) 
6.72055

>  <sdf_rank>  (5) 
0

$$$$

     RDKit          3D

 59 64  0  0  0  0  0  0  0  0999 V2000
   18.7430  -12.4084  -18.5728 C   0  0  0  0  0  0  0  0  0  0  0  0
   22.0229  -10.0316  -14.4166 C   0  0  0  0  0  0  0  0  0  0  0  0
   21.7180   -9.1549  -13.3610 C   0  0  0  0  0  0  0  0  0  0  0  0
   21.1859   -9.6306  -12.1527 C   0  0  0  0  0  0  0  0  0  0  0  0
   20.9837  -10.9992  -12.0527 C   0  0  0  0  0  0  0  0  0  0  0  0
   20.8022  -12.9913  -10.7396 C   0  0  0  0  0  0  0  0  0  0  0  0
   20.5698  -13.8021  -12.0120 C   0  0  1  0  0  0  0  0  0  0  0  0
   19.0581  -13.9983  -12.2830 C   0  0  0  0  0  0  0  0  0  0  0  0
   18.0540  -13.9258  -14.5506 C   0  0  0  0  0  0  0  0  0  0  0  0
   18.0993  -14.6754  -15.8844 C   0  0  0  0  0  0  0  0  0  0  0  0
   18.2880  -16.7653  -14.7127 C   0  0  0  0  0  0  0  0  0  0  0  0
   18.5699  -11.4093  -19.5264 C   0  0  0  0  0  0  0  0  0  0  0  0
   18.2401  -16.0197  -13.3888 C   0  0  0  0  0  0  0  0  0  0  0  0
   22.1677  -11.6294  -17.3375 C   0  0  0  0  0  0  0  0  0  0  0  0
   23.1595  -10.6929  -17.6146 C   0  0  0  0  0  0  0  0  0  0  0  0
   22.9714   -9.7042  -18.5757 C   0  0  0  0  0  0  0  0  0  0  0  0
   21.7778   -9.6437  -19.2790 C   0  0  0  0  0  0  0  0  0  0  0  0
   20.7761  -10.5745  -19.0297 C   0  0  0  0  0  0  0  0  0  0  0  0
   20.9577  -11.5742  -18.0646 C   0  0  0  0  0  0  0  0  0  0  0  0
   19.9296  -12.4932  -17.8425 C   0  0  0  0  0  0  0  0  0  0  0  0
   19.5842  -10.4876  -19.7567 C   0  0  0  0  0  0  0  0  0  0  0  0
   22.4801  -12.5700  -16.3427 C   0  0  0  0  0  0  0  0  0  0  0  0
   21.9580  -12.4597  -15.0741 C   0  0  0  0  0  0  0  0  0  0  0  0
   21.5530  -13.5057  -14.3251 C   0  0  0  0  0  0  0  0  0  0  0  0
   21.5046  -14.9892  -14.6916 C   0  0  0  0  0  0  0  0  0  0  0  0
   21.3002  -11.7723  -13.1058 C   0  0  0  0  0  0  0  0  0  0  0  0
   21.8039  -11.3510  -14.2879 C   0  0  0  0  0  0  0  0  0  0  0  0
   21.1403  -13.0809  -13.1318 N   0  0  0  0  0  0  0  0  0  0  0  0
   18.8373  -14.6962  -13.5631 N   0  0  2  0  0  0  0  0  0  0  0  0
   23.3908  -13.3692  -16.5850 O   0  0  0  0  0  0  0  0  0  0  0  0
   20.4543  -11.5869  -10.9073 O   0  0  0  0  0  0  0  0  0  0  0  0
   17.5811  -16.0213  -15.7182 O   0  0  0  0  0  0  0  0  0  0  0  0
   17.9384  -13.1368  -18.3933 H   0  0  0  0  0  0  0  0  0  0  0  0
   22.4429   -9.6355  -15.3529 H   0  0  0  0  0  0  0  0  0  0  0  0
   21.8997   -8.0771  -13.4842 H   0  0  0  0  0  0  0  0  0  0  0  0
   20.9407   -8.9501  -11.3239 H   0  0  0  0  0  0  0  0  0  0  0  0
   20.1857  -13.4145   -9.9329 H   0  0  0  0  0  0  0  0  0  0  0  0
   21.8738  -13.0457  -10.4971 H   0  0  0  0  0  0  0  0  0  0  0  0
   21.0404  -14.7884  -11.8870 H   0  0  0  0  0  0  0  0  0  0  0  0
   18.6210  -14.5943  -11.4683 H   0  0  0  0  0  0  0  0  0  0  0  0
   18.5801  -13.0091  -12.3359 H   0  0  0  0  0  0  0  0  0  0  0  0
   18.4899  -12.9232  -14.6716 H   0  0  0  0  0  0  0  0  0  0  0  0
   17.0137  -13.8174  -14.2101 H   0  0  0  0  0  0  0  0  0  0  0  0
   17.4874  -14.1387  -16.6243 H   0  0  0  0  0  0  0  0  0  0  0  0
   19.1419  -14.7313  -16.2307 H   0  0  0  0  0  0  0  0  0  0  0  0
   19.3359  -16.8924  -15.0221 H   0  0  0  0  0  0  0  0  0  0  0  0
   17.8144  -17.7506  -14.5910 H   0  0  0  0  0  0  0  0  0  0  0  0
   17.6314  -11.3493  -20.0971 H   0  0  0  0  0  0  0  0  0  0  0  0
   17.1945  -15.9122  -13.0642 H   0  0  0  0  0  0  0  0  0  0  0  0
   18.8000  -16.5815  -12.6266 H   0  0  0  0  0  0  0  0  0  0  0  0
   24.1103  -10.7350  -17.0632 H   0  0  0  0  0  0  0  0  0  0  0  0
   23.7676   -8.9724  -18.7771 H   0  0  0  0  0  0  0  0  0  0  0  0
   21.6237   -8.8590  -20.0343 H   0  0  0  0  0  0  0  0  0  0  0  0
   20.0554  -13.2859  -17.0902 H   0  0  0  0  0  0  0  0  0  0  0  0
   19.4505   -9.6940  -20.5066 H   0  0  0  0  0  0  0  0  0  0  0  0
   21.4849  -15.5935  -13.7727 H   0  0  0  0  0  0  0  0  0  0  0  0
   20.5994  -15.1914  -15.2830 H   0  0  0  0  0  0  0  0  0  0  0  0
   22.3947  -15.2500  -15.2830 H   0  0  0  0  0  0  0  0  0  0  0  0
   19.7870  -14.8042  -13.9469 H   0  0  0  0  0  0  0  0  0  0  0  0
  1 12  2  0
  1 20  1  0
  2  3  2  0
  2 27  1  0
  3  4  1  0
  4  5  2  0
  5 26  1  0
  5 31  1  0
  6  7  1  0
  6 31  1  0
  7  8  1  0
  7 28  1  0
 29  8  1  0
  9 10  1  0
  9 29  1  0
 10 32  1  0
 11 13  1  0
 11 32  1  0
 12 21  1  0
 13 29  1  0
 14 15  2  0
 14 19  1  0
 14 22  1  0
 15 16  1  0
 16 17  2  0
 17 18  1  0
 18 19  1  0
 18 21  2  0
 19 20  2  0
 22 23  1  0
 22 30  2  0
 23 24  2  0
 23 27  1  0
 24 25  1  0
 24 28  1  0
 26 27  2  0
 26 28  1  0
  1 33  1  0
  2 34  1  0
  3 35  1  0
  4 36  1  0
  6 37  1  0
  6 38  1  0
  7 39  1  1
  8 40  1  0
  8 41  1  0
  9 42  1  0
  9 43  1  0
 10 44  1  0
 10 45  1  0
 11 46  1  0
 11 47  1  0
 12 48  1  0
 13 49  1  0
 13 50  1  0
 15 51  1  0
 16 52  1  0
 17 53  1  0
 20 54  1  0
 21 55  1  0
 25 56  1  0
 25 57  1  0
 25 58  1  0
 29 59  1  6
M  CHG  1  29   1
M  END
>  <filename_input>  (6) 
7MWN_WI5_docked.sdf

>  <pdb_id>  (6) 
7MWN_WI5

>  <pose_rank>  (6) 
5

>  <num_atoms_heavy>  (6) 
32

>  <num_torsions>  (6) 
4

>  <pose>  (6) 
[22.0228662482072, -10.031638580394223, -14.41662254652259, 0.03292980914687884, 0.012723681928509152, -0.6232107654041767, -0.23291059462159783, 6.035247309749655, -4.4230901366161195, 6.322222822081634]

>  <energy>  (6) 
-741.8577944600663

>  <inter_energy>  (6) 
-800.1663544723747

>  <intra_energy>  (6) 
63.91288618694512

>  <rmsd>  (6) 
1.38596

>  <sdf_rank>  (6) 
0

$$$$

     RDKit          3D

 59 64  0  0  0  0  0  0  0  0999 V2000
   18.8958  -12.3578  -17.9053 C   0  0  0  0  0  0  0  0  0  0  0  0
   23.2631  -13.5207  -15.4909 C   0  0  0  0  0  0  0  0  0  0  0  0
   23.6158  -14.8810  -15.4612 C   0  0  0  0  0  0  0  0  0  0  0  0
   22.7943  -15.8307  -14.8347 C   0  0  0  0  0  0  0  0  0  0  0  0
   21.6235  -15.3626  -14.2566 C   0  0  0  0  0  0  0  0  0  0  0  0
   19.3666  -15.7080  -13.5408 C   0  0  0  0  0  0  0  0  0  0  0  0
   19.2997  -14.2573  -13.0703 C   0  0  1  0  0  0  0  0  0  0  0  0
   19.6238  -14.1423  -11.5607 C   0  0  0  0  0  0  0  0  0  0  0  0
   19.8581  -12.3310   -9.8815 C   0  0  0  0  0  0  0  0  0  0  0  0
   19.2926  -10.9469   -9.5539 C   0  0  0  0  0  0  0  0  0  0  0  0
   17.1105  -11.6616  -10.2637 C   0  0  0  0  0  0  0  0  0  0  0  0
   18.8481  -11.9012  -19.2195 C   0  0  0  0  0  0  0  0  0  0  0  0
   17.6731  -13.0366  -10.5860 C   0  0  0  0  0  0  0  0  0  0  0  0
   21.6783  -10.2979  -16.5354 C   0  0  0  0  0  0  0  0  0  0  0  0
   22.5545   -9.3274  -17.0125 C   0  0  0  0  0  0  0  0  0  0  0  0
   22.4964   -8.8869  -18.3312 C   0  0  0  0  0  0  0  0  0  0  0  0
   21.5529   -9.4207  -19.1960 C   0  0  0  0  0  0  0  0  0  0  0  0
   20.6741  -10.3998  -18.7477 C   0  0  0  0  0  0  0  0  0  0  0  0
   20.7267  -10.8501  -17.4217 C   0  0  0  0  0  0  0  0  0  0  0  0
   19.8288  -11.8364  -17.0073 C   0  0  0  0  0  0  0  0  0  0  0  0
   19.7350  -10.9193  -19.6448 C   0  0  0  0  0  0  0  0  0  0  0  0
   21.8376  -10.6507  -15.1855 C   0  0  0  0  0  0  0  0  0  0  0  0
   21.4896  -11.9036  -14.7346 C   0  0  0  0  0  0  0  0  0  0  0  0
   20.3537  -12.1813  -14.0626 C   0  0  0  0  0  0  0  0  0  0  0  0
   19.2565  -11.2260  -13.5926 C   0  0  0  0  0  0  0  0  0  0  0  0
   21.3557  -14.0472  -14.3267 C   0  0  0  0  0  0  0  0  0  0  0  0
   22.1258  -13.1016  -14.9110 C   0  0  0  0  0  0  0  0  0  0  0  0
   20.2829  -13.4863  -13.8041 N   0  0  0  0  0  0  0  0  0  0  0  0
   19.0703  -12.8981  -10.9950 N   0  0  2  0  0  0  0  0  0  0  0  0
   22.1012   -9.7425  -14.3902 O   0  0  0  0  0  0  0  0  0  0  0  0
   20.7333  -16.2077  -13.6002 O   0  0  0  0  0  0  0  0  0  0  0  0
   17.8838  -11.0502   -9.2186 O   0  0  0  0  0  0  0  0  0  0  0  0
   18.1929  -13.1354  -17.5719 H   0  0  0  0  0  0  0  0  0  0  0  0
   23.9215  -12.7954  -15.9915 H   0  0  0  0  0  0  0  0  0  0  0  0
   24.5523  -15.2069  -15.9375 H   0  0  0  0  0  0  0  0  0  0  0  0
   23.0659  -16.8962  -14.8036 H   0  0  0  0  0  0  0  0  0  0  0  0
   18.7914  -16.3333  -12.8420 H   0  0  0  0  0  0  0  0  0  0  0  0
   18.9480  -15.7516  -14.5571 H   0  0  0  0  0  0  0  0  0  0  0  0
   18.2810  -13.8811  -13.2457 H   0  0  0  0  0  0  0  0  0  0  0  0
   19.1875  -15.0029  -11.0325 H   0  0  0  0  0  0  0  0  0  0  0  0
   20.7167  -14.1280  -11.4368 H   0  0  0  0  0  0  0  0  0  0  0  0
   20.9133  -12.2415  -10.1792 H   0  0  0  0  0  0  0  0  0  0  0  0
   19.7967  -12.9857   -8.9997 H   0  0  0  0  0  0  0  0  0  0  0  0
   19.8399  -10.5233   -8.6990 H   0  0  0  0  0  0  0  0  0  0  0  0
   19.4068  -10.2942  -10.4320 H   0  0  0  0  0  0  0  0  0  0  0  0
   17.1506  -11.0308  -11.1640 H   0  0  0  0  0  0  0  0  0  0  0  0
   16.0678  -11.7660   -9.9293 H   0  0  0  0  0  0  0  0  0  0  0  0
   18.1094  -12.3170  -19.9205 H   0  0  0  0  0  0  0  0  0  0  0  0
   17.6121  -13.6778   -9.6943 H   0  0  0  0  0  0  0  0  0  0  0  0
   17.0920  -13.4931  -11.4008 H   0  0  0  0  0  0  0  0  0  0  0  0
   23.3077   -8.9003  -16.3339 H   0  0  0  0  0  0  0  0  0  0  0  0
   23.1970   -8.1170  -18.6868 H   0  0  0  0  0  0  0  0  0  0  0  0
   21.5001   -9.0693  -20.2371 H   0  0  0  0  0  0  0  0  0  0  0  0
   19.8568  -12.2033  -15.9707 H   0  0  0  0  0  0  0  0  0  0  0  0
   19.6986  -10.5527  -20.6812 H   0  0  0  0  0  0  0  0  0  0  0  0
   19.2338  -11.2062  -12.4930 H   0  0  0  0  0  0  0  0  0  0  0  0
   19.4630  -10.2148  -13.9733 H   0  0  0  0  0  0  0  0  0  0  0  0
   18.2834  -11.5695  -13.9733 H   0  0  0  0  0  0  0  0  0  0  0  0
   19.1267  -12.2304  -11.7773 H   0  0  0  0  0  0  0  0  0  0  0  0
  1 12  2  0
  1 20  1  0
  2  3  2  0
  2 27  1  0
  3  4  1  0
  4  5  2  0
  5 26  1  0
  5 31  1  0
  6  7  1  0
  6 31  1  0
  7  8  1  0
  7 28  1  0
 29  8  1  0
  9 10  1  0
  9 29  1  0
 10 32  1  0
 11 13  1  0
 11 32  1  0
 12 21  1  0
 13 29  1  0
 14 15  2  0
 14 19  1  0
 14 22  1  0
 15 16  1  0
 16 17  2  0
 17 18  1  0
 18 19  1  0
 18 21  2  0
 19 20  2  0
 22 23  1  0
 22 30  2  0
 23 24  2  0
 23 27  1  0
 24 25  1  0
 24 28  1  0
 26 27  2  0
 26 28  1  0
  1 33  1  0
  2 34  1  0
  3 35  1  0
  4 36  1  0
  6 37  1  0
  6 38  1  0
  7 39  1  1
  8 40  1  0
  8 41  1  0
  9 42  1  0
  9 43  1  0
 10 44  1  0
 10 45  1  0
 11 46  1  0
 11 47  1  0
 12 48  1  0
 13 49  1  0
 13 50  1  0
 15 51  1  0
 16 52  1  0
 17 53  1  0
 20 54  1  0
 21 55  1  0
 25 56  1  0
 25 57  1  0
 25 58  1  0
 29 59  1  6
M  CHG  1  29   1
M  END
>  <filename_input>  (7) 
7MWN_WI5_docked.sdf

>  <pdb_id>  (7) 
7MWN_WI5

>  <pose_rank>  (7) 
6

>  <num_atoms_heavy>  (7) 
32

>  <num_torsions>  (7) 
4

>  <pose>  (7) 
[23.263060784638125, -13.52065422091771, -15.490888519397751, -1.2697107647784525, -1.933827436161963, 2.2897138151342564, -4.483394769235112, -4.7051057597929296, -3.966605545374123, -0.4693266650283994]

>  <energy>  (7) 
-749.5329093200133

>  <inter_energy>  (7) 
-817.219563904018

>  <intra_energy>  (7) 
74.05351361149849

>  <rmsd>  (7) 
3.37615

>  <sdf_rank>  (7) 
0

$$$$

     RDKit          3D

 59 64  0  0  0  0  0  0  0  0999 V2000
   18.3779  -10.4323  -11.0742 C   0  0  0  0  0  0  0  0  0  0  0  0
   21.5838  -15.4920  -13.8749 C   0  0  0  0  0  0  0  0  0  0  0  0
   22.8885  -15.9439  -14.1386 C   0  0  0  0  0  0  0  0  0  0  0  0
   23.7561  -15.2148  -14.9662 C   0  0  0  0  0  0  0  0  0  0  0  0
   23.2660  -14.0325  -15.5011 C   0  0  0  0  0  0  0  0  0  0  0  0
   23.6189  -11.8314  -16.3706 C   0  0  0  0  0  0  0  0  0  0  0  0
   22.1133  -11.6742  -16.5682 C   0  0  1  0  0  0  0  0  0  0  0  0
   21.6970  -12.0382  -18.0144 C   0  0  0  0  0  0  0  0  0  0  0  0
   21.5801   -9.5625  -18.1266 C   0  0  0  0  0  0  0  0  0  0  0  0
   21.1826   -8.4437  -19.0926 C   0  0  0  0  0  0  0  0  0  0  0  0
   19.3523   -9.7775  -19.8969 C   0  0  0  0  0  0  0  0  0  0  0  0
   18.3723  -10.6354   -9.6971 C   0  0  0  0  0  0  0  0  0  0  0  0
   19.7466  -10.8866  -18.9350 C   0  0  0  0  0  0  0  0  0  0  0  0
   18.7936  -13.9205  -12.3076 C   0  0  0  0  0  0  0  0  0  0  0  0
   18.9410  -15.1859  -11.7470 C   0  0  0  0  0  0  0  0  0  0  0  0
   18.9389  -15.3698  -10.3676 C   0  0  0  0  0  0  0  0  0  0  0  0
   18.7908  -14.2775   -9.5261 C   0  0  0  0  0  0  0  0  0  0  0  0
   18.6539  -13.0018  -10.0606 C   0  0  0  0  0  0  0  0  0  0  0  0
   18.6564  -12.8076  -11.4484 C   0  0  0  0  0  0  0  0  0  0  0  0
   18.5181  -11.5110  -11.9491 C   0  0  0  0  0  0  0  0  0  0  0  0
   18.5077  -11.9204   -9.1854 C   0  0  0  0  0  0  0  0  0  0  0  0
   18.8072  -13.8715  -13.7110 C   0  0  0  0  0  0  0  0  0  0  0  0
   19.9738  -13.6309  -14.4005 C   0  0  0  0  0  0  0  0  0  0  0  0
   20.1949  -12.5409  -15.1634 C   0  0  0  0  0  0  0  0  0  0  0  0
   19.2427  -11.3928  -15.4988 C   0  0  0  0  0  0  0  0  0  0  0  0
   22.0074  -13.6672  -15.2021 C   0  0  0  0  0  0  0  0  0  0  0  0
   21.1393  -14.3468  -14.4190 C   0  0  0  0  0  0  0  0  0  0  0  0
   21.4303  -12.5740  -15.6608 N   0  0  0  0  0  0  0  0  0  0  0  0
   21.1947  -10.8529  -18.7335 N   0  0  2  0  0  0  0  0  0  0  0  0
   17.7146  -13.8450  -14.2873 O   0  0  0  0  0  0  0  0  0  0  0  0
   24.0301  -13.2283  -16.3419 O   0  0  0  0  0  0  0  0  0  0  0  0
   19.7585   -8.5049  -19.3681 O   0  0  0  0  0  0  0  0  0  0  0  0
   18.2710   -9.4139  -11.4760 H   0  0  0  0  0  0  0  0  0  0  0  0
   20.9234  -16.0790  -13.2197 H   0  0  0  0  0  0  0  0  0  0  0  0
   23.2355  -16.8856  -13.6883 H   0  0  0  0  0  0  0  0  0  0  0  0
   24.7768  -15.5643  -15.1807 H   0  0  0  0  0  0  0  0  0  0  0  0
   24.1388  -11.3266  -17.1981 H   0  0  0  0  0  0  0  0  0  0  0  0
   23.8792  -11.3841  -15.3999 H   0  0  0  0  0  0  0  0  0  0  0  0
   21.8443  -10.6256  -16.3733 H   0  0  0  0  0  0  0  0  0  0  0  0
   22.5698  -12.4406  -18.5495 H   0  0  0  0  0  0  0  0  0  0  0  0
   20.8933  -12.7879  -17.9697 H   0  0  0  0  0  0  0  0  0  0  0  0
   22.6667   -9.5400  -17.9572 H   0  0  0  0  0  0  0  0  0  0  0  0
   21.0716   -9.4295  -17.1603 H   0  0  0  0  0  0  0  0  0  0  0  0
   21.4243   -7.4702  -18.6411 H   0  0  0  0  0  0  0  0  0  0  0  0
   21.7371   -8.5674  -20.0345 H   0  0  0  0  0  0  0  0  0  0  0  0
   19.8443   -9.9434  -20.8666 H   0  0  0  0  0  0  0  0  0  0  0  0
   18.2602   -9.7833  -20.0286 H   0  0  0  0  0  0  0  0  0  0  0  0
   18.2607   -9.7799   -9.0147 H   0  0  0  0  0  0  0  0  0  0  0  0
   19.2371  -10.7372  -17.9717 H   0  0  0  0  0  0  0  0  0  0  0  0
   19.4531  -11.8610  -19.3526 H   0  0  0  0  0  0  0  0  0  0  0  0
   19.0616  -16.0576  -12.4071 H   0  0  0  0  0  0  0  0  0  0  0  0
   19.0544  -16.3791   -9.9457 H   0  0  0  0  0  0  0  0  0  0  0  0
   18.7817  -14.4208   -8.4356 H   0  0  0  0  0  0  0  0  0  0  0  0
   18.5198  -11.3394  -13.0356 H   0  0  0  0  0  0  0  0  0  0  0  0
   18.5000  -12.0863   -8.0980 H   0  0  0  0  0  0  0  0  0  0  0  0
   18.8690  -10.9423  -14.5675 H   0  0  0  0  0  0  0  0  0  0  0  0
   19.7782  -10.6317  -16.0852 H   0  0  0  0  0  0  0  0  0  0  0  0
   18.3956  -11.7785  -16.0852 H   0  0  0  0  0  0  0  0  0  0  0  0
   21.6626  -10.9090  -19.6494 H   0  0  0  0  0  0  0  0  0  0  0  0
  1 12  2  0
  1 20  1  0
  2  3  2  0
  2 27  1  0
  3  4  1  0
  4  5  2  0
  5 26  1  0
  5 31  1  0
  6  7  1  0
  6 31  1  0
  7  8  1  0
  7 28  1  0
 29  8  1  0
  9 10  1  0
  9 29  1  0
 10 32  1  0
 11 13  1  0
 11 32  1  0
 12 21  1  0
 13 29  1  0
 14 15  2  0
 14 19  1  0
 14 22  1  0
 15 16  1  0
 16 17  2  0
 17 18  1  0
 18 19  1  0
 18 21  2  0
 19 20  2  0
 22 23  1  0
 22 30  2  0
 23 24  2  0
 23 27  1  0
 24 25  1  0
 24 28  1  0
 26 27  2  0
 26 28  1  0
  1 33  1  0
  2 34  1  0
  3 35  1  0
  4 36  1  0
  6 37  1  0
  6 38  1  0
  7 39  1  1
  8 40  1  0
  8 41  1  0
  9 42  1  0
  9 43  1  0
 10 44  1  0
 10 45  1  0
 11 46  1  0
 11 47  1  0
 12 48  1  0
 13 49  1  0
 13 50  1  0
 15 51  1  0
 16 52  1  0
 17 53  1  0
 20 54  1  0
 21 55  1  0
 25 56  1  0
 25 57  1  0
 25 58  1  0
 29 59  1  6
M  CHG  1  29   1
M  END
>  <filename_input>  (8) 
7MWN_WI5_docked.sdf

>  <pdb_id>  (8) 
7MWN_WI5

>  <pose_rank>  (8) 
7

>  <num_atoms_heavy>  (8) 
32

>  <num_torsions>  (8) 
4

>  <pose>  (8) 
[21.58380592179683, -15.491995380351026, -13.87491882558351, 1.7720946261912667, 1.3400148649267742, 1.8165473957043174, 1.560929752898621, 2.600786168174888, -3.196719565818819, 2.447396369128905]

>  <energy>  (8) 
-748.4733535531351

>  <inter_energy>  (8) 
-766.8549607137029

>  <intra_energy>  (8) 
23.423474550273134

>  <rmsd>  (8) 
7.05431

>  <sdf_rank>  (8) 
0

$$$$

     RDKit          3D

 59 64  0  0  0  0  0  0  0  0999 V2000
   17.7073  -13.7607  -14.6311 C   0  0  0  0  0  0  0  0  0  0  0  0
   22.0886  -13.7182  -12.6214 C   0  0  0  0  0  0  0  0  0  0  0  0
   22.9237  -14.8135  -12.9021 C   0  0  0  0  0  0  0  0  0  0  0  0
   23.6233  -14.9011  -14.1154 C   0  0  0  0  0  0  0  0  0  0  0  0
   23.4543  -13.8571  -15.0130 C   0  0  0  0  0  0  0  0  0  0  0  0
   24.2584  -12.5038  -16.8151 C   0  0  0  0  0  0  0  0  0  0  0  0
   22.9689  -11.6879  -16.7702 C   0  0  1  0  0  0  0  0  0  0  0  0
   21.9369  -12.2139  -17.7974 C   0  0  0  0  0  0  0  0  0  0  0  0
   22.2815   -9.8860  -18.5830 C   0  0  0  0  0  0  0  0  0  0  0  0
   21.8929   -8.9627  -19.7404 C   0  0  0  0  0  0  0  0  0  0  0  0
   19.7005   -9.9457  -19.7990 C   0  0  0  0  0  0  0  0  0  0  0  0
   16.7499  -14.4230  -13.8680 C   0  0  0  0  0  0  0  0  0  0  0  0
   20.0870  -10.8601  -18.6477 C   0  0  0  0  0  0  0  0  0  0  0  0
   19.3939  -11.7013  -12.0279 C   0  0  0  0  0  0  0  0  0  0  0  0
   19.2608  -11.4848  -10.6594 C   0  0  0  0  0  0  0  0  0  0  0  0
   18.2939  -12.1515   -9.9131 C   0  0  0  0  0  0  0  0  0  0  0  0
   17.4393  -13.0489  -10.5354 C   0  0  0  0  0  0  0  0  0  0  0  0
   17.5436  -13.2741  -11.9030 C   0  0  0  0  0  0  0  0  0  0  0  0
   18.5135  -12.6059  -12.6623 C   0  0  0  0  0  0  0  0  0  0  0  0
   18.5875  -12.8562  -14.0345 C   0  0  0  0  0  0  0  0  0  0  0  0
   16.6660  -14.1842  -12.5014 C   0  0  0  0  0  0  0  0  0  0  0  0
   20.4113  -10.9710  -12.6633 C   0  0  0  0  0  0  0  0  0  0  0  0
   21.2314  -11.5628  -13.5968 C   0  0  0  0  0  0  0  0  0  0  0  0
   21.5442  -11.0160  -14.7894 C   0  0  0  0  0  0  0  0  0  0  0  0
   21.0457   -9.7102  -15.4088 C   0  0  0  0  0  0  0  0  0  0  0  0
   22.6388  -12.8445  -14.6719 C   0  0  0  0  0  0  0  0  0  0  0  0
   21.9408  -12.7298  -13.5194 C   0  0  0  0  0  0  0  0  0  0  0  0
   22.3911  -11.8068  -15.4468 N   0  0  0  0  0  0  0  0  0  0  0  0
   21.5198  -11.1439  -18.7223 N   0  0  2  0  0  0  0  0  0  0  0  0
   20.6738   -9.8524  -12.2087 O   0  0  0  0  0  0  0  0  0  0  0  0
   24.0897  -13.8361  -16.2513 O   0  0  0  0  0  0  0  0  0  0  0  0
   20.4602   -8.7280  -19.7320 O   0  0  0  0  0  0  0  0  0  0  0  0
   17.7708  -13.9514  -15.7125 H   0  0  0  0  0  0  0  0  0  0  0  0
   21.5534  -13.6700  -11.6616 H   0  0  0  0  0  0  0  0  0  0  0  0
   23.0306  -15.6162  -12.1576 H   0  0  0  0  0  0  0  0  0  0  0  0
   24.2750  -15.7572  -14.3440 H   0  0  0  0  0  0  0  0  0  0  0  0
   24.5790  -12.6012  -17.8628 H   0  0  0  0  0  0  0  0  0  0  0  0
   25.0116  -11.9761  -16.2117 H   0  0  0  0  0  0  0  0  0  0  0  0
   23.2103  -10.6421  -17.0112 H   0  0  0  0  0  0  0  0  0  0  0  0
   22.3899  -13.0328  -18.3755 H   0  0  0  0  0  0  0  0  0  0  0  0
   21.0508  -12.5715  -17.2524 H   0  0  0  0  0  0  0  0  0  0  0  0
   23.3603  -10.0974  -18.6211 H   0  0  0  0  0  0  0  0  0  0  0  0
   22.0517   -9.4065  -17.6200 H   0  0  0  0  0  0  0  0  0  0  0  0
   22.4194   -8.0029  -19.6327 H   0  0  0  0  0  0  0  0  0  0  0  0
   22.1741   -9.4392  -20.6911 H   0  0  0  0  0  0  0  0  0  0  0  0
   19.9075  -10.4527  -20.7530 H   0  0  0  0  0  0  0  0  0  0  0  0
   18.6287   -9.7084  -19.7292 H   0  0  0  0  0  0  0  0  0  0  0  0
   16.0606  -15.1346  -14.3460 H   0  0  0  0  0  0  0  0  0  0  0  0
   19.8588  -10.3656  -17.6920 H   0  0  0  0  0  0  0  0  0  0  0  0
   19.5191  -11.7998  -18.7141 H   0  0  0  0  0  0  0  0  0  0  0  0
   19.9330  -10.7728  -10.1582 H   0  0  0  0  0  0  0  0  0  0  0  0
   18.2077  -11.9672   -8.8321 H   0  0  0  0  0  0  0  0  0  0  0  0
   16.6787  -13.5826   -9.9467 H   0  0  0  0  0  0  0  0  0  0  0  0
   19.3413  -12.3393  -14.6465 H   0  0  0  0  0  0  0  0  0  0  0  0
   15.9135  -14.7081  -11.8937 H   0  0  0  0  0  0  0  0  0  0  0  0
   20.7764   -9.0044  -14.6092 H   0  0  0  0  0  0  0  0  0  0  0  0
   21.8402   -9.2730  -16.0314 H   0  0  0  0  0  0  0  0  0  0  0  0
   20.1620   -9.9135  -16.0314 H   0  0  0  0  0  0  0  0  0  0  0  0
   21.7378  -11.5292  -19.6523 H   0  0  0  0  0  0  0  0  0  0  0  0
  1 12  2  0
  1 20  1  0
  2  3  2  0
  2 27  1  0
  3  4  1  0
  4  5  2  0
  5 26  1  0
  5 31  1  0
  6  7  1  0
  6 31  1  0
  7  8  1  0
  7 28  1  0
 29  8  1  0
  9 10  1  0
  9 29  1  0
 10 32  1  0
 11 13  1  0
 11 32  1  0
 12 21  1  0
 13 29  1  0
 14 15  2  0
 14 19  1  0
 14 22  1  0
 15 16  1  0
 16 17  2  0
 17 18  1  0
 18 19  1  0
 18 21  2  0
 19 20  2  0
 22 23  1  0
 22 30  2  0
 23 24  2  0
 23 27  1  0
 24 25  1  0
 24 28  1  0
 26 27  2  0
 26 28  1  0
  1 33  1  0
  2 34  1  0
  3 35  1  0
  4 36  1  0
  6 37  1  0
  6 38  1  0
  7 39  1  6
  8 40  1  0
  8 41  1  0
  9 42  1  0
  9 43  1  0
 10 44  1  0
 10 45  1  0
 11 46  1  0
 11 47  1  0
 12 48  1  0
 13 49  1  0
 13 50  1  0
 15 51  1  0
 16 52  1  0
 17 53  1  0
 20 54  1  0
 21 55  1  0
 25 56  1  0
 25 57  1  0
 25 58  1  0
 29 59  1  6
M  CHG  1  29   1
M  END
>  <filename_input>  (9) 
7MWN_WI5_docked.sdf

>  <pdb_id>  (9) 
7MWN_WI5

>  <pose_rank>  (9) 
8

>  <num_atoms_heavy>  (9) 
32

>  <num_torsions>  (9) 
4

>  <pose>  (9) 
[22.088613433918404, -13.718168501507446, -12.621375707140537, 1.9679402775796093, 1.1465792826854173, 0.982613594950362, 5.909289664291988, 0.3465031502652255, 9.203924458874097, 2.2538548077978247]

>  <energy>  (9) 
-772.046989152929

>  <inter_energy>  (9) 
-806.9029676962554

>  <intra_energy>  (9) 
44.228976865965286

>  <rmsd>  (9) 
6.36215

>  <sdf_rank>  (9) 
0

$$$$

     RDKit          3D

 59 64  0  0  0  0  0  0  0  0999 V2000
   17.0936  -13.5660  -12.5887 C   0  0  0  0  0  0  0  0  0  0  0  0
   19.1588  -14.2818  -16.2498 C   0  0  0  0  0  0  0  0  0  0  0  0
   18.5442  -14.0263  -17.4879 C   0  0  0  0  0  0  0  0  0  0  0  0
   19.2439  -13.3990  -18.5301 C   0  0  0  0  0  0  0  0  0  0  0  0
   20.5635  -13.0525  -18.2795 C   0  0  0  0  0  0  0  0  0  0  0  0
   22.7871  -12.6126  -19.0460 C   0  0  0  0  0  0  0  0  0  0  0  0
   23.2250  -12.3498  -17.6074 C   0  0  1  0  0  0  0  0  0  0  0  0
   23.1796  -10.8383  -17.2753 C   0  0  0  0  0  0  0  0  0  0  0  0
   22.8712   -8.8831  -18.7711 C   0  0  0  0  0  0  0  0  0  0  0  0
   21.9363   -8.3773  -19.8724 C   0  0  0  0  0  0  0  0  0  0  0  0
   20.0526   -9.3260  -18.7201 C   0  0  0  0  0  0  0  0  0  0  0  0
   16.8866  -12.7807  -11.4581 C   0  0  0  0  0  0  0  0  0  0  0  0
   20.9821   -9.8254  -17.6257 C   0  0  0  0  0  0  0  0  0  0  0  0
   20.8109  -13.7658  -12.6472 C   0  0  0  0  0  0  0  0  0  0  0  0
   21.8674  -13.2696  -11.8890 C   0  0  0  0  0  0  0  0  0  0  0  0
   21.6421  -12.4810  -10.7648 C   0  0  0  0  0  0  0  0  0  0  0  0
   20.3438  -12.1751  -10.3855 C   0  0  0  0  0  0  0  0  0  0  0  0
   19.2715  -12.6483  -11.1325 C   0  0  0  0  0  0  0  0  0  0  0  0
   19.4895  -13.4418  -12.2668 C   0  0  0  0  0  0  0  0  0  0  0  0
   18.3875  -13.8979  -12.9939 C   0  0  0  0  0  0  0  0  0  0  0  0
   17.9740  -12.3212  -10.7248 C   0  0  0  0  0  0  0  0  0  0  0  0
   21.1724  -14.5525  -13.7529 C   0  0  0  0  0  0  0  0  0  0  0  0
   21.3244  -13.9932  -15.0012 C   0  0  0  0  0  0  0  0  0  0  0  0
   22.4726  -13.4521  -15.4571 C   0  0  0  0  0  0  0  0  0  0  0  0
   23.8035  -13.2656  -14.7282 C   0  0  0  0  0  0  0  0  0  0  0  0
   21.0802  -13.3302  -17.0701 C   0  0  0  0  0  0  0  0  0  0  0  0
   20.4362  -13.9226  -16.0392 C   0  0  0  0  0  0  0  0  0  0  0  0
   22.3153  -13.0370  -16.7132 N   0  0  0  0  0  0  0  0  0  0  0  0
   22.2915  -10.1192  -18.2072 N   0  0  2  0  0  0  0  0  0  0  0  0
   21.1453  -15.7793  -13.6081 O   0  0  0  0  0  0  0  0  0  0  0  0
   21.3557  -12.4189  -19.2327 O   0  0  0  0  0  0  0  0  0  0  0  0
   20.6072   -8.1512  -19.3337 O   0  0  0  0  0  0  0  0  0  0  0  0
   16.2308  -13.9277  -13.1673 H   0  0  0  0  0  0  0  0  0  0  0  0
   18.5909  -14.7784  -15.4492 H   0  0  0  0  0  0  0  0  0  0  0  0
   17.4965  -14.3234  -17.6426 H   0  0  0  0  0  0  0  0  0  0  0  0
   18.7684  -13.1918  -19.5001 H   0  0  0  0  0  0  0  0  0  0  0  0
   23.3271  -11.9232  -19.7117 H   0  0  0  0  0  0  0  0  0  0  0  0
   23.0180  -13.6620  -19.2815 H   0  0  0  0  0  0  0  0  0  0  0  0
   24.2571  -12.7104  -17.4864 H   0  0  0  0  0  0  0  0  0  0  0  0
   22.8067  -10.7065  -16.2488 H   0  0  0  0  0  0  0  0  0  0  0  0
   24.1955  -10.4275  -17.3717 H   0  0  0  0  0  0  0  0  0  0  0  0
   23.8640   -9.0964  -19.1940 H   0  0  0  0  0  0  0  0  0  0  0  0
   22.9809   -8.1212  -17.9853 H   0  0  0  0  0  0  0  0  0  0  0  0
   22.3295   -7.4337  -20.2786 H   0  0  0  0  0  0  0  0  0  0  0  0
   21.8778   -9.1326  -20.6700 H   0  0  0  0  0  0  0  0  0  0  0  0
   19.9295  -10.1112  -19.4805 H   0  0  0  0  0  0  0  0  0  0  0  0
   19.0753   -9.0781  -18.2803 H   0  0  0  0  0  0  0  0  0  0  0  0
   15.8636  -12.5242  -11.1455 H   0  0  0  0  0  0  0  0  0  0  0  0
   21.0883   -9.0515  -16.8512 H   0  0  0  0  0  0  0  0  0  0  0  0
   20.5650  -10.7367  -17.1724 H   0  0  0  0  0  0  0  0  0  0  0  0
   22.9005  -13.5054  -12.1842 H   0  0  0  0  0  0  0  0  0  0  0  0
   22.4917  -12.1013  -10.1784 H   0  0  0  0  0  0  0  0  0  0  0  0
   20.1626  -11.5578   -9.4932 H   0  0  0  0  0  0  0  0  0  0  0  0
   18.5397  -14.5203  -13.8880 H   0  0  0  0  0  0  0  0  0  0  0  0
   17.8153  -11.7035   -9.8285 H   0  0  0  0  0  0  0  0  0  0  0  0
   23.6330  -13.2895  -13.6417 H   0  0  0  0  0  0  0  0  0  0  0  0
   24.4921  -14.0760  -15.0092 H   0  0  0  0  0  0  0  0  0  0  0  0
   24.2429  -12.2971  -15.0092 H   0  0  0  0  0  0  0  0  0  0  0  0
   22.1717  -10.7813  -18.9870 H   0  0  0  0  0  0  0  0  0  0  0  0
  1 12  2  0
  1 20  1  0
  2  3  2  0
  2 27  1  0
  3  4  1  0
  4  5  2  0
  5 26  1  0
  5 31  1  0
  6  7  1  0
  6 31  1  0
  7  8  1  0
  7 28  1  0
 29  8  1  0
  9 10  1  0
  9 29  1  0
 10 32  1  0
 11 13  1  0
 11 32  1  0
 12 21  1  0
 13 29  1  0
 14 15  2  0
 14 19  1  0
 14 22  1  0
 15 16  1  0
 16 17  2  0
 17 18  1  0
 18 19  1  0
 18 21  2  0
 19 20  2  0
 22 23  1  0
 22 30  2  0
 23 24  2  0
 23 27  1  0
 24 25  1  0
 24 28  1  0
 26 27  2  0
 26 28  1  0
  1 33  1  0
  2 34  1  0
  3 35  1  0
  4 36  1  0
  6 37  1  0
  6 38  1  0
  7 39  1  6
  8 40  1  0
  8 41  1  0
  9 42  1  0
  9 43  1  0
 10 44  1  0
 10 45  1  0
 11 46  1  0
 11 47  1  0
 12 48  1  0
 13 49  1  0
 13 50  1  0
 15 51  1  0
 16 52  1  0
 17 53  1  0
 20 54  1  0
 21 55  1  0
 25 56  1  0
 25 57  1  0
 25 58  1  0
 29 59  1  6
M  CHG  1  29   1
M  END
>  <filename_input>  (10) 
7MWN_WI5_docked.sdf

>  <pdb_id>  (10) 
7MWN_WI5

>  <pose_rank>  (10) 
9

>  <num_atoms_heavy>  (10) 
32

>  <num_torsions>  (10) 
4

>  <pose>  (10) 
[19.15877302190741, -14.281790092757328, -16.249765596623494, -2.706670132026477, 1.2074556100859566, -0.363988848639269, -1.1775730124130168, 2.6079977464062307, 5.4359521062457965, -0.18700769881794116]

>  <energy>  (10) 
-736.0839724030211

>  <inter_energy>  (10) 
-791.3306518139074

>  <intra_energy>  (10) 
57.02439424382964

>  <rmsd>  (10) 
6.63378

>  <sdf_rank>  (10) 
0

$$$$

     RDKit          3D

 59 64  0  0  0  0  0  0  0  0999 V2000
   19.1026  -14.9266  -13.0064 C   0  0  0  0  0  0  0  0  0  0  0  0
   23.1196  -13.4387  -14.4082 C   0  0  0  0  0  0  0  0  0  0  0  0
   23.7294  -14.0504  -15.5173 C   0  0  0  0  0  0  0  0  0  0  0  0
   23.8348  -13.3834  -16.7475 C   0  0  0  0  0  0  0  0  0  0  0  0
   23.3160  -12.0985  -16.8102 C   0  0  0  0  0  0  0  0  0  0  0  0
   23.2904   -9.9026  -17.7603 C   0  0  0  0  0  0  0  0  0  0  0  0
   22.1635   -9.5100  -16.8083 C   0  0  1  0  0  0  0  0  0  0  0  0
   20.7787   -9.6760  -17.4805 C   0  0  0  0  0  0  0  0  0  0  0  0
   20.2178  -11.6226  -18.9128 C   0  0  0  0  0  0  0  0  0  0  0  0
   20.0368  -13.1398  -18.8219 C   0  0  0  0  0  0  0  0  0  0  0  0
   19.0158  -12.8965  -16.6599 C   0  0  0  0  0  0  0  0  0  0  0  0
   17.7937  -14.9032  -12.5332 C   0  0  0  0  0  0  0  0  0  0  0  0
   19.1938  -11.3896  -16.7528 C   0  0  0  0  0  0  0  0  0  0  0  0
   20.3064  -11.5688  -11.9394 C   0  0  0  0  0  0  0  0  0  0  0  0
   19.7787  -10.4621  -11.2806 C   0  0  0  0  0  0  0  0  0  0  0  0
   18.4658  -10.4540  -10.8193 C   0  0  0  0  0  0  0  0  0  0  0  0
   17.6581  -11.5637  -11.0172 C   0  0  0  0  0  0  0  0  0  0  0  0
   18.1573  -12.6771  -11.6828 C   0  0  0  0  0  0  0  0  0  0  0  0
   19.4777  -12.6931  -12.1518 C   0  0  0  0  0  0  0  0  0  0  0  0
   19.9441  -13.8289  -12.8178 C   0  0  0  0  0  0  0  0  0  0  0  0
   17.3171  -13.7800  -11.8678 C   0  0  0  0  0  0  0  0  0  0  0  0
   21.6444  -11.4519  -12.3494 C   0  0  0  0  0  0  0  0  0  0  0  0
   21.9690  -11.3225  -13.6806 C   0  0  0  0  0  0  0  0  0  0  0  0
   21.7474  -10.2115  -14.4125 C   0  0  0  0  0  0  0  0  0  0  0  0
   21.0568   -8.9110  -14.0011 C   0  0  0  0  0  0  0  0  0  0  0  0
   22.7483  -11.5822  -15.7066 C   0  0  0  0  0  0  0  0  0  0  0  0
   22.6186  -12.1961  -14.5088 C   0  0  0  0  0  0  0  0  0  0  0  0
   22.2113  -10.3792  -15.6500 N   0  0  0  0  0  0  0  0  0  0  0  0
   20.3890  -11.0968  -17.5431 N   0  0  2  0  0  0  0  0  0  0  0  0
   22.5173  -11.6759  -11.5040 O   0  0  0  0  0  0  0  0  0  0  0  0
   23.3548  -11.3413  -17.9775 O   0  0  0  0  0  0  0  0  0  0  0  0
   18.8990  -13.4568  -17.9777 O   0  0  0  0  0  0  0  0  0  0  0  0
   19.4767  -15.8168  -13.5332 H   0  0  0  0  0  0  0  0  0  0  0  0
   23.0523  -13.9802  -13.4531 H   0  0  0  0  0  0  0  0  0  0  0  0
   24.1311  -15.0697  -15.4191 H   0  0  0  0  0  0  0  0  0  0  0  0
   24.3065  -13.8573  -17.6209 H   0  0  0  0  0  0  0  0  0  0  0  0
   23.1252   -9.4059  -18.7278 H   0  0  0  0  0  0  0  0  0  0  0  0
   24.2408   -9.5884  -17.3043 H   0  0  0  0  0  0  0  0  0  0  0  0
   22.2982   -8.4555  -16.5257 H   0  0  0  0  0  0  0  0  0  0  0  0
   20.0274   -9.1222  -16.8984 H   0  0  0  0  0  0  0  0  0  0  0  0
   20.8375   -9.2831  -18.5062 H   0  0  0  0  0  0  0  0  0  0  0  0
   21.1078  -11.3890  -19.5156 H   0  0  0  0  0  0  0  0  0  0  0  0
   19.3401  -11.1625  -19.3902 H   0  0  0  0  0  0  0  0  0  0  0  0
   19.8668  -13.5470  -19.8295 H   0  0  0  0  0  0  0  0  0  0  0  0
   20.9434  -13.5851  -18.3863 H   0  0  0  0  0  0  0  0  0  0  0  0
   19.8870  -13.3361  -16.1524 H   0  0  0  0  0  0  0  0  0  0  0  0
   18.1020  -13.1189  -16.0893 H   0  0  0  0  0  0  0  0  0  0  0  0
   17.1374  -15.7728  -12.6857 H   0  0  0  0  0  0  0  0  0  0  0  0
   18.3130  -10.9439  -17.2382 H   0  0  0  0  0  0  0  0  0  0  0  0
   19.3040  -10.9665  -15.7435 H   0  0  0  0  0  0  0  0  0  0  0  0
   20.4117   -9.5767  -11.1216 H   0  0  0  0  0  0  0  0  0  0  0  0
   18.0697   -9.5695  -10.2989 H   0  0  0  0  0  0  0  0  0  0  0  0
   16.6221  -11.5627  -10.6474 H   0  0  0  0  0  0  0  0  0  0  0  0
   20.9772  -13.8584  -13.1945 H   0  0  0  0  0  0  0  0  0  0  0  0
   16.2847  -13.7585  -11.4888 H   0  0  0  0  0  0  0  0  0  0  0  0
   21.0221   -8.8456  -12.9036 H   0  0  0  0  0  0  0  0  0  0  0  0
   21.6190   -8.0547  -14.4019 H   0  0  0  0  0  0  0  0  0  0  0  0
   20.0325   -8.8970  -14.4019 H   0  0  0  0  0  0  0  0  0  0  0  0
   21.1943  -11.5872  -17.1283 H   0  0  0  0  0  0  0  0  0  0  0  0
  1 12  2  0
  1 20  1  0
  2  3  2  0
  2 27  1  0
  3  4  1  0
  4  5  2  0
  5 26  1  0
  5 31  1  0
  6  7  1  0
  6 31  1  0
  7  8  1  0
  7 28  1  0
 29  8  1  0
  9 10  1  0
  9 29  1  0
 10 32  1  0
 11 13  1  0
 11 32  1  0
 12 21  1  0
 13 29  1  0
 14 15  2  0
 14 19  1  0
 14 22  1  0
 15 16  1  0
 16 17  2  0
 17 18  1  0
 18 19  1  0
 18 21  2  0
 19 20  2  0
 22 23  1  0
 22 30  2  0
 23 24  2  0
 23 27  1  0
 24 25  1  0
 24 28  1  0
 26 27  2  0
 26 28  1  0
  1 33  1  0
  2 34  1  0
  3 35  1  0
  4 36  1  0
  6 37  1  0
  6 38  1  0
  7 39  1  1
  8 40  1  0
  8 41  1  0
  9 42  1  0
  9 43  1  0
 10 44  1  0
 10 45  1  0
 11 46  1  0
 11 47  1  0
 12 48  1  0
 13 49  1  0
 13 50  1  0
 15 51  1  0
 16 52  1  0
 17 53  1  0
 20 54  1  0
 21 55  1  0
 25 56  1  0
 25 57  1  0
 25 58  1  0
 29 59  1  1
M  CHG  1  29   1
M  END
>  <filename_input>  (11) 
7MWN_WI5_docked.sdf

>  <pdb_id>  (11) 
7MWN_WI5

>  <pose_rank>  (11) 
10

>  <num_atoms_heavy>  (11) 
32

>  <num_torsions>  (11) 
4

>  <pose>  (11) 
[23.11964758916856, -13.438720959934574, -14.408188134747617, -2.6441744333630135, -1.296380811350902, -1.0119546904495509, -1.4512847497865176, -3.9489683439613317, 0.11925810819325043, 0.07146124506786758]

>  <energy>  (11) 
-710.4973418503255

>  <inter_energy>  (11) 
-772.3734935408295

>  <intra_energy>  (11) 
56.88824605522684

>  <rmsd>  (11) 
5.99754

>  <sdf_rank>  (11) 
0

$$$$

     RDKit          3D

 59 64  0  0  0  0  0  0  0  0999 V2000
   20.0793   -9.2671  -19.2899 C   0  0  0  0  0  0  0  0  0  0  0  0
   21.8522  -15.7214  -15.9340 C   0  0  0  0  0  0  0  0  0  0  0  0
   22.2132  -16.8368  -15.1584 C   0  0  0  0  0  0  0  0  0  0  0  0
   21.7026  -17.0169  -13.8637 C   0  0  0  0  0  0  0  0  0  0  0  0
   20.8263  -16.0489  -13.3954 C   0  0  0  0  0  0  0  0  0  0  0  0
   19.0086  -15.3851  -11.9880 C   0  0  0  0  0  0  0  0  0  0  0  0
   19.0987  -13.9684  -12.5495 C   0  0  1  0  0  0  0  0  0  0  0  0
   19.9632  -13.0598  -11.6417 C   0  0  0  0  0  0  0  0  0  0  0  0
   17.6971  -12.3491  -10.9239 C   0  0  0  0  0  0  0  0  0  0  0  0
   16.9549  -11.8580   -9.6786 C   0  0  0  0  0  0  0  0  0  0  0  0
   18.8851  -10.5865   -9.0200 C   0  0  0  0  0  0  0  0  0  0  0  0
   21.1632   -8.4026  -19.4141 C   0  0  0  0  0  0  0  0  0  0  0  0
   19.6199  -11.0730  -10.2586 C   0  0  0  0  0  0  0  0  0  0  0  0
   21.5979  -12.0356  -17.3174 C   0  0  0  0  0  0  0  0  0  0  0  0
   22.8471  -12.3355  -16.7817 C   0  0  0  0  0  0  0  0  0  0  0  0
   23.9214  -11.4620  -16.9206 C   0  0  0  0  0  0  0  0  0  0  0  0
   23.7558  -10.2683  -17.6067 C   0  0  0  0  0  0  0  0  0  0  0  0
   22.5216   -9.9506  -18.1614 C   0  0  0  0  0  0  0  0  0  0  0  0
   21.4349  -10.8252  -18.0275 C   0  0  0  0  0  0  0  0  0  0  0  0
   20.2103  -10.4733  -18.5997 C   0  0  0  0  0  0  0  0  0  0  0  0
   22.3872   -8.7397  -18.8486 C   0  0  0  0  0  0  0  0  0  0  0  0
   20.5972  -12.9973  -17.1029 C   0  0  0  0  0  0  0  0  0  0  0  0
   20.4648  -13.6227  -15.8841 C   0  0  0  0  0  0  0  0  0  0  0  0
   19.6686  -13.1847  -14.8874 C   0  0  0  0  0  0  0  0  0  0  0  0
   18.8119  -11.9199  -14.8266 C   0  0  0  0  0  0  0  0  0  0  0  0
   20.5297  -15.0114  -14.1969 C   0  0  0  0  0  0  0  0  0  0  0  0
   21.0085  -14.7980  -15.4434 C   0  0  0  0  0  0  0  0  0  0  0  0
   19.7219  -14.0265  -13.8563 N   0  0  0  0  0  0  0  0  0  0  0  0
   19.1385  -12.4094  -10.6066 N   0  0  2  0  0  0  0  0  0  0  0  0
   19.9833  -13.4064  -18.0941 O   0  0  0  0  0  0  0  0  0  0  0  0
   20.2616  -16.1149  -12.1249 O   0  0  0  0  0  0  0  0  0  0  0  0
   17.4702  -10.5641   -9.2686 O   0  0  0  0  0  0  0  0  0  0  0  0
   19.1120   -8.9976  -19.7391 H   0  0  0  0  0  0  0  0  0  0  0  0
   22.2626  -15.6040  -16.9478 H   0  0  0  0  0  0  0  0  0  0  0  0
   22.9081  -17.5816  -15.5736 H   0  0  0  0  0  0  0  0  0  0  0  0
   21.9839  -17.8848  -13.2492 H   0  0  0  0  0  0  0  0  0  0  0  0
   18.7481  -15.3267  -10.9209 H   0  0  0  0  0  0  0  0  0  0  0  0
   18.2403  -15.9255  -12.5604 H   0  0  0  0  0  0  0  0  0  0  0  0
   18.0824  -13.5514  -12.6067 H   0  0  0  0  0  0  0  0  0  0  0  0
   20.7371  -13.6705  -11.1538 H   0  0  0  0  0  0  0  0  0  0  0  0
   20.4244  -12.2790  -12.2643 H   0  0  0  0  0  0  0  0  0  0  0  0
   17.3349  -13.3495  -11.2032 H   0  0  0  0  0  0  0  0  0  0  0  0
   17.5212  -11.6644  -11.7667 H   0  0  0  0  0  0  0  0  0  0  0  0
   15.8826  -11.7670   -9.9064 H   0  0  0  0  0  0  0  0  0  0  0  0
   17.1042  -12.5801   -8.8623 H   0  0  0  0  0  0  0  0  0  0  0  0
   19.0972  -11.2644   -8.1801 H   0  0  0  0  0  0  0  0  0  0  0  0
   19.2256   -9.5703   -8.7723 H   0  0  0  0  0  0  0  0  0  0  0  0
   21.0512   -7.4537  -19.9592 H   0  0  0  0  0  0  0  0  0  0  0  0
   19.4295  -10.3836  -11.0944 H   0  0  0  0  0  0  0  0  0  0  0  0
   20.7009  -11.1091  -10.0580 H   0  0  0  0  0  0  0  0  0  0  0  0
   22.9878  -13.2814  -16.2381 H   0  0  0  0  0  0  0  0  0  0  0  0
   24.8995  -11.7177  -16.4872 H   0  0  0  0  0  0  0  0  0  0  0  0
   24.6014   -9.5727  -17.7119 H   0  0  0  0  0  0  0  0  0  0  0  0
   19.3469  -11.1485  -18.5062 H   0  0  0  0  0  0  0  0  0  0  0  0
   23.2455   -8.0581  -18.9409 H   0  0  0  0  0  0  0  0  0  0  0  0
   18.6295  -11.6508  -13.7757 H   0  0  0  0  0  0  0  0  0  0  0  0
   19.3384  -11.0958  -15.3301 H   0  0  0  0  0  0  0  0  0  0  0  0
   17.8512  -12.1032  -15.3301 H   0  0  0  0  0  0  0  0  0  0  0  0
   19.2436  -13.0275   -9.7895 H   0  0  0  0  0  0  0  0  0  0  0  0
  1 12  2  0
  1 20  1  0
  2  3  2  0
  2 27  1  0
  3  4  1  0
  4  5  2  0
  5 26  1  0
  5 31  1  0
  6  7  1  0
  6 31  1  0
  7  8  1  0
  7 28  1  0
 29  8  1  0
  9 10  1  0
  9 29  1  0
 10 32  1  0
 11 13  1  0
 11 32  1  0
 12 21  1  0
 13 29  1  0
 14 15  2  0
 14 19  1  0
 14 22  1  0
 15 16  1  0
 16 17  2  0
 17 18  1  0
 18 19  1  0
 18 21  2  0
 19 20  2  0
 22 23  1  0
 22 30  2  0
 23 24  2  0
 23 27  1  0
 24 25  1  0
 24 28  1  0
 26 27  2  0
 26 28  1  0
  1 33  1  0
  2 34  1  0
  3 35  1  0
  4 36  1  0
  6 37  1  0
  6 38  1  0
  7 39  1  6
  8 40  1  0
  8 41  1  0
  9 42  1  0
  9 43  1  0
 10 44  1  0
 10 45  1  0
 11 46  1  0
 11 47  1  0
 12 48  1  0
 13 49  1  0
 13 50  1  0
 15 51  1  0
 16 52  1  0
 17 53  1  0
 20 54  1  0
 21 55  1  0
 25 56  1  0
 25 57  1  0
 25 58  1  0
 29 59  1  1
M  CHG  1  29   1
M  END
>  <filename_input>  (12) 
7MWN_WI5_docked.sdf

>  <pdb_id>  (12) 
7MWN_WI5

>  <pose_rank>  (12) 
11

>  <num_atoms_heavy>  (12) 
32

>  <num_torsions>  (12) 
4

>  <pose>  (12) 
[21.852202342756776, -15.721399309899526, -15.93401350605704, 0.7575782507232233, 0.9352380512130649, -2.82960927294939, -1.1061784711868727, 4.964145991656943, -2.766906688441268, 1.763903412614803]

>  <energy>  (12) 
-725.1092561156953

>  <inter_energy>  (12) 
-744.8286034477267

>  <intra_energy>  (12) 
21.546251218751532

>  <rmsd>  (12) 
4.08106

>  <sdf_rank>  (12) 
0

$$$$

     RDKit          3D

 59 64  0  0  0  0  0  0  0  0999 V2000
   18.7897  -11.5823  -19.1951 C   0  0  0  0  0  0  0  0  0  0  0  0
   18.6381  -13.6458  -15.5230 C   0  0  0  0  0  0  0  0  0  0  0  0
   17.3794  -13.9845  -14.9967 C   0  0  0  0  0  0  0  0  0  0  0  0
   17.0330  -13.6592  -13.6763 C   0  0  0  0  0  0  0  0  0  0  0  0
   17.9863  -12.9868  -12.9258 C   0  0  0  0  0  0  0  0  0  0  0  0
   18.5716  -11.4974  -11.1469 C   0  0  0  0  0  0  0  0  0  0  0  0
   20.0478  -11.6699  -11.4958 C   0  0  1  0  0  0  0  0  0  0  0  0
   20.7059  -12.7651  -10.6214 C   0  0  0  0  0  0  0  0  0  0  0  0
   19.7880  -14.8076   -9.5532 C   0  0  0  0  0  0  0  0  0  0  0  0
   18.8971  -16.0091   -9.8782 C   0  0  0  0  0  0  0  0  0  0  0  0
   19.8377  -16.1193  -12.0871 C   0  0  0  0  0  0  0  0  0  0  0  0
   18.9976  -10.4349  -19.9553 C   0  0  0  0  0  0  0  0  0  0  0  0
   20.7239  -14.9277  -11.7619 C   0  0  0  0  0  0  0  0  0  0  0  0
   21.7095  -11.4483  -16.8890 C   0  0  0  0  0  0  0  0  0  0  0  0
   22.8060  -10.6156  -16.6849 C   0  0  0  0  0  0  0  0  0  0  0  0
   23.0012   -9.4754  -17.4584 C   0  0  0  0  0  0  0  0  0  0  0  0
   22.0935   -9.1550  -18.4565 C   0  0  0  0  0  0  0  0  0  0  0  0
   20.9965   -9.9765  -18.6885 C   0  0  0  0  0  0  0  0  0  0  0  0
   20.7932  -11.1273  -17.9152 C   0  0  0  0  0  0  0  0  0  0  0  0
   19.6807  -11.9298  -18.1782 C   0  0  0  0  0  0  0  0  0  0  0  0
   20.0998   -9.6268  -19.7034 C   0  0  0  0  0  0  0  0  0  0  0  0
   21.6253  -12.5627  -16.0385 C   0  0  0  0  0  0  0  0  0  0  0  0
   20.8192  -12.5436  -14.9231 C   0  0  0  0  0  0  0  0  0  0  0  0
   21.1562  -11.9667  -13.7515 C   0  0  0  0  0  0  0  0  0  0  0  0
   22.4674  -11.2869  -13.3565 C   0  0  0  0  0  0  0  0  0  0  0  0
   19.1669  -12.6980  -13.5000 C   0  0  0  0  0  0  0  0  0  0  0  0
   19.5409  -13.0034  -14.7631 C   0  0  0  0  0  0  0  0  0  0  0  0
   20.1519  -12.0752  -12.8830 N   0  0  0  0  0  0  0  0  0  0  0  0
   20.0322  -14.0638  -10.8058 N   0  0  2  0  0  0  0  0  0  0  0  0
   22.4471  -13.4693  -16.2100 O   0  0  0  0  0  0  0  0  0  0  0  0
   17.7610  -12.6184  -11.6026 O   0  0  0  0  0  0  0  0  0  0  0  0
   19.5306  -16.8424  -10.8841 O   0  0  0  0  0  0  0  0  0  0  0  0
   17.9166  -12.2202  -19.3973 H   0  0  0  0  0  0  0  0  0  0  0  0
   18.8852  -13.9080  -16.5623 H   0  0  0  0  0  0  0  0  0  0  0  0
   16.6532  -14.5138  -15.6311 H   0  0  0  0  0  0  0  0  0  0  0  0
   16.0518  -13.9250  -13.2561 H   0  0  0  0  0  0  0  0  0  0  0  0
   18.4741  -11.4114  -10.0546 H   0  0  0  0  0  0  0  0  0  0  0  0
   18.2094  -10.5918  -11.6554 H   0  0  0  0  0  0  0  0  0  0  0  0
   20.5618  -10.7141  -11.3163 H   0  0  0  0  0  0  0  0  0  0  0  0
   21.7638  -12.8650  -10.9058 H   0  0  0  0  0  0  0  0  0  0  0  0
   20.6171  -12.4709   -9.5652 H   0  0  0  0  0  0  0  0  0  0  0  0
   19.2834  -14.1556   -8.8250 H   0  0  0  0  0  0  0  0  0  0  0  0
   20.7406  -15.1463   -9.1198 H   0  0  0  0  0  0  0  0  0  0  0  0
   18.7361  -16.6003   -8.9647 H   0  0  0  0  0  0  0  0  0  0  0  0
   17.9327  -15.6480  -10.2650 H   0  0  0  0  0  0  0  0  0  0  0  0
   18.9040  -15.7646  -12.5479 H   0  0  0  0  0  0  0  0  0  0  0  0
   20.3670  -16.7849  -12.7848 H   0  0  0  0  0  0  0  0  0  0  0  0
   18.2902  -10.1681  -20.7544 H   0  0  0  0  0  0  0  0  0  0  0  0
   21.6689  -15.2803  -11.3230 H   0  0  0  0  0  0  0  0  0  0  0  0
   20.9396  -14.3644  -12.6817 H   0  0  0  0  0  0  0  0  0  0  0  0
   23.5324  -10.8637  -15.8969 H   0  0  0  0  0  0  0  0  0  0  0  0
   23.8735   -8.8298  -17.2785 H   0  0  0  0  0  0  0  0  0  0  0  0
   22.2415   -8.2505  -19.0647 H   0  0  0  0  0  0  0  0  0  0  0  0
   19.5062  -12.8380  -17.5826 H   0  0  0  0  0  0  0  0  0  0  0  0
   20.2661   -8.7170  -20.2990 H   0  0  0  0  0  0  0  0  0  0  0  0
   22.5440  -11.2472  -12.2599 H   0  0  0  0  0  0  0  0  0  0  0  0
   23.3142  -11.8595  -13.7627 H   0  0  0  0  0  0  0  0  0  0  0  0
   22.4873  -10.2649  -13.7627 H   0  0  0  0  0  0  0  0  0  0  0  0
   19.1119  -13.8066  -11.1903 H   0  0  0  0  0  0  0  0  0  0  0  0
  1 12  2  0
  1 20  1  0
  2  3  2  0
  2 27  1  0
  3  4  1  0
  4  5  2  0
  5 26  1  0
  5 31  1  0
  6  7  1  0
  6 31  1  0
  7  8  1  0
  7 28  1  0
 29  8  1  0
  9 10  1  0
  9 29  1  0
 10 32  1  0
 11 13  1  0
 11 32  1  0
 12 21  1  0
 13 29  1  0
 14 15  2  0
 14 19  1  0
 14 22  1  0
 15 16  1  0
 16 17  2  0
 17 18  1  0
 18 19  1  0
 18 21  2  0
 19 20  2  0
 22 23  1  0
 22 30  2  0
 23 24  2  0
 23 27  1  0
 24 25  1  0
 24 28  1  0
 26 27  2  0
 26 28  1  0
  1 33  1  0
  2 34  1  0
  3 35  1  0
  4 36  1  0
  6 37  1  0
  6 38  1  0
  7 39  1  6
  8 40  1  0
  8 41  1  0
  9 42  1  0
  9 43  1  0
 10 44  1  0
 10 45  1  0
 11 46  1  0
 11 47  1  0
 12 48  1  0
 13 49  1  0
 13 50  1  0
 15 51  1  0
 16 52  1  0
 17 53  1  0
 20 54  1  0
 21 55  1  0
 25 56  1  0
 25 57  1  0
 25 58  1  0
 29 59  1  6
M  CHG  1  29   1
M  END
>  <filename_input>  (13) 
7MWN_WI5_docked.sdf

>  <pdb_id>  (13) 
7MWN_WI5

>  <pose_rank>  (13) 
12

>  <num_atoms_heavy>  (13) 
32

>  <num_torsions>  (13) 
4

>  <pose>  (13) 
[18.63808455499917, -13.645794979803226, -15.522979805126369, -0.8765207588221028, -0.2789578461817831, 1.3442519860767672, 2.174118342480533, -0.334381337645352, -0.17286691048142577, -6.538350090269597]

>  <energy>  (13) 
-676.2552795205702

>  <inter_energy>  (13) 
-749.934727755485

>  <intra_energy>  (13) 
73.75172056987248

>  <rmsd>  (13) 
2.81929

>  <sdf_rank>  (13) 
0

$$$$

     RDKit          3D

 59 64  0  0  0  0  0  0  0  0999 V2000
   22.4105   -8.3009  -19.0231 C   0  0  0  0  0  0  0  0  0  0  0  0
   19.4491  -10.4084  -12.4731 C   0  0  0  0  0  0  0  0  0  0  0  0
   18.9932  -10.8392  -11.2151 C   0  0  0  0  0  0  0  0  0  0  0  0
   19.5996  -11.9180  -10.5534 C   0  0  0  0  0  0  0  0  0  0  0  0
   20.6665  -12.5280  -11.1965 C   0  0  0  0  0  0  0  0  0  0  0  0
   22.7051  -13.7790  -11.1285 C   0  0  0  0  0  0  0  0  0  0  0  0
   22.7903  -13.7122  -12.6512 C   0  0  1  0  0  0  0  0  0  0  0  0
   22.1857  -14.9801  -13.3024 C   0  0  0  0  0  0  0  0  0  0  0  0
   19.7928  -15.5011  -12.9052 C   0  0  0  0  0  0  0  0  0  0  0  0
   18.3980  -14.9971  -13.2839 C   0  0  0  0  0  0  0  0  0  0  0  0
   19.1731  -14.4950  -15.5027 C   0  0  0  0  0  0  0  0  0  0  0  0
   21.8894   -8.7926  -20.2166 C   0  0  0  0  0  0  0  0  0  0  0  0
   20.5571  -14.9985  -15.1259 C   0  0  0  0  0  0  0  0  0  0  0  0
   20.5654  -10.3663  -16.5349 C   0  0  0  0  0  0  0  0  0  0  0  0
   19.5946  -11.3634  -16.5618 C   0  0  0  0  0  0  0  0  0  0  0  0
   19.0804  -11.8390  -17.7643 C   0  0  0  0  0  0  0  0  0  0  0  0
   19.5349  -11.3142  -18.9647 C   0  0  0  0  0  0  0  0  0  0  0  0
   20.4952  -10.3093  -18.9649 C   0  0  0  0  0  0  0  0  0  0  0  0
   21.0172   -9.8237  -17.7585 C   0  0  0  0  0  0  0  0  0  0  0  0
   21.9796   -8.8121  -17.7977 C   0  0  0  0  0  0  0  0  0  0  0  0
   20.9321   -9.7998  -20.1921 C   0  0  0  0  0  0  0  0  0  0  0  0
   21.0046   -9.9791  -15.2585 C   0  0  0  0  0  0  0  0  0  0  0  0
   21.1591  -10.9043  -14.2513 C   0  0  0  0  0  0  0  0  0  0  0  0
   22.1158  -11.8548  -14.2324 C   0  0  0  0  0  0  0  0  0  0  0  0
   23.1698  -12.1793  -15.2913 C   0  0  0  0  0  0  0  0  0  0  0  0
   21.0439  -12.0582  -12.3980 C   0  0  0  0  0  0  0  0  0  0  0  0
   20.4792  -11.0303  -13.0711 C   0  0  0  0  0  0  0  0  0  0  0  0
   22.0332  -12.5642  -13.1079 N   0  0  0  0  0  0  0  0  0  0  0  0
   20.7850  -14.7516  -13.7025 N   0  0  2  0  0  0  0  0  0  0  0  0
   21.0461   -8.7680  -15.0172 O   0  0  0  0  0  0  0  0  0  0  0  0
   21.3422  -13.6118  -10.6429 O   0  0  0  0  0  0  0  0  0  0  0  0
   18.1780  -15.1619  -14.7094 O   0  0  0  0  0  0  0  0  0  0  0  0
   23.1677   -7.5033  -19.0458 H   0  0  0  0  0  0  0  0  0  0  0  0
   18.9601   -9.5579  -12.9705 H   0  0  0  0  0  0  0  0  0  0  0  0
   18.1462  -10.3216  -10.7411 H   0  0  0  0  0  0  0  0  0  0  0  0
   19.2455  -12.2636   -9.5709 H   0  0  0  0  0  0  0  0  0  0  0  0
   23.0815  -14.7576  -10.7958 H   0  0  0  0  0  0  0  0  0  0  0  0
   23.3106  -12.9558  -10.7213 H   0  0  0  0  0  0  0  0  0  0  0  0
   23.8496  -13.6352  -12.9375 H   0  0  0  0  0  0  0  0  0  0  0  0
   22.7758  -15.2437  -14.1925 H   0  0  0  0  0  0  0  0  0  0  0  0
   22.2114  -15.7980  -12.5672 H   0  0  0  0  0  0  0  0  0  0  0  0
   19.9717  -15.3319  -11.8331 H   0  0  0  0  0  0  0  0  0  0  0  0
   19.8764  -16.5788  -13.1090 H   0  0  0  0  0  0  0  0  0  0  0  0
   17.6408  -15.5716  -12.7301 H   0  0  0  0  0  0  0  0  0  0  0  0
   18.3191  -13.9301  -13.0284 H   0  0  0  0  0  0  0  0  0  0  0  0
   19.1174  -13.4113  -15.3223 H   0  0  0  0  0  0  0  0  0  0  0  0
   18.9885  -14.7045  -16.5667 H   0  0  0  0  0  0  0  0  0  0  0  0
   22.2349   -8.3845  -21.1779 H   0  0  0  0  0  0  0  0  0  0  0  0
   20.6242  -16.0777  -15.3280 H   0  0  0  0  0  0  0  0  0  0  0  0
   21.3178  -14.4708  -15.7200 H   0  0  0  0  0  0  0  0  0  0  0  0
   19.2266  -11.7836  -15.6141 H   0  0  0  0  0  0  0  0  0  0  0  0
   18.3154  -12.6294  -17.7626 H   0  0  0  0  0  0  0  0  0  0  0  0
   19.1354  -11.6932  -19.9169 H   0  0  0  0  0  0  0  0  0  0  0  0
   22.3991   -8.4174  -16.8606 H   0  0  0  0  0  0  0  0  0  0  0  0
   20.5202  -10.1941  -21.1327 H   0  0  0  0  0  0  0  0  0  0  0  0
   24.1090  -12.4685  -14.7971 H   0  0  0  0  0  0  0  0  0  0  0  0
   22.8150  -13.0099  -15.9193 H   0  0  0  0  0  0  0  0  0  0  0  0
   23.3436  -11.2931  -15.9193 H   0  0  0  0  0  0  0  0  0  0  0  0
   20.6376  -13.7511  -13.5074 H   0  0  0  0  0  0  0  0  0  0  0  0
  1 12  2  0
  1 20  1  0
  2  3  2  0
  2 27  1  0
  3  4  1  0
  4  5  2  0
  5 26  1  0
  5 31  1  0
  6  7  1  0
  6 31  1  0
  7  8  1  0
  7 28  1  0
 29  8  1  0
  9 10  1  0
  9 29  1  0
 10 32  1  0
 11 13  1  0
 11 32  1  0
 12 21  1  0
 13 29  1  0
 14 15  2  0
 14 19  1  0
 14 22  1  0
 15 16  1  0
 16 17  2  0
 17 18  1  0
 18 19  1  0
 18 21  2  0
 19 20  2  0
 22 23  1  0
 22 30  2  0
 23 24  2  0
 23 27  1  0
 24 25  1  0
 24 28  1  0
 26 27  2  0
 26 28  1  0
  1 33  1  0
  2 34  1  0
  3 35  1  0
  4 36  1  0
  6 37  1  0
  6 38  1  0
  7 39  1  1
  8 40  1  0
  8 41  1  0
  9 42  1  0
  9 43  1  0
 10 44  1  0
 10 45  1  0
 11 46  1  0
 11 47  1  0
 12 48  1  0
 13 49  1  0
 13 50  1  0
 15 51  1  0
 16 52  1  0
 17 53  1  0
 20 54  1  0
 21 55  1  0
 25 56  1  0
 25 57  1  0
 25 58  1  0
 29 59  1  6
M  CHG  1  29   1
M  END
>  <filename_input>  (14) 
7MWN_WI5_docked.sdf

>  <pdb_id>  (14) 
7MWN_WI5

>  <pose_rank>  (14) 
13

>  <num_atoms_heavy>  (14) 
32

>  <num_torsions>  (14) 
4

>  <pose>  (14) 
[19.449141149956056, -10.408438557357641, -12.473088621442646, 0.5351513819937749, 0.30038886181863267, 0.5287652972776739, -1.4963591235692189, -1.3934406825904566, 0.47074511661552193, 0.19240835683991628]

>  <energy>  (14) 
-688.5733500590013

>  <inter_energy>  (14) 
-752.0772600612627

>  <intra_energy>  (14) 
65.29016212993959

>  <rmsd>  (14) 
2.64798

>  <sdf_rank>  (14) 
0

$$$$

     RDKit          3D

 59 64  0  0  0  0  0  0  0  0999 V2000
   17.3189  -12.7599  -11.7450 C   0  0  0  0  0  0  0  0  0  0  0  0
   23.6061  -13.4081  -15.7115 C   0  0  0  0  0  0  0  0  0  0  0  0
   24.7370  -13.0605  -16.4706 C   0  0  0  0  0  0  0  0  0  0  0  0
   24.6889  -12.0189  -17.4099 C   0  0  0  0  0  0  0  0  0  0  0  0
   23.4801  -11.3521  -17.5449 C   0  0  0  0  0  0  0  0  0  0  0  0
   22.2305   -9.3902  -18.1062 C   0  0  0  0  0  0  0  0  0  0  0  0
   20.9368  -10.1208  -17.7555 C   0  0  1  0  0  0  0  0  0  0  0  0
   20.2835  -10.7396  -19.0155 C   0  0  0  0  0  0  0  0  0  0  0  0
   19.8541  -13.1595  -19.3547 C   0  0  0  0  0  0  0  0  0  0  0  0
   19.0723  -14.3170  -18.7289 C   0  0  0  0  0  0  0  0  0  0  0  0
   17.2559  -12.8269  -18.2223 C   0  0  0  0  0  0  0  0  0  0  0  0
   17.5636  -12.4147  -10.4189 C   0  0  0  0  0  0  0  0  0  0  0  0
   18.0325  -11.6789  -18.8466 C   0  0  0  0  0  0  0  0  0  0  0  0
   20.7872  -13.2589  -13.0035 C   0  0  0  0  0  0  0  0  0  0  0  0
   22.0778  -13.1630  -12.4913 C   0  0  0  0  0  0  0  0  0  0  0  0
   22.3041  -12.8107  -11.1641 C   0  0  0  0  0  0  0  0  0  0  0  0
   21.2303  -12.5450  -10.3281 C   0  0  0  0  0  0  0  0  0  0  0  0
   19.9319  -12.6220  -10.8182 C   0  0  0  0  0  0  0  0  0  0  0  0
   19.6951  -12.9747  -12.1536 C   0  0  0  0  0  0  0  0  0  0  0  0
   18.3771  -13.0403  -12.6112 C   0  0  0  0  0  0  0  0  0  0  0  0
   18.8702  -12.3468   -9.9500 C   0  0  0  0  0  0  0  0  0  0  0  0
   20.6950  -13.6282  -14.3553 C   0  0  0  0  0  0  0  0  0  0  0  0
   21.1884  -12.8126  -15.3480 C   0  0  0  0  0  0  0  0  0  0  0  0
   20.4813  -11.8342  -15.9495 C   0  0  0  0  0  0  0  0  0  0  0  0
   19.0165  -11.4445  -15.7496 C   0  0  0  0  0  0  0  0  0  0  0  0
   22.4440  -11.7431  -16.7829 C   0  0  0  0  0  0  0  0  0  0  0  0
   22.4483  -12.7467  -15.8766 C   0  0  0  0  0  0  0  0  0  0  0  0
   21.2462  -11.1943  -16.8328 N   0  0  0  0  0  0  0  0  0  0  0  0
   19.4643  -11.9139  -18.6630 N   0  0  2  0  0  0  0  0  0  0  0  0
   19.9802  -14.5979  -14.6298 O   0  0  0  0  0  0  0  0  0  0  0  0
   23.3084  -10.3079  -18.4491 O   0  0  0  0  0  0  0  0  0  0  0  0
   17.6456  -14.0685  -18.8313 O   0  0  0  0  0  0  0  0  0  0  0  0
   16.2837  -12.8123  -12.1132 H   0  0  0  0  0  0  0  0  0  0  0  0
   23.6694  -14.2258  -14.9785 H   0  0  0  0  0  0  0  0  0  0  0  0
   25.6761  -13.6147  -16.3259 H   0  0  0  0  0  0  0  0  0  0  0  0
   25.5684  -11.7442  -18.0107 H   0  0  0  0  0  0  0  0  0  0  0  0
   22.0419   -8.7295  -18.9651 H   0  0  0  0  0  0  0  0  0  0  0  0
   22.5446   -8.8184  -17.2205 H   0  0  0  0  0  0  0  0  0  0  0  0
   20.2380   -9.3970  -17.3108 H   0  0  0  0  0  0  0  0  0  0  0  0
   19.6432   -9.9852  -19.4960 H   0  0  0  0  0  0  0  0  0  0  0  0
   21.0808  -11.0615  -19.7016 H   0  0  0  0  0  0  0  0  0  0  0  0
   20.9340  -13.3306  -19.2336 H   0  0  0  0  0  0  0  0  0  0  0  0
   19.6289  -13.0848  -20.4288 H   0  0  0  0  0  0  0  0  0  0  0  0
   19.3180  -15.2499  -19.2575 H   0  0  0  0  0  0  0  0  0  0  0  0
   19.3471  -14.4049  -17.6674 H   0  0  0  0  0  0  0  0  0  0  0  0
   17.4683  -12.8672  -17.1437 H   0  0  0  0  0  0  0  0  0  0  0  0
   16.1797  -12.6664  -18.3833 H   0  0  0  0  0  0  0  0  0  0  0  0
   16.7239  -12.1958   -9.7429 H   0  0  0  0  0  0  0  0  0  0  0  0
   17.8036  -11.6205  -19.9210 H   0  0  0  0  0  0  0  0  0  0  0  0
   17.7473  -10.7326  -18.3636 H   0  0  0  0  0  0  0  0  0  0  0  0
   22.9356  -13.3697  -13.1482 H   0  0  0  0  0  0  0  0  0  0  0  0
   23.3324  -12.7432  -10.7793 H   0  0  0  0  0  0  0  0  0  0  0  0
   21.4060  -12.2731   -9.2768 H   0  0  0  0  0  0  0  0  0  0  0  0
   18.1724  -13.3135  -13.6569 H   0  0  0  0  0  0  0  0  0  0  0  0
   19.0683  -12.0781   -8.9019 H   0  0  0  0  0  0  0  0  0  0  0  0
   18.7963  -11.3860  -14.6734 H   0  0  0  0  0  0  0  0  0  0  0  0
   18.8306  -10.4657  -16.2157 H   0  0  0  0  0  0  0  0  0  0  0  0
   18.3688  -12.2016  -16.2157 H   0  0  0  0  0  0  0  0  0  0  0  0
   19.6562  -12.0508  -17.6603 H   0  0  0  0  0  0  0  0  0  0  0  0
  1 12  2  0
  1 20  1  0
  2  3  2  0
  2 27  1  0
  3  4  1  0
  4  5  2  0
  5 26  1  0
  5 31  1  0
  6  7  1  0
  6 31  1  0
  7  8  1  0
  7 28  1  0
 29  8  1  0
  9 10  1  0
  9 29  1  0
 10 32  1  0
 11 13  1  0
 11 32  1  0
 12 21  1  0
 13 29  1  0
 14 15  2  0
 14 19  1  0
 14 22  1  0
 15 16  1  0
 16 17  2  0
 17 18  1  0
 18 19  1  0
 18 21  2  0
 19 20  2  0
 22 23  1  0
 22 30  2  0
 23 24  2  0
 23 27  1  0
 24 25  1  0
 24 28  1  0
 26 27  2  0
 26 28  1  0
  1 33  1  0
  2 34  1  0
  3 35  1  0
  4 36  1  0
  6 37  1  0
  6 38  1  0
  7 39  1  1
  8 40  1  0
  8 41  1  0
  9 42  1  0
  9 43  1  0
 10 44  1  0
 10 45  1  0
 11 46  1  0
 11 47  1  0
 12 48  1  0
 13 49  1  0
 13 50  1  0
 15 51  1  0
 16 52  1  0
 17 53  1  0
 20 54  1  0
 21 55  1  0
 25 56  1  0
 25 57  1  0
 25 58  1  0
 29 59  1  1
M  CHG  1  29   1
M  END
>  <filename_input>  (15) 
7MWN_WI5_docked.sdf

>  <pdb_id>  (15) 
7MWN_WI5

>  <pose_rank>  (15) 
14

>  <num_atoms_heavy>  (15) 
32

>  <num_torsions>  (15) 
4

>  <pose>  (15) 
[23.606113520266135, -13.408105327402788, -15.711495518149748, -1.5929497973867017, -1.7720887069183435, -1.4957404665262064, 14.596731779523118, 9.388527675694961, -4.817685782443329, -0.01332867406125138]

>  <energy>  (15) 
-634.0424370991021

>  <inter_energy>  (15) 
-697.1943887195083

>  <intra_energy>  (15) 
70.41948327418888

>  <rmsd>  (15) 
6.33386

>  <sdf_rank>  (15) 
0

$$$$

     RDKit          3D

 59 64  0  0  0  0  0  0  0  0999 V2000
   18.7512  -14.7302  -13.7903 C   0  0  0  0  0  0  0  0  0  0  0  0
   22.7429  -13.9931  -13.0798 C   0  0  0  0  0  0  0  0  0  0  0  0
   23.4731  -14.9559  -13.7980 C   0  0  0  0  0  0  0  0  0  0  0  0
   23.7189  -14.8052  -15.1714 C   0  0  0  0  0  0  0  0  0  0  0  0
   23.2136  -13.6641  -15.7770 C   0  0  0  0  0  0  0  0  0  0  0  0
   23.3011  -12.0000  -17.4941 C   0  0  0  0  0  0  0  0  0  0  0  0
   22.0744  -11.3208  -16.8906 C   0  0  1  0  0  0  0  0  0  0  0  0
   20.7745  -11.7881  -17.5898 C   0  0  0  0  0  0  0  0  0  0  0  0
   18.9790  -10.9656  -19.0916 C   0  0  0  0  0  0  0  0  0  0  0  0
   18.1017   -9.7312  -19.3141 C   0  0  0  0  0  0  0  0  0  0  0  0
   19.9512   -8.3047  -18.7480 C   0  0  0  0  0  0  0  0  0  0  0  0
   17.5156  -15.0445  -13.2316 C   0  0  0  0  0  0  0  0  0  0  0  0
   20.8220   -9.5316  -18.5300 C   0  0  0  0  0  0  0  0  0  0  0  0
   19.7878  -11.8588  -11.6591 C   0  0  0  0  0  0  0  0  0  0  0  0
   19.2548  -11.1397  -10.5932 C   0  0  0  0  0  0  0  0  0  0  0  0
   18.0150  -11.4643  -10.0507 C   0  0  0  0  0  0  0  0  0  0  0  0
   17.2869  -12.5208  -10.5768 C   0  0  0  0  0  0  0  0  0  0  0  0
   17.7915  -13.2472  -11.6490 C   0  0  0  0  0  0  0  0  0  0  0  0
   19.0384  -12.9262  -12.2022 C   0  0  0  0  0  0  0  0  0  0  0  0
   19.5125  -13.6772  -13.2802 C   0  0  0  0  0  0  0  0  0  0  0  0
   17.0324  -14.3061  -12.1579 C   0  0  0  0  0  0  0  0  0  0  0  0
   21.0482  -11.4340  -12.1098 C   0  0  0  0  0  0  0  0  0  0  0  0
   21.5221  -11.8090  -13.3463 C   0  0  0  0  0  0  0  0  0  0  0  0
   21.3875  -11.0716  -14.4676 C   0  0  0  0  0  0  0  0  0  0  0  0
   20.6577   -9.7424  -14.6624 C   0  0  0  0  0  0  0  0  0  0  0  0
   22.5255  -12.7897  -15.0228 C   0  0  0  0  0  0  0  0  0  0  0  0
   22.2594  -12.9048  -13.7020 C   0  0  0  0  0  0  0  0  0  0  0  0
   21.9884  -11.6795  -15.4894 N   0  0  0  0  0  0  0  0  0  0  0  0
   19.9849  -10.6354  -18.0614 N   0  0  2  0  0  0  0  0  0  0  0  0
   21.7917  -10.8927  -11.2846 O   0  0  0  0  0  0  0  0  0  0  0  0
   23.3864  -13.4088  -17.1343 O   0  0  0  0  0  0  0  0  0  0  0  0
   18.9225   -8.5999  -19.7066 O   0  0  0  0  0  0  0  0  0  0  0  0
   19.1306  -15.3161  -14.6405 H   0  0  0  0  0  0  0  0  0  0  0  0
   22.5663  -14.1314  -12.0029 H   0  0  0  0  0  0  0  0  0  0  0  0
   23.8586  -15.8431  -13.2743 H   0  0  0  0  0  0  0  0  0  0  0  0
   24.2857  -15.5565  -15.7409 H   0  0  0  0  0  0  0  0  0  0  0  0
   23.2480  -11.9174  -18.5897 H   0  0  0  0  0  0  0  0  0  0  0  0
   24.1944  -11.4965  -17.0959 H   0  0  0  0  0  0  0  0  0  0  0  0
   22.1787  -10.2337  -17.0219 H   0  0  0  0  0  0  0  0  0  0  0  0
   21.0364  -12.4210  -18.4505 H   0  0  0  0  0  0  0  0  0  0  0  0
   20.1705  -12.3539  -16.8652 H   0  0  0  0  0  0  0  0  0  0  0  0
   18.3583  -11.8072  -18.7502 H   0  0  0  0  0  0  0  0  0  0  0  0
   19.4755  -11.2538  -20.0298 H   0  0  0  0  0  0  0  0  0  0  0  0
   17.3704   -9.9430  -20.1081 H   0  0  0  0  0  0  0  0  0  0  0  0
   17.5778   -9.4883  -18.3779 H   0  0  0  0  0  0  0  0  0  0  0  0
   19.4879   -8.0120  -17.7942 H   0  0  0  0  0  0  0  0  0  0  0  0
   20.5740   -7.4810  -19.1268 H   0  0  0  0  0  0  0  0  0  0  0  0
   16.9223  -15.8762  -13.6393 H   0  0  0  0  0  0  0  0  0  0  0  0
   21.3061   -9.8126  -19.4769 H   0  0  0  0  0  0  0  0  0  0  0  0
   21.5952   -9.3087  -17.7800 H   0  0  0  0  0  0  0  0  0  0  0  0
   19.8245  -10.2986  -10.1714 H   0  0  0  0  0  0  0  0  0  0  0  0
   17.6136  -10.8842   -9.2067 H   0  0  0  0  0  0  0  0  0  0  0  0
   16.3099  -12.7840  -10.1454 H   0  0  0  0  0  0  0  0  0  0  0  0
   20.4882  -13.4383  -13.7283 H   0  0  0  0  0  0  0  0  0  0  0  0
   16.0583  -14.5532  -11.7106 H   0  0  0  0  0  0  0  0  0  0  0  0
   20.4192   -9.3077  -13.6805 H   0  0  0  0  0  0  0  0  0  0  0  0
   21.3018   -9.0493  -15.2234 H   0  0  0  0  0  0  0  0  0  0  0  0
   19.7272   -9.9137  -15.2234 H   0  0  0  0  0  0  0  0  0  0  0  0
   19.4709  -10.3340  -17.2212 H   0  0  0  0  0  0  0  0  0  0  0  0
  1 12  2  0
  1 20  1  0
  2  3  2  0
  2 27  1  0
  3  4  1  0
  4  5  2  0
  5 26  1  0
  5 31  1  0
  6  7  1  0
  6 31  1  0
  7  8  1  0
  7 28  1  0
 29  8  1  0
  9 10  1  0
  9 29  1  0
 10 32  1  0
 11 13  1  0
 11 32  1  0
 12 21  1  0
 13 29  1  0
 14 15  2  0
 14 19  1  0
 14 22  1  0
 15 16  1  0
 16 17  2  0
 17 18  1  0
 18 19  1  0
 18 21  2  0
 19 20  2  0
 22 23  1  0
 22 30  2  0
 23 24  2  0
 23 27  1  0
 24 25  1  0
 24 28  1  0
 26 27  2  0
 26 28  1  0
  1 33  1  0
  2 34  1  0
  3 35  1  0
  4 36  1  0
  6 37  1  0
  6 38  1  0
  7 39  1  1
  8 40  1  0
  8 41  1  0
  9 42  1  0
  9 43  1  0
 10 44  1  0
 10 45  1  0
 11 46  1  0
 11 47  1  0
 12 48  1  0
 13 49  1  0
 13 50  1  0
 15 51  1  0
 16 52  1  0
 17 53  1  0
 20 54  1  0
 21 55  1  0
 25 56  1  0
 25 57  1  0
 25 58  1  0
 29 59  1  1
M  CHG  1  29   1
M  END
>  <filename_input>  (16) 
7MWN_WI5_docked.sdf

>  <pdb_id>  (16) 
7MWN_WI5

>  <pose_rank>  (16) 
15

>  <num_atoms_heavy>  (16) 
32

>  <num_torsions>  (16) 
4

>  <pose>  (16) 
[22.74286230878526, -13.99313501339135, -13.07984845184352, 2.3030776281046688, 1.362922125813733, 0.8062843802281737, 11.50477311629369, 1.3943172085820212, 2.859915441078323, -1.3375595136902265]

>  <energy>  (16) 
-649.7177870596897

>  <inter_energy>  (16) 
-719.038438288419

>  <intra_energy>  (16) 
76.18447318857528

>  <rmsd>  (16) 
6.40178

>  <sdf_rank>  (16) 
0

$$$$

     RDKit          3D

 59 64  0  0  0  0  0  0  0  0999 V2000
   19.5920  -11.6250  -10.4130 C   0  0  0  0  0  0  0  0  0  0  0  0
   20.9880  -10.6223  -14.1061 C   0  0  0  0  0  0  0  0  0  0  0  0
   21.4623   -9.3198  -14.3398 C   0  0  0  0  0  0  0  0  0  0  0  0
   21.3770   -8.7334  -15.6119 C   0  0  0  0  0  0  0  0  0  0  0  0
   20.8001   -9.4964  -16.6164 C   0  0  0  0  0  0  0  0  0  0  0  0
   19.6057   -9.6664  -18.6827 C   0  0  0  0  0  0  0  0  0  0  0  0
   19.6555  -11.1887  -18.5797 C   0  0  1  0  0  0  0  0  0  0  0  0
   20.8528  -11.7652  -19.3742 C   0  0  0  0  0  0  0  0  0  0  0  0
   23.1966  -11.1544  -18.8366 C   0  0  0  0  0  0  0  0  0  0  0  0
   24.2302  -11.3156  -17.7191 C   0  0  0  0  0  0  0  0  0  0  0  0
   23.4337  -13.5427  -17.2928 C   0  0  0  0  0  0  0  0  0  0  0  0
   18.4113  -11.6622   -9.6765 C   0  0  0  0  0  0  0  0  0  0  0  0
   22.4096  -13.3821  -18.4047 C   0  0  0  0  0  0  0  0  0  0  0  0
   18.5973  -13.5330  -13.4514 C   0  0  0  0  0  0  0  0  0  0  0  0
   17.4597  -14.1894  -13.9121 C   0  0  0  0  0  0  0  0  0  0  0  0
   16.2895  -14.2214  -13.1597 C   0  0  0  0  0  0  0  0  0  0  0  0
   16.2461  -13.5930  -11.9244 C   0  0  0  0  0  0  0  0  0  0  0  0
   17.3722  -12.9408  -11.4362 C   0  0  0  0  0  0  0  0  0  0  0  0
   18.5551  -12.9049  -12.1866 C   0  0  0  0  0  0  0  0  0  0  0  0
   19.6672  -12.2415  -11.6631 C   0  0  0  0  0  0  0  0  0  0  0  0
   17.2968  -12.3178  -10.1861 C   0  0  0  0  0  0  0  0  0  0  0  0
   19.7097  -13.5698  -14.3078 C   0  0  0  0  0  0  0  0  0  0  0  0
   19.9111  -12.5876  -15.2506 C   0  0  0  0  0  0  0  0  0  0  0  0
   19.5245  -12.6803  -16.5394 C   0  0  0  0  0  0  0  0  0  0  0  0
   18.8659  -13.8547  -17.2635 C   0  0  0  0  0  0  0  0  0  0  0  0
   20.3702  -10.7337  -16.3144 C   0  0  0  0  0  0  0  0  0  0  0  0
   20.4443  -11.3362  -15.1061 C   0  0  0  0  0  0  0  0  0  0  0  0
   19.8186  -11.5539  -17.1871 N   0  0  0  0  0  0  0  0  0  0  0  0
   22.0176  -11.9761  -18.4948 N   0  0  2  0  0  0  0  0  0  0  0  0
   20.3775  -14.6093  -14.3242 O   0  0  0  0  0  0  0  0  0  0  0  0
   20.6678   -9.0254  -17.9195 O   0  0  0  0  0  0  0  0  0  0  0  0
   24.5781  -12.7160  -17.5596 O   0  0  0  0  0  0  0  0  0  0  0  0
   20.4725  -11.1057  -10.0067 H   0  0  0  0  0  0  0  0  0  0  0  0
   21.0622  -11.0592  -13.0993 H   0  0  0  0  0  0  0  0  0  0  0  0
   21.9081   -8.7503  -13.5110 H   0  0  0  0  0  0  0  0  0  0  0  0
   21.7501   -7.7164  -15.8033 H   0  0  0  0  0  0  0  0  0  0  0  0
   19.7075   -9.3799  -19.7399 H   0  0  0  0  0  0  0  0  0  0  0  0
   18.6438   -9.3324  -18.2666 H   0  0  0  0  0  0  0  0  0  0  0  0
   18.7224  -11.5963  -18.9958 H   0  0  0  0  0  0  0  0  0  0  0  0
   20.5594  -12.7273  -19.8195 H   0  0  0  0  0  0  0  0  0  0  0  0
   21.1315  -11.0465  -20.1589 H   0  0  0  0  0  0  0  0  0  0  0  0
   22.9024  -10.0980  -18.9225 H   0  0  0  0  0  0  0  0  0  0  0  0
   23.6214  -11.4796  -19.7977 H   0  0  0  0  0  0  0  0  0  0  0  0
   25.1340  -10.7429  -17.9742 H   0  0  0  0  0  0  0  0  0  0  0  0
   23.8032  -10.9411  -16.7771 H   0  0  0  0  0  0  0  0  0  0  0  0
   22.9826  -13.2433  -16.3353 H   0  0  0  0  0  0  0  0  0  0  0  0
   23.7508  -14.5948  -17.2413 H   0  0  0  0  0  0  0  0  0  0  0  0
   18.3605  -11.1732   -8.6925 H   0  0  0  0  0  0  0  0  0  0  0  0
   22.8498  -13.7038  -19.3602 H   0  0  0  0  0  0  0  0  0  0  0  0
   21.5260  -14.0000  -18.1868 H   0  0  0  0  0  0  0  0  0  0  0  0
   17.4862  -14.6926  -14.8899 H   0  0  0  0  0  0  0  0  0  0  0  0
   15.4011  -14.7439  -13.5440 H   0  0  0  0  0  0  0  0  0  0  0  0
   15.3202  -13.6108  -11.3306 H   0  0  0  0  0  0  0  0  0  0  0  0
   20.6047  -12.2048  -12.2374 H   0  0  0  0  0  0  0  0  0  0  0  0
   16.3606  -12.3465   -9.6094 H   0  0  0  0  0  0  0  0  0  0  0  0
   18.4677  -14.5648  -16.5238 H   0  0  0  0  0  0  0  0  0  0  0  0
   18.0447  -13.4829  -17.8939 H   0  0  0  0  0  0  0  0  0  0  0  0
   19.6115  -14.3615  -17.8939 H   0  0  0  0  0  0  0  0  0  0  0  0
   21.6850  -11.6604  -17.5725 H   0  0  0  0  0  0  0  0  0  0  0  0
  1 12  2  0
  1 20  1  0
  2  3  2  0
  2 27  1  0
  3  4  1  0
  4  5  2  0
  5 26  1  0
  5 31  1  0
  6  7  1  0
  6 31  1  0
  7  8  1  0
  7 28  1  0
 29  8  1  0
  9 10  1  0
  9 29  1  0
 10 32  1  0
 11 13  1  0
 11 32  1  0
 12 21  1  0
 13 29  1  0
 14 15  2  0
 14 19  1  0
 14 22  1  0
 15 16  1  0
 16 17  2  0
 17 18  1  0
 18 19  1  0
 18 21  2  0
 19 20  2  0
 22 23  1  0
 22 30  2  0
 23 24  2  0
 23 27  1  0
 24 25  1  0
 24 28  1  0
 26 27  2  0
 26 28  1  0
  1 33  1  0
  2 34  1  0
  3 35  1  0
  4 36  1  0
  6 37  1  0
  6 38  1  0
  7 39  1  6
  8 40  1  0
  8 41  1  0
  9 42  1  0
  9 43  1  0
 10 44  1  0
 10 45  1  0
 11 46  1  0
 11 47  1  0
 12 48  1  0
 13 49  1  0
 13 50  1  0
 15 51  1  0
 16 52  1  0
 17 53  1  0
 20 54  1  0
 21 55  1  0
 25 56  1  0
 25 57  1  0
 25 58  1  0
 29 59  1  1
M  CHG  1  29   1
M  END
>  <filename_input>  (17) 
7MWN_WI5_docked.sdf

>  <pdb_id>  (17) 
7MWN_WI5

>  <pose_rank>  (17) 
16

>  <num_atoms_heavy>  (17) 
32

>  <num_torsions>  (17) 
4

>  <pose>  (17) 
[20.98795180855084, -10.62228645215055, -14.106090797407678, -0.27130456020476884, 2.9770859376732512, 1.4816712815685071, 8.193992465152323, -0.4706222670093517, 0.4523804330934173, 0.09205027441920777]

>  <energy>  (17) 
-666.2456901809127

>  <inter_energy>  (17) 
-716.343779190569

>  <intra_energy>  (17) 
47.3602606113143

>  <rmsd>  (17) 
6.69328

>  <sdf_rank>  (17) 
0

$$$$

     RDKit          3D

 59 64  0  0  0  0  0  0  0  0999 V2000
   22.8540  -12.9733  -11.6178 C   0  0  0  0  0  0  0  0  0  0  0  0
   22.5925   -9.7419  -16.4553 C   0  0  0  0  0  0  0  0  0  0  0  0
   23.1811   -9.9611  -17.7128 C   0  0  0  0  0  0  0  0  0  0  0  0
   22.7197  -10.9776  -18.5633 C   0  0  0  0  0  0  0  0  0  0  0  0
   21.6582  -11.7441  -18.1054 C   0  0  0  0  0  0  0  0  0  0  0  0
   19.7405  -13.1132  -18.5218 C   0  0  0  0  0  0  0  0  0  0  0  0
   19.5288  -13.2643  -17.0175 C   0  0  1  0  0  0  0  0  0  0  0  0
   20.1809  -14.5648  -16.4878 C   0  0  0  0  0  0  0  0  0  0  0  0
   20.7310  -15.4344  -14.2302 C   0  0  0  0  0  0  0  0  0  0  0  0
   20.1444  -15.5025  -12.8180 C   0  0  0  0  0  0  0  0  0  0  0  0
   17.9483  -15.8309  -13.7373 C   0  0  0  0  0  0  0  0  0  0  0  0
   22.3512  -13.3845  -10.3866 C   0  0  0  0  0  0  0  0  0  0  0  0
   18.5326  -15.7658  -15.1392 C   0  0  0  0  0  0  0  0  0  0  0  0
   20.3961  -10.3357  -12.5468 C   0  0  0  0  0  0  0  0  0  0  0  0
   19.2430   -9.7823  -11.9978 C   0  0  0  0  0  0  0  0  0  0  0  0
   18.7512  -10.2097  -10.7682 C   0  0  0  0  0  0  0  0  0  0  0  0
   19.4133  -11.2079  -10.0695 C   0  0  0  0  0  0  0  0  0  0  0  0
   20.5603  -11.7853  -10.6015 C   0  0  0  0  0  0  0  0  0  0  0  0
   21.0615  -11.3618  -11.8396 C   0  0  0  0  0  0  0  0  0  0  0  0
   22.2155  -11.9663  -12.3436 C   0  0  0  0  0  0  0  0  0  0  0  0
   21.2044  -12.7907   -9.8729 C   0  0  0  0  0  0  0  0  0  0  0  0
   20.7896   -9.8130  -13.7894 C   0  0  0  0  0  0  0  0  0  0  0  0
   20.7922  -10.5981  -14.9198 C   0  0  0  0  0  0  0  0  0  0  0  0
   19.9209  -11.6014  -15.1504 C   0  0  0  0  0  0  0  0  0  0  0  0
   18.8157  -12.1427  -14.2432 C   0  0  0  0  0  0  0  0  0  0  0  0
   21.1489  -11.4730  -16.8913 C   0  0  0  0  0  0  0  0  0  0  0  0
   21.5722  -10.5113  -16.0401 C   0  0  0  0  0  0  0  0  0  0  0  0
   20.1507  -12.1406  -16.3468 N   0  0  0  0  0  0  0  0  0  0  0  0
   19.6984  -14.8828  -15.1311 N   0  0  2  0  0  0  0  0  0  0  0  0
   21.3240   -8.6989  -13.7915 O   0  0  0  0  0  0  0  0  0  0  0  0
   21.1197  -12.7852  -18.8560 O   0  0  0  0  0  0  0  0  0  0  0  0
   18.9401  -16.3132  -12.8165 O   0  0  0  0  0  0  0  0  0  0  0  0
   23.7616  -13.4457  -12.0219 H   0  0  0  0  0  0  0  0  0  0  0  0
   22.9692   -8.9364  -15.8078 H   0  0  0  0  0  0  0  0  0  0  0  0
   24.0182   -9.3248  -18.0359 H   0  0  0  0  0  0  0  0  0  0  0  0
   23.1782  -11.1579  -19.5468 H   0  0  0  0  0  0  0  0  0  0  0  0
   19.4730  -14.0601  -19.0135 H   0  0  0  0  0  0  0  0  0  0  0  0
   19.1043  -12.2860  -18.8696 H   0  0  0  0  0  0  0  0  0  0  0  0
   18.4473  -13.3021  -16.8204 H   0  0  0  0  0  0  0  0  0  0  0  0
   19.9280  -15.3952  -17.1634 H   0  0  0  0  0  0  0  0  0  0  0  0
   21.2705  -14.4193  -16.4473 H   0  0  0  0  0  0  0  0  0  0  0  0
   21.6166  -14.7821  -14.2348 H   0  0  0  0  0  0  0  0  0  0  0  0
   21.0324  -16.4377  -14.5659 H   0  0  0  0  0  0  0  0  0  0  0  0
   20.8846  -15.9492  -12.1378 H   0  0  0  0  0  0  0  0  0  0  0  0
   19.8940  -14.4852  -12.4828 H   0  0  0  0  0  0  0  0  0  0  0  0
   17.6236  -14.8257  -13.4303 H   0  0  0  0  0  0  0  0  0  0  0  0
   17.0878  -16.5161  -13.7348 H   0  0  0  0  0  0  0  0  0  0  0  0
   22.8608  -14.1784   -9.8210 H   0  0  0  0  0  0  0  0  0  0  0  0
   18.8361  -16.7736  -15.4589 H   0  0  0  0  0  0  0  0  0  0  0  0
   17.7775  -15.3762  -15.8377 H   0  0  0  0  0  0  0  0  0  0  0  0
   18.7101   -8.9917  -12.5465 H   0  0  0  0  0  0  0  0  0  0  0  0
   17.8394   -9.7569  -10.3515 H   0  0  0  0  0  0  0  0  0  0  0  0
   19.0308  -11.5428   -9.0940 H   0  0  0  0  0  0  0  0  0  0  0  0
   22.6222  -11.6479  -13.3148 H   0  0  0  0  0  0  0  0  0  0  0  0
   20.8055  -13.1097   -8.8987 H   0  0  0  0  0  0  0  0  0  0  0  0
   19.1033  -12.0018  -13.1909 H   0  0  0  0  0  0  0  0  0  0  0  0
   17.8793  -11.6012  -14.4430 H   0  0  0  0  0  0  0  0  0  0  0  0
   18.6693  -13.2144  -14.4430 H   0  0  0  0  0  0  0  0  0  0  0  0
   19.4227  -13.9660  -14.7511 H   0  0  0  0  0  0  0  0  0  0  0  0
  1 12  2  0
  1 20  1  0
  2  3  2  0
  2 27  1  0
  3  4  1  0
  4  5  2  0
  5 26  1  0
  5 31  1  0
  6  7  1  0
  6 31  1  0
  7  8  1  0
  7 28  1  0
 29  8  1  0
  9 10  1  0
  9 29  1  0
 10 32  1  0
 11 13  1  0
 11 32  1  0
 12 21  1  0
 13 29  1  0
 14 15  2  0
 14 19  1  0
 14 22  1  0
 15 16  1  0
 16 17  2  0
 17 18  1  0
 18 19  1  0
 18 21  2  0
 19 20  2  0
 22 23  1  0
 22 30  2  0
 23 24  2  0
 23 27  1  0
 24 25  1  0
 24 28  1  0
 26 27  2  0
 26 28  1  0
  1 33  1  0
  2 34  1  0
  3 35  1  0
  4 36  1  0
  6 37  1  0
  6 38  1  0
  7 39  1  6
  8 40  1  0
  8 41  1  0
  9 42  1  0
  9 43  1  0
 10 44  1  0
 10 45  1  0
 11 46  1  0
 11 47  1  0
 12 48  1  0
 13 49  1  0
 13 50  1  0
 15 51  1  0
 16 52  1  0
 17 53  1  0
 20 54  1  0
 21 55  1  0
 25 56  1  0
 25 57  1  0
 25 58  1  0
 29 59  1  1
M  CHG  1  29   1
M  END
>  <filename_input>  (18) 
7MWN_WI5_docked.sdf

>  <pdb_id>  (18) 
7MWN_WI5

>  <pose_rank>  (18) 
17

>  <num_atoms_heavy>  (18) 
32

>  <num_torsions>  (18) 
4

>  <pose>  (18) 
[22.592523922315348, -9.741931270125223, -16.455276098023916, -0.652140585487833, -2.783418929084647, 0.5612803491555262, -2.13828604255772, 2.222566970468945, -4.102536475677646, -0.34863255973616347]

>  <energy>  (18) 
-652.617399549526

>  <inter_energy>  (18) 
-722.6650187826638

>  <intra_energy>  (18) 
74.16072820267829

>  <rmsd>  (18) 
5.82127

>  <sdf_rank>  (18) 
0

$$$$

     RDKit          3D

 59 64  0  0  0  0  0  0  0  0999 V2000
   22.4206  -13.4608  -18.7386 C   0  0  0  0  0  0  0  0  0  0  0  0
   18.4265  -14.7167  -15.7508 C   0  0  0  0  0  0  0  0  0  0  0  0
   18.2177  -15.9291  -15.0707 C   0  0  0  0  0  0  0  0  0  0  0  0
   18.4087  -16.0259  -13.6838 C   0  0  0  0  0  0  0  0  0  0  0  0
   18.8050  -14.8721  -13.0237 C   0  0  0  0  0  0  0  0  0  0  0  0
   18.9022  -13.5281  -11.0465 C   0  0  0  0  0  0  0  0  0  0  0  0
   19.6691  -12.4575  -11.8187 C   0  0  1  0  0  0  0  0  0  0  0  0
   21.1974  -12.6167  -11.6291 C   0  0  0  0  0  0  0  0  0  0  0  0
   22.6271  -14.3623  -12.6608 C   0  0  0  0  0  0  0  0  0  0  0  0
   23.0293  -14.8940  -14.0386 C   0  0  0  0  0  0  0  0  0  0  0  0
   23.0394  -12.6539  -14.9091 C   0  0  0  0  0  0  0  0  0  0  0  0
   23.4480  -12.6358  -19.1874 C   0  0  0  0  0  0  0  0  0  0  0  0
   22.6426  -12.1270  -13.5394 C   0  0  0  0  0  0  0  0  0  0  0  0
   20.1728  -10.9789  -17.1109 C   0  0  0  0  0  0  0  0  0  0  0  0
   20.1706   -9.6058  -16.8829 C   0  0  0  0  0  0  0  0  0  0  0  0
   21.2092   -8.7969  -17.3339 C   0  0  0  0  0  0  0  0  0  0  0  0
   22.2734   -9.3599  -18.0221 C   0  0  0  0  0  0  0  0  0  0  0  0
   22.3054  -10.7302  -18.2523 C   0  0  0  0  0  0  0  0  0  0  0  0
   21.2644  -11.5523  -17.8004 C   0  0  0  0  0  0  0  0  0  0  0  0
   21.3317  -12.9252  -18.0487 C   0  0  0  0  0  0  0  0  0  0  0  0
   23.3932  -11.2678  -18.9483 C   0  0  0  0  0  0  0  0  0  0  0  0
   19.0645  -11.6806  -16.6096 C   0  0  0  0  0  0  0  0  0  0  0  0
   19.1240  -12.3253  -15.3951 C   0  0  0  0  0  0  0  0  0  0  0  0
   19.4441  -11.7248  -14.2306 C   0  0  0  0  0  0  0  0  0  0  0  0
   19.8672  -10.2772  -13.9798 C   0  0  0  0  0  0  0  0  0  0  0  0
   18.9840  -13.7513  -13.7439 C   0  0  0  0  0  0  0  0  0  0  0  0
   18.8205  -13.6213  -15.0799 C   0  0  0  0  0  0  0  0  0  0  0  0
   19.3709  -12.6005  -13.2294 N   0  0  0  0  0  0  0  0  0  0  0  0
   21.8308  -13.1336  -12.8563 N   0  0  2  0  0  0  0  0  0  0  0  0
   18.1182  -11.8705  -17.3812 O   0  0  0  0  0  0  0  0  0  0  0  0
   19.0333  -14.8467  -11.6509 O   0  0  0  0  0  0  0  0  0  0  0  0
   23.7723  -13.8814  -14.7668 O   0  0  0  0  0  0  0  0  0  0  0  0
   22.4672  -14.5432  -18.9289 H   0  0  0  0  0  0  0  0  0  0  0  0
   18.2665  -14.6645  -16.8379 H   0  0  0  0  0  0  0  0  0  0  0  0
   17.8989  -16.8175  -15.6356 H   0  0  0  0  0  0  0  0  0  0  0  0
   18.2516  -16.9723  -13.1455 H   0  0  0  0  0  0  0  0  0  0  0  0
   19.2915  -13.5699  -10.0185 H   0  0  0  0  0  0  0  0  0  0  0  0
   17.8366  -13.2555  -11.0619 H   0  0  0  0  0  0  0  0  0  0  0  0
   19.3641  -11.4704  -11.4411 H   0  0  0  0  0  0  0  0  0  0  0  0
   21.6336  -11.6370  -11.3843 H   0  0  0  0  0  0  0  0  0  0  0  0
   21.3769  -13.3328  -10.8136 H   0  0  0  0  0  0  0  0  0  0  0  0
   22.0256  -15.1159  -12.1315 H   0  0  0  0  0  0  0  0  0  0  0  0
   23.5229  -14.1438  -12.0608 H   0  0  0  0  0  0  0  0  0  0  0  0
   23.6584  -15.7878  -13.9142 H   0  0  0  0  0  0  0  0  0  0  0  0
   22.1216  -15.1510  -14.6043 H   0  0  0  0  0  0  0  0  0  0  0  0
   22.1337  -12.8368  -15.5060 H   0  0  0  0  0  0  0  0  0  0  0  0
   23.6731  -11.9099  -15.4139 H   0  0  0  0  0  0  0  0  0  0  0  0
   24.3023  -13.0660  -19.7307 H   0  0  0  0  0  0  0  0  0  0  0  0
   23.5469  -11.9200  -12.9483 H   0  0  0  0  0  0  0  0  0  0  0  0
   22.0637  -11.1986  -13.6529 H   0  0  0  0  0  0  0  0  0  0  0  0
   19.3316   -9.1513  -16.3357 H   0  0  0  0  0  0  0  0  0  0  0  0
   21.1862   -7.7135  -17.1450 H   0  0  0  0  0  0  0  0  0  0  0  0
   23.0923   -8.7218  -18.3858 H   0  0  0  0  0  0  0  0  0  0  0  0
   20.5245  -13.5860  -17.6997 H   0  0  0  0  0  0  0  0  0  0  0  0
   24.2009  -10.6114  -19.3043 H   0  0  0  0  0  0  0  0  0  0  0  0
   19.9209  -10.0934  -12.8966 H   0  0  0  0  0  0  0  0  0  0  0  0
   20.8546  -10.1003  -14.4311 H   0  0  0  0  0  0  0  0  0  0  0  0
   19.1304   -9.5964  -14.4311 H   0  0  0  0  0  0  0  0  0  0  0  0
   21.0308  -13.3827  -13.4552 H   0  0  0  0  0  0  0  0  0  0  0  0
  1 12  2  0
  1 20  1  0
  2  3  2  0
  2 27  1  0
  3  4  1  0
  4  5  2  0
  5 26  1  0
  5 31  1  0
  6  7  1  0
  6 31  1  0
  7  8  1  0
  7 28  1  0
 29  8  1  0
  9 10  1  0
  9 29  1  0
 10 32  1  0
 11 13  1  0
 11 32  1  0
 12 21  1  0
 13 29  1  0
 14 15  2  0
 14 19  1  0
 14 22  1  0
 15 16  1  0
 16 17  2  0
 17 18  1  0
 18 19  1  0
 18 21  2  0
 19 20  2  0
 22 23  1  0
 22 30  2  0
 23 24  2  0
 23 27  1  0
 24 25  1  0
 24 28  1  0
 26 27  2  0
 26 28  1  0
  1 33  1  0
  2 34  1  0
  3 35  1  0
  4 36  1  0
  6 37  1  0
  6 38  1  0
  7 39  1  1
  8 40  1  0
  8 41  1  0
  9 42  1  0
  9 43  1  0
 10 44  1  0
 10 45  1  0
 11 46  1  0
 11 47  1  0
 12 48  1  0
 13 49  1  0
 13 50  1  0
 15 51  1  0
 16 52  1  0
 17 53  1  0
 20 54  1  0
 21 55  1  0
 25 56  1  0
 25 57  1  0
 25 58  1  0
 29 59  1  6
M  CHG  1  29   1
M  END
>  <filename_input>  (19) 
7MWN_WI5_docked.sdf

>  <pdb_id>  (19) 
7MWN_WI5

>  <pose_rank>  (19) 
18

>  <num_atoms_heavy>  (19) 
32

>  <num_torsions>  (19) 
4

>  <pose>  (19) 
[18.426512996547213, -14.716706543195587, -15.750825627310501, -0.21649648399724922, -0.5016023886557537, 2.2270834163902182, -1.7220015536926048, 2.5401140674536418, 0.6665093245651238, -0.051705557259756896]

>  <energy>  (19) 
-635.0389120550453

>  <inter_energy>  (19) 
-720.7797558803751

>  <intra_energy>  (19) 
84.6921389610202

>  <rmsd>  (19) 
4.08305

>  <sdf_rank>  (19) 
0

$$$$

     RDKit          3D

 59 64  0  0  0  0  0  0  0  0999 V2000
   21.6099   -8.0400  -18.3038 C   0  0  0  0  0  0  0  0  0  0  0  0
   22.0200  -10.3803  -14.5524 C   0  0  0  0  0  0  0  0  0  0  0  0
   22.0213   -9.8455  -13.2524 C   0  0  0  0  0  0  0  0  0  0  0  0
   21.6495  -10.6249  -12.1462 C   0  0  0  0  0  0  0  0  0  0  0  0
   21.2896  -11.9404  -12.3990 C   0  0  0  0  0  0  0  0  0  0  0  0
   21.0788  -14.2179  -11.6964 C   0  0  0  0  0  0  0  0  0  0  0  0
   20.5240  -14.5846  -13.0705 C   0  0  1  0  0  0  0  0  0  0  0  0
   18.9758  -14.5770  -13.0699 C   0  0  0  0  0  0  0  0  0  0  0  0
   18.3687  -13.3797  -10.9834 C   0  0  0  0  0  0  0  0  0  0  0  0
   17.6054  -13.6031   -9.6756 C   0  0  0  0  0  0  0  0  0  0  0  0
   18.4158  -15.8636   -9.5794 C   0  0  0  0  0  0  0  0  0  0  0  0
   20.5979   -7.6179  -19.1614 C   0  0  0  0  0  0  0  0  0  0  0  0
   19.1755  -15.6394  -10.8769 C   0  0  0  0  0  0  0  0  0  0  0  0
   20.8325  -11.6696  -18.0157 C   0  0  0  0  0  0  0  0  0  0  0  0
   19.8670  -12.5442  -18.5059 C   0  0  0  0  0  0  0  0  0  0  0  0
   18.8588  -12.1036  -19.3579 C   0  0  0  0  0  0  0  0  0  0  0  0
   18.8039  -10.7688  -19.7295 C   0  0  0  0  0  0  0  0  0  0  0  0
   19.7490   -9.8725  -19.2442 C   0  0  0  0  0  0  0  0  0  0  0  0
   20.7667  -10.3076  -18.3848 C   0  0  0  0  0  0  0  0  0  0  0  0
   21.6978   -9.3780  -17.9157 C   0  0  0  0  0  0  0  0  0  0  0  0
   19.6656   -8.5325  -19.6365 C   0  0  0  0  0  0  0  0  0  0  0  0
   21.7974  -12.2406  -17.1700 C   0  0  0  0  0  0  0  0  0  0  0  0
   21.5229  -12.4824  -15.8432 C   0  0  0  0  0  0  0  0  0  0  0  0
   21.1204  -13.6735  -15.3550 C   0  0  0  0  0  0  0  0  0  0  0  0
   20.8142  -14.9677  -16.1090 C   0  0  0  0  0  0  0  0  0  0  0  0
   21.3137  -12.3784  -13.6696 C   0  0  0  0  0  0  0  0  0  0  0  0
   21.6551  -11.6565  -14.7608 C   0  0  0  0  0  0  0  0  0  0  0  0
   20.9809  -13.6017  -14.0321 N   0  0  0  0  0  0  0  0  0  0  0  0
   18.4477  -14.6711  -11.6963 N   0  0  2  0  0  0  0  0  0  0  0  0
   22.9517  -12.3235  -17.6029 O   0  0  0  0  0  0  0  0  0  0  0  0
   20.8948  -12.8073  -11.3841 O   0  0  0  0  0  0  0  0  0  0  0  0
   18.2690  -14.6184   -8.8779 O   0  0  0  0  0  0  0  0  0  0  0  0
   22.3460   -7.3135  -17.9291 H   0  0  0  0  0  0  0  0  0  0  0  0
   22.3191   -9.7508  -15.4034 H   0  0  0  0  0  0  0  0  0  0  0  0
   22.3190   -8.7976  -13.0996 H   0  0  0  0  0  0  0  0  0  0  0  0
   21.6438  -10.2120  -11.1266 H   0  0  0  0  0  0  0  0  0  0  0  0
   20.5617  -14.8193  -10.9342 H   0  0  0  0  0  0  0  0  0  0  0  0
   22.1596  -14.4225  -11.7045 H   0  0  0  0  0  0  0  0  0  0  0  0
   20.8753  -15.5943  -13.3295 H   0  0  0  0  0  0  0  0  0  0  0  0
   18.6204  -13.6426  -13.5288 H   0  0  0  0  0  0  0  0  0  0  0  0
   18.6207  -15.4466  -13.6423 H   0  0  0  0  0  0  0  0  0  0  0  0
   17.8371  -12.6434  -11.6041 H   0  0  0  0  0  0  0  0  0  0  0  0
   19.3789  -12.9981  -10.7741 H   0  0  0  0  0  0  0  0  0  0  0  0
   17.5704  -12.6607   -9.1093 H   0  0  0  0  0  0  0  0  0  0  0  0
   16.5838  -13.9384   -9.9078 H   0  0  0  0  0  0  0  0  0  0  0  0
   17.4208  -16.2745   -9.8056 H   0  0  0  0  0  0  0  0  0  0  0  0
   18.9754  -16.5707   -8.9494 H   0  0  0  0  0  0  0  0  0  0  0  0
   20.5363   -6.5618  -19.4627 H   0  0  0  0  0  0  0  0  0  0  0  0
   20.1802  -15.2513  -10.6532 H   0  0  0  0  0  0  0  0  0  0  0  0
   19.2677  -16.5907  -11.4215 H   0  0  0  0  0  0  0  0  0  0  0  0
   19.9017  -13.6043  -18.2143 H   0  0  0  0  0  0  0  0  0  0  0  0
   18.1073  -12.8125  -19.7357 H   0  0  0  0  0  0  0  0  0  0  0  0
   18.0122  -10.4191  -20.4084 H   0  0  0  0  0  0  0  0  0  0  0  0
   22.5024   -9.7012  -17.2388 H   0  0  0  0  0  0  0  0  0  0  0  0
   18.8664   -8.2043  -20.3174 H   0  0  0  0  0  0  0  0  0  0  0  0
   20.6231  -15.7759  -15.3876 H   0  0  0  0  0  0  0  0  0  0  0  0
   19.9256  -14.8226  -16.7409 H   0  0  0  0  0  0  0  0  0  0  0  0
   21.6737  -15.2360  -16.7409 H   0  0  0  0  0  0  0  0  0  0  0  0
   17.4820  -15.0031  -11.8304 H   0  0  0  0  0  0  0  0  0  0  0  0
  1 12  2  0
  1 20  1  0
  2  3  2  0
  2 27  1  0
  3  4  1  0
  4  5  2  0
  5 26  1  0
  5 31  1  0
  6  7  1  0
  6 31  1  0
  7  8  1  0
  7 28  1  0
 29  8  1  0
  9 10  1  0
  9 29  1  0
 10 32  1  0
 11 13  1  0
 11 32  1  0
 12 21  1  0
 13 29  1  0
 14 15  2  0
 14 19  1  0
 14 22  1  0
 15 16  1  0
 16 17  2  0
 17 18  1  0
 18 19  1  0
 18 21  2  0
 19 20  2  0
 22 23  1  0
 22 30  2  0
 23 24  2  0
 23 27  1  0
 24 25  1  0
 24 28  1  0
 26 27  2  0
 26 28  1  0
  1 33  1  0
  2 34  1  0
  3 35  1  0
  4 36  1  0
  6 37  1  0
  6 38  1  0
  7 39  1  6
  8 40  1  0
  8 41  1  0
  9 42  1  0
  9 43  1  0
 10 44  1  0
 10 45  1  0
 11 46  1  0
 11 47  1  0
 12 48  1  0
 13 49  1  0
 13 50  1  0
 15 51  1  0
 16 52  1  0
 17 53  1  0
 20 54  1  0
 21 55  1  0
 25 56  1  0
 25 57  1  0
 25 58  1  0
 29 59  1  6
M  CHG  1  29   1
M  END
>  <filename_input>  (20) 
7MWN_WI5_docked.sdf

>  <pdb_id>  (20) 
7MWN_WI5

>  <pose_rank>  (20) 
19

>  <num_atoms_heavy>  (20) 
32

>  <num_torsions>  (20) 
4

>  <pose>  (20) 
[22.019955219176946, -10.380322780856666, -14.552395857223948, -1.754405452556008, -1.9454658444701245, 4.788641132392284, -1.0199887063867923, -3.448423514233716, -1.542081260485536, -2.690908704029755]

>  <energy>  (20) 
-591.1697168518641

>  <inter_energy>  (20) 
-715.988051476414

>  <intra_energy>  (20) 
120.55404283644374

>  <rmsd>  (20) 
2.74365

>  <sdf_rank>  (20) 
0

$$$$

     RDKit          3D

 59 64  0  0  0  0  0  0  0  0999 V2000
   18.7171  -10.7163   -8.9426 C   0  0  0  0  0  0  0  0  0  0  0  0
   22.8662  -14.8809  -13.7135 C   0  0  0  0  0  0  0  0  0  0  0  0
   23.6709  -15.3848  -14.7501 C   0  0  0  0  0  0  0  0  0  0  0  0
   24.0006  -14.5955  -15.8626 C   0  0  0  0  0  0  0  0  0  0  0  0
   23.5007  -13.3017  -15.8833 C   0  0  0  0  0  0  0  0  0  0  0  0
   23.6482  -11.0188  -16.5845 C   0  0  0  0  0  0  0  0  0  0  0  0
   22.3646  -10.7068  -15.8195 C   0  0  1  0  0  0  0  0  0  0  0  0
   21.1278  -10.7766  -16.7482 C   0  0  0  0  0  0  0  0  0  0  0  0
   19.7977   -9.2272  -18.1575 C   0  0  0  0  0  0  0  0  0  0  0  0
   19.9631   -7.9501  -18.9849 C   0  0  0  0  0  0  0  0  0  0  0  0
   22.1259   -8.6970  -19.7201 C   0  0  0  0  0  0  0  0  0  0  0  0
   17.3345  -10.8737   -8.9051 C   0  0  0  0  0  0  0  0  0  0  0  0
   21.9590   -9.9661  -18.9000 C   0  0  0  0  0  0  0  0  0  0  0  0
   19.6398  -13.1498  -11.6050 C   0  0  0  0  0  0  0  0  0  0  0  0
   18.9771  -14.0573  -12.4264 C   0  0  0  0  0  0  0  0  0  0  0  0
   17.5945  -14.2058  -12.3713 C   0  0  0  0  0  0  0  0  0  0  0  0
   16.8535  -13.4420  -11.4823 C   0  0  0  0  0  0  0  0  0  0  0  0
   17.4924  -12.5371  -10.6427 C   0  0  0  0  0  0  0  0  0  0  0  0
   18.8843  -12.3824  -10.6906 C   0  0  0  0  0  0  0  0  0  0  0  0
   19.4918  -11.4647   -9.8305 C   0  0  0  0  0  0  0  0  0  0  0  0
   16.7170  -11.7825   -9.7561 C   0  0  0  0  0  0  0  0  0  0  0  0
   21.0341  -13.0925  -11.7623 C   0  0  0  0  0  0  0  0  0  0  0  0
   21.5986  -12.8311  -12.9900 C   0  0  0  0  0  0  0  0  0  0  0  0
   21.5144  -11.6461  -13.6286 C   0  0  0  0  0  0  0  0  0  0  0  0
   20.7583  -10.3831  -13.2159 C   0  0  0  0  0  0  0  0  0  0  0  0
   22.7385  -12.8928  -14.8544 C   0  0  0  0  0  0  0  0  0  0  0  0
   22.3909  -13.6256  -13.7725 C   0  0  0  0  0  0  0  0  0  0  0  0
   22.1989  -11.6926  -14.7705 N   0  0  0  0  0  0  0  0  0  0  0  0
   21.1383   -9.6725  -17.7256 N   0  0  2  0  0  0  0  0  0  0  0  0
   21.7272  -13.4853  -10.8178 O   0  0  0  0  0  0  0  0  0  0  0  0
   23.7534  -12.4280  -16.9370 O   0  0  0  0  0  0  0  0  0  0  0  0
   20.8380   -8.1987  -20.1165 O   0  0  0  0  0  0  0  0  0  0  0  0
   19.2030   -9.9966   -8.2673 H   0  0  0  0  0  0  0  0  0  0  0  0
   22.6245  -15.5175  -12.8496 H   0  0  0  0  0  0  0  0  0  0  0  0
   24.0488  -16.4160  -14.6882 H   0  0  0  0  0  0  0  0  0  0  0  0
   24.6260  -14.9844  -16.6797 H   0  0  0  0  0  0  0  0  0  0  0  0
   23.6638  -10.4211  -17.5078 H   0  0  0  0  0  0  0  0  0  0  0  0
   24.4978  -10.7712  -15.9311 H   0  0  0  0  0  0  0  0  0  0  0  0
   22.4436   -9.6901  -15.4071 H   0  0  0  0  0  0  0  0  0  0  0  0
   21.1368  -11.7350  -17.2880 H   0  0  0  0  0  0  0  0  0  0  0  0
   20.2209  -10.6903  -16.1316 H   0  0  0  0  0  0  0  0  0  0  0  0
   19.1715   -9.0221  -17.2766 H   0  0  0  0  0  0  0  0  0  0  0  0
   19.3120  -10.0100  -18.7586 H   0  0  0  0  0  0  0  0  0  0  0  0
   18.9785   -7.6238  -19.3510 H   0  0  0  0  0  0  0  0  0  0  0  0
   20.4059   -7.1664  -18.3527 H   0  0  0  0  0  0  0  0  0  0  0  0
   22.6409   -7.9365  -19.1147 H   0  0  0  0  0  0  0  0  0  0  0  0
   22.7198   -8.9215  -20.6184 H   0  0  0  0  0  0  0  0  0  0  0  0
   16.7315  -10.2796   -8.2027 H   0  0  0  0  0  0  0  0  0  0  0  0
   21.4661  -10.7370  -19.5105 H   0  0  0  0  0  0  0  0  0  0  0  0
   22.9455  -10.3332  -18.5803 H   0  0  0  0  0  0  0  0  0  0  0  0
   19.5575  -14.6690  -13.1327 H   0  0  0  0  0  0  0  0  0  0  0  0
   17.0908  -14.9273  -13.0313 H   0  0  0  0  0  0  0  0  0  0  0  0
   15.7598  -13.5522  -11.4415 H   0  0  0  0  0  0  0  0  0  0  0  0
   20.5835  -11.3313   -9.8530 H   0  0  0  0  0  0  0  0  0  0  0  0
   15.6244  -11.9076   -9.7327 H   0  0  0  0  0  0  0  0  0  0  0  0
   20.7207  -10.3204  -12.1183 H   0  0  0  0  0  0  0  0  0  0  0  0
   21.2756   -9.4987  -13.6162 H   0  0  0  0  0  0  0  0  0  0  0  0
   19.7344  -10.4214  -13.6162 H   0  0  0  0  0  0  0  0  0  0  0  0
   21.5640   -8.8923  -17.2050 H   0  0  0  0  0  0  0  0  0  0  0  0
  1 12  2  0
  1 20  1  0
  2  3  2  0
  2 27  1  0
  3  4  1  0
  4  5  2  0
  5 26  1  0
  5 31  1  0
  6  7  1  0
  6 31  1  0
  7  8  1  0
  7 28  1  0
 29  8  1  0
  9 10  1  0
  9 29  1  0
 10 32  1  0
 11 13  1  0
 11 32  1  0
 12 21  1  0
 13 29  1  0
 14 15  2  0
 14 19  1  0
 14 22  1  0
 15 16  1  0
 16 17  2  0
 17 18  1  0
 18 19  1  0
 18 21  2  0
 19 20  2  0
 22 23  1  0
 22 30  2  0
 23 24  2  0
 23 27  1  0
 24 25  1  0
 24 28  1  0
 26 27  2  0
 26 28  1  0
  1 33  1  0
  2 34  1  0
  3 35  1  0
  4 36  1  0
  6 37  1  0
  6 38  1  0
  7 39  1  1
  8 40  1  0
  8 41  1  0
  9 42  1  0
  9 43  1  0
 10 44  1  0
 10 45  1  0
 11 46  1  0
 11 47  1  0
 12 48  1  0
 13 49  1  0
 13 50  1  0
 15 51  1  0
 16 52  1  0
 17 53  1  0
 20 54  1  0
 21 55  1  0
 25 56  1  0
 25 57  1  0
 25 58  1  0
 29 59  1  1
M  CHG  1  29   1
M  END
>  <filename_input>  (21) 
7MWN_WI5_docked.sdf

>  <pdb_id>  (21) 
7MWN_WI5

>  <pose_rank>  (21) 
20

>  <num_atoms_heavy>  (21) 
32

>  <num_torsions>  (21) 
4

>  <pose>  (21) 
[22.866223918196727, -14.880861826822734, -13.713510092434676, 2.591913851223889, 1.253957888075228, 1.3471035357530694, -1.5165364199517484, -1.0696215349815994, -2.4100186813346216, -6.779561506726669]

>  <energy>  (21) 
-693.9044332406307

>  <inter_energy>  (21) 
-712.8997399445536

>  <intra_energy>  (21) 
29.148817060111135

>  <rmsd>  (21) 
7.08392

>  <sdf_rank>  (21) 
0

$$$$

     RDKit          3D

 59 64  0  0  0  0  0  0  0  0999 V2000
   21.8149   -9.5545  -14.8715 C   0  0  0  0  0  0  0  0  0  0  0  0
   21.7499  -13.4517  -11.9162 C   0  0  0  0  0  0  0  0  0  0  0  0
   20.8841  -13.4225  -10.8092 C   0  0  0  0  0  0  0  0  0  0  0  0
   19.5154  -13.6983  -10.9502 C   0  0  0  0  0  0  0  0  0  0  0  0
   19.0661  -14.0045  -12.2264 C   0  0  0  0  0  0  0  0  0  0  0  0
   17.5138  -15.0916  -13.6871 C   0  0  0  0  0  0  0  0  0  0  0  0
   18.2809  -14.5546  -14.8928 C   0  0  1  0  0  0  0  0  0  0  0  0
   17.6531  -13.2396  -15.4160 C   0  0  0  0  0  0  0  0  0  0  0  0
   18.7640  -13.8394  -17.5518 C   0  0  0  0  0  0  0  0  0  0  0  0
   19.2665  -13.1883  -18.8427 C   0  0  0  0  0  0  0  0  0  0  0  0
   19.9983  -11.2669  -17.5981 C   0  0  0  0  0  0  0  0  0  0  0  0
   22.2519   -8.7254  -15.9007 C   0  0  0  0  0  0  0  0  0  0  0  0
   19.5012  -11.9161  -16.3165 C   0  0  0  0  0  0  0  0  0  0  0  0
   23.4498  -12.7676  -15.8017 C   0  0  0  0  0  0  0  0  0  0  0  0
   24.2679  -13.2319  -16.8276 C   0  0  0  0  0  0  0  0  0  0  0  0
   24.6906  -12.3901  -17.8519 C   0  0  0  0  0  0  0  0  0  0  0  0
   24.2924  -11.0618  -17.8620 C   0  0  0  0  0  0  0  0  0  0  0  0
   23.4658  -10.5762  -16.8556 C   0  0  0  0  0  0  0  0  0  0  0  0
   23.0344  -11.4174  -15.8212 C   0  0  0  0  0  0  0  0  0  0  0  0
   22.2029  -10.8948  -14.8280 C   0  0  0  0  0  0  0  0  0  0  0  0
   23.0805   -9.2321  -16.8947 C   0  0  0  0  0  0  0  0  0  0  0  0
   23.0990  -13.7156  -14.8269 C   0  0  0  0  0  0  0  0  0  0  0  0
   21.7967  -13.8456  -14.4011 C   0  0  0  0  0  0  0  0  0  0  0  0
   20.7661  -14.1885  -15.2007 C   0  0  0  0  0  0  0  0  0  0  0  0
   20.7612  -14.4384  -16.7089 C   0  0  0  0  0  0  0  0  0  0  0  0
   19.9556  -14.0123  -13.2341 C   0  0  0  0  0  0  0  0  0  0  0  0
   21.2772  -13.7422  -13.1399 C   0  0  0  0  0  0  0  0  0  0  0  0
   19.6439  -14.2755  -14.4880 N   0  0  0  0  0  0  0  0  0  0  0  0
   18.3514  -12.7656  -16.6252 N   0  0  2  0  0  0  0  0  0  0  0  0
   24.0208  -14.2760  -14.2244 O   0  0  0  0  0  0  0  0  0  0  0  0
   17.7294  -14.2880  -12.4917 O   0  0  0  0  0  0  0  0  0  0  0  0
   20.3607  -12.2800  -18.5502 O   0  0  0  0  0  0  0  0  0  0  0  0
   21.1587   -9.1506  -14.0865 H   0  0  0  0  0  0  0  0  0  0  0  0
   22.8198  -13.2357  -11.7800 H   0  0  0  0  0  0  0  0  0  0  0  0
   21.2866  -13.1791   -9.8148 H   0  0  0  0  0  0  0  0  0  0  0  0
   18.8311  -13.6730  -10.0894 H   0  0  0  0  0  0  0  0  0  0  0  0
   16.4394  -15.0927  -13.9234 H   0  0  0  0  0  0  0  0  0  0  0  0
   17.8809  -16.1076  -13.4802 H   0  0  0  0  0  0  0  0  0  0  0  0
   18.2452  -15.3093  -15.6923 H   0  0  0  0  0  0  0  0  0  0  0  0
   16.5949  -13.4175  -15.6581 H   0  0  0  0  0  0  0  0  0  0  0  0
   17.7455  -12.4715  -14.6340 H   0  0  0  0  0  0  0  0  0  0  0  0
   17.9058  -14.4911  -17.7728 H   0  0  0  0  0  0  0  0  0  0  0  0
   19.5596  -14.4487  -17.0982 H   0  0  0  0  0  0  0  0  0  0  0  0
   19.6173  -13.9704  -19.5321 H   0  0  0  0  0  0  0  0  0  0  0  0
   18.4436  -12.6234  -19.3050 H   0  0  0  0  0  0  0  0  0  0  0  0
   19.2016  -10.6372  -18.0209 H   0  0  0  0  0  0  0  0  0  0  0  0
   20.8801  -10.6491  -17.3730 H   0  0  0  0  0  0  0  0  0  0  0  0
   21.9418   -7.6703  -15.9271 H   0  0  0  0  0  0  0  0  0  0  0  0
   20.3037  -12.5274  -15.8780 H   0  0  0  0  0  0  0  0  0  0  0  0
   19.2047  -11.1380  -15.5978 H   0  0  0  0  0  0  0  0  0  0  0  0
   24.5865  -14.2848  -16.8287 H   0  0  0  0  0  0  0  0  0  0  0  0
   25.3390  -12.7773  -18.6517 H   0  0  0  0  0  0  0  0  0  0  0  0
   24.6307  -10.3924  -18.6666 H   0  0  0  0  0  0  0  0  0  0  0  0
   21.8530  -11.5409  -14.0094 H   0  0  0  0  0  0  0  0  0  0  0  0
   23.4314   -8.5797  -17.7079 H   0  0  0  0  0  0  0  0  0  0  0  0
   20.7397  -15.5213  -16.9011 H   0  0  0  0  0  0  0  0  0  0  0  0
   19.8721  -13.9691  -17.1554 H   0  0  0  0  0  0  0  0  0  0  0  0
   21.6681  -14.0046  -17.1554 H   0  0  0  0  0  0  0  0  0  0  0  0
   17.6388  -12.2027  -17.1113 H   0  0  0  0  0  0  0  0  0  0  0  0
  1 12  2  0
  1 20  1  0
  2  3  2  0
  2 27  1  0
  3  4  1  0
  4  5  2  0
  5 26  1  0
  5 31  1  0
  6  7  1  0
  6 31  1  0
  7  8  1  0
  7 28  1  0
 29  8  1  0
  9 10  1  0
  9 29  1  0
 10 32  1  0
 11 13  1  0
 11 32  1  0
 12 21  1  0
 13 29  1  0
 14 15  2  0
 14 19  1  0
 14 22  1  0
 15 16  1  0
 16 17  2  0
 17 18  1  0
 18 19  1  0
 18 21  2  0
 19 20  2  0
 22 23  1  0
 22 30  2  0
 23 24  2  0
 23 27  1  0
 24 25  1  0
 24 28  1  0
 26 27  2  0
 26 28  1  0
  1 33  1  0
  2 34  1  0
  3 35  1  0
  4 36  1  0
  6 37  1  0
  6 38  1  0
  7 39  1  6
  8 40  1  0
  8 41  1  0
  9 42  1  0
  9 43  1  0
 10 44  1  0
 10 45  1  0
 11 46  1  0
 11 47  1  0
 12 48  1  0
 13 49  1  0
 13 50  1  0
 15 51  1  0
 16 52  1  0
 17 53  1  0
 20 54  1  0
 21 55  1  0
 25 56  1  0
 25 57  1  0
 25 58  1  0
 29 59  1  6
M  CHG  1  29   1
M  END
>  <filename_input>  (22) 
7MWN_WI5_docked.sdf

>  <pdb_id>  (22) 
7MWN_WI5

>  <pose_rank>  (22) 
21

>  <num_atoms_heavy>  (22) 
32

>  <num_torsions>  (22) 
4

>  <pose>  (22) 
[21.749863480768013, -13.451699695852168, -11.9162197829398, 1.3245941172353037, -0.4060400786290561, -1.2688755569146293, -1.6351473613939747, 1.90753037935632, -4.295615156429587, -3.4859063222471747]

>  <energy>  (22) 
-448.59414802164844

>  <inter_energy>  (22) 
-728.5111753967128

>  <intra_energy>  (22) 
290.61147394098685

>  <rmsd>  (22) 
4.12893

>  <sdf_rank>  (22) 
0

$$$$

     RDKit          3D

 59 64  0  0  0  0  0  0  0  0999 V2000
   22.1380   -8.9024  -17.5413 C   0  0  0  0  0  0  0  0  0  0  0  0
   21.1615  -11.1347  -14.4880 C   0  0  0  0  0  0  0  0  0  0  0  0
   20.3671  -10.5782  -13.4705 C   0  0  0  0  0  0  0  0  0  0  0  0
   20.1485  -11.2613  -12.2643 C   0  0  0  0  0  0  0  0  0  0  0  0
   20.7565  -12.5005  -12.1268 C   0  0  0  0  0  0  0  0  0  0  0  0
   21.6838  -14.2294  -10.7570 C   0  0  0  0  0  0  0  0  0  0  0  0
   22.0087  -15.0396  -12.0093 C   0  0  1  0  0  0  0  0  0  0  0  0
   20.8902  -16.0643  -12.3194 C   0  0  0  0  0  0  0  0  0  0  0  0
   20.6604  -15.2570  -14.6542 C   0  0  0  0  0  0  0  0  0  0  0  0
   19.5812  -14.9638  -15.6993 C   0  0  0  0  0  0  0  0  0  0  0  0
   18.1349  -14.1130  -13.9787 C   0  0  0  0  0  0  0  0  0  0  0  0
   21.3303   -8.7007  -18.6570 C   0  0  0  0  0  0  0  0  0  0  0  0
   19.2087  -14.4022  -12.9423 C   0  0  0  0  0  0  0  0  0  0  0  0
   22.2583  -12.6214  -17.4113 C   0  0  0  0  0  0  0  0  0  0  0  0
   21.7210  -13.6815  -18.1357 C   0  0  0  0  0  0  0  0  0  0  0  0
   20.9105  -13.4612  -19.2453 C   0  0  0  0  0  0  0  0  0  0  0  0
   20.6238  -12.1643  -19.6437 C   0  0  0  0  0  0  0  0  0  0  0  0
   21.1382  -11.0881  -18.9303 C   0  0  0  0  0  0  0  0  0  0  0  0
   21.9540  -11.3010  -17.8110 C   0  0  0  0  0  0  0  0  0  0  0  0
   22.4514  -10.1951  -17.1177 C   0  0  0  0  0  0  0  0  0  0  0  0
   20.8296   -9.7921  -19.3567 C   0  0  0  0  0  0  0  0  0  0  0  0
   23.0634  -12.9781  -16.3174 C   0  0  0  0  0  0  0  0  0  0  0  0
   22.5172  -13.1734  -15.0693 C   0  0  0  0  0  0  0  0  0  0  0  0
   22.7472  -14.2570  -14.2999 C   0  0  0  0  0  0  0  0  0  0  0  0
   23.5668  -15.5072  -14.6203 C   0  0  0  0  0  0  0  0  0  0  0  0
   21.5014  -12.9652  -13.1447 C   0  0  0  0  0  0  0  0  0  0  0  0
   21.7264  -12.3427  -14.3239 C   0  0  0  0  0  0  0  0  0  0  0  0
   22.1153  -14.1321  -13.1338 N   0  0  0  0  0  0  0  0  0  0  0  0
   19.9901  -15.5608  -13.3734 N   0  0  2  0  0  0  0  0  0  0  0  0
   24.2877  -12.9072  -16.4684 O   0  0  0  0  0  0  0  0  0  0  0  0
   20.6066  -13.2747  -10.9798 O   0  0  0  0  0  0  0  0  0  0  0  0
   18.7434  -13.8641  -15.2562 O   0  0  0  0  0  0  0  0  0  0  0  0
   22.5323   -8.0365  -16.9893 H   0  0  0  0  0  0  0  0  0  0  0  0
   21.3215  -10.5784  -15.4233 H   0  0  0  0  0  0  0  0  0  0  0  0
   19.9087   -9.5899  -13.6225 H   0  0  0  0  0  0  0  0  0  0  0  0
   19.5245  -10.8342  -11.4655 H   0  0  0  0  0  0  0  0  0  0  0  0
   21.3833  -14.9211   -9.9562 H   0  0  0  0  0  0  0  0  0  0  0  0
   22.5846  -13.6616  -10.4806 H   0  0  0  0  0  0  0  0  0  0  0  0
   22.9508  -15.5812  -11.8387 H   0  0  0  0  0  0  0  0  0  0  0  0
   21.3482  -17.0058  -12.6569 H   0  0  0  0  0  0  0  0  0  0  0  0
   20.3016  -16.2285  -11.4047 H   0  0  0  0  0  0  0  0  0  0  0  0
   21.2633  -16.1200  -14.9731 H   0  0  0  0  0  0  0  0  0  0  0  0
   21.3250  -14.3880  -14.5392 H   0  0  0  0  0  0  0  0  0  0  0  0
   20.0608  -14.6949  -16.6520 H   0  0  0  0  0  0  0  0  0  0  0  0
   18.9576  -15.8599  -15.8340 H   0  0  0  0  0  0  0  0  0  0  0  0
   17.4615  -14.9792  -14.0579 H   0  0  0  0  0  0  0  0  0  0  0  0
   17.5634  -13.2250  -13.6704 H   0  0  0  0  0  0  0  0  0  0  0  0
   21.0886   -7.6788  -18.9843 H   0  0  0  0  0  0  0  0  0  0  0  0
   19.8696  -13.5285  -12.8430 H   0  0  0  0  0  0  0  0  0  0  0  0
   18.7386  -14.6130  -11.9704 H   0  0  0  0  0  0  0  0  0  0  0  0
   21.9413  -14.7135  -17.8251 H   0  0  0  0  0  0  0  0  0  0  0  0
   20.4983  -14.3138  -19.8049 H   0  0  0  0  0  0  0  0  0  0  0  0
   19.9892  -11.9873  -20.5246 H   0  0  0  0  0  0  0  0  0  0  0  0
   23.0918  -10.3432  -16.2356 H   0  0  0  0  0  0  0  0  0  0  0  0
   20.1940   -9.6376  -20.2411 H   0  0  0  0  0  0  0  0  0  0  0  0
   23.8825  -15.9888  -13.6830 H   0  0  0  0  0  0  0  0  0  0  0  0
   22.9527  -16.2086  -15.2041 H   0  0  0  0  0  0  0  0  0  0  0  0
   24.4549  -15.2237  -15.2041 H   0  0  0  0  0  0  0  0  0  0  0  0
   19.3522  -16.3511  -13.5448 H   0  0  0  0  0  0  0  0  0  0  0  0
  1 12  2  0
  1 20  1  0
  2  3  2  0
  2 27  1  0
  3  4  1  0
  4  5  2  0
  5 26  1  0
  5 31  1  0
  6  7  1  0
  6 31  1  0
  7  8  1  0
  7 28  1  0
 29  8  1  0
  9 10  1  0
  9 29  1  0
 10 32  1  0
 11 13  1  0
 11 32  1  0
 12 21  1  0
 13 29  1  0
 14 15  2  0
 14 19  1  0
 14 22  1  0
 15 16  1  0
 16 17  2  0
 17 18  1  0
 18 19  1  0
 18 21  2  0
 19 20  2  0
 22 23  1  0
 22 30  2  0
 23 24  2  0
 23 27  1  0
 24 25  1  0
 24 28  1  0
 26 27  2  0
 26 28  1  0
  1 33  1  0
  2 34  1  0
  3 35  1  0
  4 36  1  0
  6 37  1  0
  6 38  1  0
  7 39  1  1
  8 40  1  0
  8 41  1  0
  9 42  1  0
  9 43  1  0
 10 44  1  0
 10 45  1  0
 11 46  1  0
 11 47  1  0
 12 48  1  0
 13 49  1  0
 13 50  1  0
 15 51  1  0
 16 52  1  0
 17 53  1  0
 20 54  1  0
 21 55  1  0
 25 56  1  0
 25 57  1  0
 25 58  1  0
 29 59  1  6
M  CHG  1  29   1
M  END
>  <filename_input>  (23) 
7MWN_WI5_docked.sdf

>  <pdb_id>  (23) 
7MWN_WI5

>  <pose_rank>  (23) 
22

>  <num_atoms_heavy>  (23) 
32

>  <num_torsions>  (23) 
4

>  <pose>  (23) 
[21.16148407804242, -11.134742034974478, -14.487970970066673, -3.500822962620728, 4.0543756248377285, 3.2202384749907864, -0.43594483760641284, 8.961952718409034, 6.812811035205822, -3.126310581315614]

>  <energy>  (23) 
-380.3587849986731

>  <inter_energy>  (23) 
-795.5788978846156

>  <intra_energy>  (23) 
415.91092174252213

>  <rmsd>  (23) 
2.11129

>  <sdf_rank>  (23) 
0

$$$$

     RDKit          3D

 59 64  0  0  0  0  0  0  0  0999 V2000
   21.4299  -13.9838  -11.0823 C   0  0  0  0  0  0  0  0  0  0  0  0
   22.0864   -8.6395  -15.9599 C   0  0  0  0  0  0  0  0  0  0  0  0
   22.2694   -8.1688  -17.2717 C   0  0  0  0  0  0  0  0  0  0  0  0
   21.6786   -8.8196  -18.3657 C   0  0  0  0  0  0  0  0  0  0  0  0
   20.9067   -9.9380  -18.0875 C   0  0  0  0  0  0  0  0  0  0  0  0
   19.1189  -11.4293  -18.6395 C   0  0  0  0  0  0  0  0  0  0  0  0
   19.4097  -12.2364  -17.3767 C   0  0  1  0  0  0  0  0  0  0  0  0
   20.3347  -13.4399  -17.6817 C   0  0  0  0  0  0  0  0  0  0  0  0
   22.6370  -13.2488  -16.7771 C   0  0  0  0  0  0  0  0  0  0  0  0
   23.3999  -13.3838  -15.4570 C   0  0  0  0  0  0  0  0  0  0  0  0
   22.0065  -15.2398  -14.8324 C   0  0  0  0  0  0  0  0  0  0  0  0
   20.4644  -14.2445  -10.1141 C   0  0  0  0  0  0  0  0  0  0  0  0
   21.2516  -15.1062  -16.1451 C   0  0  0  0  0  0  0  0  0  0  0  0
   20.3290  -10.6442  -12.3058 C   0  0  0  0  0  0  0  0  0  0  0  0
   19.2917   -9.7553  -12.0387 C   0  0  0  0  0  0  0  0  0  0  0  0
   18.3316  -10.0350  -11.0710 C   0  0  0  0  0  0  0  0  0  0  0  0
   18.3984  -11.2208  -10.3553 C   0  0  0  0  0  0  0  0  0  0  0  0
   19.4174  -12.1308  -10.6112 C   0  0  0  0  0  0  0  0  0  0  0  0
   20.3874  -11.8577  -11.5848 C   0  0  0  0  0  0  0  0  0  0  0  0
   21.3955  -12.7965  -11.8158 C   0  0  0  0  0  0  0  0  0  0  0  0
   19.4564  -13.3185   -9.8733 C   0  0  0  0  0  0  0  0  0  0  0  0
   21.2343  -10.2414  -13.3009 C   0  0  0  0  0  0  0  0  0  0  0  0
   20.9673  -10.4613  -14.6330 C   0  0  0  0  0  0  0  0  0  0  0  0
   20.1839  -11.4564  -15.0971 C   0  0  0  0  0  0  0  0  0  0  0  0
   19.4875  -12.5737  -14.3200 C   0  0  0  0  0  0  0  0  0  0  0  0
   20.7792  -10.3260  -16.8068 C   0  0  0  0  0  0  0  0  0  0  0  0
   21.3402   -9.7327  -15.7290 C   0  0  0  0  0  0  0  0  0  0  0  0
   20.0833  -11.3783  -16.4231 N   0  0  0  0  0  0  0  0  0  0  0  0
   21.2489  -13.7022  -16.5547 N   0  0  2  0  0  0  0  0  0  0  0  0
   22.3558   -9.8767  -12.9320 O   0  0  0  0  0  0  0  0  0  0  0  0
   20.2775  -10.6705  -19.0900 O   0  0  0  0  0  0  0  0  0  0  0  0
   23.3507  -14.7578  -14.9907 O   0  0  0  0  0  0  0  0  0  0  0  0
   22.2261  -14.7190  -11.2710 H   0  0  0  0  0  0  0  0  0  0  0  0
   22.5566   -8.1102  -15.1180 H   0  0  0  0  0  0  0  0  0  0  0  0
   22.8865   -7.2746  -17.4437 H   0  0  0  0  0  0  0  0  0  0  0  0
   21.8210   -8.4597  -19.3954 H   0  0  0  0  0  0  0  0  0  0  0  0
   18.8163  -12.1211  -19.4395 H   0  0  0  0  0  0  0  0  0  0  0  0
   18.3183  -10.7127  -18.4037 H   0  0  0  0  0  0  0  0  0  0  0  0
   18.4564  -12.6121  -16.9766 H   0  0  0  0  0  0  0  0  0  0  0  0
   19.7169  -14.3326  -17.8591 H   0  0  0  0  0  0  0  0  0  0  0  0
   20.9352  -13.2038  -18.5725 H   0  0  0  0  0  0  0  0  0  0  0  0
   22.6382  -12.1979  -17.1023 H   0  0  0  0  0  0  0  0  0  0  0  0
   23.1161  -13.8581  -17.5576 H   0  0  0  0  0  0  0  0  0  0  0  0
   24.4484  -13.0891  -15.6109 H   0  0  0  0  0  0  0  0  0  0  0  0
   22.9344  -12.7312  -14.7037 H   0  0  0  0  0  0  0  0  0  0  0  0
   21.4965  -14.6501  -14.0566 H   0  0  0  0  0  0  0  0  0  0  0  0
   22.0338  -16.2989  -14.5363 H   0  0  0  0  0  0  0  0  0  0  0  0
   20.4992  -15.1823   -9.5403 H   0  0  0  0  0  0  0  0  0  0  0  0
   21.7453  -15.7142  -16.9175 H   0  0  0  0  0  0  0  0  0  0  0  0
   20.2170  -15.4563  -16.0149 H   0  0  0  0  0  0  0  0  0  0  0  0
   19.2297   -8.8134  -12.6036 H   0  0  0  0  0  0  0  0  0  0  0  0
   17.5216   -9.3172  -10.8743 H   0  0  0  0  0  0  0  0  0  0  0  0
   17.6448  -11.4413   -9.5849 H   0  0  0  0  0  0  0  0  0  0  0  0
   22.1643  -12.5999  -12.5776 H   0  0  0  0  0  0  0  0  0  0  0  0
   18.6935  -13.5185   -9.1065 H   0  0  0  0  0  0  0  0  0  0  0  0
   19.5993  -12.3944  -13.2405 H   0  0  0  0  0  0  0  0  0  0  0  0
   18.4189  -12.5903  -14.5802 H   0  0  0  0  0  0  0  0  0  0  0  0
   19.9433  -13.5405  -14.5802 H   0  0  0  0  0  0  0  0  0  0  0  0
   20.8616  -13.1302  -15.7907 H   0  0  0  0  0  0  0  0  0  0  0  0
  1 12  2  0
  1 20  1  0
  2  3  2  0
  2 27  1  0
  3  4  1  0
  4  5  2  0
  5 26  1  0
  5 31  1  0
  6  7  1  0
  6 31  1  0
  7  8  1  0
  7 28  1  0
 29  8  1  0
  9 10  1  0
  9 29  1  0
 10 32  1  0
 11 13  1  0
 11 32  1  0
 12 21  1  0
 13 29  1  0
 14 15  2  0
 14 19  1  0
 14 22  1  0
 15 16  1  0
 16 17  2  0
 17 18  1  0
 18 19  1  0
 18 21  2  0
 19 20  2  0
 22 23  1  0
 22 30  2  0
 23 24  2  0
 23 27  1  0
 24 25  1  0
 24 28  1  0
 26 27  2  0
 26 28  1  0
  1 33  1  0
  2 34  1  0
  3 35  1  0
  4 36  1  0
  6 37  1  0
  6 38  1  0
  7 39  1  1
  8 40  1  0
  8 41  1  0
  9 42  1  0
  9 43  1  0
 10 44  1  0
 10 45  1  0
 11 46  1  0
 11 47  1  0
 12 48  1  0
 13 49  1  0
 13 50  1  0
 15 51  1  0
 16 52  1  0
 17 53  1  0
 20 54  1  0
 21 55  1  0
 25 56  1  0
 25 57  1  0
 25 58  1  0
 29 59  1  1
M  CHG  1  29   1
M  END
>  <filename_input>  (24) 
7MWN_WI5_docked.sdf

>  <pdb_id>  (24) 
7MWN_WI5

>  <pose_rank>  (24) 
23

>  <num_atoms_heavy>  (24) 
32

>  <num_torsions>  (24) 
4

>  <pose>  (24) 
[22.08640701342582, -8.63954580963855, -15.959857951825484, 0.2804192447984321, 3.6938278587627638, -0.028504700669898443, 3.1102243600111734, 2.7664062828032545, 1.3248787611901138, 0.31367547841176063]

>  <energy>  (24) 
-630.8029196601385

>  <inter_energy>  (24) 
-741.7026537900883

>  <intra_energy>  (24) 
118.68519631421421

>  <rmsd>  (24) 
6.16247

>  <sdf_rank>  (24) 
0

$$$$

     RDKit          3D

 59 64  0  0  0  0  0  0  0  0999 V2000
   19.7432  -16.2408  -10.9966 C   0  0  0  0  0  0  0  0  0  0  0  0
   21.5400  -13.1835  -12.4252 C   0  0  0  0  0  0  0  0  0  0  0  0
   22.3888  -12.4804  -11.5527 C   0  0  0  0  0  0  0  0  0  0  0  0
   22.7536  -11.1499  -11.8099 C   0  0  0  0  0  0  0  0  0  0  0  0
   22.2330  -10.5678  -12.9564 C   0  0  0  0  0  0  0  0  0  0  0  0
   21.5336   -8.6358  -14.1825 C   0  0  0  0  0  0  0  0  0  0  0  0
   21.1453   -9.5293  -15.3579 C   0  0  1  0  0  0  0  0  0  0  0  0
   22.2889   -9.6152  -16.3980 C   0  0  0  0  0  0  0  0  0  0  0  0
   22.7072   -8.4337  -18.5392 C   0  0  0  0  0  0  0  0  0  0  0  0
   22.1764   -8.3697  -19.9735 C   0  0  0  0  0  0  0  0  0  0  0  0
   19.9304   -8.6430  -19.1630 C   0  0  0  0  0  0  0  0  0  0  0  0
   18.5514  -16.5251  -10.3358 C   0  0  0  0  0  0  0  0  0  0  0  0
   20.4588   -8.7037  -17.7389 C   0  0  0  0  0  0  0  0  0  0  0  0
   18.4767  -14.4958  -14.0319 C   0  0  0  0  0  0  0  0  0  0  0  0
   17.2375  -14.1455  -14.5600 C   0  0  0  0  0  0  0  0  0  0  0  0
   16.0556  -14.4429  -13.8883 C   0  0  0  0  0  0  0  0  0  0  0  0
   16.1018  -15.1035  -12.6699 C   0  0  0  0  0  0  0  0  0  0  0  0
   17.3261  -15.4750  -12.1266 C   0  0  0  0  0  0  0  0  0  0  0  0
   18.5209  -15.1807  -12.7970 C   0  0  0  0  0  0  0  0  0  0  0  0
   19.7321  -15.5710  -12.2213 C   0  0  0  0  0  0  0  0  0  0  0  0
   17.3392  -16.1413  -10.8968 C   0  0  0  0  0  0  0  0  0  0  0  0
   19.5918  -14.1339  -14.8050 C   0  0  0  0  0  0  0  0  0  0  0  0
   20.2579  -12.9511  -14.5779 C   0  0  0  0  0  0  0  0  0  0  0  0
   20.1607  -11.8606  -15.3656 C   0  0  0  0  0  0  0  0  0  0  0  0
   19.3894  -11.6852  -16.6739 C   0  0  0  0  0  0  0  0  0  0  0  0
   21.4281  -11.3053  -13.7406 C   0  0  0  0  0  0  0  0  0  0  0  0
   21.0629  -12.5905  -13.5324 C   0  0  0  0  0  0  0  0  0  0  0  0
   20.8862  -10.8647  -14.8590 N   0  0  0  0  0  0  0  0  0  0  0  0
   21.7985   -9.2903  -17.7502 N   0  0  2  0  0  0  0  0  0  0  0  0
   19.8220  -14.8058  -15.8160 O   0  0  0  0  0  0  0  0  0  0  0  0
   22.5295   -9.2574  -13.3205 O   0  0  0  0  0  0  0  0  0  0  0  0
   20.8166   -7.8611  -19.9799 O   0  0  0  0  0  0  0  0  0  0  0  0
   20.7010  -16.5464  -10.5502 H   0  0  0  0  0  0  0  0  0  0  0  0
   21.2651  -14.2246  -12.2003 H   0  0  0  0  0  0  0  0  0  0  0  0
   22.7738  -12.9818  -10.6526 H   0  0  0  0  0  0  0  0  0  0  0  0
   23.4208  -10.5948  -11.1342 H   0  0  0  0  0  0  0  0  0  0  0  0
   21.9440   -7.6937  -14.5749 H   0  0  0  0  0  0  0  0  0  0  0  0
   20.6299   -8.4605  -13.5804 H   0  0  0  0  0  0  0  0  0  0  0  0
   20.2552   -9.1007  -15.8416 H   0  0  0  0  0  0  0  0  0  0  0  0
   23.0807   -8.9033  -16.1218 H   0  0  0  0  0  0  0  0  0  0  0  0
   22.6803  -10.6432  -16.4046 H   0  0  0  0  0  0  0  0  0  0  0  0
   23.7202   -8.8625  -18.5356 H   0  0  0  0  0  0  0  0  0  0  0  0
   22.7519   -7.4243  -18.1045 H   0  0  0  0  0  0  0  0  0  0  0  0
   22.8171   -7.7028  -20.5691 H   0  0  0  0  0  0  0  0  0  0  0  0
   22.1846   -9.3811  -20.4059 H   0  0  0  0  0  0  0  0  0  0  0  0
   19.8625   -9.6624  -19.5707 H   0  0  0  0  0  0  0  0  0  0  0  0
   18.9341   -8.1768  -19.1602 H   0  0  0  0  0  0  0  0  0  0  0  0
   18.5691  -17.0528   -9.3708 H   0  0  0  0  0  0  0  0  0  0  0  0
   20.5050   -7.6879  -17.3195 H   0  0  0  0  0  0  0  0  0  0  0  0
   19.7894   -9.3205  -17.1212 H   0  0  0  0  0  0  0  0  0  0  0  0
   17.1914  -13.6234  -15.5271 H   0  0  0  0  0  0  0  0  0  0  0  0
   15.0870  -14.1546  -14.3227 H   0  0  0  0  0  0  0  0  0  0  0  0
   15.1695  -15.3336  -12.1334 H   0  0  0  0  0  0  0  0  0  0  0  0
   20.6798  -15.3501  -12.7343 H   0  0  0  0  0  0  0  0  0  0  0  0
   16.3951  -16.3605  -10.3765 H   0  0  0  0  0  0  0  0  0  0  0  0
   18.3390  -11.4464  -16.4511 H   0  0  0  0  0  0  0  0  0  0  0  0
   19.8363  -10.8658  -17.2559 H   0  0  0  0  0  0  0  0  0  0  0  0
   19.4379  -12.6173  -17.2559 H   0  0  0  0  0  0  0  0  0  0  0  0
   21.7602  -10.2059  -18.2203 H   0  0  0  0  0  0  0  0  0  0  0  0
  1 12  2  0
  1 20  1  0
  2  3  2  0
  2 27  1  0
  3  4  1  0
  4  5  2  0
  5 26  1  0
  5 31  1  0
  6  7  1  0
  6 31  1  0
  7  8  1  0
  7 28  1  0
 29  8  1  0
  9 10  1  0
  9 29  1  0
 10 32  1  0
 11 13  1  0
 11 32  1  0
 12 21  1  0
 13 29  1  0
 14 15  2  0
 14 19  1  0
 14 22  1  0
 15 16  1  0
 16 17  2  0
 17 18  1  0
 18 19  1  0
 18 21  2  0
 19 20  2  0
 22 23  1  0
 22 30  2  0
 23 24  2  0
 23 27  1  0
 24 25  1  0
 24 28  1  0
 26 27  2  0
 26 28  1  0
  1 33  1  0
  2 34  1  0
  3 35  1  0
  4 36  1  0
  6 37  1  0
  6 38  1  0
  7 39  1  6
  8 40  1  0
  8 41  1  0
  9 42  1  0
  9 43  1  0
 10 44  1  0
 10 45  1  0
 11 46  1  0
 11 47  1  0
 12 48  1  0
 13 49  1  0
 13 50  1  0
 15 51  1  0
 16 52  1  0
 17 53  1  0
 20 54  1  0
 21 55  1  0
 25 56  1  0
 25 57  1  0
 25 58  1  0
 29 59  1  6
M  CHG  1  29   1
M  END
>  <filename_input>  (25) 
7MWN_WI5_docked.sdf

>  <pdb_id>  (25) 
7MWN_WI5

>  <pose_rank>  (25) 
24

>  <num_atoms_heavy>  (25) 
32

>  <num_torsions>  (25) 
4

>  <pose>  (25) 
[21.540030651810156, -13.183488215875538, -12.425204040841516, -0.07740021827792097, -1.932750456451941, -2.6328277459293177, 1.7453493068329806, -0.4086989711565081, -3.4377017923962963, -1.7450288226845116]

>  <energy>  (25) 
-604.3032577954045

>  <inter_energy>  (25) 
-631.8682563791684

>  <intra_energy>  (25) 
35.160652224441876

>  <rmsd>  (25) 
6.6887

>  <sdf_rank>  (25) 
0

$$$$

     RDKit          3D

 59 64  0  0  0  0  0  0  0  0999 V2000
   19.0290  -12.7390  -18.0790 C   0  0  0  0  0  0  0  0  0  0  0  0
   21.0870  -10.0830  -14.6030 C   0  0  0  0  0  0  0  0  0  0  0  0
   20.3050   -9.5210  -13.5790 C   0  0  0  0  0  0  0  0  0  0  0  0
   20.1240  -10.1850  -12.3560 C   0  0  0  0  0  0  0  0  0  0  0  0
   20.7560  -11.4110  -12.2090 C   0  0  0  0  0  0  0  0  0  0  0  0
   21.7420  -13.0980  -10.8280 C   0  0  0  0  0  0  0  0  0  0  0  0
   22.0540  -13.9260  -12.0720 C   0  0  1  0  0  0  0  0  0  0  0  0
   20.9470  -14.9750  -12.3390 C   0  0  0  0  0  0  0  0  0  0  0  0
   18.5310  -14.6180  -11.9020 C   0  0  0  0  0  0  0  0  0  0  0  0
   17.3770  -13.7090  -12.3320 C   0  0  0  0  0  0  0  0  0  0  0  0
   18.2110  -13.7030  -14.5860 C   0  0  0  0  0  0  0  0  0  0  0  0
   18.4890  -11.8520  -19.0060 C   0  0  0  0  0  0  0  0  0  0  0  0
   19.3550  -14.6080  -14.1580 C   0  0  0  0  0  0  0  0  0  0  0  0
   22.3150  -11.1320  -17.3850 C   0  0  0  0  0  0  0  0  0  0  0  0
   23.0070  -10.0050  -17.8190 C   0  0  0  0  0  0  0  0  0  0  0  0
   22.4540   -9.1320  -18.7510 C   0  0  0  0  0  0  0  0  0  0  0  0
   21.1910   -9.3820  -19.2660 C   0  0  0  0  0  0  0  0  0  0  0  0
   20.4840  -10.5070  -18.8580 C   0  0  0  0  0  0  0  0  0  0  0  0
   21.0340  -11.3920  -17.9210 C   0  0  0  0  0  0  0  0  0  0  0  0
   20.2950  -12.5130  -17.5360 C   0  0  0  0  0  0  0  0  0  0  0  0
   19.2130  -10.7320  -19.3970 C   0  0  0  0  0  0  0  0  0  0  0  0
   22.9810  -11.9280  -16.4390 C   0  0  0  0  0  0  0  0  0  0  0  0
   22.4650  -12.1090  -15.1760 C   0  0  0  0  0  0  0  0  0  0  0  0
   22.7300  -13.1740  -14.3920 C   0  0  0  0  0  0  0  0  0  0  0  0
   23.5640  -14.4160  -14.7070 C   0  0  0  0  0  0  0  0  0  0  0  0
   21.4870  -11.8820  -13.2340 C   0  0  0  0  0  0  0  0  0  0  0  0
   21.6760  -11.2780  -14.4290 C   0  0  0  0  0  0  0  0  0  0  0  0
   22.1210  -13.0380  -13.2150 N   0  0  0  0  0  0  0  0  0  0  0  0
   19.6940  -14.3240  -12.7640 N   0  0  2  0  0  0  0  0  0  0  0  0
   24.1330  -12.2840  -16.7090 O   0  0  0  0  0  0  0  0  0  0  0  0
   20.6440  -12.1660  -11.0450 O   0  0  0  0  0  0  0  0  0  0  0  0
   17.0730  -13.9190  -13.7360 O   0  0  0  0  0  0  0  0  0  0  0  0
   18.4537  -13.6249  -17.7720 H   0  0  0  0  0  0  0  0  0  0  0  0
   21.2174   -9.5416  -15.5516 H   0  0  0  0  0  0  0  0  0  0  0  0
   19.8265   -8.5436  -13.7391 H   0  0  0  0  0  0  0  0  0  0  0  0
   19.5099   -9.7536  -11.5518 H   0  0  0  0  0  0  0  0  0  0  0  0
   21.4706  -13.7796  -10.0084 H   0  0  0  0  0  0  0  0  0  0  0  0
   22.6385  -12.5101  -10.5817 H   0  0  0  0  0  0  0  0  0  0  0  0
   23.0087  -14.4484  -11.9119 H   0  0  0  0  0  0  0  0  0  0  0  0
   21.2836  -15.6595  -13.1316 H   0  0  0  0  0  0  0  0  0  0  0  0
   20.7563  -15.5282  -11.4076 H   0  0  0  0  0  0  0  0  0  0  0  0
   18.7876  -14.4222  -10.8504 H   0  0  0  0  0  0  0  0  0  0  0  0
   18.2408  -15.6744  -12.0016 H   0  0  0  0  0  0  0  0  0  0  0  0
   16.4870  -13.9407  -11.7284 H   0  0  0  0  0  0  0  0  0  0  0  0
   17.6695  -12.6596  -12.1800 H   0  0  0  0  0  0  0  0  0  0  0  0
   18.5288  -12.6526  -14.5103 H   0  0  0  0  0  0  0  0  0  0  0  0
   17.9358  -13.9339  -15.6257 H   0  0  0  0  0  0  0  0  0  0  0  0
   17.4904  -12.0373  -19.4285 H   0  0  0  0  0  0  0  0  0  0  0  0
   19.0488  -15.6600  -14.2557 H   0  0  0  0  0  0  0  0  0  0  0  0
   20.2313  -14.4250  -14.7972 H   0  0  0  0  0  0  0  0  0  0  0  0
   24.0105   -9.8004  -17.4175 H   0  0  0  0  0  0  0  0  0  0  0  0
   23.0174   -8.2458  -19.0784 H   0  0  0  0  0  0  0  0  0  0  0  0
   20.7485   -8.6899  -19.9976 H   0  0  0  0  0  0  0  0  0  0  0  0
   20.7117  -13.2195  -16.8031 H   0  0  0  0  0  0  0  0  0  0  0  0
   18.7888  -10.0263  -20.1264 H   0  0  0  0  0  0  0  0  0  0  0  0
   23.8831  -14.8913  -13.7677 H   0  0  0  0  0  0  0  0  0  0  0  0
   22.9588  -15.1259  -15.2900 H   0  0  0  0  0  0  0  0  0  0  0  0
   24.4501  -14.1245  -15.2900 H   0  0  0  0  0  0  0  0  0  0  0  0
   19.8979  -13.3192  -12.6660 H   0  0  0  0  0  0  0  0  0  0  0  0
  1 12  2  0
  1 20  1  0
  2  3  2  0
  2 27  1  0
  3  4  1  0
  4  5  2  0
  5 26  1  0
  5 31  1  0
  6  7  1  0
  6 31  1  0
  7  8  1  0
  7 28  1  0
 29  8  1  0
  9 10  1  0
  9 29  1  0
 10 32  1  0
 11 13  1  0
 11 32  1  0
 12 21  1  0
 13 29  1  0
 14 15  2  0
 14 19  1  0
 14 22  1  0
 15 16  1  0
 16 17  2  0
 17 18  1  0
 18 19  1  0
 18 21  2  0
 19 20  2  0
 22 23  1  0
 22 30  2  0
 23 24  2  0
 23 27  1  0
 24 25  1  0
 24 28  1  0
 26 27  2  0
 26 28  1  0
  1 33  1  0
  2 34  1  0
  3 35  1  0
  4 36  1  0
  6 37  1  0
  6 38  1  0
  7 39  1  1
  8 40  1  0
  8 41  1  0
  9 42  1  0
  9 43  1  0
 10 44  1  0
 10 45  1  0
 11 46  1  0
 11 47  1  0
 12 48  1  0
 13 49  1  0
 13 50  1  0
 15 51  1  0
 16 52  1  0
 17 53  1  0
 20 54  1  0
 21 55  1  0
 25 56  1  0
 25 57  1  0
 25 58  1  0
 29 59  1  6
M  CHG  1  29   1
M  END
>  <filename_input>  (26) 
7MWN_WI5_docked.sdf

>  <pdb_id>  (26) 
7MWN_WI5

>  <pose_rank>  (26) 
25

>  <num_atoms_heavy>  (26) 
32

>  <num_torsions>  (26) 
4

>  <pose>  (26) 
[21.087, -10.083, -14.603, 1e-06, 1e-06, 1e-06, 0.0, 0.0, 0.0, 0.0]

>  <energy>  (26) 
-829.5547451613295

>  <inter_energy>  (26) 
-893.227802311271

>  <intra_energy>  (26) 
76.10117038827319

>  <rmsd>  (26) 
0.0

>  <sdf_rank>  (26) 
0

$$$$
