
     RDKit          3D

 14 14  0  0  0  0  0  0  0  0999 V2000
   10.4010   50.3064   50.4355 C   0  0  0  0  0  0  0  0  0  0  0  0
    9.9529   49.6428   49.1305 C   0  0  0  0  0  0  0  0  0  0  0  0
   11.1794   48.7331   49.1926 C   0  0  2  0  0  0  0  0  0  0  0  0
   11.7437   49.5712   50.3395 C   0  0  0  0  0  0  0  0  0  0  0  0
   12.0217   48.8216   47.9203 C   0  0  0  0  0  0  0  0  0  0  0  0
   11.4440   49.1049   46.8404 O   0  0  0  0  0  0  0  0  0  0  0  0
   13.2637   48.6076   47.9617 O   0  0  0  0  0  0  0  0  0  0  0  0
   10.4826   51.4019   50.3787 H   0  0  0  0  0  0  0  0  0  0  0  0
    9.7843   50.2283   51.3431 H   0  0  0  0  0  0  0  0  0  0  0  0
    8.9924   49.1114   49.2006 H   0  0  0  0  0  0  0  0  0  0  0  0
    9.7452   50.2466   48.2348 H   0  0  0  0  0  0  0  0  0  0  0  0
   11.0726   47.6440   49.3038 H   0  0  0  0  0  0  0  0  0  0  0  0
   12.5912   50.2127   50.0563 H   0  0  0  0  0  0  0  0  0  0  0  0
   12.1872   49.0901   51.2237 H   0  0  0  0  0  0  0  0  0  0  0  0
  1  2  1  0
  1  4  1  0
  2  3  1  0
  3  4  1  0
  3  5  1  0
  5  6  1  0
  5  7  2  0
  1  8  1  0
  1  9  1  0
  2 10  1  0
  2 11  1  0
  3 12  1  1
  4 13  1  0
  4 14  1  0
M  CHG  1   6  -1
M  END
>  <filename_input>  (1) 
7MWU_ZPM_docked.sdf

>  <pdb_id>  (1) 
7MWU_ZPM

>  <pose_rank>  (1) 
0

>  <num_atoms_heavy>  (1) 
7

>  <num_torsions>  (1) 
1

>  <pose>  (1) 
[10.401026571638823, 50.30639917185905, 50.43554748324533, 4.818653576608199, -1.0494535195570145, -3.548527526531842, 9.7676457826683]

>  <energy>  (1) 
-541.9592922161946

>  <inter_energy>  (1) 
-524.2935240504823

>  <intra_energy>  (1) 
0.0

>  <rmsd>  (1) 
0.429486

>  <sdf_rank>  (1) 
0

$$$$

     RDKit          3D

 14 14  0  0  0  0  0  0  0  0999 V2000
   12.2930   48.1780   51.0668 C   0  0  0  0  0  0  0  0  0  0  0  0
   11.8696   49.4879   50.3966 C   0  0  0  0  0  0  0  0  0  0  0  0
   11.3628   48.6893   49.1962 C   0  0  2  0  0  0  0  0  0  0  0  0
   12.0199   47.4283   49.7569 C   0  0  0  0  0  0  0  0  0  0  0  0
   11.9975   49.1596   47.8877 C   0  0  0  0  0  0  0  0  0  0  0  0
   13.2209   49.4480   47.8876 O   0  0  0  0  0  0  0  0  0  0  0  0
   11.3014   49.2591   46.8410 O   0  0  0  0  0  0  0  0  0  0  0  0
   13.3451   48.1558   51.3872 H   0  0  0  0  0  0  0  0  0  0  0  0
   11.8219   47.8526   52.0061 H   0  0  0  0  0  0  0  0  0  0  0  0
   11.0851   50.0384   50.9365 H   0  0  0  0  0  0  0  0  0  0  0  0
   12.5887   50.3094   50.2627 H   0  0  0  0  0  0  0  0  0  0  0  0
   10.2961   48.6846   48.9276 H   0  0  0  0  0  0  0  0  0  0  0  0
   12.9261   47.1133   49.2188 H   0  0  0  0  0  0  0  0  0  0  0  0
   11.4847   46.4673   49.7587 H   0  0  0  0  0  0  0  0  0  0  0  0
  1  2  1  0
  1  4  1  0
  2  3  1  0
  3  4  1  0
  3  5  1  0
  5  6  1  0
  5  7  2  0
  1  8  1  0
  1  9  1  0
  2 10  1  0
  2 11  1  0
  3 12  1  6
  4 13  1  0
  4 14  1  0
M  CHG  1   6  -1
M  END
>  <filename_input>  (2) 
7MWU_ZPM_docked.sdf

>  <pdb_id>  (2) 
7MWU_ZPM

>  <pose_rank>  (2) 
1

>  <num_atoms_heavy>  (2) 
7

>  <num_torsions>  (2) 
1

>  <pose>  (2) 
[12.293012295298924, 48.17799527087833, 51.0668101991893, 0.85423262882327, 0.4610859065165973, -1.1043636471660312, 4.694384921884241]

>  <energy>  (2) 
-486.2103084486328

>  <inter_energy>  (2) 
-460.52335250188486

>  <intra_energy>  (2) 
0.0840361372684714

>  <rmsd>  (2) 
1.48109

>  <sdf_rank>  (2) 
0

$$$$

     RDKit          3D

 14 14  0  0  0  0  0  0  0  0999 V2000
   13.0969   48.6191   48.1839 C   0  0  0  0  0  0  0  0  0  0  0  0
   12.4332   48.1940   49.4966 C   0  0  0  0  0  0  0  0  0  0  0  0
   11.0951   48.7066   48.9655 C   0  0  2  0  0  0  0  0  0  0  0  0
   11.8124   49.3542   47.7814 C   0  0  0  0  0  0  0  0  0  0  0  0
   10.4597   49.7285   49.9078 C   0  0  0  0  0  0  0  0  0  0  0  0
    9.5026   50.4216   49.4791 O   0  0  0  0  0  0  0  0  0  0  0  0
   10.8961   49.8705   51.0823 O   0  0  0  0  0  0  0  0  0  0  0  0
   13.9699   49.2758   48.3129 H   0  0  0  0  0  0  0  0  0  0  0  0
   13.5451   47.8692   47.5154 H   0  0  0  0  0  0  0  0  0  0  0  0
   12.4591   47.1107   49.6856 H   0  0  0  0  0  0  0  0  0  0  0  0
   12.8252   48.5420   50.4637 H   0  0  0  0  0  0  0  0  0  0  0  0
   10.2527   48.0203   48.7939 H   0  0  0  0  0  0  0  0  0  0  0  0
   11.8818   50.4505   47.8395 H   0  0  0  0  0  0  0  0  0  0  0  0
   11.4090   49.2667   46.7618 H   0  0  0  0  0  0  0  0  0  0  0  0
  1  2  1  0
  1  4  1  0
  2  3  1  0
  3  4  1  0
  3  5  1  0
  5  6  1  0
  5  7  2  0
  1  8  1  0
  1  9  1  0
  2 10  1  0
  2 11  1  0
  3 12  1  6
  4 13  1  0
  4 14  1  0
M  CHG  1   6  -1
M  END
>  <filename_input>  (3) 
7MWU_ZPM_docked.sdf

>  <pdb_id>  (3) 
7MWU_ZPM

>  <pose_rank>  (3) 
2

>  <num_atoms_heavy>  (3) 
7

>  <num_torsions>  (3) 
1

>  <pose>  (3) 
[13.096930461538669, 48.619070026480365, 48.183924756611404, 1.4666904195042898, 2.3355818348164252, 0.1434641985458195, -5.679512824901586]

>  <energy>  (3) 
-322.9356279529928

>  <inter_energy>  (3) 
-299.651395695662

>  <intra_energy>  (3) 
0.0

>  <rmsd>  (3) 
2.91596

>  <sdf_rank>  (3) 
0

$$$$

     RDKit          3D

 14 14  0  0  0  0  0  0  0  0999 V2000
   10.8993   49.9325   50.6211 C   0  0  0  0  0  0  0  0  0  0  0  0
   12.1945   49.7291   49.8303 C   0  0  0  0  0  0  0  0  0  0  0  0
   11.4304   50.0178   48.5387 C   0  0  2  0  0  0  0  0  0  0  0  0
   10.1099   49.9609   49.3064 C   0  0  0  0  0  0  0  0  0  0  0  0
   11.5772   48.8857   47.5224 C   0  0  0  0  0  0  0  0  0  0  0  0
   12.2410   47.8703   47.8517 O   0  0  0  0  0  0  0  0  0  0  0  0
   11.0477   48.9800   46.3819 O   0  0  0  0  0  0  0  0  0  0  0  0
   10.6400   49.0937   51.2839 H   0  0  0  0  0  0  0  0  0  0  0  0
   10.8096   50.7557   51.3452 H   0  0  0  0  0  0  0  0  0  0  0  0
   12.9840   50.4595   50.0609 H   0  0  0  0  0  0  0  0  0  0  0  0
   12.7826   48.8062   49.9417 H   0  0  0  0  0  0  0  0  0  0  0  0
   11.6732   50.8943   47.9200 H   0  0  0  0  0  0  0  0  0  0  0  0
    9.5153   49.0552   49.1164 H   0  0  0  0  0  0  0  0  0  0  0  0
    9.3261   50.7136   49.1359 H   0  0  0  0  0  0  0  0  0  0  0  0
  1  2  1  0
  1  4  1  0
  2  3  1  0
  3  4  1  0
  3  5  1  0
  5  6  1  0
  5  7  2  0
  1  8  1  0
  1  9  1  0
  2 10  1  0
  2 11  1  0
  3 12  1  6
  4 13  1  0
  4 14  1  0
M  CHG  1   6  -1
M  END
>  <filename_input>  (4) 
7MWU_ZPM_docked.sdf

>  <pdb_id>  (4) 
7MWU_ZPM

>  <pose_rank>  (4) 
3

>  <num_atoms_heavy>  (4) 
7

>  <num_torsions>  (4) 
1

>  <pose>  (4) 
[10.899299427794292, 49.932499059552875, 50.62112948082667, -1.1582633543196117, 1.1184951450520018, 2.9723825644289983, 4.022722051245803]

>  <energy>  (4) 
-438.72938975956004

>  <inter_energy>  (4) 
-422.55921286585794

>  <intra_energy>  (4) 
0.0

>  <rmsd>  (4) 
1.05706

>  <sdf_rank>  (4) 
0

$$$$

     RDKit          3D

 14 14  0  0  0  0  0  0  0  0999 V2000
   13.2684   48.4409   50.0535 C   0  0  0  0  0  0  0  0  0  0  0  0
   12.7680   49.2818   48.8758 C   0  0  0  0  0  0  0  0  0  0  0  0
   11.5460   49.6804   49.7024 C   0  0  2  0  0  0  0  0  0  0  0  0
   11.9217   48.6423   50.7595 C   0  0  0  0  0  0  0  0  0  0  0  0
   10.2378   49.3514   48.9838 C   0  0  0  0  0  0  0  0  0  0  0  0
    9.2656   50.1356   49.1251 O   0  0  0  0  0  0  0  0  0  0  0  0
   10.1435   48.3132   48.2745 O   0  0  0  0  0  0  0  0  0  0  0  0
   13.4903   47.3944   49.7973 H   0  0  0  0  0  0  0  0  0  0  0  0
   14.2100   48.6952   50.5621 H   0  0  0  0  0  0  0  0  0  0  0  0
   13.4262   50.1217   48.6087 H   0  0  0  0  0  0  0  0  0  0  0  0
   12.6506   48.8369   47.8767 H   0  0  0  0  0  0  0  0  0  0  0  0
   11.3742   50.7276   49.9919 H   0  0  0  0  0  0  0  0  0  0  0  0
   11.2773   47.7508   50.7668 H   0  0  0  0  0  0  0  0  0  0  0  0
   11.8784   48.8879   51.8309 H   0  0  0  0  0  0  0  0  0  0  0  0
  1  2  1  0
  1  4  1  0
  2  3  1  0
  3  4  1  0
  3  5  1  0
  5  6  1  0
  5  7  2  0
  1  8  1  0
  1  9  1  0
  2 10  1  0
  2 11  1  0
  3 12  1  1
  4 13  1  0
  4 14  1  0
M  CHG  1   6  -1
M  END
>  <filename_input>  (5) 
7MWU_ZPM_docked.sdf

>  <pdb_id>  (5) 
7MWU_ZPM

>  <pose_rank>  (5) 
4

>  <num_atoms_heavy>  (5) 
7

>  <num_torsions>  (5) 
1

>  <pose>  (5) 
[13.268369397374327, 48.440915113934544, 50.05347577733641, 0.9063873050903982, -0.6088414571225671, 3.384785296500133, 1.464897994681329]

>  <energy>  (5) 
-283.50551954710636

>  <inter_energy>  (5) 
-284.2415051136726

>  <intra_energy>  (5) 
0.00011589826153135608

>  <rmsd>  (5) 
2.61776

>  <sdf_rank>  (5) 
0

$$$$

     RDKit          3D

 14 14  0  0  0  0  0  0  0  0999 V2000
   11.1071   50.0970   50.7439 C   0  0  0  0  0  0  0  0  0  0  0  0
   10.5346   49.8534   49.3449 C   0  0  0  0  0  0  0  0  0  0  0  0
   11.4454   48.6344   49.2036 C   0  0  2  0  0  0  0  0  0  0  0  0
   12.1849   49.0384   50.4788 C   0  0  0  0  0  0  0  0  0  0  0  0
   12.3228   48.7180   47.9549 C   0  0  0  0  0  0  0  0  0  0  0  0
   13.2028   47.8369   47.7837 O   0  0  0  0  0  0  0  0  0  0  0  0
   12.1649   49.6551   47.1262 O   0  0  0  0  0  0  0  0  0  0  0  0
   11.5016   51.1121   50.8984 H   0  0  0  0  0  0  0  0  0  0  0  0
   10.4618   50.0279   51.6320 H   0  0  0  0  0  0  0  0  0  0  0  0
    9.4601   49.6184   49.3312 H   0  0  0  0  0  0  0  0  0  0  0  0
   10.5411   50.6512   48.5876 H   0  0  0  0  0  0  0  0  0  0  0  0
   11.0267   47.6221   49.1041 H   0  0  0  0  0  0  0  0  0  0  0  0
   13.1904   49.4501   50.3071 H   0  0  0  0  0  0  0  0  0  0  0  0
   12.4398   48.2899   51.2436 H   0  0  0  0  0  0  0  0  0  0  0  0
  1  2  1  0
  1  4  1  0
  2  3  1  0
  3  4  1  0
  3  5  1  0
  5  6  1  0
  5  7  2  0
  1  8  1  0
  1  9  1  0
  2 10  1  0
  2 11  1  0
  3 12  1  1
  4 13  1  0
  4 14  1  0
M  CHG  1   6  -1
M  END
>  <filename_input>  (6) 
7MWU_ZPM_docked.sdf

>  <pdb_id>  (6) 
7MWU_ZPM

>  <pose_rank>  (6) 
5

>  <num_atoms_heavy>  (6) 
7

>  <num_torsions>  (6) 
1

>  <pose>  (6) 
[11.107132499727001, 50.09697446863217, 50.74386297326086, 1.3652995425286136, 1.458862779069145, -6.143980360890701, 0.7359383788660812]

>  <energy>  (6) 
-492.72434468857256

>  <inter_energy>  (6) 
-488.51769997553396

>  <intra_energy>  (6) 
0.0

>  <rmsd>  (6) 
0.578556

>  <sdf_rank>  (6) 
0

$$$$

     RDKit          3D

 14 14  0  0  0  0  0  0  0  0999 V2000
   12.0435   50.6146   50.3031 C   0  0  0  0  0  0  0  0  0  0  0  0
   11.1924   50.5066   49.0350 C   0  0  0  0  0  0  0  0  0  0  0  0
   11.2703   48.9836   49.1336 C   0  0  2  0  0  0  0  0  0  0  0  0
   12.3232   49.1081   50.2345 C   0  0  0  0  0  0  0  0  0  0  0  0
   11.8195   48.3552   47.8531 C   0  0  0  0  0  0  0  0  0  0  0  0
   11.3753   48.7627   46.7501 O   0  0  0  0  0  0  0  0  0  0  0  0
   12.6917   47.4464   47.9121 O   0  0  0  0  0  0  0  0  0  0  0  0
   12.9386   51.2442   50.1923 H   0  0  0  0  0  0  0  0  0  0  0  0
   11.6301   51.0656   51.2173 H   0  0  0  0  0  0  0  0  0  0  0  0
   10.1759   50.9144   49.1372 H   0  0  0  0  0  0  0  0  0  0  0  0
   11.4893   51.0266   48.1122 H   0  0  0  0  0  0  0  0  0  0  0  0
   10.3663   48.3789   49.2986 H   0  0  0  0  0  0  0  0  0  0  0  0
   13.3441   48.8520   49.9148 H   0  0  0  0  0  0  0  0  0  0  0  0
   12.2701   48.4834   51.1384 H   0  0  0  0  0  0  0  0  0  0  0  0
  1  2  1  0
  1  4  1  0
  2  3  1  0
  3  4  1  0
  3  5  1  0
  5  6  1  0
  5  7  2  0
  1  8  1  0
  1  9  1  0
  2 10  1  0
  2 11  1  0
  3 12  1  1
  4 13  1  0
  4 14  1  0
M  CHG  1   6  -1
M  END
>  <filename_input>  (7) 
7MWU_ZPM_docked.sdf

>  <pdb_id>  (7) 
7MWU_ZPM

>  <pose_rank>  (7) 
6

>  <num_atoms_heavy>  (7) 
7

>  <num_torsions>  (7) 
1

>  <pose>  (7) 
[12.043478563621216, 50.61461299561302, 50.30314450271941, 1.2312956263800394, -0.938210784759254, 5.2691785511513975, 3.198043419042917]

>  <energy>  (7) 
-391.15313670237276

>  <inter_energy>  (7) 
-392.6543660103696

>  <intra_energy>  (7) 
0.0

>  <rmsd>  (7) 
1.04917

>  <sdf_rank>  (7) 
0

$$$$

     RDKit          3D

 14 14  0  0  0  0  0  0  0  0999 V2000
   12.9381   47.9632   48.6670 C   0  0  0  0  0  0  0  0  0  0  0  0
   12.8866   48.6426   50.0381 C   0  0  0  0  0  0  0  0  0  0  0  0
   11.3600   48.5975   49.9835 C   0  0  2  0  0  0  0  0  0  0  0  0
   11.4246   48.1633   48.5194 C   0  0  0  0  0  0  0  0  0  0  0  0
   10.7402   49.9826   50.1668 C   0  0  0  0  0  0  0  0  0  0  0  0
    9.5797   50.1803   49.7262 O   0  0  0  0  0  0  0  0  0  0  0  0
   11.3875   50.8998   50.7409 O   0  0  0  0  0  0  0  0  0  0  0  0
   13.5385   48.5026   47.9196 H   0  0  0  0  0  0  0  0  0  0  0  0
   13.3836   46.9638   48.5544 H   0  0  0  0  0  0  0  0  0  0  0  0
   13.3271   48.0493   50.8530 H   0  0  0  0  0  0  0  0  0  0  0  0
   13.4153   49.5905   50.2165 H   0  0  0  0  0  0  0  0  0  0  0  0
   10.7837   48.0067   50.7108 H   0  0  0  0  0  0  0  0  0  0  0  0
   11.1400   48.9475   47.8024 H   0  0  0  0  0  0  0  0  0  0  0  0
   10.7830   47.3529   48.1432 H   0  0  0  0  0  0  0  0  0  0  0  0
  1  2  1  0
  1  4  1  0
  2  3  1  0
  3  4  1  0
  3  5  1  0
  5  6  1  0
  5  7  2  0
  1  8  1  0
  1  9  1  0
  2 10  1  0
  2 11  1  0
  3 12  1  1
  4 13  1  0
  4 14  1  0
M  CHG  1   6  -1
M  END
>  <filename_input>  (8) 
7MWU_ZPM_docked.sdf

>  <pdb_id>  (8) 
7MWU_ZPM

>  <pose_rank>  (8) 
7

>  <num_atoms_heavy>  (8) 
7

>  <num_torsions>  (8) 
1

>  <pose>  (8) 
[12.938060709765123, 47.963201986046066, 48.666967087597605, 0.9094759958331606, 2.3822954345089737, -1.0462077714644826, -5.835640073179682]

>  <energy>  (8) 
-318.9664289513828

>  <inter_energy>  (8) 
-322.5106802744253

>  <intra_energy>  (8) 
0.0

>  <rmsd>  (8) 
2.87289

>  <sdf_rank>  (8) 
0

$$$$

     RDKit          3D

 14 14  0  0  0  0  0  0  0  0999 V2000
   12.6386   47.6257   48.3252 C   0  0  0  0  0  0  0  0  0  0  0  0
   12.9928   48.8218   49.2130 C   0  0  0  0  0  0  0  0  0  0  0  0
   11.6661   48.6446   49.9506 C   0  0  2  0  0  0  0  0  0  0  0  0
   11.2163   47.6303   48.8994 C   0  0  0  0  0  0  0  0  0  0  0  0
   10.8303   49.9242   49.9390 C   0  0  0  0  0  0  0  0  0  0  0  0
   10.2989   50.2802   48.8569 O   0  0  0  0  0  0  0  0  0  0  0  0
   10.6885   50.6028   50.9922 O   0  0  0  0  0  0  0  0  0  0  0  0
   12.6893   47.8350   47.2465 H   0  0  0  0  0  0  0  0  0  0  0  0
   13.2487   46.7107   48.3501 H   0  0  0  0  0  0  0  0  0  0  0  0
   13.8827   48.6700   49.8414 H   0  0  0  0  0  0  0  0  0  0  0  0
   13.2646   49.7909   48.7691 H   0  0  0  0  0  0  0  0  0  0  0  0
   11.6417   48.3822   51.0186 H   0  0  0  0  0  0  0  0  0  0  0  0
   10.4502   48.0075   48.2060 H   0  0  0  0  0  0  0  0  0  0  0  0
   10.7252   46.6917   49.1958 H   0  0  0  0  0  0  0  0  0  0  0  0
  1  2  1  0
  1  4  1  0
  2  3  1  0
  3  4  1  0
  3  5  1  0
  5  6  1  0
  5  7  2  0
  1  8  1  0
  1  9  1  0
  2 10  1  0
  2 11  1  0
  3 12  1  1
  4 13  1  0
  4 14  1  0
M  CHG  1   6  -1
M  END
>  <filename_input>  (9) 
7MWU_ZPM_docked.sdf

>  <pdb_id>  (9) 
7MWU_ZPM

>  <pose_rank>  (9) 
8

>  <num_atoms_heavy>  (9) 
7

>  <num_torsions>  (9) 
1

>  <pose>  (9) 
[12.638613487605298, 47.62566179726421, 48.32521872453674, 0.29000511626360215, 2.4081161916042717, -1.7606972938472585, -1.0487094063565983]

>  <energy>  (9) 
-289.6231404747748

>  <inter_energy>  (9) 
-284.1732334174568

>  <intra_energy>  (9) 
0.014219048125431797

>  <rmsd>  (9) 
2.88405

>  <sdf_rank>  (9) 
0

$$$$

     RDKit          3D

 14 14  0  0  0  0  0  0  0  0999 V2000
   13.0025   47.7961   48.4633 C   0  0  0  0  0  0  0  0  0  0  0  0
   12.6588   48.0969   49.9247 C   0  0  0  0  0  0  0  0  0  0  0  0
   11.2235   48.4109   49.5041 C   0  0  2  0  0  0  0  0  0  0  0  0
   11.6425   48.3615   48.0350 C   0  0  0  0  0  0  0  0  0  0  0  0
   10.7887   49.8059   49.9524 C   0  0  0  0  0  0  0  0  0  0  0  0
   10.8918   50.1008   51.1700 O   0  0  0  0  0  0  0  0  0  0  0  0
   10.3327   50.6313   49.1153 O   0  0  0  0  0  0  0  0  0  0  0  0
   13.8655   48.3593   48.0787 H   0  0  0  0  0  0  0  0  0  0  0  0
   13.3091   46.7849   48.1577 H   0  0  0  0  0  0  0  0  0  0  0  0
   12.7533   47.2323   50.5981 H   0  0  0  0  0  0  0  0  0  0  0  0
   13.2476   48.8244   50.5028 H   0  0  0  0  0  0  0  0  0  0  0  0
   10.3816   47.7990   49.8601 H   0  0  0  0  0  0  0  0  0  0  0  0
   11.6956   49.3457   47.5467 H   0  0  0  0  0  0  0  0  0  0  0  0
   11.0244   47.8391   47.2900 H   0  0  0  0  0  0  0  0  0  0  0  0
  1  2  1  0
  1  4  1  0
  2  3  1  0
  3  4  1  0
  3  5  1  0
  5  6  1  0
  5  7  2  0
  1  8  1  0
  1  9  1  0
  2 10  1  0
  2 11  1  0
  3 12  1  6
  4 13  1  0
  4 14  1  0
M  CHG  1   6  -1
M  END
>  <filename_input>  (10) 
7MWU_ZPM_docked.sdf

>  <pdb_id>  (10) 
7MWU_ZPM

>  <pose_rank>  (10) 
9

>  <num_atoms_heavy>  (10) 
7

>  <num_torsions>  (10) 
1

>  <pose>  (10) 
[13.002497212601718, 47.796095538445165, 48.463303378380374, 1.3126636488685834, 2.2839282965790106, -0.5996931102833277, -3.249204806306204]

>  <energy>  (10) 
-318.97680616891853

>  <inter_energy>  (10) 
-322.01713596559307

>  <intra_energy>  (10) 
0.0

>  <rmsd>  (10) 
2.86187

>  <sdf_rank>  (10) 
0

$$$$

     RDKit          3D

 14 14  0  0  0  0  0  0  0  0999 V2000
   15.7275   58.3051   45.2807 C   0  0  0  0  0  0  0  0  0  0  0  0
   14.5299   57.8669   46.1281 C   0  0  0  0  0  0  0  0  0  0  0  0
   13.9014   57.2402   44.8839 C   0  0  2  0  0  0  0  0  0  0  0  0
   14.9665   57.9036   44.0111 C   0  0  0  0  0  0  0  0  0  0  0  0
   12.4957   57.7792   44.6204 C   0  0  0  0  0  0  0  0  0  0  0  0
   11.6636   57.7623   45.5625 O   0  0  0  0  0  0  0  0  0  0  0  0
   12.1855   58.2215   43.4811 O   0  0  0  0  0  0  0  0  0  0  0  0
   15.9573   59.3787   45.3473 H   0  0  0  0  0  0  0  0  0  0  0  0
   16.7316   57.9031   45.4815 H   0  0  0  0  0  0  0  0  0  0  0  0
   14.7774   57.1458   46.9210 H   0  0  0  0  0  0  0  0  0  0  0  0
   13.9720   58.5965   46.7334 H   0  0  0  0  0  0  0  0  0  0  0  0
   13.7308   56.1555   44.8199 H   0  0  0  0  0  0  0  0  0  0  0  0
   14.5990   58.7531   43.4167 H   0  0  0  0  0  0  0  0  0  0  0  0
   15.4666   57.3424   43.2080 H   0  0  0  0  0  0  0  0  0  0  0  0
  1  2  1  0
  1  4  1  0
  2  3  1  0
  3  4  1  0
  3  5  1  0
  5  6  1  0
  5  7  2  0
  1  8  1  0
  1  9  1  0
  2 10  1  0
  2 11  1  0
  3 12  1  1
  4 13  1  0
  4 14  1  0
M  CHG  1   6  -1
M  END
>  <filename_input>  (11) 
7MWU_ZPM_docked.sdf

>  <pdb_id>  (11) 
7MWU_ZPM

>  <pose_rank>  (11) 
10

>  <num_atoms_heavy>  (11) 
7

>  <num_torsions>  (11) 
1

>  <pose>  (11) 
[15.72753962612311, 58.30508007026393, 45.28074665755626, -0.7879141536971331, -4.212643186648476, -0.3578831931304218, 3.0907685937636704]

>  <energy>  (11) 
-166.80225697296592

>  <inter_energy>  (11) 
-112.36941616101463

>  <intra_energy>  (11) 
0.0

>  <rmsd>  (11) 
10.026

>  <sdf_rank>  (11) 
0

$$$$

     RDKit          3D

 14 14  0  0  0  0  0  0  0  0999 V2000
   10.2745   50.7437   50.2275 C   0  0  0  0  0  0  0  0  0  0  0  0
   10.5733   50.4744   48.7502 C   0  0  0  0  0  0  0  0  0  0  0  0
   10.9029   49.0236   49.0994 C   0  0  2  0  0  0  0  0  0  0  0  0
   10.8547   49.3702   50.5873 C   0  0  0  0  0  0  0  0  0  0  0  0
   12.3005   48.6250   48.6262 C   0  0  0  0  0  0  0  0  0  0  0  0
   13.2754   48.8514   49.3867 O   0  0  0  0  0  0  0  0  0  0  0  0
   12.4624   48.0890   47.4964 O   0  0  0  0  0  0  0  0  0  0  0  0
   10.8306   51.5925   50.6519 H   0  0  0  0  0  0  0  0  0  0  0  0
    9.2614   51.0249   50.5509 H   0  0  0  0  0  0  0  0  0  0  0  0
    9.7054   50.5928   48.0849 H   0  0  0  0  0  0  0  0  0  0  0  0
   11.2929   51.0978   48.1991 H   0  0  0  0  0  0  0  0  0  0  0  0
   10.2981   48.1938   48.7049 H   0  0  0  0  0  0  0  0  0  0  0  0
   11.8402   49.4094   51.0745 H   0  0  0  0  0  0  0  0  0  0  0  0
   10.3411   48.7114   51.3030 H   0  0  0  0  0  0  0  0  0  0  0  0
  1  2  1  0
  1  4  1  0
  2  3  1  0
  3  4  1  0
  3  5  1  0
  5  6  1  0
  5  7  2  0
  1  8  1  0
  1  9  1  0
  2 10  1  0
  2 11  1  0
  3 12  1  1
  4 13  1  0
  4 14  1  0
M  CHG  1   6  -1
M  END
>  <filename_input>  (12) 
7MWU_ZPM_docked.sdf

>  <pdb_id>  (12) 
7MWU_ZPM

>  <pose_rank>  (12) 
11

>  <num_atoms_heavy>  (12) 
7

>  <num_torsions>  (12) 
1

>  <pose>  (12) 
[10.274462195265285, 50.743650686285214, 50.2274738659752, -1.0290182512824075, 13.814687947406988, 11.563431604944771, -0.7785340423461788]

>  <energy>  (12) 
-356.86302709608935

>  <inter_energy>  (12) 
-360.25969040417164

>  <intra_energy>  (12) 
0.0

>  <rmsd>  (12) 
1.00976

>  <sdf_rank>  (12) 
0

$$$$

     RDKit          3D

 14 14  0  0  0  0  0  0  0  0999 V2000
    8.0666   56.3232   47.7239 C   0  0  0  0  0  0  0  0  0  0  0  0
    8.4981   57.0360   46.4394 C   0  0  0  0  0  0  0  0  0  0  0  0
    9.9592   56.8367   46.8405 C   0  0  2  0  0  0  0  0  0  0  0  0
    9.5155   56.3662   48.2255 C   0  0  0  0  0  0  0  0  0  0  0  0
   10.7269   58.1578   46.8785 C   0  0  0  0  0  0  0  0  0  0  0  0
   11.3617   58.4495   47.9235 O   0  0  0  0  0  0  0  0  0  0  0  0
   10.7122   58.9326   45.8838 O   0  0  0  0  0  0  0  0  0  0  0  0
    7.3594   56.8966   48.3412 H   0  0  0  0  0  0  0  0  0  0  0  0
    7.5189   55.3704   47.6778 H   0  0  0  0  0  0  0  0  0  0  0  0
    8.2085   56.5152   45.5148 H   0  0  0  0  0  0  0  0  0  0  0  0
    8.1133   58.0372   46.1952 H   0  0  0  0  0  0  0  0  0  0  0  0
   10.6338   56.2140   46.2346 H   0  0  0  0  0  0  0  0  0  0  0  0
    9.6941   57.0955   49.0294 H   0  0  0  0  0  0  0  0  0  0  0  0
    9.9756   55.4844   48.6952 H   0  0  0  0  0  0  0  0  0  0  0  0
  1  2  1  0
  1  4  1  0
  2  3  1  0
  3  4  1  0
  3  5  1  0
  5  6  1  0
  5  7  2  0
  1  8  1  0
  1  9  1  0
  2 10  1  0
  2 11  1  0
  3 12  1  6
  4 13  1  0
  4 14  1  0
M  CHG  1   6  -1
M  END
>  <filename_input>  (13) 
7MWU_ZPM_docked.sdf

>  <pdb_id>  (13) 
7MWU_ZPM

>  <pose_rank>  (13) 
12

>  <num_atoms_heavy>  (13) 
7

>  <num_torsions>  (13) 
1

>  <pose>  (13) 
[8.066610248875975, 56.32318833918587, 47.72394926701334, 0.7232674407043858, -0.6663289190032735, 0.6796691402352152, -0.07688969503574276]

>  <energy>  (13) 
-132.55714790714646

>  <inter_energy>  (13) 
-109.56180263309656

>  <intra_energy>  (13) 
0.0

>  <rmsd>  (13) 
8.74235

>  <sdf_rank>  (13) 
0

$$$$

     RDKit          3D

 14 14  0  0  0  0  0  0  0  0999 V2000
   11.0847   59.4583   45.7303 C   0  0  0  0  0  0  0  0  0  0  0  0
   10.0492   58.5876   46.4473 C   0  0  0  0  0  0  0  0  0  0  0  0
    9.8879   57.7606   45.1723 C   0  0  2  0  0  0  0  0  0  0  0  0
   10.7184   58.7862   44.4012 C   0  0  0  0  0  0  0  0  0  0  0  0
    8.4327   57.7031   44.7084 C   0  0  0  0  0  0  0  0  0  0  0  0
    7.5565   57.3441   45.5351 O   0  0  0  0  0  0  0  0  0  0  0  0
    8.1293   58.0038   43.5221 O   0  0  0  0  0  0  0  0  0  0  0  0
   10.8677   60.5362   45.7646 H   0  0  0  0  0  0  0  0  0  0  0  0
   12.1289   59.4837   46.0751 H   0  0  0  0  0  0  0  0  0  0  0  0
   10.4481   58.0242   47.3037 H   0  0  0  0  0  0  0  0  0  0  0  0
    9.1754   59.0413   46.9378 H   0  0  0  0  0  0  0  0  0  0  0  0
   10.1628   56.6957   45.1485 H   0  0  0  0  0  0  0  0  0  0  0  0
   10.1334   59.4212   43.7196 H   0  0  0  0  0  0  0  0  0  0  0  0
   11.5008   58.4640   43.6983 H   0  0  0  0  0  0  0  0  0  0  0  0
  1  2  1  0
  1  4  1  0
  2  3  1  0
  3  4  1  0
  3  5  1  0
  5  6  1  0
  5  7  2  0
  1  8  1  0
  1  9  1  0
  2 10  1  0
  2 11  1  0
  3 12  1  1
  4 13  1  0
  4 14  1  0
M  CHG  1   6  -1
M  END
>  <filename_input>  (14) 
7MWU_ZPM_docked.sdf

>  <pdb_id>  (14) 
7MWU_ZPM

>  <pose_rank>  (14) 
13

>  <num_atoms_heavy>  (14) 
7

>  <num_torsions>  (14) 
1

>  <pose>  (14) 
[11.084667327075348, 59.458331233109156, 45.73033763289314, -0.06283464912067929, 1.8641582540791857, 0.41007424379172197, -3.211004838546034]

>  <energy>  (14) 
-86.73873514476792

>  <inter_energy>  (14) 
-79.51695542348622

>  <intra_energy>  (14) 
0.0

>  <rmsd>  (14) 
10.306

>  <sdf_rank>  (14) 
0

$$$$

     RDKit          3D

 14 14  0  0  0  0  0  0  0  0999 V2000
    8.1398   47.3603   41.2065 C   0  0  0  0  0  0  0  0  0  0  0  0
    7.0135   46.6911   41.9989 C   0  0  0  0  0  0  0  0  0  0  0  0
    6.2145   46.5435   40.7045 C   0  0  2  0  0  0  0  0  0  0  0  0
    7.2215   47.4365   39.9803 C   0  0  0  0  0  0  0  0  0  0  0  0
    4.8277   47.1769   40.8134 C   0  0  0  0  0  0  0  0  0  0  0  0
    3.9868   46.9311   39.9120 O   0  0  0  0  0  0  0  0  0  0  0  0
    4.5457   47.9314   41.7835 O   0  0  0  0  0  0  0  0  0  0  0  0
    8.4467   48.3403   41.6007 H   0  0  0  0  0  0  0  0  0  0  0  0
    9.1304   46.8876   41.1348 H   0  0  0  0  0  0  0  0  0  0  0  0
    7.2959   45.7364   42.4667 H   0  0  0  0  0  0  0  0  0  0  0  0
    6.5739   47.1848   42.8781 H   0  0  0  0  0  0  0  0  0  0  0  0
    5.9657   45.5506   40.3017 H   0  0  0  0  0  0  0  0  0  0  0  0
    6.8500   48.4473   39.7559 H   0  0  0  0  0  0  0  0  0  0  0  0
    7.5938   47.1700   38.9801 H   0  0  0  0  0  0  0  0  0  0  0  0
  1  2  1  0
  1  4  1  0
  2  3  1  0
  3  4  1  0
  3  5  1  0
  5  6  1  0
  5  7  2  0
  1  8  1  0
  1  9  1  0
  2 10  1  0
  2 11  1  0
  3 12  1  6
  4 13  1  0
  4 14  1  0
M  CHG  1   6  -1
M  END
>  <filename_input>  (15) 
7MWU_ZPM_docked.sdf

>  <pdb_id>  (15) 
7MWU_ZPM

>  <pose_rank>  (15) 
14

>  <num_atoms_heavy>  (15) 
7

>  <num_torsions>  (15) 
1

>  <pose>  (15) 
[8.139764143549458, 47.36033281101875, 41.206501915053245, -1.2467813706118704, -3.818015836585456, -0.8707905437793158, 1.0542483419781656]

>  <energy>  (15) 
-124.48084842380446

>  <inter_energy>  (15) 
-93.82405025952303

>  <intra_energy>  (15) 
0.0

>  <rmsd>  (15) 
10.4922

>  <sdf_rank>  (15) 
0

$$$$

     RDKit          3D

 14 14  0  0  0  0  0  0  0  0999 V2000
   10.7550   59.0028   47.0839 C   0  0  0  0  0  0  0  0  0  0  0  0
   10.2965   58.6175   45.6747 C   0  0  0  0  0  0  0  0  0  0  0  0
   11.4044   57.5662   45.6208 C   0  0  2  0  0  0  0  0  0  0  0  0
   12.0061   58.1336   46.9062 C   0  0  0  0  0  0  0  0  0  0  0  0
   12.3120   57.7540   44.4054 C   0  0  0  0  0  0  0  0  0  0  0  0
   13.3892   58.3840   44.5565 O   0  0  0  0  0  0  0  0  0  0  0  0
   11.9768   57.2907   43.2817 O   0  0  0  0  0  0  0  0  0  0  0  0
   10.9660   60.0748   47.2112 H   0  0  0  0  0  0  0  0  0  0  0  0
   10.0902   58.8562   47.9479 H   0  0  0  0  0  0  0  0  0  0  0  0
    9.2784   58.2035   45.6284 H   0  0  0  0  0  0  0  0  0  0  0  0
   10.2040   59.3782   44.8856 H   0  0  0  0  0  0  0  0  0  0  0  0
   11.1665   56.4948   45.5473 H   0  0  0  0  0  0  0  0  0  0  0  0
   12.9351   58.7034   46.7574 H   0  0  0  0  0  0  0  0  0  0  0  0
   12.3474   57.4660   47.7112 H   0  0  0  0  0  0  0  0  0  0  0  0
  1  2  1  0
  1  4  1  0
  2  3  1  0
  3  4  1  0
  3  5  1  0
  5  6  1  0
  5  7  2  0
  1  8  1  0
  1  9  1  0
  2 10  1  0
  2 11  1  0
  3 12  1  1
  4 13  1  0
  4 14  1  0
M  CHG  1   6  -1
M  END
>  <filename_input>  (16) 
7MWU_ZPM_docked.sdf

>  <pdb_id>  (16) 
7MWU_ZPM

>  <pose_rank>  (16) 
15

>  <num_atoms_heavy>  (16) 
7

>  <num_torsions>  (16) 
1

>  <pose>  (16) 
[10.754978856797836, 59.00280585576243, 47.08385196741317, 1.3633912978566185, 5.975218943504555, -1.3697723126228194, -0.6095761117080079]

>  <energy>  (16) 
-123.63944657041216

>  <inter_energy>  (16) 
-115.4764317265157

>  <intra_energy>  (16) 
0.0

>  <rmsd>  (16) 
9.53499

>  <sdf_rank>  (16) 
0

$$$$

     RDKit          3D

 14 14  0  0  0  0  0  0  0  0999 V2000
   16.1824   44.5847   41.3195 C   0  0  0  0  0  0  0  0  0  0  0  0
   17.5334   44.7516   42.0202 C   0  0  0  0  0  0  0  0  0  0  0  0
   18.1607   43.8043   40.9981 C   0  0  2  0  0  0  0  0  0  0  0  0
   16.7698   43.4475   40.4743 C   0  0  0  0  0  0  0  0  0  0  0  0
   18.8647   42.6249   41.6686 C   0  0  0  0  0  0  0  0  0  0  0  0
   18.1734   41.6309   42.0067 O   0  0  0  0  0  0  0  0  0  0  0  0
   20.1074   42.6601   41.8792 O   0  0  0  0  0  0  0  0  0  0  0  0
   15.3647   44.2739   41.9864 H   0  0  0  0  0  0  0  0  0  0  0  0
   15.6923   45.4437   40.8379 H   0  0  0  0  0  0  0  0  0  0  0  0
   17.9335   45.7758   41.9918 H   0  0  0  0  0  0  0  0  0  0  0  0
   17.6348   44.5622   43.0991 H   0  0  0  0  0  0  0  0  0  0  0  0
   18.9401   44.1534   40.3049 H   0  0  0  0  0  0  0  0  0  0  0  0
   16.4220   42.4444   40.7619 H   0  0  0  0  0  0  0  0  0  0  0  0
   16.5726   43.3887   39.3937 H   0  0  0  0  0  0  0  0  0  0  0  0
  1  2  1  0
  1  4  1  0
  2  3  1  0
  3  4  1  0
  3  5  1  0
  5  6  1  0
  5  7  2  0
  1  8  1  0
  1  9  1  0
  2 10  1  0
  2 11  1  0
  3 12  1  6
  4 13  1  0
  4 14  1  0
M  CHG  1   6  -1
M  END
>  <filename_input>  (17) 
7MWU_ZPM_docked.sdf

>  <pdb_id>  (17) 
7MWU_ZPM

>  <pose_rank>  (17) 
16

>  <num_atoms_heavy>  (17) 
7

>  <num_torsions>  (17) 
1

>  <pose>  (17) 
[16.182375870984785, 44.584713144902246, 41.31946084195113, -2.322611405017496, 2.277394073000267, 1.4030947133831095, -0.8400510555716537]

>  <energy>  (17) 
-121.51770112068982

>  <inter_energy>  (17) 
-97.55721074095915

>  <intra_energy>  (17) 
0.0

>  <rmsd>  (17) 
11.5725

>  <sdf_rank>  (17) 
0

$$$$

     RDKit          3D

 14 14  0  0  0  0  0  0  0  0999 V2000
   18.3546   41.9966   40.1680 C   0  0  0  0  0  0  0  0  0  0  0  0
   17.9765   42.9698   41.2879 C   0  0  0  0  0  0  0  0  0  0  0  0
   17.1232   43.7556   40.2930 C   0  0  2  0  0  0  0  0  0  0  0  0
   17.7105   42.9381   39.1427 C   0  0  0  0  0  0  0  0  0  0  0  0
   17.5208   45.2304   40.2387 C   0  0  0  0  0  0  0  0  0  0  0  0
   17.9188   45.7806   41.2965 O   0  0  0  0  0  0  0  0  0  0  0  0
   17.4418   45.8727   39.1565 O   0  0  0  0  0  0  0  0  0  0  0  0
   19.4382   41.8610   40.0362 H   0  0  0  0  0  0  0  0  0  0  0  0
   18.0558   40.9393   40.2214 H   0  0  0  0  0  0  0  0  0  0  0  0
   17.4061   42.5128   42.1100 H   0  0  0  0  0  0  0  0  0  0  0  0
   18.7536   43.4724   41.8825 H   0  0  0  0  0  0  0  0  0  0  0  0
   16.0329   43.8318   40.4172 H   0  0  0  0  0  0  0  0  0  0  0  0
   18.4307   43.4879   38.5189 H   0  0  0  0  0  0  0  0  0  0  0  0
   17.0647   42.5445   38.3439 H   0  0  0  0  0  0  0  0  0  0  0  0
  1  2  1  0
  1  4  1  0
  2  3  1  0
  3  4  1  0
  3  5  1  0
  5  6  1  0
  5  7  2  0
  1  8  1  0
  1  9  1  0
  2 10  1  0
  2 11  1  0
  3 12  1  1
  4 13  1  0
  4 14  1  0
M  CHG  1   6  -1
M  END
>  <filename_input>  (18) 
7MWU_ZPM_docked.sdf

>  <pdb_id>  (18) 
7MWU_ZPM

>  <pose_rank>  (18) 
17

>  <num_atoms_heavy>  (18) 
7

>  <num_torsions>  (18) 
1

>  <pose>  (18) 
[18.354604268706666, 41.996587862554044, 40.16800615630021, -2.786026496669661, -2.2956869876689763, 1.326134193567896, 3.394309001435136]

>  <energy>  (18) 
-58.38430396261959

>  <inter_energy>  (18) 
-57.716121547897856

>  <intra_energy>  (18) 
0.0

>  <rmsd>  (18) 
12.0797

>  <sdf_rank>  (18) 
0

$$$$

     RDKit          3D

 14 14  0  0  0  0  0  0  0  0999 V2000
    6.7679   58.9415   44.3979 C   0  0  0  0  0  0  0  0  0  0  0  0
    6.2760   59.3726   43.0135 C   0  0  0  0  0  0  0  0  0  0  0  0
    6.7278   58.0247   42.4527 C   0  0  2  0  0  0  0  0  0  0  0  0
    7.4418   57.7158   43.7684 C   0  0  0  0  0  0  0  0  0  0  0  0
    7.6908   58.1885   41.2772 C   0  0  0  0  0  0  0  0  0  0  0  0
    7.9902   57.1698   40.6044 O   0  0  0  0  0  0  0  0  0  0  0  0
    8.1731   59.3204   41.0009 O   0  0  0  0  0  0  0  0  0  0  0  0
    7.4677   59.6485   44.8673 H   0  0  0  0  0  0  0  0  0  0  0  0
    6.0598   58.8239   45.2314 H   0  0  0  0  0  0  0  0  0  0  0  0
    5.1914   59.5461   42.9535 H   0  0  0  0  0  0  0  0  0  0  0  0
    6.6214   60.3142   42.5618 H   0  0  0  0  0  0  0  0  0  0  0  0
    6.0012   57.3112   42.0369 H   0  0  0  0  0  0  0  0  0  0  0  0
    8.5385   57.7811   43.7138 H   0  0  0  0  0  0  0  0  0  0  0  0
    7.3570   56.7239   44.2361 H   0  0  0  0  0  0  0  0  0  0  0  0
  1  2  1  0
  1  4  1  0
  2  3  1  0
  3  4  1  0
  3  5  1  0
  5  6  1  0
  5  7  2  0
  1  8  1  0
  1  9  1  0
  2 10  1  0
  2 11  1  0
  3 12  1  6
  4 13  1  0
  4 14  1  0
M  CHG  1   6  -1
M  END
>  <filename_input>  (19) 
7MWU_ZPM_docked.sdf

>  <pdb_id>  (19) 
7MWU_ZPM

>  <pose_rank>  (19) 
18

>  <num_atoms_heavy>  (19) 
7

>  <num_torsions>  (19) 
1

>  <pose>  (19) 
[6.767913844854051, 58.941481170612086, 44.39789845341662, -3.3563808618618243, -0.2503731493285694, 4.520238556070851, -5.265428294693775]

>  <energy>  (19) 
-55.15868025579375

>  <inter_energy>  (19) 
-36.95013491229108

>  <intra_energy>  (19) 
0.0

>  <rmsd>  (19) 
12.1492

>  <sdf_rank>  (19) 
0

$$$$

     RDKit          3D

 14 14  0  0  0  0  0  0  0  0999 V2000
   17.1336   43.1941   40.8823 C   0  0  0  0  0  0  0  0  0  0  0  0
   16.4153   43.5319   39.5731 C   0  0  0  0  0  0  0  0  0  0  0  0
   16.2064   44.9596   40.0766 C   0  0  2  0  0  0  0  0  0  0  0  0
   16.6880   44.5409   41.4655 C   0  0  0  0  0  0  0  0  0  0  0  0
   14.7325   45.3636   40.0546 C   0  0  0  0  0  0  0  0  0  0  0  0
   13.9637   44.8642   40.9146 O   0  0  0  0  0  0  0  0  0  0  0  0
   14.3063   46.1735   39.1871 O   0  0  0  0  0  0  0  0  0  0  0  0
   16.7243   42.3185   41.4075 H   0  0  0  0  0  0  0  0  0  0  0  0
   18.1963   42.9098   40.8799 H   0  0  0  0  0  0  0  0  0  0  0  0
   17.0496   43.4571   38.6775 H   0  0  0  0  0  0  0  0  0  0  0  0
   15.5641   42.9275   39.2263 H   0  0  0  0  0  0  0  0  0  0  0  0
   16.6711   45.8152   39.5647 H   0  0  0  0  0  0  0  0  0  0  0  0
   15.8887   44.4656   42.2175 H   0  0  0  0  0  0  0  0  0  0  0  0
   17.3906   45.1699   42.0317 H   0  0  0  0  0  0  0  0  0  0  0  0
  1  2  1  0
  1  4  1  0
  2  3  1  0
  3  4  1  0
  3  5  1  0
  5  6  1  0
  5  7  2  0
  1  8  1  0
  1  9  1  0
  2 10  1  0
  2 11  1  0
  3 12  1  6
  4 13  1  0
  4 14  1  0
M  CHG  1   6  -1
M  END
>  <filename_input>  (20) 
7MWU_ZPM_docked.sdf

>  <pdb_id>  (20) 
7MWU_ZPM

>  <pose_rank>  (20) 
19

>  <num_atoms_heavy>  (20) 
7

>  <num_torsions>  (20) 
1

>  <pose>  (20) 
[17.13364443645145, 43.19407038669232, 40.88233726646922, -1.633390546033778, -0.13689649825939174, -3.2229898482983, -1.0239886314995228]

>  <energy>  (20) 
-118.5105886513845

>  <inter_energy>  (20) 
-105.84863136170763

>  <intra_energy>  (20) 
0.008558168802270333

>  <rmsd>  (20) 
10.9133

>  <sdf_rank>  (20) 
0

$$$$

     RDKit          3D

 14 14  0  0  0  0  0  0  0  0999 V2000
   11.1359   50.1468   50.5253 C   0  0  0  0  0  0  0  0  0  0  0  0
   10.1977   50.3285   49.3290 C   0  0  0  0  0  0  0  0  0  0  0  0
   10.6129   48.9499   48.8165 C   0  0  2  0  0  0  0  0  0  0  0  0
   11.7255   48.8952   49.8632 C   0  0  0  0  0  0  0  0  0  0  0  0
   11.1450   49.0087   47.3849 C   0  0  0  0  0  0  0  0  0  0  0  0
   12.3831   49.1417   47.2132 O   0  0  0  0  0  0  0  0  0  0  0  0
   10.3531   48.9317   46.4067 O   0  0  0  0  0  0  0  0  0  0  0  0
   11.8568   50.9665   50.6607 H   0  0  0  0  0  0  0  0  0  0  0  0
   10.7349   50.1018   51.5487 H   0  0  0  0  0  0  0  0  0  0  0  0
    9.1340   50.4091   49.5974 H   0  0  0  0  0  0  0  0  0  0  0  0
   10.2751   51.2155   48.6831 H   0  0  0  0  0  0  0  0  0  0  0  0
    9.8838   48.1298   48.7409 H   0  0  0  0  0  0  0  0  0  0  0  0
   12.7375   49.0340   49.4549 H   0  0  0  0  0  0  0  0  0  0  0  0
   11.9054   47.9805   50.4471 H   0  0  0  0  0  0  0  0  0  0  0  0
  1  2  1  0
  1  4  1  0
  2  3  1  0
  3  4  1  0
  3  5  1  0
  5  6  1  0
  5  7  2  0
  1  8  1  0
  1  9  1  0
  2 10  1  0
  2 11  1  0
  3 12  1  6
  4 13  1  0
  4 14  1  0
M  CHG  1   6  -1
M  END
>  <filename_input>  (21) 
7MWU_ZPM_docked.sdf

>  <pdb_id>  (21) 
7MWU_ZPM

>  <pose_rank>  (21) 
20

>  <num_atoms_heavy>  (21) 
7

>  <num_torsions>  (21) 
1

>  <pose>  (21) 
[11.135874662165593, 50.14680297056518, 50.525349812441, 0.16437202744949414, 0.3168942919696784, -0.4778878181726216, 11.890056450832295]

>  <energy>  (21) 
-388.663347065799

>  <inter_energy>  (21) 
-374.9527792153534

>  <intra_energy>  (21) 
0.0

>  <rmsd>  (21) 
1.1317

>  <sdf_rank>  (21) 
0

$$$$

     RDKit          3D

 14 14  0  0  0  0  0  0  0  0999 V2000
   11.8895   58.7537   45.3910 C   0  0  0  0  0  0  0  0  0  0  0  0
   10.3642   58.6833   45.2785 C   0  0  0  0  0  0  0  0  0  0  0  0
   10.5118   57.6469   44.1651 C   0  0  2  0  0  0  0  0  0  0  0  0
   12.0149   57.9187   44.1105 C   0  0  0  0  0  0  0  0  0  0  0  0
    9.7837   58.0704   42.8897 C   0  0  0  0  0  0  0  0  0  0  0  0
   10.2176   59.0664   42.2574 O   0  0  0  0  0  0  0  0  0  0  0  0
    8.7697   57.4343   42.4932 O   0  0  0  0  0  0  0  0  0  0  0  0
   12.3006   59.7706   45.3073 H   0  0  0  0  0  0  0  0  0  0  0  0
   12.3972   58.4401   46.3150 H   0  0  0  0  0  0  0  0  0  0  0  0
    9.8616   58.3072   46.1818 H   0  0  0  0  0  0  0  0  0  0  0  0
    9.7689   59.5951   45.1229 H   0  0  0  0  0  0  0  0  0  0  0  0
   10.1396   56.6197   44.2935 H   0  0  0  0  0  0  0  0  0  0  0  0
   12.3392   58.4899   43.2282 H   0  0  0  0  0  0  0  0  0  0  0  0
   12.7354   57.0900   44.0465 H   0  0  0  0  0  0  0  0  0  0  0  0
  1  2  1  0
  1  4  1  0
  2  3  1  0
  3  4  1  0
  3  5  1  0
  5  6  1  0
  5  7  2  0
  1  8  1  0
  1  9  1  0
  2 10  1  0
  2 11  1  0
  3 12  1  1
  4 13  1  0
  4 14  1  0
M  CHG  1   6  -1
M  END
>  <filename_input>  (22) 
7MWU_ZPM_docked.sdf

>  <pdb_id>  (22) 
7MWU_ZPM

>  <pose_rank>  (22) 
21

>  <num_atoms_heavy>  (22) 
7

>  <num_torsions>  (22) 
1

>  <pose>  (22) 
[11.889505316928455, 58.753694819969525, 45.39095135205549, -0.7411056711455994, -4.989461011906014, 0.5999400106712873, -1.1222348110031277]

>  <energy>  (22) 
-115.79376131925763

>  <inter_energy>  (22) 
-86.0826485618162

>  <intra_energy>  (22) 
0.035905312009582455

>  <rmsd>  (22) 
10.5735

>  <sdf_rank>  (22) 
0

$$$$

     RDKit          3D

 14 14  0  0  0  0  0  0  0  0999 V2000
   17.8755   44.3299   44.1026 C   0  0  0  0  0  0  0  0  0  0  0  0
   18.8158   44.4595   42.9012 C   0  0  0  0  0  0  0  0  0  0  0  0
   17.6082   44.7449   42.0092 C   0  0  2  0  0  0  0  0  0  0  0  0
   16.6711   44.3590   43.1533 C   0  0  0  0  0  0  0  0  0  0  0  0
   17.5311   43.7806   40.8258 C   0  0  0  0  0  0  0  0  0  0  0  0
   17.4871   44.2621   39.6654 O   0  0  0  0  0  0  0  0  0  0  0  0
   17.5061   42.5348   41.0189 O   0  0  0  0  0  0  0  0  0  0  0  0
   17.9858   43.3887   44.6611 H   0  0  0  0  0  0  0  0  0  0  0  0
   17.9419   45.0359   44.9435 H   0  0  0  0  0  0  0  0  0  0  0  0
   19.5301   45.2929   42.9746 H   0  0  0  0  0  0  0  0  0  0  0  0
   19.5227   43.6548   42.6507 H   0  0  0  0  0  0  0  0  0  0  0  0
   17.4934   45.7149   41.5033 H   0  0  0  0  0  0  0  0  0  0  0  0
   16.1749   43.3860   43.0227 H   0  0  0  0  0  0  0  0  0  0  0  0
   15.7850   44.9679   43.3857 H   0  0  0  0  0  0  0  0  0  0  0  0
  1  2  1  0
  1  4  1  0
  2  3  1  0
  3  4  1  0
  3  5  1  0
  5  6  1  0
  5  7  2  0
  1  8  1  0
  1  9  1  0
  2 10  1  0
  2 11  1  0
  3 12  1  6
  4 13  1  0
  4 14  1  0
M  CHG  1   6  -1
M  END
>  <filename_input>  (23) 
7MWU_ZPM_docked.sdf

>  <pdb_id>  (23) 
7MWU_ZPM

>  <pose_rank>  (23) 
22

>  <num_atoms_heavy>  (23) 
7

>  <num_torsions>  (23) 
1

>  <pose>  (23) 
[17.875482035052123, 44.32990126627346, 44.10255906093346, -0.7851386968985502, 0.771091972975651, 3.415228824120415, 1.816453125227322]

>  <energy>  (23) 
-109.09218359512474

>  <inter_energy>  (23) 
-74.14102600948925

>  <intra_energy>  (23) 
0.004969813876745636

>  <rmsd>  (23) 
10.6493

>  <sdf_rank>  (23) 
0

$$$$

     RDKit          3D

 14 14  0  0  0  0  0  0  0  0999 V2000
    2.2314   47.1815   41.6696 C   0  0  0  0  0  0  0  0  0  0  0  0
    2.8704   46.1866   40.6969 C   0  0  0  0  0  0  0  0  0  0  0  0
    4.0006   45.9588   41.7000 C   0  0  2  0  0  0  0  0  0  0  0  0
    3.4957   47.1340   42.5368 C   0  0  0  0  0  0  0  0  0  0  0  0
    5.3745   46.2156   41.0814 C   0  0  0  0  0  0  0  0  0  0  0  0
    6.0426   47.1958   41.4972 O   0  0  0  0  0  0  0  0  0  0  0  0
    5.8154   45.4613   40.1722 O   0  0  0  0  0  0  0  0  0  0  0  0
    2.0229   48.1687   41.2316 H   0  0  0  0  0  0  0  0  0  0  0  0
    1.2438   46.9781   42.1092 H   0  0  0  0  0  0  0  0  0  0  0  0
    2.2584   45.2950   40.4959 H   0  0  0  0  0  0  0  0  0  0  0  0
    3.0897   46.4767   39.6588 H   0  0  0  0  0  0  0  0  0  0  0  0
    4.1557   44.9744   42.1657 H   0  0  0  0  0  0  0  0  0  0  0  0
    4.1217   48.0362   42.4732 H   0  0  0  0  0  0  0  0  0  0  0  0
    3.4253   47.0569   43.6319 H   0  0  0  0  0  0  0  0  0  0  0  0
  1  2  1  0
  1  4  1  0
  2  3  1  0
  3  4  1  0
  3  5  1  0
  5  6  1  0
  5  7  2  0
  1  8  1  0
  1  9  1  0
  2 10  1  0
  2 11  1  0
  3 12  1  1
  4 13  1  0
  4 14  1  0
M  CHG  1   6  -1
M  END
>  <filename_input>  (24) 
7MWU_ZPM_docked.sdf

>  <pdb_id>  (24) 
7MWU_ZPM

>  <pose_rank>  (24) 
23

>  <num_atoms_heavy>  (24) 
7

>  <num_torsions>  (24) 
1

>  <pose>  (24) 
[2.231446886580883, 47.18151930926042, 41.669649059327924, 3.0202177727033837, 3.4769174696865326, -2.76660114059924, -0.3277473304431737]

>  <energy>  (24) 
-107.14632712370302

>  <inter_energy>  (24) 
-91.20851573484661

>  <intra_energy>  (24) 
0.0

>  <rmsd>  (24) 
11.1784

>  <sdf_rank>  (24) 
0

$$$$

     RDKit          3D

 14 14  0  0  0  0  0  0  0  0999 V2000
   16.7203   57.8009   41.2881 C   0  0  0  0  0  0  0  0  0  0  0  0
   15.2168   57.5913   41.0885 C   0  0  0  0  0  0  0  0  0  0  0  0
   14.9455   58.7267   42.0748 C   0  0  2  0  0  0  0  0  0  0  0  0
   16.4252   58.7490   42.4570 C   0  0  0  0  0  0  0  0  0  0  0  0
   14.0407   58.2820   43.2236 C   0  0  0  0  0  0  0  0  0  0  0  0
   12.9075   58.8152   43.3317 O   0  0  0  0  0  0  0  0  0  0  0  0
   14.4326   57.4060   44.0415 O   0  0  0  0  0  0  0  0  0  0  0  0
   17.2676   56.8905   41.5739 H   0  0  0  0  0  0  0  0  0  0  0  0
   17.3556   58.1259   40.4510 H   0  0  0  0  0  0  0  0  0  0  0  0
   14.8652   57.7886   40.0650 H   0  0  0  0  0  0  0  0  0  0  0  0
   14.7628   56.5999   41.2332 H   0  0  0  0  0  0  0  0  0  0  0  0
   14.4436   59.6507   41.7519 H   0  0  0  0  0  0  0  0  0  0  0  0
   16.6424   58.3254   43.4487 H   0  0  0  0  0  0  0  0  0  0  0  0
   16.9662   59.7012   42.5606 H   0  0  0  0  0  0  0  0  0  0  0  0
  1  2  1  0
  1  4  1  0
  2  3  1  0
  3  4  1  0
  3  5  1  0
  5  6  1  0
  5  7  2  0
  1  8  1  0
  1  9  1  0
  2 10  1  0
  2 11  1  0
  3 12  1  6
  4 13  1  0
  4 14  1  0
M  CHG  1   6  -1
M  END
>  <filename_input>  (25) 
7MWU_ZPM_docked.sdf

>  <pdb_id>  (25) 
7MWU_ZPM

>  <pose_rank>  (25) 
24

>  <num_atoms_heavy>  (25) 
7

>  <num_torsions>  (25) 
1

>  <pose>  (25) 
[16.72026502980148, 57.80085398348586, 41.288088257989095, -2.2576544033174506, -0.5310042548041306, -1.8673557322751664, 1.9683899149429673]

>  <energy>  (25) 
-68.24479288198583

>  <inter_energy>  (25) 
-64.1381147516986

>  <intra_energy>  (25) 
0.0

>  <rmsd>  (25) 
11.8444

>  <sdf_rank>  (25) 
0

$$$$

     RDKit          3D

 14 14  0  0  0  0  0  0  0  0999 V2000
   10.7900   50.2000   50.7320 C   0  0  0  0  0  0  0  0  0  0  0  0
   10.3270   49.8160   49.3240 C   0  0  0  0  0  0  0  0  0  0  0  0
   11.4340   48.7640   49.2660 C   0  0  2  0  0  0  0  0  0  0  0  0
   12.0400   49.3300   50.5500 C   0  0  0  0  0  0  0  0  0  0  0  0
   12.3380   48.9520   48.0480 C   0  0  0  0  0  0  0  0  0  0  0  0
   13.5830   48.9390   48.2210 O   0  0  0  0  0  0  0  0  0  0  0  0
   11.8380   49.1220   46.9030 O   0  0  0  0  0  0  0  0  0  0  0  0
   11.0021   51.2718   50.8595 H   0  0  0  0  0  0  0  0  0  0  0  0
   10.1277   50.0532   51.5979 H   0  0  0  0  0  0  0  0  0  0  0  0
    9.3085   49.4028   49.2805 H   0  0  0  0  0  0  0  0  0  0  0  0
   10.2326   50.5773   48.5357 H   0  0  0  0  0  0  0  0  0  0  0  0
   11.1951   47.6928   49.1925 H   0  0  0  0  0  0  0  0  0  0  0  0
   12.9690   49.8994   50.3987 H   0  0  0  0  0  0  0  0  0  0  0  0
   12.3832   48.6616   51.3534 H   0  0  0  0  0  0  0  0  0  0  0  0
  1  2  1  0
  1  4  1  0
  2  3  1  0
  3  4  1  0
  3  5  1  0
  5  6  1  0
  5  7  2  0
  1  8  1  0
  1  9  1  0
  2 10  1  0
  2 11  1  0
  3 12  1  1
  4 13  1  0
  4 14  1  0
M  CHG  1   6  -1
M  END
>  <filename_input>  (26) 
7MWU_ZPM_docked.sdf

>  <pdb_id>  (26) 
7MWU_ZPM

>  <pose_rank>  (26) 
25

>  <num_atoms_heavy>  (26) 
7

>  <num_torsions>  (26) 
1

>  <pose>  (26) 
[10.79, 50.2, 50.732, 1e-06, 1e-06, 1e-06, 0.0]

>  <energy>  (26) 
-492.9054824538439

>  <inter_energy>  (26) 
-498.59611141949074

>  <intra_energy>  (26) 
0.0

>  <rmsd>  (26) 
0.0

>  <sdf_rank>  (26) 
0

$$$$
