
     RDKit          3D

 23 22  0  0  0  0  0  0  0  0999 V2000
    3.6446   11.6284   12.8648 C   0  0  0  0  0  0  0  0  0  0  0  0
    4.9466   12.1512   13.2152 O   0  0  0  0  0  0  0  0  0  0  0  0
    3.7973   10.7473   11.6622 C   0  0  0  0  0  0  0  0  0  0  0  0
    2.5137   10.0956   11.2104 C   0  0  0  0  0  0  0  0  0  0  0  0
    1.8685   10.5223   10.1345 C   0  0  0  0  0  0  0  0  0  0  0  0
    2.0453    8.9145   12.0351 C   0  0  0  0  0  0  0  0  0  0  0  0
    5.0804   13.3216   14.3101 P   0  0  1  0  0  0  0  0  0  0  0  0
    4.0957   14.4155   14.0529 O   0  0  0  0  0  0  0  0  0  0  0  0
    5.0491   12.6415   15.6369 O   0  0  0  0  0  0  0  0  0  0  0  0
    6.5797   13.8783   14.0693 O   0  0  0  0  0  0  0  0  0  0  0  0
    7.2268   15.3355   14.4101 P   0  0  1  0  0  0  0  0  0  0  0  0
    6.8077   15.6885   15.8329 O   0  0  0  0  0  0  0  0  0  0  0  0
    8.7487   15.1794   14.2857 O   0  0  0  0  0  0  0  0  0  0  0  0
    6.6352   16.2478   13.3488 O   0  0  0  0  0  0  0  0  0  0  0  0
    3.2405   11.0442   13.7046 H   0  0  0  0  0  0  0  0  0  0  0  0
    2.9526   12.4542   12.6431 H   0  0  0  0  0  0  0  0  0  0  0  0
    4.1854   11.3577   10.8335 H   0  0  0  0  0  0  0  0  0  0  0  0
    4.4822    9.9354   11.9482 H   0  0  0  0  0  0  0  0  0  0  0  0
    0.9342   10.0323    9.8231 H   0  0  0  0  0  0  0  0  0  0  0  0
    2.2673   11.3664    9.5528 H   0  0  0  0  0  0  0  0  0  0  0  0
    2.1401    9.1536   13.1047 H   0  0  0  0  0  0  0  0  0  0  0  0
    0.9930    8.6972   11.7998 H   0  0  0  0  0  0  0  0  0  0  0  0
    2.6628    8.0351   11.7998 H   0  0  0  0  0  0  0  0  0  0  0  0
  1  2  1  0
  1  3  1  0
  2  7  1  0
  3  4  1  0
  4  5  2  0
  4  6  1  0
  7  8  2  0
  7  9  1  1
  7 10  1  0
 10 11  1  0
 11 12  1  1
 11 13  2  0
 11 14  1  0
  1 15  1  0
  1 16  1  0
  3 17  1  0
  3 18  1  0
  5 19  1  0
  5 20  1  0
  6 21  1  0
  6 22  1  0
  6 23  1  0
M  CHG  3   9  -1  12  -1  14  -1
M  END
>  <filename_input>  (1) 
7MY1_IPE_docked.sdf

>  <pdb_id>  (1) 
7MY1_IPE

>  <pose_rank>  (1) 
0

>  <num_atoms_heavy>  (1) 
14

>  <num_torsions>  (1) 
6

>  <pose>  (1) 
[5.080362944715882, 13.321578058799298, 14.310068869054385, -3.731159586265188, -0.6027259387246261, -4.769013508481878, 3.706456414941883, -0.47970607655314906, 4.054513859546135, -0.48590824218909645, 0.001149314612426294, 10.326760907590874]

>  <energy>  (1) 
-425.0250539035486

>  <inter_energy>  (1) 
-401.68377365961265

>  <intra_energy>  (1) 
1.0867754656523494

>  <rmsd>  (1) 
1.69791

>  <sdf_rank>  (1) 
0

$$$$

     RDKit          3D

 23 22  0  0  0  0  0  0  0  0999 V2000
    4.8045   11.3910   12.4269 C   0  0  0  0  0  0  0  0  0  0  0  0
    4.3532   12.6632   12.9457 O   0  0  0  0  0  0  0  0  0  0  0  0
    3.8147   10.9192   11.4054 C   0  0  0  0  0  0  0  0  0  0  0  0
    2.8349    9.8961   11.9249 C   0  0  0  0  0  0  0  0  0  0  0  0
    1.5641    9.9100   11.5502 C   0  0  0  0  0  0  0  0  0  0  0  0
    3.4059    8.8466   12.8561 C   0  0  0  0  0  0  0  0  0  0  0  0
    4.9491   13.2306   14.3274 P   0  0  1  0  0  0  0  0  0  0  0  0
    6.4034   13.5473   14.1976 O   0  0  0  0  0  0  0  0  0  0  0  0
    4.0243   14.3214   14.7506 O   0  0  0  0  0  0  0  0  0  0  0  0
    4.7565   11.9892   15.3461 O   0  0  0  0  0  0  0  0  0  0  0  0
    5.2373   11.8163   16.8945 P   0  0  1  0  0  0  0  0  0  0  0  0
    6.7132   11.4349   16.8639 O   0  0  0  0  0  0  0  0  0  0  0  0
    5.0123   13.1723   17.5775 O   0  0  0  0  0  0  0  0  0  0  0  0
    4.3291   10.7232   17.4321 O   0  0  0  0  0  0  0  0  0  0  0  0
    5.7930   11.5100   11.9592 H   0  0  0  0  0  0  0  0  0  0  0  0
    4.8852   10.6572   13.2424 H   0  0  0  0  0  0  0  0  0  0  0  0
    3.2469   11.7902   11.0462 H   0  0  0  0  0  0  0  0  0  0  0  0
    4.3913   10.4299   10.6066 H   0  0  0  0  0  0  0  0  0  0  0  0
    0.8670    9.1544   11.9415 H   0  0  0  0  0  0  0  0  0  0  0  0
    1.2062   10.6772   10.8479 H   0  0  0  0  0  0  0  0  0  0  0  0
    3.2394    9.1526   13.8995 H   0  0  0  0  0  0  0  0  0  0  0  0
    2.9075    7.8833   12.6725 H   0  0  0  0  0  0  0  0  0  0  0  0
    4.4854    8.7418   12.6725 H   0  0  0  0  0  0  0  0  0  0  0  0
  1  2  1  0
  1  3  1  0
  2  7  1  0
  3  4  1  0
  4  5  2  0
  4  6  1  0
  7  8  2  0
  7  9  1  1
  7 10  1  0
 10 11  1  0
 11 12  1  6
 11 13  2  0
 11 14  1  0
  1 15  1  0
  1 16  1  0
  3 17  1  0
  3 18  1  0
  5 19  1  0
  5 20  1  0
  6 21  1  0
  6 22  1  0
  6 23  1  0
M  CHG  3   9  -1  12  -1  14  -1
M  END
>  <filename_input>  (2) 
7MY1_IPE_docked.sdf

>  <pdb_id>  (2) 
7MY1_IPE

>  <pose_rank>  (2) 
1

>  <num_atoms_heavy>  (2) 
14

>  <num_torsions>  (2) 
6

>  <pose>  (2) 
[4.949075462171993, 13.230592530576994, 14.327407647444748, 0.49128354546489705, 2.4241617641609237, 3.5691102592424095, 5.672284247421389, -0.6036241913186494, -0.7904735158793438, 0.15323004599461318, 0.3337424145965634, 1.8317154856189612]

>  <energy>  (2) 
-415.53448110389655

>  <inter_energy>  (2) 
-402.2085070976707

>  <intra_energy>  (2) 
1.111260438257983

>  <rmsd>  (2) 
3.19674

>  <sdf_rank>  (2) 
0

$$$$

     RDKit          3D

 23 22  0  0  0  0  0  0  0  0999 V2000
    3.3593   11.2408   15.0251 C   0  0  0  0  0  0  0  0  0  0  0  0
    3.8962   11.0483   16.3540 O   0  0  0  0  0  0  0  0  0  0  0  0
    3.8345   10.1162   14.1560 C   0  0  0  0  0  0  0  0  0  0  0  0
    3.5748   10.3242   12.6843 C   0  0  0  0  0  0  0  0  0  0  0  0
    4.3170   11.1548   11.9667 C   0  0  0  0  0  0  0  0  0  0  0  0
    2.4524    9.5004   12.0877 C   0  0  0  0  0  0  0  0  0  0  0  0
    4.7749   12.2035   17.0466 P   0  0  1  0  0  0  0  0  0  0  0  0
    3.9077   13.1730   17.7816 O   0  0  0  0  0  0  0  0  0  0  0  0
    5.8462   11.4976   17.8070 O   0  0  0  0  0  0  0  0  0  0  0  0
    5.4637   12.9452   15.7851 O   0  0  0  0  0  0  0  0  0  0  0  0
    6.9467   12.7537   15.1350 P   0  0  1  0  0  0  0  0  0  0  0  0
    6.9551   13.5100   13.8112 O   0  0  0  0  0  0  0  0  0  0  0  0
    7.9451   13.3479   16.1381 O   0  0  0  0  0  0  0  0  0  0  0  0
    7.0810   11.2476   14.9855 O   0  0  0  0  0  0  0  0  0  0  0  0
    2.2600   11.2407   15.0648 H   0  0  0  0  0  0  0  0  0  0  0  0
    3.6984   12.2040   14.6162 H   0  0  0  0  0  0  0  0  0  0  0  0
    4.9185   10.0003   14.3027 H   0  0  0  0  0  0  0  0  0  0  0  0
    3.2679    9.2221   14.4553 H   0  0  0  0  0  0  0  0  0  0  0  0
    4.1100   11.2912   10.8950 H   0  0  0  0  0  0  0  0  0  0  0  0
    5.1401   11.7079   12.4427 H   0  0  0  0  0  0  0  0  0  0  0  0
    1.8514    9.0593   12.8966 H   0  0  0  0  0  0  0  0  0  0  0  0
    1.8139   10.1458   11.4667 H   0  0  0  0  0  0  0  0  0  0  0  0
    2.8768    8.6977   11.4667 H   0  0  0  0  0  0  0  0  0  0  0  0
  1  2  1  0
  1  3  1  0
  2  7  1  0
  3  4  1  0
  4  5  2  0
  4  6  1  0
  7  8  2  0
  7  9  1  1
  7 10  1  0
 10 11  1  0
 11 12  1  6
 11 13  2  0
 11 14  1  0
  1 15  1  0
  1 16  1  0
  3 17  1  0
  3 18  1  0
  5 19  1  0
  5 20  1  0
  6 21  1  0
  6 22  1  0
  6 23  1  0
M  CHG  3   9  -1  12  -1  14  -1
M  END
>  <filename_input>  (3) 
7MY1_IPE_docked.sdf

>  <pdb_id>  (3) 
7MY1_IPE

>  <pose_rank>  (3) 
2

>  <num_atoms_heavy>  (3) 
14

>  <num_torsions>  (3) 
6

>  <pose>  (3) 
[4.774910066991842, 12.203484869349742, 17.046552481725307, -1.3907588651422855, -5.00356772441455, -1.0502305427251521, -0.22794228839570113, -1.2806707158423278, 4.281920574434917, -0.9924343271104046, 1.8643648053895547, -0.09808347620128821]

>  <energy>  (3) 
-296.34535859455156

>  <inter_energy>  (3) 
-289.4201388558542

>  <intra_energy>  (3) 
3.940010481663761

>  <rmsd>  (3) 
2.98638

>  <sdf_rank>  (3) 
0

$$$$

     RDKit          3D

 23 22  0  0  0  0  0  0  0  0999 V2000
    7.8141   13.0092   15.3968 C   0  0  0  0  0  0  0  0  0  0  0  0
    8.7746   14.0781   15.2349 O   0  0  0  0  0  0  0  0  0  0  0  0
    6.9457   12.9654   14.1762 C   0  0  0  0  0  0  0  0  0  0  0  0
    5.7211   12.0963   14.3236 C   0  0  0  0  0  0  0  0  0  0  0  0
    5.6501   10.9063   13.7454 C   0  0  0  0  0  0  0  0  0  0  0  0
    4.6158   12.6532   15.1969 C   0  0  0  0  0  0  0  0  0  0  0  0
    8.9662   15.1759   16.3944 P   0  0  1  0  0  0  0  0  0  0  0  0
    7.6904   15.4030   17.1380 O   0  0  0  0  0  0  0  0  0  0  0  0
   10.1663   14.7444   17.1674 O   0  0  0  0  0  0  0  0  0  0  0  0
    9.3559   16.5128   15.5718 O   0  0  0  0  0  0  0  0  0  0  0  0
    8.9762   16.9582   14.0499 P   0  0  1  0  0  0  0  0  0  0  0  0
    8.9546   15.6890   13.2054 O   0  0  0  0  0  0  0  0  0  0  0  0
    7.5937   17.6213   14.1192 O   0  0  0  0  0  0  0  0  0  0  0  0
   10.0822   17.9301   13.6742 O   0  0  0  0  0  0  0  0  0  0  0  0
    8.3410   12.0506   15.5126 H   0  0  0  0  0  0  0  0  0  0  0  0
    7.1996   13.1854   16.2920 H   0  0  0  0  0  0  0  0  0  0  0  0
    6.6169   13.9903   13.9490 H   0  0  0  0  0  0  0  0  0  0  0  0
    7.5521   12.5259   13.3706 H   0  0  0  0  0  0  0  0  0  0  0  0
    4.7475   10.2892   13.8660 H   0  0  0  0  0  0  0  0  0  0  0  0
    6.4937   10.5354   13.1447 H   0  0  0  0  0  0  0  0  0  0  0  0
    4.8823   12.5190   16.2556 H   0  0  0  0  0  0  0  0  0  0  0  0
    4.4854   13.7246   14.9846 H   0  0  0  0  0  0  0  0  0  0  0  0
    3.6772   12.1204   14.9846 H   0  0  0  0  0  0  0  0  0  0  0  0
  1  2  1  0
  1  3  1  0
  2  7  1  0
  3  4  1  0
  4  5  2  0
  4  6  1  0
  7  8  2  0
  7  9  1  1
  7 10  1  0
 10 11  1  0
 11 12  1  6
 11 13  2  0
 11 14  1  0
  1 15  1  0
  1 16  1  0
  3 17  1  0
  3 18  1  0
  5 19  1  0
  5 20  1  0
  6 21  1  0
  6 22  1  0
  6 23  1  0
M  CHG  3   9  -1  12  -1  14  -1
M  END
>  <filename_input>  (4) 
7MY1_IPE_docked.sdf

>  <pdb_id>  (4) 
7MY1_IPE

>  <pose_rank>  (4) 
3

>  <num_atoms_heavy>  (4) 
14

>  <num_torsions>  (4) 
6

>  <pose>  (4) 
[8.966196798036261, 15.175914693426726, 16.394414582493432, -1.4391161969981263, -3.484954481803232, -3.4965547458604624, -2.2983266191935705, -1.1885928563662047, -1.985053346582572, 2.133979502662854, 4.045228487098643, 2.6193470881806533]

>  <energy>  (4) 
-168.5124382035015

>  <inter_energy>  (4) 
-189.20211385152038

>  <intra_energy>  (4) 
19.51408470883403

>  <rmsd>  (4) 
4.27704

>  <sdf_rank>  (4) 
0

$$$$

     RDKit          3D

 23 22  0  0  0  0  0  0  0  0999 V2000
    3.2170   11.2531   13.9150 C   0  0  0  0  0  0  0  0  0  0  0  0
    4.2401   10.8491   14.8538 O   0  0  0  0  0  0  0  0  0  0  0  0
    2.5694   10.0198   13.3621 C   0  0  0  0  0  0  0  0  0  0  0  0
    2.8107    9.8066   11.8881 C   0  0  0  0  0  0  0  0  0  0  0  0
    3.0754   10.8238   11.0813 C   0  0  0  0  0  0  0  0  0  0  0  0
    2.7700    8.3691   11.4122 C   0  0  0  0  0  0  0  0  0  0  0  0
    5.7795   10.7824   14.3934 P   0  0  1  0  0  0  0  0  0  0  0  0
    5.9035   10.2536   13.0015 O   0  0  0  0  0  0  0  0  0  0  0  0
    6.3506   12.1276   14.6906 O   0  0  0  0  0  0  0  0  0  0  0  0
    6.4265    9.7245   15.4317 O   0  0  0  0  0  0  0  0  0  0  0  0
    7.1272    9.9712   16.8831 P   0  0  1  0  0  0  0  0  0  0  0  0
    6.3480   11.0863   17.5714 O   0  0  0  0  0  0  0  0  0  0  0  0
    7.0248    8.6458   17.6504 O   0  0  0  0  0  0  0  0  0  0  0  0
    8.5577   10.3444   16.5319 O   0  0  0  0  0  0  0  0  0  0  0  0
    2.4644   11.8697   14.4281 H   0  0  0  0  0  0  0  0  0  0  0  0
    3.6626   11.8435   13.1009 H   0  0  0  0  0  0  0  0  0  0  0  0
    2.9635    9.1489   13.9064 H   0  0  0  0  0  0  0  0  0  0  0  0
    1.4843   10.1456   13.4915 H   0  0  0  0  0  0  0  0  0  0  0  0
    3.2480   10.6454   10.0097 H   0  0  0  0  0  0  0  0  0  0  0  0
    3.1225   11.8467   11.4832 H   0  0  0  0  0  0  0  0  0  0  0  0
    2.7510    7.6955   12.2816 H   0  0  0  0  0  0  0  0  0  0  0  0
    1.8670    8.2094   10.8047 H   0  0  0  0  0  0  0  0  0  0  0  0
    3.6626    8.1586   10.8047 H   0  0  0  0  0  0  0  0  0  0  0  0
  1  2  1  0
  1  3  1  0
  2  7  1  0
  3  4  1  0
  4  5  2  0
  4  6  1  0
  7  8  2  0
  7  9  1  6
  7 10  1  0
 10 11  1  0
 11 12  1  1
 11 13  2  0
 11 14  1  0
  1 15  1  0
  1 16  1  0
  3 17  1  0
  3 18  1  0
  5 19  1  0
  5 20  1  0
  6 21  1  0
  6 22  1  0
  6 23  1  0
M  CHG  3   9  -1  12  -1  14  -1
M  END
>  <filename_input>  (5) 
7MY1_IPE_docked.sdf

>  <pdb_id>  (5) 
7MY1_IPE

>  <pose_rank>  (5) 
4

>  <num_atoms_heavy>  (5) 
14

>  <num_torsions>  (5) 
6

>  <pose>  (5) 
[5.779524466296595, 10.782423930122858, 14.39336426016885, 3.2656040129133155, 0.27477105480864883, 2.6023097832775965, 3.846903341891348, 4.552666809729277, -1.0457718862637555, 3.5202806870216974, 1.9864371967641323, 3.88175442010871]

>  <energy>  (5) 
-401.3355439978155

>  <inter_energy>  (5) 
-387.97655641360154

>  <intra_energy>  (5) 
8.052582485193906

>  <rmsd>  (5) 
4.65295

>  <sdf_rank>  (5) 
0

$$$$

     RDKit          3D

 23 22  0  0  0  0  0  0  0  0999 V2000
    4.3215   11.3792   11.0497 C   0  0  0  0  0  0  0  0  0  0  0  0
    5.3706   11.8940   11.9015 O   0  0  0  0  0  0  0  0  0  0  0  0
    3.8343   10.0859   11.6292 C   0  0  0  0  0  0  0  0  0  0  0  0
    2.3930    9.7734   11.3105 C   0  0  0  0  0  0  0  0  0  0  0  0
    1.7057    8.8963   12.0275 C   0  0  0  0  0  0  0  0  0  0  0  0
    1.7866   10.5494   10.1596 C   0  0  0  0  0  0  0  0  0  0  0  0
    5.0017   12.6526   13.2707 P   0  0  1  0  0  0  0  0  0  0  0  0
    5.8817   13.8413   13.4825 O   0  0  0  0  0  0  0  0  0  0  0  0
    3.5261   12.8650   13.2320 O   0  0  0  0  0  0  0  0  0  0  0  0
    5.3168   11.5402   14.4017 O   0  0  0  0  0  0  0  0  0  0  0  0
    5.2529   11.6473   16.0274 P   0  0  1  0  0  0  0  0  0  0  0  0
    3.9023   12.2596   16.3818 O   0  0  0  0  0  0  0  0  0  0  0  0
    5.3902   10.2168   16.5668 O   0  0  0  0  0  0  0  0  0  0  0  0
    6.4402   12.5292   16.3757 O   0  0  0  0  0  0  0  0  0  0  0  0
    3.4928   12.1011   11.0032 H   0  0  0  0  0  0  0  0  0  0  0  0
    4.7062   11.2165   10.0321 H   0  0  0  0  0  0  0  0  0  0  0  0
    4.4600    9.2724   11.2335 H   0  0  0  0  0  0  0  0  0  0  0  0
    3.9042   10.1815   12.7228 H   0  0  0  0  0  0  0  0  0  0  0  0
    0.6558    8.6836   11.7775 H   0  0  0  0  0  0  0  0  0  0  0  0
    2.1851    8.3808   12.8728 H   0  0  0  0  0  0  0  0  0  0  0  0
    1.1547   11.3582   10.5553 H   0  0  0  0  0  0  0  0  0  0  0  0
    2.5902   10.9798    9.5439 H   0  0  0  0  0  0  0  0  0  0  0  0
    1.1747    9.8739    9.5439 H   0  0  0  0  0  0  0  0  0  0  0  0
  1  2  1  0
  1  3  1  0
  2  7  1  0
  3  4  1  0
  4  5  2  0
  4  6  1  0
  7  8  2  0
  7  9  1  6
  7 10  1  0
 10 11  1  0
 11 12  1  6
 11 13  2  0
 11 14  1  0
  1 15  1  0
  1 16  1  0
  3 17  1  0
  3 18  1  0
  5 19  1  0
  5 20  1  0
  6 21  1  0
  6 22  1  0
  6 23  1  0
M  CHG  3   9  -1  12  -1  14  -1
M  END
>  <filename_input>  (6) 
7MY1_IPE_docked.sdf

>  <pdb_id>  (6) 
7MY1_IPE

>  <pose_rank>  (6) 
5

>  <num_atoms_heavy>  (6) 
14

>  <num_torsions>  (6) 
6

>  <pose>  (6) 
[5.00169395817341, 12.65260051159002, 13.270691810173362, 0.35789354305131593, -1.2841993569388612, -0.967702002169648, 8.372440807232467, 1.4605769089209004, 3.5915272621841705, 1.1577420207470763, -5.930332477909039, -8.471564039756059]

>  <energy>  (6) 
-398.7998652497764

>  <inter_energy>  (6) 
-364.9524773272325

>  <intra_energy>  (6) 
6.605840111921531

>  <rmsd>  (6) 
3.58399

>  <sdf_rank>  (6) 
0

$$$$

     RDKit          3D

 23 22  0  0  0  0  0  0  0  0999 V2000
    4.7904   12.2656   12.1967 C   0  0  0  0  0  0  0  0  0  0  0  0
    4.9535   11.6482   13.4942 O   0  0  0  0  0  0  0  0  0  0  0  0
    3.4388   11.8969   11.6645 C   0  0  0  0  0  0  0  0  0  0  0  0
    2.9230   10.5692   12.1623 C   0  0  0  0  0  0  0  0  0  0  0  0
    3.7454    9.6531   12.6524 C   0  0  0  0  0  0  0  0  0  0  0  0
    1.4217   10.3777   12.1010 C   0  0  0  0  0  0  0  0  0  0  0  0
    4.5906   12.4661   14.8305 P   0  0  1  0  0  0  0  0  0  0  0  0
    3.9480   13.7747   14.5038 O   0  0  0  0  0  0  0  0  0  0  0  0
    3.8451   11.5115   15.7006 O   0  0  0  0  0  0  0  0  0  0  0  0
    6.0379   12.7291   15.5029 O   0  0  0  0  0  0  0  0  0  0  0  0
    6.4935   13.8251   16.6208 P   0  0  1  0  0  0  0  0  0  0  0  0
    6.1982   15.2039   16.0408 O   0  0  0  0  0  0  0  0  0  0  0  0
    5.6577   13.5434   17.8771 O   0  0  0  0  0  0  0  0  0  0  0  0
    7.9736   13.5429   16.8173 O   0  0  0  0  0  0  0  0  0  0  0  0
    4.8663   13.3587   12.2931 H   0  0  0  0  0  0  0  0  0  0  0  0
    5.5754   11.9158   11.5101 H   0  0  0  0  0  0  0  0  0  0  0  0
    2.7249   12.6788   11.9627 H   0  0  0  0  0  0  0  0  0  0  0  0
    3.5405   11.8091   10.5728 H   0  0  0  0  0  0  0  0  0  0  0  0
    3.3476    8.6918   13.0098 H   0  0  0  0  0  0  0  0  0  0  0  0
    4.8257    9.8539   12.7019 H   0  0  0  0  0  0  0  0  0  0  0  0
    1.0167   10.3260   13.1224 H   0  0  0  0  0  0  0  0  0  0  0  0
    0.9655   11.2249   11.5681 H   0  0  0  0  0  0  0  0  0  0  0  0
    1.1928    9.4430   11.5681 H   0  0  0  0  0  0  0  0  0  0  0  0
  1  2  1  0
  1  3  1  0
  2  7  1  0
  3  4  1  0
  4  5  2  0
  4  6  1  0
  7  8  2  0
  7  9  1  1
  7 10  1  0
 10 11  1  0
 11 12  1  6
 11 13  2  0
 11 14  1  0
  1 15  1  0
  1 16  1  0
  3 17  1  0
  3 18  1  0
  5 19  1  0
  5 20  1  0
  6 21  1  0
  6 22  1  0
  6 23  1  0
M  CHG  3   9  -1  12  -1  14  -1
M  END
>  <filename_input>  (7) 
7MY1_IPE_docked.sdf

>  <pdb_id>  (7) 
7MY1_IPE

>  <pose_rank>  (7) 
6

>  <num_atoms_heavy>  (7) 
14

>  <num_torsions>  (7) 
6

>  <pose>  (7) 
[4.5906134774221625, 12.466054851015278, 14.830475525867824, 0.37286775820097595, -0.5295278116219911, 0.03540595356525602, -39.33729294731519, -11.367178770737725, 13.013898086159958, -2.6725749041417632, 18.933232022849378, 14.762345740732915]

>  <energy>  (7) 
-274.5683219185871

>  <inter_energy>  (7) 
-319.34006809346636

>  <intra_energy>  (7) 
48.2863410457127

>  <rmsd>  (7) 
2.04494

>  <sdf_rank>  (7) 
0

$$$$

     RDKit          3D

 23 22  0  0  0  0  0  0  0  0999 V2000
    4.1363   11.4304   11.9046 C   0  0  0  0  0  0  0  0  0  0  0  0
    4.3732   10.7962   13.1824 O   0  0  0  0  0  0  0  0  0  0  0  0
    3.0191   10.7055   11.2172 C   0  0  0  0  0  0  0  0  0  0  0  0
    2.5515    9.4675   11.9419 C   0  0  0  0  0  0  0  0  0  0  0  0
    1.3590    9.4178   12.5173 C   0  0  0  0  0  0  0  0  0  0  0  0
    3.5079    8.2929   11.9300 C   0  0  0  0  0  0  0  0  0  0  0  0
    4.9806   11.6446   14.4062 P   0  0  1  0  0  0  0  0  0  0  0  0
    4.9838   13.1068   14.0994 O   0  0  0  0  0  0  0  0  0  0  0  0
    4.2529   11.1804   15.6224 O   0  0  0  0  0  0  0  0  0  0  0  0
    6.5042   11.1104   14.5013 O   0  0  0  0  0  0  0  0  0  0  0  0
    7.4054   10.7318   15.8063 P   0  0  1  0  0  0  0  0  0  0  0  0
    6.9634    9.3475   16.2679 O   0  0  0  0  0  0  0  0  0  0  0  0
    8.8694   10.7391   15.3453 O   0  0  0  0  0  0  0  0  0  0  0  0
    7.0890   11.8416   16.7948 O   0  0  0  0  0  0  0  0  0  0  0  0
    3.8570   12.4832   12.0583 H   0  0  0  0  0  0  0  0  0  0  0  0
    5.0470   11.3924   11.2889 H   0  0  0  0  0  0  0  0  0  0  0  0
    2.1664   11.3940   11.1235 H   0  0  0  0  0  0  0  0  0  0  0  0
    3.4071   10.3753   10.2423 H   0  0  0  0  0  0  0  0  0  0  0  0
    1.0383    8.5049   13.0405 H   0  0  0  0  0  0  0  0  0  0  0  0
    0.6896   10.2896   12.4719 H   0  0  0  0  0  0  0  0  0  0  0  0
    3.7446    8.0023   12.9641 H   0  0  0  0  0  0  0  0  0  0  0  0
    3.0404    7.4447   11.4085 H   0  0  0  0  0  0  0  0  0  0  0  0
    4.4333    8.5789   11.4085 H   0  0  0  0  0  0  0  0  0  0  0  0
  1  2  1  0
  1  3  1  0
  2  7  1  0
  3  4  1  0
  4  5  2  0
  4  6  1  0
  7  8  2  0
  7  9  1  1
  7 10  1  0
 10 11  1  0
 11 12  1  1
 11 13  2  0
 11 14  1  0
  1 15  1  0
  1 16  1  0
  3 17  1  0
  3 18  1  0
  5 19  1  0
  5 20  1  0
  6 21  1  0
  6 22  1  0
  6 23  1  0
M  CHG  3   9  -1  12  -1  14  -1
M  END
>  <filename_input>  (8) 
7MY1_IPE_docked.sdf

>  <pdb_id>  (8) 
7MY1_IPE

>  <pose_rank>  (8) 
7

>  <num_atoms_heavy>  (8) 
14

>  <num_torsions>  (8) 
6

>  <pose>  (8) 
[4.980564336713333, 11.644593096871654, 14.406200122436228, -1.4312481491767042, 2.263655569690572, 5.02037775050185, 199.4904882745682, 125.84405424597263, -11.724423552539564, -6.665109149265128, 95.41047782935637, -1.679684523290894]

>  <energy>  (8) 
-350.26125045835187

>  <inter_energy>  (8) 
-350.4245766850491

>  <intra_energy>  (8) 
17.08606101571086

>  <rmsd>  (8) 
3.78138

>  <sdf_rank>  (8) 
0

$$$$

     RDKit          3D

 23 22  0  0  0  0  0  0  0  0999 V2000
    4.8398   10.5157   12.6299 C   0  0  0  0  0  0  0  0  0  0  0  0
    4.7587   10.8322   14.0387 O   0  0  0  0  0  0  0  0  0  0  0  0
    3.6777   11.1569   11.9340 C   0  0  0  0  0  0  0  0  0  0  0  0
    2.6486   10.1775   11.4257 C   0  0  0  0  0  0  0  0  0  0  0  0
    2.4733    9.0009   12.0092 C   0  0  0  0  0  0  0  0  0  0  0  0
    1.8173   10.6430   10.2481 C   0  0  0  0  0  0  0  0  0  0  0  0
    5.9416   11.6556   14.7521 P   0  0  1  0  0  0  0  0  0  0  0  0
    5.9153   11.4628   16.2335 O   0  0  0  0  0  0  0  0  0  0  0  0
    7.1877   11.2961   14.0157 O   0  0  0  0  0  0  0  0  0  0  0  0
    5.5803   13.1927   14.4020 O   0  0  0  0  0  0  0  0  0  0  0  0
    5.9187   14.5635   15.2174 P   0  0  1  0  0  0  0  0  0  0  0  0
    5.7458   15.7196   14.2385 O   0  0  0  0  0  0  0  0  0  0  0  0
    4.9162   14.6428   16.3770 O   0  0  0  0  0  0  0  0  0  0  0  0
    7.3504   14.3593   15.6837 O   0  0  0  0  0  0  0  0  0  0  0  0
    5.7816   10.9043   12.2154 H   0  0  0  0  0  0  0  0  0  0  0  0
    4.8128    9.4256   12.4851 H   0  0  0  0  0  0  0  0  0  0  0  0
    3.1850   11.8398   12.6416 H   0  0  0  0  0  0  0  0  0  0  0  0
    4.0826   11.6776   11.0537 H   0  0  0  0  0  0  0  0  0  0  0  0
    1.7172    8.3021   11.6219 H   0  0  0  0  0  0  0  0  0  0  0  0
    3.0840    8.7228   12.8809 H   0  0  0  0  0  0  0  0  0  0  0  0
    0.9126   11.1496   10.6154 H   0  0  0  0  0  0  0  0  0  0  0  0
    2.4066   11.3424    9.6369 H   0  0  0  0  0  0  0  0  0  0  0  0
    1.5290    9.7751    9.6369 H   0  0  0  0  0  0  0  0  0  0  0  0
  1  2  1  0
  1  3  1  0
  2  7  1  0
  3  4  1  0
  4  5  2  0
  4  6  1  0
  7  8  2  0
  7  9  1  6
  7 10  1  0
 10 11  1  0
 11 12  1  6
 11 13  2  0
 11 14  1  0
  1 15  1  0
  1 16  1  0
  3 17  1  0
  3 18  1  0
  5 19  1  0
  5 20  1  0
  6 21  1  0
  6 22  1  0
  6 23  1  0
M  CHG  3   9  -1  12  -1  14  -1
M  END
>  <filename_input>  (9) 
7MY1_IPE_docked.sdf

>  <pdb_id>  (9) 
7MY1_IPE

>  <pose_rank>  (9) 
8

>  <num_atoms_heavy>  (9) 
14

>  <num_torsions>  (9) 
6

>  <pose>  (9) 
[5.941628178659584, 11.655557397322664, 14.752106535874896, -2.0787842331626813, -3.3227807505263933, -1.5791284790057771, -17.117579246780803, -24.370396637076922, -13.55021115028971, -1.838692645500736, -6.345855806186055, -0.22086364193319147]

>  <energy>  (9) 
-387.50117417741336

>  <inter_energy>  (9) 
-361.3333050787352

>  <intra_energy>  (9) 
0.6018305051483717

>  <rmsd>  (9) 
2.58956

>  <sdf_rank>  (9) 
0

$$$$

     RDKit          3D

 23 22  0  0  0  0  0  0  0  0999 V2000
    5.2018   10.0029   12.8986 C   0  0  0  0  0  0  0  0  0  0  0  0
    6.0217    9.4003   13.9261 O   0  0  0  0  0  0  0  0  0  0  0  0
    3.7630    9.7531   13.2352 C   0  0  0  0  0  0  0  0  0  0  0  0
    2.8167    9.9529   12.0771 C   0  0  0  0  0  0  0  0  0  0  0  0
    3.0365   10.8878   11.1642 C   0  0  0  0  0  0  0  0  0  0  0  0
    1.6414    8.9997   12.0111 C   0  0  0  0  0  0  0  0  0  0  0  0
    6.6288   10.3037   15.1099 P   0  0  1  0  0  0  0  0  0  0  0  0
    5.7486   11.4758   15.3991 O   0  0  0  0  0  0  0  0  0  0  0  0
    6.9364    9.3605   16.2233 O   0  0  0  0  0  0  0  0  0  0  0  0
    8.0310   10.8220   14.4924 O   0  0  0  0  0  0  0  0  0  0  0  0
    8.9323   12.1242   14.8800 P   0  0  1  0  0  0  0  0  0  0  0  0
    8.2807   13.3321   14.2158 O   0  0  0  0  0  0  0  0  0  0  0  0
    8.9096   12.2334   16.4109 O   0  0  0  0  0  0  0  0  0  0  0  0
   10.3075   11.7852   14.3297 O   0  0  0  0  0  0  0  0  0  0  0  0
    5.3916   11.0857   12.8591 H   0  0  0  0  0  0  0  0  0  0  0  0
    5.4421    9.5658   11.9182 H   0  0  0  0  0  0  0  0  0  0  0  0
    3.6653    8.7152   13.5862 H   0  0  0  0  0  0  0  0  0  0  0  0
    3.4842   10.4889   14.0038 H   0  0  0  0  0  0  0  0  0  0  0  0
    2.3333   11.0161   10.3281 H   0  0  0  0  0  0  0  0  0  0  0  0
    3.9220   11.5356   11.2425 H   0  0  0  0  0  0  0  0  0  0  0  0
    1.3218    8.7404   13.0312 H   0  0  0  0  0  0  0  0  0  0  0  0
    0.8087    9.4807   11.4770 H   0  0  0  0  0  0  0  0  0  0  0  0
    1.9402    8.0856   11.4770 H   0  0  0  0  0  0  0  0  0  0  0  0
  1  2  1  0
  1  3  1  0
  2  7  1  0
  3  4  1  0
  4  5  2  0
  4  6  1  0
  7  8  2  0
  7  9  1  1
  7 10  1  0
 10 11  1  0
 11 12  1  6
 11 13  2  0
 11 14  1  0
  1 15  1  0
  1 16  1  0
  3 17  1  0
  3 18  1  0
  5 19  1  0
  5 20  1  0
  6 21  1  0
  6 22  1  0
  6 23  1  0
M  CHG  3   9  -1  12  -1  14  -1
M  END
>  <filename_input>  (10) 
7MY1_IPE_docked.sdf

>  <pdb_id>  (10) 
7MY1_IPE

>  <pose_rank>  (10) 
9

>  <num_atoms_heavy>  (10) 
14

>  <num_torsions>  (10) 
6

>  <pose>  (10) 
[6.628810788959883, 10.303749252798614, 15.10989993246905, -4.199736083193136, -3.957271768936507, -0.591300630819462, -7.536713112714022, 1.1082754101189212, -1.8959910497633696, 3.361946469468302, -6.259724163630546, -4.431351817116651]

>  <energy>  (10) 
-383.3332937489038

>  <inter_energy>  (10) 
-380.47876785112766

>  <intra_energy>  (10) 
1.2025674825789057

>  <rmsd>  (10) 
4.04002

>  <sdf_rank>  (10) 
0

$$$$

     RDKit          3D

 23 22  0  0  0  0  0  0  0  0999 V2000
    3.6938   14.7064   17.4175 C   0  0  0  0  0  0  0  0  0  0  0  0
    4.5263   14.0675   16.4225 O   0  0  0  0  0  0  0  0  0  0  0  0
    4.1771   16.1124   17.6058 C   0  0  0  0  0  0  0  0  0  0  0  0
    4.8313   16.7068   16.3831 C   0  0  0  0  0  0  0  0  0  0  0  0
    6.0122   17.3033   16.4575 C   0  0  0  0  0  0  0  0  0  0  0  0
    4.0752   16.5402   15.0812 C   0  0  0  0  0  0  0  0  0  0  0  0
    5.3244   12.7182   16.7812 P   0  0  1  0  0  0  0  0  0  0  0  0
    4.4331   11.7282   17.4577 O   0  0  0  0  0  0  0  0  0  0  0  0
    6.0102   12.3057   15.5227 O   0  0  0  0  0  0  0  0  0  0  0  0
    6.4534   13.2264   17.8218 O   0  0  0  0  0  0  0  0  0  0  0  0
    8.0178   12.7914   17.9702 P   0  0  1  0  0  0  0  0  0  0  0  0
    8.0507   11.2704   18.0708 O   0  0  0  0  0  0  0  0  0  0  0  0
    8.7346   13.2956   16.7101 O   0  0  0  0  0  0  0  0  0  0  0  0
    8.4695   13.5028   19.2346 O   0  0  0  0  0  0  0  0  0  0  0  0
    2.6479   14.7154   17.0767 H   0  0  0  0  0  0  0  0  0  0  0  0
    3.7511   14.1562   18.3683 H   0  0  0  0  0  0  0  0  0  0  0  0
    3.3157   16.7406   17.8768 H   0  0  0  0  0  0  0  0  0  0  0  0
    4.9443   16.0817   18.3934 H   0  0  0  0  0  0  0  0  0  0  0  0
    6.4709   17.7298   15.5533 H   0  0  0  0  0  0  0  0  0  0  0  0
    6.5338   17.3718   17.4235 H   0  0  0  0  0  0  0  0  0  0  0  0
    3.0217   16.3081   15.2961 H   0  0  0  0  0  0  0  0  0  0  0  0
    4.1342   17.4729   14.5010 H   0  0  0  0  0  0  0  0  0  0  0  0
    4.5207   15.7187   14.5010 H   0  0  0  0  0  0  0  0  0  0  0  0
  1  2  1  0
  1  3  1  0
  2  7  1  0
  3  4  1  0
  4  5  2  0
  4  6  1  0
  7  8  2  0
  7  9  1  6
  7 10  1  0
 10 11  1  0
 11 12  1  1
 11 13  2  0
 11 14  1  0
  1 15  1  0
  1 16  1  0
  3 17  1  0
  3 18  1  0
  5 19  1  0
  5 20  1  0
  6 21  1  0
  6 22  1  0
  6 23  1  0
M  CHG  3   9  -1  12  -1  14  -1
M  END
>  <filename_input>  (11) 
7MY1_IPE_docked.sdf

>  <pdb_id>  (11) 
7MY1_IPE

>  <pose_rank>  (11) 
10

>  <num_atoms_heavy>  (11) 
14

>  <num_torsions>  (11) 
6

>  <pose>  (11) 
[5.3244251468895545, 12.71815452764041, 16.781163602934733, 2.3408897041474286, 0.27477687956704866, 0.7458585512438948, -0.9295299074163295, -1.304600421954572, -4.84136392546099, -4.592354816736683, 1.1114731489978413, 2.3143005783106494]

>  <energy>  (11) 
-132.14469972207536

>  <inter_energy>  (11) 
-150.54822768786977

>  <intra_energy>  (11) 
19.112061692791837

>  <rmsd>  (11) 
5.34702

>  <sdf_rank>  (11) 
0

$$$$

     RDKit          3D

 23 22  0  0  0  0  0  0  0  0999 V2000
    4.5368   11.6200   15.3344 C   0  0  0  0  0  0  0  0  0  0  0  0
    5.8167   11.6795   16.0050 O   0  0  0  0  0  0  0  0  0  0  0  0
    4.7004   10.8263   14.0737 C   0  0  0  0  0  0  0  0  0  0  0  0
    4.3759   11.5950   12.8166 C   0  0  0  0  0  0  0  0  0  0  0  0
    3.6284   11.0634   11.8604 C   0  0  0  0  0  0  0  0  0  0  0  0
    4.9211   13.0063   12.7448 C   0  0  0  0  0  0  0  0  0  0  0  0
    6.1404   12.8801   17.0248 P   0  0  1  0  0  0  0  0  0  0  0  0
    5.3572   14.1052   16.6813 O   0  0  0  0  0  0  0  0  0  0  0  0
    5.9863   12.3042   18.3918 O   0  0  0  0  0  0  0  0  0  0  0  0
    7.7139   13.1585   16.7745 O   0  0  0  0  0  0  0  0  0  0  0  0
    8.7752   12.3914   15.8030 P   0  0  1  0  0  0  0  0  0  0  0  0
   10.1310   13.0578   16.0084 O   0  0  0  0  0  0  0  0  0  0  0  0
    8.7894   10.9211   16.2436 O   0  0  0  0  0  0  0  0  0  0  0  0
    8.1955   12.5885   14.4123 O   0  0  0  0  0  0  0  0  0  0  0  0
    3.7976   11.1326   15.9871 H   0  0  0  0  0  0  0  0  0  0  0  0
    4.1857   12.6355   15.0990 H   0  0  0  0  0  0  0  0  0  0  0  0
    5.7450   10.4875   14.0117 H   0  0  0  0  0  0  0  0  0  0  0  0
    3.9861    9.9916   14.1290 H   0  0  0  0  0  0  0  0  0  0  0  0
    3.4042   11.6418   10.9520 H   0  0  0  0  0  0  0  0  0  0  0  0
    3.2320   10.0437   11.9749 H   0  0  0  0  0  0  0  0  0  0  0  0
    5.0708   13.3938   13.7633 H   0  0  0  0  0  0  0  0  0  0  0  0
    5.8820   13.0014   12.2095 H   0  0  0  0  0  0  0  0  0  0  0  0
    4.2064   13.6487   12.2095 H   0  0  0  0  0  0  0  0  0  0  0  0
  1  2  1  0
  1  3  1  0
  2  7  1  0
  3  4  1  0
  4  5  2  0
  4  6  1  0
  7  8  2  0
  7  9  1  1
  7 10  1  0
 10 11  1  0
 11 12  1  6
 11 13  2  0
 11 14  1  0
  1 15  1  0
  1 16  1  0
  3 17  1  0
  3 18  1  0
  5 19  1  0
  5 20  1  0
  6 21  1  0
  6 22  1  0
  6 23  1  0
M  CHG  3   9  -1  12  -1  14  -1
M  END
>  <filename_input>  (12) 
7MY1_IPE_docked.sdf

>  <pdb_id>  (12) 
7MY1_IPE

>  <pose_rank>  (12) 
11

>  <num_atoms_heavy>  (12) 
14

>  <num_torsions>  (12) 
6

>  <pose>  (12) 
[6.140443781804786, 12.880122608291193, 17.024791438471425, -6.018018524987844, -0.2883447095702056, 1.5642528908546098, -2.2309488323874174, -0.7228151364719354, 5.141539145152983, 1.619406585424645, -2.772361239573976, -6.161692566393934]

>  <energy>  (12) 
-243.6480745961533

>  <inter_energy>  (12) 
-251.8806338161163

>  <intra_energy>  (12) 
7.839147627609783

>  <rmsd>  (12) 
3.5791

>  <sdf_rank>  (12) 
0

$$$$

     RDKit          3D

 23 22  0  0  0  0  0  0  0  0999 V2000
    3.9575   13.3564   14.9715 C   0  0  0  0  0  0  0  0  0  0  0  0
    3.7938   11.9298   14.8008 O   0  0  0  0  0  0  0  0  0  0  0  0
    3.9269   13.6634   16.4380 C   0  0  0  0  0  0  0  0  0  0  0  0
    4.2904   15.0883   16.7758 C   0  0  0  0  0  0  0  0  0  0  0  0
    3.3951   15.9241   17.2812 C   0  0  0  0  0  0  0  0  0  0  0  0
    5.7353   15.4764   16.5387 C   0  0  0  0  0  0  0  0  0  0  0  0
    4.7031   11.1324   13.7408 P   0  0  1  0  0  0  0  0  0  0  0  0
    4.6243    9.6573   13.9649 O   0  0  0  0  0  0  0  0  0  0  0  0
    4.3236   11.6637   12.3999 O   0  0  0  0  0  0  0  0  0  0  0  0
    6.1978   11.6499   14.0785 O   0  0  0  0  0  0  0  0  0  0  0  0
    7.2059   11.2316   15.2898 P   0  0  1  0  0  0  0  0  0  0  0  0
    6.3447   10.9920   16.5249 O   0  0  0  0  0  0  0  0  0  0  0  0
    7.9259    9.9531   14.8393 O   0  0  0  0  0  0  0  0  0  0  0  0
    8.1373   12.4262   15.4098 O   0  0  0  0  0  0  0  0  0  0  0  0
    4.9208   13.6735   14.5455 H   0  0  0  0  0  0  0  0  0  0  0  0
    3.1484   13.8943   14.4556 H   0  0  0  0  0  0  0  0  0  0  0  0
    2.9105   13.4684   16.8108 H   0  0  0  0  0  0  0  0  0  0  0  0
    4.6835   13.0215   16.9128 H   0  0  0  0  0  0  0  0  0  0  0  0
    3.6820   16.9588   17.5202 H   0  0  0  0  0  0  0  0  0  0  0  0
    2.3650   15.5832   17.4619 H   0  0  0  0  0  0  0  0  0  0  0  0
    6.2418   15.6124   17.5056 H   0  0  0  0  0  0  0  0  0  0  0  0
    6.2396   14.6818   15.9692 H   0  0  0  0  0  0  0  0  0  0  0  0
    5.7737   16.4166   15.9692 H   0  0  0  0  0  0  0  0  0  0  0  0
  1  2  1  0
  1  3  1  0
  2  7  1  0
  3  4  1  0
  4  5  2  0
  4  6  1  0
  7  8  2  0
  7  9  1  6
  7 10  1  0
 10 11  1  0
 11 12  1  1
 11 13  2  0
 11 14  1  0
  1 15  1  0
  1 16  1  0
  3 17  1  0
  3 18  1  0
  5 19  1  0
  5 20  1  0
  6 21  1  0
  6 22  1  0
  6 23  1  0
M  CHG  3   9  -1  12  -1  14  -1
M  END
>  <filename_input>  (13) 
7MY1_IPE_docked.sdf

>  <pdb_id>  (13) 
7MY1_IPE

>  <pose_rank>  (13) 
12

>  <num_atoms_heavy>  (13) 
14

>  <num_torsions>  (13) 
6

>  <pose>  (13) 
[4.7030980659238235, 11.13236466334345, 13.74075498479939, 3.1484863954150044, 0.8663422179950161, 0.062454060018473076, 1.1303728812487817, 0.45028741759957597, -2.3470268700342105, -0.3453713511873553, 4.919298860575918, -3.6794096199549604]

>  <energy>  (13) 
-234.97064738952565

>  <inter_energy>  (13) 
-234.495779153864

>  <intra_energy>  (13) 
1.3676460697922062

>  <rmsd>  (13) 
4.97938

>  <sdf_rank>  (13) 
0

$$$$

     RDKit          3D

 23 22  0  0  0  0  0  0  0  0999 V2000
    4.8847   12.5683   13.2289 C   0  0  0  0  0  0  0  0  0  0  0  0
    5.2520   12.8871   14.5908 O   0  0  0  0  0  0  0  0  0  0  0  0
    3.5693   11.8507   13.2499 C   0  0  0  0  0  0  0  0  0  0  0  0
    3.3549   10.9251   12.0778 C   0  0  0  0  0  0  0  0  0  0  0  0
    3.2913   11.3897   10.8385 C   0  0  0  0  0  0  0  0  0  0  0  0
    3.2602    9.4499   12.4084 C   0  0  0  0  0  0  0  0  0  0  0  0
    6.7889   13.1731   14.9682 P   0  0  1  0  0  0  0  0  0  0  0  0
    7.6392   13.2534   13.7423 O   0  0  0  0  0  0  0  0  0  0  0  0
    6.7689   14.3445   15.8911 O   0  0  0  0  0  0  0  0  0  0  0  0
    7.2038   11.8672   15.8275 O   0  0  0  0  0  0  0  0  0  0  0  0
    6.5411   10.3778   15.8617 P   0  0  1  0  0  0  0  0  0  0  0  0
    7.6146    9.4229   16.3718 O   0  0  0  0  0  0  0  0  0  0  0  0
    5.3429   10.4529   16.8181 O   0  0  0  0  0  0  0  0  0  0  0  0
    6.1337   10.1333   14.4184 O   0  0  0  0  0  0  0  0  0  0  0  0
    4.7935   13.4943   12.6422 H   0  0  0  0  0  0  0  0  0  0  0  0
    5.6551   11.9324   12.7684 H   0  0  0  0  0  0  0  0  0  0  0  0
    3.5144   11.2565   14.1740 H   0  0  0  0  0  0  0  0  0  0  0  0
    2.7862   12.6211   13.1937 H   0  0  0  0  0  0  0  0  0  0  0  0
    3.1343   10.6968    9.9987 H   0  0  0  0  0  0  0  0  0  0  0  0
    3.3956   12.4683   10.6495 H   0  0  0  0  0  0  0  0  0  0  0  0
    3.2517    9.3187   13.5005 H   0  0  0  0  0  0  0  0  0  0  0  0
    2.3337    9.0374   11.9824 H   0  0  0  0  0  0  0  0  0  0  0  0
    4.1263    8.9223   11.9824 H   0  0  0  0  0  0  0  0  0  0  0  0
  1  2  1  0
  1  3  1  0
  2  7  1  0
  3  4  1  0
  4  5  2  0
  4  6  1  0
  7  8  2  0
  7  9  1  1
  7 10  1  0
 10 11  1  0
 11 12  1  1
 11 13  2  0
 11 14  1  0
  1 15  1  0
  1 16  1  0
  3 17  1  0
  3 18  1  0
  5 19  1  0
  5 20  1  0
  6 21  1  0
  6 22  1  0
  6 23  1  0
M  CHG  3   9  -1  12  -1  14  -1
M  END
>  <filename_input>  (14) 
7MY1_IPE_docked.sdf

>  <pdb_id>  (14) 
7MY1_IPE

>  <pose_rank>  (14) 
13

>  <num_atoms_heavy>  (14) 
14

>  <num_torsions>  (14) 
6

>  <pose>  (14) 
[6.788923693802275, 13.173115671322327, 14.968220461068872, -0.9412424315882034, -0.33816071117555707, -1.4500703088904827, 4.66646665360944, -0.6793656896722466, -1.7314463505367719, 2.8599330563850485, -2.340056030076931, -0.3037069758918491]

>  <energy>  (14) 
-276.17400679694833

>  <inter_energy>  (14) 
-300.0012503738784

>  <intra_energy>  (14) 
23.14977131256871

>  <rmsd>  (14) 
4.01677

>  <sdf_rank>  (14) 
0

$$$$

     RDKit          3D

 23 22  0  0  0  0  0  0  0  0999 V2000
    3.9151   11.9088   13.7110 C   0  0  0  0  0  0  0  0  0  0  0  0
    3.3549   10.5956   13.4812 O   0  0  0  0  0  0  0  0  0  0  0  0
    4.8753   11.8188   14.8581 C   0  0  0  0  0  0  0  0  0  0  0  0
    5.5108   13.1350   15.2330 C   0  0  0  0  0  0  0  0  0  0  0  0
    5.1519   13.7825   16.3318 C   0  0  0  0  0  0  0  0  0  0  0  0
    6.5970   13.6338   14.3026 C   0  0  0  0  0  0  0  0  0  0  0  0
    2.8625   10.1724   12.0099 P   0  0  1  0  0  0  0  0  0  0  0  0
    1.3840   10.3349   11.8687 O   0  0  0  0  0  0  0  0  0  0  0  0
    3.7470   10.9060   11.0593 O   0  0  0  0  0  0  0  0  0  0  0  0
    3.2418    8.6020   11.9347 O   0  0  0  0  0  0  0  0  0  0  0  0
    4.2781    7.7268   12.8396 P   0  0  1  0  0  0  0  0  0  0  0  0
    4.7059    6.5302   11.9972 O   0  0  0  0  0  0  0  0  0  0  0  0
    5.4619    8.6481   13.1650 O   0  0  0  0  0  0  0  0  0  0  0  0
    3.4597    7.3570   14.0653 O   0  0  0  0  0  0  0  0  0  0  0  0
    4.4446   12.2499   12.8092 H   0  0  0  0  0  0  0  0  0  0  0  0
    3.1143   12.6262   13.9435 H   0  0  0  0  0  0  0  0  0  0  0  0
    4.3319   11.4354   15.7344 H   0  0  0  0  0  0  0  0  0  0  0  0
    5.6899   11.1522   14.5389 H   0  0  0  0  0  0  0  0  0  0  0  0
    5.6285   14.7408   16.5859 H   0  0  0  0  0  0  0  0  0  0  0  0
    4.3774   13.3618   16.9900 H   0  0  0  0  0  0  0  0  0  0  0  0
    7.4389   14.0204   14.8958 H   0  0  0  0  0  0  0  0  0  0  0  0
    6.9454   12.8054   13.6682 H   0  0  0  0  0  0  0  0  0  0  0  0
    6.1957   14.4378   13.6682 H   0  0  0  0  0  0  0  0  0  0  0  0
  1  2  1  0
  1  3  1  0
  2  7  1  0
  3  4  1  0
  4  5  2  0
  4  6  1  0
  7  8  2  0
  7  9  1  6
  7 10  1  0
 10 11  1  0
 11 12  1  6
 11 13  2  0
 11 14  1  0
  1 15  1  0
  1 16  1  0
  3 17  1  0
  3 18  1  0
  5 19  1  0
  5 20  1  0
  6 21  1  0
  6 22  1  0
  6 23  1  0
M  CHG  3   9  -1  12  -1  14  -1
M  END
>  <filename_input>  (15) 
7MY1_IPE_docked.sdf

>  <pdb_id>  (15) 
7MY1_IPE

>  <pose_rank>  (15) 
14

>  <num_atoms_heavy>  (15) 
14

>  <num_torsions>  (15) 
6

>  <pose>  (15) 
[2.862461317981324, 10.172408787517123, 12.00991055327217, -2.2341427409095735, 1.407432795578222, -0.24497037363406476, -3.4778901555521085, -6.089700231839934, -2.169871380490222, -0.46019958231789926, -3.0405443382137682, 6.801927383548998]

>  <energy>  (15) 
-326.16059583389614

>  <inter_energy>  (15) 
-328.1137314481682

>  <intra_energy>  (15) 
8.253187928132034

>  <rmsd>  (15) 
6.45218

>  <sdf_rank>  (15) 
0

$$$$

     RDKit          3D

 23 22  0  0  0  0  0  0  0  0999 V2000
    5.5848   10.8384   15.8534 C   0  0  0  0  0  0  0  0  0  0  0  0
    4.7255   11.5702   14.9495 O   0  0  0  0  0  0  0  0  0  0  0  0
    6.6478   11.7694   16.3526 C   0  0  0  0  0  0  0  0  0  0  0  0
    7.9960   11.1189   16.5415 C   0  0  0  0  0  0  0  0  0  0  0  0
    9.1180   11.7832   16.3061 C   0  0  0  0  0  0  0  0  0  0  0  0
    7.9767    9.6919   17.0494 C   0  0  0  0  0  0  0  0  0  0  0  0
    4.6253   11.1407   13.4030 P   0  0  1  0  0  0  0  0  0  0  0  0
    5.0743   12.2478   12.5058 O   0  0  0  0  0  0  0  0  0  0  0  0
    5.3194    9.8246   13.3016 O   0  0  0  0  0  0  0  0  0  0  0  0
    3.0414   10.8874   13.1954 O   0  0  0  0  0  0  0  0  0  0  0  0
    2.2560   10.0186   12.0610 P   0  0  1  0  0  0  0  0  0  0  0  0
    2.9077    8.6407   12.0232 O   0  0  0  0  0  0  0  0  0  0  0  0
    0.7884    9.9437   12.5041 O   0  0  0  0  0  0  0  0  0  0  0  0
    2.4515   10.8282   10.7901 O   0  0  0  0  0  0  0  0  0  0  0  0
    4.9954   10.4588   16.7010 H   0  0  0  0  0  0  0  0  0  0  0  0
    6.0437    9.9856   15.3317 H   0  0  0  0  0  0  0  0  0  0  0  0
    6.7580   12.5889   15.6271 H   0  0  0  0  0  0  0  0  0  0  0  0
    6.3229   12.1205   17.3432 H   0  0  0  0  0  0  0  0  0  0  0  0
   10.0902   11.2892   16.4504 H   0  0  0  0  0  0  0  0  0  0  0  0
    9.0773   12.8286   15.9664 H   0  0  0  0  0  0  0  0  0  0  0  0
    7.9767    9.6942   18.1494 H   0  0  0  0  0  0  0  0  0  0  0  0
    7.0716    9.1848   16.6837 H   0  0  0  0  0  0  0  0  0  0  0  0
    8.8677    9.1605   16.6837 H   0  0  0  0  0  0  0  0  0  0  0  0
  1  2  1  0
  1  3  1  0
  2  7  1  0
  3  4  1  0
  4  5  2  0
  4  6  1  0
  7  8  2  0
  7  9  1  1
  7 10  1  0
 10 11  1  0
 11 12  1  6
 11 13  2  0
 11 14  1  0
  1 15  1  0
  1 16  1  0
  3 17  1  0
  3 18  1  0
  5 19  1  0
  5 20  1  0
  6 21  1  0
  6 22  1  0
  6 23  1  0
M  CHG  3   9  -1  12  -1  14  -1
M  END
>  <filename_input>  (16) 
7MY1_IPE_docked.sdf

>  <pdb_id>  (16) 
7MY1_IPE

>  <pose_rank>  (16) 
15

>  <num_atoms_heavy>  (16) 
14

>  <num_torsions>  (16) 
6

>  <pose>  (16) 
[4.625272262753933, 11.140657480191726, 13.402956395570397, -0.4401519760863921, 2.4121748335851083, -1.5617022791767492, 2.4470684066449264, -1.4010026583911337, -1.564395044415329, 0.2175711023762708, 0.7873251397377657, 4.116816635561859]

>  <energy>  (16) 
-314.0810602785586

>  <inter_energy>  (16) 
-304.2287090613063

>  <intra_energy>  (16) 
5.4146166621193705

>  <rmsd>  (16) 
6.21074

>  <sdf_rank>  (16) 
0

$$$$

     RDKit          3D

 23 22  0  0  0  0  0  0  0  0999 V2000
    4.5303   10.2587   15.0603 C   0  0  0  0  0  0  0  0  0  0  0  0
    4.7932    8.9246   14.5682 O   0  0  0  0  0  0  0  0  0  0  0  0
    5.6974   10.6933   15.8940 C   0  0  0  0  0  0  0  0  0  0  0  0
    6.0961   12.1342   15.6903 C   0  0  0  0  0  0  0  0  0  0  0  0
    7.2648   12.4541   15.1543 C   0  0  0  0  0  0  0  0  0  0  0  0
    5.0673   13.1690   16.0968 C   0  0  0  0  0  0  0  0  0  0  0  0
    4.3376    8.5056   13.0839 P   0  0  1  0  0  0  0  0  0  0  0  0
    5.3568    7.6267   12.4350 O   0  0  0  0  0  0  0  0  0  0  0  0
    2.9442    7.9909   13.2172 O   0  0  0  0  0  0  0  0  0  0  0  0
    4.2745    9.9226   12.3068 O   0  0  0  0  0  0  0  0  0  0  0  0
    2.9916   10.7531   11.7385 P   0  0  1  0  0  0  0  0  0  0  0  0
    2.0362   10.9553   12.9095 O   0  0  0  0  0  0  0  0  0  0  0  0
    3.5334   12.0873   11.2072 O   0  0  0  0  0  0  0  0  0  0  0  0
    2.4415    9.8570   10.6416 O   0  0  0  0  0  0  0  0  0  0  0  0
    4.4013   10.9485   14.2133 H   0  0  0  0  0  0  0  0  0  0  0  0
    3.6110   10.2646   15.6644 H   0  0  0  0  0  0  0  0  0  0  0  0
    5.4366   10.5533   16.9534 H   0  0  0  0  0  0  0  0  0  0  0  0
    6.5557   10.0793   15.5836 H   0  0  0  0  0  0  0  0  0  0  0  0
    7.5351   13.5113   15.0150 H   0  0  0  0  0  0  0  0  0  0  0  0
    7.9648   11.6626   14.8487 H   0  0  0  0  0  0  0  0  0  0  0  0
    5.0145   13.2222   17.1942 H   0  0  0  0  0  0  0  0  0  0  0  0
    5.3572   14.1514   15.6957 H   0  0  0  0  0  0  0  0  0  0  0  0
    4.0833   12.8850   15.6957 H   0  0  0  0  0  0  0  0  0  0  0  0
  1  2  1  0
  1  3  1  0
  2  7  1  0
  3  4  1  0
  4  5  2  0
  4  6  1  0
  7  8  2  0
  7  9  1  1
  7 10  1  0
 10 11  1  0
 11 12  1  1
 11 13  2  0
 11 14  1  0
  1 15  1  0
  1 16  1  0
  3 17  1  0
  3 18  1  0
  5 19  1  0
  5 20  1  0
  6 21  1  0
  6 22  1  0
  6 23  1  0
M  CHG  3   9  -1  12  -1  14  -1
M  END
>  <filename_input>  (17) 
7MY1_IPE_docked.sdf

>  <pdb_id>  (17) 
7MY1_IPE

>  <pose_rank>  (17) 
16

>  <num_atoms_heavy>  (17) 
14

>  <num_torsions>  (17) 
6

>  <pose>  (17) 
[4.337592293754767, 8.505569973124672, 13.083891672434918, -1.552412841938157, -1.5390808623266683, 1.5453161659753396, 6.997180023785036, 6.636337046651939, -2.9044934808188203, -4.311383776031315, 7.91032173625066, 4.194838898898588]

>  <energy>  (17) 
-311.0312745182442

>  <inter_energy>  (17) 
-319.19126404408445

>  <intra_energy>  (17) 
7.843161624593349

>  <rmsd>  (17) 
6.10429

>  <sdf_rank>  (17) 
0

$$$$

     RDKit          3D

 23 22  0  0  0  0  0  0  0  0999 V2000
    4.7253   11.7021   13.8743 C   0  0  0  0  0  0  0  0  0  0  0  0
    5.5955   12.2010   14.9160 O   0  0  0  0  0  0  0  0  0  0  0  0
    4.4045   10.2689   14.1726 C   0  0  0  0  0  0  0  0  0  0  0  0
    3.3991    9.6546   13.2300 C   0  0  0  0  0  0  0  0  0  0  0  0
    2.4200   10.3764   12.7048 C   0  0  0  0  0  0  0  0  0  0  0  0
    3.6092    8.1911   12.9009 C   0  0  0  0  0  0  0  0  0  0  0  0
    6.7525   13.2612   14.5646 P   0  0  1  0  0  0  0  0  0  0  0  0
    8.1061   12.6384   14.6751 O   0  0  0  0  0  0  0  0  0  0  0  0
    6.3610   13.8722   13.2617 O   0  0  0  0  0  0  0  0  0  0  0  0
    6.5807   14.3850   15.7150 O   0  0  0  0  0  0  0  0  0  0  0  0
    7.1533   15.9099   15.7882 P   0  0  1  0  0  0  0  0  0  0  0  0
    8.5238   15.9048   15.1201 O   0  0  0  0  0  0  0  0  0  0  0  0
    6.1517   16.7912   15.0292 O   0  0  0  0  0  0  0  0  0  0  0  0
    7.1947   16.2064   17.2779 O   0  0  0  0  0  0  0  0  0  0  0  0
    3.7979   12.2931   13.8500 H   0  0  0  0  0  0  0  0  0  0  0  0
    5.2217   11.7827   12.8960 H   0  0  0  0  0  0  0  0  0  0  0  0
    5.3357    9.6865   14.1122 H   0  0  0  0  0  0  0  0  0  0  0  0
    3.9543   10.2464   15.1760 H   0  0  0  0  0  0  0  0  0  0  0  0
    1.6979    9.9080   12.0198 H   0  0  0  0  0  0  0  0  0  0  0  0
    2.3291   11.4440   12.9538 H   0  0  0  0  0  0  0  0  0  0  0  0
    3.6920    7.6137   13.8335 H   0  0  0  0  0  0  0  0  0  0  0  0
    2.7549    7.8207   12.3151 H   0  0  0  0  0  0  0  0  0  0  0  0
    4.5330    8.0759   12.3151 H   0  0  0  0  0  0  0  0  0  0  0  0
  1  2  1  0
  1  3  1  0
  2  7  1  0
  3  4  1  0
  4  5  2  0
  4  6  1  0
  7  8  2  0
  7  9  1  6
  7 10  1  0
 10 11  1  0
 11 12  1  6
 11 13  2  0
 11 14  1  0
  1 15  1  0
  1 16  1  0
  3 17  1  0
  3 18  1  0
  5 19  1  0
  5 20  1  0
  6 21  1  0
  6 22  1  0
  6 23  1  0
M  CHG  3   9  -1  12  -1  14  -1
M  END
>  <filename_input>  (18) 
7MY1_IPE_docked.sdf

>  <pdb_id>  (18) 
7MY1_IPE

>  <pose_rank>  (18) 
17

>  <num_atoms_heavy>  (18) 
14

>  <num_torsions>  (18) 
6

>  <pose>  (18) 
[6.752494641767261, 13.261203536475225, 14.564612221938281, 2.037520071291731, 2.6843987545212142, 0.9223353723950067, -9.959571450242523, -19.76646892751959, 3.9939697159672347, -2.8981738997243864, 0.7121326381084719, -9.947660959053701]

>  <energy>  (18) 
-276.5122730936165

>  <inter_energy>  (18) 
-275.24019154578934

>  <intra_energy>  (18) 
0.17807039484247952

>  <rmsd>  (18) 
2.30643

>  <sdf_rank>  (18) 
0

$$$$

     RDKit          3D

 23 22  0  0  0  0  0  0  0  0999 V2000
    3.5577   11.7971   13.8080 C   0  0  0  0  0  0  0  0  0  0  0  0
    4.1966   13.0410   14.1763 O   0  0  0  0  0  0  0  0  0  0  0  0
    2.5894   12.0738   12.6982 C   0  0  0  0  0  0  0  0  0  0  0  0
    2.4210   10.9294   11.7294 C   0  0  0  0  0  0  0  0  0  0  0  0
    2.5501    9.6711   12.1238 C   0  0  0  0  0  0  0  0  0  0  0  0
    2.0599   11.3127   10.3091 C   0  0  0  0  0  0  0  0  0  0  0  0
    4.5362   13.3506   15.7175 P   0  0  1  0  0  0  0  0  0  0  0  0
    4.0854   14.7216   16.1040 O   0  0  0  0  0  0  0  0  0  0  0  0
    4.0078   12.1899   16.4905 O   0  0  0  0  0  0  0  0  0  0  0  0
    6.1517   13.2833   15.7569 O   0  0  0  0  0  0  0  0  0  0  0  0
    7.1561   12.0170   15.5420 P   0  0  1  0  0  0  0  0  0  0  0  0
    6.4891   10.8044   16.1817 O   0  0  0  0  0  0  0  0  0  0  0  0
    7.3239   11.8427   14.0263 O   0  0  0  0  0  0  0  0  0  0  0  0
    8.4364   12.4533   16.2344 O   0  0  0  0  0  0  0  0  0  0  0  0
    4.3160   11.0762   13.4685 H   0  0  0  0  0  0  0  0  0  0  0  0
    3.0289   11.3726   14.6742 H   0  0  0  0  0  0  0  0  0  0  0  0
    1.6085   12.2973   13.1430 H   0  0  0  0  0  0  0  0  0  0  0  0
    2.9974   12.9187   12.1239 H   0  0  0  0  0  0  0  0  0  0  0  0
    2.4231    8.8521   11.4005 H   0  0  0  0  0  0  0  0  0  0  0  0
    2.7844    9.4454   13.1746 H   0  0  0  0  0  0  0  0  0  0  0  0
    1.3058   12.1133   10.3258 H   0  0  0  0  0  0  0  0  0  0  0  0
    2.9597   11.6673    9.7851 H   0  0  0  0  0  0  0  0  0  0  0  0
    1.6521   10.4357    9.7851 H   0  0  0  0  0  0  0  0  0  0  0  0
  1  2  1  0
  1  3  1  0
  2  7  1  0
  3  4  1  0
  4  5  2  0
  4  6  1  0
  7  8  2  0
  7  9  1  1
  7 10  1  0
 10 11  1  0
 11 12  1  1
 11 13  2  0
 11 14  1  0
  1 15  1  0
  1 16  1  0
  3 17  1  0
  3 18  1  0
  5 19  1  0
  5 20  1  0
  6 21  1  0
  6 22  1  0
  6 23  1  0
M  CHG  3   9  -1  12  -1  14  -1
M  END
>  <filename_input>  (19) 
7MY1_IPE_docked.sdf

>  <pdb_id>  (19) 
7MY1_IPE

>  <pose_rank>  (19) 
18

>  <num_atoms_heavy>  (19) 
14

>  <num_torsions>  (19) 
6

>  <pose>  (19) 
[4.5362174384819145, 13.350608984196892, 15.717505042659466, 0.6630642742335436, -0.13514101849641846, -0.25896942581346244, -4.065482194395302, -0.9526779661333934, -2.7513093005200786, -1.7779935902506032, 2.394549427143704, 2.581979158411154]

>  <energy>  (19) 
-304.46940120986056

>  <inter_energy>  (19) 
-311.3977874832589

>  <intra_energy>  (19) 
8.860734701091916

>  <rmsd>  (19) 
2.88578

>  <sdf_rank>  (19) 
0

$$$$

     RDKit          3D

 23 22  0  0  0  0  0  0  0  0999 V2000
    6.5200    9.7074   14.5890 C   0  0  0  0  0  0  0  0  0  0  0  0
    6.7455    9.0476   15.8559 O   0  0  0  0  0  0  0  0  0  0  0  0
    5.6972    8.8012   13.7242 C   0  0  0  0  0  0  0  0  0  0  0  0
    4.7103    9.5234   12.8405 C   0  0  0  0  0  0  0  0  0  0  0  0
    4.9748   10.7286   12.3575 C   0  0  0  0  0  0  0  0  0  0  0  0
    3.4367    8.7697   12.5174 C   0  0  0  0  0  0  0  0  0  0  0  0
    7.5956    9.7790   17.0086 P   0  0  1  0  0  0  0  0  0  0  0  0
    8.5070   10.8132   16.4325 O   0  0  0  0  0  0  0  0  0  0  0  0
    6.6025   10.2068   18.0357 O   0  0  0  0  0  0  0  0  0  0  0  0
    8.4747    8.5744   17.6350 O   0  0  0  0  0  0  0  0  0  0  0  0
   10.0923    8.3955   17.7337 P   0  0  1  0  0  0  0  0  0  0  0  0
   10.6063    8.1893   16.3131 O   0  0  0  0  0  0  0  0  0  0  0  0
   10.6392    9.6873   18.3565 O   0  0  0  0  0  0  0  0  0  0  0  0
   10.2648    7.1835   18.6337 O   0  0  0  0  0  0  0  0  0  0  0  0
    5.9828   10.6532   14.7529 H   0  0  0  0  0  0  0  0  0  0  0  0
    7.4809    9.9266   14.1004 H   0  0  0  0  0  0  0  0  0  0  0  0
    6.3786    8.2241   13.0817 H   0  0  0  0  0  0  0  0  0  0  0  0
    5.1100    8.1632   14.4010 H   0  0  0  0  0  0  0  0  0  0  0  0
    4.2408   11.2369   11.7151 H   0  0  0  0  0  0  0  0  0  0  0  0
    5.9285   11.2207   12.5990 H   0  0  0  0  0  0  0  0  0  0  0  0
    2.9381    8.4746   13.4524 H   0  0  0  0  0  0  0  0  0  0  0  0
    2.7662    9.4166   11.9325 H   0  0  0  0  0  0  0  0  0  0  0  0
    3.6811    7.8707   11.9325 H   0  0  0  0  0  0  0  0  0  0  0  0
  1  2  1  0
  1  3  1  0
  2  7  1  0
  3  4  1  0
  4  5  2  0
  4  6  1  0
  7  8  2  0
  7  9  1  1
  7 10  1  0
 10 11  1  0
 11 12  1  6
 11 13  2  0
 11 14  1  0
  1 15  1  0
  1 16  1  0
  3 17  1  0
  3 18  1  0
  5 19  1  0
  5 20  1  0
  6 21  1  0
  6 22  1  0
  6 23  1  0
M  CHG  3   9  -1  12  -1  14  -1
M  END
>  <filename_input>  (20) 
7MY1_IPE_docked.sdf

>  <pdb_id>  (20) 
7MY1_IPE

>  <pose_rank>  (20) 
19

>  <num_atoms_heavy>  (20) 
14

>  <num_torsions>  (20) 
6

>  <pose>  (20) 
[7.595596047115314, 9.778951783696693, 17.008648100264825, 0.6353342701138357, 2.342487020211158, 4.427141330650445, -2.1676830678150742, -0.2937612571890416, 3.4656659903381195, -1.7546728217670873, -6.909225452991712, 8.315384274014411]

>  <energy>  (20) 
-233.6530850686201

>  <inter_energy>  (20) 
-233.5031113859289

>  <intra_energy>  (20) 
3.0230538604985595

>  <rmsd>  (20) 
6.45997

>  <sdf_rank>  (20) 
0

$$$$

     RDKit          3D

 23 22  0  0  0  0  0  0  0  0999 V2000
    5.1002   10.6112   12.2414 C   0  0  0  0  0  0  0  0  0  0  0  0
    5.1994   11.5014   13.3767 O   0  0  0  0  0  0  0  0  0  0  0  0
    3.6913   10.6503   11.7320 C   0  0  0  0  0  0  0  0  0  0  0  0
    2.8291    9.5124   12.2199 C   0  0  0  0  0  0  0  0  0  0  0  0
    3.2924    8.2720   12.2694 C   0  0  0  0  0  0  0  0  0  0  0  0
    1.4355    9.8882   12.6793 C   0  0  0  0  0  0  0  0  0  0  0  0
    5.6722   13.0247   13.1712 P   0  0  1  0  0  0  0  0  0  0  0  0
    5.9532   13.3125   11.7323 O   0  0  0  0  0  0  0  0  0  0  0  0
    4.6579   13.8627   13.8734 O   0  0  0  0  0  0  0  0  0  0  0  0
    7.0504   13.0971   14.0145 O   0  0  0  0  0  0  0  0  0  0  0  0
    7.4094   12.5111   15.4931 P   0  0  1  0  0  0  0  0  0  0  0  0
    7.7388   11.0326   15.3197 O   0  0  0  0  0  0  0  0  0  0  0  0
    8.6186   13.3096   15.9995 O   0  0  0  0  0  0  0  0  0  0  0  0
    6.1473   12.7713   16.2982 O   0  0  0  0  0  0  0  0  0  0  0  0
    5.7906   10.9393   11.4504 H   0  0  0  0  0  0  0  0  0  0  0  0
    5.3660    9.5864   12.5401 H   0  0  0  0  0  0  0  0  0  0  0  0
    3.2324   11.5957   12.0570 H   0  0  0  0  0  0  0  0  0  0  0  0
    3.7468   10.5599   10.6371 H   0  0  0  0  0  0  0  0  0  0  0  0
    2.6463    7.4574   12.6286 H   0  0  0  0  0  0  0  0  0  0  0  0
    4.3231    8.0568   11.9513 H   0  0  0  0  0  0  0  0  0  0  0  0
    1.4018    9.8973   13.7788 H   0  0  0  0  0  0  0  0  0  0  0  0
    1.1801   10.8873   12.2964 H   0  0  0  0  0  0  0  0  0  0  0  0
    0.7124    9.1530   12.2964 H   0  0  0  0  0  0  0  0  0  0  0  0
  1  2  1  0
  1  3  1  0
  2  7  1  0
  3  4  1  0
  4  5  2  0
  4  6  1  0
  7  8  2  0
  7  9  1  1
  7 10  1  0
 10 11  1  0
 11 12  1  6
 11 13  2  0
 11 14  1  0
  1 15  1  0
  1 16  1  0
  3 17  1  0
  3 18  1  0
  5 19  1  0
  5 20  1  0
  6 21  1  0
  6 22  1  0
  6 23  1  0
M  CHG  3   9  -1  12  -1  14  -1
M  END
>  <filename_input>  (21) 
7MY1_IPE_docked.sdf

>  <pdb_id>  (21) 
7MY1_IPE

>  <pose_rank>  (21) 
20

>  <num_atoms_heavy>  (21) 
14

>  <num_torsions>  (21) 
6

>  <pose>  (21) 
[5.672227458169493, 13.024734402448372, 13.17116494108819, 3.7751303697962997, 3.090464494812381, 1.2552441625742279, -1.7560182458131952, 1.209538585603015, 5.516905701992279, -3.0566867308499366, 2.798317026400066, -1.628582033982499]

>  <energy>  (21) 
-301.1793123789981

>  <inter_energy>  (21) 
-302.4704607075299

>  <intra_energy>  (21) 
5.089569323557401

>  <rmsd>  (21) 
3.1033

>  <sdf_rank>  (21) 
0

$$$$

     RDKit          3D

 23 22  0  0  0  0  0  0  0  0999 V2000
    5.2653   13.8819   14.7351 C   0  0  0  0  0  0  0  0  0  0  0  0
    4.3507   13.4855   13.6876 O   0  0  0  0  0  0  0  0  0  0  0  0
    4.6177   13.6048   16.0578 C   0  0  0  0  0  0  0  0  0  0  0  0
    5.5939   13.4022   17.1903 C   0  0  0  0  0  0  0  0  0  0  0  0
    5.6280   14.2303   18.2240 C   0  0  0  0  0  0  0  0  0  0  0  0
    6.4878   12.1840   17.0832 C   0  0  0  0  0  0  0  0  0  0  0  0
    4.6664   12.1927   12.7846 P   0  0  1  0  0  0  0  0  0  0  0  0
    5.2317   12.5862   11.4587 O   0  0  0  0  0  0  0  0  0  0  0  0
    5.4667   11.2790   13.6498 O   0  0  0  0  0  0  0  0  0  0  0  0
    3.2068   11.5290   12.5728 O   0  0  0  0  0  0  0  0  0  0  0  0
    2.6616   10.0428   12.9635 P   0  0  1  0  0  0  0  0  0  0  0  0
    1.4453    9.7684   12.0861 O   0  0  0  0  0  0  0  0  0  0  0  0
    3.8079    9.0646   12.6720 O   0  0  0  0  0  0  0  0  0  0  0  0
    2.3406   10.1564   14.4443 O   0  0  0  0  0  0  0  0  0  0  0  0
    6.1990   13.3065   14.6507 H   0  0  0  0  0  0  0  0  0  0  0  0
    5.5007   14.9528   14.6463 H   0  0  0  0  0  0  0  0  0  0  0  0
    3.9680   14.4560   16.3097 H   0  0  0  0  0  0  0  0  0  0  0  0
    4.0597   12.6633   15.9472 H   0  0  0  0  0  0  0  0  0  0  0  0
    6.3480   14.0637   19.0388 H   0  0  0  0  0  0  0  0  0  0  0  0
    4.9362   15.0845   18.2675 H   0  0  0  0  0  0  0  0  0  0  0  0
    6.7476   11.8300   18.0917 H   0  0  0  0  0  0  0  0  0  0  0  0
    5.9583   11.3874   16.5400 H   0  0  0  0  0  0  0  0  0  0  0  0
    7.4066   12.4500   16.5400 H   0  0  0  0  0  0  0  0  0  0  0  0
  1  2  1  0
  1  3  1  0
  2  7  1  0
  3  4  1  0
  4  5  2  0
  4  6  1  0
  7  8  2  0
  7  9  1  1
  7 10  1  0
 10 11  1  0
 11 12  1  6
 11 13  2  0
 11 14  1  0
  1 15  1  0
  1 16  1  0
  3 17  1  0
  3 18  1  0
  5 19  1  0
  5 20  1  0
  6 21  1  0
  6 22  1  0
  6 23  1  0
M  CHG  3   9  -1  12  -1  14  -1
M  END
>  <filename_input>  (22) 
7MY1_IPE_docked.sdf

>  <pdb_id>  (22) 
7MY1_IPE

>  <pose_rank>  (22) 
21

>  <num_atoms_heavy>  (22) 
14

>  <num_torsions>  (22) 
6

>  <pose>  (22) 
[4.666395230322145, 12.192698064862737, 12.784575548138037, -0.536586676366053, 1.5937851012085713, -2.1990332136697277, -3.517739733555124, -5.352676870664964, -8.910257970987539, -6.564240312513051, 1.4465481347465738, 0.4642046538718866]

>  <energy>  (22) 
-290.86783685721383

>  <inter_energy>  (22) 
-297.18431330820465

>  <intra_energy>  (22) 
7.140702219183726

>  <rmsd>  (22) 
5.73596

>  <sdf_rank>  (22) 
0

$$$$

     RDKit          3D

 23 22  0  0  0  0  0  0  0  0999 V2000
    4.5950   11.0899   13.3658 C   0  0  0  0  0  0  0  0  0  0  0  0
    5.0888   10.6786   14.6612 O   0  0  0  0  0  0  0  0  0  0  0  0
    3.1001   10.9846   13.3747 C   0  0  0  0  0  0  0  0  0  0  0  0
    2.5256   10.2837   12.1684 C   0  0  0  0  0  0  0  0  0  0  0  0
    1.8298   10.9463   11.2559 C   0  0  0  0  0  0  0  0  0  0  0  0
    2.8300    8.8042   12.0555 C   0  0  0  0  0  0  0  0  0  0  0  0
    5.6509   11.7727   15.6972 P   0  0  1  0  0  0  0  0  0  0  0  0
    4.7678   12.9771   15.7413 O   0  0  0  0  0  0  0  0  0  0  0  0
    5.9028   11.0355   16.9689 O   0  0  0  0  0  0  0  0  0  0  0  0
    7.0824   12.1767   15.0620 O   0  0  0  0  0  0  0  0  0  0  0  0
    8.3085   13.0417   15.6999 P   0  0  1  0  0  0  0  0  0  0  0  0
    8.8824   12.2218   16.8501 O   0  0  0  0  0  0  0  0  0  0  0  0
    9.3339   13.2437   14.5757 O   0  0  0  0  0  0  0  0  0  0  0  0
    7.6444   14.3366   16.1370 O   0  0  0  0  0  0  0  0  0  0  0  0
    4.8930   12.1300   13.1675 H   0  0  0  0  0  0  0  0  0  0  0  0
    5.0147   10.4457   12.5791 H   0  0  0  0  0  0  0  0  0  0  0  0
    2.7982   10.4279   14.2742 H   0  0  0  0  0  0  0  0  0  0  0  0
    2.7091   12.0127   13.3609 H   0  0  0  0  0  0  0  0  0  0  0  0
    1.4200   10.4152   10.3841 H   0  0  0  0  0  0  0  0  0  0  0  0
    1.6619   12.0274   11.3703 H   0  0  0  0  0  0  0  0  0  0  0  0
    2.9193    8.3704   13.0624 H   0  0  0  0  0  0  0  0  0  0  0  0
    2.0162    8.3029   11.5111 H   0  0  0  0  0  0  0  0  0  0  0  0
    3.7757    8.6649   11.5111 H   0  0  0  0  0  0  0  0  0  0  0  0
  1  2  1  0
  1  3  1  0
  2  7  1  0
  3  4  1  0
  4  5  2  0
  4  6  1  0
  7  8  2  0
  7  9  1  1
  7 10  1  0
 10 11  1  0
 11 12  1  1
 11 13  2  0
 11 14  1  0
  1 15  1  0
  1 16  1  0
  3 17  1  0
  3 18  1  0
  5 19  1  0
  5 20  1  0
  6 21  1  0
  6 22  1  0
  6 23  1  0
M  CHG  3   9  -1  12  -1  14  -1
M  END
>  <filename_input>  (23) 
7MY1_IPE_docked.sdf

>  <pdb_id>  (23) 
7MY1_IPE

>  <pose_rank>  (23) 
22

>  <num_atoms_heavy>  (23) 
14

>  <num_torsions>  (23) 
6

>  <pose>  (23) 
[5.650877239763852, 11.772660747820956, 15.697239387021563, -3.111687314649651, -5.0475988924611634, -0.42755008412056855, -1.0034273244477145, 7.263970500475448, -7.6513120484792925, 8.320512128021212, -24.511015055667766, -8.166620891110192]

>  <energy>  (23) 
-355.5281483476598

>  <inter_energy>  (23) 
-352.1024671556797

>  <intra_energy>  (23) 
2.437837715301532

>  <rmsd>  (23) 
2.97091

>  <sdf_rank>  (23) 
0

$$$$

     RDKit          3D

 23 22  0  0  0  0  0  0  0  0999 V2000
    5.0846   13.1071   17.1797 C   0  0  0  0  0  0  0  0  0  0  0  0
    4.3941   12.6424   15.9972 O   0  0  0  0  0  0  0  0  0  0  0  0
    4.0649   13.6156   18.1532 C   0  0  0  0  0  0  0  0  0  0  0  0
    3.9792   15.1204   18.2241 C   0  0  0  0  0  0  0  0  0  0  0  0
    4.3287   15.8774   17.1944 C   0  0  0  0  0  0  0  0  0  0  0  0
    3.4364   15.6917   19.5177 C   0  0  0  0  0  0  0  0  0  0  0  0
    5.2003   11.8659   14.8424 P   0  0  1  0  0  0  0  0  0  0  0  0
    6.1769   12.7711   14.1648 O   0  0  0  0  0  0  0  0  0  0  0  0
    5.7165   10.6186   15.4764 O   0  0  0  0  0  0  0  0  0  0  0  0
    4.0361   11.4510   13.7991 O   0  0  0  0  0  0  0  0  0  0  0  0
    3.7563   10.0317   13.0468 P   0  0  1  0  0  0  0  0  0  0  0  0
    3.6391    8.9669   14.1317 O   0  0  0  0  0  0  0  0  0  0  0  0
    2.4445   10.1996   12.2678 O   0  0  0  0  0  0  0  0  0  0  0  0
    4.9656    9.8605   12.1428 O   0  0  0  0  0  0  0  0  0  0  0  0
    5.6480   12.2773   17.6313 H   0  0  0  0  0  0  0  0  0  0  0  0
    5.7886   13.9100   16.9155 H   0  0  0  0  0  0  0  0  0  0  0  0
    3.0797   13.2269   17.8563 H   0  0  0  0  0  0  0  0  0  0  0  0
    4.3757   13.2678   19.1494 H   0  0  0  0  0  0  0  0  0  0  0  0
    4.2582   16.9727   17.2681 H   0  0  0  0  0  0  0  0  0  0  0  0
    4.6894   15.4107   16.2660 H   0  0  0  0  0  0  0  0  0  0  0  0
    3.9150   15.1879   20.3704 H   0  0  0  0  0  0  0  0  0  0  0  0
    3.6512   16.7697   19.5611 H   0  0  0  0  0  0  0  0  0  0  0  0
    2.3489   15.5325   19.5611 H   0  0  0  0  0  0  0  0  0  0  0  0
  1  2  1  0
  1  3  1  0
  2  7  1  0
  3  4  1  0
  4  5  2  0
  4  6  1  0
  7  8  2  0
  7  9  1  1
  7 10  1  0
 10 11  1  0
 11 12  1  1
 11 13  2  0
 11 14  1  0
  1 15  1  0
  1 16  1  0
  3 17  1  0
  3 18  1  0
  5 19  1  0
  5 20  1  0
  6 21  1  0
  6 22  1  0
  6 23  1  0
M  CHG  3   9  -1  12  -1  14  -1
M  END
>  <filename_input>  (24) 
7MY1_IPE_docked.sdf

>  <pdb_id>  (24) 
7MY1_IPE

>  <pose_rank>  (24) 
23

>  <num_atoms_heavy>  (24) 
14

>  <num_torsions>  (24) 
6

>  <pose>  (24) 
[5.200260748791368, 11.865908353867493, 14.84242851201119, -0.051567797218308446, -2.7809165196259458, 2.6784462874921746, 3.357198188611253, -0.16549096118956105, -0.8628970882146589, -1.862958425631885, -5.063008101304444, -2.0819039905904404]

>  <energy>  (24) 
-251.8795865527266

>  <inter_energy>  (24) 
-262.29412672191955

>  <intra_energy>  (24) 
6.084851534463711

>  <rmsd>  (24) 
6.05552

>  <sdf_rank>  (24) 
0

$$$$

     RDKit          3D

 23 22  0  0  0  0  0  0  0  0999 V2000
    5.6006   11.7747   14.1501 C   0  0  0  0  0  0  0  0  0  0  0  0
    5.3869   10.3970   14.5342 O   0  0  0  0  0  0  0  0  0  0  0  0
    5.4943   12.6292   15.3766 C   0  0  0  0  0  0  0  0  0  0  0  0
    6.5338   13.7197   15.4585 C   0  0  0  0  0  0  0  0  0  0  0  0
    6.2021   14.9958   15.3272 C   0  0  0  0  0  0  0  0  0  0  0  0
    7.9510   13.2633   15.7371 C   0  0  0  0  0  0  0  0  0  0  0  0
    4.6513    9.3814   13.5274 P   0  0  1  0  0  0  0  0  0  0  0  0
    5.4392    9.2030   12.2705 O   0  0  0  0  0  0  0  0  0  0  0  0
    4.3292    8.1705   14.3361 O   0  0  0  0  0  0  0  0  0  0  0  0
    3.2636   10.1409   13.1906 O   0  0  0  0  0  0  0  0  0  0  0  0
    2.2582    9.9769   11.9175 P   0  0  1  0  0  0  0  0  0  0  0  0
    2.6474   11.0444   10.9008 O   0  0  0  0  0  0  0  0  0  0  0  0
    2.4738    8.5600   11.3682 O   0  0  0  0  0  0  0  0  0  0  0  0
    0.8785   10.1753   12.5223 O   0  0  0  0  0  0  0  0  0  0  0  0
    6.6006   11.8857   13.7054 H   0  0  0  0  0  0  0  0  0  0  0  0
    4.8480   12.0817   13.4089 H   0  0  0  0  0  0  0  0  0  0  0  0
    4.4995   13.0985   15.3858 H   0  0  0  0  0  0  0  0  0  0  0  0
    5.6593   11.9677   16.2399 H   0  0  0  0  0  0  0  0  0  0  0  0
    6.9764   15.7746   15.3903 H   0  0  0  0  0  0  0  0  0  0  0  0
    5.1525   15.2764   15.1550 H   0  0  0  0  0  0  0  0  0  0  0  0
    8.1124   13.2113   16.8240 H   0  0  0  0  0  0  0  0  0  0  0  0
    8.1095   12.2686   15.2949 H   0  0  0  0  0  0  0  0  0  0  0  0
    8.6602   13.9784   15.2949 H   0  0  0  0  0  0  0  0  0  0  0  0
  1  2  1  0
  1  3  1  0
  2  7  1  0
  3  4  1  0
  4  5  2  0
  4  6  1  0
  7  8  2  0
  7  9  1  1
  7 10  1  0
 10 11  1  0
 11 12  1  6
 11 13  2  0
 11 14  1  0
  1 15  1  0
  1 16  1  0
  3 17  1  0
  3 18  1  0
  5 19  1  0
  5 20  1  0
  6 21  1  0
  6 22  1  0
  6 23  1  0
M  CHG  3   9  -1  12  -1  14  -1
M  END
>  <filename_input>  (25) 
7MY1_IPE_docked.sdf

>  <pdb_id>  (25) 
7MY1_IPE

>  <pose_rank>  (25) 
24

>  <num_atoms_heavy>  (25) 
14

>  <num_torsions>  (25) 
6

>  <pose>  (25) 
[4.65130755342886, 9.381374666091538, 13.527402654608224, 0.40638205828717383, 2.11950894421569, -2.680279774093085, -0.6648450163892549, -0.890983969383488, 3.359266722246499, -0.38752125645762464, 0.03047182355966745, 1.5783924305754944]

>  <energy>  (25) 
-325.21663610305905

>  <inter_energy>  (25) 
-344.0892534278862

>  <intra_energy>  (25) 
1.6476907884931773

>  <rmsd>  (25) 
6.34618

>  <sdf_rank>  (25) 
0

$$$$

     RDKit          3D

 23 22  0  0  0  0  0  0  0  0999 V2000
    4.5100   12.6770   13.0810 C   0  0  0  0  0  0  0  0  0  0  0  0
    3.5880   13.0290   14.1380 O   0  0  0  0  0  0  0  0  0  0  0  0
    3.8020   11.7730   12.1180 C   0  0  0  0  0  0  0  0  0  0  0  0
    3.1770   10.5590   12.7600 C   0  0  0  0  0  0  0  0  0  0  0  0
    1.9320   10.2000   12.4830 C   0  0  0  0  0  0  0  0  0  0  0  0
    4.0710    9.7710   13.6950 C   0  0  0  0  0  0  0  0  0  0  0  0
    3.8910   14.2900   15.0890 P   0  0  1  0  0  0  0  0  0  0  0  0
    3.0910   15.4820   14.6750 O   0  0  0  0  0  0  0  0  0  0  0  0
    3.7410   13.7900   16.4860 O   0  0  0  0  0  0  0  0  0  0  0  0
    5.4610   14.5770   14.8270 O   0  0  0  0  0  0  0  0  0  0  0  0
    6.3230   15.9490   15.0090 P   0  0  1  0  0  0  0  0  0  0  0  0
    7.7820   15.5990   14.7380 O   0  0  0  0  0  0  0  0  0  0  0  0
    5.7760   16.9500   13.9820 O   0  0  0  0  0  0  0  0  0  0  0  0
    6.0440   16.3600   16.4450 O   0  0  0  0  0  0  0  0  0  0  0  0
    4.8432   13.5868   12.5602 H   0  0  0  0  0  0  0  0  0  0  0  0
    5.3899   12.1676   13.5008 H   0  0  0  0  0  0  0  0  0  0  0  0
    3.0071   12.3500   11.6229 H   0  0  0  0  0  0  0  0  0  0  0  0
    4.5608   11.4039   11.4123 H   0  0  0  0  0  0  0  0  0  0  0  0
    1.4962    9.3112   12.9627 H   0  0  0  0  0  0  0  0  0  0  0  0
    1.3342   10.7908   11.7734 H   0  0  0  0  0  0  0  0  0  0  0  0
    3.8072   10.0036   14.7373 H   0  0  0  0  0  0  0  0  0  0  0  0
    3.9337    8.6948   13.5134 H   0  0  0  0  0  0  0  0  0  0  0  0
    5.1214   10.0424   13.5134 H   0  0  0  0  0  0  0  0  0  0  0  0
  1  2  1  0
  1  3  1  0
  2  7  1  0
  3  4  1  0
  4  5  2  0
  4  6  1  0
  7  8  2  0
  7  9  1  1
  7 10  1  0
 10 11  1  0
 11 12  1  1
 11 13  2  0
 11 14  1  0
  1 15  1  0
  1 16  1  0
  3 17  1  0
  3 18  1  0
  5 19  1  0
  5 20  1  0
  6 21  1  0
  6 22  1  0
  6 23  1  0
M  CHG  3   9  -1  12  -1  14  -1
M  END
>  <filename_input>  (26) 
7MY1_IPE_docked.sdf

>  <pdb_id>  (26) 
7MY1_IPE

>  <pose_rank>  (26) 
25

>  <num_atoms_heavy>  (26) 
14

>  <num_torsions>  (26) 
6

>  <pose>  (26) 
[3.891, 14.29, 15.089, 1e-06, 1e-06, 1e-06, 0.0, 0.0, 0.0, 0.0, 0.0, 0.0]

>  <energy>  (26) 
-305.01003160827054

>  <inter_energy>  (26) 
-311.2254451305523

>  <intra_energy>  (26) 
4.363141234832457

>  <rmsd>  (26) 
0.0

>  <sdf_rank>  (26) 
0

$$$$
