
     RDKit          3D

 56 60  0  0  0  0  0  0  0  0999 V2000
   31.8123   53.7794   89.5332 O   0  0  0  0  0  0  0  0  0  0  0  0
   15.8332   55.2420   87.9510 C   0  0  0  0  0  0  0  0  0  0  0  0
   18.0602   55.0191   87.2309 C   0  0  0  0  0  0  0  0  0  0  0  0
   22.3826   55.1940   89.5509 C   0  0  0  0  0  0  0  0  0  0  0  0
   19.3633   55.4774   87.3215 N   0  0  0  0  0  0  0  0  0  0  0  0
   20.4784   54.8851   86.5902 C   0  0  0  0  0  0  0  0  0  0  0  0
   19.7623   56.6634   88.0913 C   0  0  0  0  0  0  0  0  0  0  0  0
   21.1549   56.9738   87.5767 C   0  0  2  0  0  0  0  0  0  0  0  0
   21.7337   55.5803   87.2345 C   0  0  2  0  0  0  0  0  0  0  0  0
   28.0878   55.4508   84.9796 O   0  0  0  0  0  0  0  0  0  0  0  0
   27.7980   55.1330   86.1092 C   0  0  0  0  0  0  0  0  0  0  0  0
   28.8513   54.7516   87.0396 C   0  0  0  0  0  0  0  0  0  0  0  0
   28.6007   53.7785   87.9517 N   0  0  0  0  0  0  0  0  0  0  0  0
   29.5561   53.4412   88.7853 C   0  0  0  0  0  0  0  0  0  0  0  0
   30.8300   54.1194   88.6953 C   0  0  0  0  0  0  0  0  0  0  0  0
   31.6701   52.6081   90.3402 C   0  0  0  0  0  0  0  0  0  0  0  0
   31.0720   55.0829   87.7965 N   0  0  0  0  0  0  0  0  0  0  0  0
   30.0811   55.4109   86.9559 C   0  0  0  0  0  0  0  0  0  0  0  0
   26.5349   55.1600   86.6190 N   0  0  0  0  0  0  0  0  0  0  0  0
   25.3590   55.4826   85.9595 C   0  0  0  0  0  0  0  0  0  0  0  0
   25.2604   56.1188   84.6873 C   0  0  0  0  0  0  0  0  0  0  0  0
   24.0123   56.5511   84.2263 C   0  0  0  0  0  0  0  0  0  0  0  0
   22.9045   56.3504   85.0276 C   0  0  0  0  0  0  0  0  0  0  0  0
   21.7692   56.7795   84.5521 F   0  0  0  0  0  0  0  0  0  0  0  0
   24.2299   55.2643   86.7414 C   0  0  0  0  0  0  0  0  0  0  0  0
   22.9710   55.6991   86.3236 C   0  0  0  0  0  0  0  0  0  0  0  0
   22.0958   54.7363   88.3684 N   0  0  0  0  0  0  0  0  0  0  0  0
   22.7160   54.3113   90.5574 N   0  0  0  0  0  0  0  0  0  0  0  0
   22.4018   56.9205   90.0871 S   0  0  0  0  0  0  0  0  0  0  0  0
   22.0366   57.7783   88.5333 C   0  0  0  0  0  0  0  0  0  0  0  0
   17.7897   53.9713   86.3276 N   0  0  0  0  0  0  0  0  0  0  0  0
   16.4980   53.5660   86.2823 C   0  0  0  0  0  0  0  0  0  0  0  0
   15.4986   54.1862   87.0955 C   0  0  0  0  0  0  0  0  0  0  0  0
   14.2951   53.7714   87.0959 F   0  0  0  0  0  0  0  0  0  0  0  0
   17.0983   55.6702   88.0368 N   0  0  0  0  0  0  0  0  0  0  0  0
   15.0512   55.7232   88.5568 H   0  0  0  0  0  0  0  0  0  0  0  0
   20.5121   53.7953   86.7355 H   0  0  0  0  0  0  0  0  0  0  0  0
   20.4112   55.0341   85.5024 H   0  0  0  0  0  0  0  0  0  0  0  0
   19.0777   57.5031   87.9012 H   0  0  0  0  0  0  0  0  0  0  0  0
   19.7370   56.4949   89.1780 H   0  0  0  0  0  0  0  0  0  0  0  0
   21.1171   57.6495   86.7095 H   0  0  0  0  0  0  0  0  0  0  0  0
   29.3910   52.6569   89.5387 H   0  0  0  0  0  0  0  0  0  0  0  0
   31.7042   52.8890   91.4032 H   0  0  0  0  0  0  0  0  0  0  0  0
   30.7067   52.1253   90.1192 H   0  0  0  0  0  0  0  0  0  0  0  0
   32.4899   51.9088   90.1192 H   0  0  0  0  0  0  0  0  0  0  0  0
   30.2351   56.1969   86.2019 H   0  0  0  0  0  0  0  0  0  0  0  0
   26.4426   54.9107   87.6141 H   0  0  0  0  0  0  0  0  0  0  0  0
   26.1599   56.2687   84.0722 H   0  0  0  0  0  0  0  0  0  0  0  0
   23.9148   57.0407   83.2461 H   0  0  0  0  0  0  0  0  0  0  0  0
   24.3304   54.7410   87.7037 H   0  0  0  0  0  0  0  0  0  0  0  0
   22.1258   53.7170   88.2233 H   0  0  0  0  0  0  0  0  0  0  0  0
   22.9448   54.6647   91.4974 H   0  0  0  0  0  0  0  0  0  0  0  0
   22.7360   53.2989   90.3688 H   0  0  0  0  0  0  0  0  0  0  0  0
   22.9879   57.9978   88.0265 H   0  0  0  0  0  0  0  0  0  0  0  0
   21.4784   58.6896   88.7939 H   0  0  0  0  0  0  0  0  0  0  0  0
   16.2127   52.7452   85.6079 H   0  0  0  0  0  0  0  0  0  0  0  0
  1 15  1  0
  1 16  1  0
  2 33  2  0
  2 35  1  0
  3  5  1  0
  3 31  1  0
  3 35  2  0
  4 27  2  0
  4 28  1  0
  4 29  1  0
  5  6  1  0
  5  7  1  0
  6  9  1  0
  8  7  1  0
  8  9  1  0
  8 30  1  0
  9 26  1  6
  9 27  1  0
 10 11  2  0
 11 12  1  0
 11 19  1  0
 12 13  2  0
 12 18  1  0
 13 14  1  0
 14 15  2  0
 15 17  1  0
 17 18  2  0
 19 20  1  0
 20 21  2  0
 20 25  1  0
 21 22  1  0
 22 23  2  0
 23 24  1  0
 23 26  1  0
 25 26  2  0
 29 30  1  0
 31 32  2  0
 32 33  1  0
 33 34  1  0
  2 36  1  0
  6 37  1  0
  6 38  1  0
  7 39  1  0
  7 40  1  0
  8 41  1  6
 14 42  1  0
 16 43  1  0
 16 44  1  0
 16 45  1  0
 18 46  1  0
 19 47  1  0
 21 48  1  0
 22 49  1  0
 25 50  1  0
 27 51  1  0
 28 52  1  0
 28 53  1  0
 30 54  1  0
 30 55  1  0
 32 56  1  0
M  CHG  1  27   1
M  END
>  <filename_input>  (1) 
7MYU_ZR7_docked.sdf

>  <pdb_id>  (1) 
7MYU_ZR7

>  <pose_rank>  (1) 
0

>  <num_atoms_heavy>  (1) 
35

>  <num_torsions>  (1) 
4

>  <pose>  (1) 
[25.3590363757411, 55.4825921161393, 85.95946477222388, 0.1275846138281456, -0.044584068378841386, -0.0037424280886795237, 0.17326194650757373, -0.40095041779788715, 0.33308717783423625, -0.32040105177483125]

>  <energy>  (1) 
-2011.2563907944264

>  <inter_energy>  (1) 
-2016.0082628425425

>  <intra_energy>  (1) 
25.76210869380118

>  <rmsd>  (1) 
0.552771

>  <sdf_rank>  (1) 
0

$$$$

     RDKit          3D

 56 60  0  0  0  0  0  0  0  0999 V2000
   31.7721   54.2288   89.1916 O   0  0  0  0  0  0  0  0  0  0  0  0
   20.0635   59.0590   92.5378 C   0  0  0  0  0  0  0  0  0  0  0  0
   21.0836   58.5772   90.4750 C   0  0  0  0  0  0  0  0  0  0  0  0
   19.5330   56.3310   86.3950 C   0  0  0  0  0  0  0  0  0  0  0  0
   21.2728   57.6578   89.4577 N   0  0  0  0  0  0  0  0  0  0  0  0
   22.0704   57.9273   88.2660 C   0  0  0  0  0  0  0  0  0  0  0  0
   20.7696   56.2779   89.4972 C   0  0  0  0  0  0  0  0  0  0  0  0
   21.5401   55.5828   88.3911 C   0  0  2  0  0  0  0  0  0  0  0  0
   21.7489   56.6979   87.3390 C   0  0  2  0  0  0  0  0  0  0  0  0
   27.8221   55.8170   84.8021 O   0  0  0  0  0  0  0  0  0  0  0  0
   27.5843   55.4367   85.9244 C   0  0  0  0  0  0  0  0  0  0  0  0
   28.6852   55.0938   86.8138 C   0  0  0  0  0  0  0  0  0  0  0  0
   28.5015   54.1193   87.7402 N   0  0  0  0  0  0  0  0  0  0  0  0
   29.4994   53.8167   88.5365 C   0  0  0  0  0  0  0  0  0  0  0  0
   30.7471   54.5331   88.3921 C   0  0  0  0  0  0  0  0  0  0  0  0
   31.7569   52.9929   89.9097 C   0  0  0  0  0  0  0  0  0  0  0  0
   30.9231   55.4979   87.4794 N   0  0  0  0  0  0  0  0  0  0  0  0
   29.8898   55.7900   86.6775 C   0  0  0  0  0  0  0  0  0  0  0  0
   26.3362   55.3564   86.4645 N   0  0  0  0  0  0  0  0  0  0  0  0
   25.1241   55.6219   85.8462 C   0  0  0  0  0  0  0  0  0  0  0  0
   24.9214   55.8094   84.4474 C   0  0  0  0  0  0  0  0  0  0  0  0
   23.6789   56.2538   83.9831 C   0  0  0  0  0  0  0  0  0  0  0  0
   22.6788   56.5039   84.9034 C   0  0  0  0  0  0  0  0  0  0  0  0
   21.5447   56.9229   84.4162 F   0  0  0  0  0  0  0  0  0  0  0  0
   24.0984   55.8525   86.7565 C   0  0  0  0  0  0  0  0  0  0  0  0
   22.8515   56.3152   86.3327 C   0  0  0  0  0  0  0  0  0  0  0  0
   20.5694   57.0943   86.5768 N   0  0  0  0  0  0  0  0  0  0  0  0
   18.4672   56.7992   85.6547 N   0  0  0  0  0  0  0  0  0  0  0  0
   19.2814   54.6518   87.0159 S   0  0  0  0  0  0  0  0  0  0  0  0
   20.8719   54.3300   87.8222 C   0  0  0  0  0  0  0  0  0  0  0  0
   21.7588   59.8113   90.3842 N   0  0  0  0  0  0  0  0  0  0  0  0
   21.5354   60.6693   91.4083 C   0  0  0  0  0  0  0  0  0  0  0  0
   20.6806   60.3145   92.4983 C   0  0  0  0  0  0  0  0  0  0  0  0
   20.4252   61.1388   93.4340 F   0  0  0  0  0  0  0  0  0  0  0  0
   20.2466   58.1820   91.5436 N   0  0  0  0  0  0  0  0  0  0  0  0
   19.4237   58.7914   93.3916 H   0  0  0  0  0  0  0  0  0  0  0  0
   21.7647   58.8712   87.7909 H   0  0  0  0  0  0  0  0  0  0  0  0
   23.1436   58.0403   88.4793 H   0  0  0  0  0  0  0  0  0  0  0  0
   20.9770   55.8125   90.4721 H   0  0  0  0  0  0  0  0  0  0  0  0
   19.6798   56.2174   89.3608 H   0  0  0  0  0  0  0  0  0  0  0  0
   22.4847   55.1631   88.7674 H   0  0  0  0  0  0  0  0  0  0  0  0
   29.3889   53.0325   89.2999 H   0  0  0  0  0  0  0  0  0  0  0  0
   31.7594   53.1969   90.9907 H   0  0  0  0  0  0  0  0  0  0  0  0
   30.8517   52.4265   89.6456 H   0  0  0  0  0  0  0  0  0  0  0  0
   32.6479   52.4044   89.6456 H   0  0  0  0  0  0  0  0  0  0  0  0
   29.9892   56.5755   85.9140 H   0  0  0  0  0  0  0  0  0  0  0  0
   26.2872   55.0633   87.4506 H   0  0  0  0  0  0  0  0  0  0  0  0
   25.7369   55.6060   83.7378 H   0  0  0  0  0  0  0  0  0  0  0  0
   23.5015   56.4010   82.9075 H   0  0  0  0  0  0  0  0  0  0  0  0
   24.2724   55.6675   87.8268 H   0  0  0  0  0  0  0  0  0  0  0  0
   20.5573   58.0352   86.1578 H   0  0  0  0  0  0  0  0  0  0  0  0
   17.6417   56.2016   85.5054 H   0  0  0  0  0  0  0  0  0  0  0  0
   18.4969   57.7465   85.2513 H   0  0  0  0  0  0  0  0  0  0  0  0
   21.5508   53.8801   87.0828 H   0  0  0  0  0  0  0  0  0  0  0  0
   20.6710   53.6602   88.6714 H   0  0  0  0  0  0  0  0  0  0  0  0
   22.0204   61.6566   91.4013 H   0  0  0  0  0  0  0  0  0  0  0  0
  1 15  1  0
  1 16  1  0
  2 33  2  0
  2 35  1  0
  3  5  1  0
  3 31  1  0
  3 35  2  0
  4 27  2  0
  4 28  1  0
  4 29  1  0
  5  6  1  0
  5  7  1  0
  6  9  1  0
  8  7  1  0
  8  9  1  0
  8 30  1  0
  9 26  1  6
  9 27  1  0
 10 11  2  0
 11 12  1  0
 11 19  1  0
 12 13  2  0
 12 18  1  0
 13 14  1  0
 14 15  2  0
 15 17  1  0
 17 18  2  0
 19 20  1  0
 20 21  2  0
 20 25  1  0
 21 22  1  0
 22 23  2  0
 23 24  1  0
 23 26  1  0
 25 26  2  0
 29 30  1  0
 31 32  2  0
 32 33  1  0
 33 34  1  0
  2 36  1  0
  6 37  1  0
  6 38  1  0
  7 39  1  0
  7 40  1  0
  8 41  1  1
 14 42  1  0
 16 43  1  0
 16 44  1  0
 16 45  1  0
 18 46  1  0
 19 47  1  0
 21 48  1  0
 22 49  1  0
 25 50  1  0
 27 51  1  0
 28 52  1  0
 28 53  1  0
 30 54  1  0
 30 55  1  0
 32 56  1  0
M  CHG  1  27   1
M  END
>  <filename_input>  (2) 
7MYU_ZR7_docked.sdf

>  <pdb_id>  (2) 
7MYU_ZR7

>  <pose_rank>  (2) 
1

>  <num_atoms_heavy>  (2) 
35

>  <num_torsions>  (2) 
4

>  <pose>  (2) 
[25.124148213696493, 55.62189500257173, 85.84616828333998, -0.22320023958509425, 0.06568508372078556, -0.14136217211137145, -2.738642304616057, 0.04789119519143325, 0.27217118040017413, -0.21346688215490348]

>  <energy>  (2) 
-1212.475945990945

>  <inter_energy>  (2) 
-1267.3172537312591

>  <intra_energy>  (2) 
50.50389945544371

>  <rmsd>  (2) 
4.08921

>  <sdf_rank>  (2) 
0

$$$$

     RDKit          3D

 56 60  0  0  0  0  0  0  0  0999 V2000
   27.2903   65.2079   84.5261 O   0  0  0  0  0  0  0  0  0  0  0  0
   16.2412   56.3004   88.3995 C   0  0  0  0  0  0  0  0  0  0  0  0
   18.4729   56.0670   87.6974 C   0  0  0  0  0  0  0  0  0  0  0  0
   22.7870   56.4491   90.0080 C   0  0  0  0  0  0  0  0  0  0  0  0
   19.7687   56.5494   87.7614 N   0  0  0  0  0  0  0  0  0  0  0  0
   20.8942   55.9301   87.0694 C   0  0  0  0  0  0  0  0  0  0  0  0
   20.1484   57.7865   88.4573 C   0  0  0  0  0  0  0  0  0  0  0  0
   21.5373   58.0854   87.9264 C   0  0  2  0  0  0  0  0  0  0  0  0
   22.1376   56.6824   87.6714 C   0  0  2  0  0  0  0  0  0  0  0  0
   27.2396   59.5519   86.8666 O   0  0  0  0  0  0  0  0  0  0  0  0
   26.5054   60.0334   86.0360 C   0  0  0  0  0  0  0  0  0  0  0  0
   26.7167   61.4073   85.6022 C   0  0  0  0  0  0  0  0  0  0  0  0
   26.7647   61.6759   84.2728 N   0  0  0  0  0  0  0  0  0  0  0  0
   26.9547   62.9168   83.8915 C   0  0  0  0  0  0  0  0  0  0  0  0
   27.1041   63.9404   84.9019 C   0  0  0  0  0  0  0  0  0  0  0  0
   28.5703   65.6114   84.0340 C   0  0  0  0  0  0  0  0  0  0  0  0
   27.0609   63.6706   86.2135 N   0  0  0  0  0  0  0  0  0  0  0  0
   26.8663   62.3960   86.5791 C   0  0  0  0  0  0  0  0  0  0  0  0
   25.5023   59.3588   85.4080 N   0  0  0  0  0  0  0  0  0  0  0  0
   25.0897   58.0534   85.6260 C   0  0  0  0  0  0  0  0  0  0  0  0
   25.5320   56.9046   84.9066 C   0  0  0  0  0  0  0  0  0  0  0  0
   24.8946   55.6758   85.1083 C   0  0  0  0  0  0  0  0  0  0  0  0
   23.8435   55.6139   86.0033 C   0  0  0  0  0  0  0  0  0  0  0  0
   23.2818   54.4464   86.1464 F   0  0  0  0  0  0  0  0  0  0  0  0
   24.0477   57.9678   86.5430 C   0  0  0  0  0  0  0  0  0  0  0  0
   23.3750   56.7634   86.7565 C   0  0  0  0  0  0  0  0  0  0  0  0
   22.5096   55.9152   88.8556 N   0  0  0  0  0  0  0  0  0  0  0  0
   23.1311   55.6351   91.0674 N   0  0  0  0  0  0  0  0  0  0  0  0
   22.7793   58.2053   90.4369 S   0  0  0  0  0  0  0  0  0  0  0  0
   22.4049   58.9604   88.8329 C   0  0  0  0  0  0  0  0  0  0  0  0
   18.2199   54.9616   86.8600 N   0  0  0  0  0  0  0  0  0  0  0  0
   16.9345   54.5350   86.8380 C   0  0  0  0  0  0  0  0  0  0  0  0
   15.9242   55.1890   87.6102 C   0  0  0  0  0  0  0  0  0  0  0  0
   14.7271   54.7571   87.6345 F   0  0  0  0  0  0  0  0  0  0  0  0
   17.4996   56.7519   88.4605 N   0  0  0  0  0  0  0  0  0  0  0  0
   15.4508   56.8061   88.9735 H   0  0  0  0  0  0  0  0  0  0  0  0
   20.9438   54.8519   87.2816 H   0  0  0  0  0  0  0  0  0  0  0  0
   20.8272   56.0109   85.9744 H   0  0  0  0  0  0  0  0  0  0  0  0
   19.4517   58.6025   88.2150 H   0  0  0  0  0  0  0  0  0  0  0  0
   20.1232   57.6847   89.5523 H   0  0  0  0  0  0  0  0  0  0  0  0
   21.4914   58.7058   87.0192 H   0  0  0  0  0  0  0  0  0  0  0  0
   26.9994   63.1739   82.8229 H   0  0  0  0  0  0  0  0  0  0  0  0
   29.2391   65.8223   84.8815 H   0  0  0  0  0  0  0  0  0  0  0  0
   28.9984   64.8047   83.4209 H   0  0  0  0  0  0  0  0  0  0  0  0
   28.4583   66.5178   83.4209 H   0  0  0  0  0  0  0  0  0  0  0  0
   26.8243   62.1284   87.6452 H   0  0  0  0  0  0  0  0  0  0  0  0
   24.9886   59.8814   84.6842 H   0  0  0  0  0  0  0  0  0  0  0  0
   26.3691   56.9841   84.1975 H   0  0  0  0  0  0  0  0  0  0  0  0
   25.2234   54.7772   84.5657 H   0  0  0  0  0  0  0  0  0  0  0  0
   23.7492   58.8626   87.1088 H   0  0  0  0  0  0  0  0  0  0  0  0
   22.5552   54.8895   88.7735 H   0  0  0  0  0  0  0  0  0  0  0  0
   23.3526   56.0490   91.9842 H   0  0  0  0  0  0  0  0  0  0  0  0
   23.1667   54.6134   90.9415 H   0  0  0  0  0  0  0  0  0  0  0  0
   23.3539   59.1625   88.3147 H   0  0  0  0  0  0  0  0  0  0  0  0
   21.8326   59.8775   89.0361 H   0  0  0  0  0  0  0  0  0  0  0  0
   16.6630   53.6701   86.2151 H   0  0  0  0  0  0  0  0  0  0  0  0
  1 15  1  0
  1 16  1  0
  2 33  2  0
  2 35  1  0
  3  5  1  0
  3 31  1  0
  3 35  2  0
  4 27  2  0
  4 28  1  0
  4 29  1  0
  5  6  1  0
  5  7  1  0
  6  9  1  0
  8  7  1  0
  8  9  1  0
  8 30  1  0
  9 26  1  6
  9 27  1  0
 10 11  2  0
 11 12  1  0
 11 19  1  0
 12 13  2  0
 12 18  1  0
 13 14  1  0
 14 15  2  0
 15 17  1  0
 17 18  2  0
 19 20  1  0
 20 21  2  0
 20 25  1  0
 21 22  1  0
 22 23  2  0
 23 24  1  0
 23 26  1  0
 25 26  2  0
 29 30  1  0
 31 32  2  0
 32 33  1  0
 33 34  1  0
  2 36  1  0
  6 37  1  0
  6 38  1  0
  7 39  1  0
  7 40  1  0
  8 41  1  6
 14 42  1  0
 16 43  1  0
 16 44  1  0
 16 45  1  0
 18 46  1  0
 19 47  1  0
 21 48  1  0
 22 49  1  0
 25 50  1  0
 27 51  1  0
 28 52  1  0
 28 53  1  0
 30 54  1  0
 30 55  1  0
 32 56  1  0
M  CHG  1  27   1
M  END
>  <filename_input>  (3) 
7MYU_ZR7_docked.sdf

>  <pdb_id>  (3) 
7MYU_ZR7

>  <pose_rank>  (3) 
2

>  <num_atoms_heavy>  (3) 
35

>  <num_torsions>  (3) 
4

>  <pose>  (3) 
[25.089684874527045, 58.05338691272145, 85.62596601535779, -1.3208825282885386, -0.08128652576927703, 1.0730260213411795, -1.5728228880952568, 4.487174880014953, -1.1487661758444412, -1.8282704039895858]

>  <energy>  (3) 
-646.0967881961606

>  <inter_energy>  (3) 
-655.9716344175871

>  <intra_energy>  (3) 
26.093066939990024

>  <rmsd>  (3) 
5.20992

>  <sdf_rank>  (3) 
0

$$$$

     RDKit          3D

 56 60  0  0  0  0  0  0  0  0999 V2000
   18.3854   57.7647   93.6542 O   0  0  0  0  0  0  0  0  0  0  0  0
   30.6160   54.9507   88.8141 C   0  0  0  0  0  0  0  0  0  0  0  0
   28.4836   55.0306   87.8271 C   0  0  0  0  0  0  0  0  0  0  0  0
   26.5382   57.7447   84.2292 C   0  0  0  0  0  0  0  0  0  0  0  0
   27.4613   55.8199   87.3293 N   0  0  0  0  0  0  0  0  0  0  0  0
   26.2385   55.2802   86.7439 C   0  0  0  0  0  0  0  0  0  0  0  0
   27.4457   57.2868   87.4108 C   0  0  0  0  0  0  0  0  0  0  0  0
   26.0045   57.6482   87.1064 C   0  0  2  0  0  0  0  0  0  0  0  0
   25.5576   56.5498   86.1125 C   0  0  2  0  0  0  0  0  0  0  0  0
   21.8402   58.9611   88.7547 O   0  0  0  0  0  0  0  0  0  0  0  0
   21.2475   57.9424   89.0231 C   0  0  0  0  0  0  0  0  0  0  0  0
   20.4792   57.8636   90.2576 C   0  0  0  0  0  0  0  0  0  0  0  0
   20.1057   56.6443   90.7216 N   0  0  0  0  0  0  0  0  0  0  0  0
   19.4143   56.5833   91.8350 C   0  0  0  0  0  0  0  0  0  0  0  0
   19.0820   57.8146   92.5164 C   0  0  0  0  0  0  0  0  0  0  0  0
   18.8475   56.9345   94.7222 C   0  0  0  0  0  0  0  0  0  0  0  0
   19.4484   59.0169   92.0526 N   0  0  0  0  0  0  0  0  0  0  0  0
   20.1536   59.0544   90.9134 C   0  0  0  0  0  0  0  0  0  0  0  0
   21.1869   56.8482   88.2138 N   0  0  0  0  0  0  0  0  0  0  0  0
   21.8173   56.6576   86.9939 C   0  0  0  0  0  0  0  0  0  0  0  0
   21.2004   56.1882   85.7973 C   0  0  0  0  0  0  0  0  0  0  0  0
   21.9943   55.8672   84.6911 C   0  0  0  0  0  0  0  0  0  0  0  0
   23.3647   56.0119   84.7950 C   0  0  0  0  0  0  0  0  0  0  0  0
   24.0557   55.6913   83.7372 F   0  0  0  0  0  0  0  0  0  0  0  0
   23.1959   56.8230   87.0725 C   0  0  0  0  0  0  0  0  0  0  0  0
   24.0220   56.4946   85.9963 C   0  0  0  0  0  0  0  0  0  0  0  0
   26.1027   56.6418   84.7620 N   0  0  0  0  0  0  0  0  0  0  0  0
   27.0330   57.7267   82.9415 N   0  0  0  0  0  0  0  0  0  0  0  0
   26.5910   59.3858   84.9859 S   0  0  0  0  0  0  0  0  0  0  0  0
   25.7881   59.0676   86.5788 C   0  0  0  0  0  0  0  0  0  0  0  0
   28.2967   53.6334   87.8327 N   0  0  0  0  0  0  0  0  0  0  0  0
   29.3300   52.9138   88.3318 C   0  0  0  0  0  0  0  0  0  0  0  0
   30.5093   53.5553   88.8242 C   0  0  0  0  0  0  0  0  0  0  0  0
   31.5039   52.8800   89.2427 F   0  0  0  0  0  0  0  0  0  0  0  0
   29.6247   55.7029   88.3216 N   0  0  0  0  0  0  0  0  0  0  0  0
   31.5206   55.4323   89.2137 H   0  0  0  0  0  0  0  0  0  0  0  0
   26.4672   54.5297   85.9729 H   0  0  0  0  0  0  0  0  0  0  0  0
   25.5991   54.7642   87.4752 H   0  0  0  0  0  0  0  0  0  0  0  0
   27.7313   57.6269   88.4171 H   0  0  0  0  0  0  0  0  0  0  0  0
   28.1590   57.7599   86.7198 H   0  0  0  0  0  0  0  0  0  0  0  0
   25.3980   57.6717   88.0238 H   0  0  0  0  0  0  0  0  0  0  0  0
   19.0935   55.6133   92.2427 H   0  0  0  0  0  0  0  0  0  0  0  0
   18.5892   57.3986   95.6854 H   0  0  0  0  0  0  0  0  0  0  0  0
   18.3696   55.9463   94.6514 H   0  0  0  0  0  0  0  0  0  0  0  0
   19.9392   56.8199   94.6514 H   0  0  0  0  0  0  0  0  0  0  0  0
   20.4752   60.0198   90.4956 H   0  0  0  0  0  0  0  0  0  0  0  0
   20.6025   56.0689   88.5485 H   0  0  0  0  0  0  0  0  0  0  0  0
   20.1071   56.0792   85.7442 H   0  0  0  0  0  0  0  0  0  0  0  0
   21.5371   55.5070   83.7577 H   0  0  0  0  0  0  0  0  0  0  0  0
   23.6421   57.2187   87.9968 H   0  0  0  0  0  0  0  0  0  0  0  0
   26.1449   55.7815   84.1972 H   0  0  0  0  0  0  0  0  0  0  0  0
   27.3803   58.5956   82.5110 H   0  0  0  0  0  0  0  0  0  0  0  0
   27.0552   56.8443   82.4106 H   0  0  0  0  0  0  0  0  0  0  0  0
   24.7070   59.2329   86.4615 H   0  0  0  0  0  0  0  0  0  0  0  0
   26.2420   59.7536   87.3092 H   0  0  0  0  0  0  0  0  0  0  0  0
   29.2607   51.8163   88.3588 H   0  0  0  0  0  0  0  0  0  0  0  0
  1 15  1  0
  1 16  1  0
  2 33  2  0
  2 35  1  0
  3  5  1  0
  3 31  1  0
  3 35  2  0
  4 27  2  0
  4 28  1  0
  4 29  1  0
  5  6  1  0
  5  7  1  0
  6  9  1  0
  8  7  1  0
  8  9  1  0
  8 30  1  0
  9 26  1  6
  9 27  1  0
 10 11  2  0
 11 12  1  0
 11 19  1  0
 12 13  2  0
 12 18  1  0
 13 14  1  0
 14 15  2  0
 15 17  1  0
 17 18  2  0
 19 20  1  0
 20 21  2  0
 20 25  1  0
 21 22  1  0
 22 23  2  0
 23 24  1  0
 23 26  1  0
 25 26  2  0
 29 30  1  0
 31 32  2  0
 32 33  1  0
 33 34  1  0
  2 36  1  0
  6 37  1  0
  6 38  1  0
  7 39  1  0
  7 40  1  0
  8 41  1  1
 14 42  1  0
 16 43  1  0
 16 44  1  0
 16 45  1  0
 18 46  1  0
 19 47  1  0
 21 48  1  0
 22 49  1  0
 25 50  1  0
 27 51  1  0
 28 52  1  0
 28 53  1  0
 30 54  1  0
 30 55  1  0
 32 56  1  0
M  CHG  1  27   1
M  END
>  <filename_input>  (4) 
7MYU_ZR7_docked.sdf

>  <pdb_id>  (4) 
7MYU_ZR7

>  <pose_rank>  (4) 
3

>  <num_atoms_heavy>  (4) 
35

>  <num_torsions>  (4) 
4

>  <pose>  (4) 
[21.81733121460875, 56.65759127578794, 86.99391288106791, -0.9290168007073064, 0.010542550432403252, -2.9600022426195953, -2.4135062361365276, -2.4495441897787082, 0.009380487346135098, 0.4189068013376355]

>  <energy>  (4) 
-800.3026541083519

>  <inter_energy>  (4) 
-844.4555569800997

>  <intra_energy>  (4) 
34.22562870326167

>  <rmsd>  (4) 
9.43437

>  <sdf_rank>  (4) 
0

$$$$

     RDKit          3D

 56 60  0  0  0  0  0  0  0  0999 V2000
   30.5340   59.7407   87.3995 O   0  0  0  0  0  0  0  0  0  0  0  0
   16.9987   53.3706   85.9673 C   0  0  0  0  0  0  0  0  0  0  0  0
   18.5715   55.0195   86.5465 C   0  0  0  0  0  0  0  0  0  0  0  0
   21.0421   56.0158   90.6696 C   0  0  0  0  0  0  0  0  0  0  0  0
   19.0150   55.9200   87.4995 N   0  0  0  0  0  0  0  0  0  0  0  0
   20.1904   56.7664   87.3231 C   0  0  0  0  0  0  0  0  0  0  0  0
   18.3087   56.1940   88.7584 C   0  0  0  0  0  0  0  0  0  0  0  0
   18.9408   57.4813   89.2520 C   0  0  2  0  0  0  0  0  0  0  0  0
   20.4027   57.3809   88.7555 C   0  0  2  0  0  0  0  0  0  0  0  0
   24.5366   58.9674   86.3550 O   0  0  0  0  0  0  0  0  0  0  0  0
   25.0953   59.4516   87.3112 C   0  0  0  0  0  0  0  0  0  0  0  0
   26.5504   59.4985   87.3438 C   0  0  0  0  0  0  0  0  0  0  0  0
   27.2385   58.3571   87.5992 N   0  0  0  0  0  0  0  0  0  0  0  0
   28.5492   58.4091   87.6258 C   0  0  0  0  0  0  0  0  0  0  0  0
   29.2006   59.6769   87.3825 C   0  0  0  0  0  0  0  0  0  0  0  0
   31.1760   61.0107   87.2640 C   0  0  0  0  0  0  0  0  0  0  0  0
   28.5177   60.8027   87.1354 N   0  0  0  0  0  0  0  0  0  0  0  0
   27.1799   60.7253   87.1136 C   0  0  0  0  0  0  0  0  0  0  0  0
   24.4577   60.0293   88.3674 N   0  0  0  0  0  0  0  0  0  0  0  0
   23.0922   60.1226   88.5880 C   0  0  0  0  0  0  0  0  0  0  0  0
   22.3991   61.2705   89.0725 C   0  0  0  0  0  0  0  0  0  0  0  0
   21.0490   61.1651   89.4233 C   0  0  0  0  0  0  0  0  0  0  0  0
   20.4246   59.9393   89.2925 C   0  0  0  0  0  0  0  0  0  0  0  0
   19.1692   59.8967   89.6407 F   0  0  0  0  0  0  0  0  0  0  0  0
   22.4414   58.9029   88.4371 C   0  0  0  0  0  0  0  0  0  0  0  0
   21.1004   58.7543   88.7951 C   0  0  0  0  0  0  0  0  0  0  0  0
   21.2575   56.4276   89.4555 N   0  0  0  0  0  0  0  0  0  0  0  0
   21.9130   55.1132   91.2442 N   0  0  0  0  0  0  0  0  0  0  0  0
   19.6830   56.4855   91.7654 S   0  0  0  0  0  0  0  0  0  0  0  0
   18.8274   57.7249   90.7579 C   0  0  0  0  0  0  0  0  0  0  0  0
   19.2525   54.9738   85.3131 N   0  0  0  0  0  0  0  0  0  0  0  0
   18.7731   54.0744   84.4209 C   0  0  0  0  0  0  0  0  0  0  0  0
   17.6450   53.2525   84.7316 C   0  0  0  0  0  0  0  0  0  0  0  0
   17.2264   52.3684   83.9171 F   0  0  0  0  0  0  0  0  0  0  0  0
   17.4425   54.2385   86.8844 N   0  0  0  0  0  0  0  0  0  0  0  0
   16.1201   52.7460   86.1863 H   0  0  0  0  0  0  0  0  0  0  0  0
   21.0630   56.1717   87.0148 H   0  0  0  0  0  0  0  0  0  0  0  0
   20.0625   57.5277   86.5396 H   0  0  0  0  0  0  0  0  0  0  0  0
   17.2312   56.3284   88.5825 H   0  0  0  0  0  0  0  0  0  0  0  0
   18.3948   55.3713   89.4835 H   0  0  0  0  0  0  0  0  0  0  0  0
   18.4113   58.3612   88.8578 H   0  0  0  0  0  0  0  0  0  0  0  0
   29.1416   57.5049   87.8295 H   0  0  0  0  0  0  0  0  0  0  0  0
   31.3850   61.4241   88.2617 H   0  0  0  0  0  0  0  0  0  0  0  0
   32.1201   60.8874   86.7131 H   0  0  0  0  0  0  0  0  0  0  0  0
   30.5170   61.6978   86.7131 H   0  0  0  0  0  0  0  0  0  0  0  0
   26.5787   61.6248   86.9152 H   0  0  0  0  0  0  0  0  0  0  0  0
   25.0628   60.4470   89.0887 H   0  0  0  0  0  0  0  0  0  0  0  0
   22.9228   62.2330   89.1698 H   0  0  0  0  0  0  0  0  0  0  0  0
   20.4958   62.0400   89.7955 H   0  0  0  0  0  0  0  0  0  0  0  0
   22.9917   58.0421   88.0294 H   0  0  0  0  0  0  0  0  0  0  0  0
   22.0806   56.0590   88.9580 H   0  0  0  0  0  0  0  0  0  0  0  0
   21.7505   54.7813   92.2056 H   0  0  0  0  0  0  0  0  0  0  0  0
   22.7257   54.7713   90.7118 H   0  0  0  0  0  0  0  0  0  0  0  0
   19.2577   58.7119   90.9830 H   0  0  0  0  0  0  0  0  0  0  0  0
   17.7592   57.6633   91.0130 H   0  0  0  0  0  0  0  0  0  0  0  0
   19.2603   53.9746   83.4397 H   0  0  0  0  0  0  0  0  0  0  0  0
  1 15  1  0
  1 16  1  0
  2 33  2  0
  2 35  1  0
  3  5  1  0
  3 31  1  0
  3 35  2  0
  4 27  2  0
  4 28  1  0
  4 29  1  0
  5  6  1  0
  5  7  1  0
  6  9  1  0
  8  7  1  0
  8  9  1  0
  8 30  1  0
  9 26  1  6
  9 27  1  0
 10 11  2  0
 11 12  1  0
 11 19  1  0
 12 13  2  0
 12 18  1  0
 13 14  1  0
 14 15  2  0
 15 17  1  0
 17 18  2  0
 19 20  1  0
 20 21  2  0
 20 25  1  0
 21 22  1  0
 22 23  2  0
 23 24  1  0
 23 26  1  0
 25 26  2  0
 29 30  1  0
 31 32  2  0
 32 33  1  0
 33 34  1  0
  2 36  1  0
  6 37  1  0
  6 38  1  0
  7 39  1  0
  7 40  1  0
  8 41  1  6
 14 42  1  0
 16 43  1  0
 16 44  1  0
 16 45  1  0
 18 46  1  0
 19 47  1  0
 21 48  1  0
 22 49  1  0
 25 50  1  0
 27 51  1  0
 28 52  1  0
 28 53  1  0
 30 54  1  0
 30 55  1  0
 32 56  1  0
M  CHG  1  27   1
M  END
>  <filename_input>  (5) 
7MYU_ZR7_docked.sdf

>  <pdb_id>  (5) 
7MYU_ZR7

>  <pose_rank>  (5) 
4

>  <num_atoms_heavy>  (5) 
35

>  <num_torsions>  (5) 
4

>  <pose>  (5) 
[23.092221628943623, 60.122572118138635, 88.58801620446185, 1.5635646015313718, 0.3155458195508982, 0.3408379394092314, 1.2304120962068053, -2.559521627821045, 1.5447564924025028, 2.7195995408509637]

>  <energy>  (5) 
-504.28929945199656

>  <inter_energy>  (5) 
-594.4461421287762

>  <intra_energy>  (5) 
80.09582293258048

>  <rmsd>  (5) 
4.62056

>  <sdf_rank>  (5) 
0

$$$$

     RDKit          3D

 56 60  0  0  0  0  0  0  0  0999 V2000
   15.4210   53.5237   84.1714 O   0  0  0  0  0  0  0  0  0  0  0  0
   30.9718   54.7219   87.3624 C   0  0  0  0  0  0  0  0  0  0  0  0
   28.6561   54.9189   87.7181 C   0  0  0  0  0  0  0  0  0  0  0  0
   24.8004   55.2364   84.6968 C   0  0  0  0  0  0  0  0  0  0  0  0
   27.4677   55.5180   87.3374 N   0  0  0  0  0  0  0  0  0  0  0  0
   26.1792   55.2132   87.9503 C   0  0  0  0  0  0  0  0  0  0  0  0
   27.3752   56.5906   86.3376 C   0  0  0  0  0  0  0  0  0  0  0  0
   25.9878   57.1639   86.5534 C   0  0  2  0  0  0  0  0  0  0  0  0
   25.1554   55.9394   87.0023 C   0  0  2  0  0  0  0  0  0  0  0  0
   18.9441   55.2694   88.8988 O   0  0  0  0  0  0  0  0  0  0  0  0
   19.1699   55.2798   87.7115 C   0  0  0  0  0  0  0  0  0  0  0  0
   18.1602   54.7870   86.7851 C   0  0  0  0  0  0  0  0  0  0  0  0
   17.3668   53.7545   87.1673 N   0  0  0  0  0  0  0  0  0  0  0  0
   16.4595   53.3179   86.3262 C   0  0  0  0  0  0  0  0  0  0  0  0
   16.3456   53.9543   85.0328 C   0  0  0  0  0  0  0  0  0  0  0  0
   15.1485   52.1235   84.0787 C   0  0  0  0  0  0  0  0  0  0  0  0
   17.1340   54.9703   84.6573 N   0  0  0  0  0  0  0  0  0  0  0  0
   18.0537   55.3990   85.5328 C   0  0  0  0  0  0  0  0  0  0  0  0
   20.3012   55.7849   87.1449 N   0  0  0  0  0  0  0  0  0  0  0  0
   21.4106   56.3125   87.7873 C   0  0  0  0  0  0  0  0  0  0  0  0
   21.3975   57.3537   88.7612 C   0  0  0  0  0  0  0  0  0  0  0  0
   22.6056   57.9141   89.1895 C   0  0  0  0  0  0  0  0  0  0  0  0
   23.7848   57.4399   88.6468 C   0  0  0  0  0  0  0  0  0  0  0  0
   24.8792   58.0028   89.0762 F   0  0  0  0  0  0  0  0  0  0  0  0
   22.6079   55.8285   87.2713 C   0  0  0  0  0  0  0  0  0  0  0  0
   23.8318   56.3760   87.6598 C   0  0  0  0  0  0  0  0  0  0  0  0
   24.8363   54.9619   85.9669 N   0  0  0  0  0  0  0  0  0  0  0  0
   24.4847   54.2400   83.7962 N   0  0  0  0  0  0  0  0  0  0  0  0
   25.1288   56.8286   83.9058 S   0  0  0  0  0  0  0  0  0  0  0  0
   25.3916   57.8934   85.3483 C   0  0  0  0  0  0  0  0  0  0  0  0
   28.6252   54.0213   88.8047 N   0  0  0  0  0  0  0  0  0  0  0  0
   29.8173   53.4674   89.1312 C   0  0  0  0  0  0  0  0  0  0  0  0
   31.0092   53.7998   88.4145 C   0  0  0  0  0  0  0  0  0  0  0  0
   32.1204   53.2399   88.6830 F   0  0  0  0  0  0  0  0  0  0  0  0
   29.8151   55.2876   86.9974 N   0  0  0  0  0  0  0  0  0  0  0  0
   31.8993   54.9834   86.8319 H   0  0  0  0  0  0  0  0  0  0  0  0
   25.9979   54.1284   87.9709 H   0  0  0  0  0  0  0  0  0  0  0  0
   26.1088   55.5424   88.9975 H   0  0  0  0  0  0  0  0  0  0  0  0
   28.1469   57.3552   86.5099 H   0  0  0  0  0  0  0  0  0  0  0  0
   27.5327   56.2306   85.3101 H   0  0  0  0  0  0  0  0  0  0  0  0
   26.0029   57.9718   87.2998 H   0  0  0  0  0  0  0  0  0  0  0  0
   15.7976   52.4830   86.5998 H   0  0  0  0  0  0  0  0  0  0  0  0
   15.0658   51.6984   85.0899 H   0  0  0  0  0  0  0  0  0  0  0  0
   14.2034   51.9690   83.5375 H   0  0  0  0  0  0  0  0  0  0  0  0
   15.9666   51.6258   83.5375 H   0  0  0  0  0  0  0  0  0  0  0  0
   18.7230   56.2303   85.2667 H   0  0  0  0  0  0  0  0  0  0  0  0
   20.3364   55.7735   86.1156 H   0  0  0  0  0  0  0  0  0  0  0  0
   20.4434   57.7141   89.1733 H   0  0  0  0  0  0  0  0  0  0  0  0
   22.6168   58.7156   89.9427 H   0  0  0  0  0  0  0  0  0  0  0  0
   22.5903   55.0016   86.5461 H   0  0  0  0  0  0  0  0  0  0  0  0
   24.6271   53.9969   86.2600 H   0  0  0  0  0  0  0  0  0  0  0  0
   24.4538   54.4481   82.7879 H   0  0  0  0  0  0  0  0  0  0  0  0
   24.2800   53.2881   84.1322 H   0  0  0  0  0  0  0  0  0  0  0  0
   24.4222   58.3199   85.6457 H   0  0  0  0  0  0  0  0  0  0  0  0
   26.1168   58.6645   85.0494 H   0  0  0  0  0  0  0  0  0  0  0  0
   29.8695   52.7490   89.9625 H   0  0  0  0  0  0  0  0  0  0  0  0
  1 15  1  0
  1 16  1  0
  2 33  2  0
  2 35  1  0
  3  5  1  0
  3 31  1  0
  3 35  2  0
  4 27  2  0
  4 28  1  0
  4 29  1  0
  5  6  1  0
  5  7  1  0
  6  9  1  0
  8  7  1  0
  8  9  1  0
  8 30  1  0
  9 26  1  1
  9 27  1  0
 10 11  2  0
 11 12  1  0
 11 19  1  0
 12 13  2  0
 12 18  1  0
 13 14  1  0
 14 15  2  0
 15 17  1  0
 17 18  2  0
 19 20  1  0
 20 21  2  0
 20 25  1  0
 21 22  1  0
 22 23  2  0
 23 24  1  0
 23 26  1  0
 25 26  2  0
 29 30  1  0
 31 32  2  0
 32 33  1  0
 33 34  1  0
  2 36  1  0
  6 37  1  0
  6 38  1  0
  7 39  1  0
  7 40  1  0
  8 41  1  1
 14 42  1  0
 16 43  1  0
 16 44  1  0
 16 45  1  0
 18 46  1  0
 19 47  1  0
 21 48  1  0
 22 49  1  0
 25 50  1  0
 27 51  1  0
 28 52  1  0
 28 53  1  0
 30 54  1  0
 30 55  1  0
 32 56  1  0
M  CHG  1  27   1
M  END
>  <filename_input>  (6) 
7MYU_ZR7_docked.sdf

>  <pdb_id>  (6) 
7MYU_ZR7

>  <pose_rank>  (6) 
5

>  <num_atoms_heavy>  (6) 
35

>  <num_torsions>  (6) 
4

>  <pose>  (6) 
[21.41061251579413, 56.31250445116241, 87.78728633056102, -0.03648368608789909, -3.202808178014279, 0.7953278146831828, 0.3999268286338206, -1.0905283519332, 2.2655395945798085, -1.1727531617101736]

>  <energy>  (6) 
-775.8538803200514

>  <inter_energy>  (6) 
-761.6526954541525

>  <intra_energy>  (6) 
17.191897820945318

>  <rmsd>  (6) 
10.2997

>  <sdf_rank>  (6) 
0

$$$$

     RDKit          3D

 56 60  0  0  0  0  0  0  0  0999 V2000
   14.2003   55.6883   88.4573 O   0  0  0  0  0  0  0  0  0  0  0  0
   24.5669   63.7021   90.7030 C   0  0  0  0  0  0  0  0  0  0  0  0
   23.9236   61.6495   89.7539 C   0  0  0  0  0  0  0  0  0  0  0  0
   26.4292   57.7186   88.2157 C   0  0  0  0  0  0  0  0  0  0  0  0
   24.1782   60.6778   88.8015 N   0  0  0  0  0  0  0  0  0  0  0  0
   23.3868   59.4601   88.6611 C   0  0  0  0  0  0  0  0  0  0  0  0
   25.2145   60.7973   87.7668 C   0  0  0  0  0  0  0  0  0  0  0  0
   24.8513   59.7153   86.7681 C   0  0  2  0  0  0  0  0  0  0  0  0
   24.2315   58.6035   87.6476 C   0  0  2  0  0  0  0  0  0  0  0  0
   20.3366   55.7622   88.8902 O   0  0  0  0  0  0  0  0  0  0  0  0
   19.6160   55.9602   87.9403 C   0  0  0  0  0  0  0  0  0  0  0  0
   18.1713   55.8926   88.1096 C   0  0  0  0  0  0  0  0  0  0  0  0
   17.6409   56.1484   89.3323 N   0  0  0  0  0  0  0  0  0  0  0  0
   16.3382   56.0857   89.4749 C   0  0  0  0  0  0  0  0  0  0  0  0
   15.5276   55.7477   88.3262 C   0  0  0  0  0  0  0  0  0  0  0  0
   13.6315   55.5379   89.7600 C   0  0  0  0  0  0  0  0  0  0  0  0
   16.0553   55.4911   87.1218 N   0  0  0  0  0  0  0  0  0  0  0  0
   17.3881   55.5607   87.0003 C   0  0  0  0  0  0  0  0  0  0  0  0
   20.0537   56.3114   86.6989 N   0  0  0  0  0  0  0  0  0  0  0  0
   21.3639   56.4474   86.2668 C   0  0  0  0  0  0  0  0  0  0  0  0
   22.0320   55.5954   85.3392 C   0  0  0  0  0  0  0  0  0  0  0  0
   23.4083   55.7407   85.1355 C   0  0  0  0  0  0  0  0  0  0  0  0
   24.0847   56.7113   85.8497 C   0  0  0  0  0  0  0  0  0  0  0  0
   25.3660   56.7975   85.6262 F   0  0  0  0  0  0  0  0  0  0  0  0
   22.0549   57.4371   86.9574 C   0  0  0  0  0  0  0  0  0  0  0  0
   23.4319   57.5992   86.7951 C   0  0  0  0  0  0  0  0  0  0  0  0
   25.1615   57.8426   88.4755 N   0  0  0  0  0  0  0  0  0  0  0  0
   27.2251   56.9737   89.0614 N   0  0  0  0  0  0  0  0  0  0  0  0
   27.3420   58.4296   86.8266 S   0  0  0  0  0  0  0  0  0  0  0  0
   26.0065   59.2236   85.8942 C   0  0  0  0  0  0  0  0  0  0  0  0
   22.7949   61.4833   90.5819 N   0  0  0  0  0  0  0  0  0  0  0  0
   22.5968   62.4654   91.4934 C   0  0  0  0  0  0  0  0  0  0  0  0
   23.4798   63.5870   91.5768 C   0  0  0  0  0  0  0  0  0  0  0  0
   23.3283   64.4833   92.4680 F   0  0  0  0  0  0  0  0  0  0  0  0
   24.8083   62.7515   89.7924 N   0  0  0  0  0  0  0  0  0  0  0  0
   25.2273   64.5796   90.7650 H   0  0  0  0  0  0  0  0  0  0  0  0
   23.2835   58.9423   89.6261 H   0  0  0  0  0  0  0  0  0  0  0  0
   22.3589   59.6485   88.3177 H   0  0  0  0  0  0  0  0  0  0  0  0
   25.1863   61.7912   87.2962 H   0  0  0  0  0  0  0  0  0  0  0  0
   26.2325   60.6833   88.1677 H   0  0  0  0  0  0  0  0  0  0  0  0
   24.1585   60.0962   86.0033 H   0  0  0  0  0  0  0  0  0  0  0  0
   15.8712   56.2866   90.4504 H   0  0  0  0  0  0  0  0  0  0  0  0
   14.3993   55.7409   90.5211 H   0  0  0  0  0  0  0  0  0  0  0  0
   12.7990   56.2467   89.8807 H   0  0  0  0  0  0  0  0  0  0  0  0
   13.2583   54.5101   89.8807 H   0  0  0  0  0  0  0  0  0  0  0  0
   17.8647   55.3573   86.0299 H   0  0  0  0  0  0  0  0  0  0  0  0
   19.3234   56.4984   85.9971 H   0  0  0  0  0  0  0  0  0  0  0  0
   21.4687   54.8286   84.7872 H   0  0  0  0  0  0  0  0  0  0  0  0
   23.9413   55.0956   84.4215 H   0  0  0  0  0  0  0  0  0  0  0  0
   21.5082   58.1023   87.6419 H   0  0  0  0  0  0  0  0  0  0  0  0
   24.7914   57.3758   89.3157 H   0  0  0  0  0  0  0  0  0  0  0  0
   28.2306   56.8699   88.8637 H   0  0  0  0  0  0  0  0  0  0  0  0
   26.8138   56.5215   89.8904 H   0  0  0  0  0  0  0  0  0  0  0  0
   25.6089   58.4967   85.1706 H   0  0  0  0  0  0  0  0  0  0  0  0
   26.4390   60.1096   85.4064 H   0  0  0  0  0  0  0  0  0  0  0  0
   21.7413   62.3990   92.1817 H   0  0  0  0  0  0  0  0  0  0  0  0
  1 15  1  0
  1 16  1  0
  2 33  2  0
  2 35  1  0
  3  5  1  0
  3 31  1  0
  3 35  2  0
  4 27  2  0
  4 28  1  0
  4 29  1  0
  5  6  1  0
  5  7  1  0
  6  9  1  0
  8  7  1  0
  8  9  1  0
  8 30  1  0
  9 26  1  6
  9 27  1  0
 10 11  2  0
 11 12  1  0
 11 19  1  0
 12 13  2  0
 12 18  1  0
 13 14  1  0
 14 15  2  0
 15 17  1  0
 17 18  2  0
 19 20  1  0
 20 21  2  0
 20 25  1  0
 21 22  1  0
 22 23  2  0
 23 24  1  0
 23 26  1  0
 25 26  2  0
 29 30  1  0
 31 32  2  0
 32 33  1  0
 33 34  1  0
  2 36  1  0
  6 37  1  0
  6 38  1  0
  7 39  1  0
  7 40  1  0
  8 41  1  6
 14 42  1  0
 16 43  1  0
 16 44  1  0
 16 45  1  0
 18 46  1  0
 19 47  1  0
 21 48  1  0
 22 49  1  0
 25 50  1  0
 27 51  1  0
 28 52  1  0
 28 53  1  0
 30 54  1  0
 30 55  1  0
 32 56  1  0
M  CHG  1  27   1
M  END
>  <filename_input>  (7) 
7MYU_ZR7_docked.sdf

>  <pdb_id>  (7) 
7MYU_ZR7

>  <pose_rank>  (7) 
6

>  <num_atoms_heavy>  (7) 
35

>  <num_torsions>  (7) 
4

>  <pose>  (7) 
[21.36388251167156, 56.44739782536125, 86.26682062966785, -0.2558524273920391, 0.9256977565316168, 3.504114145604171, -3.906055609668487, 1.78039476985779, 3.3212005974558103, -0.8492611959528971]

>  <energy>  (7) 
-543.8425791872589

>  <inter_energy>  (7) 
-604.9135823750939

>  <intra_energy>  (7) 
69.74013818616078

>  <rmsd>  (7) 
9.45416

>  <sdf_rank>  (7) 
0

$$$$

     RDKit          3D

 56 60  0  0  0  0  0  0  0  0999 V2000
   33.7926   64.5576   84.2617 O   0  0  0  0  0  0  0  0  0  0  0  0
   29.7720   52.9484   88.5267 C   0  0  0  0  0  0  0  0  0  0  0  0
   28.9196   54.9942   87.7418 C   0  0  0  0  0  0  0  0  0  0  0  0
   24.3726   56.7680   87.2175 C   0  0  0  0  0  0  0  0  0  0  0  0
   27.9559   55.6393   86.9861 N   0  0  0  0  0  0  0  0  0  0  0  0
   27.8729   57.0901   86.8545 C   0  0  0  0  0  0  0  0  0  0  0  0
   26.9614   54.9420   86.1595 C   0  0  0  0  0  0  0  0  0  0  0  0
   26.4177   56.0319   85.2558 C   0  0  2  0  0  0  0  0  0  0  0  0
   26.4896   57.3021   86.1363 C   0  0  2  0  0  0  0  0  0  0  0  0
   29.8924   59.9993   83.0821 O   0  0  0  0  0  0  0  0  0  0  0  0
   29.7037   60.9970   83.7376 C   0  0  0  0  0  0  0  0  0  0  0  0
   30.7759   61.9712   83.8859 C   0  0  0  0  0  0  0  0  0  0  0  0
   30.4773   63.2100   84.3526 N   0  0  0  0  0  0  0  0  0  0  0  0
   31.4501   64.0807   84.4835 C   0  0  0  0  0  0  0  0  0  0  0  0
   32.7934   63.6827   84.1256 C   0  0  0  0  0  0  0  0  0  0  0  0
   33.9420   65.6049   83.3005 C   0  0  0  0  0  0  0  0  0  0  0  0
   33.0834   62.4602   83.6606 N   0  0  0  0  0  0  0  0  0  0  0  0
   32.0736   61.5880   83.5349 C   0  0  0  0  0  0  0  0  0  0  0  0
   28.5162   61.3264   84.3182 N   0  0  0  0  0  0  0  0  0  0  0  0
   27.3432   60.5876   84.3321 C   0  0  0  0  0  0  0  0  0  0  0  0
   26.0692   61.0312   83.8707 C   0  0  0  0  0  0  0  0  0  0  0  0
   24.9355   60.2490   84.1152 C   0  0  0  0  0  0  0  0  0  0  0  0
   25.0863   59.0621   84.8069 C   0  0  0  0  0  0  0  0  0  0  0  0
   23.9963   58.3776   85.0131 F   0  0  0  0  0  0  0  0  0  0  0  0
   27.4812   59.3774   85.0031 C   0  0  0  0  0  0  0  0  0  0  0  0
   26.3704   58.5795   85.2826 C   0  0  0  0  0  0  0  0  0  0  0  0
   25.5113   57.3953   87.2149 N   0  0  0  0  0  0  0  0  0  0  0  0
   23.5142   56.9250   88.2861 N   0  0  0  0  0  0  0  0  0  0  0  0
   23.7269   55.6555   85.9471 S   0  0  0  0  0  0  0  0  0  0  0  0
   25.0230   55.7676   84.6858 C   0  0  0  0  0  0  0  0  0  0  0  0
   29.9145   55.7818   88.3557 N   0  0  0  0  0  0  0  0  0  0  0  0
   30.8296   55.0954   89.0810 C   0  0  0  0  0  0  0  0  0  0  0  0
   30.7728   53.6705   89.1867 C   0  0  0  0  0  0  0  0  0  0  0  0
   31.5982   53.0276   89.9118 F   0  0  0  0  0  0  0  0  0  0  0  0
   28.8402   53.5841   87.8065 N   0  0  0  0  0  0  0  0  0  0  0  0
   29.7511   51.8511   88.6005 H   0  0  0  0  0  0  0  0  0  0  0  0
   27.8852   57.5778   87.8404 H   0  0  0  0  0  0  0  0  0  0  0  0
   28.7191   57.5242   86.3019 H   0  0  0  0  0  0  0  0  0  0  0  0
   27.4329   54.1422   85.5695 H   0  0  0  0  0  0  0  0  0  0  0  0
   26.1778   54.4529   86.7568 H   0  0  0  0  0  0  0  0  0  0  0  0
   27.0087   56.1142   84.3317 H   0  0  0  0  0  0  0  0  0  0  0  0
   31.2475   65.0947   84.8587 H   0  0  0  0  0  0  0  0  0  0  0  0
   34.0788   66.5640   83.8215 H   0  0  0  0  0  0  0  0  0  0  0  0
   34.8202   65.4016   82.6701 H   0  0  0  0  0  0  0  0  0  0  0  0
   33.0419   65.6552   82.6701 H   0  0  0  0  0  0  0  0  0  0  0  0
   32.2655   60.5731   83.1566 H   0  0  0  0  0  0  0  0  0  0  0  0
   28.4862   62.2334   84.8055 H   0  0  0  0  0  0  0  0  0  0  0  0
   25.9783   61.9824   83.3258 H   0  0  0  0  0  0  0  0  0  0  0  0
   23.9443   60.5720   83.7642 H   0  0  0  0  0  0  0  0  0  0  0  0
   28.4809   59.0438   85.3183 H   0  0  0  0  0  0  0  0  0  0  0  0
   25.7363   57.9938   88.0225 H   0  0  0  0  0  0  0  0  0  0  0  0
   22.6099   56.4321   88.2969 H   0  0  0  0  0  0  0  0  0  0  0  0
   23.7776   57.5352   89.0730 H   0  0  0  0  0  0  0  0  0  0  0  0
   24.7680   56.5877   83.9984 H   0  0  0  0  0  0  0  0  0  0  0  0
   25.0632   54.7916   84.1800 H   0  0  0  0  0  0  0  0  0  0  0  0
   31.6309   55.6439   89.5979 H   0  0  0  0  0  0  0  0  0  0  0  0
  1 15  1  0
  1 16  1  0
  2 33  2  0
  2 35  1  0
  3  5  1  0
  3 31  1  0
  3 35  2  0
  4 27  2  0
  4 28  1  0
  4 29  1  0
  5  6  1  0
  5  7  1  0
  6  9  1  0
  8  7  1  0
  8  9  1  0
  8 30  1  0
  9 26  1  6
  9 27  1  0
 10 11  2  0
 11 12  1  0
 11 19  1  0
 12 13  2  0
 12 18  1  0
 13 14  1  0
 14 15  2  0
 15 17  1  0
 17 18  2  0
 19 20  1  0
 20 21  2  0
 20 25  1  0
 21 22  1  0
 22 23  2  0
 23 24  1  0
 23 26  1  0
 25 26  2  0
 29 30  1  0
 31 32  2  0
 32 33  1  0
 33 34  1  0
  2 36  1  0
  6 37  1  0
  6 38  1  0
  7 39  1  0
  7 40  1  0
  8 41  1  6
 14 42  1  0
 16 43  1  0
 16 44  1  0
 16 45  1  0
 18 46  1  0
 19 47  1  0
 21 48  1  0
 22 49  1  0
 25 50  1  0
 27 51  1  0
 28 52  1  0
 28 53  1  0
 30 54  1  0
 30 55  1  0
 32 56  1  0
M  CHG  1  27   1
M  END
>  <filename_input>  (8) 
7MYU_ZR7_docked.sdf

>  <pdb_id>  (8) 
7MYU_ZR7

>  <pose_rank>  (8) 
7

>  <num_atoms_heavy>  (8) 
35

>  <num_torsions>  (8) 
4

>  <pose>  (8) 
[27.34322914075348, 60.58764347074806, 84.33207652101157, 0.6801206596736525, 0.6185580252817843, 0.8841443645564078, 2.5826022861644056, -2.319196383344124, -0.5401245803326191, -1.8418999637601885]

>  <energy>  (8) 
-702.5753323618243

>  <inter_energy>  (8) 
-704.1579353769449

>  <intra_energy>  (8) 
58.34541080155887

>  <rmsd>  (8) 
8.94944

>  <sdf_rank>  (8) 
0

$$$$

     RDKit          3D

 56 60  0  0  0  0  0  0  0  0999 V2000
   31.5547   62.9841   79.4083 O   0  0  0  0  0  0  0  0  0  0  0  0
   29.7822   52.9826   87.9539 C   0  0  0  0  0  0  0  0  0  0  0  0
   28.8249   55.1235   87.7856 C   0  0  0  0  0  0  0  0  0  0  0  0
   24.2012   56.7222   87.3837 C   0  0  0  0  0  0  0  0  0  0  0  0
   27.8749   55.9284   87.1810 N   0  0  0  0  0  0  0  0  0  0  0  0
   27.6788   57.3348   87.5166 C   0  0  0  0  0  0  0  0  0  0  0  0
   27.0153   55.4897   86.0732 C   0  0  0  0  0  0  0  0  0  0  0  0
   26.4563   56.7854   85.5174 C   0  0  2  0  0  0  0  0  0  0  0  0
   26.3463   57.6965   86.7631 C   0  0  2  0  0  0  0  0  0  0  0  0
   29.4358   62.2404   85.1025 O   0  0  0  0  0  0  0  0  0  0  0  0
   28.8834   62.0056   84.0534 C   0  0  0  0  0  0  0  0  0  0  0  0
   29.5730   62.2845   82.8016 C   0  0  0  0  0  0  0  0  0  0  0  0
   29.0017   63.1363   81.9130 N   0  0  0  0  0  0  0  0  0  0  0  0
   29.6308   63.3820   80.7882 C   0  0  0  0  0  0  0  0  0  0  0  0
   30.9016   62.7359   80.5459 C   0  0  0  0  0  0  0  0  0  0  0  0
   32.9822   63.0577   79.4223 C   0  0  0  0  0  0  0  0  0  0  0  0
   31.4602   61.8918   81.4235 N   0  0  0  0  0  0  0  0  0  0  0  0
   30.7990   61.6559   82.5652 C   0  0  0  0  0  0  0  0  0  0  0  0
   27.6547   61.4281   83.9399 N   0  0  0  0  0  0  0  0  0  0  0  0
   26.7901   61.0626   84.9600 C   0  0  0  0  0  0  0  0  0  0  0  0
   26.0254   61.9537   85.7687 C   0  0  0  0  0  0  0  0  0  0  0  0
   25.3375   61.4584   86.8816 C   0  0  0  0  0  0  0  0  0  0  0  0
   25.4252   60.1093   87.1679 C   0  0  0  0  0  0  0  0  0  0  0  0
   24.7709   59.7041   88.2199 F   0  0  0  0  0  0  0  0  0  0  0  0
   26.8457   59.7029   85.2468 C   0  0  0  0  0  0  0  0  0  0  0  0
   26.1887   59.1754   86.3598 C   0  0  0  0  0  0  0  0  0  0  0  0
   25.2782   57.3759   87.7042 N   0  0  0  0  0  0  0  0  0  0  0  0
   23.2474   56.4717   88.3485 N   0  0  0  0  0  0  0  0  0  0  0  0
   23.7600   56.0572   85.7614 S   0  0  0  0  0  0  0  0  0  0  0  0
   25.1411   56.6486   84.7484 C   0  0  0  0  0  0  0  0  0  0  0  0
   29.6946   55.7175   88.7225 N   0  0  0  0  0  0  0  0  0  0  0  0
   30.6025   54.8810   89.2800 C   0  0  0  0  0  0  0  0  0  0  0  0
   30.6596   53.5000   88.9136 C   0  0  0  0  0  0  0  0  0  0  0  0
   31.4746   52.6998   89.4755 F   0  0  0  0  0  0  0  0  0  0  0  0
   28.8617   53.7688   87.3830 N   0  0  0  0  0  0  0  0  0  0  0  0
   29.8495   51.9229   87.6670 H   0  0  0  0  0  0  0  0  0  0  0  0
   27.5681   57.4703   88.6026 H   0  0  0  0  0  0  0  0  0  0  0  0
   28.5273   57.9719   87.2265 H   0  0  0  0  0  0  0  0  0  0  0  0
   27.6006   54.9557   85.3102 H   0  0  0  0  0  0  0  0  0  0  0  0
   26.2300   54.7895   86.3943 H   0  0  0  0  0  0  0  0  0  0  0  0
   27.1121   57.1994   84.7373 H   0  0  0  0  0  0  0  0  0  0  0  0
   29.1996   64.0669   80.0432 H   0  0  0  0  0  0  0  0  0  0  0  0
   33.3382   63.0760   80.4629 H   0  0  0  0  0  0  0  0  0  0  0  0
   33.3997   62.1799   78.9073 H   0  0  0  0  0  0  0  0  0  0  0  0
   33.3072   63.9738   78.9073 H   0  0  0  0  0  0  0  0  0  0  0  0
   31.2201   60.9692   83.3144 H   0  0  0  0  0  0  0  0  0  0  0  0
   27.3290   61.2407   82.9809 H   0  0  0  0  0  0  0  0  0  0  0  0
   25.9767   63.0239   85.5191 H   0  0  0  0  0  0  0  0  0  0  0  0
   24.7392   62.1291   87.5158 H   0  0  0  0  0  0  0  0  0  0  0  0
   27.4160   59.0329   84.5866 H   0  0  0  0  0  0  0  0  0  0  0  0
   25.3838   57.6862   88.6806 H   0  0  0  0  0  0  0  0  0  0  0  0
   22.3909   55.9545   88.1039 H   0  0  0  0  0  0  0  0  0  0  0  0
   23.3919   56.8018   89.3134 H   0  0  0  0  0  0  0  0  0  0  0  0
   24.8742   57.6343   84.3396 H   0  0  0  0  0  0  0  0  0  0  0  0
   25.3064   55.8975   83.9620 H   0  0  0  0  0  0  0  0  0  0  0  0
   31.3085   55.2711   90.0280 H   0  0  0  0  0  0  0  0  0  0  0  0
  1 15  1  0
  1 16  1  0
  2 33  2  0
  2 35  1  0
  3  5  1  0
  3 31  1  0
  3 35  2  0
  4 27  2  0
  4 28  1  0
  4 29  1  0
  5  6  1  0
  5  7  1  0
  6  9  1  0
  8  7  1  0
  8  9  1  0
  8 30  1  0
  9 26  1  6
  9 27  1  0
 10 11  2  0
 11 12  1  0
 11 19  1  0
 12 13  2  0
 12 18  1  0
 13 14  1  0
 14 15  2  0
 15 17  1  0
 17 18  2  0
 19 20  1  0
 20 21  2  0
 20 25  1  0
 21 22  1  0
 22 23  2  0
 23 24  1  0
 23 26  1  0
 25 26  2  0
 29 30  1  0
 31 32  2  0
 32 33  1  0
 33 34  1  0
  2 36  1  0
  6 37  1  0
  6 38  1  0
  7 39  1  0
  7 40  1  0
  8 41  1  6
 14 42  1  0
 16 43  1  0
 16 44  1  0
 16 45  1  0
 18 46  1  0
 19 47  1  0
 21 48  1  0
 22 49  1  0
 25 50  1  0
 27 51  1  0
 28 52  1  0
 28 53  1  0
 30 54  1  0
 30 55  1  0
 32 56  1  0
M  CHG  1  27   1
M  END
>  <filename_input>  (9) 
7MYU_ZR7_docked.sdf

>  <pdb_id>  (9) 
7MYU_ZR7

>  <pose_rank>  (9) 
8

>  <num_atoms_heavy>  (9) 
35

>  <num_torsions>  (9) 
4

>  <pose>  (9) 
[26.790131120514044, 61.062564270696306, 84.96004397977832, -3.3308895176110385, -2.91078220345003, -0.3676086944965758, 3.781975287249731, 1.1145800223356255, 0.736374584593341, 2.0017032216332598]

>  <energy>  (9) 
-687.3199792197194

>  <inter_energy>  (9) 
-666.9954253009201

>  <intra_energy>  (9) 
27.816727124267786

>  <rmsd>  (9) 
9.26103

>  <sdf_rank>  (9) 
0

$$$$

     RDKit          3D

 56 60  0  0  0  0  0  0  0  0999 V2000
   19.0870   55.5849   88.2473 O   0  0  0  0  0  0  0  0  0  0  0  0
   32.7034   63.2105   83.9986 C   0  0  0  0  0  0  0  0  0  0  0  0
   31.3541   61.9513   85.4552 C   0  0  0  0  0  0  0  0  0  0  0  0
   27.0511   59.6513   84.9161 C   0  0  0  0  0  0  0  0  0  0  0  0
   30.0750   61.6650   85.9002 N   0  0  0  0  0  0  0  0  0  0  0  0
   29.7818   60.6619   86.9185 C   0  0  0  0  0  0  0  0  0  0  0  0
   28.8753   62.3943   85.4674 C   0  0  0  0  0  0  0  0  0  0  0  0
   27.8258   61.9969   86.4878 C   0  0  2  0  0  0  0  0  0  0  0  0
   28.2141   60.5464   86.8609 C   0  0  2  0  0  0  0  0  0  0  0  0
   24.3326   58.4675   86.8466 O   0  0  0  0  0  0  0  0  0  0  0  0
   23.8783   58.1557   87.9223 C   0  0  0  0  0  0  0  0  0  0  0  0
   22.6069   57.4487   87.9863 C   0  0  0  0  0  0  0  0  0  0  0  0
   22.4356   56.3361   87.2285 N   0  0  0  0  0  0  0  0  0  0  0  0
   21.2869   55.7054   87.2934 C   0  0  0  0  0  0  0  0  0  0  0  0
   20.2573   56.2225   88.1671 C   0  0  0  0  0  0  0  0  0  0  0  0
   18.2383   55.5322   87.0983 C   0  0  0  0  0  0  0  0  0  0  0  0
   20.4285   57.3240   88.9102 N   0  0  0  0  0  0  0  0  0  0  0  0
   21.6098   57.9516   88.8272 C   0  0  0  0  0  0  0  0  0  0  0  0
   24.5041   58.3636   89.1144 N   0  0  0  0  0  0  0  0  0  0  0  0
   25.7119   59.0057   89.3395 C   0  0  0  0  0  0  0  0  0  0  0  0
   26.1862   59.4795   90.5978 C   0  0  0  0  0  0  0  0  0  0  0  0
   27.3376   60.2725   90.6478 C   0  0  0  0  0  0  0  0  0  0  0  0
   27.9827   60.5786   89.4647 C   0  0  0  0  0  0  0  0  0  0  0  0
   29.0452   61.3265   89.5693 F   0  0  0  0  0  0  0  0  0  0  0  0
   26.3886   59.3008   88.1610 C   0  0  0  0  0  0  0  0  0  0  0  0
   27.5295   60.1052   88.1690 C   0  0  0  0  0  0  0  0  0  0  0  0
   27.9446   59.5270   85.8522 N   0  0  0  0  0  0  0  0  0  0  0  0
   26.8708   58.6265   84.0102 N   0  0  0  0  0  0  0  0  0  0  0  0
   25.9569   61.0597   84.6200 S   0  0  0  0  0  0  0  0  0  0  0  0
   26.3770   62.1347   86.0169 C   0  0  0  0  0  0  0  0  0  0  0  0
   32.4329   61.2873   86.0737 N   0  0  0  0  0  0  0  0  0  0  0  0
   33.6594   61.6084   85.5970 C   0  0  0  0  0  0  0  0  0  0  0  0
   33.8183   62.5677   84.5485 C   0  0  0  0  0  0  0  0  0  0  0  0
   34.9643   62.8309   84.0609 F   0  0  0  0  0  0  0  0  0  0  0  0
   31.4708   62.9184   84.4307 N   0  0  0  0  0  0  0  0  0  0  0  0
   32.8410   63.9606   83.2059 H   0  0  0  0  0  0  0  0  0  0  0  0
   30.2581   59.7007   86.6752 H   0  0  0  0  0  0  0  0  0  0  0  0
   30.1600   60.9329   87.9152 H   0  0  0  0  0  0  0  0  0  0  0  0
   29.0486   63.4804   85.4855 H   0  0  0  0  0  0  0  0  0  0  0  0
   28.5792   62.1542   84.4356 H   0  0  0  0  0  0  0  0  0  0  0  0
   27.8309   62.6797   87.3502 H   0  0  0  0  0  0  0  0  0  0  0  0
   21.1104   54.8000   86.6942 H   0  0  0  0  0  0  0  0  0  0  0  0
   17.1886   55.4670   87.4206 H   0  0  0  0  0  0  0  0  0  0  0  0
   18.3809   56.4409   86.4951 H   0  0  0  0  0  0  0  0  0  0  0  0
   18.4923   54.6481   86.4951 H   0  0  0  0  0  0  0  0  0  0  0  0
   21.7942   58.8601   89.4192 H   0  0  0  0  0  0  0  0  0  0  0  0
   24.0218   58.0001   89.9488 H   0  0  0  0  0  0  0  0  0  0  0  0
   25.6502   59.2232   91.5235 H   0  0  0  0  0  0  0  0  0  0  0  0
   27.7215   60.6447   91.6090 H   0  0  0  0  0  0  0  0  0  0  0  0
   26.0193   58.8942   87.2079 H   0  0  0  0  0  0  0  0  0  0  0  0
   28.4951   58.6570   85.8837 H   0  0  0  0  0  0  0  0  0  0  0  0
   26.1653   58.7159   83.2651 H   0  0  0  0  0  0  0  0  0  0  0  0
   27.4416   57.7719   84.0790 H   0  0  0  0  0  0  0  0  0  0  0  0
   25.7137   61.8852   86.8582 H   0  0  0  0  0  0  0  0  0  0  0  0
   26.2490   63.1717   85.6731 H   0  0  0  0  0  0  0  0  0  0  0  0
   34.5491   61.1226   86.0240 H   0  0  0  0  0  0  0  0  0  0  0  0
  1 15  1  0
  1 16  1  0
  2 33  2  0
  2 35  1  0
  3  5  1  0
  3 31  1  0
  3 35  2  0
  4 27  2  0
  4 28  1  0
  4 29  1  0
  5  6  1  0
  5  7  1  0
  6  9  1  0
  8  7  1  0
  8  9  1  0
  8 30  1  0
  9 26  1  1
  9 27  1  0
 10 11  2  0
 11 12  1  0
 11 19  1  0
 12 13  2  0
 12 18  1  0
 13 14  1  0
 14 15  2  0
 15 17  1  0
 17 18  2  0
 19 20  1  0
 20 21  2  0
 20 25  1  0
 21 22  1  0
 22 23  2  0
 23 24  1  0
 23 26  1  0
 25 26  2  0
 29 30  1  0
 31 32  2  0
 32 33  1  0
 33 34  1  0
  2 36  1  0
  6 37  1  0
  6 38  1  0
  7 39  1  0
  7 40  1  0
  8 41  1  1
 14 42  1  0
 16 43  1  0
 16 44  1  0
 16 45  1  0
 18 46  1  0
 19 47  1  0
 21 48  1  0
 22 49  1  0
 25 50  1  0
 27 51  1  0
 28 52  1  0
 28 53  1  0
 30 54  1  0
 30 55  1  0
 32 56  1  0
M  CHG  1  27   1
M  END
>  <filename_input>  (10) 
7MYU_ZR7_docked.sdf

>  <pdb_id>  (10) 
7MYU_ZR7

>  <pose_rank>  (10) 
9

>  <num_atoms_heavy>  (10) 
35

>  <num_torsions>  (10) 
4

>  <pose>  (10) 
[25.711918516478924, 59.00569629188582, 89.33951798830081, -0.6345102029520248, 3.4465615439072725, 0.14842110582634419, 6.165528730082329, 2.711262627907523, 3.7559803845478097, -1.6495750667448563]

>  <energy>  (10) 
-288.58588334514957

>  <inter_energy>  (10) 
-339.0858728643931

>  <intra_energy>  (10) 
49.59336296033061

>  <rmsd>  (10) 
11.2998

>  <sdf_rank>  (10) 
0

$$$$

     RDKit          3D

 56 60  0  0  0  0  0  0  0  0999 V2000
   14.8891   56.4350   91.4106 O   0  0  0  0  0  0  0  0  0  0  0  0
   26.7223   61.6976   89.8791 C   0  0  0  0  0  0  0  0  0  0  0  0
   25.3378   59.9915   89.0420 C   0  0  0  0  0  0  0  0  0  0  0  0
   26.0852   56.2744   85.9242 C   0  0  0  0  0  0  0  0  0  0  0  0
   24.9515   59.2402   87.9455 N   0  0  0  0  0  0  0  0  0  0  0  0
   23.9568   58.1746   88.0089 C   0  0  0  0  0  0  0  0  0  0  0  0
   25.4284   59.4834   86.5773 C   0  0  0  0  0  0  0  0  0  0  0  0
   24.4584   58.6996   85.7142 C   0  0  2  0  0  0  0  0  0  0  0  0
   24.0832   57.4876   86.5996 C   0  0  2  0  0  0  0  0  0  0  0  0
   17.6856   55.4989   86.0281 O   0  0  0  0  0  0  0  0  0  0  0  0
   18.1454   55.8775   87.0797 C   0  0  0  0  0  0  0  0  0  0  0  0
   17.2759   55.9952   88.2419 C   0  0  0  0  0  0  0  0  0  0  0  0
   17.0086   54.8861   88.9767 N   0  0  0  0  0  0  0  0  0  0  0  0
   16.2247   55.0021   90.0224 C   0  0  0  0  0  0  0  0  0  0  0  0
   15.6818   56.3031   90.3445 C   0  0  0  0  0  0  0  0  0  0  0  0
   13.6279   55.7625   91.4327 C   0  0  0  0  0  0  0  0  0  0  0  0
   15.9442   57.3949   89.6138 N   0  0  0  0  0  0  0  0  0  0  0  0
   16.7470   57.2520   88.5502 C   0  0  0  0  0  0  0  0  0  0  0  0
   19.4623   56.1551   87.2915 N   0  0  0  0  0  0  0  0  0  0  0  0
   20.4963   56.1242   86.3686 C   0  0  0  0  0  0  0  0  0  0  0  0
   20.5402   55.3272   85.1872 C   0  0  0  0  0  0  0  0  0  0  0  0
   21.7239   55.2569   84.4451 C   0  0  0  0  0  0  0  0  0  0  0  0
   22.8255   55.9649   84.8868 C   0  0  0  0  0  0  0  0  0  0  0  0
   23.9032   55.8572   84.1616 F   0  0  0  0  0  0  0  0  0  0  0  0
   21.6062   56.8518   86.7842 C   0  0  0  0  0  0  0  0  0  0  0  0
   22.8103   56.7911   86.0807 C   0  0  0  0  0  0  0  0  0  0  0  0
   25.1127   56.4667   86.7651 N   0  0  0  0  0  0  0  0  0  0  0  0
   27.0081   55.2790   86.1707 N   0  0  0  0  0  0  0  0  0  0  0  0
   26.4144   57.1837   84.3967 S   0  0  0  0  0  0  0  0  0  0  0  0
   24.9901   58.3022   84.3360 C   0  0  0  0  0  0  0  0  0  0  0  0
   24.6799   59.7596   90.2669 N   0  0  0  0  0  0  0  0  0  0  0  0
   25.0999   60.5245   91.3028 C   0  0  0  0  0  0  0  0  0  0  0  0
   26.1310   61.5004   91.1321 C   0  0  0  0  0  0  0  0  0  0  0  0
   26.5660   62.1819   92.1152 F   0  0  0  0  0  0  0  0  0  0  0  0
   26.3468   60.9585   88.8284 N   0  0  0  0  0  0  0  0  0  0  0  0
   27.5008   62.4650   89.7570 H   0  0  0  0  0  0  0  0  0  0  0  0
   24.1887   57.4650   88.8168 H   0  0  0  0  0  0  0  0  0  0  0  0
   22.9420   58.5413   88.2228 H   0  0  0  0  0  0  0  0  0  0  0  0
   25.3921   60.5555   86.3339 H   0  0  0  0  0  0  0  0  0  0  0  0
   26.4745   59.1768   86.4295 H   0  0  0  0  0  0  0  0  0  0  0  0
   23.5899   59.3136   85.4337 H   0  0  0  0  0  0  0  0  0  0  0  0
   15.9849   54.1259   90.6426 H   0  0  0  0  0  0  0  0  0  0  0  0
   13.3186   55.5976   92.4754 H   0  0  0  0  0  0  0  0  0  0  0  0
   12.8747   56.3788   90.9199 H   0  0  0  0  0  0  0  0  0  0  0  0
   13.7198   54.7937   90.9199 H   0  0  0  0  0  0  0  0  0  0  0  0
   16.9892   58.1214   87.9214 H   0  0  0  0  0  0  0  0  0  0  0  0
   19.7206   56.4199   88.2527 H   0  0  0  0  0  0  0  0  0  0  0  0
   19.6488   54.7711   84.8613 H   0  0  0  0  0  0  0  0  0  0  0  0
   21.7769   54.6506   83.5288 H   0  0  0  0  0  0  0  0  0  0  0  0
   21.5341   57.4848   87.6809 H   0  0  0  0  0  0  0  0  0  0  0  0
   25.0659   55.8624   87.5979 H   0  0  0  0  0  0  0  0  0  0  0  0
   27.7821   55.1192   85.5102 H   0  0  0  0  0  0  0  0  0  0  0  0
   26.9231   54.6955   87.0153 H   0  0  0  0  0  0  0  0  0  0  0  0
   24.1808   57.8034   83.7826 H   0  0  0  0  0  0  0  0  0  0  0  0
   25.3289   59.2261   83.8446 H   0  0  0  0  0  0  0  0  0  0  0  0
   24.6397   60.3925   92.2932 H   0  0  0  0  0  0  0  0  0  0  0  0
  1 15  1  0
  1 16  1  0
  2 33  2  0
  2 35  1  0
  3  5  1  0
  3 31  1  0
  3 35  2  0
  4 27  2  0
  4 28  1  0
  4 29  1  0
  5  6  1  0
  5  7  1  0
  6  9  1  0
  8  7  1  0
  8  9  1  0
  8 30  1  0
  9 26  1  6
  9 27  1  0
 10 11  2  0
 11 12  1  0
 11 19  1  0
 12 13  2  0
 12 18  1  0
 13 14  1  0
 14 15  2  0
 15 17  1  0
 17 18  2  0
 19 20  1  0
 20 21  2  0
 20 25  1  0
 21 22  1  0
 22 23  2  0
 23 24  1  0
 23 26  1  0
 25 26  2  0
 29 30  1  0
 31 32  2  0
 32 33  1  0
 33 34  1  0
  2 36  1  0
  6 37  1  0
  6 38  1  0
  7 39  1  0
  7 40  1  0
  8 41  1  6
 14 42  1  0
 16 43  1  0
 16 44  1  0
 16 45  1  0
 18 46  1  0
 19 47  1  0
 21 48  1  0
 22 49  1  0
 25 50  1  0
 27 51  1  0
 28 52  1  0
 28 53  1  0
 30 54  1  0
 30 55  1  0
 32 56  1  0
M  CHG  1  27   1
M  END
>  <filename_input>  (11) 
7MYU_ZR7_docked.sdf

>  <pdb_id>  (11) 
7MYU_ZR7

>  <pose_rank>  (11) 
10

>  <num_atoms_heavy>  (11) 
35

>  <num_torsions>  (11) 
4

>  <pose>  (11) 
[20.49628717209633, 56.12416048848442, 86.36862243367773, 0.4914380372307206, 0.5020282696177394, 3.4442837034940297, 2.4885614072612356, -0.6186696652587419, -1.9806445384568832, -1.6314706041862643]

>  <energy>  (11) 
-655.9746069643812

>  <inter_energy>  (11) 
-723.2305820824303

>  <intra_energy>  (11) 
67.45142001052459

>  <rmsd>  (11) 
9.73558

>  <sdf_rank>  (11) 
0

$$$$

     RDKit          3D

 56 60  0  0  0  0  0  0  0  0999 V2000
   28.8643   57.6403   86.7257 O   0  0  0  0  0  0  0  0  0  0  0  0
   16.9258   53.4413   84.1640 C   0  0  0  0  0  0  0  0  0  0  0  0
   18.1589   54.0729   86.0636 C   0  0  0  0  0  0  0  0  0  0  0  0
   16.8929   55.3019   90.6443 C   0  0  0  0  0  0  0  0  0  0  0  0
   18.2590   54.9137   87.1586 N   0  0  0  0  0  0  0  0  0  0  0  0
   19.3391   54.8380   88.1367 C   0  0  0  0  0  0  0  0  0  0  0  0
   17.3441   56.0340   87.4169 C   0  0  0  0  0  0  0  0  0  0  0  0
   18.0714   56.8580   88.4621 C   0  0  2  0  0  0  0  0  0  0  0  0
   18.8493   55.8003   89.2805 C   0  0  2  0  0  0  0  0  0  0  0  0
   23.6857   59.5475   89.3619 O   0  0  0  0  0  0  0  0  0  0  0  0
   24.0810   58.4150   89.2137 C   0  0  0  0  0  0  0  0  0  0  0  0
   25.3488   58.1807   88.5367 C   0  0  0  0  0  0  0  0  0  0  0  0
   25.4649   57.1081   87.7134 N   0  0  0  0  0  0  0  0  0  0  0  0
   26.6107   56.9056   87.1073 C   0  0  0  0  0  0  0  0  0  0  0  0
   27.6960   57.8317   87.3428 C   0  0  0  0  0  0  0  0  0  0  0  0
   29.4715   58.7272   86.0233 C   0  0  0  0  0  0  0  0  0  0  0  0
   27.5790   58.8868   88.1600 N   0  0  0  0  0  0  0  0  0  0  0  0
   26.3995   59.0731   88.7684 C   0  0  0  0  0  0  0  0  0  0  0  0
   23.4498   57.3076   89.6945 N   0  0  0  0  0  0  0  0  0  0  0  0
   22.2411   57.2447   90.3705 C   0  0  0  0  0  0  0  0  0  0  0  0
   22.0480   57.4793   91.7635 C   0  0  0  0  0  0  0  0  0  0  0  0
   20.8067   57.2002   92.3453 C   0  0  0  0  0  0  0  0  0  0  0  0
   19.7985   56.6970   91.5453 C   0  0  0  0  0  0  0  0  0  0  0  0
   18.6660   56.4482   92.1408 F   0  0  0  0  0  0  0  0  0  0  0  0
   21.2074   56.7632   89.5745 C   0  0  0  0  0  0  0  0  0  0  0  0
   19.9614   56.4548   90.1230 C   0  0  0  0  0  0  0  0  0  0  0  0
   18.0540   54.9601   90.1698 N   0  0  0  0  0  0  0  0  0  0  0  0
   16.2206   54.4356   91.4815 N   0  0  0  0  0  0  0  0  0  0  0  0
   15.9880   56.8368   90.3380 S   0  0  0  0  0  0  0  0  0  0  0  0
   17.1768   57.7523   89.3222 C   0  0  0  0  0  0  0  0  0  0  0  0
   19.1968   53.1439   85.8469 N   0  0  0  0  0  0  0  0  0  0  0  0
   19.0441   52.3493   84.7606 C   0  0  0  0  0  0  0  0  0  0  0  0
   17.9060   52.4767   83.9044 C   0  0  0  0  0  0  0  0  0  0  0  0
   17.7320   51.6952   82.9147 F   0  0  0  0  0  0  0  0  0  0  0  0
   17.0289   54.2424   85.2311 N   0  0  0  0  0  0  0  0  0  0  0  0
   16.0651   53.5418   83.4865 H   0  0  0  0  0  0  0  0  0  0  0  0
   19.4627   53.8107   88.5103 H   0  0  0  0  0  0  0  0  0  0  0  0
   20.3187   55.1197   87.7232 H   0  0  0  0  0  0  0  0  0  0  0  0
   17.1749   56.6212   86.5023 H   0  0  0  0  0  0  0  0  0  0  0  0
   16.3493   55.7038   87.7506 H   0  0  0  0  0  0  0  0  0  0  0  0
   18.7263   57.6070   87.9931 H   0  0  0  0  0  0  0  0  0  0  0  0
   26.7434   56.0472   86.4324 H   0  0  0  0  0  0  0  0  0  0  0  0
   29.8758   59.4508   86.7464 H   0  0  0  0  0  0  0  0  0  0  0  0
   30.2871   58.3455   85.3915 H   0  0  0  0  0  0  0  0  0  0  0  0
   28.7189   59.2216   85.3915 H   0  0  0  0  0  0  0  0  0  0  0  0
   26.2585   59.9262   89.4484 H   0  0  0  0  0  0  0  0  0  0  0  0
   23.9281   56.4091   89.5369 H   0  0  0  0  0  0  0  0  0  0  0  0
   22.8698   57.8771   92.3769 H   0  0  0  0  0  0  0  0  0  0  0  0
   20.6367   57.3778   93.4175 H   0  0  0  0  0  0  0  0  0  0  0  0
   21.3742   56.6233   88.4963 H   0  0  0  0  0  0  0  0  0  0  0  0
   18.4352   54.0415   90.4376 H   0  0  0  0  0  0  0  0  0  0  0  0
   15.3002   54.6977   91.8623 H   0  0  0  0  0  0  0  0  0  0  0  0
   16.6391   53.5267   91.7258 H   0  0  0  0  0  0  0  0  0  0  0  0
   17.8189   58.3458   89.9897 H   0  0  0  0  0  0  0  0  0  0  0  0
   16.5929   58.3796   88.6325 H   0  0  0  0  0  0  0  0  0  0  0  0
   19.8092   51.5925   84.5330 H   0  0  0  0  0  0  0  0  0  0  0  0
  1 15  1  0
  1 16  1  0
  2 33  2  0
  2 35  1  0
  3  5  1  0
  3 31  1  0
  3 35  2  0
  4 27  2  0
  4 28  1  0
  4 29  1  0
  5  6  1  0
  5  7  1  0
  6  9  1  0
  8  7  1  0
  8  9  1  0
  8 30  1  0
  9 26  1  1
  9 27  1  0
 10 11  2  0
 11 12  1  0
 11 19  1  0
 12 13  2  0
 12 18  1  0
 13 14  1  0
 14 15  2  0
 15 17  1  0
 17 18  2  0
 19 20  1  0
 20 21  2  0
 20 25  1  0
 21 22  1  0
 22 23  2  0
 23 24  1  0
 23 26  1  0
 25 26  2  0
 29 30  1  0
 31 32  2  0
 32 33  1  0
 33 34  1  0
  2 36  1  0
  6 37  1  0
  6 38  1  0
  7 39  1  0
  7 40  1  0
  8 41  1  6
 14 42  1  0
 16 43  1  0
 16 44  1  0
 16 45  1  0
 18 46  1  0
 19 47  1  0
 21 48  1  0
 22 49  1  0
 25 50  1  0
 27 51  1  0
 28 52  1  0
 28 53  1  0
 30 54  1  0
 30 55  1  0
 32 56  1  0
M  CHG  1  27   1
M  END
>  <filename_input>  (12) 
7MYU_ZR7_docked.sdf

>  <pdb_id>  (12) 
7MYU_ZR7

>  <pose_rank>  (12) 
11

>  <num_atoms_heavy>  (12) 
35

>  <num_torsions>  (12) 
4

>  <pose>  (12) 
[22.24108891013733, 57.244727052942174, 90.37050373099382, 2.6128821720075637, 0.19503341869070429, 0.049402430592865317, -3.3168392477681206, -1.593429431639592, 12.939305119509244, -4.526318116974197]

>  <energy>  (12) 
-570.266338594201

>  <inter_energy>  (12) 
-586.0613737715521

>  <intra_energy>  (12) 
46.33406055596075

>  <rmsd>  (12) 
5.33001

>  <sdf_rank>  (12) 
0

$$$$

     RDKit          3D

 56 60  0  0  0  0  0  0  0  0999 V2000
   16.3608   53.1395   85.7750 O   0  0  0  0  0  0  0  0  0  0  0  0
   28.1172   58.4669   87.0437 C   0  0  0  0  0  0  0  0  0  0  0  0
   25.8869   58.9391   87.6189 C   0  0  0  0  0  0  0  0  0  0  0  0
   23.7834   62.4193   90.3684 C   0  0  0  0  0  0  0  0  0  0  0  0
   24.9969   59.3219   88.6075 N   0  0  0  0  0  0  0  0  0  0  0  0
   23.5681   59.5079   88.3774 C   0  0  0  0  0  0  0  0  0  0  0  0
   25.3670   59.4995   90.0182 C   0  0  0  0  0  0  0  0  0  0  0  0
   24.0327   59.5257   90.7390 C   0  0  2  0  0  0  0  0  0  0  0  0
   23.0790   60.1812   89.7121 C   0  0  2  0  0  0  0  0  0  0  0  0
   18.4750   56.1366   90.6715 O   0  0  0  0  0  0  0  0  0  0  0  0
   18.5034   56.4742   89.5114 C   0  0  0  0  0  0  0  0  0  0  0  0
   17.9549   55.5892   88.4933 C   0  0  0  0  0  0  0  0  0  0  0  0
   18.6719   55.3649   87.3631 N   0  0  0  0  0  0  0  0  0  0  0  0
   18.1698   54.5655   86.4519 C   0  0  0  0  0  0  0  0  0  0  0  0
   16.8784   53.9607   86.6916 C   0  0  0  0  0  0  0  0  0  0  0  0
   14.9973   53.3032   85.3786 C   0  0  0  0  0  0  0  0  0  0  0  0
   16.1715   54.1883   87.8066 N   0  0  0  0  0  0  0  0  0  0  0  0
   16.7042   55.0086   88.7229 C   0  0  0  0  0  0  0  0  0  0  0  0
   18.9656   57.6766   89.0680 N   0  0  0  0  0  0  0  0  0  0  0  0
   19.5346   58.6962   89.8154 C   0  0  0  0  0  0  0  0  0  0  0  0
   18.8309   59.6235   90.6386 C   0  0  0  0  0  0  0  0  0  0  0  0
   19.5125   60.7142   91.1887 C   0  0  0  0  0  0  0  0  0  0  0  0
   20.8580   60.8630   90.9108 C   0  0  0  0  0  0  0  0  0  0  0  0
   21.4408   61.9004   91.4429 F   0  0  0  0  0  0  0  0  0  0  0  0
   20.8949   58.8459   89.5678 C   0  0  0  0  0  0  0  0  0  0  0  0
   21.6042   59.9321   90.0832 C   0  0  0  0  0  0  0  0  0  0  0  0
   23.2478   61.6149   89.4990 N   0  0  0  0  0  0  0  0  0  0  0  0
   23.8951   63.7620   90.0716 N   0  0  0  0  0  0  0  0  0  0  0  0
   24.4410   61.9968   91.9987 S   0  0  0  0  0  0  0  0  0  0  0  0
   24.0410   60.2322   92.0957 C   0  0  0  0  0  0  0  0  0  0  0  0
   25.3688   58.6444   86.3415 N   0  0  0  0  0  0  0  0  0  0  0  0
   26.2868   58.2753   85.4163 C   0  0  0  0  0  0  0  0  0  0  0  0
   27.6754   58.1864   85.7457 C   0  0  0  0  0  0  0  0  0  0  0  0
   28.5466   57.8934   84.8650 F   0  0  0  0  0  0  0  0  0  0  0  0
   27.2482   58.8450   87.9887 N   0  0  0  0  0  0  0  0  0  0  0  0
   29.1857   58.3759   87.2887 H   0  0  0  0  0  0  0  0  0  0  0  0
   23.3891   60.1656   87.5141 H   0  0  0  0  0  0  0  0  0  0  0  0
   23.0408   58.5705   88.1464 H   0  0  0  0  0  0  0  0  0  0  0  0
   25.9864   58.6612   90.3698 H   0  0  0  0  0  0  0  0  0  0  0  0
   25.9632   60.4074   90.1917 H   0  0  0  0  0  0  0  0  0  0  0  0
   23.7194   58.5130   91.0328 H   0  0  0  0  0  0  0  0  0  0  0  0
   18.7211   54.3592   85.5226 H   0  0  0  0  0  0  0  0  0  0  0  0
   14.3619   53.3794   86.2733 H   0  0  0  0  0  0  0  0  0  0  0  0
   14.8973   54.2198   84.7787 H   0  0  0  0  0  0  0  0  0  0  0  0
   14.6832   52.4363   84.7787 H   0  0  0  0  0  0  0  0  0  0  0  0
   16.1586   55.2245   89.6533 H   0  0  0  0  0  0  0  0  0  0  0  0
   18.8824   57.8488   88.0559 H   0  0  0  0  0  0  0  0  0  0  0  0
   17.7587   59.4821   90.8399 H   0  0  0  0  0  0  0  0  0  0  0  0
   18.9883   61.4386   91.8294 H   0  0  0  0  0  0  0  0  0  0  0  0
   21.4198   58.0971   88.9565 H   0  0  0  0  0  0  0  0  0  0  0  0
   22.9232   62.0133   88.6063 H   0  0  0  0  0  0  0  0  0  0  0  0
   24.3181   64.4069   90.7542 H   0  0  0  0  0  0  0  0  0  0  0  0
   23.5555   64.1194   89.1673 H   0  0  0  0  0  0  0  0  0  0  0  0
   23.0437   60.1269   92.5477 H   0  0  0  0  0  0  0  0  0  0  0  0
   24.8289   59.7577   92.6992 H   0  0  0  0  0  0  0  0  0  0  0  0
   25.9581   58.0397   84.3933 H   0  0  0  0  0  0  0  0  0  0  0  0
  1 15  1  0
  1 16  1  0
  2 33  2  0
  2 35  1  0
  3  5  1  0
  3 31  1  0
  3 35  2  0
  4 27  2  0
  4 28  1  0
  4 29  1  0
  5  6  1  0
  5  7  1  0
  6  9  1  0
  8  7  1  0
  8  9  1  0
  8 30  1  0
  9 26  1  1
  9 27  1  0
 10 11  2  0
 11 12  1  0
 11 19  1  0
 12 13  2  0
 12 18  1  0
 13 14  1  0
 14 15  2  0
 15 17  1  0
 17 18  2  0
 19 20  1  0
 20 21  2  0
 20 25  1  0
 21 22  1  0
 22 23  2  0
 23 24  1  0
 23 26  1  0
 25 26  2  0
 29 30  1  0
 31 32  2  0
 32 33  1  0
 33 34  1  0
  2 36  1  0
  6 37  1  0
  6 38  1  0
  7 39  1  0
  7 40  1  0
  8 41  1  1
 14 42  1  0
 16 43  1  0
 16 44  1  0
 16 45  1  0
 18 46  1  0
 19 47  1  0
 21 48  1  0
 22 49  1  0
 25 50  1  0
 27 51  1  0
 28 52  1  0
 28 53  1  0
 30 54  1  0
 30 55  1  0
 32 56  1  0
M  CHG  1  27   1
M  END
>  <filename_input>  (13) 
7MYU_ZR7_docked.sdf

>  <pdb_id>  (13) 
7MYU_ZR7

>  <pose_rank>  (13) 
12

>  <num_atoms_heavy>  (13) 
35

>  <num_torsions>  (13) 
4

>  <pose>  (13) 
[19.53460725302142, 58.696168272700085, 89.8153692455387, -0.5816865245534711, 2.523707608314125, -0.6820727206594164, -3.491722878486515, -1.5056615752804334, 0.525207158715761, 3.45494446263153]

>  <energy>  (13) 
-437.95054057208455

>  <inter_energy>  (13) 
-493.51553287106134

>  <intra_energy>  (13) 
47.2452477134462

>  <rmsd>  (13) 
10.1081

>  <sdf_rank>  (13) 
0

$$$$

     RDKit          3D

 56 60  0  0  0  0  0  0  0  0999 V2000
   32.1575   65.4670   89.6515 O   0  0  0  0  0  0  0  0  0  0  0  0
   29.8309   52.7606   87.7991 C   0  0  0  0  0  0  0  0  0  0  0  0
   28.7069   54.8254   87.7689 C   0  0  0  0  0  0  0  0  0  0  0  0
   24.0897   56.1309   86.7329 C   0  0  0  0  0  0  0  0  0  0  0  0
   27.8024   55.6479   87.1197 N   0  0  0  0  0  0  0  0  0  0  0  0
   27.4088   56.9626   87.6154 C   0  0  0  0  0  0  0  0  0  0  0  0
   27.2013   55.3356   85.8159 C   0  0  0  0  0  0  0  0  0  0  0  0
   26.6214   56.6611   85.3610 C   0  0  2  0  0  0  0  0  0  0  0  0
   26.2011   57.3456   86.6834 C   0  0  2  0  0  0  0  0  0  0  0  0
   27.2677   61.7692   89.5032 O   0  0  0  0  0  0  0  0  0  0  0  0
   27.9215   62.2118   88.5880 C   0  0  0  0  0  0  0  0  0  0  0  0
   29.0730   63.0567   88.8721 C   0  0  0  0  0  0  0  0  0  0  0  0
   30.3091   62.4969   88.8919 N   0  0  0  0  0  0  0  0  0  0  0  0
   31.3405   63.2663   89.1480 C   0  0  0  0  0  0  0  0  0  0  0  0
   31.1150   64.6727   89.3973 C   0  0  0  0  0  0  0  0  0  0  0  0
   33.3533   64.9010   90.1928 C   0  0  0  0  0  0  0  0  0  0  0  0
   29.8926   65.2208   89.3816 N   0  0  0  0  0  0  0  0  0  0  0  0
   28.8544   64.4154   89.1181 C   0  0  0  0  0  0  0  0  0  0  0  0
   27.7007   61.9293   87.2738 N   0  0  0  0  0  0  0  0  0  0  0  0
   26.6849   61.1591   86.7292 C   0  0  0  0  0  0  0  0  0  0  0  0
   25.4223   61.6400   86.2735 C   0  0  0  0  0  0  0  0  0  0  0  0
   24.4228   60.7276   85.9191 C   0  0  0  0  0  0  0  0  0  0  0  0
   24.6911   59.3763   86.0272 C   0  0  0  0  0  0  0  0  0  0  0  0
   23.7219   58.5720   85.6911 F   0  0  0  0  0  0  0  0  0  0  0  0
   26.9473   59.7956   86.8062 C   0  0  0  0  0  0  0  0  0  0  0  0
   25.9685   58.8554   86.4800 C   0  0  0  0  0  0  0  0  0  0  0  0
   25.0212   56.7993   87.3457 N   0  0  0  0  0  0  0  0  0  0  0  0
   23.0106   55.6577   87.4505 N   0  0  0  0  0  0  0  0  0  0  0  0
   24.0122   55.7103   84.9763 S   0  0  0  0  0  0  0  0  0  0  0  0
   25.4837   56.5575   84.3437 C   0  0  0  0  0  0  0  0  0  0  0  0
   29.3325   55.3192   88.9316 N   0  0  0  0  0  0  0  0  0  0  0  0
   30.2073   54.4704   89.5225 C   0  0  0  0  0  0  0  0  0  0  0  0
   30.4678   53.1758   88.9741 C   0  0  0  0  0  0  0  0  0  0  0  0
   31.2471   52.3552   89.5568 F   0  0  0  0  0  0  0  0  0  0  0  0
   28.9513   53.5611   87.1854 N   0  0  0  0  0  0  0  0  0  0  0  0
   30.0548   51.7697   87.3771 H   0  0  0  0  0  0  0  0  0  0  0  0
   27.0945   56.9101   88.6683 H   0  0  0  0  0  0  0  0  0  0  0  0
   28.2264   57.6980   87.5896 H   0  0  0  0  0  0  0  0  0  0  0  0
   27.9635   54.9773   85.1083 H   0  0  0  0  0  0  0  0  0  0  0  0
   26.4466   54.5375   85.8745 H   0  0  0  0  0  0  0  0  0  0  0  0
   27.3596   57.2433   84.7901 H   0  0  0  0  0  0  0  0  0  0  0  0
   32.3580   62.8492   89.1728 H   0  0  0  0  0  0  0  0  0  0  0  0
   33.3051   64.9238   91.2915 H   0  0  0  0  0  0  0  0  0  0  0  0
   33.4533   63.8600   89.8517 H   0  0  0  0  0  0  0  0  0  0  0  0
   34.2218   65.4836   89.8517 H   0  0  0  0  0  0  0  0  0  0  0  0
   27.8327   64.8223   89.0954 H   0  0  0  0  0  0  0  0  0  0  0  0
   28.3689   62.3370   86.6042 H   0  0  0  0  0  0  0  0  0  0  0  0
   25.2354   62.7215   86.2011 H   0  0  0  0  0  0  0  0  0  0  0  0
   23.4435   61.0787   85.5619 H   0  0  0  0  0  0  0  0  0  0  0  0
   27.9414   59.4528   87.1292 H   0  0  0  0  0  0  0  0  0  0  0  0
   24.9204   56.9523   88.3593 H   0  0  0  0  0  0  0  0  0  0  0  0
   22.2677   55.1272   86.9735 H   0  0  0  0  0  0  0  0  0  0  0  0
   22.9478   55.8350   88.4631 H   0  0  0  0  0  0  0  0  0  0  0  0
   25.1951   57.5750   84.0414 H   0  0  0  0  0  0  0  0  0  0  0  0
   25.8607   55.9591   83.5012 H   0  0  0  0  0  0  0  0  0  0  0  0
   30.7266   54.7827   90.4405 H   0  0  0  0  0  0  0  0  0  0  0  0
  1 15  1  0
  1 16  1  0
  2 33  2  0
  2 35  1  0
  3  5  1  0
  3 31  1  0
  3 35  2  0
  4 27  2  0
  4 28  1  0
  4 29  1  0
  5  6  1  0
  5  7  1  0
  6  9  1  0
  8  7  1  0
  8  9  1  0
  8 30  1  0
  9 26  1  6
  9 27  1  0
 10 11  2  0
 11 12  1  0
 11 19  1  0
 12 13  2  0
 12 18  1  0
 13 14  1  0
 14 15  2  0
 15 17  1  0
 17 18  2  0
 19 20  1  0
 20 21  2  0
 20 25  1  0
 21 22  1  0
 22 23  2  0
 23 24  1  0
 23 26  1  0
 25 26  2  0
 29 30  1  0
 31 32  2  0
 32 33  1  0
 33 34  1  0
  2 36  1  0
  6 37  1  0
  6 38  1  0
  7 39  1  0
  7 40  1  0
  8 41  1  6
 14 42  1  0
 16 43  1  0
 16 44  1  0
 16 45  1  0
 18 46  1  0
 19 47  1  0
 21 48  1  0
 22 49  1  0
 25 50  1  0
 27 51  1  0
 28 52  1  0
 28 53  1  0
 30 54  1  0
 30 55  1  0
 32 56  1  0
M  CHG  1  27   1
M  END
>  <filename_input>  (14) 
7MYU_ZR7_docked.sdf

>  <pdb_id>  (14) 
7MYU_ZR7

>  <pose_rank>  (14) 
13

>  <num_atoms_heavy>  (14) 
35

>  <num_torsions>  (14) 
4

>  <pose>  (14) 
[26.684864956662103, 61.15908763196655, 86.7291625134363, -2.873390852961351, -0.8909373575654357, -3.5856978477991395, -3.591284985289019, 1.4478571658100274, -1.7299757929012396, -0.9398985965139945]

>  <energy>  (14) 
-573.7318339305184

>  <inter_energy>  (14) 
-649.6455183163498

>  <intra_energy>  (14) 
50.68337661569702

>  <rmsd>  (14) 
8.82536

>  <sdf_rank>  (14) 
0

$$$$

     RDKit          3D

 56 60  0  0  0  0  0  0  0  0999 V2000
   18.3147   60.4444   96.6901 O   0  0  0  0  0  0  0  0  0  0  0  0
   18.3873   53.7661   85.5151 C   0  0  0  0  0  0  0  0  0  0  0  0
   19.6530   55.3952   86.6429 C   0  0  0  0  0  0  0  0  0  0  0  0
   23.8763   57.6797   85.6229 C   0  0  0  0  0  0  0  0  0  0  0  0
   20.9094   55.8346   87.0229 N   0  0  0  0  0  0  0  0  0  0  0  0
   21.1402   57.0647   87.7729 C   0  0  0  0  0  0  0  0  0  0  0  0
   22.1460   55.0745   86.7952 C   0  0  0  0  0  0  0  0  0  0  0  0
   23.1553   55.7502   87.7036 C   0  0  2  0  0  0  0  0  0  0  0  0
   22.7032   57.2299   87.7103 C   0  0  2  0  0  0  0  0  0  0  0  0
   20.8714   60.7466   91.1367 O   0  0  0  0  0  0  0  0  0  0  0  0
   21.2229   60.1024   92.0970 C   0  0  0  0  0  0  0  0  0  0  0  0
   20.4429   60.1622   93.3252 C   0  0  0  0  0  0  0  0  0  0  0  0
   20.0894   59.0029   93.9355 N   0  0  0  0  0  0  0  0  0  0  0  0
   19.3874   59.0669   95.0421 C   0  0  0  0  0  0  0  0  0  0  0  0
   19.0225   60.3664   95.5607 C   0  0  0  0  0  0  0  0  0  0  0  0
   16.9890   60.9775   96.6502 C   0  0  0  0  0  0  0  0  0  0  0  0
   19.3693   61.5087   94.9527 N   0  0  0  0  0  0  0  0  0  0  0  0
   20.0858   61.4185   93.8238 C   0  0  0  0  0  0  0  0  0  0  0  0
   22.2868   59.2517   92.1087 N   0  0  0  0  0  0  0  0  0  0  0  0
   23.1889   59.0050   91.0854 C   0  0  0  0  0  0  0  0  0  0  0  0
   24.4766   59.6003   90.9432 C   0  0  0  0  0  0  0  0  0  0  0  0
   25.2039   59.3997   89.7651 C   0  0  0  0  0  0  0  0  0  0  0  0
   24.6445   58.6276   88.7648 C   0  0  0  0  0  0  0  0  0  0  0  0
   25.3623   58.4803   87.6868 F   0  0  0  0  0  0  0  0  0  0  0  0
   22.6523   58.2085   90.0796 C   0  0  0  0  0  0  0  0  0  0  0  0
   23.3396   58.0017   88.8824 C   0  0  0  0  0  0  0  0  0  0  0  0
   22.9571   57.9872   86.4891 N   0  0  0  0  0  0  0  0  0  0  0  0
   24.0386   58.4632   84.4990 N   0  0  0  0  0  0  0  0  0  0  0  0
   25.0302   56.2896   85.6903 S   0  0  0  0  0  0  0  0  0  0  0  0
   24.6190   55.5653   87.2995 C   0  0  0  0  0  0  0  0  0  0  0  0
   18.5354   56.1417   87.0683 N   0  0  0  0  0  0  0  0  0  0  0  0
   17.3336   55.6632   86.6666 C   0  0  0  0  0  0  0  0  0  0  0  0
   17.2361   54.4740   85.8786 C   0  0  0  0  0  0  0  0  0  0  0  0
   16.1127   54.0525   85.4534 F   0  0  0  0  0  0  0  0  0  0  0  0
   19.5973   54.2059   85.8806 N   0  0  0  0  0  0  0  0  0  0  0  0
   18.2971   52.8421   84.9251 H   0  0  0  0  0  0  0  0  0  0  0  0
   20.6333   57.9179   87.2984 H   0  0  0  0  0  0  0  0  0  0  0  0
   20.7494   57.0256   88.8003 H   0  0  0  0  0  0  0  0  0  0  0  0
   22.0140   54.0183   87.0725 H   0  0  0  0  0  0  0  0  0  0  0  0
   22.4567   55.0718   85.7400 H   0  0  0  0  0  0  0  0  0  0  0  0
   23.1561   55.2953   88.7051 H   0  0  0  0  0  0  0  0  0  0  0  0
   19.0820   58.1489   95.5656 H   0  0  0  0  0  0  0  0  0  0  0  0
   16.6221   61.1250   97.6766 H   0  0  0  0  0  0  0  0  0  0  0  0
   16.9975   61.9421   96.1216 H   0  0  0  0  0  0  0  0  0  0  0  0
   16.3273   60.2755   96.1216 H   0  0  0  0  0  0  0  0  0  0  0  0
   20.3922   62.3306   93.2907 H   0  0  0  0  0  0  0  0  0  0  0  0
   22.4394   58.7289   92.9830 H   0  0  0  0  0  0  0  0  0  0  0  0
   24.8956   60.2134   91.7547 H   0  0  0  0  0  0  0  0  0  0  0  0
   26.2005   59.8474   89.6376 H   0  0  0  0  0  0  0  0  0  0  0  0
   21.6712   57.7342   90.2298 H   0  0  0  0  0  0  0  0  0  0  0  0
   22.3732   58.8149   86.3024 H   0  0  0  0  0  0  0  0  0  0  0  0
   24.7642   58.2274   83.8071 H   0  0  0  0  0  0  0  0  0  0  0  0
   23.4340   59.2841   84.3518 H   0  0  0  0  0  0  0  0  0  0  0  0
   25.2524   56.0379   88.0646 H   0  0  0  0  0  0  0  0  0  0  0  0
   24.7946   54.4825   87.2179 H   0  0  0  0  0  0  0  0  0  0  0  0
   16.4162   56.1990   86.9516 H   0  0  0  0  0  0  0  0  0  0  0  0
  1 15  1  0
  1 16  1  0
  2 33  2  0
  2 35  1  0
  3  5  1  0
  3 31  1  0
  3 35  2  0
  4 27  2  0
  4 28  1  0
  4 29  1  0
  5  6  1  0
  5  7  1  0
  6  9  1  0
  8  7  1  0
  8  9  1  0
  8 30  1  0
  9 26  1  1
  9 27  1  0
 10 11  2  0
 11 12  1  0
 11 19  1  0
 12 13  2  0
 12 18  1  0
 13 14  1  0
 14 15  2  0
 15 17  1  0
 17 18  2  0
 19 20  1  0
 20 21  2  0
 20 25  1  0
 21 22  1  0
 22 23  2  0
 23 24  1  0
 23 26  1  0
 25 26  2  0
 29 30  1  0
 31 32  2  0
 32 33  1  0
 33 34  1  0
  2 36  1  0
  6 37  1  0
  6 38  1  0
  7 39  1  0
  7 40  1  0
  8 41  1  1
 14 42  1  0
 16 43  1  0
 16 44  1  0
 16 45  1  0
 18 46  1  0
 19 47  1  0
 21 48  1  0
 22 49  1  0
 25 50  1  0
 27 51  1  0
 28 52  1  0
 28 53  1  0
 30 54  1  0
 30 55  1  0
 32 56  1  0
M  CHG  1  27   1
M  END
>  <filename_input>  (15) 
7MYU_ZR7_docked.sdf

>  <pdb_id>  (15) 
7MYU_ZR7

>  <pose_rank>  (15) 
14

>  <num_atoms_heavy>  (15) 
35

>  <num_torsions>  (15) 
4

>  <pose>  (15) 
[23.188930787394927, 59.00495923442025, 91.0854257733954, 0.7152636498424729, 4.164454076597639, -1.3063983319400374, 2.71480944947938, 1.5449985144977487, -1.1376057647479363, -2.5117368049508713]

>  <energy>  (15) 
-387.65790435424185

>  <inter_energy>  (15) 
-434.46246513884205

>  <intra_energy>  (15) 
51.53096050455703

>  <rmsd>  (15) 
8.2095

>  <sdf_rank>  (15) 
0

$$$$

     RDKit          3D

 56 60  0  0  0  0  0  0  0  0999 V2000
   13.3893   61.0341   92.9384 O   0  0  0  0  0  0  0  0  0  0  0  0
   25.6391   61.1161   88.5549 C   0  0  0  0  0  0  0  0  0  0  0  0
   23.7847   59.6902   88.7916 C   0  0  0  0  0  0  0  0  0  0  0  0
   23.1082   54.8900   88.0191 C   0  0  0  0  0  0  0  0  0  0  0  0
   23.0460   58.6455   88.2634 N   0  0  0  0  0  0  0  0  0  0  0  0
   21.8728   58.0763   88.9182 C   0  0  0  0  0  0  0  0  0  0  0  0
   23.3003   58.0470   86.9459 C   0  0  0  0  0  0  0  0  0  0  0  0
   22.0390   57.2539   86.6622 C   0  0  2  0  0  0  0  0  0  0  0  0
   21.5810   56.7877   88.0646 C   0  0  2  0  0  0  0  0  0  0  0  0
   17.4216   56.6199   91.5833 O   0  0  0  0  0  0  0  0  0  0  0  0
   16.8103   57.3511   90.8400 C   0  0  0  0  0  0  0  0  0  0  0  0
   15.8716   58.3161   91.3951 C   0  0  0  0  0  0  0  0  0  0  0  0
   14.5648   57.9689   91.5109 N   0  0  0  0  0  0  0  0  0  0  0  0
   13.7267   58.8447   92.0128 C   0  0  0  0  0  0  0  0  0  0  0  0
   14.2313   60.1375   92.4192 C   0  0  0  0  0  0  0  0  0  0  0  0
   13.8543   62.3595   93.2038 C   0  0  0  0  0  0  0  0  0  0  0  0
   15.5213   60.4783   92.2989 N   0  0  0  0  0  0  0  0  0  0  0  0
   16.3586   59.5677   91.7831 C   0  0  0  0  0  0  0  0  0  0  0  0
   16.9748   57.3909   89.4882 N   0  0  0  0  0  0  0  0  0  0  0  0
   17.7960   56.5916   88.7082 C   0  0  0  0  0  0  0  0  0  0  0  0
   17.4504   55.3231   88.1566 C   0  0  0  0  0  0  0  0  0  0  0  0
   18.4381   54.5434   87.5455 C   0  0  0  0  0  0  0  0  0  0  0  0
   19.7309   55.0293   87.4992 C   0  0  0  0  0  0  0  0  0  0  0  0
   20.6116   54.2585   86.9253 F   0  0  0  0  0  0  0  0  0  0  0  0
   19.0967   57.0774   88.6290 C   0  0  0  0  0  0  0  0  0  0  0  0
   20.1129   56.3197   88.0444 C   0  0  0  0  0  0  0  0  0  0  0  0
   22.3755   55.7326   88.6849 N   0  0  0  0  0  0  0  0  0  0  0  0
   23.8214   53.9254   88.7005 N   0  0  0  0  0  0  0  0  0  0  0  0
   23.3362   54.8068   86.2276 S   0  0  0  0  0  0  0  0  0  0  0  0
   22.2042   56.1053   85.6656 C   0  0  0  0  0  0  0  0  0  0  0  0
   23.3327   60.2794   89.9898 N   0  0  0  0  0  0  0  0  0  0  0  0
   24.0954   61.2964   90.4576 C   0  0  0  0  0  0  0  0  0  0  0  0
   25.2638   61.7290   89.7559 C   0  0  0  0  0  0  0  0  0  0  0  0
   26.0127   62.6472   90.2210 F   0  0  0  0  0  0  0  0  0  0  0  0
   24.9220   60.1007   88.0590 N   0  0  0  0  0  0  0  0  0  0  0  0
   26.5292   61.4713   88.0151 H   0  0  0  0  0  0  0  0  0  0  0  0
   22.0913   57.8163   89.9645 H   0  0  0  0  0  0  0  0  0  0  0  0
   21.0206   58.7705   88.9602 H   0  0  0  0  0  0  0  0  0  0  0  0
   23.4537   58.8258   86.1843 H   0  0  0  0  0  0  0  0  0  0  0  0
   24.2078   57.4257   86.9277 H   0  0  0  0  0  0  0  0  0  0  0  0
   21.2884   57.8712   86.1469 H   0  0  0  0  0  0  0  0  0  0  0  0
   12.6599   58.6001   92.1225 H   0  0  0  0  0  0  0  0  0  0  0  0
   13.9098   62.5177   94.2909 H   0  0  0  0  0  0  0  0  0  0  0  0
   14.8530   62.4930   92.7624 H   0  0  0  0  0  0  0  0  0  0  0  0
   13.1580   63.0876   92.7624 H   0  0  0  0  0  0  0  0  0  0  0  0
   17.4263   59.8045   91.6655 H   0  0  0  0  0  0  0  0  0  0  0  0
   16.4225   58.1001   88.9853 H   0  0  0  0  0  0  0  0  0  0  0  0
   16.4135   54.9598   88.2112 H   0  0  0  0  0  0  0  0  0  0  0  0
   18.1908   53.5637   87.1108 H   0  0  0  0  0  0  0  0  0  0  0  0
   19.3282   58.0739   89.0332 H   0  0  0  0  0  0  0  0  0  0  0  0
   22.3547   55.6505   89.7114 H   0  0  0  0  0  0  0  0  0  0  0  0
   24.4046   53.2534   88.1815 H   0  0  0  0  0  0  0  0  0  0  0  0
   23.7706   53.8771   89.7281 H   0  0  0  0  0  0  0  0  0  0  0  0
   21.2169   55.6530   85.4908 H   0  0  0  0  0  0  0  0  0  0  0  0
   22.6383   56.5349   84.7506 H   0  0  0  0  0  0  0  0  0  0  0  0
   23.8108   61.7986   91.3940 H   0  0  0  0  0  0  0  0  0  0  0  0
  1 15  1  0
  1 16  1  0
  2 33  2  0
  2 35  1  0
  3  5  1  0
  3 31  1  0
  3 35  2  0
  4 27  2  0
  4 28  1  0
  4 29  1  0
  5  6  1  0
  5  7  1  0
  6  9  1  0
  8  7  1  0
  8  9  1  0
  8 30  1  0
  9 26  1  6
  9 27  1  0
 10 11  2  0
 11 12  1  0
 11 19  1  0
 12 13  2  0
 12 18  1  0
 13 14  1  0
 14 15  2  0
 15 17  1  0
 17 18  2  0
 19 20  1  0
 20 21  2  0
 20 25  1  0
 21 22  1  0
 22 23  2  0
 23 24  1  0
 23 26  1  0
 25 26  2  0
 29 30  1  0
 31 32  2  0
 32 33  1  0
 33 34  1  0
  2 36  1  0
  6 37  1  0
  6 38  1  0
  7 39  1  0
  7 40  1  0
  8 41  1  6
 14 42  1  0
 16 43  1  0
 16 44  1  0
 16 45  1  0
 18 46  1  0
 19 47  1  0
 21 48  1  0
 22 49  1  0
 25 50  1  0
 27 51  1  0
 28 52  1  0
 28 53  1  0
 30 54  1  0
 30 55  1  0
 32 56  1  0
M  CHG  1  27   1
M  END
>  <filename_input>  (16) 
7MYU_ZR7_docked.sdf

>  <pdb_id>  (16) 
7MYU_ZR7

>  <pose_rank>  (16) 
15

>  <num_atoms_heavy>  (16) 
35

>  <num_torsions>  (16) 
4

>  <pose>  (16) 
[17.796007248914258, 56.59158435644443, 88.70819469181242, 0.8010733182291608, 1.1926090537077456, 2.828639937929852, -3.752109471917064, 1.364528067345704, 1.2355432360964889, 2.7531759585295403]

>  <energy>  (16) 
-501.54784682838437

>  <inter_energy>  (16) 
-539.2532304146017

>  <intra_energy>  (16) 
54.995862259263575

>  <rmsd>  (16) 
10.5767

>  <sdf_rank>  (16) 
0

$$$$

     RDKit          3D

 56 60  0  0  0  0  0  0  0  0999 V2000
   20.8743   64.7004   93.9959 O   0  0  0  0  0  0  0  0  0  0  0  0
   17.4990   53.8268   87.3169 C   0  0  0  0  0  0  0  0  0  0  0  0
   19.2399   55.3705   87.6548 C   0  0  0  0  0  0  0  0  0  0  0  0
   23.3381   56.4220   85.1659 C   0  0  0  0  0  0  0  0  0  0  0  0
   20.6023   55.6128   87.6210 N   0  0  0  0  0  0  0  0  0  0  0  0
   21.1987   56.9066   87.9363 C   0  0  0  0  0  0  0  0  0  0  0  0
   21.6113   54.5793   87.3517 C   0  0  0  0  0  0  0  0  0  0  0  0
   22.9105   55.2199   87.8011 C   0  0  2  0  0  0  0  0  0  0  0  0
   22.6979   56.7220   87.4974 C   0  0  2  0  0  0  0  0  0  0  0  0
   22.9392   59.1760   92.3672 O   0  0  0  0  0  0  0  0  0  0  0  0
   23.0174   60.2188   91.7613 C   0  0  0  0  0  0  0  0  0  0  0  0
   22.4703   61.4331   92.3500 C   0  0  0  0  0  0  0  0  0  0  0  0
   23.1482   62.5990   92.1990 N   0  0  0  0  0  0  0  0  0  0  0  0
   22.6470   63.6879   92.7324 C   0  0  0  0  0  0  0  0  0  0  0  0
   21.3979   63.5976   93.4554 C   0  0  0  0  0  0  0  0  0  0  0  0
   19.9921   65.5112   93.2164 C   0  0  0  0  0  0  0  0  0  0  0  0
   20.7340   62.4438   93.6063 N   0  0  0  0  0  0  0  0  0  0  0  0
   21.2654   61.3448   93.0533 C   0  0  0  0  0  0  0  0  0  0  0  0
   23.6472   60.3703   90.5628 N   0  0  0  0  0  0  0  0  0  0  0  0
   24.2495   59.3899   89.7895 C   0  0  0  0  0  0  0  0  0  0  0  0
   25.6352   59.3156   89.4624 C   0  0  0  0  0  0  0  0  0  0  0  0
   26.0734   58.3774   88.5218 C   0  0  0  0  0  0  0  0  0  0  0  0
   25.1404   57.5473   87.9300 C   0  0  0  0  0  0  0  0  0  0  0  0
   25.6029   56.6980   87.0560 F   0  0  0  0  0  0  0  0  0  0  0  0
   23.3275   58.5286   89.2044 C   0  0  0  0  0  0  0  0  0  0  0  0
   23.7243   57.5930   88.2474 C   0  0  0  0  0  0  0  0  0  0  0  0
   22.7324   57.1066   86.0902 N   0  0  0  0  0  0  0  0  0  0  0  0
   23.3144   56.8730   83.8623 N   0  0  0  0  0  0  0  0  0  0  0  0
   24.2528   54.8752   85.3641 S   0  0  0  0  0  0  0  0  0  0  0  0
   24.1744   54.6447   87.1597 C   0  0  0  0  0  0  0  0  0  0  0  0
   18.3941   56.4118   88.0876 N   0  0  0  0  0  0  0  0  0  0  0  0
   17.0724   56.1159   88.1002 C   0  0  0  0  0  0  0  0  0  0  0  0
   16.5993   54.8243   87.7095 C   0  0  0  0  0  0  0  0  0  0  0  0
   15.3547   54.5606   87.6675 F   0  0  0  0  0  0  0  0  0  0  0  0
   18.8134   54.0760   87.2793 N   0  0  0  0  0  0  0  0  0  0  0  0
   17.1234   52.8314   87.0373 H   0  0  0  0  0  0  0  0  0  0  0  0
   20.7163   57.7138   87.3656 H   0  0  0  0  0  0  0  0  0  0  0  0
   21.0883   57.1885   88.9938 H   0  0  0  0  0  0  0  0  0  0  0  0
   21.4028   53.6673   87.9304 H   0  0  0  0  0  0  0  0  0  0  0  0
   21.6318   54.2680   86.2969 H   0  0  0  0  0  0  0  0  0  0  0  0
   23.1061   55.0188   88.8648 H   0  0  0  0  0  0  0  0  0  0  0  0
   23.1673   64.6518   92.6314 H   0  0  0  0  0  0  0  0  0  0  0  0
   19.3494   66.1018   93.8858 H   0  0  0  0  0  0  0  0  0  0  0  0
   20.5817   66.1891   92.5818 H   0  0  0  0  0  0  0  0  0  0  0  0
   19.3662   64.8665   92.5818 H   0  0  0  0  0  0  0  0  0  0  0  0
   20.7547   60.3756   93.1525 H   0  0  0  0  0  0  0  0  0  0  0  0
   23.6799   61.3283   90.1860 H   0  0  0  0  0  0  0  0  0  0  0  0
   26.3552   59.9917   89.9465 H   0  0  0  0  0  0  0  0  0  0  0  0
   27.1388   58.3019   88.2586 H   0  0  0  0  0  0  0  0  0  0  0  0
   22.2696   58.5856   89.5002 H   0  0  0  0  0  0  0  0  0  0  0  0
   22.2478   57.9720   85.8126 H   0  0  0  0  0  0  0  0  0  0  0  0
   23.7915   56.3373   83.1232 H   0  0  0  0  0  0  0  0  0  0  0  0
   22.8195   57.7454   83.6281 H   0  0  0  0  0  0  0  0  0  0  0  0
   25.0478   55.1379   87.6112 H   0  0  0  0  0  0  0  0  0  0  0  0
   24.1618   53.5602   87.3433 H   0  0  0  0  0  0  0  0  0  0  0  0
   16.3501   56.8828   88.4165 H   0  0  0  0  0  0  0  0  0  0  0  0
  1 15  1  0
  1 16  1  0
  2 33  2  0
  2 35  1  0
  3  5  1  0
  3 31  1  0
  3 35  2  0
  4 27  2  0
  4 28  1  0
  4 29  1  0
  5  6  1  0
  5  7  1  0
  6  9  1  0
  8  7  1  0
  8  9  1  0
  8 30  1  0
  9 26  1  1
  9 27  1  0
 10 11  2  0
 11 12  1  0
 11 19  1  0
 12 13  2  0
 12 18  1  0
 13 14  1  0
 14 15  2  0
 15 17  1  0
 17 18  2  0
 19 20  1  0
 20 21  2  0
 20 25  1  0
 21 22  1  0
 22 23  2  0
 23 24  1  0
 23 26  1  0
 25 26  2  0
 29 30  1  0
 31 32  2  0
 32 33  1  0
 33 34  1  0
  2 36  1  0
  6 37  1  0
  6 38  1  0
  7 39  1  0
  7 40  1  0
  8 41  1  1
 14 42  1  0
 16 43  1  0
 16 44  1  0
 16 45  1  0
 18 46  1  0
 19 47  1  0
 21 48  1  0
 22 49  1  0
 25 50  1  0
 27 51  1  0
 28 52  1  0
 28 53  1  0
 30 54  1  0
 30 55  1  0
 32 56  1  0
M  CHG  1  27   1
M  END
>  <filename_input>  (17) 
7MYU_ZR7_docked.sdf

>  <pdb_id>  (17) 
7MYU_ZR7

>  <pose_rank>  (17) 
16

>  <num_atoms_heavy>  (17) 
35

>  <num_torsions>  (17) 
4

>  <pose>  (17) 
[24.24946138101659, 59.38988267338476, 89.78947171313565, 2.245447533666022, 3.5079770578690264, -1.5474622356646326, 2.3623430650222565, -2.190935665829082, -0.9630957185934401, 1.0439147128955426]

>  <energy>  (17) 
-428.6069505984936

>  <inter_energy>  (17) 
-492.4609040687036

>  <intra_energy>  (17) 
66.14621346337093

>  <rmsd>  (17) 
7.57263

>  <sdf_rank>  (17) 
0

$$$$

     RDKit          3D

 56 60  0  0  0  0  0  0  0  0999 V2000
   20.6206   63.4980   94.9667 O   0  0  0  0  0  0  0  0  0  0  0  0
   25.1233   57.4676   84.6843 C   0  0  0  0  0  0  0  0  0  0  0  0
   23.5378   56.9534   86.3425 C   0  0  0  0  0  0  0  0  0  0  0  0
   19.5351   54.1127   86.4086 C   0  0  0  0  0  0  0  0  0  0  0  0
   22.2039   56.7554   86.6547 N   0  0  0  0  0  0  0  0  0  0  0  0
   21.7342   56.3851   87.9856 C   0  0  0  0  0  0  0  0  0  0  0  0
   21.1002   56.9797   85.7112 C   0  0  0  0  0  0  0  0  0  0  0  0
   19.8707   57.0151   86.5986 C   0  0  2  0  0  0  0  0  0  0  0  0
   20.2206   56.0332   87.7420 C   0  0  2  0  0  0  0  0  0  0  0  0
   17.7139   58.2636   93.5592 O   0  0  0  0  0  0  0  0  0  0  0  0
   18.4840   58.9298   92.9081 C   0  0  0  0  0  0  0  0  0  0  0  0
   19.0286   60.1556   93.4750 C   0  0  0  0  0  0  0  0  0  0  0  0
   18.3143   60.8148   94.4220 N   0  0  0  0  0  0  0  0  0  0  0  0
   18.8135   61.9178   94.9275 C   0  0  0  0  0  0  0  0  0  0  0  0
   20.0990   62.3809   94.4543 C   0  0  0  0  0  0  0  0  0  0  0  0
   21.1033   64.5140   94.0846 C   0  0  0  0  0  0  0  0  0  0  0  0
   20.7991   61.7299   93.5157 N   0  0  0  0  0  0  0  0  0  0  0  0
   20.2690   60.6059   93.0138 C   0  0  0  0  0  0  0  0  0  0  0  0
   18.9464   58.5890   91.6728 N   0  0  0  0  0  0  0  0  0  0  0  0
   18.5970   57.4859   90.9093 C   0  0  0  0  0  0  0  0  0  0  0  0
   17.6799   56.4622   91.2882 C   0  0  0  0  0  0  0  0  0  0  0  0
   17.5626   55.3132   90.4988 C   0  0  0  0  0  0  0  0  0  0  0  0
   18.3499   55.2031   89.3685 C   0  0  0  0  0  0  0  0  0  0  0  0
   18.2051   54.1091   88.6748 F   0  0  0  0  0  0  0  0  0  0  0  0
   19.3623   57.3711   89.7537 C   0  0  0  0  0  0  0  0  0  0  0  0
   19.2869   56.2310   88.9518 C   0  0  0  0  0  0  0  0  0  0  0  0
   20.2103   54.6147   87.3996 N   0  0  0  0  0  0  0  0  0  0  0  0
   19.5899   52.7551   86.1693 N   0  0  0  0  0  0  0  0  0  0  0  0
   18.4811   54.9972   85.2359 S   0  0  0  0  0  0  0  0  0  0  0  0
   18.5530   56.6830   85.8964 C   0  0  0  0  0  0  0  0  0  0  0  0
   24.4812   56.8623   87.3860 N   0  0  0  0  0  0  0  0  0  0  0  0
   25.7694   57.0660   87.0202 C   0  0  0  0  0  0  0  0  0  0  0  0
   26.1160   57.3646   85.6654 C   0  0  0  0  0  0  0  0  0  0  0  0
   27.3300   57.5020   85.3081 F   0  0  0  0  0  0  0  0  0  0  0  0
   23.8378   57.2648   84.9965 N   0  0  0  0  0  0  0  0  0  0  0  0
   25.4015   57.7169   83.6496 H   0  0  0  0  0  0  0  0  0  0  0  0
   22.2853   55.5148   88.3713 H   0  0  0  0  0  0  0  0  0  0  0  0
   21.8796   57.1791   88.7329 H   0  0  0  0  0  0  0  0  0  0  0  0
   21.2272   57.9337   85.1785 H   0  0  0  0  0  0  0  0  0  0  0  0
   21.0415   56.2056   84.9319 H   0  0  0  0  0  0  0  0  0  0  0  0
   19.6662   58.0356   86.9545 H   0  0  0  0  0  0  0  0  0  0  0  0
   18.2642   62.4800   95.6970 H   0  0  0  0  0  0  0  0  0  0  0  0
   21.5017   65.3526   94.6745 H   0  0  0  0  0  0  0  0  0  0  0  0
   21.9011   64.1001   93.4503 H   0  0  0  0  0  0  0  0  0  0  0  0
   20.2786   64.8710   93.4503 H   0  0  0  0  0  0  0  0  0  0  0  0
   20.8087   60.0391   92.2408 H   0  0  0  0  0  0  0  0  0  0  0  0
   19.6388   59.2276   91.2561 H   0  0  0  0  0  0  0  0  0  0  0  0
   17.0684   56.5751   92.1956 H   0  0  0  0  0  0  0  0  0  0  0  0
   16.8581   54.5138   90.7723 H   0  0  0  0  0  0  0  0  0  0  0  0
   20.0372   58.1911   89.4674 H   0  0  0  0  0  0  0  0  0  0  0  0
   20.7715   53.9729   87.9776 H   0  0  0  0  0  0  0  0  0  0  0  0
   19.0582   52.3483   85.3864 H   0  0  0  0  0  0  0  0  0  0  0  0
   20.1623   52.1483   86.7734 H   0  0  0  0  0  0  0  0  0  0  0  0
   17.7336   56.8074   86.6196 H   0  0  0  0  0  0  0  0  0  0  0  0
   18.4653   57.3670   85.0393 H   0  0  0  0  0  0  0  0  0  0  0  0
   26.5632   57.0006   87.7789 H   0  0  0  0  0  0  0  0  0  0  0  0
  1 15  1  0
  1 16  1  0
  2 33  2  0
  2 35  1  0
  3  5  1  0
  3 31  1  0
  3 35  2  0
  4 27  2  0
  4 28  1  0
  4 29  1  0
  5  6  1  0
  5  7  1  0
  6  9  1  0
  8  7  1  0
  8  9  1  0
  8 30  1  0
  9 26  1  1
  9 27  1  0
 10 11  2  0
 11 12  1  0
 11 19  1  0
 12 13  2  0
 12 18  1  0
 13 14  1  0
 14 15  2  0
 15 17  1  0
 17 18  2  0
 19 20  1  0
 20 21  2  0
 20 25  1  0
 21 22  1  0
 22 23  2  0
 23 24  1  0
 23 26  1  0
 25 26  2  0
 29 30  1  0
 31 32  2  0
 32 33  1  0
 33 34  1  0
  2 36  1  0
  6 37  1  0
  6 38  1  0
  7 39  1  0
  7 40  1  0
  8 41  1  1
 14 42  1  0
 16 43  1  0
 16 44  1  0
 16 45  1  0
 18 46  1  0
 19 47  1  0
 21 48  1  0
 22 49  1  0
 25 50  1  0
 27 51  1  0
 28 52  1  0
 28 53  1  0
 30 54  1  0
 30 55  1  0
 32 56  1  0
M  CHG  1  27   1
M  END
>  <filename_input>  (18) 
7MYU_ZR7_docked.sdf

>  <pdb_id>  (18) 
7MYU_ZR7

>  <pose_rank>  (18) 
17

>  <num_atoms_heavy>  (18) 
35

>  <num_torsions>  (18) 
4

>  <pose>  (18) 
[18.59700727574966, 57.485915704008605, 90.90925514610146, -2.158159684212574, -1.2001471632809682, -1.9975336704076725, 3.1887834291330868, -0.17526416917630783, -3.884424047559636, -2.7785561771099805]

>  <energy>  (18) 
-447.67872641777916

>  <inter_energy>  (18) 
-501.5375397408196

>  <intra_energy>  (18) 
61.47531337120599

>  <rmsd>  (18) 
9.60292

>  <sdf_rank>  (18) 
0

$$$$

     RDKit          3D

 56 60  0  0  0  0  0  0  0  0999 V2000
   17.2764   55.1753   86.8135 O   0  0  0  0  0  0  0  0  0  0  0  0
   31.7708   61.9110   85.1472 C   0  0  0  0  0  0  0  0  0  0  0  0
   30.0179   61.1286   86.5047 C   0  0  0  0  0  0  0  0  0  0  0  0
   26.4272   57.8538   85.8124 C   0  0  0  0  0  0  0  0  0  0  0  0
   28.6852   60.7637   86.5879 N   0  0  0  0  0  0  0  0  0  0  0  0
   28.0600   60.2686   87.8098 C   0  0  0  0  0  0  0  0  0  0  0  0
   27.7249   60.9141   85.4862 C   0  0  0  0  0  0  0  0  0  0  0  0
   26.3759   60.7603   86.1621 C   0  0  2  0  0  0  0  0  0  0  0  0
   26.6574   59.7618   87.3099 C   0  0  2  0  0  0  0  0  0  0  0  0
   23.1652   56.6627   87.5514 O   0  0  0  0  0  0  0  0  0  0  0  0
   22.1846   57.2469   87.9489 C   0  0  0  0  0  0  0  0  0  0  0  0
   20.8634   56.6992   87.6750 C   0  0  0  0  0  0  0  0  0  0  0  0
   19.9085   56.7768   88.6362 N   0  0  0  0  0  0  0  0  0  0  0  0
   18.7210   56.2813   88.3800 C   0  0  0  0  0  0  0  0  0  0  0  0
   18.4830   55.6761   87.0885 C   0  0  0  0  0  0  0  0  0  0  0  0
   16.1155   55.8065   87.3586 C   0  0  0  0  0  0  0  0  0  0  0  0
   19.4298   55.5971   86.1438 N   0  0  0  0  0  0  0  0  0  0  0  0
   20.6350   56.1096   86.4283 C   0  0  0  0  0  0  0  0  0  0  0  0
   22.2141   58.3785   88.7068 N   0  0  0  0  0  0  0  0  0  0  0  0
   23.3255   59.1021   89.1105 C   0  0  0  0  0  0  0  0  0  0  0  0
   23.3813   60.0054   90.2122 C   0  0  0  0  0  0  0  0  0  0  0  0
   24.5139   60.8065   90.3919 C   0  0  0  0  0  0  0  0  0  0  0  0
   25.5511   60.6999   89.4849 C   0  0  0  0  0  0  0  0  0  0  0  0
   26.5778   61.4747   89.6962 F   0  0  0  0  0  0  0  0  0  0  0  0
   24.3896   58.9880   88.2224 C   0  0  0  0  0  0  0  0  0  0  0  0
   25.5279   59.7846   88.3580 C   0  0  0  0  0  0  0  0  0  0  0  0
   26.8724   58.3727   86.9180 N   0  0  0  0  0  0  0  0  0  0  0  0
   26.6824   56.5267   85.5349 N   0  0  0  0  0  0  0  0  0  0  0  0
   25.4719   58.6777   84.5173 S   0  0  0  0  0  0  0  0  0  0  0  0
   25.2349   60.3211   85.2427 C   0  0  0  0  0  0  0  0  0  0  0  0
   30.7892   61.0865   87.6838 N   0  0  0  0  0  0  0  0  0  0  0  0
   32.0848   61.4549   87.5407 C   0  0  0  0  0  0  0  0  0  0  0  0
   32.6017   61.8661   86.2725 C   0  0  0  0  0  0  0  0  0  0  0  0
   33.8312   62.1599   86.1230 F   0  0  0  0  0  0  0  0  0  0  0  0
   30.4862   61.5469   85.2381 N   0  0  0  0  0  0  0  0  0  0  0  0
   32.1763   62.2478   84.1817 H   0  0  0  0  0  0  0  0  0  0  0  0
   28.6445   59.4460   88.2476 H   0  0  0  0  0  0  0  0  0  0  0  0
   27.9890   61.0308   88.5998 H   0  0  0  0  0  0  0  0  0  0  0  0
   27.8180   61.9047   85.0171 H   0  0  0  0  0  0  0  0  0  0  0  0
   27.8834   60.1833   84.6795 H   0  0  0  0  0  0  0  0  0  0  0  0
   25.9962   61.7296   86.5175 H   0  0  0  0  0  0  0  0  0  0  0  0
   17.9211   56.3254   89.1338 H   0  0  0  0  0  0  0  0  0  0  0  0
   16.1653   55.7795   88.4572 H   0  0  0  0  0  0  0  0  0  0  0  0
   16.0730   56.8519   87.0191 H   0  0  0  0  0  0  0  0  0  0  0  0
   15.2150   55.2738   87.0191 H   0  0  0  0  0  0  0  0  0  0  0  0
   21.4425   56.0663   85.6826 H   0  0  0  0  0  0  0  0  0  0  0  0
   21.3009   58.7399   89.0172 H   0  0  0  0  0  0  0  0  0  0  0  0
   22.5389   60.0719   90.9165 H   0  0  0  0  0  0  0  0  0  0  0  0
   24.5777   61.5069   91.2377 H   0  0  0  0  0  0  0  0  0  0  0  0
   24.3335   58.2588   87.4007 H   0  0  0  0  0  0  0  0  0  0  0  0
   27.4089   57.7672   87.5555 H   0  0  0  0  0  0  0  0  0  0  0  0
   26.3337   56.1069   84.6614 H   0  0  0  0  0  0  0  0  0  0  0  0
   27.2217   55.9558   86.2013 H   0  0  0  0  0  0  0  0  0  0  0  0
   24.3029   60.3112   85.8269 H   0  0  0  0  0  0  0  0  0  0  0  0
   25.2014   61.0377   84.4088 H   0  0  0  0  0  0  0  0  0  0  0  0
   32.7513   61.4373   88.4156 H   0  0  0  0  0  0  0  0  0  0  0  0
  1 15  1  0
  1 16  1  0
  2 33  2  0
  2 35  1  0
  3  5  1  0
  3 31  1  0
  3 35  2  0
  4 27  2  0
  4 28  1  0
  4 29  1  0
  5  6  1  0
  5  7  1  0
  6  9  1  0
  8  7  1  0
  8  9  1  0
  8 30  1  0
  9 26  1  1
  9 27  1  0
 10 11  2  0
 11 12  1  0
 11 19  1  0
 12 13  2  0
 12 18  1  0
 13 14  1  0
 14 15  2  0
 15 17  1  0
 17 18  2  0
 19 20  1  0
 20 21  2  0
 20 25  1  0
 21 22  1  0
 22 23  2  0
 23 24  1  0
 23 26  1  0
 25 26  2  0
 29 30  1  0
 31 32  2  0
 32 33  1  0
 33 34  1  0
  2 36  1  0
  6 37  1  0
  6 38  1  0
  7 39  1  0
  7 40  1  0
  8 41  1  1
 14 42  1  0
 16 43  1  0
 16 44  1  0
 16 45  1  0
 18 46  1  0
 19 47  1  0
 21 48  1  0
 22 49  1  0
 25 50  1  0
 27 51  1  0
 28 52  1  0
 28 53  1  0
 30 54  1  0
 30 55  1  0
 32 56  1  0
M  CHG  1  27   1
M  END
>  <filename_input>  (19) 
7MYU_ZR7_docked.sdf

>  <pdb_id>  (19) 
7MYU_ZR7

>  <pose_rank>  (19) 
18

>  <num_atoms_heavy>  (19) 
35

>  <num_torsions>  (19) 
4

>  <pose>  (19) 
[23.325509114243758, 59.10212446169108, 89.11046227640797, 0.40857237875774327, -3.0064182624925193, 0.4993440364695558, 18.49695195006915, 9.63386507967046, -0.9587904612167344, -6.200715453017761]

>  <energy>  (19) 
-427.6231925582292

>  <inter_energy>  (19) 
-455.9781566089684

>  <intra_energy>  (19) 
50.46949699514053

>  <rmsd>  (19) 
10.779

>  <sdf_rank>  (19) 
0

$$$$

     RDKit          3D

 56 60  0  0  0  0  0  0  0  0999 V2000
   16.8953   56.6859   90.7985 O   0  0  0  0  0  0  0  0  0  0  0  0
   28.7615   61.6711   91.8456 C   0  0  0  0  0  0  0  0  0  0  0  0
   27.7386   60.1802   90.3427 C   0  0  0  0  0  0  0  0  0  0  0  0
   28.2265   59.3953   85.5217 C   0  0  0  0  0  0  0  0  0  0  0  0
   27.1835   59.9908   89.0888 N   0  0  0  0  0  0  0  0  0  0  0  0
   26.6718   58.7075   88.6196 C   0  0  0  0  0  0  0  0  0  0  0  0
   26.9633   61.0725   88.1192 C   0  0  0  0  0  0  0  0  0  0  0  0
   26.0100   60.4615   87.1100 C   0  0  2  0  0  0  0  0  0  0  0  0
   26.4119   58.9675   87.0902 C   0  0  2  0  0  0  0  0  0  0  0  0
   20.3595   56.4759   85.7545 O   0  0  0  0  0  0  0  0  0  0  0  0
   20.6854   56.7456   86.8867 C   0  0  0  0  0  0  0  0  0  0  0  0
   19.6891   56.7079   87.9480 C   0  0  0  0  0  0  0  0  0  0  0  0
   19.9299   55.9502   89.0478 N   0  0  0  0  0  0  0  0  0  0  0  0
   19.0267   55.9231   89.9991 C   0  0  0  0  0  0  0  0  0  0  0  0
   17.8181   56.6996   89.8339 C   0  0  0  0  0  0  0  0  0  0  0  0
   15.6429   57.3390   90.5787 C   0  0  0  0  0  0  0  0  0  0  0  0
   17.5819   57.4427   88.7445 N   0  0  0  0  0  0  0  0  0  0  0  0
   18.5185   57.4546   87.7859 C   0  0  0  0  0  0  0  0  0  0  0  0
   21.9589   57.0328   87.2761 N   0  0  0  0  0  0  0  0  0  0  0  0
   23.0887   57.1340   86.4793 C   0  0  0  0  0  0  0  0  0  0  0  0
   23.3756   56.3417   85.3292 C   0  0  0  0  0  0  0  0  0  0  0  0
   24.6369   56.4253   84.7300 C   0  0  0  0  0  0  0  0  0  0  0  0
   25.5758   57.2777   85.2792 C   0  0  0  0  0  0  0  0  0  0  0  0
   26.7357   57.3102   84.6854 F   0  0  0  0  0  0  0  0  0  0  0  0
   24.0363   58.0068   87.0031 C   0  0  0  0  0  0  0  0  0  0  0  0
   25.3119   58.1030   86.4443 C   0  0  0  0  0  0  0  0  0  0  0  0
   27.6735   58.6479   86.4302 N   0  0  0  0  0  0  0  0  0  0  0  0
   29.4216   59.0024   84.9554 N   0  0  0  0  0  0  0  0  0  0  0  0
   27.6138   60.9649   84.8663 S   0  0  0  0  0  0  0  0  0  0  0  0
   26.0253   61.1118   85.7255 C   0  0  0  0  0  0  0  0  0  0  0  0
   27.7409   59.0895   91.2358 N   0  0  0  0  0  0  0  0  0  0  0  0
   28.2962   59.3349   92.4466 C   0  0  0  0  0  0  0  0  0  0  0  0
   28.8224   60.6241   92.7722 C   0  0  0  0  0  0  0  0  0  0  0  0
   29.3940   60.8425   93.8883 F   0  0  0  0  0  0  0  0  0  0  0  0
   28.2308   61.4733   90.6330 N   0  0  0  0  0  0  0  0  0  0  0  0
   29.1524   62.6632   92.1157 H   0  0  0  0  0  0  0  0  0  0  0  0
   27.4146   57.9091   88.7641 H   0  0  0  0  0  0  0  0  0  0  0  0
   25.7741   58.3747   89.1612 H   0  0  0  0  0  0  0  0  0  0  0  0
   26.5107   61.9492   88.6055 H   0  0  0  0  0  0  0  0  0  0  0  0
   27.8968   61.4312   87.6611 H   0  0  0  0  0  0  0  0  0  0  0  0
   24.9624   60.6220   87.4045 H   0  0  0  0  0  0  0  0  0  0  0  0
   19.1859   55.3207   90.9056 H   0  0  0  0  0  0  0  0  0  0  0  0
   15.1802   57.5803   91.5470 H   0  0  0  0  0  0  0  0  0  0  0  0
   15.8077   58.2660   90.0099 H   0  0  0  0  0  0  0  0  0  0  0  0
   14.9771   56.6733   90.0099 H   0  0  0  0  0  0  0  0  0  0  0  0
   18.3664   58.0504   86.8739 H   0  0  0  0  0  0  0  0  0  0  0  0
   22.0991   57.1941   88.2837 H   0  0  0  0  0  0  0  0  0  0  0  0
   22.6099   55.6688   84.9157 H   0  0  0  0  0  0  0  0  0  0  0  0
   24.8764   55.8249   83.8400 H   0  0  0  0  0  0  0  0  0  0  0  0
   23.7767   58.6310   87.8709 H   0  0  0  0  0  0  0  0  0  0  0  0
   28.1546   57.7781   86.7004 H   0  0  0  0  0  0  0  0  0  0  0  0
   29.8673   59.5882   84.2348 H   0  0  0  0  0  0  0  0  0  0  0  0
   29.8683   58.1234   85.2532 H   0  0  0  0  0  0  0  0  0  0  0  0
   25.2514   60.6320   85.1084 H   0  0  0  0  0  0  0  0  0  0  0  0
   25.8393   62.1858   85.8739 H   0  0  0  0  0  0  0  0  0  0  0  0
   28.3433   58.5281   93.1928 H   0  0  0  0  0  0  0  0  0  0  0  0
  1 15  1  0
  1 16  1  0
  2 33  2  0
  2 35  1  0
  3  5  1  0
  3 31  1  0
  3 35  2  0
  4 27  2  0
  4 28  1  0
  4 29  1  0
  5  6  1  0
  5  7  1  0
  6  9  1  0
  8  7  1  0
  8  9  1  0
  8 30  1  0
  9 26  1  6
  9 27  1  0
 10 11  2  0
 11 12  1  0
 11 19  1  0
 12 13  2  0
 12 18  1  0
 13 14  1  0
 14 15  2  0
 15 17  1  0
 17 18  2  0
 19 20  1  0
 20 21  2  0
 20 25  1  0
 21 22  1  0
 22 23  2  0
 23 24  1  0
 23 26  1  0
 25 26  2  0
 29 30  1  0
 31 32  2  0
 32 33  1  0
 33 34  1  0
  2 36  1  0
  6 37  1  0
  6 38  1  0
  7 39  1  0
  7 40  1  0
  8 41  1  1
 14 42  1  0
 16 43  1  0
 16 44  1  0
 16 45  1  0
 18 46  1  0
 19 47  1  0
 21 48  1  0
 22 49  1  0
 25 50  1  0
 27 51  1  0
 28 52  1  0
 28 53  1  0
 30 54  1  0
 30 55  1  0
 32 56  1  0
M  CHG  1  27   1
M  END
>  <filename_input>  (20) 
7MYU_ZR7_docked.sdf

>  <pdb_id>  (20) 
7MYU_ZR7

>  <pose_rank>  (20) 
19

>  <num_atoms_heavy>  (20) 
35

>  <num_torsions>  (20) 
4

>  <pose>  (20) 
[23.088741279369255, 57.13403727146977, 86.47930160822115, 0.2718675306256756, 0.6239865069250266, 3.56214177336959, 3.3186693757576218, -0.7802941364423143, -1.2289617213164843, -3.5364949471120135]

>  <energy>  (20) 
-456.72299792066724

>  <inter_energy>  (20) 
-480.7612836828306

>  <intra_energy>  (20) 
53.95680582113291

>  <rmsd>  (20) 
9.94081

>  <sdf_rank>  (20) 
0

$$$$

     RDKit          3D

 56 60  0  0  0  0  0  0  0  0999 V2000
   15.6638   54.0527   86.7803 O   0  0  0  0  0  0  0  0  0  0  0  0
   27.5333   62.7370   83.1476 C   0  0  0  0  0  0  0  0  0  0  0  0
   26.6111   61.6297   85.0054 C   0  0  0  0  0  0  0  0  0  0  0  0
   25.9470   56.8942   86.1144 C   0  0  0  0  0  0  0  0  0  0  0  0
   25.8095   60.5991   85.4651 N   0  0  0  0  0  0  0  0  0  0  0  0
   25.5825   60.3246   86.8801 C   0  0  0  0  0  0  0  0  0  0  0  0
   25.0251   59.7187   84.5887 C   0  0  0  0  0  0  0  0  0  0  0  0
   24.0489   59.0468   85.5352 C   0  0  2  0  0  0  0  0  0  0  0  0
   24.8444   58.9357   86.8575 C   0  0  2  0  0  0  0  0  0  0  0  0
   19.6290   56.8268   90.5757 O   0  0  0  0  0  0  0  0  0  0  0  0
   19.7068   56.6049   89.3902 C   0  0  0  0  0  0  0  0  0  0  0  0
   18.6203   55.9057   88.7186 C   0  0  0  0  0  0  0  0  0  0  0  0
   17.8637   55.0316   89.4294 N   0  0  0  0  0  0  0  0  0  0  0  0
   16.8866   54.4069   88.8159 C   0  0  0  0  0  0  0  0  0  0  0  0
   16.6599   54.6767   87.4134 C   0  0  0  0  0  0  0  0  0  0  0  0
   15.2507   52.7596   87.2282 C   0  0  0  0  0  0  0  0  0  0  0  0
   17.4121   55.5367   86.7139 N   0  0  0  0  0  0  0  0  0  0  0  0
   18.4045   56.1627   87.3615 C   0  0  0  0  0  0  0  0  0  0  0  0
   20.7303   57.0196   88.5924 N   0  0  0  0  0  0  0  0  0  0  0  0
   21.8790   57.6988   88.9681 C   0  0  0  0  0  0  0  0  0  0  0  0
   22.1017   58.3358   90.2240 C   0  0  0  0  0  0  0  0  0  0  0  0
   23.2319   59.1414   90.3989 C   0  0  0  0  0  0  0  0  0  0  0  0
   24.1028   59.3000   89.3378 C   0  0  0  0  0  0  0  0  0  0  0  0
   25.1344   60.0669   89.5540 F   0  0  0  0  0  0  0  0  0  0  0  0
   22.7798   57.8474   87.9191 C   0  0  0  0  0  0  0  0  0  0  0  0
   23.9081   58.6588   88.0497 C   0  0  0  0  0  0  0  0  0  0  0  0
   25.9094   57.9386   86.8876 N   0  0  0  0  0  0  0  0  0  0  0  0
   26.9983   56.0074   86.2230 N   0  0  0  0  0  0  0  0  0  0  0  0
   24.7490   56.4211   84.8457 S   0  0  0  0  0  0  0  0  0  0  0  0
   23.4900   57.7083   85.0497 C   0  0  0  0  0  0  0  0  0  0  0  0
   27.1773   62.5015   85.9575 N   0  0  0  0  0  0  0  0  0  0  0  0
   27.9510   63.4899   85.4485 C   0  0  0  0  0  0  0  0  0  0  0  0
   28.1497   63.6228   84.0387 C   0  0  0  0  0  0  0  0  0  0  0  0
   28.9199   64.5164   83.5606 F   0  0  0  0  0  0  0  0  0  0  0  0
   26.7679   61.7388   83.6046 N   0  0  0  0  0  0  0  0  0  0  0  0
   27.6788   62.8621   82.0645 H   0  0  0  0  0  0  0  0  0  0  0  0
   26.5343   60.2576   87.4274 H   0  0  0  0  0  0  0  0  0  0  0  0
   25.0071   61.1129   87.3875 H   0  0  0  0  0  0  0  0  0  0  0  0
   24.4915   60.3013   83.8233 H   0  0  0  0  0  0  0  0  0  0  0  0
   25.6490   58.9992   84.0382 H   0  0  0  0  0  0  0  0  0  0  0  0
   23.1246   59.6346   85.6365 H   0  0  0  0  0  0  0  0  0  0  0  0
   16.2515   53.6911   89.3584 H   0  0  0  0  0  0  0  0  0  0  0  0
   15.2436   52.7375   88.3279 H   0  0  0  0  0  0  0  0  0  0  0  0
   14.2398   52.5465   86.8506 H   0  0  0  0  0  0  0  0  0  0  0  0
   15.9509   51.9999   86.8506 H   0  0  0  0  0  0  0  0  0  0  0  0
   19.0477   56.8769   86.8266 H   0  0  0  0  0  0  0  0  0  0  0  0
   20.6398   56.8024   87.5896 H   0  0  0  0  0  0  0  0  0  0  0  0
   21.3894   58.1947   91.0502 H   0  0  0  0  0  0  0  0  0  0  0  0
   23.4234   59.6385   91.3614 H   0  0  0  0  0  0  0  0  0  0  0  0
   22.6005   57.3174   86.9719 H   0  0  0  0  0  0  0  0  0  0  0  0
   26.6771   58.0700   87.5616 H   0  0  0  0  0  0  0  0  0  0  0  0
   27.0367   55.1771   85.6147 H   0  0  0  0  0  0  0  0  0  0  0  0
   27.7448   56.1756   86.9124 H   0  0  0  0  0  0  0  0  0  0  0  0
   22.7489   57.3557   85.7821 H   0  0  0  0  0  0  0  0  0  0  0  0
   23.0496   57.8859   84.0574 H   0  0  0  0  0  0  0  0  0  0  0  0
   28.4351   64.2031   86.1318 H   0  0  0  0  0  0  0  0  0  0  0  0
  1 15  1  0
  1 16  1  0
  2 33  2  0
  2 35  1  0
  3  5  1  0
  3 31  1  0
  3 35  2  0
  4 27  2  0
  4 28  1  0
  4 29  1  0
  5  6  1  0
  5  7  1  0
  6  9  1  0
  8  7  1  0
  8  9  1  0
  8 30  1  0
  9 26  1  1
  9 27  1  0
 10 11  2  0
 11 12  1  0
 11 19  1  0
 12 13  2  0
 12 18  1  0
 13 14  1  0
 14 15  2  0
 15 17  1  0
 17 18  2  0
 19 20  1  0
 20 21  2  0
 20 25  1  0
 21 22  1  0
 22 23  2  0
 23 24  1  0
 23 26  1  0
 25 26  2  0
 29 30  1  0
 31 32  2  0
 32 33  1  0
 33 34  1  0
  2 36  1  0
  6 37  1  0
  6 38  1  0
  7 39  1  0
  7 40  1  0
  8 41  1  1
 14 42  1  0
 16 43  1  0
 16 44  1  0
 16 45  1  0
 18 46  1  0
 19 47  1  0
 21 48  1  0
 22 49  1  0
 25 50  1  0
 27 51  1  0
 28 52  1  0
 28 53  1  0
 30 54  1  0
 30 55  1  0
 32 56  1  0
M  CHG  1  27   1
M  END
>  <filename_input>  (21) 
7MYU_ZR7_docked.sdf

>  <pdb_id>  (21) 
7MYU_ZR7

>  <pose_rank>  (21) 
20

>  <num_atoms_heavy>  (21) 
35

>  <num_torsions>  (21) 
4

>  <pose>  (21) 
[21.878970492333888, 57.69875638633689, 88.9680775714482, 0.49828245030089846, -2.9049705611152423, 0.11489125421899517, -1.2436983153814618, -0.39091959162422846, 2.3641455966899296, -1.0071305175126581]

>  <energy>  (21) 
-511.8851298551407

>  <inter_energy>  (21) 
-558.7136187623265

>  <intra_energy>  (21) 
48.920451324995696

>  <rmsd>  (21) 
10.2241

>  <sdf_rank>  (21) 
0

$$$$

     RDKit          3D

 56 60  0  0  0  0  0  0  0  0999 V2000
   14.8859   56.4978   90.9220 O   0  0  0  0  0  0  0  0  0  0  0  0
   26.7120   61.6538   90.6266 C   0  0  0  0  0  0  0  0  0  0  0  0
   25.4799   59.9755   89.5343 C   0  0  0  0  0  0  0  0  0  0  0  0
   26.4389   57.0357   85.7219 C   0  0  0  0  0  0  0  0  0  0  0  0
   25.1098   59.4015   88.3303 N   0  0  0  0  0  0  0  0  0  0  0  0
   24.2507   58.2265   88.2281 C   0  0  0  0  0  0  0  0  0  0  0  0
   25.4628   59.9559   87.0162 C   0  0  0  0  0  0  0  0  0  0  0  0
   24.5336   59.2330   86.0600 C   0  0  2  0  0  0  0  0  0  0  0  0
   24.3605   57.8385   86.7077 C   0  0  2  0  0  0  0  0  0  0  0  0
   18.2008   55.2063   85.9293 O   0  0  0  0  0  0  0  0  0  0  0  0
   18.5165   55.8272   86.9170 C   0  0  0  0  0  0  0  0  0  0  0  0
   17.5590   55.9822   88.0032 C   0  0  0  0  0  0  0  0  0  0  0  0
   17.6883   55.2050   89.1081 N   0  0  0  0  0  0  0  0  0  0  0  0
   16.8213   55.3523   90.0818 C   0  0  0  0  0  0  0  0  0  0  0  0
   15.7694   56.3335   89.9347 C   0  0  0  0  0  0  0  0  0  0  0  0
   14.0060   55.4232   91.2601 C   0  0  0  0  0  0  0  0  0  0  0  0
   15.6423   57.0957   88.8402 N   0  0  0  0  0  0  0  0  0  0  0  0
   16.5391   56.9272   87.8587 C   0  0  0  0  0  0  0  0  0  0  0  0
   19.7516   56.3602   87.1322 N   0  0  0  0  0  0  0  0  0  0  0  0
   20.8397   56.3574   86.2732 C   0  0  0  0  0  0  0  0  0  0  0  0
   20.9802   55.5552   85.1029 C   0  0  0  0  0  0  0  0  0  0  0  0
   22.2081   55.5191   84.4337 C   0  0  0  0  0  0  0  0  0  0  0  0
   23.2577   56.2652   84.9349 C   0  0  0  0  0  0  0  0  0  0  0  0
   24.3800   56.1884   84.2763 F   0  0  0  0  0  0  0  0  0  0  0  0
   21.8986   57.1234   86.7487 C   0  0  0  0  0  0  0  0  0  0  0  0
   23.1442   57.0977   86.1191 C   0  0  0  0  0  0  0  0  0  0  0  0
   25.5093   56.9424   86.6258 N   0  0  0  0  0  0  0  0  0  0  0  0
   27.4845   56.1358   85.7290 N   0  0  0  0  0  0  0  0  0  0  0  0
   26.5581   58.2503   84.3881 S   0  0  0  0  0  0  0  0  0  0  0  0
   25.0138   59.1721   84.6090 C   0  0  0  0  0  0  0  0  0  0  0  0
   24.9366   59.4363   90.7180 N   0  0  0  0  0  0  0  0  0  0  0  0
   25.3345   60.0391   91.8638 C   0  0  0  0  0  0  0  0  0  0  0  0
   26.2327   61.1515   91.8417 C   0  0  0  0  0  0  0  0  0  0  0  0
   26.6515   61.6850   92.9190 F   0  0  0  0  0  0  0  0  0  0  0  0
   26.3543   61.0845   89.4694 N   0  0  0  0  0  0  0  0  0  0  0  0
   27.3872   62.5222   90.6226 H   0  0  0  0  0  0  0  0  0  0  0  0
   24.6163   57.4124   88.8712 H   0  0  0  0  0  0  0  0  0  0  0  0
   23.2171   58.4158   88.5535 H   0  0  0  0  0  0  0  0  0  0  0  0
   25.2872   61.0415   86.9884 H   0  0  0  0  0  0  0  0  0  0  0  0
   26.5248   59.8165   86.7659 H   0  0  0  0  0  0  0  0  0  0  0  0
   23.5834   59.7746   85.9429 H   0  0  0  0  0  0  0  0  0  0  0  0
   16.8933   54.7407   90.9932 H   0  0  0  0  0  0  0  0  0  0  0  0
   13.9357   55.3374   92.3545 H   0  0  0  0  0  0  0  0  0  0  0  0
   13.0077   55.6217   90.8430 H   0  0  0  0  0  0  0  0  0  0  0  0
   14.3975   54.4837   90.8430 H   0  0  0  0  0  0  0  0  0  0  0  0
   16.4729   57.5311   86.9417 H   0  0  0  0  0  0  0  0  0  0  0  0
   19.8941   56.8206   88.0425 H   0  0  0  0  0  0  0  0  0  0  0  0
   20.1284   54.9684   84.7287 H   0  0  0  0  0  0  0  0  0  0  0  0
   22.3355   54.9093   83.5271 H   0  0  0  0  0  0  0  0  0  0  0  0
   21.7524   57.7591   87.6344 H   0  0  0  0  0  0  0  0  0  0  0  0
   25.5883   56.1912   87.3260 H   0  0  0  0  0  0  0  0  0  0  0  0
   28.2257   56.2018   85.0168 H   0  0  0  0  0  0  0  0  0  0  0  0
   27.5240   55.3978   86.4464 H   0  0  0  0  0  0  0  0  0  0  0  0
   24.2319   58.6887   84.0049 H   0  0  0  0  0  0  0  0  0  0  0  0
   25.2104   60.2071   84.2928 H   0  0  0  0  0  0  0  0  0  0  0  0
   24.9600   59.6663   92.8286 H   0  0  0  0  0  0  0  0  0  0  0  0
  1 15  1  0
  1 16  1  0
  2 33  2  0
  2 35  1  0
  3  5  1  0
  3 31  1  0
  3 35  2  0
  4 27  2  0
  4 28  1  0
  4 29  1  0
  5  6  1  0
  5  7  1  0
  6  9  1  0
  8  7  1  0
  8  9  1  0
  8 30  1  0
  9 26  1  6
  9 27  1  0
 10 11  2  0
 11 12  1  0
 11 19  1  0
 12 13  2  0
 12 18  1  0
 13 14  1  0
 14 15  2  0
 15 17  1  0
 17 18  2  0
 19 20  1  0
 20 21  2  0
 20 25  1  0
 21 22  1  0
 22 23  2  0
 23 24  1  0
 23 26  1  0
 25 26  2  0
 29 30  1  0
 31 32  2  0
 32 33  1  0
 33 34  1  0
  2 36  1  0
  6 37  1  0
  6 38  1  0
  7 39  1  0
  7 40  1  0
  8 41  1  6
 14 42  1  0
 16 43  1  0
 16 44  1  0
 16 45  1  0
 18 46  1  0
 19 47  1  0
 21 48  1  0
 22 49  1  0
 25 50  1  0
 27 51  1  0
 28 52  1  0
 28 53  1  0
 30 54  1  0
 30 55  1  0
 32 56  1  0
M  CHG  1  27   1
M  END
>  <filename_input>  (22) 
7MYU_ZR7_docked.sdf

>  <pdb_id>  (22) 
7MYU_ZR7

>  <pose_rank>  (22) 
21

>  <num_atoms_heavy>  (22) 
35

>  <num_torsions>  (22) 
4

>  <pose>  (22) 
[20.839730124731826, 56.3574023347126, 86.27319992106422, 0.38515966109724925, 0.5463086965298872, 3.4735057662236177, 2.7365812496299475, -0.4039969329818356, -1.6427851643503237, -1.6345944723269783]

>  <energy>  (22) 
-646.5001641894166

>  <inter_energy>  (22) 
-701.8183767735077

>  <intra_energy>  (22) 
61.76781292270318

>  <rmsd>  (22) 
9.71155

>  <sdf_rank>  (22) 
0

$$$$

     RDKit          3D

 56 60  0  0  0  0  0  0  0  0999 V2000
   28.8920   57.4020   85.9736 O   0  0  0  0  0  0  0  0  0  0  0  0
   17.6926   62.2973   92.8137 C   0  0  0  0  0  0  0  0  0  0  0  0
   18.0009   60.6802   91.1351 C   0  0  0  0  0  0  0  0  0  0  0  0
   18.2329   55.7771   91.1851 C   0  0  0  0  0  0  0  0  0  0  0  0
   18.6131   59.4974   90.7580 N   0  0  0  0  0  0  0  0  0  0  0  0
   18.4029   58.8583   89.4632 C   0  0  0  0  0  0  0  0  0  0  0  0
   19.6104   58.7945   91.5766 C   0  0  0  0  0  0  0  0  0  0  0  0
   20.2491   57.8196   90.6060 C   0  0  2  0  0  0  0  0  0  0  0  0
   19.0932   57.4565   89.6438 C   0  0  2  0  0  0  0  0  0  0  0  0
   23.3640   57.6088   88.5750 O   0  0  0  0  0  0  0  0  0  0  0  0
   23.6738   57.1255   87.5114 C   0  0  0  0  0  0  0  0  0  0  0  0
   25.0624   57.1801   87.0761 C   0  0  0  0  0  0  0  0  0  0  0  0
   25.4132   56.5592   85.9215 N   0  0  0  0  0  0  0  0  0  0  0  0
   26.6664   56.6145   85.5371 C   0  0  0  0  0  0  0  0  0  0  0  0
   27.6155   57.3325   86.3585 C   0  0  0  0  0  0  0  0  0  0  0  0
   29.9005   56.7873   86.7787 C   0  0  0  0  0  0  0  0  0  0  0  0
   27.2662   57.9401   87.5002 N   0  0  0  0  0  0  0  0  0  0  0  0
   25.9808   57.8698   87.8729 C   0  0  0  0  0  0  0  0  0  0  0  0
   22.8175   56.4602   86.6867 N   0  0  0  0  0  0  0  0  0  0  0  0
   21.4561   56.2616   86.8568 C   0  0  0  0  0  0  0  0  0  0  0  0
   20.5522   55.7702   85.8698 C   0  0  0  0  0  0  0  0  0  0  0  0
   19.1761   55.7952   86.1200 C   0  0  0  0  0  0  0  0  0  0  0  0
   18.7312   56.3043   87.3252 C   0  0  0  0  0  0  0  0  0  0  0  0
   17.4398   56.3103   87.5020 F   0  0  0  0  0  0  0  0  0  0  0  0
   20.9930   56.7457   88.0755 C   0  0  0  0  0  0  0  0  0  0  0  0
   19.6263   56.8046   88.3532 C   0  0  0  0  0  0  0  0  0  0  0  0
   18.0533   56.5872   90.1843 N   0  0  0  0  0  0  0  0  0  0  0  0
   17.1841   54.9933   91.6199 N   0  0  0  0  0  0  0  0  0  0  0  0
   19.7481   55.5263   92.1389 S   0  0  0  0  0  0  0  0  0  0  0  0
   20.9076   56.5986   91.2506 C   0  0  0  0  0  0  0  0  0  0  0  0
   17.1891   61.3354   90.1870 N   0  0  0  0  0  0  0  0  0  0  0  0
   16.6177   62.4873   90.6128 C   0  0  0  0  0  0  0  0  0  0  0  0
   16.8513   62.9860   91.9324 C   0  0  0  0  0  0  0  0  0  0  0  0
   16.2725   64.0384   92.3539 F   0  0  0  0  0  0  0  0  0  0  0  0
   18.2716   61.1497   92.4408 N   0  0  0  0  0  0  0  0  0  0  0  0
   17.8793   62.7019   93.8194 H   0  0  0  0  0  0  0  0  0  0  0  0
   17.3301   58.7458   89.2475 H   0  0  0  0  0  0  0  0  0  0  0  0
   18.8120   59.4377   88.6225 H   0  0  0  0  0  0  0  0  0  0  0  0
   20.3569   59.4975   91.9748 H   0  0  0  0  0  0  0  0  0  0  0  0
   19.1689   58.2967   92.4525 H   0  0  0  0  0  0  0  0  0  0  0  0
   21.1095   58.2746   90.0935 H   0  0  0  0  0  0  0  0  0  0  0  0
   26.9892   56.1237   84.6070 H   0  0  0  0  0  0  0  0  0  0  0  0
   29.6604   56.9337   87.8422 H   0  0  0  0  0  0  0  0  0  0  0  0
   29.9412   55.7107   86.5568 H   0  0  0  0  0  0  0  0  0  0  0  0
   30.8761   57.2445   86.5568 H   0  0  0  0  0  0  0  0  0  0  0  0
   25.6493   58.3537   88.8034 H   0  0  0  0  0  0  0  0  0  0  0  0
   23.2314   56.0563   85.8344 H   0  0  0  0  0  0  0  0  0  0  0  0
   20.9345   55.3740   84.9175 H   0  0  0  0  0  0  0  0  0  0  0  0
   18.4627   55.4173   85.3727 H   0  0  0  0  0  0  0  0  0  0  0  0
   21.7147   57.0874   88.8321 H   0  0  0  0  0  0  0  0  0  0  0  0
   17.1213   56.6171   89.7467 H   0  0  0  0  0  0  0  0  0  0  0  0
   17.3169   54.3486   92.4121 H   0  0  0  0  0  0  0  0  0  0  0  0
   16.2682   55.0529   91.1524 H   0  0  0  0  0  0  0  0  0  0  0  0
   21.3906   56.0068   90.4591 H   0  0  0  0  0  0  0  0  0  0  0  0
   21.6269   56.9765   91.9920 H   0  0  0  0  0  0  0  0  0  0  0  0
   15.9621   63.0492   89.9312 H   0  0  0  0  0  0  0  0  0  0  0  0
  1 15  1  0
  1 16  1  0
  2 33  2  0
  2 35  1  0
  3  5  1  0
  3 31  1  0
  3 35  2  0
  4 27  2  0
  4 28  1  0
  4 29  1  0
  5  6  1  0
  5  7  1  0
  6  9  1  0
  8  7  1  0
  8  9  1  0
  8 30  1  0
  9 26  1  6
  9 27  1  0
 10 11  2  0
 11 12  1  0
 11 19  1  0
 12 13  2  0
 12 18  1  0
 13 14  1  0
 14 15  2  0
 15 17  1  0
 17 18  2  0
 19 20  1  0
 20 21  2  0
 20 25  1  0
 21 22  1  0
 22 23  2  0
 23 24  1  0
 23 26  1  0
 25 26  2  0
 29 30  1  0
 31 32  2  0
 32 33  1  0
 33 34  1  0
  2 36  1  0
  6 37  1  0
  6 38  1  0
  7 39  1  0
  7 40  1  0
  8 41  1  6
 14 42  1  0
 16 43  1  0
 16 44  1  0
 16 45  1  0
 18 46  1  0
 19 47  1  0
 21 48  1  0
 22 49  1  0
 25 50  1  0
 27 51  1  0
 28 52  1  0
 28 53  1  0
 30 54  1  0
 30 55  1  0
 32 56  1  0
M  CHG  1  27   1
M  END
>  <filename_input>  (23) 
7MYU_ZR7_docked.sdf

>  <pdb_id>  (23) 
7MYU_ZR7

>  <pose_rank>  (23) 
22

>  <num_atoms_heavy>  (23) 
35

>  <num_torsions>  (23) 
4

>  <pose>  (23) 
[21.456137326580592, 56.26159065251356, 86.85682136341751, -0.6806192793439757, 0.5965534495517061, 0.18831148404880974, -2.008614647645629, 2.7776514415417513, -0.3538738300406134, -2.526768502588066]

>  <energy>  (23) 
-459.45636368747284

>  <inter_energy>  (23) 
-505.8218550360823

>  <intra_energy>  (23) 
51.87041427869644

>  <rmsd>  (23) 
5.52751

>  <sdf_rank>  (23) 
0

$$$$

     RDKit          3D

 56 60  0  0  0  0  0  0  0  0999 V2000
   15.7830   65.4880   93.9853 O   0  0  0  0  0  0  0  0  0  0  0  0
   16.2034   53.9722   87.6160 C   0  0  0  0  0  0  0  0  0  0  0  0
   17.5409   55.6893   88.5051 C   0  0  0  0  0  0  0  0  0  0  0  0
   22.2408   56.9617   87.8819 C   0  0  0  0  0  0  0  0  0  0  0  0
   18.7709   56.0550   89.0242 N   0  0  0  0  0  0  0  0  0  0  0  0
   19.0996   57.4158   89.4356 C   0  0  0  0  0  0  0  0  0  0  0  0
   19.8563   55.1052   89.3044 C   0  0  0  0  0  0  0  0  0  0  0  0
   20.8000   55.8908   90.1948 C   0  0  2  0  0  0  0  0  0  0  0  0
   20.6506   57.3448   89.6876 C   0  0  2  0  0  0  0  0  0  0  0  0
   19.0406   60.2931   94.3765 O   0  0  0  0  0  0  0  0  0  0  0  0
   19.0967   61.1854   93.5633 C   0  0  0  0  0  0  0  0  0  0  0  0
   18.2221   62.3411   93.7052 C   0  0  0  0  0  0  0  0  0  0  0  0
   18.3290   63.1126   94.8164 N   0  0  0  0  0  0  0  0  0  0  0  0
   17.5372   64.1521   94.9350 C   0  0  0  0  0  0  0  0  0  0  0  0
   16.5886   64.4287   93.8793 C   0  0  0  0  0  0  0  0  0  0  0  0
   14.7201   65.4665   94.9409 C   0  0  0  0  0  0  0  0  0  0  0  0
   16.4829   63.6618   92.7859 N   0  0  0  0  0  0  0  0  0  0  0  0
   17.3016   62.6054   92.6869 C   0  0  0  0  0  0  0  0  0  0  0  0
   19.9787   61.2307   92.5260 N   0  0  0  0  0  0  0  0  0  0  0  0
   20.9140   60.2738   92.1635 C   0  0  0  0  0  0  0  0  0  0  0  0
   22.3106   60.3189   92.4471 C   0  0  0  0  0  0  0  0  0  0  0  0
   23.1649   59.3786   91.8615 C   0  0  0  0  0  0  0  0  0  0  0  0
   22.6245   58.4295   91.0149 C   0  0  0  0  0  0  0  0  0  0  0  0
   23.4669   57.5836   90.4916 F   0  0  0  0  0  0  0  0  0  0  0  0
   20.3829   59.2952   91.3304 C   0  0  0  0  0  0  0  0  0  0  0  0
   21.2064   58.3525   90.7126 C   0  0  0  0  0  0  0  0  0  0  0  0
   21.2599   57.6429   88.3956 N   0  0  0  0  0  0  0  0  0  0  0  0
   22.7495   57.3269   86.6526 N   0  0  0  0  0  0  0  0  0  0  0  0
   23.0714   55.5222   88.5934 S   0  0  0  0  0  0  0  0  0  0  0  0
   22.2477   55.3971   90.2026 C   0  0  0  0  0  0  0  0  0  0  0  0
   16.5325   56.6722   88.4404 N   0  0  0  0  0  0  0  0  0  0  0  0
   15.3514   56.2557   87.9243 C   0  0  0  0  0  0  0  0  0  0  0  0
   15.1660   54.9040   87.4965 C   0  0  0  0  0  0  0  0  0  0  0  0
   14.0760   54.5234   86.9605 F   0  0  0  0  0  0  0  0  0  0  0  0
   17.3913   54.3400   88.1109 N   0  0  0  0  0  0  0  0  0  0  0  0
   16.0414   52.9308   87.3010 H   0  0  0  0  0  0  0  0  0  0  0  0
   18.8609   58.1376   88.6406 H   0  0  0  0  0  0  0  0  0  0  0  0
   18.5324   57.7512   90.3164 H   0  0  0  0  0  0  0  0  0  0  0  0
   19.4741   54.2155   89.8262 H   0  0  0  0  0  0  0  0  0  0  0  0
   20.3431   54.7324   88.3911 H   0  0  0  0  0  0  0  0  0  0  0  0
   20.5343   55.7751   91.2560 H   0  0  0  0  0  0  0  0  0  0  0  0
   17.5941   64.8013   95.8213 H   0  0  0  0  0  0  0  0  0  0  0  0
   15.1407   65.4750   95.9573 H   0  0  0  0  0  0  0  0  0  0  0  0
   14.0828   66.3520   94.8004 H   0  0  0  0  0  0  0  0  0  0  0  0
   14.1191   64.5561   94.8004 H   0  0  0  0  0  0  0  0  0  0  0  0
   17.2493   61.9479   91.8066 H   0  0  0  0  0  0  0  0  0  0  0  0
   19.9467   62.0776   91.9406 H   0  0  0  0  0  0  0  0  0  0  0  0
   22.7137   61.0882   93.1222 H   0  0  0  0  0  0  0  0  0  0  0  0
   24.2447   59.3944   92.0706 H   0  0  0  0  0  0  0  0  0  0  0  0
   19.2973   59.2634   91.1556 H   0  0  0  0  0  0  0  0  0  0  0  0
   20.8908   58.4406   87.8587 H   0  0  0  0  0  0  0  0  0  0  0  0
   23.5265   56.7931   86.2376 H   0  0  0  0  0  0  0  0  0  0  0  0
   22.3522   58.1332   86.1497 H   0  0  0  0  0  0  0  0  0  0  0  0
   22.8147   55.9966   90.9299 H   0  0  0  0  0  0  0  0  0  0  0  0
   22.2209   54.3296   90.4667 H   0  0  0  0  0  0  0  0  0  0  0  0
   14.5200   56.9702   87.8326 H   0  0  0  0  0  0  0  0  0  0  0  0
  1 15  1  0
  1 16  1  0
  2 33  2  0
  2 35  1  0
  3  5  1  0
  3 31  1  0
  3 35  2  0
  4 27  2  0
  4 28  1  0
  4 29  1  0
  5  6  1  0
  5  7  1  0
  6  9  1  0
  8  7  1  0
  8  9  1  0
  8 30  1  0
  9 26  1  1
  9 27  1  0
 10 11  2  0
 11 12  1  0
 11 19  1  0
 12 13  2  0
 12 18  1  0
 13 14  1  0
 14 15  2  0
 15 17  1  0
 17 18  2  0
 19 20  1  0
 20 21  2  0
 20 25  1  0
 21 22  1  0
 22 23  2  0
 23 24  1  0
 23 26  1  0
 25 26  2  0
 29 30  1  0
 31 32  2  0
 32 33  1  0
 33 34  1  0
  2 36  1  0
  6 37  1  0
  6 38  1  0
  7 39  1  0
  7 40  1  0
  8 41  1  1
 14 42  1  0
 16 43  1  0
 16 44  1  0
 16 45  1  0
 18 46  1  0
 19 47  1  0
 21 48  1  0
 22 49  1  0
 25 50  1  0
 27 51  1  0
 28 52  1  0
 28 53  1  0
 30 54  1  0
 30 55  1  0
 32 56  1  0
M  CHG  1  27   1
M  END
>  <filename_input>  (24) 
7MYU_ZR7_docked.sdf

>  <pdb_id>  (24) 
7MYU_ZR7

>  <pose_rank>  (24) 
23

>  <num_atoms_heavy>  (24) 
35

>  <num_torsions>  (24) 
4

>  <pose>  (24) 
[20.914027093101616, 60.27380495541965, 92.16352580330052, -1.1159379081921559, -1.8683022153139301, 0.5824335062856661, 2.3746000622434766, -1.9231303428981248, 3.930804131387482, -8.035976577807222]

>  <energy>  (24) 
-422.7626730043889

>  <inter_energy>  (24) 
-487.47775179608345

>  <intra_energy>  (24) 
62.27723420849543

>  <rmsd>  (24) 
9.90857

>  <sdf_rank>  (24) 
0

$$$$

     RDKit          3D

 56 60  0  0  0  0  0  0  0  0999 V2000
   15.7002   53.6530   86.0875 O   0  0  0  0  0  0  0  0  0  0  0  0
   27.4846   58.9110   84.5521 C   0  0  0  0  0  0  0  0  0  0  0  0
   25.6416   58.9107   86.0119 C   0  0  0  0  0  0  0  0  0  0  0  0
   24.4535   61.6108   89.9355 C   0  0  0  0  0  0  0  0  0  0  0  0
   25.1919   59.0094   87.3173 N   0  0  0  0  0  0  0  0  0  0  0  0
   23.7815   58.9670   87.6891 C   0  0  0  0  0  0  0  0  0  0  0  0
   26.0796   59.0788   88.4860 C   0  0  0  0  0  0  0  0  0  0  0  0
   25.1589   58.7831   89.6544 C   0  0  2  0  0  0  0  0  0  0  0  0
   23.8028   59.3787   89.2071 C   0  0  2  0  0  0  0  0  0  0  0  0
   17.8643   56.8076   90.9002 O   0  0  0  0  0  0  0  0  0  0  0  0
   18.4129   56.4738   89.8763 C   0  0  0  0  0  0  0  0  0  0  0  0
   17.6752   55.7017   88.8863 C   0  0  0  0  0  0  0  0  0  0  0  0
   16.8054   54.7504   89.3107 N   0  0  0  0  0  0  0  0  0  0  0  0
   16.1448   54.0603   88.4113 C   0  0  0  0  0  0  0  0  0  0  0  0
   16.3723   54.3433   87.0117 C   0  0  0  0  0  0  0  0  0  0  0  0
   16.4211   52.8367   85.1616 C   0  0  0  0  0  0  0  0  0  0  0  0
   17.2353   55.2801   86.5964 N   0  0  0  0  0  0  0  0  0  0  0  0
   17.8989   55.9719   87.5331 C   0  0  0  0  0  0  0  0  0  0  0  0
   19.6847   56.8210   89.5329 N   0  0  0  0  0  0  0  0  0  0  0  0
   20.5993   57.5453   90.2816 C   0  0  0  0  0  0  0  0  0  0  0  0
   20.4115   58.0017   91.6192 C   0  0  0  0  0  0  0  0  0  0  0  0
   21.3416   58.8793   92.1865 C   0  0  0  0  0  0  0  0  0  0  0  0
   22.4208   59.2840   91.4242 C   0  0  0  0  0  0  0  0  0  0  0  0
   23.2513   60.1074   91.9999 F   0  0  0  0  0  0  0  0  0  0  0  0
   21.7055   57.9413   89.5376 C   0  0  0  0  0  0  0  0  0  0  0  0
   22.6441   58.8312   90.0628 C   0  0  0  0  0  0  0  0  0  0  0  0
   23.7065   60.8348   89.2077 N   0  0  0  0  0  0  0  0  0  0  0  0
   24.2818   62.9779   89.8657 N   0  0  0  0  0  0  0  0  0  0  0  0
   25.7592   61.1183   91.0849 S   0  0  0  0  0  0  0  0  0  0  0  0
   25.6364   59.3121   91.0079 C   0  0  0  0  0  0  0  0  0  0  0  0
   24.6871   58.6846   84.9996 N   0  0  0  0  0  0  0  0  0  0  0  0
   25.1862   58.5966   83.7435 C   0  0  0  0  0  0  0  0  0  0  0  0
   26.5893   58.7148   83.4945 C   0  0  0  0  0  0  0  0  0  0  0  0
   27.0556   58.6876   82.3103 F   0  0  0  0  0  0  0  0  0  0  0  0
   27.0369   59.0141   85.8091 N   0  0  0  0  0  0  0  0  0  0  0  0
   28.5634   58.9809   84.3489 H   0  0  0  0  0  0  0  0  0  0  0  0
   23.1942   59.6817   87.0939 H   0  0  0  0  0  0  0  0  0  0  0  0
   23.3162   57.9861   87.5127 H   0  0  0  0  0  0  0  0  0  0  0  0
   26.8792   58.3267   88.4165 H   0  0  0  0  0  0  0  0  0  0  0  0
   26.5875   60.0501   88.5786 H   0  0  0  0  0  0  0  0  0  0  0  0
   25.1090   57.7032   89.8582 H   0  0  0  0  0  0  0  0  0  0  0  0
   15.4311   53.2809   88.7165 H   0  0  0  0  0  0  0  0  0  0  0  0
   17.0507   52.1238   85.7142 H   0  0  0  0  0  0  0  0  0  0  0  0
   15.7105   52.2845   84.5290 H   0  0  0  0  0  0  0  0  0  0  0  0
   17.0569   53.4736   84.5290 H   0  0  0  0  0  0  0  0  0  0  0  0
   18.6178   56.7503   87.2378 H   0  0  0  0  0  0  0  0  0  0  0  0
   20.0052   56.5076   88.6056 H   0  0  0  0  0  0  0  0  0  0  0  0
   19.5408   57.6659   92.2015 H   0  0  0  0  0  0  0  0  0  0  0  0
   21.2164   59.2399   93.2182 H   0  0  0  0  0  0  0  0  0  0  0  0
   21.8430   57.5473   88.5199 H   0  0  0  0  0  0  0  0  0  0  0  0
   23.0047   61.2739   88.5948 H   0  0  0  0  0  0  0  0  0  0  0  0
   24.8690   63.6006   90.4386 H   0  0  0  0  0  0  0  0  0  0  0  0
   23.5663   63.3758   89.2406 H   0  0  0  0  0  0  0  0  0  0  0  0
   24.9272   58.9794   91.7802 H   0  0  0  0  0  0  0  0  0  0  0  0
   26.6497   58.9149   91.1678 H   0  0  0  0  0  0  0  0  0  0  0  0
   24.5000   58.4312   82.8998 H   0  0  0  0  0  0  0  0  0  0  0  0
  1 15  1  0
  1 16  1  0
  2 33  2  0
  2 35  1  0
  3  5  1  0
  3 31  1  0
  3 35  2  0
  4 27  2  0
  4 28  1  0
  4 29  1  0
  5  6  1  0
  5  7  1  0
  6  9  1  0
  8  7  1  0
  8  9  1  0
  8 30  1  0
  9 26  1  1
  9 27  1  0
 10 11  2  0
 11 12  1  0
 11 19  1  0
 12 13  2  0
 12 18  1  0
 13 14  1  0
 14 15  2  0
 15 17  1  0
 17 18  2  0
 19 20  1  0
 20 21  2  0
 20 25  1  0
 21 22  1  0
 22 23  2  0
 23 24  1  0
 23 26  1  0
 25 26  2  0
 29 30  1  0
 31 32  2  0
 32 33  1  0
 33 34  1  0
  2 36  1  0
  6 37  1  0
  6 38  1  0
  7 39  1  0
  7 40  1  0
  8 41  1  1
 14 42  1  0
 16 43  1  0
 16 44  1  0
 16 45  1  0
 18 46  1  0
 19 47  1  0
 21 48  1  0
 22 49  1  0
 25 50  1  0
 27 51  1  0
 28 52  1  0
 28 53  1  0
 30 54  1  0
 30 55  1  0
 32 56  1  0
M  CHG  1  27   1
M  END
>  <filename_input>  (25) 
7MYU_ZR7_docked.sdf

>  <pdb_id>  (25) 
7MYU_ZR7

>  <pose_rank>  (25) 
24

>  <num_atoms_heavy>  (25) 
35

>  <num_torsions>  (25) 
4

>  <pose>  (25) 
[20.599307434918863, 57.54532722605077, 90.28161890679945, -0.6888747076181753, 2.966651773966376, 0.0065604956280041204, 2.503081422840327, -0.07947641533806077, -4.084993318537972, -2.5636415193791695]

>  <energy>  (25) 
-406.8745223545965

>  <inter_energy>  (25) 
-474.51019525062213

>  <intra_energy>  (25) 
69.84151228518002

>  <rmsd>  (25) 
9.91702

>  <sdf_rank>  (25) 
0

$$$$

     RDKit          3D

 56 60  0  0  0  0  0  0  0  0999 V2000
   31.9680   54.3090   89.4590 O   0  0  0  0  0  0  0  0  0  0  0  0
   15.9230   56.0620   88.4250 C   0  0  0  0  0  0  0  0  0  0  0  0
   18.0760   55.6220   87.5890 C   0  0  0  0  0  0  0  0  0  0  0  0
   22.5060   55.3280   89.6830 C   0  0  0  0  0  0  0  0  0  0  0  0
   19.4220   55.9440   87.6150 N   0  0  0  0  0  0  0  0  0  0  0  0
   20.4320   55.2500   86.8230 C   0  0  0  0  0  0  0  0  0  0  0  0
   19.9790   57.0740   88.3710 C   0  0  0  0  0  0  0  0  0  0  0  0
   21.3680   57.2470   87.7870 C   0  0  2  0  0  0  0  0  0  0  0  0
   21.7830   55.8060   87.4060 C   0  0  2  0  0  0  0  0  0  0  0  0
   28.0470   56.2380   85.1840 O   0  0  0  0  0  0  0  0  0  0  0  0
   27.8070   55.6340   86.2030 C   0  0  0  0  0  0  0  0  0  0  0  0
   28.9000   55.2610   87.0900 C   0  0  0  0  0  0  0  0  0  0  0  0
   28.6810   54.3180   88.0410 N   0  0  0  0  0  0  0  0  0  0  0  0
   29.6720   53.9880   88.8350 C   0  0  0  0  0  0  0  0  0  0  0  0
   30.9500   54.6420   88.6620 C   0  0  0  0  0  0  0  0  0  0  0  0
   32.0310   52.9870   89.9990 C   0  0  0  0  0  0  0  0  0  0  0  0
   31.1610   55.5760   87.7250 N   0  0  0  0  0  0  0  0  0  0  0  0
   30.1340   55.8970   86.9260 C   0  0  0  0  0  0  0  0  0  0  0  0
   26.5550   55.3150   86.6350 N   0  0  0  0  0  0  0  0  0  0  0  0
   25.3490   55.5500   85.9930 C   0  0  0  0  0  0  0  0  0  0  0  0
   25.1900   56.0190   84.6560 C   0  0  0  0  0  0  0  0  0  0  0  0
   23.9200   56.3880   84.2000 C   0  0  0  0  0  0  0  0  0  0  0  0
   22.8500   56.2900   85.0690 C   0  0  0  0  0  0  0  0  0  0  0  0
   21.6920   56.6540   84.5940 F   0  0  0  0  0  0  0  0  0  0  0  0
   24.2570   55.4320   86.8460 C   0  0  0  0  0  0  0  0  0  0  0  0
   22.9780   55.8090   86.4330 C   0  0  0  0  0  0  0  0  0  0  0  0
   22.1140   54.9160   88.5140 N   0  0  0  0  0  0  0  0  0  0  0  0
   22.7980   54.4040   90.6650 N   0  0  0  0  0  0  0  0  0  0  0  0
   22.7290   57.0370   90.2290 S   0  0  0  0  0  0  0  0  0  0  0  0
   22.3750   57.9460   88.7020 C   0  0  0  0  0  0  0  0  0  0  0  0
   17.6540   54.6180   86.6940 N   0  0  0  0  0  0  0  0  0  0  0  0
   16.3270   54.3470   86.7130 C   0  0  0  0  0  0  0  0  0  0  0  0
   15.4390   55.0560   87.5810 C   0  0  0  0  0  0  0  0  0  0  0  0
   14.2010   54.7660   87.6410 F   0  0  0  0  0  0  0  0  0  0  0  0
   17.2280   56.3580   88.4480 N   0  0  0  0  0  0  0  0  0  0  0  0
   15.2262   56.6130   89.0738 H   0  0  0  0  0  0  0  0  0  0  0  0
   20.3613   54.1607   86.9591 H   0  0  0  0  0  0  0  0  0  0  0  0
   20.3252   55.4181   85.7412 H   0  0  0  0  0  0  0  0  0  0  0  0
   19.3751   57.9813   88.2223 H   0  0  0  0  0  0  0  0  0  0  0  0
   19.9919   56.8959   89.4564 H   0  0  0  0  0  0  0  0  0  0  0  0
   21.3555   57.9333   86.9275 H   0  0  0  0  0  0  0  0  0  0  0  0
   29.5332   53.2278   89.6179 H   0  0  0  0  0  0  0  0  0  0  0  0
   32.0285   53.0392   91.0977 H   0  0  0  0  0  0  0  0  0  0  0  0
   31.1594   52.4095   89.6574 H   0  0  0  0  0  0  0  0  0  0  0  0
   32.9536   52.4950   89.6574 H   0  0  0  0  0  0  0  0  0  0  0  0
   30.2618   56.6591   86.1431 H   0  0  0  0  0  0  0  0  0  0  0  0
   26.4975   54.8424   87.5484 H   0  0  0  0  0  0  0  0  0  0  0  0
   26.0605   56.0902   83.9873 H   0  0  0  0  0  0  0  0  0  0  0  0
   23.7761   56.7487   83.1709 H   0  0  0  0  0  0  0  0  0  0  0  0
   24.4034   55.0356   87.8616 H   0  0  0  0  0  0  0  0  0  0  0  0
   22.0322   53.9008   88.3607 H   0  0  0  0  0  0  0  0  0  0  0  0
   23.1093   54.7210   91.5942 H   0  0  0  0  0  0  0  0  0  0  0  0
   22.7047   53.3971   90.4689 H   0  0  0  0  0  0  0  0  0  0  0  0
   23.3167   58.0735   88.1480 H   0  0  0  0  0  0  0  0  0  0  0  0
   21.9270   58.9063   88.9972 H   0  0  0  0  0  0  0  0  0  0  0  0
   15.9253   53.5676   86.0488 H   0  0  0  0  0  0  0  0  0  0  0  0
  1 15  1  0
  1 16  1  0
  2 33  2  0
  2 35  1  0
  3  5  1  0
  3 31  1  0
  3 35  2  0
  4 27  2  0
  4 28  1  0
  4 29  1  0
  5  6  1  0
  5  7  1  0
  6  9  1  0
  8  7  1  0
  8  9  1  0
  8 30  1  0
  9 26  1  6
  9 27  1  0
 10 11  2  0
 11 12  1  0
 11 19  1  0
 12 13  2  0
 12 18  1  0
 13 14  1  0
 14 15  2  0
 15 17  1  0
 17 18  2  0
 19 20  1  0
 20 21  2  0
 20 25  1  0
 21 22  1  0
 22 23  2  0
 23 24  1  0
 23 26  1  0
 25 26  2  0
 29 30  1  0
 31 32  2  0
 32 33  1  0
 33 34  1  0
  2 36  1  0
  6 37  1  0
  6 38  1  0
  7 39  1  0
  7 40  1  0
  8 41  1  6
 14 42  1  0
 16 43  1  0
 16 44  1  0
 16 45  1  0
 18 46  1  0
 19 47  1  0
 21 48  1  0
 22 49  1  0
 25 50  1  0
 27 51  1  0
 28 52  1  0
 28 53  1  0
 30 54  1  0
 30 55  1  0
 32 56  1  0
M  CHG  1  27   1
M  END
>  <filename_input>  (26) 
7MYU_ZR7_docked.sdf

>  <pdb_id>  (26) 
7MYU_ZR7

>  <pose_rank>  (26) 
25

>  <num_atoms_heavy>  (26) 
35

>  <num_torsions>  (26) 
4

>  <pose>  (26) 
[25.349, 55.55, 85.993, 1e-06, 1e-06, 1e-06, 0.0, 0.0, 0.0, 0.0]

>  <energy>  (26) 
-1857.1502198725518

>  <inter_energy>  (26) 
-1912.9903298284719

>  <intra_energy>  (26) 
28.766337943176026

>  <rmsd>  (26) 
0.0

>  <sdf_rank>  (26) 
0

$$$$
