
     RDKit          3D

 56 58  0  0  0  0  0  0  0  0999 V2000
  -39.3958   10.5565    1.4876 C   0  0  0  0  0  0  0  0  0  0  0  0
  -40.3497   11.4629    0.7147 C   0  0  0  0  0  0  0  0  0  0  0  0
  -40.8283   10.8324   -0.5838 C   0  0  0  0  0  0  0  0  0  0  0  0
  -46.6159   10.2689    1.6455 C   0  0  0  0  0  0  0  0  0  0  0  0
  -47.5122   10.7208    2.5694 C   0  0  0  0  0  0  0  0  0  0  0  0
  -47.1092   11.6346    3.5729 C   0  0  0  0  0  0  0  0  0  0  0  0
  -45.7663   12.0795    3.5949 C   0  0  0  0  0  0  0  0  0  0  0  0
  -44.8742   11.6112    2.5988 C   0  0  0  0  0  0  0  0  0  0  0  0
  -45.3975   12.9943    4.6161 C   0  0  0  0  0  0  0  0  0  0  0  0
  -46.3787   13.5063    5.4804 C   0  0  0  0  0  0  0  0  0  0  0  0
  -47.6706   12.9695    5.3606 C   0  0  0  0  0  0  0  0  0  0  0  0
  -46.0685   14.5512    6.4974 C   0  0  0  0  0  0  0  0  0  0  0  0
  -46.7770   16.4224    7.8728 C   0  0  0  0  0  0  0  0  0  0  0  0
  -40.5690   12.3341    4.6928 C   0  0  0  0  0  0  0  0  0  0  0  0
  -40.6186   11.0762    5.2760 C   0  0  0  0  0  0  0  0  0  0  0  0
  -41.8158   10.5768    5.7257 C   0  0  0  0  0  0  0  0  0  0  0  0
  -42.9776   11.3035    5.5274 C   0  0  0  0  0  0  0  0  0  0  0  0
  -44.9112   14.7580    6.9026 O   0  0  0  0  0  0  0  0  0  0  0  0
  -47.0478   15.3334    6.9461 N   0  0  0  0  0  0  0  0  0  0  0  0
  -48.0312   12.0686    4.4745 N   0  0  0  0  0  0  0  0  0  0  0  0
  -44.0796   13.4109    4.7549 N   0  0  0  0  0  0  0  0  0  0  0  0
  -42.9343   12.5428    4.9108 C   0  0  0  0  0  0  0  0  0  0  0  0
  -41.7166   13.0671    4.4949 C   0  0  0  0  0  0  0  0  0  0  0  0
  -45.2978   10.7182    1.6318 C   0  0  0  0  0  0  0  0  0  0  0  0
  -44.4228   10.3226    0.6412 N   0  0  0  0  0  0  0  0  0  0  0  0
  -43.1492   11.0092    0.4759 C   0  0  0  0  0  0  0  0  0  0  0  0
  -42.2449   10.3173   -0.5158 C   0  0  0  0  0  0  0  0  0  0  0  0
  -38.0110   11.1242    1.6911 C   0  0  0  0  0  0  0  0  0  0  0  0
  -39.8349   10.3614    2.4772 H   0  0  0  0  0  0  0  0  0  0  0  0
  -39.2725    9.6467    0.8817 H   0  0  0  0  0  0  0  0  0  0  0  0
  -41.2244   11.6756    1.3470 H   0  0  0  0  0  0  0  0  0  0  0  0
  -39.8031   12.3824    0.4582 H   0  0  0  0  0  0  0  0  0  0  0  0
  -40.7706   11.5888   -1.3804 H   0  0  0  0  0  0  0  0  0  0  0  0
  -40.1784    9.9674   -0.7826 H   0  0  0  0  0  0  0  0  0  0  0  0
  -46.9414    9.5335    0.8950 H   0  0  0  0  0  0  0  0  0  0  0  0
  -48.5551   10.3729    2.5344 H   0  0  0  0  0  0  0  0  0  0  0  0
  -43.8317   11.9624    2.5946 H   0  0  0  0  0  0  0  0  0  0  0  0
  -48.4384   13.3302    6.0609 H   0  0  0  0  0  0  0  0  0  0  0  0
  -46.8682   16.0559    8.9060 H   0  0  0  0  0  0  0  0  0  0  0  0
  -45.7575   16.8005    7.7065 H   0  0  0  0  0  0  0  0  0  0  0  0
  -47.5008   17.2340    7.7065 H   0  0  0  0  0  0  0  0  0  0  0  0
  -39.5990   12.7512    4.3843 H   0  0  0  0  0  0  0  0  0  0  0  0
  -39.7000   10.4799    5.3780 H   0  0  0  0  0  0  0  0  0  0  0  0
  -41.8517    9.6052    6.2403 H   0  0  0  0  0  0  0  0  0  0  0  0
  -43.9419   10.8935    5.8621 H   0  0  0  0  0  0  0  0  0  0  0  0
  -48.0141   15.1649    6.6319 H   0  0  0  0  0  0  0  0  0  0  0  0
  -43.9033   14.4257    4.7460 H   0  0  0  0  0  0  0  0  0  0  0  0
  -41.6707   14.0552    4.0138 H   0  0  0  0  0  0  0  0  0  0  0  0
  -44.6705    9.5408    0.0180 H   0  0  0  0  0  0  0  0  0  0  0  0
  -43.3432   12.0326    0.1224 H   0  0  0  0  0  0  0  0  0  0  0  0
  -42.6395   11.0085    1.4507 H   0  0  0  0  0  0  0  0  0  0  0  0
  -42.6924   10.4277   -1.5146 H   0  0  0  0  0  0  0  0  0  0  0  0
  -42.1675    9.2751   -0.1727 H   0  0  0  0  0  0  0  0  0  0  0  0
  -37.8041   11.2090    2.7681 H   0  0  0  0  0  0  0  0  0  0  0  0
  -37.2695   10.4575    1.2267 H   0  0  0  0  0  0  0  0  0  0  0  0
  -37.9509   12.1195    1.2267 H   0  0  0  0  0  0  0  0  0  0  0  0
  1  2  1  0
  1 28  1  0
  2  3  1  0
  3 27  1  0
  4  5  2  0
  4 24  1  0
  5  6  1  0
  6  7  2  0
  6 20  1  0
  7  8  1  0
  7  9  1  0
  8 24  2  0
  9 10  2  0
  9 21  1  0
 10 11  1  0
 10 12  1  0
 11 20  2  0
 12 18  2  0
 12 19  1  0
 13 19  1  0
 14 15  2  0
 14 23  1  0
 15 16  1  0
 16 17  2  0
 17 22  1  0
 21 22  1  0
 22 23  2  0
 24 25  1  0
 25 26  1  0
 26 27  1  0
  1 29  1  0
  1 30  1  0
  2 31  1  0
  2 32  1  0
  3 33  1  0
  3 34  1  0
  4 35  1  0
  5 36  1  0
  8 37  1  0
 11 38  1  0
 13 39  1  0
 13 40  1  0
 13 41  1  0
 14 42  1  0
 15 43  1  0
 16 44  1  0
 17 45  1  0
 19 46  1  0
 21 47  1  0
 23 48  1  0
 25 49  1  0
 26 50  1  0
 26 51  1  0
 27 52  1  0
 27 53  1  0
 28 54  1  0
 28 55  1  0
 28 56  1  0
M  END
>  <filename_input>  (1) 
7N03_ZRP_docked.sdf

>  <pdb_id>  (1) 
7N03_ZRP

>  <pose_rank>  (1) 
0

>  <num_atoms_heavy>  (1) 
28

>  <num_torsions>  (1) 
9

>  <pose>  (1) 
[-46.6159216220096, 10.268857822355848, 1.6454987616489336, -2.6475101342224137, -5.30416523563601, -1.9062085398155506, -0.5055268425649361, -0.13928405596911733, -0.1372381549828624, 0.3278284934865773, 7.613761244175234, 0.26855949982606886, 2.8210975568102157, 3.3298094894428574, -1.4958673402715197]

>  <energy>  (1) 
-1219.4737669971157

>  <inter_energy>  (1) 
-1239.1507327086824

>  <intra_energy>  (1) 
38.840779417155495

>  <rmsd>  (1) 
0.589731

>  <sdf_rank>  (1) 
0

$$$$

     RDKit          3D

 56 58  0  0  0  0  0  0  0  0999 V2000
  -41.8786    6.8463   -2.5315 C   0  0  0  0  0  0  0  0  0  0  0  0
  -41.5033    8.2814   -2.1724 C   0  0  0  0  0  0  0  0  0  0  0  0
  -42.6300    9.0183   -1.4652 C   0  0  0  0  0  0  0  0  0  0  0  0
  -46.7619   10.2314    1.5675 C   0  0  0  0  0  0  0  0  0  0  0  0
  -47.6203   10.7269    2.5049 C   0  0  0  0  0  0  0  0  0  0  0  0
  -47.1596   11.6289    3.4942 C   0  0  0  0  0  0  0  0  0  0  0  0
  -45.7988   12.0162    3.4877 C   0  0  0  0  0  0  0  0  0  0  0  0
  -44.9467   11.5041    2.4782 C   0  0  0  0  0  0  0  0  0  0  0  0
  -45.3719   12.9208    4.4953 C   0  0  0  0  0  0  0  0  0  0  0  0
  -46.3137   13.4795    5.3743 C   0  0  0  0  0  0  0  0  0  0  0  0
  -47.6293   12.9976    5.2828 C   0  0  0  0  0  0  0  0  0  0  0  0
  -45.9398   14.5166    6.3780 C   0  0  0  0  0  0  0  0  0  0  0  0
  -46.5433   15.9585    8.2359 C   0  0  0  0  0  0  0  0  0  0  0  0
  -40.6478   11.9589    4.0917 C   0  0  0  0  0  0  0  0  0  0  0  0
  -40.6434   10.8054    4.8626 C   0  0  0  0  0  0  0  0  0  0  0  0
  -41.7570   10.4631    5.5890 C   0  0  0  0  0  0  0  0  0  0  0  0
  -42.9024   11.2347    5.4891 C   0  0  0  0  0  0  0  0  0  0  0  0
  -44.8370   15.0907    6.3575 O   0  0  0  0  0  0  0  0  0  0  0  0
  -46.8331   14.8893    7.2919 N   0  0  0  0  0  0  0  0  0  0  0  0
  -48.0448   12.1074    4.4100 N   0  0  0  0  0  0  0  0  0  0  0  0
  -44.0350   13.2817    4.6062 N   0  0  0  0  0  0  0  0  0  0  0  0
  -42.9200   12.3655    4.6898 C   0  0  0  0  0  0  0  0  0  0  0  0
  -41.7789   12.7358    3.9887 C   0  0  0  0  0  0  0  0  0  0  0  0
  -45.4264   10.6241    1.5257 C   0  0  0  0  0  0  0  0  0  0  0  0
  -44.5882   10.1853    0.5215 N   0  0  0  0  0  0  0  0  0  0  0  0
  -43.1503   10.3889    0.6305 C   0  0  0  0  0  0  0  0  0  0  0  0
  -42.3592    9.2690   -0.0021 C   0  0  0  0  0  0  0  0  0  0  0  0
  -42.1438    5.9477   -1.3468 C   0  0  0  0  0  0  0  0  0  0  0  0
  -42.7876    6.8746   -3.1503 H   0  0  0  0  0  0  0  0  0  0  0  0
  -41.0107    6.4204   -3.0563 H   0  0  0  0  0  0  0  0  0  0  0  0
  -40.6249    8.2612   -1.5106 H   0  0  0  0  0  0  0  0  0  0  0  0
  -41.2910    8.8160   -3.1100 H   0  0  0  0  0  0  0  0  0  0  0  0
  -42.7785    9.9879   -1.9630 H   0  0  0  0  0  0  0  0  0  0  0  0
  -43.5228    8.3783   -1.5242 H   0  0  0  0  0  0  0  0  0  0  0  0
  -47.1328    9.5059    0.8285 H   0  0  0  0  0  0  0  0  0  0  0  0
  -48.6775   10.4236    2.4921 H   0  0  0  0  0  0  0  0  0  0  0  0
  -43.8905   11.8105    2.4518 H   0  0  0  0  0  0  0  0  0  0  0  0
  -48.3674   13.3950    5.9949 H   0  0  0  0  0  0  0  0  0  0  0  0
  -46.6463   15.5786    9.2631 H   0  0  0  0  0  0  0  0  0  0  0  0
  -45.5155   16.3175    8.0791 H   0  0  0  0  0  0  0  0  0  0  0  0
  -47.2492   16.7874    8.0791 H   0  0  0  0  0  0  0  0  0  0  0  0
  -39.7346   12.2566    3.5555 H   0  0  0  0  0  0  0  0  0  0  0  0
  -39.7489   10.1659    4.8917 H   0  0  0  0  0  0  0  0  0  0  0  0
  -41.7394    9.5813    6.2463 H   0  0  0  0  0  0  0  0  0  0  0  0
  -43.8048   10.9475    6.0487 H   0  0  0  0  0  0  0  0  0  0  0  0
  -47.7454   14.4128    7.3316 H   0  0  0  0  0  0  0  0  0  0  0  0
  -43.8198   14.2886    4.6309 H   0  0  0  0  0  0  0  0  0  0  0  0
  -41.7798   13.6381    3.3596 H   0  0  0  0  0  0  0  0  0  0  0  0
  -44.9797    9.7133   -0.3060 H   0  0  0  0  0  0  0  0  0  0  0  0
  -42.8885   11.3326    0.1298 H   0  0  0  0  0  0  0  0  0  0  0  0
  -42.8961   10.4153    1.7004 H   0  0  0  0  0  0  0  0  0  0  0  0
  -42.5869    8.3432    0.5467 H   0  0  0  0  0  0  0  0  0  0  0  0
  -41.3050    9.5772    0.0579 H   0  0  0  0  0  0  0  0  0  0  0  0
  -41.9779    6.5098   -0.4159 H   0  0  0  0  0  0  0  0  0  0  0  0
  -43.1847    5.5936   -1.3809 H   0  0  0  0  0  0  0  0  0  0  0  0
  -41.4618    5.0853   -1.3809 H   0  0  0  0  0  0  0  0  0  0  0  0
  1  2  1  0
  1 28  1  0
  2  3  1  0
  3 27  1  0
  4  5  2  0
  4 24  1  0
  5  6  1  0
  6  7  2  0
  6 20  1  0
  7  8  1  0
  7  9  1  0
  8 24  2  0
  9 10  2  0
  9 21  1  0
 10 11  1  0
 10 12  1  0
 11 20  2  0
 12 18  2  0
 12 19  1  0
 13 19  1  0
 14 15  2  0
 14 23  1  0
 15 16  1  0
 16 17  2  0
 17 22  1  0
 21 22  1  0
 22 23  2  0
 24 25  1  0
 25 26  1  0
 26 27  1  0
  1 29  1  0
  1 30  1  0
  2 31  1  0
  2 32  1  0
  3 33  1  0
  3 34  1  0
  4 35  1  0
  5 36  1  0
  8 37  1  0
 11 38  1  0
 13 39  1  0
 13 40  1  0
 13 41  1  0
 14 42  1  0
 15 43  1  0
 16 44  1  0
 17 45  1  0
 19 46  1  0
 21 47  1  0
 23 48  1  0
 25 49  1  0
 26 50  1  0
 26 51  1  0
 27 52  1  0
 27 53  1  0
 28 54  1  0
 28 55  1  0
 28 56  1  0
M  END
>  <filename_input>  (2) 
7N03_ZRP_docked.sdf

>  <pdb_id>  (2) 
7N03_ZRP

>  <pose_rank>  (2) 
1

>  <num_atoms_heavy>  (2) 
28

>  <num_torsions>  (2) 
9

>  <pose>  (2) 
[-46.76193601989913, 10.231395428101141, 1.567465229511368, 0.01838857535236288, 0.0663548049813372, -0.02582463025862978, 0.05434243345416127, -0.09085282004274117, -0.3812908346096448, -5.521906896829886, -5.390379415918963, 10.543454966547111, -1.1643708612934125, 3.4126768891490253, 1.601930562632541]

>  <energy>  (2) 
-1172.3834759203642

>  <inter_energy>  (2) 
-1174.1498050198368

>  <intra_energy>  (2) 
39.217315206540086

>  <rmsd>  (2) 
2.18378

>  <sdf_rank>  (2) 
0

$$$$

     RDKit          3D

 56 58  0  0  0  0  0  0  0  0999 V2000
  -41.7812    8.9801    5.0287 C   0  0  0  0  0  0  0  0  0  0  0  0
  -40.3846    9.5592    4.8210 C   0  0  0  0  0  0  0  0  0  0  0  0
  -40.1065    9.9008    3.3654 C   0  0  0  0  0  0  0  0  0  0  0  0
  -45.4992   10.3024    1.8860 C   0  0  0  0  0  0  0  0  0  0  0  0
  -46.6186   10.6433    2.5873 C   0  0  0  0  0  0  0  0  0  0  0  0
  -46.5774   11.6896    3.5401 C   0  0  0  0  0  0  0  0  0  0  0  0
  -45.3609   12.3824    3.7447 C   0  0  0  0  0  0  0  0  0  0  0  0
  -44.2290   12.0193    2.9737 C   0  0  0  0  0  0  0  0  0  0  0  0
  -45.3563   13.4245    4.7089 C   0  0  0  0  0  0  0  0  0  0  0  0
  -46.5570   13.8036    5.3307 C   0  0  0  0  0  0  0  0  0  0  0  0
  -47.6898   13.0233    5.0492 C   0  0  0  0  0  0  0  0  0  0  0  0
  -46.6309   14.9616    6.2666 C   0  0  0  0  0  0  0  0  0  0  0  0
  -46.8356   15.8302    8.5247 C   0  0  0  0  0  0  0  0  0  0  0  0
  -41.6629   14.7264    2.4291 C   0  0  0  0  0  0  0  0  0  0  0  0
  -40.5609   14.0169    2.8843 C   0  0  0  0  0  0  0  0  0  0  0  0
  -40.6273   13.3396    4.0767 C   0  0  0  0  0  0  0  0  0  0  0  0
  -41.8192   13.3104    4.7810 C   0  0  0  0  0  0  0  0  0  0  0  0
  -46.7099   16.1352    5.8631 O   0  0  0  0  0  0  0  0  0  0  0  0
  -46.6757   14.7365    7.5779 N   0  0  0  0  0  0  0  0  0  0  0  0
  -47.7144   12.0064    4.2172 N   0  0  0  0  0  0  0  0  0  0  0  0
  -44.1811   14.0937    5.0265 N   0  0  0  0  0  0  0  0  0  0  0  0
  -42.9312   13.9869    4.3081 C   0  0  0  0  0  0  0  0  0  0  0  0
  -42.8510   14.7081    3.1232 C   0  0  0  0  0  0  0  0  0  0  0  0
  -44.3007   10.9922    2.0508 C   0  0  0  0  0  0  0  0  0  0  0  0
  -43.1989   10.6973    1.2744 N   0  0  0  0  0  0  0  0  0  0  0  0
  -41.8577   10.9120    1.7996 C   0  0  0  0  0  0  0  0  0  0  0  0
  -41.2912    9.6770    2.4583 C   0  0  0  0  0  0  0  0  0  0  0  0
  -42.7071    9.8442    5.8517 C   0  0  0  0  0  0  0  0  0  0  0  0
  -42.2405    8.8304    4.0404 H   0  0  0  0  0  0  0  0  0  0  0  0
  -41.6487    8.0438    5.5907 H   0  0  0  0  0  0  0  0  0  0  0  0
  -40.2893   10.4750    5.4227 H   0  0  0  0  0  0  0  0  0  0  0  0
  -39.6564    8.7948    5.1299 H   0  0  0  0  0  0  0  0  0  0  0  0
  -39.8172   10.9605    3.3054 H   0  0  0  0  0  0  0  0  0  0  0  0
  -39.3049    9.2299    3.0227 H   0  0  0  0  0  0  0  0  0  0  0  0
  -45.5443    9.4644    1.1748 H   0  0  0  0  0  0  0  0  0  0  0  0
  -47.5596   10.1015    2.4112 H   0  0  0  0  0  0  0  0  0  0  0  0
  -43.2816   12.5612    3.1110 H   0  0  0  0  0  0  0  0  0  0  0  0
  -48.6269   13.2825    5.5636 H   0  0  0  0  0  0  0  0  0  0  0  0
  -46.7783   15.4382    9.5509 H   0  0  0  0  0  0  0  0  0  0  0  0
  -46.0359   16.5694    8.3694 H   0  0  0  0  0  0  0  0  0  0  0  0
  -47.8133   16.3097    8.3694 H   0  0  0  0  0  0  0  0  0  0  0  0
  -41.5859   15.3114    1.5008 H   0  0  0  0  0  0  0  0  0  0  0  0
  -39.6351   13.9972    2.2906 H   0  0  0  0  0  0  0  0  0  0  0  0
  -39.7393   12.8234    4.4701 H   0  0  0  0  0  0  0  0  0  0  0  0
  -41.8832   12.7458    5.7228 H   0  0  0  0  0  0  0  0  0  0  0  0
  -46.5960   13.7713    7.9286 H   0  0  0  0  0  0  0  0  0  0  0  0
  -44.2021   14.7197    5.8441 H   0  0  0  0  0  0  0  0  0  0  0  0
  -43.7258   15.2574    2.7449 H   0  0  0  0  0  0  0  0  0  0  0  0
  -43.3251   10.3250    0.3223 H   0  0  0  0  0  0  0  0  0  0  0  0
  -41.1966   11.2047    0.9706 H   0  0  0  0  0  0  0  0  0  0  0  0
  -41.9199   11.7004    2.5642 H   0  0  0  0  0  0  0  0  0  0  0  0
  -40.9812    8.9827    1.6633 H   0  0  0  0  0  0  0  0  0  0  0  0
  -42.0926    9.2888    3.1041 H   0  0  0  0  0  0  0  0  0  0  0  0
  -42.5187    9.6684    6.9211 H   0  0  0  0  0  0  0  0  0  0  0  0
  -42.5256   10.9033    5.6167 H   0  0  0  0  0  0  0  0  0  0  0  0
  -43.7512    9.5901    5.6167 H   0  0  0  0  0  0  0  0  0  0  0  0
  1  2  1  0
  1 28  1  0
  2  3  1  0
  3 27  1  0
  4  5  2  0
  4 24  1  0
  5  6  1  0
  6  7  2  0
  6 20  1  0
  7  8  1  0
  7  9  1  0
  8 24  2  0
  9 10  2  0
  9 21  1  0
 10 11  1  0
 10 12  1  0
 11 20  2  0
 12 18  2  0
 12 19  1  0
 13 19  1  0
 14 15  2  0
 14 23  1  0
 15 16  1  0
 16 17  2  0
 17 22  1  0
 21 22  1  0
 22 23  2  0
 24 25  1  0
 25 26  1  0
 26 27  1  0
  1 29  1  0
  1 30  1  0
  2 31  1  0
  2 32  1  0
  3 33  1  0
  3 34  1  0
  4 35  1  0
  5 36  1  0
  8 37  1  0
 11 38  1  0
 13 39  1  0
 13 40  1  0
 13 41  1  0
 14 42  1  0
 15 43  1  0
 16 44  1  0
 17 45  1  0
 19 46  1  0
 21 47  1  0
 23 48  1  0
 25 49  1  0
 26 50  1  0
 26 51  1  0
 27 52  1  0
 27 53  1  0
 28 54  1  0
 28 55  1  0
 28 56  1  0
M  END
>  <filename_input>  (3) 
7N03_ZRP_docked.sdf

>  <pdb_id>  (3) 
7N03_ZRP

>  <pose_rank>  (3) 
2

>  <num_atoms_heavy>  (3) 
28

>  <num_torsions>  (3) 
9

>  <pose>  (3) 
[-45.49921737466561, 10.30236057299712, 1.8859643111504942, -0.07500548876077218, -0.1323631689723927, 0.2011174687498753, -5.020194601363332, -24.129644665938425, -7.7537972674679345, -5.227084759085947, -0.048019740070477164, 0.4014833539052722, -1.911997562743324, 1.5727404466997457, 0.7261048136381876]

>  <energy>  (3) 
-844.633479811845

>  <inter_energy>  (3) 
-918.3960978476417

>  <intra_energy>  (3) 
72.1855235812909

>  <rmsd>  (3) 
2.49809

>  <sdf_rank>  (3) 
0

$$$$

     RDKit          3D

 56 58  0  0  0  0  0  0  0  0999 V2000
  -37.8368    9.0734   -1.0373 C   0  0  0  0  0  0  0  0  0  0  0  0
  -39.1267    9.8274   -1.3482 C   0  0  0  0  0  0  0  0  0  0  0  0
  -40.2309    9.5303   -0.3455 C   0  0  0  0  0  0  0  0  0  0  0  0
  -46.0509    9.8604    0.9776 C   0  0  0  0  0  0  0  0  0  0  0  0
  -47.1119   10.2504    1.7414 C   0  0  0  0  0  0  0  0  0  0  0  0
  -46.9312   11.1643    2.8074 C   0  0  0  0  0  0  0  0  0  0  0  0
  -45.6360   11.6746    3.0602 C   0  0  0  0  0  0  0  0  0  0  0  0
  -44.5661   11.2695    2.2244 C   0  0  0  0  0  0  0  0  0  0  0  0
  -45.4920   12.5875    4.1379 C   0  0  0  0  0  0  0  0  0  0  0  0
  -46.6298   13.0344    4.8292 C   0  0  0  0  0  0  0  0  0  0  0  0
  -47.8535   12.4367    4.4878 C   0  0  0  0  0  0  0  0  0  0  0  0
  -46.5495   14.0745    5.8942 C   0  0  0  0  0  0  0  0  0  0  0  0
  -47.6433   15.5027    7.5248 C   0  0  0  0  0  0  0  0  0  0  0  0
  -40.9029   12.1197    3.2938 C   0  0  0  0  0  0  0  0  0  0  0  0
  -40.7934   12.8191    2.1006 C   0  0  0  0  0  0  0  0  0  0  0  0
  -41.8383   13.5948    1.6633 C   0  0  0  0  0  0  0  0  0  0  0  0
  -42.9670   13.7304    2.4539 C   0  0  0  0  0  0  0  0  0  0  0  0
  -45.4891   14.6650    6.1644 O   0  0  0  0  0  0  0  0  0  0  0  0
  -47.6577   14.4317    6.5395 N   0  0  0  0  0  0  0  0  0  0  0  0
  -48.0129   11.5355    3.5447 N   0  0  0  0  0  0  0  0  0  0  0  0
  -44.2396   13.0662    4.5013 N   0  0  0  0  0  0  0  0  0  0  0  0
  -43.0616   13.0626    3.6634 C   0  0  0  0  0  0  0  0  0  0  0  0
  -42.0217   12.2433    4.0853 C   0  0  0  0  0  0  0  0  0  0  0  0
  -44.7744   10.3746    1.1910 C   0  0  0  0  0  0  0  0  0  0  0  0
  -43.7260   10.0410    0.3585 N   0  0  0  0  0  0  0  0  0  0  0  0
  -42.3744   10.4815    0.6750 C   0  0  0  0  0  0  0  0  0  0  0  0
  -41.4487   10.4047   -0.5155 C   0  0  0  0  0  0  0  0  0  0  0  0
  -36.5711    9.8013   -1.4241 C   0  0  0  0  0  0  0  0  0  0  0  0
  -37.8044    8.8817    0.0454 H   0  0  0  0  0  0  0  0  0  0  0  0
  -37.8621    8.1532   -1.6394 H   0  0  0  0  0  0  0  0  0  0  0  0
  -38.9169   10.9071   -1.3323 H   0  0  0  0  0  0  0  0  0  0  0  0
  -39.4763    9.4979   -2.3377 H   0  0  0  0  0  0  0  0  0  0  0  0
  -40.5366    8.4804   -0.4649 H   0  0  0  0  0  0  0  0  0  0  0  0
  -39.8228    9.7344    0.6555 H   0  0  0  0  0  0  0  0  0  0  0  0
  -46.2071    9.1238    0.1758 H   0  0  0  0  0  0  0  0  0  0  0  0
  -48.1147    9.8520    1.5274 H   0  0  0  0  0  0  0  0  0  0  0  0
  -43.5574   11.6718    2.3997 H   0  0  0  0  0  0  0  0  0  0  0  0
  -48.7457   12.7459    5.0520 H   0  0  0  0  0  0  0  0  0  0  0  0
  -47.6491   15.0705    8.5363 H   0  0  0  0  0  0  0  0  0  0  0  0
  -46.7369   16.1115    7.3914 H   0  0  0  0  0  0  0  0  0  0  0  0
  -48.5330   16.1357    7.3914 H   0  0  0  0  0  0  0  0  0  0  0  0
  -40.0841   11.4573    3.6115 H   0  0  0  0  0  0  0  0  0  0  0  0
  -39.8705   12.7523    1.5058 H   0  0  0  0  0  0  0  0  0  0  0  0
  -41.7792   14.1055    0.6908 H   0  0  0  0  0  0  0  0  0  0  0  0
  -43.7944   14.3730    2.1187 H   0  0  0  0  0  0  0  0  0  0  0  0
  -48.5409   13.9414    6.3380 H   0  0  0  0  0  0  0  0  0  0  0  0
  -44.1419   13.4574    5.4491 H   0  0  0  0  0  0  0  0  0  0  0  0
  -42.0920   11.7005    5.0395 H   0  0  0  0  0  0  0  0  0  0  0  0
  -43.8993    9.4799   -0.4877 H   0  0  0  0  0  0  0  0  0  0  0  0
  -42.4155   11.5240    1.0235 H   0  0  0  0  0  0  0  0  0  0  0  0
  -41.9772    9.8114    1.4516 H   0  0  0  0  0  0  0  0  0  0  0  0
  -41.1031   11.4245   -0.7405 H   0  0  0  0  0  0  0  0  0  0  0  0
  -42.0373    9.9434   -1.3221 H   0  0  0  0  0  0  0  0  0  0  0  0
  -36.0336   10.1104   -0.5155 H   0  0  0  0  0  0  0  0  0  0  0  0
  -35.9312    9.1332   -2.0193 H   0  0  0  0  0  0  0  0  0  0  0  0
  -36.8267   10.6903   -2.0193 H   0  0  0  0  0  0  0  0  0  0  0  0
  1  2  1  0
  1 28  1  0
  2  3  1  0
  3 27  1  0
  4  5  2  0
  4 24  1  0
  5  6  1  0
  6  7  2  0
  6 20  1  0
  7  8  1  0
  7  9  1  0
  8 24  2  0
  9 10  2  0
  9 21  1  0
 10 11  1  0
 10 12  1  0
 11 20  2  0
 12 18  2  0
 12 19  1  0
 13 19  1  0
 14 15  2  0
 14 23  1  0
 15 16  1  0
 16 17  2  0
 17 22  1  0
 21 22  1  0
 22 23  2  0
 24 25  1  0
 25 26  1  0
 26 27  1  0
  1 29  1  0
  1 30  1  0
  2 31  1  0
  2 32  1  0
  3 33  1  0
  3 34  1  0
  4 35  1  0
  5 36  1  0
  8 37  1  0
 11 38  1  0
 13 39  1  0
 13 40  1  0
 13 41  1  0
 14 42  1  0
 15 43  1  0
 16 44  1  0
 17 45  1  0
 19 46  1  0
 21 47  1  0
 23 48  1  0
 25 49  1  0
 26 50  1  0
 26 51  1  0
 27 52  1  0
 27 53  1  0
 28 54  1  0
 28 55  1  0
 28 56  1  0
M  END
>  <filename_input>  (4) 
7N03_ZRP_docked.sdf

>  <pdb_id>  (4) 
7N03_ZRP

>  <pose_rank>  (4) 
3

>  <num_atoms_heavy>  (4) 
28

>  <num_torsions>  (4) 
9

>  <pose>  (4) 
[-46.050909455098136, 9.860397568521945, 0.9776418548529495, 0.03527819101175555, -0.1210804280853614, 0.07034509104251316, -0.057939058037676947, 7.450121259797702, 1.4583268116348216, 0.660738061759165, 1.7827428862600476, 7.412642902209456, -0.4625425064491652, -1.7722047537288972, 0.13836255850498386]

>  <energy>  (4) 
-785.5974100357474

>  <inter_energy>  (4) 
-889.9396734055239

>  <intra_energy>  (4) 
115.68555231945425

>  <rmsd>  (4) 
1.80327

>  <sdf_rank>  (4) 
0

$$$$

     RDKit          3D

 56 58  0  0  0  0  0  0  0  0999 V2000
  -39.7100   14.7546    1.5688 C   0  0  0  0  0  0  0  0  0  0  0  0
  -39.4919   14.9324    3.0688 C   0  0  0  0  0  0  0  0  0  0  0  0
  -40.1442   13.8288    3.8870 C   0  0  0  0  0  0  0  0  0  0  0  0
  -45.5255   14.0828    6.0467 C   0  0  0  0  0  0  0  0  0  0  0  0
  -46.5868   13.4307    5.4905 C   0  0  0  0  0  0  0  0  0  0  0  0
  -46.4124   12.6308    4.3354 C   0  0  0  0  0  0  0  0  0  0  0  0
  -45.1190   12.5098    3.7749 C   0  0  0  0  0  0  0  0  0  0  0  0
  -44.0371   13.1771    4.4008 C   0  0  0  0  0  0  0  0  0  0  0  0
  -44.9818   11.7009    2.6162 C   0  0  0  0  0  0  0  0  0  0  0  0
  -46.0836   10.9710    2.1417 C   0  0  0  0  0  0  0  0  0  0  0  0
  -47.3136   11.1937    2.7812 C   0  0  0  0  0  0  0  0  0  0  0  0
  -45.9693   10.0219    0.9978 C   0  0  0  0  0  0  0  0  0  0  0  0
  -45.0109    9.4260   -1.1520 C   0  0  0  0  0  0  0  0  0  0  0  0
  -41.4702   10.1556    4.4390 C   0  0  0  0  0  0  0  0  0  0  0  0
  -40.2397   10.2214    3.8015 C   0  0  0  0  0  0  0  0  0  0  0  0
  -40.1554   10.7211    2.5256 C   0  0  0  0  0  0  0  0  0  0  0  0
  -41.2903   11.2234    1.9116 C   0  0  0  0  0  0  0  0  0  0  0  0
  -46.7040    9.0245    0.8889 O   0  0  0  0  0  0  0  0  0  0  0  0
  -45.0962   10.2767    0.0257 N   0  0  0  0  0  0  0  0  0  0  0  0
  -47.4922   11.9903    3.8109 N   0  0  0  0  0  0  0  0  0  0  0  0
  -43.7617   11.6010    1.9596 N   0  0  0  0  0  0  0  0  0  0  0  0
  -42.5126   11.1931    2.5621 C   0  0  0  0  0  0  0  0  0  0  0  0
  -42.6053   10.6475    3.8366 C   0  0  0  0  0  0  0  0  0  0  0  0
  -44.2396   13.9518    5.5281 C   0  0  0  0  0  0  0  0  0  0  0  0
  -43.1595   14.5445    6.1491 N   0  0  0  0  0  0  0  0  0  0  0  0
  -41.8052   14.1319    5.8080 C   0  0  0  0  0  0  0  0  0  0  0  0
  -41.5529   14.1536    4.3194 C   0  0  0  0  0  0  0  0  0  0  0  0
  -38.5358   14.1627    0.8258 C   0  0  0  0  0  0  0  0  0  0  0  0
  -40.5759   14.0917    1.4248 H   0  0  0  0  0  0  0  0  0  0  0  0
  -39.8629   15.7625    1.1556 H   0  0  0  0  0  0  0  0  0  0  0  0
  -38.4106   14.9292    3.2709 H   0  0  0  0  0  0  0  0  0  0  0  0
  -39.9554   15.8855    3.3634 H   0  0  0  0  0  0  0  0  0  0  0  0
  -40.1691   12.9126    3.2787 H   0  0  0  0  0  0  0  0  0  0  0  0
  -39.5450   13.7061    4.8012 H   0  0  0  0  0  0  0  0  0  0  0  0
  -45.6888   14.7260    6.9240 H   0  0  0  0  0  0  0  0  0  0  0  0
  -47.5850   13.5271    5.9425 H   0  0  0  0  0  0  0  0  0  0  0  0
  -43.0236   13.0776    3.9849 H   0  0  0  0  0  0  0  0  0  0  0  0
  -48.1936   10.6613    2.3911 H   0  0  0  0  0  0  0  0  0  0  0  0
  -44.9057    8.3766   -0.8394 H   0  0  0  0  0  0  0  0  0  0  0  0
  -45.9249    9.5395   -1.7534 H   0  0  0  0  0  0  0  0  0  0  0  0
  -44.1376    9.7188   -1.7534 H   0  0  0  0  0  0  0  0  0  0  0  0
  -41.5393    9.7040    5.4397 H   0  0  0  0  0  0  0  0  0  0  0  0
  -39.3327    9.8736    4.3177 H   0  0  0  0  0  0  0  0  0  0  0  0
  -39.1922   10.7225    1.9943 H   0  0  0  0  0  0  0  0  0  0  0  0
  -41.2206   11.6495    0.8999 H   0  0  0  0  0  0  0  0  0  0  0  0
  -44.4700   11.0903    0.1086 H   0  0  0  0  0  0  0  0  0  0  0  0
  -43.7457   11.8379    0.9574 H   0  0  0  0  0  0  0  0  0  0  0  0
  -43.5736   10.6093    4.3572 H   0  0  0  0  0  0  0  0  0  0  0  0
  -43.3112   15.2794    6.8546 H   0  0  0  0  0  0  0  0  0  0  0  0
  -41.0946   14.8149    6.2964 H   0  0  0  0  0  0  0  0  0  0  0  0
  -41.6734   13.0963    6.1548 H   0  0  0  0  0  0  0  0  0  0  0  0
  -41.7952   15.1612    3.9507 H   0  0  0  0  0  0  0  0  0  0  0  0
  -42.1854   13.3585    3.8978 H   0  0  0  0  0  0  0  0  0  0  0  0
  -37.7951   13.7894    1.5483 H   0  0  0  0  0  0  0  0  0  0  0  0
  -38.8828   13.3318    0.1939 H   0  0  0  0  0  0  0  0  0  0  0  0
  -38.0742   14.9359    0.1939 H   0  0  0  0  0  0  0  0  0  0  0  0
  1  2  1  0
  1 28  1  0
  2  3  1  0
  3 27  1  0
  4  5  2  0
  4 24  1  0
  5  6  1  0
  6  7  2  0
  6 20  1  0
  7  8  1  0
  7  9  1  0
  8 24  2  0
  9 10  2  0
  9 21  1  0
 10 11  1  0
 10 12  1  0
 11 20  2  0
 12 18  2  0
 12 19  1  0
 13 19  1  0
 14 15  2  0
 14 23  1  0
 15 16  1  0
 16 17  2  0
 17 22  1  0
 21 22  1  0
 22 23  2  0
 24 25  1  0
 25 26  1  0
 26 27  1  0
  1 29  1  0
  1 30  1  0
  2 31  1  0
  2 32  1  0
  3 33  1  0
  3 34  1  0
  4 35  1  0
  5 36  1  0
  8 37  1  0
 11 38  1  0
 13 39  1  0
 13 40  1  0
 13 41  1  0
 14 42  1  0
 15 43  1  0
 16 44  1  0
 17 45  1  0
 19 46  1  0
 21 47  1  0
 23 48  1  0
 25 49  1  0
 26 50  1  0
 26 51  1  0
 27 52  1  0
 27 53  1  0
 28 54  1  0
 28 55  1  0
 28 56  1  0
M  END
>  <filename_input>  (5) 
7N03_ZRP_docked.sdf

>  <pdb_id>  (5) 
7N03_ZRP

>  <pose_rank>  (5) 
4

>  <num_atoms_heavy>  (5) 
28

>  <num_torsions>  (5) 
9

>  <pose>  (5) 
[-45.52546330825586, 14.082754907987196, 6.046697590541694, -3.011878365407348, -0.3196546299392172, 0.5314290610814834, 2.491290012296694, 1.7913264745048252, -2.636627278536982, 0.2816897497303955, -0.7674218707244368, 0.0351479555935109, 0.21911165374172575, -0.08514628816412236, 0.965608857920913]

>  <energy>  (5) 
-584.4180760643163

>  <inter_energy>  (5) 
-694.7109862309044

>  <intra_energy>  (5) 
123.16777640080237

>  <rmsd>  (5) 
4.95732

>  <sdf_rank>  (5) 
0

$$$$

     RDKit          3D

 56 58  0  0  0  0  0  0  0  0999 V2000
  -46.7720   15.0230    7.9000 C   0  0  0  0  0  0  0  0  0  0  0  0
  -46.9026   16.1793    6.9126 C   0  0  0  0  0  0  0  0  0  0  0  0
  -46.6844   15.7425    5.4722 C   0  0  0  0  0  0  0  0  0  0  0  0
  -47.1051   11.6806    4.0266 C   0  0  0  0  0  0  0  0  0  0  0  0
  -47.1296   11.2010    2.7497 C   0  0  0  0  0  0  0  0  0  0  0  0
  -45.9632   11.2347    1.9481 C   0  0  0  0  0  0  0  0  0  0  0  0
  -44.7704   11.7629    2.4959 C   0  0  0  0  0  0  0  0  0  0  0  0
  -44.7780   12.2218    3.8364 C   0  0  0  0  0  0  0  0  0  0  0  0
  -43.6210   11.7823    1.6628 C   0  0  0  0  0  0  0  0  0  0  0  0
  -43.6711   11.1857    0.3926 C   0  0  0  0  0  0  0  0  0  0  0  0
  -44.9214   10.7113   -0.0353 C   0  0  0  0  0  0  0  0  0  0  0  0
  -42.4659   11.0791   -0.4785 C   0  0  0  0  0  0  0  0  0  0  0  0
  -40.4507   12.0631   -1.4089 C   0  0  0  0  0  0  0  0  0  0  0  0
  -40.6076   10.6853    4.8074 C   0  0  0  0  0  0  0  0  0  0  0  0
  -40.5070   11.6749    5.7746 C   0  0  0  0  0  0  0  0  0  0  0  0
  -41.0204   12.9247    5.5315 C   0  0  0  0  0  0  0  0  0  0  0  0
  -41.6997   13.1668    4.3494 C   0  0  0  0  0  0  0  0  0  0  0  0
  -42.2724   10.1034   -1.2246 O   0  0  0  0  0  0  0  0  0  0  0  0
  -41.5948   12.0852   -0.5096 N   0  0  0  0  0  0  0  0  0  0  0  0
  -46.0226   10.7424    0.6809 N   0  0  0  0  0  0  0  0  0  0  0  0
  -42.4364   12.3618    2.0996 N   0  0  0  0  0  0  0  0  0  0  0  0
  -41.8339   12.1683    3.3993 C   0  0  0  0  0  0  0  0  0  0  0  0
  -41.2764   10.9161    3.6272 C   0  0  0  0  0  0  0  0  0  0  0  0
  -45.9338   12.1761    4.5940 C   0  0  0  0  0  0  0  0  0  0  0  0
  -45.8984   12.5774    5.9136 N   0  0  0  0  0  0  0  0  0  0  0  0
  -45.2176   13.8107    6.2830 C   0  0  0  0  0  0  0  0  0  0  0  0
  -45.4378   14.9151    5.2771 C   0  0  0  0  0  0  0  0  0  0  0  0
  -46.2503   13.7379    7.3019 C   0  0  0  0  0  0  0  0  0  0  0  0
  -46.0841   15.3322    8.7007 H   0  0  0  0  0  0  0  0  0  0  0  0
  -47.7882   14.8072    8.2616 H   0  0  0  0  0  0  0  0  0  0  0  0
  -47.9118   16.6076    7.0023 H   0  0  0  0  0  0  0  0  0  0  0  0
  -46.1262   16.9185    7.1589 H   0  0  0  0  0  0  0  0  0  0  0  0
  -47.5519   15.1457    5.1541 H   0  0  0  0  0  0  0  0  0  0  0  0
  -46.5641   16.6561    4.8715 H   0  0  0  0  0  0  0  0  0  0  0  0
  -48.0308   11.6759    4.6209 H   0  0  0  0  0  0  0  0  0  0  0  0
  -48.0620   10.7851    2.3402 H   0  0  0  0  0  0  0  0  0  0  0  0
  -43.8531   12.6192    4.2798 H   0  0  0  0  0  0  0  0  0  0  0  0
  -44.9837   10.2814   -1.0459 H   0  0  0  0  0  0  0  0  0  0  0  0
  -39.5217   12.0451   -0.8201 H   0  0  0  0  0  0  0  0  0  0  0  0
  -40.5002   11.1657   -2.0432 H   0  0  0  0  0  0  0  0  0  0  0  0
  -40.4654   12.9617   -2.0432 H   0  0  0  0  0  0  0  0  0  0  0  0
  -40.1464    9.7028    4.9865 H   0  0  0  0  0  0  0  0  0  0  0  0
  -40.0165   11.4583    6.7351 H   0  0  0  0  0  0  0  0  0  0  0  0
  -40.8928   13.7289    6.2711 H   0  0  0  0  0  0  0  0  0  0  0  0
  -42.1359   14.1594    4.1637 H   0  0  0  0  0  0  0  0  0  0  0  0
  -41.7328   12.8935    0.1136 H   0  0  0  0  0  0  0  0  0  0  0  0
  -41.9453   12.9828    1.4408 H   0  0  0  0  0  0  0  0  0  0  0  0
  -41.3686   10.1197    2.8740 H   0  0  0  0  0  0  0  0  0  0  0  0
  -46.3539   12.0043    6.6381 H   0  0  0  0  0  0  0  0  0  0  0  0
  -45.5957   14.1433    7.2609 H   0  0  0  0  0  0  0  0  0  0  0  0
  -44.1385   13.5999    6.3177 H   0  0  0  0  0  0  0  0  0  0  0  0
  -45.4900   14.4566    4.2786 H   0  0  0  0  0  0  0  0  0  0  0  0
  -44.5950   15.6099    5.4071 H   0  0  0  0  0  0  0  0  0  0  0  0
  -45.9692   13.0454    8.1091 H   0  0  0  0  0  0  0  0  0  0  0  0
  -47.0331   13.2783    6.6806 H   0  0  0  0  0  0  0  0  0  0  0  0
  -45.3687   13.9539    6.6806 H   0  0  0  0  0  0  0  0  0  0  0  0
  1  2  1  0
  1 28  1  0
  2  3  1  0
  3 27  1  0
  4  5  2  0
  4 24  1  0
  5  6  1  0
  6  7  2  0
  6 20  1  0
  7  8  1  0
  7  9  1  0
  8 24  2  0
  9 10  2  0
  9 21  1  0
 10 11  1  0
 10 12  1  0
 11 20  2  0
 12 18  2  0
 12 19  1  0
 13 19  1  0
 14 15  2  0
 14 23  1  0
 15 16  1  0
 16 17  2  0
 17 22  1  0
 21 22  1  0
 22 23  2  0
 24 25  1  0
 25 26  1  0
 26 27  1  0
  1 29  1  0
  1 30  1  0
  2 31  1  0
  2 32  1  0
  3 33  1  0
  3 34  1  0
  4 35  1  0
  5 36  1  0
  8 37  1  0
 11 38  1  0
 13 39  1  0
 13 40  1  0
 13 41  1  0
 14 42  1  0
 15 43  1  0
 16 44  1  0
 17 45  1  0
 19 46  1  0
 21 47  1  0
 23 48  1  0
 25 49  1  0
 26 50  1  0
 26 51  1  0
 27 52  1  0
 27 53  1  0
 28 54  1  0
 28 55  1  0
 28 56  1  0
M  END
>  <filename_input>  (6) 
7N03_ZRP_docked.sdf

>  <pdb_id>  (6) 
7N03_ZRP

>  <pose_rank>  (6) 
5

>  <num_atoms_heavy>  (6) 
28

>  <num_torsions>  (6) 
9

>  <pose>  (6) 
[-47.105136758571824, 11.680611176126922, 4.026576410663728, 3.141679036283241, 1.2849746370100925, 0.7471628164976408, 2.387488905552059, -17.23641392311892, -7.875994102241331, 1.3098736059597318, -26.113796578598205, -20.38268918485146, -28.26242799389219, -5.629567014646585, 2.877185644802749]

>  <energy>  (6) 
-256.93614148641973

>  <inter_energy>  (6) 
-702.7249019318543

>  <intra_energy>  (6) 
450.82879626101817

>  <rmsd>  (6) 
6.42317

>  <sdf_rank>  (6) 
0

$$$$

     RDKit          3D

 56 58  0  0  0  0  0  0  0  0999 V2000
  -39.5882   15.3578    3.9114 C   0  0  0  0  0  0  0  0  0  0  0  0
  -40.5809   14.2682    4.3070 C   0  0  0  0  0  0  0  0  0  0  0  0
  -41.8238   14.8294    4.9801 C   0  0  0  0  0  0  0  0  0  0  0  0
  -46.9860   12.0559    4.5070 C   0  0  0  0  0  0  0  0  0  0  0  0
  -47.3228   11.1335    3.5600 C   0  0  0  0  0  0  0  0  0  0  0  0
  -46.4063   10.7869    2.5381 C   0  0  0  0  0  0  0  0  0  0  0  0
  -45.1330   11.4036    2.5216 C   0  0  0  0  0  0  0  0  0  0  0  0
  -44.8100   12.3328    3.5413 C   0  0  0  0  0  0  0  0  0  0  0  0
  -44.2406   11.0330    1.4815 C   0  0  0  0  0  0  0  0  0  0  0  0
  -44.5960   10.0067    0.5914 C   0  0  0  0  0  0  0  0  0  0  0  0
  -45.8957    9.4886    0.7086 C   0  0  0  0  0  0  0  0  0  0  0  0
  -43.6549    9.5018   -0.4488 C   0  0  0  0  0  0  0  0  0  0  0  0
  -43.0939    7.8822   -2.1685 C   0  0  0  0  0  0  0  0  0  0  0  0
  -39.3867   11.0467    1.4797 C   0  0  0  0  0  0  0  0  0  0  0  0
  -39.2319   10.3436    2.6657 C   0  0  0  0  0  0  0  0  0  0  0  0
  -40.3242   10.0850    3.4561 C   0  0  0  0  0  0  0  0  0  0  0  0
  -41.5844   10.4656    3.0266 C   0  0  0  0  0  0  0  0  0  0  0  0
  -42.5180    9.9816   -0.6021 O   0  0  0  0  0  0  0  0  0  0  0  0
  -44.0129    8.4636   -1.2011 N   0  0  0  0  0  0  0  0  0  0  0  0
  -46.7738    9.8588    1.6134 N   0  0  0  0  0  0  0  0  0  0  0  0
  -43.0060   11.6559    1.3489 N   0  0  0  0  0  0  0  0  0  0  0  0
  -41.7446   11.1340    1.8243 C   0  0  0  0  0  0  0  0  0  0  0  0
  -40.6337   11.4339    1.0454 C   0  0  0  0  0  0  0  0  0  0  0  0
  -45.7271   12.6511    4.5259 C   0  0  0  0  0  0  0  0  0  0  0  0
  -45.3658   13.5165    5.5379 N   0  0  0  0  0  0  0  0  0  0  0  0
  -44.3426   14.5261    5.3039 C   0  0  0  0  0  0  0  0  0  0  0  0
  -43.0265   13.9247    4.8720 C   0  0  0  0  0  0  0  0  0  0  0  0
  -39.2729   15.4191    2.4356 C   0  0  0  0  0  0  0  0  0  0  0  0
  -40.0075   16.3290    4.2128 H   0  0  0  0  0  0  0  0  0  0  0  0
  -38.6436   15.1171    4.4211 H   0  0  0  0  0  0  0  0  0  0  0  0
  -40.8858   13.7231    3.4015 H   0  0  0  0  0  0  0  0  0  0  0  0
  -40.0802   13.6058    5.0285 H   0  0  0  0  0  0  0  0  0  0  0  0
  -41.6015   14.9874    6.0458 H   0  0  0  0  0  0  0  0  0  0  0  0
  -42.0765   15.7671    4.4635 H   0  0  0  0  0  0  0  0  0  0  0  0
  -47.7249   12.3356    5.2724 H   0  0  0  0  0  0  0  0  0  0  0  0
  -48.3131   10.6557    3.5907 H   0  0  0  0  0  0  0  0  0  0  0  0
  -43.8174   12.8069    3.5497 H   0  0  0  0  0  0  0  0  0  0  0  0
  -46.2018    8.7149   -0.0109 H   0  0  0  0  0  0  0  0  0  0  0  0
  -42.2799    7.3672   -1.6373 H   0  0  0  0  0  0  0  0  0  0  0  0
  -43.6339    7.1610   -2.7996 H   0  0  0  0  0  0  0  0  0  0  0  0
  -42.6735    8.6790   -2.7996 H   0  0  0  0  0  0  0  0  0  0  0  0
  -38.5006   11.2981    0.8784 H   0  0  0  0  0  0  0  0  0  0  0  0
  -38.2351    9.9938    2.9724 H   0  0  0  0  0  0  0  0  0  0  0  0
  -40.1992    9.5786    4.4245 H   0  0  0  0  0  0  0  0  0  0  0  0
  -42.4646   10.2354    3.6449 H   0  0  0  0  0  0  0  0  0  0  0  0
  -44.9568    8.0648   -1.0969 H   0  0  0  0  0  0  0  0  0  0  0  0
  -42.9879   12.5680    0.8707 H   0  0  0  0  0  0  0  0  0  0  0  0
  -40.7496   11.9738    0.0941 H   0  0  0  0  0  0  0  0  0  0  0  0
  -45.8201   13.4485    6.4598 H   0  0  0  0  0  0  0  0  0  0  0  0
  -44.6940   15.2088    4.5162 H   0  0  0  0  0  0  0  0  0  0  0  0
  -44.1729   15.0568    6.2523 H   0  0  0  0  0  0  0  0  0  0  0  0
  -43.1246   13.6180    3.8202 H   0  0  0  0  0  0  0  0  0  0  0  0
  -42.8370   13.0919    5.5653 H   0  0  0  0  0  0  0  0  0  0  0  0
  -38.2016   15.6275    2.2979 H   0  0  0  0  0  0  0  0  0  0  0  0
  -39.5222   14.4556    1.9670 H   0  0  0  0  0  0  0  0  0  0  0  0
  -39.8652   16.2189    1.9670 H   0  0  0  0  0  0  0  0  0  0  0  0
  1  2  1  0
  1 28  1  0
  2  3  1  0
  3 27  1  0
  4  5  2  0
  4 24  1  0
  5  6  1  0
  6  7  2  0
  6 20  1  0
  7  8  1  0
  7  9  1  0
  8 24  2  0
  9 10  2  0
  9 21  1  0
 10 11  1  0
 10 12  1  0
 11 20  2  0
 12 18  2  0
 12 19  1  0
 13 19  1  0
 14 15  2  0
 14 23  1  0
 15 16  1  0
 16 17  2  0
 17 22  1  0
 21 22  1  0
 22 23  2  0
 24 25  1  0
 25 26  1  0
 26 27  1  0
  1 29  1  0
  1 30  1  0
  2 31  1  0
  2 32  1  0
  3 33  1  0
  3 34  1  0
  4 35  1  0
  5 36  1  0
  8 37  1  0
 11 38  1  0
 13 39  1  0
 13 40  1  0
 13 41  1  0
 14 42  1  0
 15 43  1  0
 16 44  1  0
 17 45  1  0
 19 46  1  0
 21 47  1  0
 23 48  1  0
 25 49  1  0
 26 50  1  0
 26 51  1  0
 27 52  1  0
 27 53  1  0
 28 54  1  0
 28 55  1  0
 28 56  1  0
M  END
>  <filename_input>  (7) 
7N03_ZRP_docked.sdf

>  <pdb_id>  (7) 
7N03_ZRP

>  <pose_rank>  (7) 
6

>  <num_atoms_heavy>  (7) 
28

>  <num_torsions>  (7) 
9

>  <pose>  (7) 
[-46.98600225893237, 12.055873567792467, 4.507030342938999, 2.9855821961043296, 1.1803065163655624, 0.05963858164929159, -0.17216299554314707, -28.876444463437164, -0.2860841714609056, -55.554679814261526, -52.944977749269, -62.43989205975226, -19.460723206736986, 16.803223553000365, -11.95184123603231]

>  <energy>  (7) 
-548.6160396431638

>  <inter_energy>  (7) 
-642.2489187584055

>  <intra_energy>  (7) 
97.38706285717225

>  <rmsd>  (7) 
5.68536

>  <sdf_rank>  (7) 
0

$$$$

     RDKit          3D

 56 58  0  0  0  0  0  0  0  0999 V2000
  -41.9502    9.5031    6.2813 C   0  0  0  0  0  0  0  0  0  0  0  0
  -43.3754    9.9803    6.5463 C   0  0  0  0  0  0  0  0  0  0  0  0
  -44.1560   10.2233    5.2640 C   0  0  0  0  0  0  0  0  0  0  0  0
  -46.1962   11.4952    2.7598 C   0  0  0  0  0  0  0  0  0  0  0  0
  -45.8799   10.8360    1.6081 C   0  0  0  0  0  0  0  0  0  0  0  0
  -44.6241   11.0392    0.9867 C   0  0  0  0  0  0  0  0  0  0  0  0
  -43.6994   11.9273    1.5851 C   0  0  0  0  0  0  0  0  0  0  0  0
  -44.0534   12.5683    2.7981 C   0  0  0  0  0  0  0  0  0  0  0  0
  -42.4510   12.1078    0.9336 C   0  0  0  0  0  0  0  0  0  0  0  0
  -42.1344   11.3313   -0.1929 C   0  0  0  0  0  0  0  0  0  0  0  0
  -43.1481   10.4985   -0.6931 C   0  0  0  0  0  0  0  0  0  0  0  0
  -40.7976   11.3996   -0.8493 C   0  0  0  0  0  0  0  0  0  0  0  0
  -39.1653   12.6149   -2.1737 C   0  0  0  0  0  0  0  0  0  0  0  0
  -40.0767   11.6520    4.4954 C   0  0  0  0  0  0  0  0  0  0  0  0
  -38.7530   12.0619    4.4272 C   0  0  0  0  0  0  0  0  0  0  0  0
  -38.3129   12.7777    3.3414 C   0  0  0  0  0  0  0  0  0  0  0  0
  -39.2127   13.1475    2.3560 C   0  0  0  0  0  0  0  0  0  0  0  0
  -40.0386   10.4165   -0.9096 O   0  0  0  0  0  0  0  0  0  0  0  0
  -40.4228   12.5290   -1.4460 N   0  0  0  0  0  0  0  0  0  0  0  0
  -44.3403   10.3606   -0.1580 N   0  0  0  0  0  0  0  0  0  0  0  0
  -41.5253   13.0259    1.4130 N   0  0  0  0  0  0  0  0  0  0  0  0
  -40.5427   12.7713    2.4422 C   0  0  0  0  0  0  0  0  0  0  0  0
  -40.9785   12.0098    3.5196 C   0  0  0  0  0  0  0  0  0  0  0  0
  -45.2883   12.3496    3.3805 C   0  0  0  0  0  0  0  0  0  0  0  0
  -45.5845   12.9432    4.5902 N   0  0  0  0  0  0  0  0  0  0  0  0
  -45.7920   12.1216    5.7746 C   0  0  0  0  0  0  0  0  0  0  0  0
  -45.5833   10.6514    5.5009 C   0  0  0  0  0  0  0  0  0  0  0  0
  -41.4909    8.3657    7.1626 C   0  0  0  0  0  0  0  0  0  0  0  0
  -41.8891    9.1714    5.2343 H   0  0  0  0  0  0  0  0  0  0  0  0
  -41.2909   10.3548    6.5047 H   0  0  0  0  0  0  0  0  0  0  0  0
  -43.8991    9.2154    7.1385 H   0  0  0  0  0  0  0  0  0  0  0  0
  -43.3127   10.9368    7.0859 H   0  0  0  0  0  0  0  0  0  0  0  0
  -43.6466   11.0116    4.6902 H   0  0  0  0  0  0  0  0  0  0  0  0
  -44.1905    9.2679    4.7199 H   0  0  0  0  0  0  0  0  0  0  0  0
  -47.1900   11.3486    3.2081 H   0  0  0  0  0  0  0  0  0  0  0  0
  -46.6055   10.1417    1.1592 H   0  0  0  0  0  0  0  0  0  0  0  0
  -43.3371   13.2482    3.2824 H   0  0  0  0  0  0  0  0  0  0  0  0
  -42.9277    9.9179   -1.6011 H   0  0  0  0  0  0  0  0  0  0  0  0
  -38.3312   12.6718   -1.4588 H   0  0  0  0  0  0  0  0  0  0  0  0
  -39.0460   11.7228   -2.8061 H   0  0  0  0  0  0  0  0  0  0  0  0
  -39.1683   13.5149   -2.8061 H   0  0  0  0  0  0  0  0  0  0  0  0
  -40.4098   11.0324    5.3411 H   0  0  0  0  0  0  0  0  0  0  0  0
  -38.0569   11.8138    5.2420 H   0  0  0  0  0  0  0  0  0  0  0  0
  -37.2522   13.0556    3.2548 H   0  0  0  0  0  0  0  0  0  0  0  0
  -38.8685   13.7445    1.4985 H   0  0  0  0  0  0  0  0  0  0  0  0
  -41.0335   13.3567   -1.3919 H   0  0  0  0  0  0  0  0  0  0  0  0
  -41.5404   13.9692    0.9996 H   0  0  0  0  0  0  0  0  0  0  0  0
  -42.0306   11.6972    3.5916 H   0  0  0  0  0  0  0  0  0  0  0  0
  -45.6588   13.9684    4.6558 H   0  0  0  0  0  0  0  0  0  0  0  0
  -45.0834   12.4397    6.5535 H   0  0  0  0  0  0  0  0  0  0  0  0
  -46.8348   12.2573    6.0975 H   0  0  0  0  0  0  0  0  0  0  0  0
  -46.1674   10.3884    4.6066 H   0  0  0  0  0  0  0  0  0  0  0  0
  -45.9039   10.1292    6.4144 H   0  0  0  0  0  0  0  0  0  0  0  0
  -41.6060    8.6508    8.2188 H   0  0  0  0  0  0  0  0  0  0  0  0
  -42.0989    7.4728    6.9555 H   0  0  0  0  0  0  0  0  0  0  0  0
  -40.4333    8.1454    6.9555 H   0  0  0  0  0  0  0  0  0  0  0  0
  1  2  1  0
  1 28  1  0
  2  3  1  0
  3 27  1  0
  4  5  2  0
  4 24  1  0
  5  6  1  0
  6  7  2  0
  6 20  1  0
  7  8  1  0
  7  9  1  0
  8 24  2  0
  9 10  2  0
  9 21  1  0
 10 11  1  0
 10 12  1  0
 11 20  2  0
 12 18  2  0
 12 19  1  0
 13 19  1  0
 14 15  2  0
 14 23  1  0
 15 16  1  0
 16 17  2  0
 17 22  1  0
 21 22  1  0
 22 23  2  0
 24 25  1  0
 25 26  1  0
 26 27  1  0
  1 29  1  0
  1 30  1  0
  2 31  1  0
  2 32  1  0
  3 33  1  0
  3 34  1  0
  4 35  1  0
  5 36  1  0
  8 37  1  0
 11 38  1  0
 13 39  1  0
 13 40  1  0
 13 41  1  0
 14 42  1  0
 15 43  1  0
 16 44  1  0
 17 45  1  0
 19 46  1  0
 21 47  1  0
 23 48  1  0
 25 49  1  0
 26 50  1  0
 26 51  1  0
 27 52  1  0
 27 53  1  0
 28 54  1  0
 28 55  1  0
 28 56  1  0
M  END
>  <filename_input>  (8) 
7N03_ZRP_docked.sdf

>  <pdb_id>  (8) 
7N03_ZRP

>  <pose_rank>  (8) 
7

>  <num_atoms_heavy>  (8) 
28

>  <num_torsions>  (8) 
9

>  <pose>  (8) 
[-46.196176609784494, 11.495172082820249, 2.759845635871866, -2.48538690614281, -1.4898714708289873, -0.6875459746056438, 1.906477098147681, 2.319604254479463, 2.741913223069641, -1.4844302956719126, 4.661768720994412, -1.7955398928238135, 3.8000201072507864, 4.617813857479346, 0.33885654922705666]

>  <energy>  (8) 
-395.8920639595857

>  <inter_energy>  (8) 
-492.03234009011186

>  <intra_energy>  (8) 
81.29664747192652

>  <rmsd>  (8) 
6.09055

>  <sdf_rank>  (8) 
0

$$$$

     RDKit          3D

 56 58  0  0  0  0  0  0  0  0999 V2000
  -38.3342   11.8275   -1.4474 C   0  0  0  0  0  0  0  0  0  0  0  0
  -39.0997   11.0237   -0.4001 C   0  0  0  0  0  0  0  0  0  0  0  0
  -40.2974   11.7801    0.1534 C   0  0  0  0  0  0  0  0  0  0  0  0
  -45.8468   10.3116    1.7476 C   0  0  0  0  0  0  0  0  0  0  0  0
  -46.8895   10.6351    2.5656 C   0  0  0  0  0  0  0  0  0  0  0  0
  -46.7244   11.5952    3.5929 C   0  0  0  0  0  0  0  0  0  0  0  0
  -45.4653   12.2211    3.7498 C   0  0  0  0  0  0  0  0  0  0  0  0
  -44.4168   11.8809    2.8596 C   0  0  0  0  0  0  0  0  0  0  0  0
  -45.3359   13.1774    4.7911 C   0  0  0  0  0  0  0  0  0  0  0  0
  -46.4642   13.5487    5.5401 C   0  0  0  0  0  0  0  0  0  0  0  0
  -47.6501   12.8389    5.2927 C   0  0  0  0  0  0  0  0  0  0  0  0
  -46.4099   14.6259    6.5692 C   0  0  0  0  0  0  0  0  0  0  0  0
  -46.8721   16.9110    7.2474 C   0  0  0  0  0  0  0  0  0  0  0  0
  -40.4936   13.4458    4.5102 C   0  0  0  0  0  0  0  0  0  0  0  0
  -40.2543   12.1093    4.7954 C   0  0  0  0  0  0  0  0  0  0  0  0
  -41.2861   11.3008    5.2036 C   0  0  0  0  0  0  0  0  0  0  0  0
  -42.5729   11.8092    5.2574 C   0  0  0  0  0  0  0  0  0  0  0  0
  -45.8034   14.4836    7.6454 O   0  0  0  0  0  0  0  0  0  0  0  0
  -46.9750   15.8029    6.3095 N   0  0  0  0  0  0  0  0  0  0  0  0
  -47.7876   11.8974    4.3864 N   0  0  0  0  0  0  0  0  0  0  0  0
  -44.1098   13.7718    5.0617 N   0  0  0  0  0  0  0  0  0  0  0  0
  -42.8189   13.1336    4.9359 C   0  0  0  0  0  0  0  0  0  0  0  0
  -41.7677   13.9629    4.5648 C   0  0  0  0  0  0  0  0  0  0  0  0
  -44.6089   10.9385    1.8662 C   0  0  0  0  0  0  0  0  0  0  0  0
  -43.5878   10.6679    0.9787 N   0  0  0  0  0  0  0  0  0  0  0  0
  -42.8461   11.7605    0.3648 C   0  0  0  0  0  0  0  0  0  0  0  0
  -41.6199   11.2817   -0.3750 C   0  0  0  0  0  0  0  0  0  0  0  0
  -36.8312   11.7027   -1.3647 C   0  0  0  0  0  0  0  0  0  0  0  0
  -38.6522   11.4839   -2.4428 H   0  0  0  0  0  0  0  0  0  0  0  0
  -38.5687   12.8856   -1.2593 H   0  0  0  0  0  0  0  0  0  0  0  0
  -39.4545   10.0904   -0.8617 H   0  0  0  0  0  0  0  0  0  0  0  0
  -38.4136   10.8256    0.4366 H   0  0  0  0  0  0  0  0  0  0  0  0
  -40.2987   11.6768    1.2486 H   0  0  0  0  0  0  0  0  0  0  0  0
  -40.1948   12.8275   -0.1664 H   0  0  0  0  0  0  0  0  0  0  0  0
  -45.9869    9.5387    0.9775 H   0  0  0  0  0  0  0  0  0  0  0  0
  -47.8652   10.1466    2.4261 H   0  0  0  0  0  0  0  0  0  0  0  0
  -43.4379   12.3725    2.9601 H   0  0  0  0  0  0  0  0  0  0  0  0
  -48.5300   13.0898    5.9033 H   0  0  0  0  0  0  0  0  0  0  0  0
  -46.9080   16.5247    8.2767 H   0  0  0  0  0  0  0  0  0  0  0  0
  -45.9210   17.4399    7.0872 H   0  0  0  0  0  0  0  0  0  0  0  0
  -47.7096   17.6060    7.0872 H   0  0  0  0  0  0  0  0  0  0  0  0
  -39.6535   14.1010    4.2366 H   0  0  0  0  0  0  0  0  0  0  0  0
  -39.2391   11.6980    4.6948 H   0  0  0  0  0  0  0  0  0  0  0  0
  -41.0917   10.2556    5.4861 H   0  0  0  0  0  0  0  0  0  0  0  0
  -43.4058   11.1564    5.5576 H   0  0  0  0  0  0  0  0  0  0  0  0
  -47.4942   15.9316    5.4293 H   0  0  0  0  0  0  0  0  0  0  0  0
  -44.1216   14.7516    5.3793 H   0  0  0  0  0  0  0  0  0  0  0  0
  -41.9515   15.0189    4.3178 H   0  0  0  0  0  0  0  0  0  0  0  0
  -43.3498    9.6921    0.7502 H   0  0  0  0  0  0  0  0  0  0  0  0
  -43.5062   12.2801   -0.3453 H   0  0  0  0  0  0  0  0  0  0  0  0
  -42.5108   12.4312    1.1696 H   0  0  0  0  0  0  0  0  0  0  0  0
  -41.7090   11.6070   -1.4220 H   0  0  0  0  0  0  0  0  0  0  0  0
  -41.6006   10.1895   -0.2457 H   0  0  0  0  0  0  0  0  0  0  0  0
  -36.5229   11.6771   -0.3091 H   0  0  0  0  0  0  0  0  0  0  0  0
  -36.5124   10.7750   -1.8624 H   0  0  0  0  0  0  0  0  0  0  0  0
  -36.3637   12.5651   -1.8624 H   0  0  0  0  0  0  0  0  0  0  0  0
  1  2  1  0
  1 28  1  0
  2  3  1  0
  3 27  1  0
  4  5  2  0
  4 24  1  0
  5  6  1  0
  6  7  2  0
  6 20  1  0
  7  8  1  0
  7  9  1  0
  8 24  2  0
  9 10  2  0
  9 21  1  0
 10 11  1  0
 10 12  1  0
 11 20  2  0
 12 18  2  0
 12 19  1  0
 13 19  1  0
 14 15  2  0
 14 23  1  0
 15 16  1  0
 16 17  2  0
 17 22  1  0
 21 22  1  0
 22 23  2  0
 24 25  1  0
 25 26  1  0
 26 27  1  0
  1 29  1  0
  1 30  1  0
  2 31  1  0
  2 32  1  0
  3 33  1  0
  3 34  1  0
  4 35  1  0
  5 36  1  0
  8 37  1  0
 11 38  1  0
 13 39  1  0
 13 40  1  0
 13 41  1  0
 14 42  1  0
 15 43  1  0
 16 44  1  0
 17 45  1  0
 19 46  1  0
 21 47  1  0
 23 48  1  0
 25 49  1  0
 26 50  1  0
 26 51  1  0
 27 52  1  0
 27 53  1  0
 28 54  1  0
 28 55  1  0
 28 56  1  0
M  END
>  <filename_input>  (9) 
7N03_ZRP_docked.sdf

>  <pdb_id>  (9) 
7N03_ZRP

>  <pose_rank>  (9) 
8

>  <num_atoms_heavy>  (9) 
28

>  <num_torsions>  (9) 
9

>  <pose>  (9) 
[-45.846811296847, 10.311572507596573, 1.7475570334595065, 0.012736600473748451, -0.05674210111727764, 0.15643699060136113, -1.369920625313202, 0.22234338799895864, -0.260449214951508, -12.84975815964362, 13.862550007262385, -11.365695968341774, 11.535223884359468, -2.9387017454186335, -1.1156423754566158]

>  <energy>  (9) 
-984.4484049087432

>  <inter_energy>  (9) 
-1036.585781637113

>  <intra_energy>  (9) 
53.23437816898555

>  <rmsd>  (9) 
1.24078

>  <sdf_rank>  (9) 
0

$$$$

     RDKit          3D

 56 58  0  0  0  0  0  0  0  0999 V2000
  -46.4286   16.1628    7.3524 C   0  0  0  0  0  0  0  0  0  0  0  0
  -45.6112   15.3063    6.3894 C   0  0  0  0  0  0  0  0  0  0  0  0
  -46.1287   13.8793    6.2966 C   0  0  0  0  0  0  0  0  0  0  0  0
  -41.4378   10.6540    5.9677 C   0  0  0  0  0  0  0  0  0  0  0  0
  -40.3647   10.2925    5.2068 C   0  0  0  0  0  0  0  0  0  0  0  0
  -40.3750   10.5014    3.8066 C   0  0  0  0  0  0  0  0  0  0  0  0
  -41.5101   11.1008    3.2116 C   0  0  0  0  0  0  0  0  0  0  0  0
  -42.5909   11.4910    4.0405 C   0  0  0  0  0  0  0  0  0  0  0  0
  -41.4860   11.2934    1.8052 C   0  0  0  0  0  0  0  0  0  0  0  0
  -40.3196   10.9975    1.0815 C   0  0  0  0  0  0  0  0  0  0  0  0
  -39.2699   10.3932    1.7916 C   0  0  0  0  0  0  0  0  0  0  0  0
  -40.2006   11.2835   -0.3768 C   0  0  0  0  0  0  0  0  0  0  0  0
  -39.3968   12.6910   -2.1846 C   0  0  0  0  0  0  0  0  0  0  0  0
  -45.1313    9.3416    0.1250 C   0  0  0  0  0  0  0  0  0  0  0  0
  -46.2410    9.7148    0.8695 C   0  0  0  0  0  0  0  0  0  0  0  0
  -46.1565   10.7714    1.7420 C   0  0  0  0  0  0  0  0  0  0  0  0
  -44.9832   11.5029    1.8184 C   0  0  0  0  0  0  0  0  0  0  0  0
  -40.8076   10.6176   -1.2338 O   0  0  0  0  0  0  0  0  0  0  0  0
  -39.4710   12.3219   -0.7787 N   0  0  0  0  0  0  0  0  0  0  0  0
  -39.2850   10.1339    3.0797 N   0  0  0  0  0  0  0  0  0  0  0  0
  -42.5952   11.7973    1.1378 N   0  0  0  0  0  0  0  0  0  0  0  0
  -43.8869   11.1545    1.0474 C   0  0  0  0  0  0  0  0  0  0  0  0
  -43.9589   10.0584    0.1965 C   0  0  0  0  0  0  0  0  0  0  0  0
  -42.5514   11.2730    5.4053 C   0  0  0  0  0  0  0  0  0  0  0  0
  -43.5934   11.7137    6.1950 N   0  0  0  0  0  0  0  0  0  0  0  0
  -44.9568   11.6902    5.6837 C   0  0  0  0  0  0  0  0  0  0  0  0
  -45.4315   13.0542    5.2431 C   0  0  0  0  0  0  0  0  0  0  0  0
  -46.6782   15.5322    8.7021 C   0  0  0  0  0  0  0  0  0  0  0  0
  -45.8905   17.1090    7.5106 H   0  0  0  0  0  0  0  0  0  0  0  0
  -47.4155   16.2988    6.8860 H   0  0  0  0  0  0  0  0  0  0  0  0
  -45.6530   15.7624    5.3893 H   0  0  0  0  0  0  0  0  0  0  0  0
  -44.5807   15.2641    6.7719 H   0  0  0  0  0  0  0  0  0  0  0  0
  -45.9842   13.3923    7.2723 H   0  0  0  0  0  0  0  0  0  0  0  0
  -47.1898   13.9374    6.0128 H   0  0  0  0  0  0  0  0  0  0  0  0
  -41.4231   10.4522    7.0489 H   0  0  0  0  0  0  0  0  0  0  0  0
  -39.4855    9.8356    5.6845 H   0  0  0  0  0  0  0  0  0  0  0  0
  -43.4724   11.9733    3.5927 H   0  0  0  0  0  0  0  0  0  0  0  0
  -38.3672   10.1161    1.2274 H   0  0  0  0  0  0  0  0  0  0  0  0
  -39.1805   13.7661   -2.2706 H   0  0  0  0  0  0  0  0  0  0  0  0
  -38.5964   12.1158   -2.6729 H   0  0  0  0  0  0  0  0  0  0  0  0
  -40.3574   12.4700   -2.6729 H   0  0  0  0  0  0  0  0  0  0  0  0
  -45.1895    8.4608   -0.5313 H   0  0  0  0  0  0  0  0  0  0  0  0
  -47.1874    9.1647    0.7608 H   0  0  0  0  0  0  0  0  0  0  0  0
  -47.0155   11.0354    2.3763 H   0  0  0  0  0  0  0  0  0  0  0  0
  -44.9216   12.3668    2.4965 H   0  0  0  0  0  0  0  0  0  0  0  0
  -38.9500   12.8739   -0.0826 H   0  0  0  0  0  0  0  0  0  0  0  0
  -42.4882   12.7071    0.6670 H   0  0  0  0  0  0  0  0  0  0  0  0
  -43.0900    9.7675   -0.4121 H   0  0  0  0  0  0  0  0  0  0  0  0
  -43.4068   12.0597    7.1471 H   0  0  0  0  0  0  0  0  0  0  0  0
  -44.9992   11.0067    4.8229 H   0  0  0  0  0  0  0  0  0  0  0  0
  -45.6143   11.3542    6.4990 H   0  0  0  0  0  0  0  0  0  0  0  0
  -46.1318   12.9138    4.4064 H   0  0  0  0  0  0  0  0  0  0  0  0
  -44.5233   13.6150    4.9773 H   0  0  0  0  0  0  0  0  0  0  0  0
  -46.3978   16.2409    9.4953 H   0  0  0  0  0  0  0  0  0  0  0  0
  -47.7444   15.2788    8.7969 H   0  0  0  0  0  0  0  0  0  0  0  0
  -46.0741   14.6179    8.7969 H   0  0  0  0  0  0  0  0  0  0  0  0
  1  2  1  0
  1 28  1  0
  2  3  1  0
  3 27  1  0
  4  5  2  0
  4 24  1  0
  5  6  1  0
  6  7  2  0
  6 20  1  0
  7  8  1  0
  7  9  1  0
  8 24  2  0
  9 10  2  0
  9 21  1  0
 10 11  1  0
 10 12  1  0
 11 20  2  0
 12 18  2  0
 12 19  1  0
 13 19  1  0
 14 15  2  0
 14 23  1  0
 15 16  1  0
 16 17  2  0
 17 22  1  0
 21 22  1  0
 22 23  2  0
 24 25  1  0
 25 26  1  0
 26 27  1  0
  1 29  1  0
  1 30  1  0
  2 31  1  0
  2 32  1  0
  3 33  1  0
  3 34  1  0
  4 35  1  0
  5 36  1  0
  8 37  1  0
 11 38  1  0
 13 39  1  0
 13 40  1  0
 13 41  1  0
 14 42  1  0
 15 43  1  0
 16 44  1  0
 17 45  1  0
 19 46  1  0
 21 47  1  0
 23 48  1  0
 25 49  1  0
 26 50  1  0
 26 51  1  0
 27 52  1  0
 27 53  1  0
 28 54  1  0
 28 55  1  0
 28 56  1  0
M  END
>  <filename_input>  (10) 
7N03_ZRP_docked.sdf

>  <pdb_id>  (10) 
7N03_ZRP

>  <pose_rank>  (10) 
9

>  <num_atoms_heavy>  (10) 
28

>  <num_torsions>  (10) 
9

>  <pose>  (10) 
[-41.43777623391681, 10.65400122857233, 5.9676758665851715, 0.44900086306170905, 2.8213328760155565, -0.920103238873259, -1.4040625486463312, -0.2894446820553216, 2.1593133921348824, -5.160762946825615, 2.835692947673546, 1.660681674018034, -1.6339835709439758, -1.7393526600252218, -2.71199074554124]

>  <energy>  (10) 
-690.9292553913757

>  <inter_energy>  (10) 
-686.8936304912452

>  <intra_energy>  (10) 
23.326942172450465

>  <rmsd>  (10) 
7.82085

>  <sdf_rank>  (10) 
0

$$$$

     RDKit          3D

 56 58  0  0  0  0  0  0  0  0999 V2000
  -46.5086   14.4401    7.5225 C   0  0  0  0  0  0  0  0  0  0  0  0
  -45.8241   15.2230    6.4055 C   0  0  0  0  0  0  0  0  0  0  0  0
  -45.2764   14.3190    5.3120 C   0  0  0  0  0  0  0  0  0  0  0  0
  -46.8944   10.8863    2.8296 C   0  0  0  0  0  0  0  0  0  0  0  0
  -46.2845   10.5939    1.6448 C   0  0  0  0  0  0  0  0  0  0  0  0
  -44.8827   10.7351    1.5055 C   0  0  0  0  0  0  0  0  0  0  0  0
  -44.1243   11.1728    2.6168 C   0  0  0  0  0  0  0  0  0  0  0  0
  -44.7912   11.4357    3.8390 C   0  0  0  0  0  0  0  0  0  0  0  0
  -42.7218   11.3043    2.4402 C   0  0  0  0  0  0  0  0  0  0  0  0
  -42.1302   10.8953    1.2340 C   0  0  0  0  0  0  0  0  0  0  0  0
  -42.9990   10.4941    0.2066 C   0  0  0  0  0  0  0  0  0  0  0  0
  -40.6528   10.9073    1.0346 C   0  0  0  0  0  0  0  0  0  0  0  0
  -38.4076   10.7192    1.9394 C   0  0  0  0  0  0  0  0  0  0  0  0
  -40.2659   14.7592    2.0289 C   0  0  0  0  0  0  0  0  0  0  0  0
  -39.2920   15.0567    2.9712 C   0  0  0  0  0  0  0  0  0  0  0  0
  -39.1880   14.2987    4.1112 C   0  0  0  0  0  0  0  0  0  0  0  0
  -40.0102   13.1970    4.2771 C   0  0  0  0  0  0  0  0  0  0  0  0
  -40.1337   11.2203   -0.0511 O   0  0  0  0  0  0  0  0  0  0  0  0
  -39.8551   10.6345    2.0648 N   0  0  0  0  0  0  0  0  0  0  0  0
  -44.3073   10.4290    0.3110 N   0  0  0  0  0  0  0  0  0  0  0  0
  -41.9216   11.8087    3.4575 N   0  0  0  0  0  0  0  0  0  0  0  0
  -40.9572   12.8766    3.3188 C   0  0  0  0  0  0  0  0  0  0  0  0
  -41.0915   13.6696    2.1857 C   0  0  0  0  0  0  0  0  0  0  0  0
  -46.1621   11.2889    3.9436 C   0  0  0  0  0  0  0  0  0  0  0  0
  -46.7776   11.4976    5.1606 N   0  0  0  0  0  0  0  0  0  0  0  0
  -46.0263   12.0692    6.2696 C   0  0  0  0  0  0  0  0  0  0  0  0
  -44.8887   12.9465    5.8046 C   0  0  0  0  0  0  0  0  0  0  0  0
  -47.1450   15.2939    8.5937 C   0  0  0  0  0  0  0  0  0  0  0  0
  -47.2933   13.8150    7.0716 H   0  0  0  0  0  0  0  0  0  0  0  0
  -45.7208   13.8548    8.0193 H   0  0  0  0  0  0  0  0  0  0  0  0
  -46.5551   15.9133    5.9594 H   0  0  0  0  0  0  0  0  0  0  0  0
  -44.9749   15.7641    6.8484 H   0  0  0  0  0  0  0  0  0  0  0  0
  -46.0472   14.2055    4.5355 H   0  0  0  0  0  0  0  0  0  0  0  0
  -44.3627   14.7946    4.9261 H   0  0  0  0  0  0  0  0  0  0  0  0
  -47.9885   10.8021    2.9066 H   0  0  0  0  0  0  0  0  0  0  0  0
  -46.8859   10.2461    0.7920 H   0  0  0  0  0  0  0  0  0  0  0  0
  -44.2111   11.7604    4.7154 H   0  0  0  0  0  0  0  0  0  0  0  0
  -42.5509   10.2132   -0.7579 H   0  0  0  0  0  0  0  0  0  0  0  0
  -37.9537   10.7457    2.9411 H   0  0  0  0  0  0  0  0  0  0  0  0
  -38.0350    9.8413    1.3912 H   0  0  0  0  0  0  0  0  0  0  0  0
  -38.1399   11.6345    1.3912 H   0  0  0  0  0  0  0  0  0  0  0  0
  -40.3796   15.4031    1.1444 H   0  0  0  0  0  0  0  0  0  0  0  0
  -38.6041   15.8989    2.8052 H   0  0  0  0  0  0  0  0  0  0  0  0
  -38.4559   14.5649    4.8878 H   0  0  0  0  0  0  0  0  0  0  0  0
  -39.9105   12.5718    5.1767 H   0  0  0  0  0  0  0  0  0  0  0  0
  -40.2695   10.3587    2.9665 H   0  0  0  0  0  0  0  0  0  0  0  0
  -42.0242   11.3854    4.3909 H   0  0  0  0  0  0  0  0  0  0  0  0
  -41.8479   13.4294    1.4240 H   0  0  0  0  0  0  0  0  0  0  0  0
  -47.7693   11.2489    5.2850 H   0  0  0  0  0  0  0  0  0  0  0  0
  -46.7095   12.6735    6.8845 H   0  0  0  0  0  0  0  0  0  0  0  0
  -45.5939   11.2373    6.8450 H   0  0  0  0  0  0  0  0  0  0  0  0
  -44.3750   12.4258    4.9830 H   0  0  0  0  0  0  0  0  0  0  0  0
  -44.2594   13.1142    6.6911 H   0  0  0  0  0  0  0  0  0  0  0  0
  -46.8599   14.9115    9.5849 H   0  0  0  0  0  0  0  0  0  0  0  0
  -46.7991   16.3328    8.4881 H   0  0  0  0  0  0  0  0  0  0  0  0
  -48.2393   15.2593    8.4881 H   0  0  0  0  0  0  0  0  0  0  0  0
  1  2  1  0
  1 28  1  0
  2  3  1  0
  3 27  1  0
  4  5  2  0
  4 24  1  0
  5  6  1  0
  6  7  2  0
  6 20  1  0
  7  8  1  0
  7  9  1  0
  8 24  2  0
  9 10  2  0
  9 21  1  0
 10 11  1  0
 10 12  1  0
 11 20  2  0
 12 18  2  0
 12 19  1  0
 13 19  1  0
 14 15  2  0
 14 23  1  0
 15 16  1  0
 16 17  2  0
 17 22  1  0
 21 22  1  0
 22 23  2  0
 24 25  1  0
 25 26  1  0
 26 27  1  0
  1 29  1  0
  1 30  1  0
  2 31  1  0
  2 32  1  0
  3 33  1  0
  3 34  1  0
  4 35  1  0
  5 36  1  0
  8 37  1  0
 11 38  1  0
 13 39  1  0
 13 40  1  0
 13 41  1  0
 14 42  1  0
 15 43  1  0
 16 44  1  0
 17 45  1  0
 19 46  1  0
 21 47  1  0
 23 48  1  0
 25 49  1  0
 26 50  1  0
 26 51  1  0
 27 52  1  0
 27 53  1  0
 28 54  1  0
 28 55  1  0
 28 56  1  0
M  END
>  <filename_input>  (11) 
7N03_ZRP_docked.sdf

>  <pdb_id>  (11) 
7N03_ZRP

>  <pose_rank>  (11) 
10

>  <num_atoms_heavy>  (11) 
28

>  <num_torsions>  (11) 
9

>  <pose>  (11) 
[-46.89439200822145, 10.886251859293644, 2.829555150151228, 2.7354935900382724, 1.3503669024239162, 1.5387250485543251, -2.6333377652384513, -1.4356334220848144, 3.747834103752002, 0.6812919333881698, -1.1908277563475311, -1.6975109509954975, -2.7611129804325016, 1.0084148452062507, -0.35902971494774105]

>  <energy>  (11) 
-472.99541136248337

>  <inter_energy>  (11) 
-672.577537258855

>  <intra_energy>  (11) 
205.124885063186

>  <rmsd>  (11) 
6.5226

>  <sdf_rank>  (11) 
0

$$$$

     RDKit          3D

 56 58  0  0  0  0  0  0  0  0999 V2000
  -37.9224   12.9347   -2.6825 C   0  0  0  0  0  0  0  0  0  0  0  0
  -38.5077   11.6732   -2.0539 C   0  0  0  0  0  0  0  0  0  0  0  0
  -39.1928   11.9491   -0.7245 C   0  0  0  0  0  0  0  0  0  0  0  0
  -44.7493    9.9168    0.3771 C   0  0  0  0  0  0  0  0  0  0  0  0
  -45.9771   10.0335    0.9603 C   0  0  0  0  0  0  0  0  0  0  0  0
  -46.1439   10.8100    2.1323 C   0  0  0  0  0  0  0  0  0  0  0  0
  -45.0203   11.4715    2.6815 C   0  0  0  0  0  0  0  0  0  0  0  0
  -43.7689   11.3512    2.0281 C   0  0  0  0  0  0  0  0  0  0  0  0
  -45.2245   12.2399    3.8577 C   0  0  0  0  0  0  0  0  0  0  0  0
  -46.5242   12.4105    4.3615 C   0  0  0  0  0  0  0  0  0  0  0  0
  -47.5481   11.6864    3.7302 C   0  0  0  0  0  0  0  0  0  0  0  0
  -46.8102   13.2955    5.5266 C   0  0  0  0  0  0  0  0  0  0  0  0
  -46.9996   15.5202    6.4805 C   0  0  0  0  0  0  0  0  0  0  0  0
  -40.5359   13.4250    4.2751 C   0  0  0  0  0  0  0  0  0  0  0  0
  -40.0347   12.1581    4.0134 C   0  0  0  0  0  0  0  0  0  0  0  0
  -40.8890   11.0861    3.9367 C   0  0  0  0  0  0  0  0  0  0  0  0
  -42.2540   11.2902    4.0494 C   0  0  0  0  0  0  0  0  0  0  0  0
  -46.9924   12.8451    6.6713 O   0  0  0  0  0  0  0  0  0  0  0  0
  -46.8117   14.6157    5.3559 N   0  0  0  0  0  0  0  0  0  0  0  0
  -47.3839   10.9088    2.6837 N   0  0  0  0  0  0  0  0  0  0  0  0
  -44.1558   12.8488    4.5033 N   0  0  0  0  0  0  0  0  0  0  0  0
  -42.7582   12.5605    4.2727 C   0  0  0  0  0  0  0  0  0  0  0  0
  -41.8901   13.6387    4.3935 C   0  0  0  0  0  0  0  0  0  0  0  0
  -43.6377   10.5846    0.8848 C   0  0  0  0  0  0  0  0  0  0  0  0
  -42.4201   10.5307    0.2381 N   0  0  0  0  0  0  0  0  0  0  0  0
  -41.4326   11.5792    0.4534 C   0  0  0  0  0  0  0  0  0  0  0  0
  -40.6991   11.9501   -0.8132 C   0  0  0  0  0  0  0  0  0  0  0  0
  -36.5657   12.7512   -3.3206 C   0  0  0  0  0  0  0  0  0  0  0  0
  -38.6201   13.2871   -3.4565 H   0  0  0  0  0  0  0  0  0  0  0  0
  -37.7852   13.6552   -1.8628 H   0  0  0  0  0  0  0  0  0  0  0  0
  -39.2445   11.2424   -2.7478 H   0  0  0  0  0  0  0  0  0  0  0  0
  -37.6766   10.9780   -1.8637 H   0  0  0  0  0  0  0  0  0  0  0  0
  -38.8867   11.1734   -0.0072 H   0  0  0  0  0  0  0  0  0  0  0  0
  -38.8866   12.9563   -0.4053 H   0  0  0  0  0  0  0  0  0  0  0  0
  -44.6349    9.2815   -0.5135 H   0  0  0  0  0  0  0  0  0  0  0  0
  -46.8434    9.5206    0.5169 H   0  0  0  0  0  0  0  0  0  0  0  0
  -42.8909   11.8740    2.4353 H   0  0  0  0  0  0  0  0  0  0  0  0
  -48.5639   11.7769    4.1425 H   0  0  0  0  0  0  0  0  0  0  0  0
  -46.8840   14.9635    7.4221 H   0  0  0  0  0  0  0  0  0  0  0  0
  -46.2491   16.3231    6.4346 H   0  0  0  0  0  0  0  0  0  0  0  0
  -48.0078   15.9577    6.4346 H   0  0  0  0  0  0  0  0  0  0  0  0
  -39.8413   14.2703    4.3895 H   0  0  0  0  0  0  0  0  0  0  0  0
  -38.9542   12.0126    3.8675 H   0  0  0  0  0  0  0  0  0  0  0  0
  -40.4917   10.0714    3.7866 H   0  0  0  0  0  0  0  0  0  0  0  0
  -42.9427   10.4371    3.9610 H   0  0  0  0  0  0  0  0  0  0  0  0
  -46.6776   15.0038    4.4113 H   0  0  0  0  0  0  0  0  0  0  0  0
  -44.3783   13.5676    5.2067 H   0  0  0  0  0  0  0  0  0  0  0  0
  -42.2803   14.6499    4.5814 H   0  0  0  0  0  0  0  0  0  0  0  0
  -42.2094    9.7482   -0.3977 H   0  0  0  0  0  0  0  0  0  0  0  0
  -41.9450   12.4728    0.8392 H   0  0  0  0  0  0  0  0  0  0  0  0
  -40.6906   11.1980    1.1705 H   0  0  0  0  0  0  0  0  0  0  0  0
  -41.0193   12.9613   -1.1048 H   0  0  0  0  0  0  0  0  0  0  0  0
  -40.9556   11.1708   -1.5459 H   0  0  0  0  0  0  0  0  0  0  0  0
  -35.8022   12.6480   -2.5355 H   0  0  0  0  0  0  0  0  0  0  0  0
  -36.5738   11.8460   -3.9455 H   0  0  0  0  0  0  0  0  0  0  0  0
  -36.3331   13.6261   -3.9455 H   0  0  0  0  0  0  0  0  0  0  0  0
  1  2  1  0
  1 28  1  0
  2  3  1  0
  3 27  1  0
  4  5  2  0
  4 24  1  0
  5  6  1  0
  6  7  2  0
  6 20  1  0
  7  8  1  0
  7  9  1  0
  8 24  2  0
  9 10  2  0
  9 21  1  0
 10 11  1  0
 10 12  1  0
 11 20  2  0
 12 18  2  0
 12 19  1  0
 13 19  1  0
 14 15  2  0
 14 23  1  0
 15 16  1  0
 16 17  2  0
 17 22  1  0
 21 22  1  0
 22 23  2  0
 24 25  1  0
 25 26  1  0
 26 27  1  0
  1 29  1  0
  1 30  1  0
  2 31  1  0
  2 32  1  0
  3 33  1  0
  3 34  1  0
  4 35  1  0
  5 36  1  0
  8 37  1  0
 11 38  1  0
 13 39  1  0
 13 40  1  0
 13 41  1  0
 14 42  1  0
 15 43  1  0
 16 44  1  0
 17 45  1  0
 19 46  1  0
 21 47  1  0
 23 48  1  0
 25 49  1  0
 26 50  1  0
 26 51  1  0
 27 52  1  0
 27 53  1  0
 28 54  1  0
 28 55  1  0
 28 56  1  0
M  END
>  <filename_input>  (12) 
7N03_ZRP_docked.sdf

>  <pdb_id>  (12) 
7N03_ZRP

>  <pose_rank>  (12) 
11

>  <num_atoms_heavy>  (12) 
28

>  <num_torsions>  (12) 
9

>  <pose>  (12) 
[-44.74934469342899, 9.91684660766838, 0.37712458722818276, 0.16186897291415522, -0.3063811150525992, 0.23109841278372012, -1.9108393848093206, 0.5706532128502755, -0.28514195642137197, -12.415384354147323, 14.724407020262708, -11.564407689549837, 11.299585808989919, -2.9573009938116077, -1.131874245422172]

>  <energy>  (12) 
-730.7701675541985

>  <inter_energy>  (12) 
-836.7465121093777

>  <intra_energy>  (12) 
107.57103838029415

>  <rmsd>  (12) 
2.27465

>  <sdf_rank>  (12) 
0

$$$$

     RDKit          3D

 56 58  0  0  0  0  0  0  0  0999 V2000
  -34.9354   10.9187   -3.2036 C   0  0  0  0  0  0  0  0  0  0  0  0
  -36.1940   10.8929   -2.3408 C   0  0  0  0  0  0  0  0  0  0  0  0
  -37.2275   11.9151   -2.7879 C   0  0  0  0  0  0  0  0  0  0  0  0
  -38.9505   10.9716    2.3086 C   0  0  0  0  0  0  0  0  0  0  0  0
  -39.2319   11.0676    3.6400 C   0  0  0  0  0  0  0  0  0  0  0  0
  -40.5303   11.4275    4.0748 C   0  0  0  0  0  0  0  0  0  0  0  0
  -41.5328   11.6745    3.1074 C   0  0  0  0  0  0  0  0  0  0  0  0
  -41.2089   11.5332    1.7354 C   0  0  0  0  0  0  0  0  0  0  0  0
  -42.8224   12.0344    3.5798 C   0  0  0  0  0  0  0  0  0  0  0  0
  -43.0879   12.0213    4.9586 C   0  0  0  0  0  0  0  0  0  0  0  0
  -41.9999   11.7736    5.8108 C   0  0  0  0  0  0  0  0  0  0  0  0
  -44.4509   12.2824    5.5033 C   0  0  0  0  0  0  0  0  0  0  0  0
  -46.6205   11.4626    6.2216 C   0  0  0  0  0  0  0  0  0  0  0  0
  -45.8767    9.7418    1.1459 C   0  0  0  0  0  0  0  0  0  0  0  0
  -47.0855    9.8499    1.8184 C   0  0  0  0  0  0  0  0  0  0  0  0
  -47.2329   10.7807    2.8166 C   0  0  0  0  0  0  0  0  0  0  0  0
  -46.1955   11.6545    3.0954 C   0  0  0  0  0  0  0  0  0  0  0  0
  -44.8902   13.4345    5.6642 O   0  0  0  0  0  0  0  0  0  0  0  0
  -45.2524   11.2538    5.7713 N   0  0  0  0  0  0  0  0  0  0  0  0
  -40.7767   11.5081    5.4105 N   0  0  0  0  0  0  0  0  0  0  0  0
  -43.8351   12.3743    2.6918 N   0  0  0  0  0  0  0  0  0  0  0  0
  -45.0016   11.5725    2.3984 C   0  0  0  0  0  0  0  0  0  0  0  0
  -44.8375   10.6018    1.4179 C   0  0  0  0  0  0  0  0  0  0  0  0
  -39.9310   11.1808    1.3420 C   0  0  0  0  0  0  0  0  0  0  0  0
  -39.6585   10.9958    0.0022 N   0  0  0  0  0  0  0  0  0  0  0  0
  -38.4029   11.4739   -0.5597 C   0  0  0  0  0  0  0  0  0  0  0  0
  -38.5245   11.8336   -2.0212 C   0  0  0  0  0  0  0  0  0  0  0  0
  -33.7294   10.2560   -2.5809 C   0  0  0  0  0  0  0  0  0  0  0  0
  -35.1583   10.4045   -4.1501 H   0  0  0  0  0  0  0  0  0  0  0  0
  -34.6727   11.9783   -3.3380 H   0  0  0  0  0  0  0  0  0  0  0  0
  -36.6416    9.8898   -2.3996 H   0  0  0  0  0  0  0  0  0  0  0  0
  -35.8988   11.1443   -1.3114 H   0  0  0  0  0  0  0  0  0  0  0  0
  -36.8043   12.9211   -2.6507 H   0  0  0  0  0  0  0  0  0  0  0  0
  -37.4601   11.7008   -3.8415 H   0  0  0  0  0  0  0  0  0  0  0  0
  -37.9268   10.7236    1.9915 H   0  0  0  0  0  0  0  0  0  0  0  0
  -38.4446   10.8640    4.3807 H   0  0  0  0  0  0  0  0  0  0  0  0
  -41.9836   11.7059    0.9737 H   0  0  0  0  0  0  0  0  0  0  0  0
  -42.1852   11.8040    6.8946 H   0  0  0  0  0  0  0  0  0  0  0  0
  -46.6479   11.4668    7.3213 H   0  0  0  0  0  0  0  0  0  0  0  0
  -46.9883   12.4273    5.8420 H   0  0  0  0  0  0  0  0  0  0  0  0
  -47.2593   10.6516    5.8420 H   0  0  0  0  0  0  0  0  0  0  0  0
  -45.7473    8.9580    0.3851 H   0  0  0  0  0  0  0  0  0  0  0  0
  -47.9247    9.1905    1.5520 H   0  0  0  0  0  0  0  0  0  0  0  0
  -48.1693   10.8321    3.3915 H   0  0  0  0  0  0  0  0  0  0  0  0
  -46.3206   12.4194    3.8760 H   0  0  0  0  0  0  0  0  0  0  0  0
  -44.8981   10.2933    5.6578 H   0  0  0  0  0  0  0  0  0  0  0  0
  -43.7473   13.2751    2.2001 H   0  0  0  0  0  0  0  0  0  0  0  0
  -43.8892   10.5219    0.8662 H   0  0  0  0  0  0  0  0  0  0  0  0
  -40.3438   10.5191   -0.6012 H   0  0  0  0  0  0  0  0  0  0  0  0
  -38.0838   12.3666   -0.0018 H   0  0  0  0  0  0  0  0  0  0  0  0
  -37.6672   10.6605   -0.4753 H   0  0  0  0  0  0  0  0  0  0  0  0
  -39.0177   12.8147   -2.0873 H   0  0  0  0  0  0  0  0  0  0  0  0
  -39.0940   11.0142   -2.4840 H   0  0  0  0  0  0  0  0  0  0  0  0
  -33.8113   10.3010   -1.4849 H   0  0  0  0  0  0  0  0  0  0  0  0
  -33.6818    9.2050   -2.9022 H   0  0  0  0  0  0  0  0  0  0  0  0
  -32.8167   10.7793   -2.9022 H   0  0  0  0  0  0  0  0  0  0  0  0
  1  2  1  0
  1 28  1  0
  2  3  1  0
  3 27  1  0
  4  5  2  0
  4 24  1  0
  5  6  1  0
  6  7  2  0
  6 20  1  0
  7  8  1  0
  7  9  1  0
  8 24  2  0
  9 10  2  0
  9 21  1  0
 10 11  1  0
 10 12  1  0
 11 20  2  0
 12 18  2  0
 12 19  1  0
 13 19  1  0
 14 15  2  0
 14 23  1  0
 15 16  1  0
 16 17  2  0
 17 22  1  0
 21 22  1  0
 22 23  2  0
 24 25  1  0
 25 26  1  0
 26 27  1  0
  1 29  1  0
  1 30  1  0
  2 31  1  0
  2 32  1  0
  3 33  1  0
  3 34  1  0
  4 35  1  0
  5 36  1  0
  8 37  1  0
 11 38  1  0
 13 39  1  0
 13 40  1  0
 13 41  1  0
 14 42  1  0
 15 43  1  0
 16 44  1  0
 17 45  1  0
 19 46  1  0
 21 47  1  0
 23 48  1  0
 25 49  1  0
 26 50  1  0
 26 51  1  0
 27 52  1  0
 27 53  1  0
 28 54  1  0
 28 55  1  0
 28 56  1  0
M  END
>  <filename_input>  (13) 
7N03_ZRP_docked.sdf

>  <pdb_id>  (13) 
7N03_ZRP

>  <pose_rank>  (13) 
12

>  <num_atoms_heavy>  (13) 
28

>  <num_torsions>  (13) 
9

>  <pose>  (13) 
[-38.95047131656394, 10.971639303063121, 2.3085516263836383, 1.5518854803920323, -1.2920208092899301, -3.278232814902961, -1.5795160457371968, 2.7210443603399543, 1.9581316221752942, 2.9554383042452024, 1.9793099080040246, 0.4288986121740642, -3.3147280554674907, -1.7126206512265654, -0.7331290131044136]

>  <energy>  (13) 
-529.8750500611968

>  <inter_energy>  (13) 
-597.6389859795286

>  <intra_energy>  (13) 
68.64620444006842

>  <rmsd>  (13) 
5.25587

>  <sdf_rank>  (13) 
0

$$$$

     RDKit          3D

 56 58  0  0  0  0  0  0  0  0999 V2000
  -35.5037   12.4966    0.7858 C   0  0  0  0  0  0  0  0  0  0  0  0
  -35.7769   11.0081    0.9833 C   0  0  0  0  0  0  0  0  0  0  0  0
  -37.1154   10.7461    1.6561 C   0  0  0  0  0  0  0  0  0  0  0  0
  -41.0935   12.0742    5.2100 C   0  0  0  0  0  0  0  0  0  0  0  0
  -42.2929   11.8830    5.8311 C   0  0  0  0  0  0  0  0  0  0  0  0
  -43.4791   11.7378    5.0719 C   0  0  0  0  0  0  0  0  0  0  0  0
  -43.3986   11.7827    3.6601 C   0  0  0  0  0  0  0  0  0  0  0  0
  -42.1299   11.9510    3.0524 C   0  0  0  0  0  0  0  0  0  0  0  0
  -44.6081   11.6350    2.9314 C   0  0  0  0  0  0  0  0  0  0  0  0
  -45.8002   11.3403    3.6126 C   0  0  0  0  0  0  0  0  0  0  0  0
  -45.7442   11.3387    5.0155 C   0  0  0  0  0  0  0  0  0  0  0  0
  -47.0756   11.0661    2.8909 C   0  0  0  0  0  0  0  0  0  0  0  0
  -48.3172    9.8254    1.2133 C   0  0  0  0  0  0  0  0  0  0  0  0
  -43.4635    8.9525   -0.5275 C   0  0  0  0  0  0  0  0  0  0  0  0
  -42.3840    9.4959   -1.2090 C   0  0  0  0  0  0  0  0  0  0  0  0
  -42.0410   10.8105   -1.0115 C   0  0  0  0  0  0  0  0  0  0  0  0
  -42.7316   11.5645   -0.0777 C   0  0  0  0  0  0  0  0  0  0  0  0
  -48.0888   11.7700    3.0462 O   0  0  0  0  0  0  0  0  0  0  0  0
  -47.1209   10.0744    2.0040 N   0  0  0  0  0  0  0  0  0  0  0  0
  -44.6570   11.5429    5.7247 N   0  0  0  0  0  0  0  0  0  0  0  0
  -44.6227   11.7523    1.5473 N   0  0  0  0  0  0  0  0  0  0  0  0
  -43.7852   11.0117    0.6310 C   0  0  0  0  0  0  0  0  0  0  0  0
  -44.1598    9.6939    0.3993 C   0  0  0  0  0  0  0  0  0  0  0  0
  -40.9892   12.0907    3.8213 C   0  0  0  0  0  0  0  0  0  0  0  0
  -39.7606   12.1969    3.2026 N   0  0  0  0  0  0  0  0  0  0  0  0
  -39.5305   11.5449    1.9209 C   0  0  0  0  0  0  0  0  0  0  0  0
  -38.1469   11.8115    1.3779 C   0  0  0  0  0  0  0  0  0  0  0  0
  -35.0712   12.8794   -0.6098 C   0  0  0  0  0  0  0  0  0  0  0  0
  -36.4254   13.0484    1.0223 H   0  0  0  0  0  0  0  0  0  0  0  0
  -34.6650   12.7493    1.4511 H   0  0  0  0  0  0  0  0  0  0  0  0
  -35.7738   10.5154   -0.0001 H   0  0  0  0  0  0  0  0  0  0  0  0
  -34.9893   10.6078    1.6386 H   0  0  0  0  0  0  0  0  0  0  0  0
  -37.5039    9.7824    1.2950 H   0  0  0  0  0  0  0  0  0  0  0  0
  -36.9372   10.7434    2.7415 H   0  0  0  0  0  0  0  0  0  0  0  0
  -40.1891   12.2184    5.8192 H   0  0  0  0  0  0  0  0  0  0  0  0
  -42.3388   11.8414    6.9294 H   0  0  0  0  0  0  0  0  0  0  0  0
  -42.0513   11.9708    1.9554 H   0  0  0  0  0  0  0  0  0  0  0  0
  -46.6806   11.1527    5.5619 H   0  0  0  0  0  0  0  0  0  0  0  0
  -49.1702    9.6479    1.8848 H   0  0  0  0  0  0  0  0  0  0  0  0
  -48.5258   10.6994    0.5787 H   0  0  0  0  0  0  0  0  0  0  0  0
  -48.1598    8.9408    0.5787 H   0  0  0  0  0  0  0  0  0  0  0  0
  -43.7668    7.9149   -0.7309 H   0  0  0  0  0  0  0  0  0  0  0  0
  -41.8037    8.8742   -1.9067 H   0  0  0  0  0  0  0  0  0  0  0  0
  -41.2226   11.2620   -1.5914 H   0  0  0  0  0  0  0  0  0  0  0  0
  -42.4413   12.6101    0.1024 H   0  0  0  0  0  0  0  0  0  0  0  0
  -46.2949    9.4728    1.8750 H   0  0  0  0  0  0  0  0  0  0  0  0
  -45.2875   12.4247    1.1389 H   0  0  0  0  0  0  0  0  0  0  0  0
  -45.0020    9.2491    0.9495 H   0  0  0  0  0  0  0  0  0  0  0  0
  -39.0054   12.7378    3.6476 H   0  0  0  0  0  0  0  0  0  0  0  0
  -39.6562   10.4597    2.0493 H   0  0  0  0  0  0  0  0  0  0  0  0
  -40.2565   11.9533    1.2025 H   0  0  0  0  0  0  0  0  0  0  0  0
  -37.7871   12.7529    1.8186 H   0  0  0  0  0  0  0  0  0  0  0  0
  -38.2565   11.8426    0.2838 H   0  0  0  0  0  0  0  0  0  0  0  0
  -34.2486   13.6075   -0.5520 H   0  0  0  0  0  0  0  0  0  0  0  0
  -34.7296   11.9823   -1.1469 H   0  0  0  0  0  0  0  0  0  0  0  0
  -35.9202   13.3273   -1.1469 H   0  0  0  0  0  0  0  0  0  0  0  0
  1  2  1  0
  1 28  1  0
  2  3  1  0
  3 27  1  0
  4  5  2  0
  4 24  1  0
  5  6  1  0
  6  7  2  0
  6 20  1  0
  7  8  1  0
  7  9  1  0
  8 24  2  0
  9 10  2  0
  9 21  1  0
 10 11  1  0
 10 12  1  0
 11 20  2  0
 12 18  2  0
 12 19  1  0
 13 19  1  0
 14 15  2  0
 14 23  1  0
 15 16  1  0
 16 17  2  0
 17 22  1  0
 21 22  1  0
 22 23  2  0
 24 25  1  0
 25 26  1  0
 26 27  1  0
  1 29  1  0
  1 30  1  0
  2 31  1  0
  2 32  1  0
  3 33  1  0
  3 34  1  0
  4 35  1  0
  5 36  1  0
  8 37  1  0
 11 38  1  0
 13 39  1  0
 13 40  1  0
 13 41  1  0
 14 42  1  0
 15 43  1  0
 16 44  1  0
 17 45  1  0
 19 46  1  0
 21 47  1  0
 23 48  1  0
 25 49  1  0
 26 50  1  0
 26 51  1  0
 27 52  1  0
 27 53  1  0
 28 54  1  0
 28 55  1  0
 28 56  1  0
M  END
>  <filename_input>  (14) 
7N03_ZRP_docked.sdf

>  <pdb_id>  (14) 
7N03_ZRP

>  <pose_rank>  (14) 
13

>  <num_atoms_heavy>  (14) 
28

>  <num_torsions>  (14) 
9

>  <pose>  (14) 
[-41.09350828979043, 12.074158059316398, 5.209969741683723, -1.951313602739932, 0.18118901871879273, 1.6163343446075513, -2.2264550067581017, 1.7578553283378222, -1.491624787957144, -0.012106795542117832, 1.441432211971342, -1.3513613758772742, -0.8800689696682048, 2.0122419215879934, 0.4439585462671947]

>  <energy>  (14) 
-607.2450464005178

>  <inter_energy>  (14) 
-623.5566904251749

>  <intra_energy>  (14) 
38.167303666214195

>  <rmsd>  (14) 
4.99934

>  <sdf_rank>  (14) 
0

$$$$

     RDKit          3D

 56 58  0  0  0  0  0  0  0  0999 V2000
  -46.6888   13.4354    6.3896 C   0  0  0  0  0  0  0  0  0  0  0  0
  -45.9442   12.7846    5.2273 C   0  0  0  0  0  0  0  0  0  0  0  0
  -45.5803   11.3348    5.5078 C   0  0  0  0  0  0  0  0  0  0  0  0
  -42.4125   13.1370    3.5573 C   0  0  0  0  0  0  0  0  0  0  0  0
  -41.2829   13.9008    3.5973 C   0  0  0  0  0  0  0  0  0  0  0  0
  -40.1138   13.4892    2.9130 C   0  0  0  0  0  0  0  0  0  0  0  0
  -40.1397   12.2802    2.1786 C   0  0  0  0  0  0  0  0  0  0  0  0
  -41.3420   11.5317    2.1357 C   0  0  0  0  0  0  0  0  0  0  0  0
  -38.9491   11.8981    1.5063 C   0  0  0  0  0  0  0  0  0  0  0  0
  -37.8460   12.7670    1.4950 C   0  0  0  0  0  0  0  0  0  0  0  0
  -37.9470   13.9289    2.2768 C   0  0  0  0  0  0  0  0  0  0  0  0
  -36.6119   12.4672    0.7143 C   0  0  0  0  0  0  0  0  0  0  0  0
  -34.9803   13.1057   -0.9666 C   0  0  0  0  0  0  0  0  0  0  0  0
  -37.8456   11.2234   -2.6500 C   0  0  0  0  0  0  0  0  0  0  0  0
  -38.5393   10.2360   -3.3348 C   0  0  0  0  0  0  0  0  0  0  0  0
  -39.3370    9.3564   -2.6459 C   0  0  0  0  0  0  0  0  0  0  0  0
  -39.5000    9.5075   -1.2791 C   0  0  0  0  0  0  0  0  0  0  0  0
  -36.0439   11.3624    0.7720 O   0  0  0  0  0  0  0  0  0  0  0  0
  -36.1309   13.3858   -0.1205 N   0  0  0  0  0  0  0  0  0  0  0  0
  -39.0071   14.2788    2.9700 N   0  0  0  0  0  0  0  0  0  0  0  0
  -38.8701   10.6844    0.8353 N   0  0  0  0  0  0  0  0  0  0  0  0
  -38.8378   10.5167   -0.6001 C   0  0  0  0  0  0  0  0  0  0  0  0
  -37.9964   11.3799   -1.2913 C   0  0  0  0  0  0  0  0  0  0  0  0
  -42.4675   11.9598    2.8153 C   0  0  0  0  0  0  0  0  0  0  0  0
  -43.6401   11.2405    2.7102 N   0  0  0  0  0  0  0  0  0  0  0  0
  -44.0200   10.3069    3.7614 C   0  0  0  0  0  0  0  0  0  0  0  0
  -44.1702   10.9800    5.1046 C   0  0  0  0  0  0  0  0  0  0  0  0
  -46.2918   14.8650    6.6725 C   0  0  0  0  0  0  0  0  0  0  0  0
  -47.7645   13.4176    6.1603 H   0  0  0  0  0  0  0  0  0  0  0  0
  -46.4281   12.8571    7.2883 H   0  0  0  0  0  0  0  0  0  0  0  0
  -46.5844   12.8210    4.3335 H   0  0  0  0  0  0  0  0  0  0  0  0
  -45.0075   13.3412    5.0768 H   0  0  0  0  0  0  0  0  0  0  0  0
  -45.6910   11.1503    6.5865 H   0  0  0  0  0  0  0  0  0  0  0  0
  -46.2561   10.7091    4.9063 H   0  0  0  0  0  0  0  0  0  0  0  0
  -43.2993   13.4580    4.1235 H   0  0  0  0  0  0  0  0  0  0  0  0
  -41.2803   14.8429    4.1651 H   0  0  0  0  0  0  0  0  0  0  0  0
  -41.3804   10.5985    1.5546 H   0  0  0  0  0  0  0  0  0  0  0  0
  -37.0733   14.5963    2.3117 H   0  0  0  0  0  0  0  0  0  0  0  0
  -34.1046   12.8925   -0.3360 H   0  0  0  0  0  0  0  0  0  0  0  0
  -35.1958   12.2338   -1.6017 H   0  0  0  0  0  0  0  0  0  0  0  0
  -34.7709   13.9791   -1.6017 H   0  0  0  0  0  0  0  0  0  0  0  0
  -37.1659   11.8902   -3.2008 H   0  0  0  0  0  0  0  0  0  0  0  0
  -38.4502   10.1581   -4.4284 H   0  0  0  0  0  0  0  0  0  0  0  0
  -39.8436    8.5367   -3.1763 H   0  0  0  0  0  0  0  0  0  0  0  0
  -40.1601    8.8211   -0.7287 H   0  0  0  0  0  0  0  0  0  0  0  0
  -36.5809   14.3111   -0.1684 H   0  0  0  0  0  0  0  0  0  0  0  0
  -38.8311    9.8304    1.4100 H   0  0  0  0  0  0  0  0  0  0  0  0
  -37.4579   12.1779   -0.7591 H   0  0  0  0  0  0  0  0  0  0  0  0
  -44.2475   11.3640    1.8876 H   0  0  0  0  0  0  0  0  0  0  0  0
  -44.9792    9.8416    3.4905 H   0  0  0  0  0  0  0  0  0  0  0  0
  -43.2188    9.5584    3.8498 H   0  0  0  0  0  0  0  0  0  0  0  0
  -43.5813   11.9089    5.0843 H   0  0  0  0  0  0  0  0  0  0  0  0
  -43.8231   10.2461    5.8469 H   0  0  0  0  0  0  0  0  0  0  0  0
  -46.2474   15.0249    7.7599 H   0  0  0  0  0  0  0  0  0  0  0  0
  -45.3040   15.0653    6.2318 H   0  0  0  0  0  0  0  0  0  0  0  0
  -47.0348   15.5460    6.2318 H   0  0  0  0  0  0  0  0  0  0  0  0
  1  2  1  0
  1 28  1  0
  2  3  1  0
  3 27  1  0
  4  5  2  0
  4 24  1  0
  5  6  1  0
  6  7  2  0
  6 20  1  0
  7  8  1  0
  7  9  1  0
  8 24  2  0
  9 10  2  0
  9 21  1  0
 10 11  1  0
 10 12  1  0
 11 20  2  0
 12 18  2  0
 12 19  1  0
 13 19  1  0
 14 15  2  0
 14 23  1  0
 15 16  1  0
 16 17  2  0
 17 22  1  0
 21 22  1  0
 22 23  2  0
 24 25  1  0
 25 26  1  0
 26 27  1  0
  1 29  1  0
  1 30  1  0
  2 31  1  0
  2 32  1  0
  3 33  1  0
  3 34  1  0
  4 35  1  0
  5 36  1  0
  8 37  1  0
 11 38  1  0
 13 39  1  0
 13 40  1  0
 13 41  1  0
 14 42  1  0
 15 43  1  0
 16 44  1  0
 17 45  1  0
 19 46  1  0
 21 47  1  0
 23 48  1  0
 25 49  1  0
 26 50  1  0
 26 51  1  0
 27 52  1  0
 27 53  1  0
 28 54  1  0
 28 55  1  0
 28 56  1  0
M  END
>  <filename_input>  (15) 
7N03_ZRP_docked.sdf

>  <pdb_id>  (15) 
7N03_ZRP

>  <pose_rank>  (15) 
14

>  <num_atoms_heavy>  (15) 
28

>  <num_torsions>  (15) 
9

>  <pose>  (15) 
[-42.41252577255508, 13.13704228590864, 3.5573347825727755, -0.6911338518150009, 1.232034609396122, -1.3095298044842343, 5.288592680003209, 8.99715385844024, 4.225058271451164, 2.2467364355148054, -0.6289126939413592, -1.3222860939092842, 0.6444929227141226, 5.423634150314009, -1.1155861148516275]

>  <energy>  (15) 
-410.6889995637474

>  <inter_energy>  (15) 
-526.6658850463936

>  <intra_energy>  (15) 
123.81900145217614

>  <rmsd>  (15) 
8.41482

>  <sdf_rank>  (15) 
0

$$$$

     RDKit          3D

 56 58  0  0  0  0  0  0  0  0999 V2000
  -38.4822   11.4706    0.6609 C   0  0  0  0  0  0  0  0  0  0  0  0
  -38.1099   12.0203    2.0351 C   0  0  0  0  0  0  0  0  0  0  0  0
  -38.1435   13.5400    2.0829 C   0  0  0  0  0  0  0  0  0  0  0  0
  -41.4251   10.1353    4.6930 C   0  0  0  0  0  0  0  0  0  0  0  0
  -42.5099    9.5498    5.2774 C   0  0  0  0  0  0  0  0  0  0  0  0
  -43.7211   10.2682    5.4238 C   0  0  0  0  0  0  0  0  0  0  0  0
  -43.7915   11.5975    4.9445 C   0  0  0  0  0  0  0  0  0  0  0  0
  -42.6529   12.1587    4.3150 C   0  0  0  0  0  0  0  0  0  0  0  0
  -45.0211   12.2876    5.1096 C   0  0  0  0  0  0  0  0  0  0  0  0
  -46.1371   11.6090    5.6253 C   0  0  0  0  0  0  0  0  0  0  0  0
  -45.9269   10.2963    6.0771 C   0  0  0  0  0  0  0  0  0  0  0  0
  -47.4795   12.2510    5.7170 C   0  0  0  0  0  0  0  0  0  0  0  0
  -49.2843   13.1680    7.0575 C   0  0  0  0  0  0  0  0  0  0  0  0
  -45.4816   15.8121    7.6700 C   0  0  0  0  0  0  0  0  0  0  0  0
  -46.4217   16.7441    7.2546 C   0  0  0  0  0  0  0  0  0  0  0  0
  -46.9375   16.6769    5.9841 C   0  0  0  0  0  0  0  0  0  0  0  0
  -46.5684   15.6345    5.1506 C   0  0  0  0  0  0  0  0  0  0  0  0
  -48.2088   12.4060    4.7218 O   0  0  0  0  0  0  0  0  0  0  0  0
  -47.9452   12.6177    6.9089 N   0  0  0  0  0  0  0  0  0  0  0  0
  -44.7846    9.6507    6.0064 N   0  0  0  0  0  0  0  0  0  0  0  0
  -45.1422   13.6217    4.7418 N   0  0  0  0  0  0  0  0  0  0  0  0
  -45.6587   14.6818    5.5780 C   0  0  0  0  0  0  0  0  0  0  0  0
  -45.1041   14.7748    6.8485 C   0  0  0  0  0  0  0  0  0  0  0  0
  -41.4837   11.4316    4.1875 C   0  0  0  0  0  0  0  0  0  0  0  0
  -40.4092   11.9831    3.5205 N   0  0  0  0  0  0  0  0  0  0  0  0
  -39.8299   13.2372    3.9816 C   0  0  0  0  0  0  0  0  0  0  0  0
  -39.3236   14.0917    2.8443 C   0  0  0  0  0  0  0  0  0  0  0  0
  -39.4862   12.3027   -0.1013 C   0  0  0  0  0  0  0  0  0  0  0  0
  -37.5643   11.4043    0.0583 H   0  0  0  0  0  0  0  0  0  0  0  0
  -38.9570   10.4938    0.8354 H   0  0  0  0  0  0  0  0  0  0  0  0
  -38.8216   11.6282    2.7765 H   0  0  0  0  0  0  0  0  0  0  0  0
  -37.0803   11.7016    2.2549 H   0  0  0  0  0  0  0  0  0  0  0  0
  -37.2209   13.8937    2.5663 H   0  0  0  0  0  0  0  0  0  0  0  0
  -38.2329   13.8947    1.0455 H   0  0  0  0  0  0  0  0  0  0  0  0
  -40.4837    9.5712    4.6195 H   0  0  0  0  0  0  0  0  0  0  0  0
  -42.4431    8.5125    5.6374 H   0  0  0  0  0  0  0  0  0  0  0  0
  -42.6997   13.1854    3.9229 H   0  0  0  0  0  0  0  0  0  0  0  0
  -46.7827    9.7688    6.5237 H   0  0  0  0  0  0  0  0  0  0  0  0
  -49.5238   13.2664    8.1265 H   0  0  0  0  0  0  0  0  0  0  0  0
  -49.3292   14.1575    6.5790 H   0  0  0  0  0  0  0  0  0  0  0  0
  -50.0120   12.4961    6.5790 H   0  0  0  0  0  0  0  0  0  0  0  0
  -45.0319   15.9037    8.6697 H   0  0  0  0  0  0  0  0  0  0  0  0
  -46.7534   17.5359    7.9424 H   0  0  0  0  0  0  0  0  0  0  0  0
  -47.6395   17.4463    5.6303 H   0  0  0  0  0  0  0  0  0  0  0  0
  -47.0009   15.5627    4.1417 H   0  0  0  0  0  0  0  0  0  0  0  0
  -47.3473   12.5101    7.7407 H   0  0  0  0  0  0  0  0  0  0  0  0
  -44.8378   13.8776    3.7917 H   0  0  0  0  0  0  0  0  0  0  0  0
  -44.3728   14.0289    7.1932 H   0  0  0  0  0  0  0  0  0  0  0  0
  -40.0163   11.5074    2.6958 H   0  0  0  0  0  0  0  0  0  0  0  0
  -40.5988   13.8003    4.5309 H   0  0  0  0  0  0  0  0  0  0  0  0
  -38.9715   12.9930    4.6247 H   0  0  0  0  0  0  0  0  0  0  0  0
  -39.0309   15.0673    3.2596 H   0  0  0  0  0  0  0  0  0  0  0  0
  -40.1491   14.1433    2.1191 H   0  0  0  0  0  0  0  0  0  0  0  0
  -40.1329   12.8386    0.6091 H   0  0  0  0  0  0  0  0  0  0  0  0
  -38.9554   13.0292   -0.7340 H   0  0  0  0  0  0  0  0  0  0  0  0
  -40.1016   11.6462   -0.7340 H   0  0  0  0  0  0  0  0  0  0  0  0
  1  2  1  0
  1 28  1  0
  2  3  1  0
  3 27  1  0
  4  5  2  0
  4 24  1  0
  5  6  1  0
  6  7  2  0
  6 20  1  0
  7  8  1  0
  7  9  1  0
  8 24  2  0
  9 10  2  0
  9 21  1  0
 10 11  1  0
 10 12  1  0
 11 20  2  0
 12 18  2  0
 12 19  1  0
 13 19  1  0
 14 15  2  0
 14 23  1  0
 15 16  1  0
 16 17  2  0
 17 22  1  0
 21 22  1  0
 22 23  2  0
 24 25  1  0
 25 26  1  0
 26 27  1  0
  1 29  1  0
  1 30  1  0
  2 31  1  0
  2 32  1  0
  3 33  1  0
  3 34  1  0
  4 35  1  0
  5 36  1  0
  8 37  1  0
 11 38  1  0
 13 39  1  0
 13 40  1  0
 13 41  1  0
 14 42  1  0
 15 43  1  0
 16 44  1  0
 17 45  1  0
 19 46  1  0
 21 47  1  0
 23 48  1  0
 25 49  1  0
 26 50  1  0
 26 51  1  0
 27 52  1  0
 27 53  1  0
 28 54  1  0
 28 55  1  0
 28 56  1  0
M  END
>  <filename_input>  (16) 
7N03_ZRP_docked.sdf

>  <pdb_id>  (16) 
7N03_ZRP

>  <pose_rank>  (16) 
15

>  <num_atoms_heavy>  (16) 
28

>  <num_torsions>  (16) 
9

>  <pose>  (16) 
[-41.425149377244594, 10.135306612849476, 4.6930321408627735, -0.6919213615397233, -0.2576692189037192, 1.3466809541407188, -5.096171911724089, -13.99067421526748, -1.9552444579431523, -17.31346805052356, -35.6229824090374, -35.61601043150489, -15.958519533475025, -9.19488565229276, -4.126264521316311]

>  <energy>  (16) 
-581.9756989875445

>  <inter_energy>  (16) 
-610.085472089632

>  <intra_energy>  (16) 
60.124877736628086

>  <rmsd>  (16) 
4.47386

>  <sdf_rank>  (16) 
0

$$$$

     RDKit          3D

 56 58  0  0  0  0  0  0  0  0999 V2000
  -35.7899   11.8688   -2.1965 C   0  0  0  0  0  0  0  0  0  0  0  0
  -37.3019   11.9397   -2.0019 C   0  0  0  0  0  0  0  0  0  0  0  0
  -37.7276   11.5410   -0.5974 C   0  0  0  0  0  0  0  0  0  0  0  0
  -40.1718   12.9404    4.0972 C   0  0  0  0  0  0  0  0  0  0  0  0
  -41.2047   12.4674    4.8524 C   0  0  0  0  0  0  0  0  0  0  0  0
  -42.3481   11.9068    4.2337 C   0  0  0  0  0  0  0  0  0  0  0  0
  -42.3970   11.8350    2.8215 C   0  0  0  0  0  0  0  0  0  0  0  0
  -41.2903   12.3080    2.0739 C   0  0  0  0  0  0  0  0  0  0  0  0
  -43.5594   11.2682    2.2357 C   0  0  0  0  0  0  0  0  0  0  0  0
  -44.5493   10.7046    3.0570 C   0  0  0  0  0  0  0  0  0  0  0  0
  -44.3846   10.8569    4.4430 C   0  0  0  0  0  0  0  0  0  0  0  0
  -45.7356    9.9989    2.4938 C   0  0  0  0  0  0  0  0  0  0  0  0
  -47.9341   10.0732    1.4659 C   0  0  0  0  0  0  0  0  0  0  0  0
  -41.6275    8.6771   -0.7404 C   0  0  0  0  0  0  0  0  0  0  0  0
  -42.5419    7.9526   -1.4914 C   0  0  0  0  0  0  0  0  0  0  0  0
  -43.8732    8.2862   -1.4574 C   0  0  0  0  0  0  0  0  0  0  0  0
  -44.2830    9.3904   -0.7291 C   0  0  0  0  0  0  0  0  0  0  0  0
  -45.8673    8.7644    2.5653 O   0  0  0  0  0  0  0  0  0  0  0  0
  -46.7191   10.7121    1.9494 N   0  0  0  0  0  0  0  0  0  0  0  0
  -43.3569   11.4396    5.0184 N   0  0  0  0  0  0  0  0  0  0  0  0
  -43.7183   11.2399    0.8560 N   0  0  0  0  0  0  0  0  0  0  0  0
  -43.3653   10.1372   -0.0095 C   0  0  0  0  0  0  0  0  0  0  0  0
  -42.0243    9.7733   -0.0094 C   0  0  0  0  0  0  0  0  0  0  0  0
  -40.1877   12.8509    2.7075 C   0  0  0  0  0  0  0  0  0  0  0  0
  -39.1013   13.2519    1.9575 N   0  0  0  0  0  0  0  0  0  0  0  0
  -37.9506   12.3713    1.8113 C   0  0  0  0  0  0  0  0  0  0  0  0
  -37.2814   12.5148    0.4653 C   0  0  0  0  0  0  0  0  0  0  0  0
  -35.3351   10.8995   -3.2618 C   0  0  0  0  0  0  0  0  0  0  0  0
  -35.4324   12.8722   -2.4711 H   0  0  0  0  0  0  0  0  0  0  0  0
  -35.3712   11.5050   -1.2465 H   0  0  0  0  0  0  0  0  0  0  0  0
  -37.6340   12.9711   -2.1918 H   0  0  0  0  0  0  0  0  0  0  0  0
  -37.7630   11.2305   -2.7050 H   0  0  0  0  0  0  0  0  0  0  0  0
  -38.8253   11.4759   -0.5715 H   0  0  0  0  0  0  0  0  0  0  0  0
  -37.2474   10.5766   -0.3751 H   0  0  0  0  0  0  0  0  0  0  0  0
  -39.3077   13.4027    4.5967 H   0  0  0  0  0  0  0  0  0  0  0  0
  -41.1488   12.5218    5.9497 H   0  0  0  0  0  0  0  0  0  0  0  0
  -41.3085   12.2425    0.9760 H   0  0  0  0  0  0  0  0  0  0  0  0
  -45.1749   10.4586    5.0961 H   0  0  0  0  0  0  0  0  0  0  0  0
  -48.5451    9.7519    2.3224 H   0  0  0  0  0  0  0  0  0  0  0  0
  -48.5057   10.7874    0.8550 H   0  0  0  0  0  0  0  0  0  0  0  0
  -47.6698    9.1974    0.8550 H   0  0  0  0  0  0  0  0  0  0  0  0
  -40.5710    8.3710   -0.7292 H   0  0  0  0  0  0  0  0  0  0  0  0
  -42.2005    7.1120   -2.1133 H   0  0  0  0  0  0  0  0  0  0  0  0
  -44.6097    7.6802   -2.0053 H   0  0  0  0  0  0  0  0  0  0  0  0
  -45.3452    9.6763   -0.7221 H   0  0  0  0  0  0  0  0  0  0  0  0
  -46.6183   11.7339    1.8689 H   0  0  0  0  0  0  0  0  0  0  0  0
  -44.1223   12.0766    0.4114 H   0  0  0  0  0  0  0  0  0  0  0  0
  -41.2895   10.3540    0.5676 H   0  0  0  0  0  0  0  0  0  0  0  0
  -39.1040   14.1751    1.5006 H   0  0  0  0  0  0  0  0  0  0  0  0
  -37.2193   12.6128    2.5966 H   0  0  0  0  0  0  0  0  0  0  0  0
  -38.3091   11.3350    1.8981 H   0  0  0  0  0  0  0  0  0  0  0  0
  -36.1991   12.3829    0.6108 H   0  0  0  0  0  0  0  0  0  0  0  0
  -37.5652   13.5111    0.0954 H   0  0  0  0  0  0  0  0  0  0  0  0
  -34.9140   10.0020   -2.7853 H   0  0  0  0  0  0  0  0  0  0  0  0
  -36.1931   10.6138   -3.8881 H   0  0  0  0  0  0  0  0  0  0  0  0
  -34.5669   11.3768   -3.8881 H   0  0  0  0  0  0  0  0  0  0  0  0
  1  2  1  0
  1 28  1  0
  2  3  1  0
  3 27  1  0
  4  5  2  0
  4 24  1  0
  5  6  1  0
  6  7  2  0
  6 20  1  0
  7  8  1  0
  7  9  1  0
  8 24  2  0
  9 10  2  0
  9 21  1  0
 10 11  1  0
 10 12  1  0
 11 20  2  0
 12 18  2  0
 12 19  1  0
 13 19  1  0
 14 15  2  0
 14 23  1  0
 15 16  1  0
 16 17  2  0
 17 22  1  0
 21 22  1  0
 22 23  2  0
 24 25  1  0
 25 26  1  0
 26 27  1  0
  1 29  1  0
  1 30  1  0
  2 31  1  0
  2 32  1  0
  3 33  1  0
  3 34  1  0
  4 35  1  0
  5 36  1  0
  8 37  1  0
 11 38  1  0
 13 39  1  0
 13 40  1  0
 13 41  1  0
 14 42  1  0
 15 43  1  0
 16 44  1  0
 17 45  1  0
 19 46  1  0
 21 47  1  0
 23 48  1  0
 25 49  1  0
 26 50  1  0
 26 51  1  0
 27 52  1  0
 27 53  1  0
 28 54  1  0
 28 55  1  0
 28 56  1  0
M  END
>  <filename_input>  (17) 
7N03_ZRP_docked.sdf

>  <pdb_id>  (17) 
7N03_ZRP

>  <pose_rank>  (17) 
16

>  <num_atoms_heavy>  (17) 
28

>  <num_torsions>  (17) 
9

>  <pose>  (17) 
[-40.17184242619679, 12.940422751643672, 4.09717891006393, -2.0453031671611144, -0.010799351446376088, 1.9234226123321863, 1.7445298427243536, 2.4671656520045224, 2.3888835294988104, -1.1897990744691103, 0.8975082359625713, 1.6019223820464685, -1.0476127914683693, 2.6863378754223137, -1.484932177485246]

>  <energy>  (17) 
-581.0007122966175

>  <inter_energy>  (17) 
-576.8848630162073

>  <intra_energy>  (17) 
17.685170816551025

>  <rmsd>  (17) 
5.72394

>  <sdf_rank>  (17) 
0

$$$$

     RDKit          3D

 56 58  0  0  0  0  0  0  0  0999 V2000
  -46.2264   12.6411    3.8119 C   0  0  0  0  0  0  0  0  0  0  0  0
  -46.0074   12.6720    5.3219 C   0  0  0  0  0  0  0  0  0  0  0  0
  -45.5506   11.3296    5.8717 C   0  0  0  0  0  0  0  0  0  0  0  0
  -41.2676   14.4987    4.2906 C   0  0  0  0  0  0  0  0  0  0  0  0
  -40.1061   14.9167    3.7099 C   0  0  0  0  0  0  0  0  0  0  0  0
  -39.3128   14.0140    2.9614 C   0  0  0  0  0  0  0  0  0  0  0  0
  -39.7494   12.6760    2.8163 C   0  0  0  0  0  0  0  0  0  0  0  0
  -40.9773   12.2894    3.4080 C   0  0  0  0  0  0  0  0  0  0  0  0
  -38.9280   11.7987    2.0605 C   0  0  0  0  0  0  0  0  0  0  0  0
  -37.7954   12.3011    1.3997 C   0  0  0  0  0  0  0  0  0  0  0  0
  -37.4661   13.6447    1.6398 C   0  0  0  0  0  0  0  0  0  0  0  0
  -36.9608   11.4502    0.5042 C   0  0  0  0  0  0  0  0  0  0  0  0
  -35.2025    9.8020    0.2088 C   0  0  0  0  0  0  0  0  0  0  0  0
  -42.2337    9.6160   -0.0212 C   0  0  0  0  0  0  0  0  0  0  0  0
  -41.7095    8.9365   -1.1113 C   0  0  0  0  0  0  0  0  0  0  0  0
  -40.3516    8.7694   -1.2257 C   0  0  0  0  0  0  0  0  0  0  0  0
  -39.5198    9.2181   -0.2137 C   0  0  0  0  0  0  0  0  0  0  0  0
  -36.9996   11.5554   -0.7343 O   0  0  0  0  0  0  0  0  0  0  0  0
  -36.0988   10.5900    1.0419 N   0  0  0  0  0  0  0  0  0  0  0  0
  -38.1632   14.4669    2.3914 N   0  0  0  0  0  0  0  0  0  0  0  0
  -39.2458   10.4514    1.9441 N   0  0  0  0  0  0  0  0  0  0  0  0
  -40.0454    9.8630    0.8934 C   0  0  0  0  0  0  0  0  0  0  0  0
  -41.4161   10.0703    0.9881 C   0  0  0  0  0  0  0  0  0  0  0  0
  -41.7298   13.1944    4.1338 C   0  0  0  0  0  0  0  0  0  0  0  0
  -42.9482   12.8055    4.6514 N   0  0  0  0  0  0  0  0  0  0  0  0
  -43.0378   11.6228    5.4965 C   0  0  0  0  0  0  0  0  0  0  0  0
  -44.2858   10.8158    5.2292 C   0  0  0  0  0  0  0  0  0  0  0  0
  -46.6117   11.2900    3.2573 C   0  0  0  0  0  0  0  0  0  0  0  0
  -47.0284   13.3531    3.5673 H   0  0  0  0  0  0  0  0  0  0  0  0
  -45.2613   12.9015    3.3527 H   0  0  0  0  0  0  0  0  0  0  0  0
  -45.2409   13.4267    5.5518 H   0  0  0  0  0  0  0  0  0  0  0  0
  -46.9702   12.9166    5.7944 H   0  0  0  0  0  0  0  0  0  0  0  0
  -45.3736   11.4377    6.9519 H   0  0  0  0  0  0  0  0  0  0  0  0
  -46.3451   10.6018    5.6502 H   0  0  0  0  0  0  0  0  0  0  0  0
  -41.8519   15.2074    4.8960 H   0  0  0  0  0  0  0  0  0  0  0  0
  -39.7837   15.9622    3.8239 H   0  0  0  0  0  0  0  0  0  0  0  0
  -41.3365   11.2565    3.2885 H   0  0  0  0  0  0  0  0  0  0  0  0
  -36.5564   14.0387    1.1630 H   0  0  0  0  0  0  0  0  0  0  0  0
  -34.5309    9.2115    0.8493 H   0  0  0  0  0  0  0  0  0  0  0  0
  -35.7927    9.1250   -0.4263 H   0  0  0  0  0  0  0  0  0  0  0  0
  -34.6066   10.4740   -0.4263 H   0  0  0  0  0  0  0  0  0  0  0  0
  -43.3176    9.7941    0.0371 H   0  0  0  0  0  0  0  0  0  0  0  0
  -42.3810    8.5320   -1.8829 H   0  0  0  0  0  0  0  0  0  0  0  0
  -39.9271    8.2822   -2.1158 H   0  0  0  0  0  0  0  0  0  0  0  0
  -38.4337    9.0613   -0.2898 H   0  0  0  0  0  0  0  0  0  0  0  0
  -36.0655   10.4802    2.0654 H   0  0  0  0  0  0  0  0  0  0  0  0
  -38.8803    9.8173    2.6688 H   0  0  0  0  0  0  0  0  0  0  0  0
  -41.8420   10.5908    1.8586 H   0  0  0  0  0  0  0  0  0  0  0  0
  -43.7951   13.3521    4.4399 H   0  0  0  0  0  0  0  0  0  0  0  0
  -42.1597   10.9875    5.3088 H   0  0  0  0  0  0  0  0  0  0  0  0
  -43.0755   11.9610    6.5425 H   0  0  0  0  0  0  0  0  0  0  0  0
  -44.1118    9.7937    5.5968 H   0  0  0  0  0  0  0  0  0  0  0  0
  -44.4552   10.8785    4.1442 H   0  0  0  0  0  0  0  0  0  0  0  0
  -46.8097   10.5959    4.0873 H   0  0  0  0  0  0  0  0  0  0  0  0
  -47.5167   11.3915    2.6403 H   0  0  0  0  0  0  0  0  0  0  0  0
  -45.7893   10.8988    2.6403 H   0  0  0  0  0  0  0  0  0  0  0  0
  1  2  1  0
  1 28  1  0
  2  3  1  0
  3 27  1  0
  4  5  2  0
  4 24  1  0
  5  6  1  0
  6  7  2  0
  6 20  1  0
  7  8  1  0
  7  9  1  0
  8 24  2  0
  9 10  2  0
  9 21  1  0
 10 11  1  0
 10 12  1  0
 11 20  2  0
 12 18  2  0
 12 19  1  0
 13 19  1  0
 14 15  2  0
 14 23  1  0
 15 16  1  0
 16 17  2  0
 17 22  1  0
 21 22  1  0
 22 23  2  0
 24 25  1  0
 25 26  1  0
 26 27  1  0
  1 29  1  0
  1 30  1  0
  2 31  1  0
  2 32  1  0
  3 33  1  0
  3 34  1  0
  4 35  1  0
  5 36  1  0
  8 37  1  0
 11 38  1  0
 13 39  1  0
 13 40  1  0
 13 41  1  0
 14 42  1  0
 15 43  1  0
 16 44  1  0
 17 45  1  0
 19 46  1  0
 21 47  1  0
 23 48  1  0
 25 49  1  0
 26 50  1  0
 26 51  1  0
 27 52  1  0
 27 53  1  0
 28 54  1  0
 28 55  1  0
 28 56  1  0
M  END
>  <filename_input>  (18) 
7N03_ZRP_docked.sdf

>  <pdb_id>  (18) 
7N03_ZRP

>  <pose_rank>  (18) 
17

>  <num_atoms_heavy>  (18) 
28

>  <num_torsions>  (18) 
9

>  <pose>  (18) 
[-41.26760771623876, 14.49869840486421, 4.29064278413976, 1.781054224967572, -2.141065669249305, 2.6756229658731985, 1.6966735154481707, 8.702750316111402, 2.1228232618813694, -4.8232578140273015, -4.128706336716533, 1.8496029460796666, -2.7772197630986155, 2.5063992824919796, -3.0720230614896744]

>  <energy>  (18) 
-487.1483988930687

>  <inter_energy>  (18) 
-526.0638352587112

>  <intra_energy>  (18) 
47.019690779731704

>  <rmsd>  (18) 
8.28061

>  <sdf_rank>  (18) 
0

$$$$

     RDKit          3D

 56 58  0  0  0  0  0  0  0  0999 V2000
  -42.3878    3.8918   -2.0091 C   0  0  0  0  0  0  0  0  0  0  0  0
  -41.8431    5.0621   -2.8233 C   0  0  0  0  0  0  0  0  0  0  0  0
  -40.6268    5.7057   -2.1759 C   0  0  0  0  0  0  0  0  0  0  0  0
  -39.4459   10.2009   -0.0749 C   0  0  0  0  0  0  0  0  0  0  0  0
  -39.1590   11.4525    0.3858 C   0  0  0  0  0  0  0  0  0  0  0  0
  -39.9018   12.0120    1.4534 C   0  0  0  0  0  0  0  0  0  0  0  0
  -40.9377   11.2484    2.0413 C   0  0  0  0  0  0  0  0  0  0  0  0
  -41.1835    9.9404    1.5552 C   0  0  0  0  0  0  0  0  0  0  0  0
  -41.6624   11.8418    3.1082 C   0  0  0  0  0  0  0  0  0  0  0  0
  -41.2634   13.0905    3.6116 C   0  0  0  0  0  0  0  0  0  0  0  0
  -40.2292   13.7483    2.9268 C   0  0  0  0  0  0  0  0  0  0  0  0
  -41.9173   13.7089    4.8001 C   0  0  0  0  0  0  0  0  0  0  0  0
  -43.8339   14.8010    5.8146 C   0  0  0  0  0  0  0  0  0  0  0  0
  -46.2821   10.2500    3.3454 C   0  0  0  0  0  0  0  0  0  0  0  0
  -46.5900   10.6508    2.0533 C   0  0  0  0  0  0  0  0  0  0  0  0
  -45.6358   11.2660    1.2815 C   0  0  0  0  0  0  0  0  0  0  0  0
  -44.3504   11.4163    1.7741 C   0  0  0  0  0  0  0  0  0  0  0  0
  -41.3036   13.9133    5.8621 O   0  0  0  0  0  0  0  0  0  0  0  0
  -43.1822   14.1140    4.7094 N   0  0  0  0  0  0  0  0  0  0  0  0
  -39.5843   13.2607    1.8909 N   0  0  0  0  0  0  0  0  0  0  0  0
  -42.7475   11.1894    3.6797 N   0  0  0  0  0  0  0  0  0  0  0  0
  -44.0320   10.9819    3.0499 C   0  0  0  0  0  0  0  0  0  0  0  0
  -45.0093   10.3986    3.8469 C   0  0  0  0  0  0  0  0  0  0  0  0
  -40.4409    9.4219    0.5104 C   0  0  0  0  0  0  0  0  0  0  0  0
  -40.6645    8.1254    0.0948 N   0  0  0  0  0  0  0  0  0  0  0  0
  -41.4623    7.8683   -1.0961 C   0  0  0  0  0  0  0  0  0  0  0  0
  -40.6620    7.2140   -2.1968 C   0  0  0  0  0  0  0  0  0  0  0  0
  -43.7512    3.4041   -2.4386 C   0  0  0  0  0  0  0  0  0  0  0  0
  -41.6806    3.0540   -2.0981 H   0  0  0  0  0  0  0  0  0  0  0  0
  -42.4992    4.2565   -0.9773 H   0  0  0  0  0  0  0  0  0  0  0  0
  -41.5594    4.6960   -3.8210 H   0  0  0  0  0  0  0  0  0  0  0  0
  -42.6334    5.8250   -2.8821 H   0  0  0  0  0  0  0  0  0  0  0  0
  -40.5726    5.3731   -1.1288 H   0  0  0  0  0  0  0  0  0  0  0  0
  -39.7471    5.3943   -2.7583 H   0  0  0  0  0  0  0  0  0  0  0  0
  -38.8790    9.7982   -0.9272 H   0  0  0  0  0  0  0  0  0  0  0  0
  -38.3449   12.0310   -0.0753 H   0  0  0  0  0  0  0  0  0  0  0  0
  -41.9749    9.3299    2.0147 H   0  0  0  0  0  0  0  0  0  0  0  0
  -39.9368   14.7467    3.2842 H   0  0  0  0  0  0  0  0  0  0  0  0
  -43.4561   14.4027    6.7679 H   0  0  0  0  0  0  0  0  0  0  0  0
  -43.6176   15.8779    5.7557 H   0  0  0  0  0  0  0  0  0  0  0  0
  -44.9207   14.6416    5.7557 H   0  0  0  0  0  0  0  0  0  0  0  0
  -47.0660    9.8074    3.9775 H   0  0  0  0  0  0  0  0  0  0  0  0
  -47.5975   10.4760    1.6479 H   0  0  0  0  0  0  0  0  0  0  0  0
  -45.8907   11.6372    0.2779 H   0  0  0  0  0  0  0  0  0  0  0  0
  -43.5767   11.8841    1.1475 H   0  0  0  0  0  0  0  0  0  0  0  0
  -43.7088   13.9381    3.8419 H   0  0  0  0  0  0  0  0  0  0  0  0
  -42.6263   10.8218    4.6343 H   0  0  0  0  0  0  0  0  0  0  0  0
  -44.7688   10.0600    4.8655 H   0  0  0  0  0  0  0  0  0  0  0  0
  -40.2667    7.3386    0.6273 H   0  0  0  0  0  0  0  0  0  0  0  0
  -42.2974    7.2057   -0.8252 H   0  0  0  0  0  0  0  0  0  0  0  0
  -41.8215    8.8370   -1.4739 H   0  0  0  0  0  0  0  0  0  0  0  0
  -39.6262    7.5768   -2.1222 H   0  0  0  0  0  0  0  0  0  0  0  0
  -41.1658    7.4880   -3.1355 H   0  0  0  0  0  0  0  0  0  0  0  0
  -44.3599    3.1864   -1.5486 H   0  0  0  0  0  0  0  0  0  0  0  0
  -44.2459    4.1811   -3.0400 H   0  0  0  0  0  0  0  0  0  0  0  0
  -43.6409    2.4897   -3.0400 H   0  0  0  0  0  0  0  0  0  0  0  0
  1  2  1  0
  1 28  1  0
  2  3  1  0
  3 27  1  0
  4  5  2  0
  4 24  1  0
  5  6  1  0
  6  7  2  0
  6 20  1  0
  7  8  1  0
  7  9  1  0
  8 24  2  0
  9 10  2  0
  9 21  1  0
 10 11  1  0
 10 12  1  0
 11 20  2  0
 12 18  2  0
 12 19  1  0
 13 19  1  0
 14 15  2  0
 14 23  1  0
 15 16  1  0
 16 17  2  0
 17 22  1  0
 21 22  1  0
 22 23  2  0
 24 25  1  0
 25 26  1  0
 26 27  1  0
  1 29  1  0
  1 30  1  0
  2 31  1  0
  2 32  1  0
  3 33  1  0
  3 34  1  0
  4 35  1  0
  5 36  1  0
  8 37  1  0
 11 38  1  0
 13 39  1  0
 13 40  1  0
 13 41  1  0
 14 42  1  0
 15 43  1  0
 16 44  1  0
 17 45  1  0
 19 46  1  0
 21 47  1  0
 23 48  1  0
 25 49  1  0
 26 50  1  0
 26 51  1  0
 27 52  1  0
 27 53  1  0
 28 54  1  0
 28 55  1  0
 28 56  1  0
M  END
>  <filename_input>  (19) 
7N03_ZRP_docked.sdf

>  <pdb_id>  (19) 
7N03_ZRP

>  <pose_rank>  (19) 
18

>  <num_atoms_heavy>  (19) 
28

>  <num_torsions>  (19) 
9

>  <pose>  (19) 
[-39.44589507694909, 10.200902158594827, -0.07485271781174822, -0.6709793685889568, 2.4944414329864792, 2.657330730585975, 1.8736353779315928, 5.869768080367336, 0.3938143529387814, -4.007688938272602, 0.3572875357251148, -1.4832994374472783, 3.795254589258935, 5.413642111103051, -0.6373938746053008]

>  <energy>  (19) 
-571.9054925385568

>  <inter_energy>  (19) 
-570.558115532839

>  <intra_energy>  (19) 
18.805957913017473

>  <rmsd>  (19) 
5.93957

>  <sdf_rank>  (19) 
0

$$$$

     RDKit          3D

 56 58  0  0  0  0  0  0  0  0999 V2000
  -45.5750   13.8073    6.2837 C   0  0  0  0  0  0  0  0  0  0  0  0
  -46.4571   13.4754    5.0833 C   0  0  0  0  0  0  0  0  0  0  0  0
  -46.1392   12.1133    4.4861 C   0  0  0  0  0  0  0  0  0  0  0  0
  -42.5367   13.0312    4.9092 C   0  0  0  0  0  0  0  0  0  0  0  0
  -41.5081   13.9266    4.9453 C   0  0  0  0  0  0  0  0  0  0  0  0
  -40.4177   13.8031    4.0508 C   0  0  0  0  0  0  0  0  0  0  0  0
  -40.4176   12.7440    3.1127 C   0  0  0  0  0  0  0  0  0  0  0  0
  -41.5196   11.8539    3.0861 C   0  0  0  0  0  0  0  0  0  0  0  0
  -39.3074   12.6503    2.2327 C   0  0  0  0  0  0  0  0  0  0  0  0
  -38.3246   13.6533    2.2419 C   0  0  0  0  0  0  0  0  0  0  0  0
  -38.4367   14.6407    3.2338 C   0  0  0  0  0  0  0  0  0  0  0  0
  -37.1976   13.6642    1.2661 C   0  0  0  0  0  0  0  0  0  0  0  0
  -34.8145   13.5988    0.8057 C   0  0  0  0  0  0  0  0  0  0  0  0
  -35.9791    9.8333    1.5929 C   0  0  0  0  0  0  0  0  0  0  0  0
  -35.6204    9.6490    0.2654 C   0  0  0  0  0  0  0  0  0  0  0  0
  -36.4550   10.0804   -0.7357 C   0  0  0  0  0  0  0  0  0  0  0  0
  -37.6160   10.7620   -0.4117 C   0  0  0  0  0  0  0  0  0  0  0  0
  -37.3742   13.8713    0.0528 O   0  0  0  0  0  0  0  0  0  0  0  0
  -35.9519   13.5085    1.7092 N   0  0  0  0  0  0  0  0  0  0  0  0
  -39.4119   14.7176    4.1113 N   0  0  0  0  0  0  0  0  0  0  0  0
  -39.1942   11.5905    1.3419 N   0  0  0  0  0  0  0  0  0  0  0  0
  -37.9560   10.9801    0.9129 C   0  0  0  0  0  0  0  0  0  0  0  0
  -37.1327   10.5051    1.9264 C   0  0  0  0  0  0  0  0  0  0  0  0
  -42.5700   12.0004    3.9734 C   0  0  0  0  0  0  0  0  0  0  0  0
  -43.6558   11.1535    3.8878 N   0  0  0  0  0  0  0  0  0  0  0  0
  -44.2077   10.5509    5.0933 C   0  0  0  0  0  0  0  0  0  0  0  0
  -45.5407   11.1467    5.4781 C   0  0  0  0  0  0  0  0  0  0  0  0
  -45.7986   15.1808    6.8709 C   0  0  0  0  0  0  0  0  0  0  0  0
  -45.7712   13.0628    7.0693 H   0  0  0  0  0  0  0  0  0  0  0  0
  -44.5369   13.7901    5.9204 H   0  0  0  0  0  0  0  0  0  0  0  0
  -47.5088   13.4825    5.4057 H   0  0  0  0  0  0  0  0  0  0  0  0
  -46.2665   14.2328    4.3087 H   0  0  0  0  0  0  0  0  0  0  0  0
  -47.0709   11.6786    4.0948 H   0  0  0  0  0  0  0  0  0  0  0  0
  -45.3899   12.2728    3.6968 H   0  0  0  0  0  0  0  0  0  0  0  0
  -43.3578   13.1255    5.6352 H   0  0  0  0  0  0  0  0  0  0  0  0
  -41.5261   14.7502    5.6743 H   0  0  0  0  0  0  0  0  0  0  0  0
  -41.5399   11.0363    2.3505 H   0  0  0  0  0  0  0  0  0  0  0  0
  -37.6492   15.4073    3.2799 H   0  0  0  0  0  0  0  0  0  0  0  0
  -33.8862   13.6725    1.3911 H   0  0  0  0  0  0  0  0  0  0  0  0
  -34.7777   12.7007    0.1715 H   0  0  0  0  0  0  0  0  0  0  0  0
  -34.9200   14.4914    0.1715 H   0  0  0  0  0  0  0  0  0  0  0  0
  -35.3325    9.4369    2.3896 H   0  0  0  0  0  0  0  0  0  0  0  0
  -34.6685    9.1578    0.0153 H   0  0  0  0  0  0  0  0  0  0  0  0
  -36.2030    9.8858   -1.7886 H   0  0  0  0  0  0  0  0  0  0  0  0
  -38.2729   11.1329   -1.2123 H   0  0  0  0  0  0  0  0  0  0  0  0
  -35.7903   13.3208    2.7090 H   0  0  0  0  0  0  0  0  0  0  0  0
  -40.0676   11.2065    0.9536 H   0  0  0  0  0  0  0  0  0  0  0  0
  -37.3997   10.6641    2.9816 H   0  0  0  0  0  0  0  0  0  0  0  0
  -44.0764   10.9472    2.9705 H   0  0  0  0  0  0  0  0  0  0  0  0
  -44.3398    9.4726    4.9202 H   0  0  0  0  0  0  0  0  0  0  0  0
  -43.5043   10.7445    5.9165 H   0  0  0  0  0  0  0  0  0  0  0  0
  -45.4095   11.6796    6.4314 H   0  0  0  0  0  0  0  0  0  0  0  0
  -46.2418   10.3007    5.5309 H   0  0  0  0  0  0  0  0  0  0  0  0
  -45.7881   15.1162    7.9690 H   0  0  0  0  0  0  0  0  0  0  0  0
  -44.9988   15.8575    6.5358 H   0  0  0  0  0  0  0  0  0  0  0  0
  -46.7717   15.5689    6.5358 H   0  0  0  0  0  0  0  0  0  0  0  0
  1  2  1  0
  1 28  1  0
  2  3  1  0
  3 27  1  0
  4  5  2  0
  4 24  1  0
  5  6  1  0
  6  7  2  0
  6 20  1  0
  7  8  1  0
  7  9  1  0
  8 24  2  0
  9 10  2  0
  9 21  1  0
 10 11  1  0
 10 12  1  0
 11 20  2  0
 12 18  2  0
 12 19  1  0
 13 19  1  0
 14 15  2  0
 14 23  1  0
 15 16  1  0
 16 17  2  0
 17 22  1  0
 21 22  1  0
 22 23  2  0
 24 25  1  0
 25 26  1  0
 26 27  1  0
  1 29  1  0
  1 30  1  0
  2 31  1  0
  2 32  1  0
  3 33  1  0
  3 34  1  0
  4 35  1  0
  5 36  1  0
  8 37  1  0
 11 38  1  0
 13 39  1  0
 13 40  1  0
 13 41  1  0
 14 42  1  0
 15 43  1  0
 16 44  1  0
 17 45  1  0
 19 46  1  0
 21 47  1  0
 23 48  1  0
 25 49  1  0
 26 50  1  0
 26 51  1  0
 27 52  1  0
 27 53  1  0
 28 54  1  0
 28 55  1  0
 28 56  1  0
M  END
>  <filename_input>  (20) 
7N03_ZRP_docked.sdf

>  <pdb_id>  (20) 
7N03_ZRP

>  <pose_rank>  (20) 
19

>  <num_atoms_heavy>  (20) 
28

>  <num_torsions>  (20) 
9

>  <pose>  (20) 
[-42.53673104731126, 13.031208037868943, 4.909239973212037, -0.7299907079386049, 1.3787187060914095, -1.0446668781383177, 1.0423162129900894, -1.7406916649611979, -1.8630566760775484, 2.862059055789132, 0.21682020033257174, -2.9122524391209943, 0.18211019634765652, 1.9691503055218138, -0.4750072893783155]

>  <energy>  (20) 
-424.75177982611575

>  <inter_energy>  (20) 
-507.98870568842244

>  <intra_energy>  (20) 
84.67052451310734

>  <rmsd>  (20) 
7.95218

>  <sdf_rank>  (20) 
0

$$$$

     RDKit          3D

 56 58  0  0  0  0  0  0  0  0999 V2000
  -48.1279   10.8102    2.7378 C   0  0  0  0  0  0  0  0  0  0  0  0
  -47.6101   10.1729    1.4514 C   0  0  0  0  0  0  0  0  0  0  0  0
  -46.2642    9.4904    1.6404 C   0  0  0  0  0  0  0  0  0  0  0  0
  -41.2472   10.8456   -0.8464 C   0  0  0  0  0  0  0  0  0  0  0  0
  -40.3056   11.7285   -0.4052 C   0  0  0  0  0  0  0  0  0  0  0  0
  -40.2648   12.1131    0.9567 C   0  0  0  0  0  0  0  0  0  0  0  0
  -41.2083   11.5588    1.8536 C   0  0  0  0  0  0  0  0  0  0  0  0
  -42.1499   10.6210    1.3625 C   0  0  0  0  0  0  0  0  0  0  0  0
  -41.1386   11.9685    3.2112 C   0  0  0  0  0  0  0  0  0  0  0  0
  -40.0897   12.8006    3.6348 C   0  0  0  0  0  0  0  0  0  0  0  0
  -39.2298   13.2920    2.6396 C   0  0  0  0  0  0  0  0  0  0  0  0
  -39.9044   13.1715    5.0668 C   0  0  0  0  0  0  0  0  0  0  0  0
  -39.8227   12.5377    7.4092 C   0  0  0  0  0  0  0  0  0  0  0  0
  -45.0992   12.3656    6.0552 C   0  0  0  0  0  0  0  0  0  0  0  0
  -45.4652   13.6012    5.5411 C   0  0  0  0  0  0  0  0  0  0  0  0
  -44.6988   14.1918    4.5671 C   0  0  0  0  0  0  0  0  0  0  0  0
  -43.6053   13.5152    4.0534 C   0  0  0  0  0  0  0  0  0  0  0  0
  -39.7984   14.3541    5.4361 O   0  0  0  0  0  0  0  0  0  0  0  0
  -39.9128   12.2152    5.9929 N   0  0  0  0  0  0  0  0  0  0  0  0
  -39.3083   12.9916    1.3628 N   0  0  0  0  0  0  0  0  0  0  0  0
  -42.0818   11.5341    4.1339 N   0  0  0  0  0  0  0  0  0  0  0  0
  -43.2614   12.2648    4.5393 C   0  0  0  0  0  0  0  0  0  0  0  0
  -44.0119   11.6863    5.5555 C   0  0  0  0  0  0  0  0  0  0  0  0
  -42.1647   10.2658    0.0262 C   0  0  0  0  0  0  0  0  0  0  0  0
  -43.0559    9.3085   -0.4132 N   0  0  0  0  0  0  0  0  0  0  0  0
  -44.0885    8.8069    0.4829 C   0  0  0  0  0  0  0  0  0  0  0  0
  -45.3326    9.6625    0.4660 C   0  0  0  0  0  0  0  0  0  0  0  0
  -47.3315   12.0005    3.2178 C   0  0  0  0  0  0  0  0  0  0  0  0
  -49.1635   11.1381    2.5649 H   0  0  0  0  0  0  0  0  0  0  0  0
  -48.0418   10.0427    3.5211 H   0  0  0  0  0  0  0  0  0  0  0  0
  -48.3403    9.4245    1.1097 H   0  0  0  0  0  0  0  0  0  0  0  0
  -47.4769   10.9754    0.7109 H   0  0  0  0  0  0  0  0  0  0  0  0
  -45.7812    9.9142    2.5332 H   0  0  0  0  0  0  0  0  0  0  0  0
  -46.4593    8.4128    1.7438 H   0  0  0  0  0  0  0  0  0  0  0  0
  -41.2826   10.5859   -1.9148 H   0  0  0  0  0  0  0  0  0  0  0  0
  -39.5729   12.1445   -1.1124 H   0  0  0  0  0  0  0  0  0  0  0  0
  -42.8780   10.1699    2.0526 H   0  0  0  0  0  0  0  0  0  0  0  0
  -38.4305   13.9801    2.9522 H   0  0  0  0  0  0  0  0  0  0  0  0
  -40.0716   11.6469    8.0047 H   0  0  0  0  0  0  0  0  0  0  0  0
  -38.7992   12.8634    7.6467 H   0  0  0  0  0  0  0  0  0  0  0  0
  -40.5293   13.3467    7.6467 H   0  0  0  0  0  0  0  0  0  0  0  0
  -45.6863   11.9230    6.8734 H   0  0  0  0  0  0  0  0  0  0  0  0
  -46.3682   14.1070    5.9135 H   0  0  0  0  0  0  0  0  0  0  0  0
  -44.9519   15.1963    4.1971 H   0  0  0  0  0  0  0  0  0  0  0  0
  -43.0056   13.9742    3.2537 H   0  0  0  0  0  0  0  0  0  0  0  0
  -39.9843   11.2298    5.7019 H   0  0  0  0  0  0  0  0  0  0  0  0
  -41.9274   10.6121    4.5664 H   0  0  0  0  0  0  0  0  0  0  0  0
  -43.7404   10.6981    5.9553 H   0  0  0  0  0  0  0  0  0  0  0  0
  -42.9907    8.9483   -1.3760 H   0  0  0  0  0  0  0  0  0  0  0  0
  -44.3579    7.7860    0.1746 H   0  0  0  0  0  0  0  0  0  0  0  0
  -43.6828    8.8263    1.5052 H   0  0  0  0  0  0  0  0  0  0  0  0
  -45.8947    9.4226   -0.4486 H   0  0  0  0  0  0  0  0  0  0  0  0
  -44.9799   10.7033    0.5147 H   0  0  0  0  0  0  0  0  0  0  0  0
  -47.3214   12.0155    4.3176 H   0  0  0  0  0  0  0  0  0  0  0  0
  -46.3001   11.9270    2.8426 H   0  0  0  0  0  0  0  0  0  0  0  0
  -47.7930   12.9258    2.8426 H   0  0  0  0  0  0  0  0  0  0  0  0
  1  2  1  0
  1 28  1  0
  2  3  1  0
  3 27  1  0
  4  5  2  0
  4 24  1  0
  5  6  1  0
  6  7  2  0
  6 20  1  0
  7  8  1  0
  7  9  1  0
  8 24  2  0
  9 10  2  0
  9 21  1  0
 10 11  1  0
 10 12  1  0
 11 20  2  0
 12 18  2  0
 12 19  1  0
 13 19  1  0
 14 15  2  0
 14 23  1  0
 15 16  1  0
 16 17  2  0
 17 22  1  0
 21 22  1  0
 22 23  2  0
 24 25  1  0
 25 26  1  0
 26 27  1  0
  1 29  1  0
  1 30  1  0
  2 31  1  0
  2 32  1  0
  3 33  1  0
  3 34  1  0
  4 35  1  0
  5 36  1  0
  8 37  1  0
 11 38  1  0
 13 39  1  0
 13 40  1  0
 13 41  1  0
 14 42  1  0
 15 43  1  0
 16 44  1  0
 17 45  1  0
 19 46  1  0
 21 47  1  0
 23 48  1  0
 25 49  1  0
 26 50  1  0
 26 51  1  0
 27 52  1  0
 27 53  1  0
 28 54  1  0
 28 55  1  0
 28 56  1  0
M  END
>  <filename_input>  (21) 
7N03_ZRP_docked.sdf

>  <pdb_id>  (21) 
7N03_ZRP

>  <pose_rank>  (21) 
20

>  <num_atoms_heavy>  (21) 
28

>  <num_torsions>  (21) 
9

>  <pose>  (21) 
[-41.24722736216266, 10.845555765779638, -0.8464271734782128, 0.319249019829089, 1.8789810510638125, 3.128017679191127, -2.365407197582949, -0.8605721149014575, 0.39155026769472967, 6.93826323162488, -0.1559698185151407, 0.42476823235225036, -0.6043288452418858, -0.9638020878140308, 3.9098954067230585]

>  <energy>  (21) 
-446.6893837235861

>  <inter_energy>  (21) 
-471.50848402510894

>  <intra_energy>  (21) 
27.175589791491465

>  <rmsd>  (21) 
6.03859

>  <sdf_rank>  (21) 
0

$$$$

     RDKit          3D

 56 58  0  0  0  0  0  0  0  0999 V2000
  -38.9702   21.3093    5.8216 C   0  0  0  0  0  0  0  0  0  0  0  0
  -38.8754   19.9068    6.4157 C   0  0  0  0  0  0  0  0  0  0  0  0
  -39.1681   18.8201    5.3929 C   0  0  0  0  0  0  0  0  0  0  0  0
  -40.1176   15.1012    2.6248 C   0  0  0  0  0  0  0  0  0  0  0  0
  -40.6610   14.5629    1.4952 C   0  0  0  0  0  0  0  0  0  0  0  0
  -41.7432   13.6543    1.5822 C   0  0  0  0  0  0  0  0  0  0  0  0
  -42.2587   13.3229    2.8575 C   0  0  0  0  0  0  0  0  0  0  0  0
  -41.6876   13.9279    4.0043 C   0  0  0  0  0  0  0  0  0  0  0  0
  -43.3429   12.4077    2.9066 C   0  0  0  0  0  0  0  0  0  0  0  0
  -43.9314   11.9601    1.7127 C   0  0  0  0  0  0  0  0  0  0  0  0
  -43.3126   12.3535    0.5153 C   0  0  0  0  0  0  0  0  0  0  0  0
  -45.1400   11.0874    1.7062 C   0  0  0  0  0  0  0  0  0  0  0  0
  -47.4173   10.6444    2.4224 C   0  0  0  0  0  0  0  0  0  0  0  0
  -46.1866   14.4139    5.5517 C   0  0  0  0  0  0  0  0  0  0  0  0
  -47.2897   13.6373    5.8758 C   0  0  0  0  0  0  0  0  0  0  0  0
  -47.2857   12.2926    5.5991 C   0  0  0  0  0  0  0  0  0  0  0  0
  -46.1502   11.7081    5.0639 C   0  0  0  0  0  0  0  0  0  0  0  0
  -45.1383    9.9576    1.1866 O   0  0  0  0  0  0  0  0  0  0  0  0
  -46.2428   11.4987    2.3281 N   0  0  0  0  0  0  0  0  0  0  0  0
  -42.2640   13.1414    0.4345 N   0  0  0  0  0  0  0  0  0  0  0  0
  -43.8478   11.9687    4.1240 N   0  0  0  0  0  0  0  0  0  0  0  0
  -45.0344   12.4760    4.7753 C   0  0  0  0  0  0  0  0  0  0  0  0
  -45.0546   13.8444    5.0153 C   0  0  0  0  0  0  0  0  0  0  0  0
  -40.6305   14.8114    3.8868 C   0  0  0  0  0  0  0  0  0  0  0  0
  -40.1308   15.4282    5.0153 N   0  0  0  0  0  0  0  0  0  0  0  0
  -38.9802   16.3150    4.9131 C   0  0  0  0  0  0  0  0  0  0  0  0
  -39.0120   17.4223    5.9392 C   0  0  0  0  0  0  0  0  0  0  0  0
  -37.6921   21.8188    5.1986 C   0  0  0  0  0  0  0  0  0  0  0  0
  -39.7498   21.3007    5.0456 H   0  0  0  0  0  0  0  0  0  0  0  0
  -39.1993   21.9861    6.6579 H   0  0  0  0  0  0  0  0  0  0  0  0
  -37.8584   19.7577    6.8076 H   0  0  0  0  0  0  0  0  0  0  0  0
  -39.6308   19.8291    7.2115 H   0  0  0  0  0  0  0  0  0  0  0  0
  -40.2030   18.9428    5.0408 H   0  0  0  0  0  0  0  0  0  0  0  0
  -38.4352   18.9340    4.5806 H   0  0  0  0  0  0  0  0  0  0  0  0
  -39.2556   15.7789    2.5370 H   0  0  0  0  0  0  0  0  0  0  0  0
  -40.2554   14.8367    0.5100 H   0  0  0  0  0  0  0  0  0  0  0  0
  -42.0900   13.6917    5.0004 H   0  0  0  0  0  0  0  0  0  0  0  0
  -43.7375   11.9739   -0.4256 H   0  0  0  0  0  0  0  0  0  0  0  0
  -47.6589   10.4687    3.4810 H   0  0  0  0  0  0  0  0  0  0  0  0
  -48.2687   11.1358    1.9287 H   0  0  0  0  0  0  0  0  0  0  0  0
  -47.2121    9.6831    1.9287 H   0  0  0  0  0  0  0  0  0  0  0  0
  -46.2174   15.4995    5.7258 H   0  0  0  0  0  0  0  0  0  0  0  0
  -48.1665   14.0985    6.3540 H   0  0  0  0  0  0  0  0  0  0  0  0
  -48.1789   11.6833    5.8012 H   0  0  0  0  0  0  0  0  0  0  0  0
  -46.1343   10.6260    4.8666 H   0  0  0  0  0  0  0  0  0  0  0  0
  -46.2652   12.4380    2.7501 H   0  0  0  0  0  0  0  0  0  0  0  0
  -43.3322   11.2171    4.6039 H   0  0  0  0  0  0  0  0  0  0  0  0
  -44.1771   14.4645    4.7795 H   0  0  0  0  0  0  0  0  0  0  0  0
  -40.5720   15.2613    5.9309 H   0  0  0  0  0  0  0  0  0  0  0  0
  -38.0645   15.7235    5.0603 H   0  0  0  0  0  0  0  0  0  0  0  0
  -39.0042   16.7810    3.9169 H   0  0  0  0  0  0  0  0  0  0  0  0
  -38.0697   17.3847    6.5055 H   0  0  0  0  0  0  0  0  0  0  0  0
  -39.9086   17.2383    6.5494 H   0  0  0  0  0  0  0  0  0  0  0  0
  -36.9844   22.1009    5.9921 H   0  0  0  0  0  0  0  0  0  0  0  0
  -37.2479   21.0290    4.5749 H   0  0  0  0  0  0  0  0  0  0  0  0
  -37.9131   22.6976    4.5749 H   0  0  0  0  0  0  0  0  0  0  0  0
  1  2  1  0
  1 28  1  0
  2  3  1  0
  3 27  1  0
  4  5  2  0
  4 24  1  0
  5  6  1  0
  6  7  2  0
  6 20  1  0
  7  8  1  0
  7  9  1  0
  8 24  2  0
  9 10  2  0
  9 21  1  0
 10 11  1  0
 10 12  1  0
 11 20  2  0
 12 18  2  0
 12 19  1  0
 13 19  1  0
 14 15  2  0
 14 23  1  0
 15 16  1  0
 16 17  2  0
 17 22  1  0
 21 22  1  0
 22 23  2  0
 24 25  1  0
 25 26  1  0
 26 27  1  0
  1 29  1  0
  1 30  1  0
  2 31  1  0
  2 32  1  0
  3 33  1  0
  3 34  1  0
  4 35  1  0
  5 36  1  0
  8 37  1  0
 11 38  1  0
 13 39  1  0
 13 40  1  0
 13 41  1  0
 14 42  1  0
 15 43  1  0
 16 44  1  0
 17 45  1  0
 19 46  1  0
 21 47  1  0
 23 48  1  0
 25 49  1  0
 26 50  1  0
 26 51  1  0
 27 52  1  0
 27 53  1  0
 28 54  1  0
 28 55  1  0
 28 56  1  0
M  END
>  <filename_input>  (22) 
7N03_ZRP_docked.sdf

>  <pdb_id>  (22) 
7N03_ZRP

>  <pose_rank>  (22) 
21

>  <num_atoms_heavy>  (22) 
28

>  <num_torsions>  (22) 
9

>  <pose>  (22) 
[-40.11760783941672, 15.101178483274255, 2.624829089008261, 1.2508872753125666, -1.4882621466033834, 1.0075706368875397, -2.2436751450468515, 2.5603537596780512, -3.814925162644605, 3.607903637417539, 0.9325243145114388, -5.03072937867205, -0.5588982613750616, 4.600526342241645, 1.1898035324391227]

>  <energy>  (22) 
-479.7191475071753

>  <inter_energy>  (22) 
-539.5182425379614

>  <intra_energy>  (22) 
84.10659662718273

>  <rmsd>  (22) 
7.02388

>  <sdf_rank>  (22) 
0

$$$$

     RDKit          3D

 56 58  0  0  0  0  0  0  0  0999 V2000
  -46.9935   10.0161    3.0022 C   0  0  0  0  0  0  0  0  0  0  0  0
  -47.2759   11.1360    3.9998 C   0  0  0  0  0  0  0  0  0  0  0  0
  -46.0339   11.5561    4.7705 C   0  0  0  0  0  0  0  0  0  0  0  0
  -40.2736   11.1234    4.6688 C   0  0  0  0  0  0  0  0  0  0  0  0
  -39.1457   11.4225    3.9621 C   0  0  0  0  0  0  0  0  0  0  0  0
  -39.1240   11.2844    2.5532 C   0  0  0  0  0  0  0  0  0  0  0  0
  -40.2931   10.8426    1.8901 C   0  0  0  0  0  0  0  0  0  0  0  0
  -41.4537   10.5727    2.6567 C   0  0  0  0  0  0  0  0  0  0  0  0
  -40.2344   10.7144    0.4774 C   0  0  0  0  0  0  0  0  0  0  0  0
  -39.0842   11.1301   -0.2126 C   0  0  0  0  0  0  0  0  0  0  0  0
  -37.9893   11.5348    0.5676 C   0  0  0  0  0  0  0  0  0  0  0  0
  -39.0096   11.1216   -1.7016 C   0  0  0  0  0  0  0  0  0  0  0  0
  -39.1554    9.9214   -3.8072 C   0  0  0  0  0  0  0  0  0  0  0  0
  -44.9167    9.5821    0.0982 C   0  0  0  0  0  0  0  0  0  0  0  0
  -45.3872   10.7629    0.6543 C   0  0  0  0  0  0  0  0  0  0  0  0
  -44.5102   11.7757    0.9541 C   0  0  0  0  0  0  0  0  0  0  0  0
  -43.1707   11.6382    0.6314 C   0  0  0  0  0  0  0  0  0  0  0  0
  -38.6306   12.1118   -2.3513 O   0  0  0  0  0  0  0  0  0  0  0  0
  -39.2982   10.0018   -2.3610 N   0  0  0  0  0  0  0  0  0  0  0  0
  -37.9836   11.5972    1.8801 N   0  0  0  0  0  0  0  0  0  0  0  0
  -41.3130   10.2064   -0.2355 N   0  0  0  0  0  0  0  0  0  0  0  0
  -42.7063   10.4746    0.0412 C   0  0  0  0  0  0  0  0  0  0  0  0
  -43.5869    9.4326   -0.2223 C   0  0  0  0  0  0  0  0  0  0  0  0
  -41.4433   10.7166    4.0319 C   0  0  0  0  0  0  0  0  0  0  0  0
  -42.6034   10.5010    4.7471 N   0  0  0  0  0  0  0  0  0  0  0  0
  -43.8777   10.3833    4.0520 C   0  0  0  0  0  0  0  0  0  0  0  0
  -45.0560   10.4292    4.9953 C   0  0  0  0  0  0  0  0  0  0  0  0
  -48.1785    9.6076    2.1594 C   0  0  0  0  0  0  0  0  0  0  0  0
  -46.1927   10.3526    2.3271 H   0  0  0  0  0  0  0  0  0  0  0  0
  -46.7160    9.1332    3.5967 H   0  0  0  0  0  0  0  0  0  0  0  0
  -47.6625   12.0077    3.4516 H   0  0  0  0  0  0  0  0  0  0  0  0
  -48.0091   10.7582    4.7276 H   0  0  0  0  0  0  0  0  0  0  0  0
  -45.5255   12.3510    4.2052 H   0  0  0  0  0  0  0  0  0  0  0  0
  -46.3678   11.8975    5.7615 H   0  0  0  0  0  0  0  0  0  0  0  0
  -40.2588   11.2053    5.7657 H   0  0  0  0  0  0  0  0  0  0  0  0
  -38.2470   11.7734    4.4904 H   0  0  0  0  0  0  0  0  0  0  0  0
  -42.3742   10.2447    2.1517 H   0  0  0  0  0  0  0  0  0  0  0  0
  -37.0672   11.8211    0.0406 H   0  0  0  0  0  0  0  0  0  0  0  0
  -38.2215    9.3957   -4.0548 H   0  0  0  0  0  0  0  0  0  0  0  0
  -40.0090    9.3712   -4.2299 H   0  0  0  0  0  0  0  0  0  0  0  0
  -39.1279   10.9366   -4.2299 H   0  0  0  0  0  0  0  0  0  0  0  0
  -45.6163    8.7541   -0.0890 H   0  0  0  0  0  0  0  0  0  0  0  0
  -46.4616   10.8875    0.8548 H   0  0  0  0  0  0  0  0  0  0  0  0
  -44.8694   12.6909    1.4475 H   0  0  0  0  0  0  0  0  0  0  0  0
  -42.4704   12.4590    0.8454 H   0  0  0  0  0  0  0  0  0  0  0  0
  -39.6283    9.1778   -1.8386 H   0  0  0  0  0  0  0  0  0  0  0  0
  -41.1020    9.5852   -1.0296 H   0  0  0  0  0  0  0  0  0  0  0  0
  -43.2257    8.5004   -0.6812 H   0  0  0  0  0  0  0  0  0  0  0  0
  -42.5680   10.4232    5.7735 H   0  0  0  0  0  0  0  0  0  0  0  0
  -43.9668   11.2130    3.3353 H   0  0  0  0  0  0  0  0  0  0  0  0
  -43.8932    9.4076    3.5443 H   0  0  0  0  0  0  0  0  0  0  0  0
  -44.6650   10.5209    6.0193 H   0  0  0  0  0  0  0  0  0  0  0  0
  -45.6206    9.5030    4.8130 H   0  0  0  0  0  0  0  0  0  0  0  0
  -49.0132    9.3198    2.8155 H   0  0  0  0  0  0  0  0  0  0  0  0
  -48.4853   10.4518    1.5245 H   0  0  0  0  0  0  0  0  0  0  0  0
  -47.8999    8.7536    1.5245 H   0  0  0  0  0  0  0  0  0  0  0  0
  1  2  1  0
  1 28  1  0
  2  3  1  0
  3 27  1  0
  4  5  2  0
  4 24  1  0
  5  6  1  0
  6  7  2  0
  6 20  1  0
  7  8  1  0
  7  9  1  0
  8 24  2  0
  9 10  2  0
  9 21  1  0
 10 11  1  0
 10 12  1  0
 11 20  2  0
 12 18  2  0
 12 19  1  0
 13 19  1  0
 14 15  2  0
 14 23  1  0
 15 16  1  0
 16 17  2  0
 17 22  1  0
 21 22  1  0
 22 23  2  0
 24 25  1  0
 25 26  1  0
 26 27  1  0
  1 29  1  0
  1 30  1  0
  2 31  1  0
  2 32  1  0
  3 33  1  0
  3 34  1  0
  4 35  1  0
  5 36  1  0
  8 37  1  0
 11 38  1  0
 13 39  1  0
 13 40  1  0
 13 41  1  0
 14 42  1  0
 15 43  1  0
 16 44  1  0
 17 45  1  0
 19 46  1  0
 21 47  1  0
 23 48  1  0
 25 49  1  0
 26 50  1  0
 26 51  1  0
 27 52  1  0
 27 53  1  0
 28 54  1  0
 28 55  1  0
 28 56  1  0
M  END
>  <filename_input>  (23) 
7N03_ZRP_docked.sdf

>  <pdb_id>  (23) 
7N03_ZRP

>  <pose_rank>  (23) 
22

>  <num_atoms_heavy>  (23) 
28

>  <num_torsions>  (23) 
9

>  <pose>  (23) 
[-40.27358649997074, 11.123416318718615, 4.668819841042558, -0.5486860328376015, 2.463474982564079, -1.0137917709986317, 2.1220721547299, -4.788004997219216, 0.8910740915525796, 0.30437607528504795, -4.6060221485796085, -0.9489800737511397, -2.19312779704176, 0.961895456587312, -0.3696639665949061]

>  <energy>  (23) 
-421.58276501710907

>  <inter_energy>  (23) 
-534.7961912187682

>  <intra_energy>  (23) 
114.14332945249043

>  <rmsd>  (23) 
8.21941

>  <sdf_rank>  (23) 
0

$$$$

     RDKit          3D

 56 58  0  0  0  0  0  0  0  0999 V2000
  -38.8533   19.6258    6.1391 C   0  0  0  0  0  0  0  0  0  0  0  0
  -40.1194   19.3220    5.3430 C   0  0  0  0  0  0  0  0  0  0  0  0
  -40.3446   17.8298    5.1545 C   0  0  0  0  0  0  0  0  0  0  0  0
  -40.4495   14.5381    2.4706 C   0  0  0  0  0  0  0  0  0  0  0  0
  -40.9024   13.8484    1.3842 C   0  0  0  0  0  0  0  0  0  0  0  0
  -41.9514   12.9071    1.5182 C   0  0  0  0  0  0  0  0  0  0  0  0
  -42.5291   12.7019    2.7933 C   0  0  0  0  0  0  0  0  0  0  0  0
  -42.0521   13.4610    3.8904 C   0  0  0  0  0  0  0  0  0  0  0  0
  -43.5775   11.7495    2.8904 C   0  0  0  0  0  0  0  0  0  0  0  0
  -44.0752   11.1403    1.7271 C   0  0  0  0  0  0  0  0  0  0  0  0
  -43.4016   11.4208    0.5275 C   0  0  0  0  0  0  0  0  0  0  0  0
  -45.2460   10.2179    1.7572 C   0  0  0  0  0  0  0  0  0  0  0  0
  -47.6463    9.8637    1.6660 C   0  0  0  0  0  0  0  0  0  0  0  0
  -45.8539   14.4374    5.3475 C   0  0  0  0  0  0  0  0  0  0  0  0
  -46.9460   13.9170    6.0269 C   0  0  0  0  0  0  0  0  0  0  0  0
  -47.1455   12.5593    6.0647 C   0  0  0  0  0  0  0  0  0  0  0  0
  -46.2138   11.7149    5.4847 C   0  0  0  0  0  0  0  0  0  0  0  0
  -45.1291    9.0077    2.0178 O   0  0  0  0  0  0  0  0  0  0  0  0
  -46.4671   10.7101    1.5597 N   0  0  0  0  0  0  0  0  0  0  0  0
  -42.3818   12.2415    0.4121 N   0  0  0  0  0  0  0  0  0  0  0  0
  -44.1369   11.4314    4.1215 N   0  0  0  0  0  0  0  0  0  0  0  0
  -45.1031   12.2320    4.8391 C   0  0  0  0  0  0  0  0  0  0  0  0
  -44.9242   13.6078    4.7636 C   0  0  0  0  0  0  0  0  0  0  0  0
  -41.0254   14.3728    3.7277 C   0  0  0  0  0  0  0  0  0  0  0  0
  -40.6190   15.1382    4.8013 N   0  0  0  0  0  0  0  0  0  0  0  0
  -39.2251   15.5419    4.9234 C   0  0  0  0  0  0  0  0  0  0  0  0
  -39.0652   17.0397    5.0295 C   0  0  0  0  0  0  0  0  0  0  0  0
  -39.0955   20.1382    7.5392 C   0  0  0  0  0  0  0  0  0  0  0  0
  -38.2630   18.7003    6.2103 H   0  0  0  0  0  0  0  0  0  0  0  0
  -38.3328   20.4308    5.5995 H   0  0  0  0  0  0  0  0  0  0  0  0
  -40.9826   19.7442    5.8784 H   0  0  0  0  0  0  0  0  0  0  0  0
  -40.0030   19.7711    4.3456 H   0  0  0  0  0  0  0  0  0  0  0  0
  -40.9052   17.4500    6.0214 H   0  0  0  0  0  0  0  0  0  0  0  0
  -40.8974   17.7022    4.2121 H   0  0  0  0  0  0  0  0  0  0  0  0
  -39.6110   15.2400    2.3510 H   0  0  0  0  0  0  0  0  0  0  0  0
  -40.4495   14.0248    0.3974 H   0  0  0  0  0  0  0  0  0  0  0  0
  -42.5040   13.3233    4.8838 H   0  0  0  0  0  0  0  0  0  0  0  0
  -43.7539   10.9158   -0.3839 H   0  0  0  0  0  0  0  0  0  0  0  0
  -47.8819    9.6946    2.7271 H   0  0  0  0  0  0  0  0  0  0  0  0
  -48.4979   10.3581    1.1756 H   0  0  0  0  0  0  0  0  0  0  0  0
  -47.4505    8.8987    1.1756 H   0  0  0  0  0  0  0  0  0  0  0  0
  -45.7297   15.5279    5.2746 H   0  0  0  0  0  0  0  0  0  0  0  0
  -47.6511   14.5916    6.5347 H   0  0  0  0  0  0  0  0  0  0  0  0
  -48.0399   12.1447    6.5526 H   0  0  0  0  0  0  0  0  0  0  0  0
  -46.3569   10.6255    5.5373 H   0  0  0  0  0  0  0  0  0  0  0  0
  -46.5793   11.7073    1.3277 H   0  0  0  0  0  0  0  0  0  0  0  0
  -43.8374   10.5491    4.5607 H   0  0  0  0  0  0  0  0  0  0  0  0
  -44.0508   14.0284    4.2437 H   0  0  0  0  0  0  0  0  0  0  0  0
  -41.3022   15.4243    5.5171 H   0  0  0  0  0  0  0  0  0  0  0  0
  -38.8007   15.0769    5.8255 H   0  0  0  0  0  0  0  0  0  0  0  0
  -38.7005   15.2128    4.0144 H   0  0  0  0  0  0  0  0  0  0  0  0
  -38.5405   17.3877    4.1275 H   0  0  0  0  0  0  0  0  0  0  0  0
  -38.5131   17.2156    5.9644 H   0  0  0  0  0  0  0  0  0  0  0  0
  -38.7434   19.3935    8.2682 H   0  0  0  0  0  0  0  0  0  0  0  0
  -38.5477   21.0810    7.6845 H   0  0  0  0  0  0  0  0  0  0  0  0
  -40.1717   20.3133    7.6845 H   0  0  0  0  0  0  0  0  0  0  0  0
  1  2  1  0
  1 28  1  0
  2  3  1  0
  3 27  1  0
  4  5  2  0
  4 24  1  0
  5  6  1  0
  6  7  2  0
  6 20  1  0
  7  8  1  0
  7  9  1  0
  8 24  2  0
  9 10  2  0
  9 21  1  0
 10 11  1  0
 10 12  1  0
 11 20  2  0
 12 18  2  0
 12 19  1  0
 13 19  1  0
 14 15  2  0
 14 23  1  0
 15 16  1  0
 16 17  2  0
 17 22  1  0
 21 22  1  0
 22 23  2  0
 24 25  1  0
 25 26  1  0
 26 27  1  0
  1 29  1  0
  1 30  1  0
  2 31  1  0
  2 32  1  0
  3 33  1  0
  3 34  1  0
  4 35  1  0
  5 36  1  0
  8 37  1  0
 11 38  1  0
 13 39  1  0
 13 40  1  0
 13 41  1  0
 14 42  1  0
 15 43  1  0
 16 44  1  0
 17 45  1  0
 19 46  1  0
 21 47  1  0
 23 48  1  0
 25 49  1  0
 26 50  1  0
 26 51  1  0
 27 52  1  0
 27 53  1  0
 28 54  1  0
 28 55  1  0
 28 56  1  0
M  END
>  <filename_input>  (24) 
7N03_ZRP_docked.sdf

>  <pdb_id>  (24) 
7N03_ZRP

>  <pose_rank>  (24) 
23

>  <num_atoms_heavy>  (24) 
28

>  <num_torsions>  (24) 
9

>  <pose>  (24) 
[-40.449450507076264, 14.53805372815643, 2.470577256614104, 1.1833214039315547, -1.4299699553303518, 1.1512616087111596, -1.6216054826178108, 2.185541267406456, -3.4908899388840187, 3.0920977240952237, 0.49462936382978756, -2.916970462595789, -0.8527841769619184, 0.9296343107031583, 0.8299170660779676]

>  <energy>  (24) 
-490.28129041232665

>  <inter_energy>  (24) 
-523.6645732314385

>  <intra_energy>  (24) 
34.02061161233489

>  <rmsd>  (24) 
6.73389

>  <sdf_rank>  (24) 
0

$$$$

     RDKit          3D

 56 58  0  0  0  0  0  0  0  0999 V2000
  -46.3142   13.5265    6.7841 C   0  0  0  0  0  0  0  0  0  0  0  0
  -46.8471   12.9993    5.4547 C   0  0  0  0  0  0  0  0  0  0  0  0
  -46.0277   11.8353    4.9194 C   0  0  0  0  0  0  0  0  0  0  0  0
  -41.2982   11.6532    3.8151 C   0  0  0  0  0  0  0  0  0  0  0  0
  -39.9501   11.6021    4.0180 C   0  0  0  0  0  0  0  0  0  0  0  0
  -39.0706   11.3552    2.9364 C   0  0  0  0  0  0  0  0  0  0  0  0
  -39.6110   11.1739    1.6415 C   0  0  0  0  0  0  0  0  0  0  0  0
  -41.0141   11.2660    1.4669 C   0  0  0  0  0  0  0  0  0  0  0  0
  -38.6995   10.9268    0.5815 C   0  0  0  0  0  0  0  0  0  0  0  0
  -37.3174   10.9839    0.8236 C   0  0  0  0  0  0  0  0  0  0  0  0
  -36.9148   11.1572    2.1575 C   0  0  0  0  0  0  0  0  0  0  0  0
  -36.3167   10.8424   -0.2724 C   0  0  0  0  0  0  0  0  0  0  0  0
  -34.6294   11.8214   -1.7180 C   0  0  0  0  0  0  0  0  0  0  0  0
  -39.5878   13.7951   -2.5566 C   0  0  0  0  0  0  0  0  0  0  0  0
  -39.0281   13.5057   -3.7927 C   0  0  0  0  0  0  0  0  0  0  0  0
  -38.4727   12.2711   -4.0207 C   0  0  0  0  0  0  0  0  0  0  0  0
  -38.5407   11.2986   -3.0373 C   0  0  0  0  0  0  0  0  0  0  0  0
  -36.2036    9.7962   -0.9348 O   0  0  0  0  0  0  0  0  0  0  0  0
  -35.5577   11.8861   -0.5989 N   0  0  0  0  0  0  0  0  0  0  0  0
  -37.7314   11.3167    3.1746 N   0  0  0  0  0  0  0  0  0  0  0  0
  -39.1581   10.6550   -0.7013 N   0  0  0  0  0  0  0  0  0  0  0  0
  -39.1334   11.5744   -1.8165 C   0  0  0  0  0  0  0  0  0  0  0  0
  -39.6567   12.8379   -1.5705 C   0  0  0  0  0  0  0  0  0  0  0  0
  -41.8473   11.5078    2.5436 C   0  0  0  0  0  0  0  0  0  0  0  0
  -43.2040   11.6482    2.3355 N   0  0  0  0  0  0  0  0  0  0  0  0
  -44.1492   11.1497    3.3249 C   0  0  0  0  0  0  0  0  0  0  0  0
  -44.8830   12.2627    4.0341 C   0  0  0  0  0  0  0  0  0  0  0  0
  -46.7836   14.9157    7.1462 C   0  0  0  0  0  0  0  0  0  0  0  0
  -46.6358   12.8381    7.5794 H   0  0  0  0  0  0  0  0  0  0  0  0
  -45.2208   13.5858    6.6787 H   0  0  0  0  0  0  0  0  0  0  0  0
  -47.8847   12.6635    5.5989 H   0  0  0  0  0  0  0  0  0  0  0  0
  -46.7849   13.8170    4.7216 H   0  0  0  0  0  0  0  0  0  0  0  0
  -45.6177   11.2762    5.7733 H   0  0  0  0  0  0  0  0  0  0  0  0
  -46.7014   11.2211    4.3038 H   0  0  0  0  0  0  0  0  0  0  0  0
  -41.9660   11.8127    4.6745 H   0  0  0  0  0  0  0  0  0  0  0  0
  -39.5438   11.7538    5.0289 H   0  0  0  0  0  0  0  0  0  0  0  0
  -41.4457   11.1437    0.4626 H   0  0  0  0  0  0  0  0  0  0  0  0
  -35.8349   11.1596    2.3668 H   0  0  0  0  0  0  0  0  0  0  0  0
  -33.6000   11.7496   -1.3368 H   0  0  0  0  0  0  0  0  0  0  0  0
  -34.8558   10.9368   -2.3314 H   0  0  0  0  0  0  0  0  0  0  0  0
  -34.7307   12.7288   -2.3314 H   0  0  0  0  0  0  0  0  0  0  0  0
  -39.9820   14.8035   -2.3623 H   0  0  0  0  0  0  0  0  0  0  0  0
  -39.0292   14.2646   -4.5890 H   0  0  0  0  0  0  0  0  0  0  0  0
  -37.9768   12.0557   -4.9786 H   0  0  0  0  0  0  0  0  0  0  0  0
  -38.1209   10.2997   -3.2272 H   0  0  0  0  0  0  0  0  0  0  0  0
  -35.6286   12.7548   -0.0500 H   0  0  0  0  0  0  0  0  0  0  0  0
  -39.5494    9.7177   -0.8725 H   0  0  0  0  0  0  0  0  0  0  0  0
  -40.1201   13.0699   -0.6002 H   0  0  0  0  0  0  0  0  0  0  0  0
  -43.5487   12.1060    1.4796 H   0  0  0  0  0  0  0  0  0  0  0  0
  -44.8854   10.5085    2.8181 H   0  0  0  0  0  0  0  0  0  0  0  0
  -43.5787   10.5902    4.0808 H   0  0  0  0  0  0  0  0  0  0  0  0
  -45.2842   12.9436    3.2690 H   0  0  0  0  0  0  0  0  0  0  0  0
  -44.1448   12.7275    4.7042 H   0  0  0  0  0  0  0  0  0  0  0  0
  -46.8179   15.0174    8.2409 H   0  0  0  0  0  0  0  0  0  0  0  0
  -46.0865   15.6583    6.7307 H   0  0  0  0  0  0  0  0  0  0  0  0
  -47.7882   15.0832    6.7307 H   0  0  0  0  0  0  0  0  0  0  0  0
  1  2  1  0
  1 28  1  0
  2  3  1  0
  3 27  1  0
  4  5  2  0
  4 24  1  0
  5  6  1  0
  6  7  2  0
  6 20  1  0
  7  8  1  0
  7  9  1  0
  8 24  2  0
  9 10  2  0
  9 21  1  0
 10 11  1  0
 10 12  1  0
 11 20  2  0
 12 18  2  0
 12 19  1  0
 13 19  1  0
 14 15  2  0
 14 23  1  0
 15 16  1  0
 16 17  2  0
 17 22  1  0
 21 22  1  0
 22 23  2  0
 24 25  1  0
 25 26  1  0
 26 27  1  0
  1 29  1  0
  1 30  1  0
  2 31  1  0
  2 32  1  0
  3 33  1  0
  3 34  1  0
  4 35  1  0
  5 36  1  0
  8 37  1  0
 11 38  1  0
 13 39  1  0
 13 40  1  0
 13 41  1  0
 14 42  1  0
 15 43  1  0
 16 44  1  0
 17 45  1  0
 19 46  1  0
 21 47  1  0
 23 48  1  0
 25 49  1  0
 26 50  1  0
 26 51  1  0
 27 52  1  0
 27 53  1  0
 28 54  1  0
 28 55  1  0
 28 56  1  0
M  END
>  <filename_input>  (25) 
7N03_ZRP_docked.sdf

>  <pdb_id>  (25) 
7N03_ZRP

>  <pose_rank>  (25) 
24

>  <num_atoms_heavy>  (25) 
28

>  <num_torsions>  (25) 
9

>  <pose>  (25) 
[-41.29819199250421, 11.653218207302812, 3.81508462410407, -0.2750069550943385, -3.5667049925706733, 1.9511276743088004, -1.2548829369401266, 2.6483804125087844, 2.575127451819815, 3.036421812880391, 0.2769340495696099, -0.05342201102856091, -0.6528085670205408, -0.055560728233389006, -0.7442624336695371]

>  <energy>  (25) 
-414.55577604186846

>  <inter_energy>  (25) 
-437.17827133806776

>  <intra_energy>  (25) 
16.987809582831744

>  <rmsd>  (25) 
9.11295

>  <sdf_rank>  (25) 
0

$$$$

     RDKit          3D

 56 58  0  0  0  0  0  0  0  0999 V2000
  -38.6870   10.5810    1.8310 C   0  0  0  0  0  0  0  0  0  0  0  0
  -39.4440   10.6860    0.5100 C   0  0  0  0  0  0  0  0  0  0  0  0
  -40.6920   11.5480    0.6210 C   0  0  0  0  0  0  0  0  0  0  0  0
  -46.5130   10.1880    1.6240 C   0  0  0  0  0  0  0  0  0  0  0  0
  -47.4440   10.6770    2.4930 C   0  0  0  0  0  0  0  0  0  0  0  0
  -47.0730   11.6080    3.4930 C   0  0  0  0  0  0  0  0  0  0  0  0
  -45.7250   12.0310    3.5690 C   0  0  0  0  0  0  0  0  0  0  0  0
  -44.7950   11.5240    2.6280 C   0  0  0  0  0  0  0  0  0  0  0  0
  -45.3890   12.9640    4.5850 C   0  0  0  0  0  0  0  0  0  0  0  0
  -46.4010   13.5130    5.3890 C   0  0  0  0  0  0  0  0  0  0  0  0
  -47.6950   12.9950    5.2200 C   0  0  0  0  0  0  0  0  0  0  0  0
  -46.1210   14.5770    6.3950 C   0  0  0  0  0  0  0  0  0  0  0  0
  -46.8970   16.0810    8.1360 C   0  0  0  0  0  0  0  0  0  0  0  0
  -40.5490   12.3250    4.8030 C   0  0  0  0  0  0  0  0  0  0  0  0
  -40.6250   10.9710    5.0960 C   0  0  0  0  0  0  0  0  0  0  0  0
  -41.8470   10.3860    5.3180 C   0  0  0  0  0  0  0  0  0  0  0  0
  -43.0010   11.1380    5.1760 C   0  0  0  0  0  0  0  0  0  0  0  0
  -45.0150   15.1400    6.4730 O   0  0  0  0  0  0  0  0  0  0  0  0
  -47.1000   14.9860    7.1990 N   0  0  0  0  0  0  0  0  0  0  0  0
  -48.0290   12.0790    4.3390 N   0  0  0  0  0  0  0  0  0  0  0  0
  -44.0720   13.3620    4.7770 N   0  0  0  0  0  0  0  0  0  0  0  0
  -42.9280   12.4810    4.8460 C   0  0  0  0  0  0  0  0  0  0  0  0
  -41.6890   13.0830    4.6640 C   0  0  0  0  0  0  0  0  0  0  0  0
  -45.1880   10.6150    1.6630 C   0  0  0  0  0  0  0  0  0  0  0  0
  -44.2740   10.1810    0.7250 N   0  0  0  0  0  0  0  0  0  0  0  0
  -43.1820   11.0520    0.3130 C   0  0  0  0  0  0  0  0  0  0  0  0
  -41.9100   10.7860    1.0820 C   0  0  0  0  0  0  0  0  0  0  0  0
  -37.2180   10.2580    1.6930 C   0  0  0  0  0  0  0  0  0  0  0  0
  -38.7783   11.5435    2.3556 H   0  0  0  0  0  0  0  0  0  0  0  0
  -39.1388    9.7430    2.3821 H   0  0  0  0  0  0  0  0  0  0  0  0
  -38.7766   11.1271   -0.2450 H   0  0  0  0  0  0  0  0  0  0  0  0
  -39.7622    9.6722    0.2255 H   0  0  0  0  0  0  0  0  0  0  0  0
  -40.4941   12.3564    1.3402 H   0  0  0  0  0  0  0  0  0  0  0  0
  -40.9117   11.9309   -0.3865 H   0  0  0  0  0  0  0  0  0  0  0  0
  -46.8155    9.4401    0.8762 H   0  0  0  0  0  0  0  0  0  0  0  0
  -48.4901   10.3457    2.4162 H   0  0  0  0  0  0  0  0  0  0  0  0
  -43.7475   11.8576    2.6656 H   0  0  0  0  0  0  0  0  0  0  0  0
  -48.4887   13.3852    5.8741 H   0  0  0  0  0  0  0  0  0  0  0  0
  -46.9676   15.7004    9.1656 H   0  0  0  0  0  0  0  0  0  0  0  0
  -45.9019   16.5214    7.9753 H   0  0  0  0  0  0  0  0  0  0  0  0
  -47.6681   16.8488    7.9753 H   0  0  0  0  0  0  0  0  0  0  0  0
  -39.5640   12.7990    4.6801 H   0  0  0  0  0  0  0  0  0  0  0  0
  -39.7073   10.3670    5.1504 H   0  0  0  0  0  0  0  0  0  0  0  0
  -41.9090    9.3264    5.6069 H   0  0  0  0  0  0  0  0  0  0  0  0
  -43.9828   10.6652    5.3264 H   0  0  0  0  0  0  0  0  0  0  0  0
  -48.0173   14.5193    7.1572 H   0  0  0  0  0  0  0  0  0  0  0  0
  -43.8955   14.3716    4.8790 H   0  0  0  0  0  0  0  0  0  0  0  0
  -41.6203   14.1516    4.4121 H   0  0  0  0  0  0  0  0  0  0  0  0
  -44.3641    9.2401    0.3158 H   0  0  0  0  0  0  0  0  0  0  0  0
  -42.9873   10.8916   -0.7577 H   0  0  0  0  0  0  0  0  0  0  0  0
  -43.4859   12.0893    0.5172 H   0  0  0  0  0  0  0  0  0  0  0  0
  -41.6861    9.7120    1.0027 H   0  0  0  0  0  0  0  0  0  0  0  0
  -42.1050   11.1279    2.1092 H   0  0  0  0  0  0  0  0  0  0  0  0
  -36.7688   10.1593    2.6922 H   0  0  0  0  0  0  0  0  0  0  0  0
  -37.1005    9.3126    1.1431 H   0  0  0  0  0  0  0  0  0  0  0  0
  -36.7148   11.0670    1.1431 H   0  0  0  0  0  0  0  0  0  0  0  0
  1  2  1  0
  1 28  1  0
  2  3  1  0
  3 27  1  0
  4  5  2  0
  4 24  1  0
  5  6  1  0
  6  7  2  0
  6 20  1  0
  7  8  1  0
  7  9  1  0
  8 24  2  0
  9 10  2  0
  9 21  1  0
 10 11  1  0
 10 12  1  0
 11 20  2  0
 12 18  2  0
 12 19  1  0
 13 19  1  0
 14 15  2  0
 14 23  1  0
 15 16  1  0
 16 17  2  0
 17 22  1  0
 21 22  1  0
 22 23  2  0
 24 25  1  0
 25 26  1  0
 26 27  1  0
  1 29  1  0
  1 30  1  0
  2 31  1  0
  2 32  1  0
  3 33  1  0
  3 34  1  0
  4 35  1  0
  5 36  1  0
  8 37  1  0
 11 38  1  0
 13 39  1  0
 13 40  1  0
 13 41  1  0
 14 42  1  0
 15 43  1  0
 16 44  1  0
 17 45  1  0
 19 46  1  0
 21 47  1  0
 23 48  1  0
 25 49  1  0
 26 50  1  0
 26 51  1  0
 27 52  1  0
 27 53  1  0
 28 54  1  0
 28 55  1  0
 28 56  1  0
M  END
>  <filename_input>  (26) 
7N03_ZRP_docked.sdf

>  <pdb_id>  (26) 
7N03_ZRP

>  <pose_rank>  (26) 
25

>  <num_atoms_heavy>  (26) 
28

>  <num_torsions>  (26) 
9

>  <pose>  (26) 
[-46.513, 10.188, 1.624, 1e-06, 1e-06, 1e-06, 0.0, 0.0, 0.0, 0.0, 0.0, 0.0, 0.0, 0.0, 0.0]

>  <energy>  (26) 
-1172.608982263056

>  <inter_energy>  (26) 
-1223.5182915948274

>  <intra_energy>  (26) 
66.2611241794303

>  <rmsd>  (26) 
0.0

>  <sdf_rank>  (26) 
0

$$$$
