
     RDKit          3D

 56 58  0  0  0  0  0  0  0  0999 V2000
   25.2036  -15.8213  -14.3778 C   0  0  0  0  0  0  0  0  0  0  0  0
   23.8074  -13.9550  -15.0057 C   0  0  0  0  0  0  0  0  0  0  0  0
   22.5947  -13.4124  -15.4756 C   0  0  0  0  0  0  0  0  0  0  0  0
   22.4087  -12.0206  -15.3326 C   0  0  0  0  0  0  0  0  0  0  0  0
   24.4842  -11.8842  -14.3094 C   0  0  0  0  0  0  0  0  0  0  0  0
   20.4527   -9.1595  -16.8554 C   0  0  0  0  0  0  0  0  0  0  0  0
   18.7838   -7.2032  -17.9396 C   0  0  0  0  0  0  0  0  0  0  0  0
   20.0972   -6.8429  -17.5979 C   0  0  0  0  0  0  0  0  0  0  0  0
   20.8941   -7.8476  -17.0731 C   0  0  0  0  0  0  0  0  0  0  0  0
   20.6354   -5.4254  -17.8381 C   0  0  2  0  0  0  0  0  0  0  0  0
   21.7328   -5.9442  -20.0949 C   0  0  0  0  0  0  0  0  0  0  0  0
   23.1321   -5.4716  -19.6321 C   0  0  2  0  0  0  0  0  0  0  0  0
   25.2986   -3.4396  -20.3212 C   0  0  0  0  0  0  0  0  0  0  0  0
   24.0859  -15.2732  -15.1319 O   0  0  0  0  0  0  0  0  0  0  0  0
   23.3734  -11.3127  -14.7378 N   0  0  0  0  0  0  0  0  0  0  0  0
   24.7078  -13.1682  -14.4292 N   0  0  0  0  0  0  0  0  0  0  0  0
   21.2068  -11.3150  -15.8404 C   0  0  0  0  0  0  0  0  0  0  0  0
   20.1105  -11.8864  -15.8845 O   0  0  0  0  0  0  0  0  0  0  0  0
   21.3997  -10.0667  -16.3043 N   0  0  0  0  0  0  0  0  0  0  0  0
   19.1323   -9.4667  -17.2139 C   0  0  0  0  0  0  0  0  0  0  0  0
   18.3113   -8.4842  -17.7273 C   0  0  0  0  0  0  0  0  0  0  0  0
   17.9239   -6.3006  -18.4943 F   0  0  0  0  0  0  0  0  0  0  0  0
   19.8357   -4.3815  -17.0606 C   0  0  0  0  0  0  0  0  0  0  0  0
   20.5525   -3.1787  -17.0340 F   0  0  0  0  0  0  0  0  0  0  0  0
   20.6236   -5.1535  -19.3572 C   0  0  0  0  0  0  0  0  0  0  0  0
   24.1642   -6.5180  -20.0705 C   0  0  0  0  0  0  0  0  0  0  0  0
   23.0980   -5.3573  -18.1131 C   0  0  0  0  0  0  0  0  0  0  0  0
   24.2994   -5.2749  -17.4801 N   0  0  0  0  0  0  0  0  0  0  0  0
   22.0256   -5.2797  -17.3784 N   0  0  0  0  0  0  0  0  0  0  0  0
   23.5085   -3.8159  -20.3988 S   0  0  2  0  0  0  0  0  0  0  0  0
   22.9346   -2.7265  -19.6760 O   0  0  0  0  0  0  0  0  0  0  0  0
   23.2274   -3.9046  -21.7909 O   0  0  0  0  0  0  0  0  0  0  0  0
   25.0027  -15.7228  -13.3008 H   0  0  0  0  0  0  0  0  0  0  0  0
   25.3310  -16.8840  -14.6314 H   0  0  0  0  0  0  0  0  0  0  0  0
   26.1218  -15.2712  -14.6314 H   0  0  0  0  0  0  0  0  0  0  0  0
   21.8238  -14.0482  -15.9355 H   0  0  0  0  0  0  0  0  0  0  0  0
   25.2517  -11.2564  -13.8331 H   0  0  0  0  0  0  0  0  0  0  0  0
   21.9338   -7.6010  -16.8122 H   0  0  0  0  0  0  0  0  0  0  0  0
   21.6351   -5.7805  -21.1782 H   0  0  0  0  0  0  0  0  0  0  0  0
   21.6229   -7.0137  -19.8624 H   0  0  0  0  0  0  0  0  0  0  0  0
   25.6140   -3.3733  -19.2695 H   0  0  0  0  0  0  0  0  0  0  0  0
   25.8634   -4.2386  -20.8237 H   0  0  0  0  0  0  0  0  0  0  0  0
   25.4938   -2.4808  -20.8237 H   0  0  0  0  0  0  0  0  0  0  0  0
   22.3681   -9.7196  -16.2531 H   0  0  0  0  0  0  0  0  0  0  0  0
   18.7514  -10.4907  -17.0859 H   0  0  0  0  0  0  0  0  0  0  0  0
   17.2658   -8.7239  -17.9710 H   0  0  0  0  0  0  0  0  0  0  0  0
   18.8650   -4.2206  -17.5523 H   0  0  0  0  0  0  0  0  0  0  0  0
   19.6681   -4.7348  -16.0325 H   0  0  0  0  0  0  0  0  0  0  0  0
   19.6454   -5.4499  -19.7638 H   0  0  0  0  0  0  0  0  0  0  0  0
   20.8094   -4.0805  -19.5126 H   0  0  0  0  0  0  0  0  0  0  0  0
   24.6192   -6.9792  -19.1815 H   0  0  0  0  0  0  0  0  0  0  0  0
   23.6675   -7.2933  -20.6723 H   0  0  0  0  0  0  0  0  0  0  0  0
   24.9463   -6.0319  -20.6723 H   0  0  0  0  0  0  0  0  0  0  0  0
   24.3364   -5.1960  -16.4537 H   0  0  0  0  0  0  0  0  0  0  0  0
   25.1720   -5.2914  -18.0271 H   0  0  0  0  0  0  0  0  0  0  0  0
   22.1645   -5.0980  -16.3741 H   0  0  0  0  0  0  0  0  0  0  0  0
  1 14  1  0
  2  3  2  0
  2 14  1  0
  2 16  1  0
  3  4  1  0
  4 15  2  0
  4 17  1  0
  5 15  1  0
  5 16  2  0
  6  9  2  0
  6 19  1  0
  6 20  1  0
  7  8  2  0
  7 21  1  0
  7 22  1  0
  8  9  1  0
  8 10  1  0
 10 23  1  1
 10 25  1  0
 10 29  1  0
 11 12  1  0
 11 25  1  0
 12 26  1  1
 12 27  1  0
 12 30  1  0
 30 13  1  6
 17 18  2  0
 17 19  1  0
 20 21  2  0
 23 24  1  0
 27 28  1  0
 27 29  2  0
 30 31  2  0
 30 32  2  0
  1 33  1  0
  1 34  1  0
  1 35  1  0
  3 36  1  0
  5 37  1  0
  9 38  1  0
 11 39  1  0
 11 40  1  0
 13 41  1  0
 13 42  1  0
 13 43  1  0
 19 44  1  0
 20 45  1  0
 21 46  1  0
 23 47  1  0
 23 48  1  0
 25 49  1  0
 25 50  1  0
 26 51  1  0
 26 52  1  0
 26 53  1  0
 28 54  1  0
 28 55  1  0
 29 56  1  0
M  CHG  1  29   1
M  END
>  <filename_input>  (1) 
7N4N_0BK_docked.sdf

>  <pdb_id>  (1) 
7N4N_0BK

>  <pose_rank>  (1) 
0

>  <num_atoms_heavy>  (1) 
32

>  <num_torsions>  (1) 
6

>  <pose>  (1) 
[20.452712283807315, -9.159531560897811, -16.855390869736077, -2.3077080434260697, 5.59610289505408, -1.6091550441595328, -6.249907480331505, 0.14549670029654274, -0.3421298893219876, -0.12095519887213259, 0.3690299478866925, 0.214548436502477]

>  <energy>  (1) 
-1515.7479446834518

>  <inter_energy>  (1) 
-1507.127767419664

>  <intra_energy>  (1) 
26.439833255898925

>  <rmsd>  (1) 
0.263688

>  <sdf_rank>  (1) 
0

$$$$

     RDKit          3D

 56 58  0  0  0  0  0  0  0  0999 V2000
   20.2467  -13.8406  -23.8848 C   0  0  0  0  0  0  0  0  0  0  0  0
   19.8219  -12.8498  -21.7250 C   0  0  0  0  0  0  0  0  0  0  0  0
   19.5995  -11.7527  -20.8692 C   0  0  0  0  0  0  0  0  0  0  0  0
   19.6156  -12.0006  -19.4798 C   0  0  0  0  0  0  0  0  0  0  0  0
   20.0018  -14.2434  -19.9204 C   0  0  0  0  0  0  0  0  0  0  0  0
   19.6096   -8.4489  -18.1699 C   0  0  0  0  0  0  0  0  0  0  0  0
   19.6612   -5.9760  -16.8773 C   0  0  0  0  0  0  0  0  0  0  0  0
   20.6926   -6.2761  -17.7816 C   0  0  0  0  0  0  0  0  0  0  0  0
   20.6217   -7.5097  -18.4086 C   0  0  0  0  0  0  0  0  0  0  0  0
   21.8111   -5.2722  -18.0948 C   0  0  2  0  0  0  0  0  0  0  0  0
   21.8724   -5.7311  -20.6152 C   0  0  0  0  0  0  0  0  0  0  0  0
   23.3761   -6.0977  -20.6095 C   0  0  2  0  0  0  0  0  0  0  0  0
   23.7249   -4.2510  -23.0106 C   0  0  0  0  0  0  0  0  0  0  0  0
   19.8575  -12.6996  -23.0693 O   0  0  0  0  0  0  0  0  0  0  0  0
   19.8092  -13.2559  -19.0648 N   0  0  0  0  0  0  0  0  0  0  0  0
   20.0069  -14.0620  -21.2165 N   0  0  0  0  0  0  0  0  0  0  0  0
   19.4577  -10.9250  -18.4705 C   0  0  0  0  0  0  0  0  0  0  0  0
   19.0708  -11.1859  -17.3248 O   0  0  0  0  0  0  0  0  0  0  0  0
   19.6897   -9.6696  -18.8957 N   0  0  0  0  0  0  0  0  0  0  0  0
   18.6037   -8.0994  -17.2575 C   0  0  0  0  0  0  0  0  0  0  0  0
   18.6543   -6.8832  -16.6085 C   0  0  0  0  0  0  0  0  0  0  0  0
   19.6152   -4.7763  -16.2290 F   0  0  0  0  0  0  0  0  0  0  0  0
   21.8972   -4.1776  -17.0328 C   0  0  0  0  0  0  0  0  0  0  0  0
   23.1714   -3.5981  -17.0714 F   0  0  0  0  0  0  0  0  0  0  0  0
   21.5639   -4.6958  -19.5049 C   0  0  0  0  0  0  0  0  0  0  0  0
   23.5630   -7.3808  -21.4288 C   0  0  0  0  0  0  0  0  0  0  0  0
   23.7871   -6.3238  -19.1598 C   0  0  0  0  0  0  0  0  0  0  0  0
   24.9684   -6.9664  -18.9534 N   0  0  0  0  0  0  0  0  0  0  0  0
   23.1360   -5.9121  -18.1098 N   0  0  0  0  0  0  0  0  0  0  0  0
   24.3552   -4.6966  -21.3504 S   0  0  2  0  0  0  0  0  0  0  0  0
   25.7115   -5.0505  -21.6221 O   0  0  0  0  0  0  0  0  0  0  0  0
   24.1220   -3.5353  -20.5619 O   0  0  0  0  0  0  0  0  0  0  0  0
   20.5324  -14.6780  -23.2311 H   0  0  0  0  0  0  0  0  0  0  0  0
   19.4010  -14.1431  -24.5197 H   0  0  0  0  0  0  0  0  0  0  0  0
   21.1011  -13.5632  -24.5197 H   0  0  0  0  0  0  0  0  0  0  0  0
   19.4205  -10.7433  -21.2680 H   0  0  0  0  0  0  0  0  0  0  0  0
   20.1643  -15.2582  -19.5282 H   0  0  0  0  0  0  0  0  0  0  0  0
   21.4056   -7.7668  -19.1362 H   0  0  0  0  0  0  0  0  0  0  0  0
   21.6075   -5.3031  -21.5933 H   0  0  0  0  0  0  0  0  0  0  0  0
   21.2829   -6.6408  -20.4281 H   0  0  0  0  0  0  0  0  0  0  0  0
   22.8308   -3.6188  -22.9058 H   0  0  0  0  0  0  0  0  0  0  0  0
   24.5012   -3.6998  -23.5617 H   0  0  0  0  0  0  0  0  0  0  0  0
   23.4641   -5.1665  -23.5617 H   0  0  0  0  0  0  0  0  0  0  0  0
   19.9634   -9.5801  -19.8846 H   0  0  0  0  0  0  0  0  0  0  0  0
   17.7747   -8.7948  -17.0595 H   0  0  0  0  0  0  0  0  0  0  0  0
   17.8820   -6.6321  -15.8665 H   0  0  0  0  0  0  0  0  0  0  0  0
   21.1369   -3.4086  -17.2345 H   0  0  0  0  0  0  0  0  0  0  0  0
   21.7189   -4.6126  -16.0383 H   0  0  0  0  0  0  0  0  0  0  0  0
   20.5097   -4.3920  -19.5850 H   0  0  0  0  0  0  0  0  0  0  0  0
   22.2363   -3.8364  -19.6442 H   0  0  0  0  0  0  0  0  0  0  0  0
   23.6875   -8.2357  -20.7479 H   0  0  0  0  0  0  0  0  0  0  0  0
   22.6789   -7.5429  -22.0630 H   0  0  0  0  0  0  0  0  0  0  0  0
   24.4565   -7.2840  -22.0630 H   0  0  0  0  0  0  0  0  0  0  0  0
   25.2960   -7.1462  -17.9936 H   0  0  0  0  0  0  0  0  0  0  0  0
   25.5351   -7.2730  -19.7570 H   0  0  0  0  0  0  0  0  0  0  0  0
   23.5949   -6.0480  -17.1977 H   0  0  0  0  0  0  0  0  0  0  0  0
  1 14  1  0
  2  3  2  0
  2 14  1  0
  2 16  1  0
  3  4  1  0
  4 15  2  0
  4 17  1  0
  5 15  1  0
  5 16  2  0
  6  9  2  0
  6 19  1  0
  6 20  1  0
  7  8  2  0
  7 21  1  0
  7 22  1  0
  8  9  1  0
  8 10  1  0
 10 23  1  1
 10 25  1  0
 10 29  1  0
 11 12  1  0
 11 25  1  0
 12 26  1  6
 12 27  1  0
 12 30  1  0
 30 13  1  6
 17 18  2  0
 17 19  1  0
 20 21  2  0
 23 24  1  0
 27 28  1  0
 27 29  2  0
 30 31  2  0
 30 32  2  0
  1 33  1  0
  1 34  1  0
  1 35  1  0
  3 36  1  0
  5 37  1  0
  9 38  1  0
 11 39  1  0
 11 40  1  0
 13 41  1  0
 13 42  1  0
 13 43  1  0
 19 44  1  0
 20 45  1  0
 21 46  1  0
 23 47  1  0
 23 48  1  0
 25 49  1  0
 25 50  1  0
 26 51  1  0
 26 52  1  0
 26 53  1  0
 28 54  1  0
 28 55  1  0
 29 56  1  0
M  CHG  1  29   1
M  END
>  <filename_input>  (2) 
7N4N_0BK_docked.sdf

>  <pdb_id>  (2) 
7N4N_0BK

>  <pose_rank>  (2) 
1

>  <num_atoms_heavy>  (2) 
32

>  <num_torsions>  (2) 
6

>  <pose>  (2) 
[19.609605489772694, -8.44886385877654, -18.169852345778025, 0.5878764574989078, 0.9117239729010237, -0.6297076034207219, -13.288400003532889, -4.243443487085361, -0.45347091377033366, -0.6788456540240168, -3.7065449948833136, -0.14172899727155558]

>  <energy>  (2) 
-649.3724510206581

>  <inter_energy>  (2) 
-705.5384731615055

>  <intra_energy>  (2) 
61.03504133903592

>  <rmsd>  (2) 
4.30356

>  <sdf_rank>  (2) 
0

$$$$

     RDKit          3D

 56 58  0  0  0  0  0  0  0  0999 V2000
   21.1196  -15.8293  -17.9218 C   0  0  0  0  0  0  0  0  0  0  0  0
   22.2004  -14.4506  -16.2612 C   0  0  0  0  0  0  0  0  0  0  0  0
   21.2268  -13.4489  -16.4475 C   0  0  0  0  0  0  0  0  0  0  0  0
   21.4574  -12.1987  -15.8344 C   0  0  0  0  0  0  0  0  0  0  0  0
   23.4309  -13.0354  -14.9519 C   0  0  0  0  0  0  0  0  0  0  0  0
   20.2909   -8.8753  -17.2219 C   0  0  0  0  0  0  0  0  0  0  0  0
   19.1837   -6.4774  -18.1232 C   0  0  0  0  0  0  0  0  0  0  0  0
   20.3926   -6.9081  -18.6930 C   0  0  0  0  0  0  0  0  0  0  0  0
   20.9007   -8.1088  -18.2238 C   0  0  0  0  0  0  0  0  0  0  0  0
   21.0878   -6.1162  -19.8094 C   0  0  2  0  0  0  0  0  0  0  0  0
   23.3247   -5.8547  -18.5869 C   0  0  0  0  0  0  0  0  0  0  0  0
   23.3044   -4.3098  -18.6789 C   0  0  2  0  0  0  0  0  0  0  0  0
   25.4741   -5.1671  -20.6422 C   0  0  0  0  0  0  0  0  0  0  0  0
   22.0791  -15.6680  -16.8393 O   0  0  0  0  0  0  0  0  0  0  0  0
   22.5612  -12.0519  -15.0957 N   0  0  0  0  0  0  0  0  0  0  0  0
   23.2672  -14.2082  -15.5093 N   0  0  0  0  0  0  0  0  0  0  0  0
   20.5444  -11.0417  -16.0024 C   0  0  0  0  0  0  0  0  0  0  0  0
   19.4481  -11.0140  -15.4299 O   0  0  0  0  0  0  0  0  0  0  0  0
   20.9489  -10.0817  -16.8541 N   0  0  0  0  0  0  0  0  0  0  0  0
   19.0853   -8.4002  -16.6862 C   0  0  0  0  0  0  0  0  0  0  0  0
   18.5613   -7.2018  -17.1246 C   0  0  0  0  0  0  0  0  0  0  0  0
   18.5781   -5.3259  -18.5343 F   0  0  0  0  0  0  0  0  0  0  0  0
   20.4427   -6.3776  -21.1692 C   0  0  0  0  0  0  0  0  0  0  0  0
   20.6316   -7.7208  -21.5176 F   0  0  0  0  0  0  0  0  0  0  0  0
   22.5879   -6.4783  -19.7985 C   0  0  0  0  0  0  0  0  0  0  0  0
   23.6783   -3.7397  -17.3050 C   0  0  0  0  0  0  0  0  0  0  0  0
   21.8907   -3.8923  -19.0648 C   0  0  0  0  0  0  0  0  0  0  0  0
   21.5701   -2.5827  -18.8832 N   0  0  0  0  0  0  0  0  0  0  0  0
   20.9869   -4.6635  -19.5980 N   0  0  0  0  0  0  0  0  0  0  0  0
   24.5217   -3.7531  -19.9747 S   0  0  2  0  0  0  0  0  0  0  0  0
   25.5488   -2.9136  -19.4466 O   0  0  0  0  0  0  0  0  0  0  0  0
   23.7824   -3.2687  -21.0898 O   0  0  0  0  0  0  0  0  0  0  0  0
   20.1173  -15.9979  -17.5012 H   0  0  0  0  0  0  0  0  0  0  0  0
   21.1093  -14.9203  -18.5411 H   0  0  0  0  0  0  0  0  0  0  0  0
   21.4072  -16.6917  -18.5411 H   0  0  0  0  0  0  0  0  0  0  0  0
   20.3232  -13.6341  -17.0469 H   0  0  0  0  0  0  0  0  0  0  0  0
   24.3281  -12.8619  -14.3396 H   0  0  0  0  0  0  0  0  0  0  0  0
   21.8374   -8.4819  -18.6636 H   0  0  0  0  0  0  0  0  0  0  0  0
   24.3679   -6.2034  -18.5785 H   0  0  0  0  0  0  0  0  0  0  0  0
   22.8151   -6.1635  -17.6623 H   0  0  0  0  0  0  0  0  0  0  0  0
   25.8761   -5.7639  -19.8102 H   0  0  0  0  0  0  0  0  0  0  0  0
   24.8143   -5.7952  -21.2588 H   0  0  0  0  0  0  0  0  0  0  0  0
   26.3041   -4.7917  -21.2588 H   0  0  0  0  0  0  0  0  0  0  0  0
   21.8622  -10.2427  -17.3021 H   0  0  0  0  0  0  0  0  0  0  0  0
   18.5576   -8.9828  -15.9167 H   0  0  0  0  0  0  0  0  0  0  0  0
   17.6350   -6.8174  -16.6728 H   0  0  0  0  0  0  0  0  0  0  0  0
   19.3659   -6.1598  -21.1136 H   0  0  0  0  0  0  0  0  0  0  0  0
   20.9056   -5.7302  -21.9285 H   0  0  0  0  0  0  0  0  0  0  0  0
   22.6891   -7.5727  -19.7513 H   0  0  0  0  0  0  0  0  0  0  0  0
   23.0419   -6.0770  -20.7166 H   0  0  0  0  0  0  0  0  0  0  0  0
   23.2582   -4.3802  -16.5155 H   0  0  0  0  0  0  0  0  0  0  0  0
   24.7734   -3.7076  -17.2070 H   0  0  0  0  0  0  0  0  0  0  0  0
   23.2714   -2.7224  -17.2070 H   0  0  0  0  0  0  0  0  0  0  0  0
   20.6282   -2.2445  -19.1270 H   0  0  0  0  0  0  0  0  0  0  0  0
   22.2691   -1.9294  -18.5019 H   0  0  0  0  0  0  0  0  0  0  0  0
   20.1133   -4.2109  -19.9026 H   0  0  0  0  0  0  0  0  0  0  0  0
  1 14  1  0
  2  3  2  0
  2 14  1  0
  2 16  1  0
  3  4  1  0
  4 15  2  0
  4 17  1  0
  5 15  1  0
  5 16  2  0
  6  9  2  0
  6 19  1  0
  6 20  1  0
  7  8  2  0
  7 21  1  0
  7 22  1  0
  8  9  1  0
  8 10  1  0
 10 23  1  6
 10 25  1  0
 10 29  1  0
 11 12  1  0
 11 25  1  0
 12 26  1  1
 12 27  1  0
 12 30  1  0
 30 13  1  6
 17 18  2  0
 17 19  1  0
 20 21  2  0
 23 24  1  0
 27 28  1  0
 27 29  2  0
 30 31  2  0
 30 32  2  0
  1 33  1  0
  1 34  1  0
  1 35  1  0
  3 36  1  0
  5 37  1  0
  9 38  1  0
 11 39  1  0
 11 40  1  0
 13 41  1  0
 13 42  1  0
 13 43  1  0
 19 44  1  0
 20 45  1  0
 21 46  1  0
 23 47  1  0
 23 48  1  0
 25 49  1  0
 25 50  1  0
 26 51  1  0
 26 52  1  0
 26 53  1  0
 28 54  1  0
 28 55  1  0
 29 56  1  0
M  CHG  1  29   1
M  END
>  <filename_input>  (3) 
7N4N_0BK_docked.sdf

>  <pdb_id>  (3) 
7N4N_0BK

>  <pose_rank>  (3) 
2

>  <num_atoms_heavy>  (3) 
32

>  <num_torsions>  (3) 
6

>  <pose>  (3) 
[20.29092591866084, -8.875321385115155, -17.221937206388755, 2.035966527835962, -3.8323502822250015, 3.1458397586628966, -2.4181111136922526, 2.8980600690841642, 1.9284918291150768, -6.15140560278876, 1.114948868839339, 3.3937208470709876]

>  <energy>  (3) 
-856.5022408301387

>  <inter_energy>  (3) 
-900.0840507735635

>  <intra_energy>  (3) 
41.66971486474245

>  <rmsd>  (3) 
2.4812

>  <sdf_rank>  (3) 
0

$$$$

     RDKit          3D

 56 58  0  0  0  0  0  0  0  0999 V2000
   25.3912  -16.1184  -14.2636 C   0  0  0  0  0  0  0  0  0  0  0  0
   24.0364  -14.3084  -15.1092 C   0  0  0  0  0  0  0  0  0  0  0  0
   22.7970  -13.8802  -15.6252 C   0  0  0  0  0  0  0  0  0  0  0  0
   22.4679  -12.5161  -15.4730 C   0  0  0  0  0  0  0  0  0  0  0  0
   24.4741  -12.1931  -14.3576 C   0  0  0  0  0  0  0  0  0  0  0  0
   20.3440   -9.9090  -17.2116 C   0  0  0  0  0  0  0  0  0  0  0  0
   18.5481   -8.1366  -18.4040 C   0  0  0  0  0  0  0  0  0  0  0  0
   19.7790   -7.6339  -17.9525 C   0  0  0  0  0  0  0  0  0  0  0  0
   20.6442   -8.5504  -17.3770 C   0  0  0  0  0  0  0  0  0  0  0  0
   20.1646   -6.1587  -18.1313 C   0  0  2  0  0  0  0  0  0  0  0  0
   21.3759   -6.4768  -20.3669 C   0  0  0  0  0  0  0  0  0  0  0  0
   22.7010   -5.8706  -19.8453 C   0  0  2  0  0  0  0  0  0  0  0  0
   24.6777   -3.6659  -20.5730 C   0  0  0  0  0  0  0  0  0  0  0  0
   24.4494  -15.5904  -15.2396 O   0  0  0  0  0  0  0  0  0  0  0  0
   23.3313  -11.7267  -14.8274 N   0  0  0  0  0  0  0  0  0  0  0  0
   24.8289  -13.4466  -14.4837 N   0  0  0  0  0  0  0  0  0  0  0  0
   21.2246  -11.9239  -16.0244 C   0  0  0  0  0  0  0  0  0  0  0  0
   20.1614  -12.5561  -16.0052 O   0  0  0  0  0  0  0  0  0  0  0  0
   21.3442  -10.7119  -16.5965 N   0  0  0  0  0  0  0  0  0  0  0  0
   19.1013  -10.3595  -17.6796 C   0  0  0  0  0  0  0  0  0  0  0  0
   18.2139   -9.4680  -18.2460 C   0  0  0  0  0  0  0  0  0  0  0  0
   17.6349   -7.3280  -19.0156 F   0  0  0  0  0  0  0  0  0  0  0  0
   19.2333   -5.2356  -17.3476 C   0  0  0  0  0  0  0  0  0  0  0  0
   19.2800   -5.5787  -15.9907 F   0  0  0  0  0  0  0  0  0  0  0  0
   20.1659   -5.8376  -19.6408 C   0  0  0  0  0  0  0  0  0  0  0  0
   23.8540   -6.7825  -20.2829 C   0  0  0  0  0  0  0  0  0  0  0  0
   22.6116   -5.8131  -18.3253 C   0  0  0  0  0  0  0  0  0  0  0  0
   23.7782   -5.6220  -17.6521 N   0  0  0  0  0  0  0  0  0  0  0  0
   21.5168   -5.8782  -17.6232 N   0  0  0  0  0  0  0  0  0  0  0  0
   22.9145   -4.1584  -20.5478 S   0  0  2  0  0  0  0  0  0  0  0  0
   22.3251   -3.1463  -19.7311 O   0  0  0  0  0  0  0  0  0  0  0  0
   22.5406   -4.1990  -21.9201 O   0  0  0  0  0  0  0  0  0  0  0  0
   25.0218  -15.9113  -13.2483 H   0  0  0  0  0  0  0  0  0  0  0  0
   25.4925  -17.2049  -14.4023 H   0  0  0  0  0  0  0  0  0  0  0  0
   26.3710  -15.6381  -14.4023 H   0  0  0  0  0  0  0  0  0  0  0  0
   22.1133  -14.5810  -16.1266 H   0  0  0  0  0  0  0  0  0  0  0  0
   25.1545  -11.5009  -13.8400 H   0  0  0  0  0  0  0  0  0  0  0  0
   21.6240   -8.1905  -17.0297 H   0  0  0  0  0  0  0  0  0  0  0  0
   21.2914   -6.2875  -21.4472 H   0  0  0  0  0  0  0  0  0  0  0  0
   21.3778   -7.5593  -20.1715 H   0  0  0  0  0  0  0  0  0  0  0  0
   25.0446   -3.5635  -19.5410 H   0  0  0  0  0  0  0  0  0  0  0  0
   25.2655   -4.4343  -21.0965 H   0  0  0  0  0  0  0  0  0  0  0  0
   24.7823   -2.7042  -21.0965 H   0  0  0  0  0  0  0  0  0  0  0  0
   22.2922  -10.3093  -16.5878 H   0  0  0  0  0  0  0  0  0  0  0  0
   18.8341  -11.4232  -17.5952 H   0  0  0  0  0  0  0  0  0  0  0  0
   17.2263   -9.8220  -18.5766 H   0  0  0  0  0  0  0  0  0  0  0  0
   19.5572   -4.1921  -17.4747 H   0  0  0  0  0  0  0  0  0  0  0  0
   18.2045   -5.3447  -17.7213 H   0  0  0  0  0  0  0  0  0  0  0  0
   19.2382   -6.2248  -20.0874 H   0  0  0  0  0  0  0  0  0  0  0  0
   20.2369   -4.7460  -19.7568 H   0  0  0  0  0  0  0  0  0  0  0  0
   24.3617   -7.1841  -19.3936 H   0  0  0  0  0  0  0  0  0  0  0  0
   23.4564   -7.6132  -20.8846 H   0  0  0  0  0  0  0  0  0  0  0  0
   24.5707   -6.2043  -20.8846 H   0  0  0  0  0  0  0  0  0  0  0  0
   23.7773   -5.5749  -16.6231 H   0  0  0  0  0  0  0  0  0  0  0  0
   24.6625   -5.5244  -18.1713 H   0  0  0  0  0  0  0  0  0  0  0  0
   21.6064   -5.7171  -16.6098 H   0  0  0  0  0  0  0  0  0  0  0  0
  1 14  1  0
  2  3  2  0
  2 14  1  0
  2 16  1  0
  3  4  1  0
  4 15  2  0
  4 17  1  0
  5 15  1  0
  5 16  2  0
  6  9  2  0
  6 19  1  0
  6 20  1  0
  7  8  2  0
  7 21  1  0
  7 22  1  0
  8  9  1  0
  8 10  1  0
 10 23  1  1
 10 25  1  0
 10 29  1  0
 11 12  1  0
 11 25  1  0
 12 26  1  1
 12 27  1  0
 12 30  1  0
 30 13  1  6
 17 18  2  0
 17 19  1  0
 20 21  2  0
 23 24  1  0
 27 28  1  0
 27 29  2  0
 30 31  2  0
 30 32  2  0
  1 33  1  0
  1 34  1  0
  1 35  1  0
  3 36  1  0
  5 37  1  0
  9 38  1  0
 11 39  1  0
 11 40  1  0
 13 41  1  0
 13 42  1  0
 13 43  1  0
 19 44  1  0
 20 45  1  0
 21 46  1  0
 23 47  1  0
 23 48  1  0
 25 49  1  0
 25 50  1  0
 26 51  1  0
 26 52  1  0
 26 53  1  0
 28 54  1  0
 28 55  1  0
 29 56  1  0
M  CHG  1  29   1
M  END
>  <filename_input>  (4) 
7N4N_0BK_docked.sdf

>  <pdb_id>  (4) 
7N4N_0BK

>  <pose_rank>  (4) 
3

>  <num_atoms_heavy>  (4) 
32

>  <num_torsions>  (4) 
6

>  <pose>  (4) 
[20.343964839008816, -9.90900983420369, -17.211591431717146, -0.9613387156527865, 3.773804745612373, -4.727355084987385, 0.0864498574582329, 0.2562925445532524, -2.20482970480446, -0.2716842212573377, 0.4918801464678235, 0.4299331697878461]

>  <energy>  (4) 
-1096.3804087483566

>  <inter_energy>  (4) 
-1107.4331304881512

>  <intra_energy>  (4) 
23.190451643767474

>  <rmsd>  (4) 
0.921059

>  <sdf_rank>  (4) 
0

$$$$

     RDKit          3D

 56 58  0  0  0  0  0  0  0  0999 V2000
   25.1813  -13.2626  -11.8882 C   0  0  0  0  0  0  0  0  0  0  0  0
   24.5946  -13.1675  -14.2277 C   0  0  0  0  0  0  0  0  0  0  0  0
   23.8249  -11.9873  -14.2504 C   0  0  0  0  0  0  0  0  0  0  0  0
   22.8256  -11.8840  -15.2418 C   0  0  0  0  0  0  0  0  0  0  0  0
   23.4532  -13.9674  -16.0411 C   0  0  0  0  0  0  0  0  0  0  0  0
   20.4987   -9.4350  -16.9501 C   0  0  0  0  0  0  0  0  0  0  0  0
   18.9321   -7.2631  -17.7355 C   0  0  0  0  0  0  0  0  0  0  0  0
   20.3022   -7.0500  -17.5139 C   0  0  0  0  0  0  0  0  0  0  0  0
   21.0439   -8.1577  -17.1360 C   0  0  0  0  0  0  0  0  0  0  0  0
   20.9516   -5.6753  -17.7263 C   0  0  2  0  0  0  0  0  0  0  0  0
   22.7773   -6.4958  -19.3263 C   0  0  0  0  0  0  0  0  0  0  0  0
   23.9280   -5.9493  -18.4473 C   0  0  2  0  0  0  0  0  0  0  0  0
   26.2952   -4.0317  -18.5764 C   0  0  0  0  0  0  0  0  0  0  0  0
   25.5513  -13.3675  -13.2919 O   0  0  0  0  0  0  0  0  0  0  0  0
   22.6915  -12.8907  -16.1101 N   0  0  0  0  0  0  0  0  0  0  0  0
   24.3849  -14.1147  -15.1338 N   0  0  0  0  0  0  0  0  0  0  0  0
   21.9059  -10.7240  -15.3368 C   0  0  0  0  0  0  0  0  0  0  0  0
   21.5851  -10.0880  -14.3254 O   0  0  0  0  0  0  0  0  0  0  0  0
   21.4013  -10.4614  -16.5562 N   0  0  0  0  0  0  0  0  0  0  0  0
   19.1253   -9.5935  -17.1844 C   0  0  0  0  0  0  0  0  0  0  0  0
   18.3586   -8.5064  -17.5497 C   0  0  0  0  0  0  0  0  0  0  0  0
   18.1149   -6.2489  -18.1423 F   0  0  0  0  0  0  0  0  0  0  0  0
   19.9681   -4.5402  -17.4469 C   0  0  0  0  0  0  0  0  0  0  0  0
   20.4987   -3.3405  -17.9371 F   0  0  0  0  0  0  0  0  0  0  0  0
   21.5099   -5.6199  -19.1639 C   0  0  0  0  0  0  0  0  0  0  0  0
   25.0029   -7.0369  -18.3286 C   0  0  0  0  0  0  0  0  0  0  0  0
   23.3437   -5.6228  -17.0784 C   0  0  0  0  0  0  0  0  0  0  0  0
   24.2313   -5.4406  -16.0636 N   0  0  0  0  0  0  0  0  0  0  0  0
   22.0809   -5.4530  -16.8095 N   0  0  0  0  0  0  0  0  0  0  0  0
   24.6305   -4.4144  -19.2355 S   0  0  2  0  0  0  0  0  0  0  0  0
   23.8932   -3.2360  -18.9091 O   0  0  0  0  0  0  0  0  0  0  0  0
   24.8527   -4.6927  -20.6131 O   0  0  0  0  0  0  0  0  0  0  0  0
   26.0505  -13.5090  -11.2605 H   0  0  0  0  0  0  0  0  0  0  0  0
   24.8519  -12.2357  -11.6715 H   0  0  0  0  0  0  0  0  0  0  0  0
   24.3620  -13.9639  -11.6715 H   0  0  0  0  0  0  0  0  0  0  0  0
   23.9962  -11.1788  -13.5245 H   0  0  0  0  0  0  0  0  0  0  0  0
   23.2983  -14.7721  -16.7749 H   0  0  0  0  0  0  0  0  0  0  0  0
   22.1238   -8.0267  -16.9725 H   0  0  0  0  0  0  0  0  0  0  0  0
   23.0912   -6.4870  -20.3805 H   0  0  0  0  0  0  0  0  0  0  0  0
   22.5437   -7.5230  -19.0096 H   0  0  0  0  0  0  0  0  0  0  0  0
   26.2647   -4.0387  -17.4768 H   0  0  0  0  0  0  0  0  0  0  0  0
   27.0117   -4.7885  -18.9282 H   0  0  0  0  0  0  0  0  0  0  0  0
   26.6093   -3.0379  -18.9282 H   0  0  0  0  0  0  0  0  0  0  0  0
   21.7119  -11.0915  -17.3095 H   0  0  0  0  0  0  0  0  0  0  0  0
   18.6595  -10.5842  -17.0770 H   0  0  0  0  0  0  0  0  0  0  0  0
   17.2754   -8.6311  -17.6952 H   0  0  0  0  0  0  0  0  0  0  0  0
   19.0113   -4.7509  -17.9471 H   0  0  0  0  0  0  0  0  0  0  0  0
   19.8005   -4.4547  -16.3632 H   0  0  0  0  0  0  0  0  0  0  0  0
   20.7374   -5.9800  -19.8594 H   0  0  0  0  0  0  0  0  0  0  0  0
   21.7858   -4.5777  -19.3823 H   0  0  0  0  0  0  0  0  0  0  0  0
   25.2035   -7.2399  -17.2663 H   0  0  0  0  0  0  0  0  0  0  0  0
   24.6492   -7.9568  -18.8173 H   0  0  0  0  0  0  0  0  0  0  0  0
   25.9269   -6.6941  -18.8173 H   0  0  0  0  0  0  0  0  0  0  0  0
   23.8924   -5.2177  -15.1168 H   0  0  0  0  0  0  0  0  0  0  0  0
   25.2421   -5.5254  -16.2420 H   0  0  0  0  0  0  0  0  0  0  0  0
   21.8492   -5.1305  -15.8591 H   0  0  0  0  0  0  0  0  0  0  0  0
  1 14  1  0
  2  3  2  0
  2 14  1  0
  2 16  1  0
  3  4  1  0
  4 15  2  0
  4 17  1  0
  5 15  1  0
  5 16  2  0
  6  9  2  0
  6 19  1  0
  6 20  1  0
  7  8  2  0
  7 21  1  0
  7 22  1  0
  8  9  1  0
  8 10  1  0
 10 23  1  6
 10 25  1  0
 10 29  1  0
 11 12  1  0
 11 25  1  0
 12 26  1  1
 12 27  1  0
 12 30  1  0
 30 13  1  1
 17 18  2  0
 17 19  1  0
 20 21  2  0
 23 24  1  0
 27 28  1  0
 27 29  2  0
 30 31  2  0
 30 32  2  0
  1 33  1  0
  1 34  1  0
  1 35  1  0
  3 36  1  0
  5 37  1  0
  9 38  1  0
 11 39  1  0
 11 40  1  0
 13 41  1  0
 13 42  1  0
 13 43  1  0
 19 44  1  0
 20 45  1  0
 21 46  1  0
 23 47  1  0
 23 48  1  0
 25 49  1  0
 25 50  1  0
 26 51  1  0
 26 52  1  0
 26 53  1  0
 28 54  1  0
 28 55  1  0
 29 56  1  0
M  CHG  1  29   1
M  END
>  <filename_input>  (5) 
7N4N_0BK_docked.sdf

>  <pdb_id>  (5) 
7N4N_0BK

>  <pose_rank>  (5) 
4

>  <num_atoms_heavy>  (5) 
32

>  <num_torsions>  (5) 
6

>  <pose>  (5) 
[20.49867897655893, -9.434985835360921, -16.950087023869, -3.0085064702530766, -3.6300244413360794, 3.932640089086638, -0.4958363663122606, 0.1644663063710581, 0.14892356454894573, 4.566747873243498, -0.6902985442425232, 4.081761736391092]

>  <energy>  (5) 
-946.4622035615049

>  <inter_energy>  (5) 
-982.4267720385367

>  <intra_energy>  (5) 
34.64744666117836

>  <rmsd>  (5) 
1.57131

>  <sdf_rank>  (5) 
0

$$$$

     RDKit          3D

 56 58  0  0  0  0  0  0  0  0999 V2000
   25.4470  -15.2137  -14.1141 C   0  0  0  0  0  0  0  0  0  0  0  0
   23.9041  -13.5787  -14.9932 C   0  0  0  0  0  0  0  0  0  0  0  0
   23.4218  -12.2651  -15.1593 C   0  0  0  0  0  0  0  0  0  0  0  0
   22.1937  -12.1062  -15.8365 C   0  0  0  0  0  0  0  0  0  0  0  0
   22.0941  -14.4045  -16.1214 C   0  0  0  0  0  0  0  0  0  0  0  0
   19.9324   -9.5560  -17.4839 C   0  0  0  0  0  0  0  0  0  0  0  0
   18.6535   -7.2299  -18.3452 C   0  0  0  0  0  0  0  0  0  0  0  0
   20.0522   -7.2144  -18.2232 C   0  0  0  0  0  0  0  0  0  0  0  0
   20.6464   -8.3935  -17.8031 C   0  0  0  0  0  0  0  0  0  0  0  0
   20.8816   -5.9735  -18.5827 C   0  0  2  0  0  0  0  0  0  0  0  0
   20.9138   -6.4064  -21.1082 C   0  0  0  0  0  0  0  0  0  0  0  0
   22.4596   -6.4048  -21.1861 C   0  0  2  0  0  0  0  0  0  0  0  0
   22.8288   -3.4014  -20.8114 C   0  0  0  0  0  0  0  0  0  0  0  0
   25.0553  -13.8282  -14.3273 O   0  0  0  0  0  0  0  0  0  0  0  0
   21.5832  -13.2001  -16.3016 N   0  0  0  0  0  0  0  0  0  0  0  0
   23.2234  -14.6040  -15.4906 N   0  0  0  0  0  0  0  0  0  0  0  0
   21.5451  -10.7853  -16.0234 C   0  0  0  0  0  0  0  0  0  0  0  0
   21.7379   -9.8673  -15.2169 O   0  0  0  0  0  0  0  0  0  0  0  0
   20.6984  -10.6786  -17.0638 N   0  0  0  0  0  0  0  0  0  0  0  0
   18.5375   -9.5182  -17.6227 C   0  0  0  0  0  0  0  0  0  0  0  0
   17.9166   -8.3547  -18.0272 C   0  0  0  0  0  0  0  0  0  0  0  0
   17.9689   -6.1335  -18.7822 F   0  0  0  0  0  0  0  0  0  0  0  0
   20.7625   -4.8890  -17.5134 C   0  0  0  0  0  0  0  0  0  0  0  0
   21.1918   -3.6675  -18.0469 F   0  0  0  0  0  0  0  0  0  0  0  0
   20.4287   -5.4734  -19.9706 C   0  0  0  0  0  0  0  0  0  0  0  0
   22.9013   -7.6072  -22.0297 C   0  0  0  0  0  0  0  0  0  0  0  0
   22.9903   -6.5257  -19.7630 C   0  0  0  0  0  0  0  0  0  0  0  0
   24.2998   -6.8687  -19.6269 N   0  0  0  0  0  0  0  0  0  0  0  0
   22.3178   -6.2798  -18.6752 N   0  0  0  0  0  0  0  0  0  0  0  0
   23.0363   -4.8116  -21.9605 S   0  0  2  0  0  0  0  0  0  0  0  0
   22.2388   -4.4170  -23.0772 O   0  0  0  0  0  0  0  0  0  0  0  0
   24.4429   -4.9037  -22.1544 O   0  0  0  0  0  0  0  0  0  0  0  0
   25.5044  -15.4165  -13.0345 H   0  0  0  0  0  0  0  0  0  0  0  0
   24.7021  -15.8802  -14.5733 H   0  0  0  0  0  0  0  0  0  0  0  0
   26.4307  -15.3915  -14.5733 H   0  0  0  0  0  0  0  0  0  0  0  0
   23.9801  -11.3981  -14.7764 H   0  0  0  0  0  0  0  0  0  0  0  0
   21.5490  -15.2743  -16.5170 H   0  0  0  0  0  0  0  0  0  0  0  0
   21.7426   -8.4184  -17.7150 H   0  0  0  0  0  0  0  0  0  0  0  0
   20.5024   -6.0544  -22.0657 H   0  0  0  0  0  0  0  0  0  0  0  0
   20.5683   -7.4300  -20.9013 H   0  0  0  0  0  0  0  0  0  0  0  0
   22.8820   -3.7630  -19.7738 H   0  0  0  0  0  0  0  0  0  0  0  0
   23.6285   -2.6663  -20.9849 H   0  0  0  0  0  0  0  0  0  0  0  0
   21.8513   -2.9278  -20.9849 H   0  0  0  0  0  0  0  0  0  0  0  0
   20.5899  -11.5283  -17.6359 H   0  0  0  0  0  0  0  0  0  0  0  0
   17.9388  -10.4160  -17.4092 H   0  0  0  0  0  0  0  0  0  0  0  0
   16.8193   -8.3219  -18.0976 H   0  0  0  0  0  0  0  0  0  0  0  0
   19.7139   -4.8022  -17.1926 H   0  0  0  0  0  0  0  0  0  0  0  0
   21.3866   -5.1539  -16.6472 H   0  0  0  0  0  0  0  0  0  0  0  0
   19.3298   -5.4291  -19.9914 H   0  0  0  0  0  0  0  0  0  0  0  0
   20.8691   -4.4788  -20.1347 H   0  0  0  0  0  0  0  0  0  0  0  0
   23.2036   -8.4301  -21.3651 H   0  0  0  0  0  0  0  0  0  0  0  0
   22.0655   -7.9367  -22.6644 H   0  0  0  0  0  0  0  0  0  0  0  0
   23.7516   -7.3173  -22.6644 H   0  0  0  0  0  0  0  0  0  0  0  0
   24.7121   -6.9648  -18.6880 H   0  0  0  0  0  0  0  0  0  0  0  0
   24.8788   -7.0323  -20.4629 H   0  0  0  0  0  0  0  0  0  0  0  0
   22.8444   -6.3021  -17.7903 H   0  0  0  0  0  0  0  0  0  0  0  0
  1 14  1  0
  2  3  2  0
  2 14  1  0
  2 16  1  0
  3  4  1  0
  4 15  2  0
  4 17  1  0
  5 15  1  0
  5 16  2  0
  6  9  2  0
  6 19  1  0
  6 20  1  0
  7  8  2  0
  7 21  1  0
  7 22  1  0
  8  9  1  0
  8 10  1  0
 10 23  1  1
 10 25  1  0
 10 29  1  0
 11 12  1  0
 11 25  1  0
 12 26  1  6
 12 27  1  0
 12 30  1  0
 30 13  1  1
 17 18  2  0
 17 19  1  0
 20 21  2  0
 23 24  1  0
 27 28  1  0
 27 29  2  0
 30 31  2  0
 30 32  2  0
  1 33  1  0
  1 34  1  0
  1 35  1  0
  3 36  1  0
  5 37  1  0
  9 38  1  0
 11 39  1  0
 11 40  1  0
 13 41  1  0
 13 42  1  0
 13 43  1  0
 19 44  1  0
 20 45  1  0
 21 46  1  0
 23 47  1  0
 23 48  1  0
 25 49  1  0
 25 50  1  0
 26 51  1  0
 26 52  1  0
 26 53  1  0
 28 54  1  0
 28 55  1  0
 29 56  1  0
M  CHG  1  29   1
M  END
>  <filename_input>  (6) 
7N4N_0BK_docked.sdf

>  <pdb_id>  (6) 
7N4N_0BK

>  <pose_rank>  (6) 
5

>  <num_atoms_heavy>  (6) 
32

>  <num_torsions>  (6) 
6

>  <pose>  (6) 
[19.93236681781092, -9.556038527607775, -17.483850051877894, 0.028931806817561648, -2.9641406484113313, 5.213063009864312, 0.2814537843060734, -2.0332426212500376, 0.21831761750540257, -2.0744525158281104, -0.6558138747972243, -0.08950008080735239]

>  <energy>  (6) 
-886.8531188597589

>  <inter_energy>  (6) 
-921.4215462132669

>  <intra_energy>  (6) 
30.037747462687637

>  <rmsd>  (6) 
1.76008

>  <sdf_rank>  (6) 
0

$$$$

     RDKit          3D

 56 58  0  0  0  0  0  0  0  0999 V2000
   25.1678  -15.8135  -13.9616 C   0  0  0  0  0  0  0  0  0  0  0  0
   23.8730  -13.9698  -14.8281 C   0  0  0  0  0  0  0  0  0  0  0  0
   22.6617  -13.4844  -15.3600 C   0  0  0  0  0  0  0  0  0  0  0  0
   22.4164  -12.0985  -15.2539 C   0  0  0  0  0  0  0  0  0  0  0  0
   24.4391  -11.8611  -14.1468 C   0  0  0  0  0  0  0  0  0  0  0  0
   19.9420  -11.1544  -17.9589 C   0  0  0  0  0  0  0  0  0  0  0  0
   18.0116  -10.0048  -19.6143 C   0  0  0  0  0  0  0  0  0  0  0  0
   19.1988   -9.2921  -19.3816 C   0  0  0  0  0  0  0  0  0  0  0  0
   20.1339   -9.9047  -18.5628 C   0  0  0  0  0  0  0  0  0  0  0  0
   19.4665   -7.9304  -20.0381 C   0  0  2  0  0  0  0  0  0  0  0  0
   21.4921   -7.3364  -18.5853 C   0  0  0  0  0  0  0  0  0  0  0  0
   20.8679   -6.0104  -18.0877 C   0  0  2  0  0  0  0  0  0  0  0  0
   20.9683   -2.9816  -18.4250 C   0  0  0  0  0  0  0  0  0  0  0  0
   24.2071  -15.2782  -14.9149 O   0  0  0  0  0  0  0  0  0  0  0  0
   23.3266  -11.3420  -14.6336 N   0  0  0  0  0  0  0  0  0  0  0  0
   24.7168  -13.1374  -14.2304 N   0  0  0  0  0  0  0  0  0  0  0  0
   21.2113  -11.4504  -15.8267 C   0  0  0  0  0  0  0  0  0  0  0  0
   20.4222  -10.8318  -15.1021 O   0  0  0  0  0  0  0  0  0  0  0  0
   21.0027  -11.6367  -17.1429 N   0  0  0  0  0  0  0  0  0  0  0  0
   18.7389  -11.8241  -18.2239 C   0  0  0  0  0  0  0  0  0  0  0  0
   17.7838  -11.2338  -19.0253 C   0  0  0  0  0  0  0  0  0  0  0  0
   17.0373   -9.5095  -20.4310 F   0  0  0  0  0  0  0  0  0  0  0  0
   18.8969   -7.8677  -21.4541 C   0  0  0  0  0  0  0  0  0  0  0  0
   19.9449   -7.9734  -22.3769 F   0  0  0  0  0  0  0  0  0  0  0  0
   20.9874   -7.6701  -20.0114 C   0  0  0  0  0  0  0  0  0  0  0  0
   21.0690   -5.9221  -16.5698 C   0  0  0  0  0  0  0  0  0  0  0  0
   19.3835   -6.0460  -18.4297 C   0  0  0  0  0  0  0  0  0  0  0  0
   18.5901   -5.1376  -17.8002 N   0  0  0  0  0  0  0  0  0  0  0  0
   18.8214   -6.8300  -19.3045 N   0  0  0  0  0  0  0  0  0  0  0  0
   21.6968   -4.5789  -18.9447 S   0  0  2  0  0  0  0  0  0  0  0  0
   21.4746   -4.5727  -20.3552 O   0  0  0  0  0  0  0  0  0  0  0  0
   23.0433   -4.5166  -18.4890 O   0  0  0  0  0  0  0  0  0  0  0  0
   24.8164  -15.6178  -12.9378 H   0  0  0  0  0  0  0  0  0  0  0  0
   25.2693  -16.8983  -14.1133 H   0  0  0  0  0  0  0  0  0  0  0  0
   26.1437  -15.3292  -14.1133 H   0  0  0  0  0  0  0  0  0  0  0  0
   21.9364  -14.1586  -15.8388 H   0  0  0  0  0  0  0  0  0  0  0  0
   25.1606  -11.1947  -13.6515 H   0  0  0  0  0  0  0  0  0  0  0  0
   21.0820   -9.3793  -18.3760 H   0  0  0  0  0  0  0  0  0  0  0  0
   22.5875   -7.2371  -18.6026 H   0  0  0  0  0  0  0  0  0  0  0  0
   21.1964   -8.1475  -17.9036 H   0  0  0  0  0  0  0  0  0  0  0  0
   20.9446   -2.9295  -17.3265 H   0  0  0  0  0  0  0  0  0  0  0  0
   21.5785   -2.1551  -18.8182 H   0  0  0  0  0  0  0  0  0  0  0  0
   19.9442   -2.9005  -18.8182 H   0  0  0  0  0  0  0  0  0  0  0  0
   21.7096  -12.2084  -17.6271 H   0  0  0  0  0  0  0  0  0  0  0  0
   18.5568  -12.8196  -17.7928 H   0  0  0  0  0  0  0  0  0  0  0  0
   16.8272  -11.7489  -19.1980 H   0  0  0  0  0  0  0  0  0  0  0  0
   18.1900   -8.6972  -21.6034 H   0  0  0  0  0  0  0  0  0  0  0  0
   18.3716   -6.9122  -21.5992 H   0  0  0  0  0  0  0  0  0  0  0  0
   21.5084   -8.5696  -20.3714 H   0  0  0  0  0  0  0  0  0  0  0  0
   21.1963   -6.8050  -20.6578 H   0  0  0  0  0  0  0  0  0  0  0  0
   20.1772   -6.3135  -16.0584 H   0  0  0  0  0  0  0  0  0  0  0  0
   21.9479   -6.5172  -16.2811 H   0  0  0  0  0  0  0  0  0  0  0  0
   21.2260   -4.8723  -16.2811 H   0  0  0  0  0  0  0  0  0  0  0  0
   17.5786   -5.1160  -17.9931 H   0  0  0  0  0  0  0  0  0  0  0  0
   19.0010   -4.4714  -17.1307 H   0  0  0  0  0  0  0  0  0  0  0  0
   17.8246   -6.6629  -19.5030 H   0  0  0  0  0  0  0  0  0  0  0  0
  1 14  1  0
  2  3  2  0
  2 14  1  0
  2 16  1  0
  3  4  1  0
  4 15  2  0
  4 17  1  0
  5 15  1  0
  5 16  2  0
  6  9  2  0
  6 19  1  0
  6 20  1  0
  7  8  2  0
  7 21  1  0
  7 22  1  0
  8  9  1  0
  8 10  1  0
 10 23  1  6
 10 25  1  0
 10 29  1  0
 11 12  1  0
 11 25  1  0
 12 26  1  1
 12 27  1  0
 12 30  1  0
 30 13  1  1
 17 18  2  0
 17 19  1  0
 20 21  2  0
 23 24  1  0
 27 28  1  0
 27 29  2  0
 30 31  2  0
 30 32  2  0
  1 33  1  0
  1 34  1  0
  1 35  1  0
  3 36  1  0
  5 37  1  0
  9 38  1  0
 11 39  1  0
 11 40  1  0
 13 41  1  0
 13 42  1  0
 13 43  1  0
 19 44  1  0
 20 45  1  0
 21 46  1  0
 23 47  1  0
 23 48  1  0
 25 49  1  0
 25 50  1  0
 26 51  1  0
 26 52  1  0
 26 53  1  0
 28 54  1  0
 28 55  1  0
 29 56  1  0
M  CHG  1  29   1
M  END
>  <filename_input>  (7) 
7N4N_0BK_docked.sdf

>  <pdb_id>  (7) 
7N4N_0BK

>  <pose_rank>  (7) 
6

>  <num_atoms_heavy>  (7) 
32

>  <num_torsions>  (7) 
6

>  <pose>  (7) 
[19.942026047536483, -11.154369833479189, -17.958885006380466, -0.300594280470089, -0.062396407885159814, 0.2153305135901155, 4.629851328005305, 6.100920439513729, 7.513841141988429, -1.5359426136985335, 8.215374401219425, 6.6595126940741505]

>  <energy>  (7) 
-821.6120955374579

>  <inter_energy>  (7) 
-853.0553946168977

>  <intra_energy>  (7) 
50.91595395967227

>  <rmsd>  (7) 
3.10085

>  <sdf_rank>  (7) 
0

$$$$

     RDKit          3D

 56 58  0  0  0  0  0  0  0  0999 V2000
   21.0478  -15.4335  -17.0773 C   0  0  0  0  0  0  0  0  0  0  0  0
   19.6498  -13.8688  -18.2706 C   0  0  0  0  0  0  0  0  0  0  0  0
   19.7825  -12.6498  -17.5762 C   0  0  0  0  0  0  0  0  0  0  0  0
   19.6195  -11.4601  -18.3180 C   0  0  0  0  0  0  0  0  0  0  0  0
   19.2781  -12.7364  -20.2227 C   0  0  0  0  0  0  0  0  0  0  0  0
   19.9816   -7.6928  -18.2343 C   0  0  0  0  0  0  0  0  0  0  0  0
   20.3679   -4.9625  -17.8045 C   0  0  0  0  0  0  0  0  0  0  0  0
   21.3078   -5.6528  -18.5867 C   0  0  0  0  0  0  0  0  0  0  0  0
   21.0712   -7.0039  -18.7833 C   0  0  0  0  0  0  0  0  0  0  0  0
   22.5055   -4.9390  -19.2292 C   0  0  2  0  0  0  0  0  0  0  0  0
   21.8726   -5.4982  -21.6486 C   0  0  0  0  0  0  0  0  0  0  0  0
   23.2240   -6.1929  -21.9432 C   0  0  2  0  0  0  0  0  0  0  0  0
   25.2743   -6.0436  -24.1951 C   0  0  0  0  0  0  0  0  0  0  0  0
   19.7565  -15.0581  -17.6340 O   0  0  0  0  0  0  0  0  0  0  0  0
   19.3810  -11.5613  -19.6289 N   0  0  0  0  0  0  0  0  0  0  0  0
   19.4101  -13.8667  -19.5762 N   0  0  0  0  0  0  0  0  0  0  0  0
   19.6718  -10.1137  -17.6976 C   0  0  0  0  0  0  0  0  0  0  0  0
   19.4592   -9.9671  -16.4878 O   0  0  0  0  0  0  0  0  0  0  0  0
   19.8905   -9.0808  -18.5319 N   0  0  0  0  0  0  0  0  0  0  0  0
   19.0727   -6.9566  -17.4609 C   0  0  0  0  0  0  0  0  0  0  0  0
   19.2884   -5.6125  -17.2375 C   0  0  0  0  0  0  0  0  0  0  0  0
   20.4860   -3.6228  -17.5744 F   0  0  0  0  0  0  0  0  0  0  0  0
   23.0672   -3.8511  -18.3158 C   0  0  0  0  0  0  0  0  0  0  0  0
   22.6794   -2.5963  -18.8020 F   0  0  0  0  0  0  0  0  0  0  0  0
   22.0589   -4.3774  -20.5955 C   0  0  0  0  0  0  0  0  0  0  0  0
   22.9391   -7.5162  -22.6643 C   0  0  0  0  0  0  0  0  0  0  0  0
   23.9088   -6.4487  -20.6063 C   0  0  0  0  0  0  0  0  0  0  0  0
   24.9437   -7.3317  -20.6097 N   0  0  0  0  0  0  0  0  0  0  0  0
   23.6251   -5.8604  -19.4796 N   0  0  0  0  0  0  0  0  0  0  0  0
   24.2718   -5.0778  -23.0059 S   0  0  2  0  0  0  0  0  0  0  0  0
   25.2692   -4.3784  -22.2610 O   0  0  0  0  0  0  0  0  0  0  0  0
   23.3993   -4.3078  -23.8247 O   0  0  0  0  0  0  0  0  0  0  0  0
   20.9922  -15.4174  -15.9788 H   0  0  0  0  0  0  0  0  0  0  0  0
   21.3128  -16.4459  -17.4162 H   0  0  0  0  0  0  0  0  0  0  0  0
   21.8143  -14.7211  -17.4162 H   0  0  0  0  0  0  0  0  0  0  0  0
   20.0043  -12.6263  -16.4991 H   0  0  0  0  0  0  0  0  0  0  0  0
   19.0734  -12.7664  -21.3031 H   0  0  0  0  0  0  0  0  0  0  0  0
   21.7801   -7.5685  -19.4067 H   0  0  0  0  0  0  0  0  0  0  0  0
   21.4801   -5.0603  -22.5782 H   0  0  0  0  0  0  0  0  0  0  0  0
   21.1669   -6.2441  -21.2542 H   0  0  0  0  0  0  0  0  0  0  0  0
   25.9603   -6.7043  -23.6447 H   0  0  0  0  0  0  0  0  0  0  0  0
   24.6094   -6.6502  -24.8275 H   0  0  0  0  0  0  0  0  0  0  0  0
   25.8556   -5.3565  -24.8275 H   0  0  0  0  0  0  0  0  0  0  0  0
   20.0085   -9.3300  -19.5243 H   0  0  0  0  0  0  0  0  0  0  0  0
   18.1880   -7.4505  -17.0326 H   0  0  0  0  0  0  0  0  0  0  0  0
   18.5913   -5.0503  -16.5988 H   0  0  0  0  0  0  0  0  0  0  0  0
   22.6760   -3.9878  -17.2969 H   0  0  0  0  0  0  0  0  0  0  0  0
   24.1651   -3.9162  -18.2952 H   0  0  0  0  0  0  0  0  0  0  0  0
   21.1034   -3.8479  -20.4671 H   0  0  0  0  0  0  0  0  0  0  0  0
   22.8441   -3.6973  -20.9573 H   0  0  0  0  0  0  0  0  0  0  0  0
   22.7683   -8.3093  -21.9214 H   0  0  0  0  0  0  0  0  0  0  0  0
   22.0443   -7.4052  -23.2944 H   0  0  0  0  0  0  0  0  0  0  0  0
   23.8003   -7.7833  -23.2944 H   0  0  0  0  0  0  0  0  0  0  0  0
   25.4434   -7.5429  -19.7342 H   0  0  0  0  0  0  0  0  0  0  0  0
   25.2275   -7.7891  -21.4879 H   0  0  0  0  0  0  0  0  0  0  0  0
   24.2473   -6.0601  -18.6835 H   0  0  0  0  0  0  0  0  0  0  0  0
  1 14  1  0
  2  3  2  0
  2 14  1  0
  2 16  1  0
  3  4  1  0
  4 15  2  0
  4 17  1  0
  5 15  1  0
  5 16  2  0
  6  9  2  0
  6 19  1  0
  6 20  1  0
  7  8  2  0
  7 21  1  0
  7 22  1  0
  8  9  1  0
  8 10  1  0
 10 23  1  1
 10 25  1  0
 10 29  1  0
 11 12  1  0
 11 25  1  0
 12 26  1  6
 12 27  1  0
 12 30  1  0
 30 13  1  6
 17 18  2  0
 17 19  1  0
 20 21  2  0
 23 24  1  0
 27 28  1  0
 27 29  2  0
 30 31  2  0
 30 32  2  0
  1 33  1  0
  1 34  1  0
  1 35  1  0
  3 36  1  0
  5 37  1  0
  9 38  1  0
 11 39  1  0
 11 40  1  0
 13 41  1  0
 13 42  1  0
 13 43  1  0
 19 44  1  0
 20 45  1  0
 21 46  1  0
 23 47  1  0
 23 48  1  0
 25 49  1  0
 25 50  1  0
 26 51  1  0
 26 52  1  0
 26 53  1  0
 28 54  1  0
 28 55  1  0
 29 56  1  0
M  CHG  1  29   1
M  END
>  <filename_input>  (8) 
7N4N_0BK_docked.sdf

>  <pdb_id>  (8) 
7N4N_0BK

>  <pose_rank>  (8) 
7

>  <num_atoms_heavy>  (8) 
32

>  <num_torsions>  (8) 
6

>  <pose>  (8) 
[19.98157396780793, -7.6927883717888035, -18.23432732587616, -1.3860517056696022, -3.2687409902529794, 3.595350216102811, -0.38322964752039673, 0.4571912657431064, 1.230032797178677, 5.487566699965919, -0.5589926821369557, 1.9608701098754215]

>  <energy>  (8) 
-639.5630912955334

>  <inter_energy>  (8) 
-672.0080611887286

>  <intra_energy>  (8) 
33.94080232972923

>  <rmsd>  (8) 
3.73977

>  <sdf_rank>  (8) 
0

$$$$

     RDKit          3D

 56 58  0  0  0  0  0  0  0  0999 V2000
   26.0587   -2.2697  -24.7018 C   0  0  0  0  0  0  0  0  0  0  0  0
   24.9910   -3.6944  -23.0718 C   0  0  0  0  0  0  0  0  0  0  0  0
   24.0001   -4.6028  -22.6492 C   0  0  0  0  0  0  0  0  0  0  0  0
   24.0726   -5.0686  -21.3188 C   0  0  0  0  0  0  0  0  0  0  0  0
   25.9896   -3.8008  -21.0168 C   0  0  0  0  0  0  0  0  0  0  0  0
   20.8047   -6.0015  -19.6512 C   0  0  0  0  0  0  0  0  0  0  0  0
   18.7301   -7.2597  -18.2722 C   0  0  0  0  0  0  0  0  0  0  0  0
   20.0281   -7.3434  -17.7432 C   0  0  0  0  0  0  0  0  0  0  0  0
   21.0254   -6.6954  -18.4541 C   0  0  0  0  0  0  0  0  0  0  0  0
   20.3179   -8.0719  -16.4233 C   0  0  2  0  0  0  0  0  0  0  0  0
   21.6328  -10.0028  -17.4767 C   0  0  0  0  0  0  0  0  0  0  0  0
   20.7057  -11.0880  -16.8781 C   0  0  2  0  0  0  0  0  0  0  0  0
   23.0723  -12.8177  -16.0387 C   0  0  0  0  0  0  0  0  0  0  0  0
   24.9809   -3.1698  -24.3190 O   0  0  0  0  0  0  0  0  0  0  0  0
   25.0857   -4.6466  -20.5566 N   0  0  0  0  0  0  0  0  0  0  0  0
   25.9588   -3.3322  -22.2385 N   0  0  0  0  0  0  0  0  0  0  0  0
   23.0586   -5.9772  -20.7300 C   0  0  0  0  0  0  0  0  0  0  0  0
   23.2248   -7.2030  -20.7442 O   0  0  0  0  0  0  0  0  0  0  0  0
   21.9415   -5.3964  -20.2553 N   0  0  0  0  0  0  0  0  0  0  0  0
   19.4901   -5.9483  -20.1363 C   0  0  0  0  0  0  0  0  0  0  0  0
   18.4782   -6.5943  -19.4567 C   0  0  0  0  0  0  0  0  0  0  0  0
   17.6682   -7.8334  -17.6360 F   0  0  0  0  0  0  0  0  0  0  0  0
   20.2589   -7.1190  -15.2308 C   0  0  0  0  0  0  0  0  0  0  0  0
   21.5495   -6.9463  -14.7153 F   0  0  0  0  0  0  0  0  0  0  0  0
   21.6906   -8.7668  -16.5446 C   0  0  0  0  0  0  0  0  0  0  0  0
   20.3669  -12.0961  -17.9832 C   0  0  0  0  0  0  0  0  0  0  0  0
   19.4439  -10.3913  -16.3841 C   0  0  0  0  0  0  0  0  0  0  0  0
   18.3704  -11.1853  -16.1234 N   0  0  0  0  0  0  0  0  0  0  0  0
   19.3216   -9.1176  -16.1420 N   0  0  0  0  0  0  0  0  0  0  0  0
   21.5769  -11.9316  -15.4638 S   0  0  2  0  0  0  0  0  0  0  0  0
   20.8030  -12.9813  -14.8825 O   0  0  0  0  0  0  0  0  0  0  0  0
   22.0779  -10.9226  -14.5946 O   0  0  0  0  0  0  0  0  0  0  0  0
   26.5396   -1.8682  -23.7976 H   0  0  0  0  0  0  0  0  0  0  0  0
   26.8013   -2.8198  -25.2985 H   0  0  0  0  0  0  0  0  0  0  0  0
   25.6500   -1.4410  -25.2985 H   0  0  0  0  0  0  0  0  0  0  0  0
   23.2019   -4.9356  -23.3290 H   0  0  0  0  0  0  0  0  0  0  0  0
   26.8002   -3.4775  -20.3472 H   0  0  0  0  0  0  0  0  0  0  0  0
   22.0501   -6.7276  -18.0554 H   0  0  0  0  0  0  0  0  0  0  0  0
   22.6455  -10.4158  -17.5939 H   0  0  0  0  0  0  0  0  0  0  0  0
   21.2347   -9.6936  -18.4544 H   0  0  0  0  0  0  0  0  0  0  0  0
   23.6520  -13.1612  -15.1691 H   0  0  0  0  0  0  0  0  0  0  0  0
   22.7739  -13.6849  -16.6461 H   0  0  0  0  0  0  0  0  0  0  0  0
   23.6896  -12.1395  -16.6461 H   0  0  0  0  0  0  0  0  0  0  0  0
   21.9044   -4.3707  -20.3414 H   0  0  0  0  0  0  0  0  0  0  0  0
   19.2658   -5.3918  -21.0582 H   0  0  0  0  0  0  0  0  0  0  0  0
   17.4563   -6.5795  -19.8636 H   0  0  0  0  0  0  0  0  0  0  0  0
   19.8595   -6.1470  -15.5560 H   0  0  0  0  0  0  0  0  0  0  0  0
   19.6037   -7.5394  -14.4537 H   0  0  0  0  0  0  0  0  0  0  0  0
   22.4179   -8.0486  -16.9511 H   0  0  0  0  0  0  0  0  0  0  0  0
   21.9886   -9.1094  -15.5427 H   0  0  0  0  0  0  0  0  0  0  0  0
   20.0478  -13.0455  -17.5283 H   0  0  0  0  0  0  0  0  0  0  0  0
   19.5536  -11.6968  -18.6070 H   0  0  0  0  0  0  0  0  0  0  0  0
   21.2562  -12.2692  -18.6070 H   0  0  0  0  0  0  0  0  0  0  0  0
   17.4909  -10.7682  -15.7870 H   0  0  0  0  0  0  0  0  0  0  0  0
   18.4373  -12.2037  -16.2625 H   0  0  0  0  0  0  0  0  0  0  0  0
   18.4383   -8.8112  -15.7099 H   0  0  0  0  0  0  0  0  0  0  0  0
  1 14  1  0
  2  3  2  0
  2 14  1  0
  2 16  1  0
  3  4  1  0
  4 15  2  0
  4 17  1  0
  5 15  1  0
  5 16  2  0
  6  9  2  0
  6 19  1  0
  6 20  1  0
  7  8  2  0
  7 21  1  0
  7 22  1  0
  8  9  1  0
  8 10  1  0
 10 23  1  1
 10 25  1  0
 10 29  1  0
 11 12  1  0
 11 25  1  0
 12 26  1  6
 12 27  1  0
 12 30  1  0
 30 13  1  6
 17 18  2  0
 17 19  1  0
 20 21  2  0
 23 24  1  0
 27 28  1  0
 27 29  2  0
 30 31  2  0
 30 32  2  0
  1 33  1  0
  1 34  1  0
  1 35  1  0
  3 36  1  0
  5 37  1  0
  9 38  1  0
 11 39  1  0
 11 40  1  0
 13 41  1  0
 13 42  1  0
 13 43  1  0
 19 44  1  0
 20 45  1  0
 21 46  1  0
 23 47  1  0
 23 48  1  0
 25 49  1  0
 25 50  1  0
 26 51  1  0
 26 52  1  0
 26 53  1  0
 28 54  1  0
 28 55  1  0
 29 56  1  0
M  CHG  1  29   1
M  END
>  <filename_input>  (9) 
7N4N_0BK_docked.sdf

>  <pdb_id>  (9) 
7N4N_0BK

>  <pose_rank>  (9) 
8

>  <num_atoms_heavy>  (9) 
32

>  <num_torsions>  (9) 
6

>  <pose>  (9) 
[20.80465471522379, -6.00149649822173, -19.651184116985345, -3.7414954147193766, -0.26858020315058734, -0.9588318144358077, -2.635535142324677, 1.874589842756183, 1.1269532979467654, -2.015587202823837, 1.460329293968978, 0.015692521328356166]

>  <energy>  (9) 
-633.9200667345237

>  <inter_energy>  (9) 
-684.9694640355243

>  <intra_energy>  (9) 
38.195069208121694

>  <rmsd>  (9) 
8.33489

>  <sdf_rank>  (9) 
0

$$$$

     RDKit          3D

 56 58  0  0  0  0  0  0  0  0999 V2000
   24.9596   -2.3564  -24.9648 C   0  0  0  0  0  0  0  0  0  0  0  0
   24.5953   -3.0925  -22.6950 C   0  0  0  0  0  0  0  0  0  0  0  0
   23.8105   -3.6388  -21.6599 C   0  0  0  0  0  0  0  0  0  0  0  0
   24.3611   -3.6395  -20.3603 C   0  0  0  0  0  0  0  0  0  0  0  0
   26.2835   -2.6642  -21.2125 C   0  0  0  0  0  0  0  0  0  0  0  0
   21.3207   -4.6962  -18.3678 C   0  0  0  0  0  0  0  0  0  0  0  0
   19.4722   -5.8106  -16.5987 C   0  0  0  0  0  0  0  0  0  0  0  0
   20.0920   -6.6554  -17.5334 C   0  0  0  0  0  0  0  0  0  0  0  0
   21.0105   -6.0625  -18.3847 C   0  0  0  0  0  0  0  0  0  0  0  0
   19.8036   -8.1627  -17.5771 C   0  0  2  0  0  0  0  0  0  0  0  0
   19.3240   -8.2616  -20.0925 C   0  0  0  0  0  0  0  0  0  0  0  0
   17.9133   -8.8678  -19.8975 C   0  0  2  0  0  0  0  0  0  0  0  0
   18.4109  -11.7068  -18.9026 C   0  0  0  0  0  0  0  0  0  0  0  0
   24.1350   -3.0194  -23.9653 O   0  0  0  0  0  0  0  0  0  0  0  0
   25.5951   -3.1535  -20.1973 N   0  0  0  0  0  0  0  0  0  0  0  0
   25.8122   -2.6313  -22.4331 N   0  0  0  0  0  0  0  0  0  0  0  0
   23.6167   -4.1268  -19.1733 C   0  0  0  0  0  0  0  0  0  0  0  0
   24.2168   -4.4564  -18.1430 O   0  0  0  0  0  0  0  0  0  0  0  0
   22.2842   -4.2503  -19.3144 N   0  0  0  0  0  0  0  0  0  0  0  0
   20.6735   -3.8967  -17.4147 C   0  0  0  0  0  0  0  0  0  0  0  0
   19.7449   -4.4565  -16.5619 C   0  0  0  0  0  0  0  0  0  0  0  0
   18.5761   -6.2957  -15.6913 F   0  0  0  0  0  0  0  0  0  0  0  0
   20.4679   -8.8958  -16.4132 C   0  0  0  0  0  0  0  0  0  0  0  0
   21.5116   -9.6896  -16.9048 F   0  0  0  0  0  0  0  0  0  0  0  0
   20.2665   -8.7051  -18.9458 C   0  0  0  0  0  0  0  0  0  0  0  0
   16.9329   -8.1083  -20.8000 C   0  0  0  0  0  0  0  0  0  0  0  0
   17.5375   -8.6915  -18.4314 C   0  0  0  0  0  0  0  0  0  0  0  0
   16.2248   -8.8552  -18.1139 N   0  0  0  0  0  0  0  0  0  0  0  0
   18.3659   -8.4512  -17.4557 N   0  0  0  0  0  0  0  0  0  0  0  0
   17.9520  -10.6759  -20.3444 S   0  0  2  0  0  0  0  0  0  0  0  0
   18.9772  -10.9927  -21.2865 O   0  0  0  0  0  0  0  0  0  0  0  0
   16.6231  -11.0779  -20.6559 O   0  0  0  0  0  0  0  0  0  0  0  0
   25.7224   -1.7432  -24.4627 H   0  0  0  0  0  0  0  0  0  0  0  0
   25.4525   -3.1125  -25.5936 H   0  0  0  0  0  0  0  0  0  0  0  0
   24.3270   -1.7126  -25.5936 H   0  0  0  0  0  0  0  0  0  0  0  0
   22.8088   -4.0483  -21.8569 H   0  0  0  0  0  0  0  0  0  0  0  0
   27.2927   -2.2688  -21.0250 H   0  0  0  0  0  0  0  0  0  0  0  0
   21.5263   -6.7017  -19.1164 H   0  0  0  0  0  0  0  0  0  0  0  0
   19.7360   -8.6043  -21.0531 H   0  0  0  0  0  0  0  0  0  0  0  0
   19.2448   -7.1645  -20.0846 H   0  0  0  0  0  0  0  0  0  0  0  0
   18.1707  -11.1671  -17.9747 H   0  0  0  0  0  0  0  0  0  0  0  0
   17.8484  -12.6515  -18.9334 H   0  0  0  0  0  0  0  0  0  0  0  0
   19.4894  -11.9210  -18.9334 H   0  0  0  0  0  0  0  0  0  0  0  0
   21.9097   -3.9848  -20.2365 H   0  0  0  0  0  0  0  0  0  0  0  0
   20.9061   -2.8237  -17.3472 H   0  0  0  0  0  0  0  0  0  0  0  0
   19.2141   -3.8159  -15.8423 H   0  0  0  0  0  0  0  0  0  0  0  0
   20.8688   -8.1629  -15.6975 H   0  0  0  0  0  0  0  0  0  0  0  0
   19.7274   -9.5315  -15.9058 H   0  0  0  0  0  0  0  0  0  0  0  0
   21.2795   -8.3296  -19.1529 H   0  0  0  0  0  0  0  0  0  0  0  0
   20.2524   -9.8040  -18.8991 H   0  0  0  0  0  0  0  0  0  0  0  0
   16.2161   -7.5531  -20.1772 H   0  0  0  0  0  0  0  0  0  0  0  0
   17.4898   -7.4036  -21.4350 H   0  0  0  0  0  0  0  0  0  0  0  0
   16.3898   -8.8237  -21.4350 H   0  0  0  0  0  0  0  0  0  0  0  0
   15.9137   -8.7479  -17.1379 H   0  0  0  0  0  0  0  0  0  0  0  0
   15.5419   -9.0865  -18.8496 H   0  0  0  0  0  0  0  0  0  0  0  0
   17.9752   -8.4645  -16.5028 H   0  0  0  0  0  0  0  0  0  0  0  0
  1 14  1  0
  2  3  2  0
  2 14  1  0
  2 16  1  0
  3  4  1  0
  4 15  2  0
  4 17  1  0
  5 15  1  0
  5 16  2  0
  6  9  2  0
  6 19  1  0
  6 20  1  0
  7  8  2  0
  7 21  1  0
  7 22  1  0
  8  9  1  0
  8 10  1  0
 10 23  1  1
 10 25  1  0
 10 29  1  0
 11 12  1  0
 11 25  1  0
 12 26  1  6
 12 27  1  0
 12 30  1  0
 30 13  1  1
 17 18  2  0
 17 19  1  0
 20 21  2  0
 23 24  1  0
 27 28  1  0
 27 29  2  0
 30 31  2  0
 30 32  2  0
  1 33  1  0
  1 34  1  0
  1 35  1  0
  3 36  1  0
  5 37  1  0
  9 38  1  0
 11 39  1  0
 11 40  1  0
 13 41  1  0
 13 42  1  0
 13 43  1  0
 19 44  1  0
 20 45  1  0
 21 46  1  0
 23 47  1  0
 23 48  1  0
 25 49  1  0
 25 50  1  0
 26 51  1  0
 26 52  1  0
 26 53  1  0
 28 54  1  0
 28 55  1  0
 29 56  1  0
M  CHG  1  29   1
M  END
>  <filename_input>  (10) 
7N4N_0BK_docked.sdf

>  <pdb_id>  (10) 
7N4N_0BK

>  <pose_rank>  (10) 
9

>  <num_atoms_heavy>  (10) 
32

>  <num_torsions>  (10) 
6

>  <pose>  (10) 
[21.320683244640417, -4.696198087093149, -18.367772598058774, 3.0494713198273007, -0.9268123392603737, -0.819841793327405, -2.3183855900595853, -1.760985320333876, 1.1335487222813674, 1.5724892753869568, -3.6638331627953438, -0.0932763931309113]

>  <energy>  (10) 
-597.7291435713809

>  <inter_energy>  (10) 
-599.7465958758546

>  <intra_energy>  (10) 
20.207065977212352

>  <rmsd>  (10) 
8.5575

>  <sdf_rank>  (10) 
0

$$$$

     RDKit          3D

 56 58  0  0  0  0  0  0  0  0999 V2000
   21.6180  -14.9177  -16.0867 C   0  0  0  0  0  0  0  0  0  0  0  0
   21.1694  -12.7525  -17.0549 C   0  0  0  0  0  0  0  0  0  0  0  0
   21.1524  -11.3765  -16.7513 C   0  0  0  0  0  0  0  0  0  0  0  0
   20.1588  -10.5883  -17.3707 C   0  0  0  0  0  0  0  0  0  0  0  0
   19.3960  -12.4793  -18.4732 C   0  0  0  0  0  0  0  0  0  0  0  0
   20.3796   -6.8736  -18.0657 C   0  0  0  0  0  0  0  0  0  0  0  0
   20.5417   -4.0914  -18.2116 C   0  0  0  0  0  0  0  0  0  0  0  0
   21.6556   -4.8451  -18.6151 C   0  0  0  0  0  0  0  0  0  0  0  0
   21.5276   -6.2226  -18.5364 C   0  0  0  0  0  0  0  0  0  0  0  0
   22.9277   -4.1803  -19.1596 C   0  0  2  0  0  0  0  0  0  0  0  0
   22.2099   -4.2240  -21.6192 C   0  0  0  0  0  0  0  0  0  0  0  0
   23.4615   -5.0150  -22.0704 C   0  0  2  0  0  0  0  0  0  0  0  0
   25.9475   -3.2656  -21.8321 C   0  0  0  0  0  0  0  0  0  0  0  0
   22.0646  -13.5899  -16.4818 O   0  0  0  0  0  0  0  0  0  0  0  0
   19.3206  -11.1846  -18.2234 N   0  0  0  0  0  0  0  0  0  0  0  0
   20.2918  -13.2537  -17.9155 N   0  0  0  0  0  0  0  0  0  0  0  0
   19.9916   -9.1413  -17.0902 C   0  0  0  0  0  0  0  0  0  0  0  0
   19.4309   -8.7592  -16.0558 O   0  0  0  0  0  0  0  0  0  0  0  0
   20.4167   -8.2954  -18.0464 N   0  0  0  0  0  0  0  0  0  0  0  0
   19.2957   -6.0742  -17.6752 C   0  0  0  0  0  0  0  0  0  0  0  0
   19.3980   -4.6996  -17.7307 C   0  0  0  0  0  0  0  0  0  0  0  0
   20.5474   -2.7286  -18.2788 F   0  0  0  0  0  0  0  0  0  0  0  0
   23.6284   -3.3464  -18.0886 C   0  0  0  0  0  0  0  0  0  0  0  0
   24.9210   -3.8466  -17.8884 F   0  0  0  0  0  0  0  0  0  0  0  0
   22.5435   -3.3370  -20.3937 C   0  0  0  0  0  0  0  0  0  0  0  0
   23.0076   -6.1462  -23.0014 C   0  0  0  0  0  0  0  0  0  0  0  0
   24.1200   -5.5832  -20.8194 C   0  0  0  0  0  0  0  0  0  0  0  0
   25.0366   -6.5710  -21.0071 N   0  0  0  0  0  0  0  0  0  0  0  0
   23.9214   -5.1722  -19.5997 N   0  0  0  0  0  0  0  0  0  0  0  0
   24.6315   -3.8659  -22.9545 S   0  0  2  0  0  0  0  0  0  0  0  0
   24.0069   -2.6517  -23.3718 O   0  0  0  0  0  0  0  0  0  0  0  0
   25.3265   -4.6222  -23.9391 O   0  0  0  0  0  0  0  0  0  0  0  0
   21.5953  -14.9853  -14.9890 H   0  0  0  0  0  0  0  0  0  0  0  0
   20.6094  -15.0993  -16.4862 H   0  0  0  0  0  0  0  0  0  0  0  0
   22.3119  -15.6719  -16.4862 H   0  0  0  0  0  0  0  0  0  0  0  0
   21.8843  -10.9344  -16.0593 H   0  0  0  0  0  0  0  0  0  0  0  0
   18.6778  -12.9243  -19.1775 H   0  0  0  0  0  0  0  0  0  0  0  0
   22.3768   -6.8411  -18.8624 H   0  0  0  0  0  0  0  0  0  0  0  0
   21.8675   -3.5850  -22.4465 H   0  0  0  0  0  0  0  0  0  0  0  0
   21.4198   -4.9363  -21.3393 H   0  0  0  0  0  0  0  0  0  0  0  0
   25.6326   -3.4092  -20.7879 H   0  0  0  0  0  0  0  0  0  0  0  0
   26.8730   -3.8305  -22.0170 H   0  0  0  0  0  0  0  0  0  0  0  0
   26.1275   -2.1963  -22.0170 H   0  0  0  0  0  0  0  0  0  0  0  0
   20.8261   -8.7395  -18.8808 H   0  0  0  0  0  0  0  0  0  0  0  0
   18.3644   -6.5430  -17.3248 H   0  0  0  0  0  0  0  0  0  0  0  0
   18.5572   -4.0790  -17.3873 H   0  0  0  0  0  0  0  0  0  0  0  0
   23.6863   -2.2984  -18.4177 H   0  0  0  0  0  0  0  0  0  0  0  0
   23.0611   -3.4010  -17.1478 H   0  0  0  0  0  0  0  0  0  0  0  0
   21.6626   -2.7263  -20.1467 H   0  0  0  0  0  0  0  0  0  0  0  0
   23.4044   -2.7044  -20.6554 H   0  0  0  0  0  0  0  0  0  0  0  0
   22.6647   -7.0009  -22.3998 H   0  0  0  0  0  0  0  0  0  0  0  0
   22.1828   -5.7901  -23.6360 H   0  0  0  0  0  0  0  0  0  0  0  0
   23.8499   -6.4589  -23.6360 H   0  0  0  0  0  0  0  0  0  0  0  0
   25.5132   -6.9920  -20.1969 H   0  0  0  0  0  0  0  0  0  0  0  0
   25.2538   -6.8978  -21.9594 H   0  0  0  0  0  0  0  0  0  0  0  0
   24.5203   -5.5831  -18.8694 H   0  0  0  0  0  0  0  0  0  0  0  0
  1 14  1  0
  2  3  2  0
  2 14  1  0
  2 16  1  0
  3  4  1  0
  4 15  2  0
  4 17  1  0
  5 15  1  0
  5 16  2  0
  6  9  2  0
  6 19  1  0
  6 20  1  0
  7  8  2  0
  7 21  1  0
  7 22  1  0
  8  9  1  0
  8 10  1  0
 10 23  1  1
 10 25  1  0
 10 29  1  0
 11 12  1  0
 11 25  1  0
 12 26  1  6
 12 27  1  0
 12 30  1  0
 30 13  1  1
 17 18  2  0
 17 19  1  0
 20 21  2  0
 23 24  1  0
 27 28  1  0
 27 29  2  0
 30 31  2  0
 30 32  2  0
  1 33  1  0
  1 34  1  0
  1 35  1  0
  3 36  1  0
  5 37  1  0
  9 38  1  0
 11 39  1  0
 11 40  1  0
 13 41  1  0
 13 42  1  0
 13 43  1  0
 19 44  1  0
 20 45  1  0
 21 46  1  0
 23 47  1  0
 23 48  1  0
 25 49  1  0
 25 50  1  0
 26 51  1  0
 26 52  1  0
 26 53  1  0
 28 54  1  0
 28 55  1  0
 29 56  1  0
M  CHG  1  29   1
M  END
>  <filename_input>  (11) 
7N4N_0BK_docked.sdf

>  <pdb_id>  (11) 
7N4N_0BK

>  <pose_rank>  (11) 
10

>  <num_atoms_heavy>  (11) 
32

>  <num_torsions>  (11) 
6

>  <pose>  (11) 
[20.37959466353958, -6.873573322000966, -18.0657320355877, -1.0204984074716625, -2.6833740364730834, 4.432803960873643, 0.11794869446163159, -1.5972064234121506, -1.129705866192728, -0.7090038782202971, -1.53475140791035, -0.7039924746867003]

>  <energy>  (11) 
-687.8298984856664

>  <inter_energy>  (11) 
-717.2076678569878

>  <intra_energy>  (11) 
19.505670220355736

>  <rmsd>  (11) 
3.52177

>  <sdf_rank>  (11) 
0

$$$$

     RDKit          3D

 56 58  0  0  0  0  0  0  0  0999 V2000
   25.7006   -3.5278  -25.3367 C   0  0  0  0  0  0  0  0  0  0  0  0
   24.1865   -4.6284  -23.8126 C   0  0  0  0  0  0  0  0  0  0  0  0
   23.7354   -4.7760  -22.4858 C   0  0  0  0  0  0  0  0  0  0  0  0
   23.2053   -6.0311  -22.1172 C   0  0  0  0  0  0  0  0  0  0  0  0
   23.5677   -6.7799  -24.2808 C   0  0  0  0  0  0  0  0  0  0  0  0
   20.7039   -6.5883  -19.3310 C   0  0  0  0  0  0  0  0  0  0  0  0
   19.1948   -7.3112  -17.0975 C   0  0  0  0  0  0  0  0  0  0  0  0
   19.0696   -8.0832  -18.2637 C   0  0  0  0  0  0  0  0  0  0  0  0
   19.8450   -7.6952  -19.3446 C   0  0  0  0  0  0  0  0  0  0  0  0
   18.1601   -9.3186  -18.3220 C   0  0  2  0  0  0  0  0  0  0  0  0
   19.3460  -10.6018  -16.4476 C   0  0  0  0  0  0  0  0  0  0  0  0
   19.6330  -11.8329  -17.3407 C   0  0  2  0  0  0  0  0  0  0  0  0
   16.7278  -12.7229  -17.0857 C   0  0  0  0  0  0  0  0  0  0  0  0
   24.7403   -3.4717  -24.2445 O   0  0  0  0  0  0  0  0  0  0  0  0
   23.1363   -6.9857  -23.0497 N   0  0  0  0  0  0  0  0  0  0  0  0
   24.0773   -5.6380  -24.6675 N   0  0  0  0  0  0  0  0  0  0  0  0
   22.7539   -6.3382  -20.7379 C   0  0  0  0  0  0  0  0  0  0  0  0
   23.5694   -6.6475  -19.8607 O   0  0  0  0  0  0  0  0  0  0  0  0
   21.4247   -6.3269  -20.5291 N   0  0  0  0  0  0  0  0  0  0  0  0
   20.7917   -5.8511  -18.1414 C   0  0  0  0  0  0  0  0  0  0  0  0
   20.0227   -6.2059  -17.0525 C   0  0  0  0  0  0  0  0  0  0  0  0
   18.5022   -7.6237  -15.9642 F   0  0  0  0  0  0  0  0  0  0  0  0
   16.7963   -8.9843  -18.9234 C   0  0  0  0  0  0  0  0  0  0  0  0
   16.6568   -9.6511  -20.1470 F   0  0  0  0  0  0  0  0  0  0  0  0
   18.0404   -9.8998  -16.8974 C   0  0  0  0  0  0  0  0  0  0  0  0
   21.0932  -12.2521  -17.1297 C   0  0  0  0  0  0  0  0  0  0  0  0
   19.4001  -11.4140  -18.7870 C   0  0  0  0  0  0  0  0  0  0  0  0
   19.9036  -12.2342  -19.7486 N   0  0  0  0  0  0  0  0  0  0  0  0
   18.7210  -10.3745  -19.1796 N   0  0  0  0  0  0  0  0  0  0  0  0
   18.4776  -13.2172  -16.8722 S   0  0  2  0  0  0  0  0  0  0  0  0
   18.5369  -13.5432  -15.4833 O   0  0  0  0  0  0  0  0  0  0  0  0
   18.6611  -14.2749  -17.8062 O   0  0  0  0  0  0  0  0  0  0  0  0
   26.7195   -3.5874  -24.9264 H   0  0  0  0  0  0  0  0  0  0  0  0
   25.5017   -4.4159  -25.9546 H   0  0  0  0  0  0  0  0  0  0  0  0
   25.6065   -2.6227  -25.9546 H   0  0  0  0  0  0  0  0  0  0  0  0
   23.7941   -3.9462  -21.7661 H   0  0  0  0  0  0  0  0  0  0  0  0
   23.4960   -7.6004  -25.0099 H   0  0  0  0  0  0  0  0  0  0  0  0
   19.7826   -8.2911  -20.2671 H   0  0  0  0  0  0  0  0  0  0  0  0
   19.2400  -10.9290  -15.4027 H   0  0  0  0  0  0  0  0  0  0  0  0
   20.1818   -9.8925  -16.5390 H   0  0  0  0  0  0  0  0  0  0  0  0
   16.2610  -12.5910  -16.0984 H   0  0  0  0  0  0  0  0  0  0  0  0
   16.6797  -11.7760  -17.6435 H   0  0  0  0  0  0  0  0  0  0  0  0
   16.1913  -13.5046  -17.6435 H   0  0  0  0  0  0  0  0  0  0  0  0
   20.8488   -6.0970  -21.3516 H   0  0  0  0  0  0  0  0  0  0  0  0
   21.4735   -4.9903  -18.0765 H   0  0  0  0  0  0  0  0  0  0  0  0
   20.0693   -5.6003  -16.1354 H   0  0  0  0  0  0  0  0  0  0  0  0
   16.0014   -9.3078  -18.2353 H   0  0  0  0  0  0  0  0  0  0  0  0
   16.7188   -7.8987  -19.0832 H   0  0  0  0  0  0  0  0  0  0  0  0
   17.8173   -9.0814  -16.1971 H   0  0  0  0  0  0  0  0  0  0  0  0
   17.2350  -10.6491  -16.9018 H   0  0  0  0  0  0  0  0  0  0  0  0
   21.3051  -12.3130  -16.0521 H   0  0  0  0  0  0  0  0  0  0  0  0
   21.2629  -13.2353  -17.5929 H   0  0  0  0  0  0  0  0  0  0  0  0
   21.7586  -11.5088  -17.5929 H   0  0  0  0  0  0  0  0  0  0  0  0
   19.7759  -12.0004  -20.7436 H   0  0  0  0  0  0  0  0  0  0  0  0
   20.4124  -13.0890  -19.4817 H   0  0  0  0  0  0  0  0  0  0  0  0
   18.5604  -10.2821  -20.1928 H   0  0  0  0  0  0  0  0  0  0  0  0
  1 14  1  0
  2  3  2  0
  2 14  1  0
  2 16  1  0
  3  4  1  0
  4 15  2  0
  4 17  1  0
  5 15  1  0
  5 16  2  0
  6  9  2  0
  6 19  1  0
  6 20  1  0
  7  8  2  0
  7 21  1  0
  7 22  1  0
  8  9  1  0
  8 10  1  0
 10 23  1  6
 10 25  1  0
 10 29  1  0
 11 12  1  0
 11 25  1  0
 12 26  1  6
 12 27  1  0
 12 30  1  0
 30 13  1  1
 17 18  2  0
 17 19  1  0
 20 21  2  0
 23 24  1  0
 27 28  1  0
 27 29  2  0
 30 31  2  0
 30 32  2  0
  1 33  1  0
  1 34  1  0
  1 35  1  0
  3 36  1  0
  5 37  1  0
  9 38  1  0
 11 39  1  0
 11 40  1  0
 13 41  1  0
 13 42  1  0
 13 43  1  0
 19 44  1  0
 20 45  1  0
 21 46  1  0
 23 47  1  0
 23 48  1  0
 25 49  1  0
 25 50  1  0
 26 51  1  0
 26 52  1  0
 26 53  1  0
 28 54  1  0
 28 55  1  0
 29 56  1  0
M  CHG  1  29   1
M  END
>  <filename_input>  (12) 
7N4N_0BK_docked.sdf

>  <pdb_id>  (12) 
7N4N_0BK

>  <pose_rank>  (12) 
11

>  <num_atoms_heavy>  (12) 
32

>  <num_torsions>  (12) 
6

>  <pose>  (12) 
[20.703857571101047, -6.588290625555999, -19.33096683535581, -2.2280513199664305, 1.3099461963999492, 1.1769661372756974, -5.625067965354177, -2.2585079016934455, -1.2371117050414968, 1.1413150210715381, 4.698684072693051, -0.4975486755438905]

>  <energy>  (12) 
-515.1840279437648

>  <inter_energy>  (12) 
-577.0352241051421

>  <intra_energy>  (12) 
53.07981326562615

>  <rmsd>  (12) 
8.823

>  <sdf_rank>  (12) 
0

$$$$

     RDKit          3D

 56 58  0  0  0  0  0  0  0  0999 V2000
   19.1550    0.5999  -26.9894 C   0  0  0  0  0  0  0  0  0  0  0  0
   21.3922    0.0168  -26.2955 C   0  0  0  0  0  0  0  0  0  0  0  0
   22.3681   -0.9201  -25.9008 C   0  0  0  0  0  0  0  0  0  0  0  0
   23.5334   -0.4202  -25.2809 C   0  0  0  0  0  0  0  0  0  0  0  0
   22.7043    1.7294  -25.5362 C   0  0  0  0  0  0  0  0  0  0  0  0
   25.0165   -3.2656  -23.2722 C   0  0  0  0  0  0  0  0  0  0  0  0
   26.3499   -5.3088  -21.9174 C   0  0  0  0  0  0  0  0  0  0  0  0
   24.9584   -5.2044  -21.7616 C   0  0  0  0  0  0  0  0  0  0  0  0
   24.3358   -4.1827  -22.4606 C   0  0  0  0  0  0  0  0  0  0  0  0
   24.1640   -6.1982  -20.9023 C   0  0  2  0  0  0  0  0  0  0  0  0
   22.2504   -4.5872  -20.3458 C   0  0  0  0  0  0  0  0  0  0  0  0
   22.4401   -4.7372  -18.8171 C   0  0  2  0  0  0  0  0  0  0  0  0
   21.6794   -7.4811  -17.7265 C   0  0  0  0  0  0  0  0  0  0  0  0
   20.2294   -0.3743  -26.8662 O   0  0  0  0  0  0  0  0  0  0  0  0
   23.6526    0.9026  -25.1346 N   0  0  0  0  0  0  0  0  0  0  0  0
   21.6016    1.3138  -26.1056 N   0  0  0  0  0  0  0  0  0  0  0  0
   24.6080   -1.3016  -24.7624 C   0  0  0  0  0  0  0  0  0  0  0  0
   25.7750   -1.1705  -25.1512 O   0  0  0  0  0  0  0  0  0  0  0  0
   24.2245   -2.2746  -23.9157 N   0  0  0  0  0  0  0  0  0  0  0  0
   26.4055   -3.4142  -23.3936 C   0  0  0  0  0  0  0  0  0  0  0  0
   27.0548   -4.4144  -22.7000 C   0  0  0  0  0  0  0  0  0  0  0  0
   27.0589   -6.2982  -21.3007 F   0  0  0  0  0  0  0  0  0  0  0  0
   24.5009   -7.6446  -21.2599 C   0  0  0  0  0  0  0  0  0  0  0  0
   24.0960   -7.8996  -22.5760 F   0  0  0  0  0  0  0  0  0  0  0  0
   22.6609   -5.8924  -21.0724 C   0  0  0  0  0  0  0  0  0  0  0  0
   22.4075   -3.3391  -18.1874 C   0  0  0  0  0  0  0  0  0  0  0  0
   23.7940   -5.3968  -18.5859 C   0  0  0  0  0  0  0  0  0  0  0  0
   24.3000   -5.3262  -17.3250 N   0  0  0  0  0  0  0  0  0  0  0  0
   24.4789   -6.0622  -19.4714 N   0  0  0  0  0  0  0  0  0  0  0  0
   21.0744   -5.8003  -18.1276 S   0  0  2  0  0  0  0  0  0  0  0  0
   20.0431   -6.0646  -19.0791 O   0  0  0  0  0  0  0  0  0  0  0  0
   20.6884   -5.2558  -16.8710 O   0  0  0  0  0  0  0  0  0  0  0  0
   18.8194    0.9042  -25.9870 H   0  0  0  0  0  0  0  0  0  0  0  0
   19.5202    1.4811  -27.5371 H   0  0  0  0  0  0  0  0  0  0  0  0
   18.3136    0.1505  -27.5371 H   0  0  0  0  0  0  0  0  0  0  0  0
   22.2272   -1.9979  -26.0691 H   0  0  0  0  0  0  0  0  0  0  0  0
   22.8468    2.8098  -25.3862 H   0  0  0  0  0  0  0  0  0  0  0  0
   23.2436   -4.0860  -22.3731 H   0  0  0  0  0  0  0  0  0  0  0  0
   21.1935   -4.3703  -20.5602 H   0  0  0  0  0  0  0  0  0  0  0  0
   22.8860   -3.7643  -20.7049 H   0  0  0  0  0  0  0  0  0  0  0  0
   21.7236   -7.6039  -16.6343 H   0  0  0  0  0  0  0  0  0  0  0  0
   20.9940   -8.2288  -18.1521 H   0  0  0  0  0  0  0  0  0  0  0  0
   22.6841   -7.6205  -18.1521 H   0  0  0  0  0  0  0  0  0  0  0  0
   23.2170   -2.3062  -23.7041 H   0  0  0  0  0  0  0  0  0  0  0  0
   26.9772   -2.7335  -24.0416 H   0  0  0  0  0  0  0  0  0  0  0  0
   28.1490   -4.5011  -22.7709 H   0  0  0  0  0  0  0  0  0  0  0  0
   25.5859   -7.8023  -21.1716 H   0  0  0  0  0  0  0  0  0  0  0  0
   23.9776   -8.3265  -20.5735 H   0  0  0  0  0  0  0  0  0  0  0  0
   22.4386   -5.7874  -22.1446 H   0  0  0  0  0  0  0  0  0  0  0  0
   22.0921   -6.7227  -20.6285 H   0  0  0  0  0  0  0  0  0  0  0  0
   22.4097   -3.4305  -17.0912 H   0  0  0  0  0  0  0  0  0  0  0  0
   23.2927   -2.7710  -18.5097 H   0  0  0  0  0  0  0  0  0  0  0  0
   21.4969   -2.8129  -18.5097 H   0  0  0  0  0  0  0  0  0  0  0  0
   25.2119   -5.7548  -17.1112 H   0  0  0  0  0  0  0  0  0  0  0  0
   23.7712   -4.8442  -16.5841 H   0  0  0  0  0  0  0  0  0  0  0  0
   25.3267   -6.5417  -19.1363 H   0  0  0  0  0  0  0  0  0  0  0  0
  1 14  1  0
  2  3  2  0
  2 14  1  0
  2 16  1  0
  3  4  1  0
  4 15  2  0
  4 17  1  0
  5 15  1  0
  5 16  2  0
  6  9  2  0
  6 19  1  0
  6 20  1  0
  7  8  2  0
  7 21  1  0
  7 22  1  0
  8  9  1  0
  8 10  1  0
 10 23  1  6
 10 25  1  0
 10 29  1  0
 11 12  1  0
 11 25  1  0
 12 26  1  1
 12 27  1  0
 12 30  1  0
 30 13  1  1
 17 18  2  0
 17 19  1  0
 20 21  2  0
 23 24  1  0
 27 28  1  0
 27 29  2  0
 30 31  2  0
 30 32  2  0
  1 33  1  0
  1 34  1  0
  1 35  1  0
  3 36  1  0
  5 37  1  0
  9 38  1  0
 11 39  1  0
 11 40  1  0
 13 41  1  0
 13 42  1  0
 13 43  1  0
 19 44  1  0
 20 45  1  0
 21 46  1  0
 23 47  1  0
 23 48  1  0
 25 49  1  0
 25 50  1  0
 26 51  1  0
 26 52  1  0
 26 53  1  0
 28 54  1  0
 28 55  1  0
 29 56  1  0
M  CHG  1  29   1
M  END
>  <filename_input>  (13) 
7N4N_0BK_docked.sdf

>  <pdb_id>  (13) 
7N4N_0BK

>  <pose_rank>  (13) 
12

>  <num_atoms_heavy>  (13) 
32

>  <num_torsions>  (13) 
6

>  <pose>  (13) 
[25.0164769717095, -3.265598757435379, -23.27220916162603, 0.3113936435790043, -1.5172064587270586, -2.890895927953774, -1.9016400420171142, -1.4685166580033016, 1.9357998701539376, 0.07013207951716614, 1.9851730757293733, -0.24175650609460533]

>  <energy>  (13) 
-643.5927157773356

>  <inter_energy>  (13) 
-647.7506702186498

>  <intra_energy>  (13) 
47.06288278132382

>  <rmsd>  (13) 
11.1743

>  <sdf_rank>  (13) 
0

$$$$

     RDKit          3D

 56 58  0  0  0  0  0  0  0  0999 V2000
   27.4538   -4.8805  -23.4704 C   0  0  0  0  0  0  0  0  0  0  0  0
   25.7685   -5.6433  -21.9198 C   0  0  0  0  0  0  0  0  0  0  0  0
   24.4882   -6.2294  -21.9758 C   0  0  0  0  0  0  0  0  0  0  0  0
   23.5401   -5.8086  -21.0186 C   0  0  0  0  0  0  0  0  0  0  0  0
   25.1413   -4.4052  -20.1019 C   0  0  0  0  0  0  0  0  0  0  0  0
   20.3435   -7.1301  -19.4804 C   0  0  0  0  0  0  0  0  0  0  0  0
   17.8795   -8.3188  -18.9290 C   0  0  0  0  0  0  0  0  0  0  0  0
   18.8697   -9.0967  -19.5504 C   0  0  0  0  0  0  0  0  0  0  0  0
   20.0809   -8.4698  -19.7956 C   0  0  0  0  0  0  0  0  0  0  0  0
   18.6391  -10.5749  -19.8947 C   0  0  2  0  0  0  0  0  0  0  0  0
   18.1584  -11.3281  -17.4930 C   0  0  0  0  0  0  0  0  0  0  0  0
   19.2844  -12.3901  -17.4983 C   0  0  2  0  0  0  0  0  0  0  0  0
   16.7308  -14.0461  -17.3137 C   0  0  0  0  0  0  0  0  0  0  0  0
   26.7293   -5.9612  -22.8179 O   0  0  0  0  0  0  0  0  0  0  0  0
   23.9206   -4.9094  -20.1063 N   0  0  0  0  0  0  0  0  0  0  0  0
   26.0515   -4.7550  -20.9748 N   0  0  0  0  0  0  0  0  0  0  0  0
   22.1403   -6.2993  -21.0055 C   0  0  0  0  0  0  0  0  0  0  0  0
   21.4694   -6.3222  -22.0446 O   0  0  0  0  0  0  0  0  0  0  0  0
   21.6398   -6.6421  -19.8044 N   0  0  0  0  0  0  0  0  0  0  0  0
   19.3206   -6.3978  -18.8610 C   0  0  0  0  0  0  0  0  0  0  0  0
   18.0998   -6.9913  -18.6154 C   0  0  0  0  0  0  0  0  0  0  0  0
   16.6613   -8.8453  -18.6120 F   0  0  0  0  0  0  0  0  0  0  0  0
   18.2273  -10.7540  -21.3548 C   0  0  0  0  0  0  0  0  0  0  0  0
   17.0572  -11.5213  -21.4122 F   0  0  0  0  0  0  0  0  0  0  0  0
   17.5850  -11.1408  -18.9199 C   0  0  0  0  0  0  0  0  0  0  0  0
   20.0747  -12.2617  -16.1901 C   0  0  0  0  0  0  0  0  0  0  0  0
   20.1811  -12.1013  -18.6958 C   0  0  0  0  0  0  0  0  0  0  0  0
   21.4011  -12.7033  -18.7040 N   0  0  0  0  0  0  0  0  0  0  0  0
   19.8626  -11.3754  -19.7291 N   0  0  0  0  0  0  0  0  0  0  0  0
   18.5306  -14.0873  -17.6467 S   0  0  2  0  0  0  0  0  0  0  0  0
   19.0058  -14.9943  -16.6515 O   0  0  0  0  0  0  0  0  0  0  0  0
   18.6277  -14.4914  -19.0075 O   0  0  0  0  0  0  0  0  0  0  0  0
   27.8952   -4.2221  -22.7077 H   0  0  0  0  0  0  0  0  0  0  0  0
   28.2529   -5.3015  -24.0983 H   0  0  0  0  0  0  0  0  0  0  0  0
   26.7609   -4.3012  -24.0983 H   0  0  0  0  0  0  0  0  0  0  0  0
   24.2377   -6.9848  -22.7351 H   0  0  0  0  0  0  0  0  0  0  0  0
   25.4032   -3.6620  -19.3343 H   0  0  0  0  0  0  0  0  0  0  0  0
   20.8829   -9.0583  -20.2651 H   0  0  0  0  0  0  0  0  0  0  0  0
   17.3534  -11.6570  -16.8194 H   0  0  0  0  0  0  0  0  0  0  0  0
   18.5736  -10.3701  -17.1470 H   0  0  0  0  0  0  0  0  0  0  0  0
   16.5589  -14.0421  -16.2272 H   0  0  0  0  0  0  0  0  0  0  0  0
   16.2966  -13.1378  -17.7569 H   0  0  0  0  0  0  0  0  0  0  0  0
   16.2554  -14.9336  -17.7569 H   0  0  0  0  0  0  0  0  0  0  0  0
   22.2853   -6.5365  -19.0088 H   0  0  0  0  0  0  0  0  0  0  0  0
   19.4916   -5.3505  -18.5712 H   0  0  0  0  0  0  0  0  0  0  0  0
   17.2903   -6.3993  -18.1635 H   0  0  0  0  0  0  0  0  0  0  0  0
   18.0442   -9.7691  -21.8089 H   0  0  0  0  0  0  0  0  0  0  0  0
   19.0313  -11.2642  -21.9057 H   0  0  0  0  0  0  0  0  0  0  0  0
   16.7345  -10.4448  -18.8727 H   0  0  0  0  0  0  0  0  0  0  0  0
   17.2708  -12.1268  -19.2929 H   0  0  0  0  0  0  0  0  0  0  0  0
   19.3906  -12.3728  -15.3360 H   0  0  0  0  0  0  0  0  0  0  0  0
   20.8442  -13.0466  -16.1481 H   0  0  0  0  0  0  0  0  0  0  0  0
   20.5562  -11.2736  -16.1481 H   0  0  0  0  0  0  0  0  0  0  0  0
   22.0488  -12.5438  -19.4889 H   0  0  0  0  0  0  0  0  0  0  0  0
   21.6771  -13.3185  -17.9254 H   0  0  0  0  0  0  0  0  0  0  0  0
   20.5350  -11.3602  -20.5092 H   0  0  0  0  0  0  0  0  0  0  0  0
  1 14  1  0
  2  3  2  0
  2 14  1  0
  2 16  1  0
  3  4  1  0
  4 15  2  0
  4 17  1  0
  5 15  1  0
  5 16  2  0
  6  9  2  0
  6 19  1  0
  6 20  1  0
  7  8  2  0
  7 21  1  0
  7 22  1  0
  8  9  1  0
  8 10  1  0
 10 23  1  6
 10 25  1  0
 10 29  1  0
 11 12  1  0
 11 25  1  0
 12 26  1  1
 12 27  1  0
 12 30  1  0
 30 13  1  1
 17 18  2  0
 17 19  1  0
 20 21  2  0
 23 24  1  0
 27 28  1  0
 27 29  2  0
 30 31  2  0
 30 32  2  0
  1 33  1  0
  1 34  1  0
  1 35  1  0
  3 36  1  0
  5 37  1  0
  9 38  1  0
 11 39  1  0
 11 40  1  0
 13 41  1  0
 13 42  1  0
 13 43  1  0
 19 44  1  0
 20 45  1  0
 21 46  1  0
 23 47  1  0
 23 48  1  0
 25 49  1  0
 25 50  1  0
 26 51  1  0
 26 52  1  0
 26 53  1  0
 28 54  1  0
 28 55  1  0
 29 56  1  0
M  CHG  1  29   1
M  END
>  <filename_input>  (14) 
7N4N_0BK_docked.sdf

>  <pdb_id>  (14) 
7N4N_0BK

>  <pose_rank>  (14) 
13

>  <num_atoms_heavy>  (14) 
32

>  <num_torsions>  (14) 
6

>  <pose>  (14) 
[20.343538546864746, -7.1301205303695845, -19.48036969614031, 3.413561152928671, -0.9078448787765226, -0.10657760054432008, 6.9560857964579705, 2.730827514335767, 0.824918998999653, 4.508222884736686, 5.276383664388597, -0.8677154961285893]

>  <energy>  (14) 
-482.0999868795273

>  <inter_energy>  (14) 
-517.075423479979

>  <intra_energy>  (14) 
40.11934199477283

>  <rmsd>  (14) 
8.57867

>  <sdf_rank>  (14) 
0

$$$$

     RDKit          3D

 56 58  0  0  0  0  0  0  0  0999 V2000
   19.0214  -13.3881  -17.2764 C   0  0  0  0  0  0  0  0  0  0  0  0
   18.1136  -11.5818  -18.5954 C   0  0  0  0  0  0  0  0  0  0  0  0
   18.8378  -10.5165  -18.0241 C   0  0  0  0  0  0  0  0  0  0  0  0
   18.9883   -9.3460  -18.7985 C   0  0  0  0  0  0  0  0  0  0  0  0
   17.8048  -10.3685  -20.5095 C   0  0  0  0  0  0  0  0  0  0  0  0
   20.4096   -5.8416  -18.9706 C   0  0  0  0  0  0  0  0  0  0  0  0
   21.6791   -3.3607  -18.8241 C   0  0  0  0  0  0  0  0  0  0  0  0
   21.8868   -4.1481  -19.9679 C   0  0  0  0  0  0  0  0  0  0  0  0
   21.2288   -5.3671  -20.0035 C   0  0  0  0  0  0  0  0  0  0  0  0
   22.7563   -3.6633  -21.1365 C   0  0  2  0  0  0  0  0  0  0  0  0
   22.9957   -5.9586  -22.2506 C   0  0  0  0  0  0  0  0  0  0  0  0
   24.5425   -5.9250  -22.2083 C   0  0  2  0  0  0  0  0  0  0  0  0
   26.7327   -4.5883  -23.8557 C   0  0  0  0  0  0  0  0  0  0  0  0
   17.8907  -12.7288  -17.9130 O   0  0  0  0  0  0  0  0  0  0  0  0
   18.4649   -9.3309  -20.0279 N   0  0  0  0  0  0  0  0  0  0  0  0
   17.6292  -11.4710  -19.8263 N   0  0  0  0  0  0  0  0  0  0  0  0
   19.6730   -8.1313  -18.2926 C   0  0  0  0  0  0  0  0  0  0  0  0
   20.0295   -8.0533  -17.1106 O   0  0  0  0  0  0  0  0  0  0  0  0
   19.8127   -7.1178  -19.1667 N   0  0  0  0  0  0  0  0  0  0  0  0
   20.2357   -5.0162  -17.8505 C   0  0  0  0  0  0  0  0  0  0  0  0
   20.8877   -3.8025  -17.7811 C   0  0  0  0  0  0  0  0  0  0  0  0
   22.2523   -2.1287  -18.6994 F   0  0  0  0  0  0  0  0  0  0  0  0
   22.5593   -2.1721  -21.4025 C   0  0  0  0  0  0  0  0  0  0  0  0
   22.6513   -1.9340  -22.7795 F   0  0  0  0  0  0  0  0  0  0  0  0
   22.4268   -4.5231  -22.3750 C   0  0  0  0  0  0  0  0  0  0  0  0
   25.0408   -7.2824  -21.6969 C   0  0  0  0  0  0  0  0  0  0  0  0
   24.9507   -4.8105  -21.2529 C   0  0  0  0  0  0  0  0  0  0  0  0
   26.2405   -4.8194  -20.8201 N   0  0  0  0  0  0  0  0  0  0  0  0
   24.1920   -3.8281  -20.8591 N   0  0  0  0  0  0  0  0  0  0  0  0
   25.1989   -5.5860  -23.9186 S   0  0  2  0  0  0  0  0  0  0  0  0
   24.3282   -4.7612  -24.6935 O   0  0  0  0  0  0  0  0  0  0  0  0
   25.6084   -6.8261  -24.4836 O   0  0  0  0  0  0  0  0  0  0  0  0
   18.9145  -13.3258  -16.1834 H   0  0  0  0  0  0  0  0  0  0  0  0
   19.0498  -14.4444  -17.5824 H   0  0  0  0  0  0  0  0  0  0  0  0
   19.9546  -12.8926  -17.5824 H   0  0  0  0  0  0  0  0  0  0  0  0
   19.2687  -10.5939  -17.0150 H   0  0  0  0  0  0  0  0  0  0  0  0
   17.3863  -10.3036  -21.5246 H   0  0  0  0  0  0  0  0  0  0  0  0
   21.3572   -5.9991  -20.8947 H   0  0  0  0  0  0  0  0  0  0  0  0
   22.6698   -6.5538  -23.1163 H   0  0  0  0  0  0  0  0  0  0  0  0
   22.6234   -6.4102  -21.3192 H   0  0  0  0  0  0  0  0  0  0  0  0
   27.0100   -4.4080  -22.8066 H   0  0  0  0  0  0  0  0  0  0  0  0
   27.5446   -5.1317  -24.3613 H   0  0  0  0  0  0  0  0  0  0  0  0
   26.5651   -3.6259  -24.3613 H   0  0  0  0  0  0  0  0  0  0  0  0
   19.4346   -7.2902  -20.1092 H   0  0  0  0  0  0  0  0  0  0  0  0
   19.5798   -5.3363  -17.0276 H   0  0  0  0  0  0  0  0  0  0  0  0
   20.7760   -3.1775  -16.8828 H   0  0  0  0  0  0  0  0  0  0  0  0
   21.5680   -1.8616  -21.0409 H   0  0  0  0  0  0  0  0  0  0  0  0
   23.3348   -1.5970  -20.8754 H   0  0  0  0  0  0  0  0  0  0  0  0
   21.3340   -4.5823  -22.4862 H   0  0  0  0  0  0  0  0  0  0  0  0
   22.8898   -4.0481  -23.2525 H   0  0  0  0  0  0  0  0  0  0  0  0
   25.0408   -7.2822  -20.5969 H   0  0  0  0  0  0  0  0  0  0  0  0
   24.3764   -8.0787  -22.0635 H   0  0  0  0  0  0  0  0  0  0  0  0
   26.0627   -7.4597  -22.0635 H   0  0  0  0  0  0  0  0  0  0  0  0
   26.5716   -4.0898  -20.1728 H   0  0  0  0  0  0  0  0  0  0  0  0
   26.8859   -5.5558  -21.1397 H   0  0  0  0  0  0  0  0  0  0  0  0
   24.6422   -3.0920  -20.2966 H   0  0  0  0  0  0  0  0  0  0  0  0
  1 14  1  0
  2  3  2  0
  2 14  1  0
  2 16  1  0
  3  4  1  0
  4 15  2  0
  4 17  1  0
  5 15  1  0
  5 16  2  0
  6  9  2  0
  6 19  1  0
  6 20  1  0
  7  8  2  0
  7 21  1  0
  7 22  1  0
  8  9  1  0
  8 10  1  0
 10 23  1  6
 10 25  1  0
 10 29  1  0
 11 12  1  0
 11 25  1  0
 12 26  1  1
 12 27  1  0
 12 30  1  0
 30 13  1  1
 17 18  2  0
 17 19  1  0
 20 21  2  0
 23 24  1  0
 27 28  1  0
 27 29  2  0
 30 31  2  0
 30 32  2  0
  1 33  1  0
  1 34  1  0
  1 35  1  0
  3 36  1  0
  5 37  1  0
  9 38  1  0
 11 39  1  0
 11 40  1  0
 13 41  1  0
 13 42  1  0
 13 43  1  0
 19 44  1  0
 20 45  1  0
 21 46  1  0
 23 47  1  0
 23 48  1  0
 25 49  1  0
 25 50  1  0
 26 51  1  0
 26 52  1  0
 26 53  1  0
 28 54  1  0
 28 55  1  0
 29 56  1  0
M  CHG  1  29   1
M  END
>  <filename_input>  (15) 
7N4N_0BK_docked.sdf

>  <pdb_id>  (15) 
7N4N_0BK

>  <pose_rank>  (15) 
14

>  <num_atoms_heavy>  (15) 
32

>  <num_torsions>  (15) 
6

>  <pose>  (15) 
[20.40960553577525, -5.841615549537439, -18.97063879792841, -0.6832266609928247, -3.2238177377233863, 3.046209641605863, -1.7022153748332407, -0.7488775750503228, 0.5309856862546072, 5.584800757706135, -0.29951265768013824, 2.251902394409731]

>  <energy>  (15) 
-518.2803008156113

>  <inter_energy>  (15) 
-576.9483714916662

>  <intra_energy>  (15) 
65.5704558925118

>  <rmsd>  (15) 
5.23723

>  <sdf_rank>  (15) 
0

$$$$

     RDKit          3D

 56 58  0  0  0  0  0  0  0  0999 V2000
   25.8636  -16.2315  -13.6496 C   0  0  0  0  0  0  0  0  0  0  0  0
   24.5384  -14.5363  -14.7436 C   0  0  0  0  0  0  0  0  0  0  0  0
   23.3099  -14.2963  -15.3909 C   0  0  0  0  0  0  0  0  0  0  0  0
   22.7633  -12.9994  -15.2839 C   0  0  0  0  0  0  0  0  0  0  0  0
   24.5680  -12.3860  -13.9648 C   0  0  0  0  0  0  0  0  0  0  0  0
   20.4467  -12.4299  -18.2233 C   0  0  0  0  0  0  0  0  0  0  0  0
   18.4026  -11.6108  -19.9376 C   0  0  0  0  0  0  0  0  0  0  0  0
   18.9395  -10.6697  -19.0445 C   0  0  0  0  0  0  0  0  0  0  0  0
   19.9594  -11.1162  -18.2197 C   0  0  0  0  0  0  0  0  0  0  0  0
   18.4562   -9.2128  -19.0177 C   0  0  2  0  0  0  0  0  0  0  0  0
   20.7940   -8.1638  -19.0492 C   0  0  0  0  0  0  0  0  0  0  0  0
   20.5586   -7.3654  -17.7443 C   0  0  2  0  0  0  0  0  0  0  0  0
   21.8426   -4.6085  -17.9629 C   0  0  0  0  0  0  0  0  0  0  0  0
   25.1527  -15.7396  -14.8205 O   0  0  0  0  0  0  0  0  0  0  0  0
   23.4238  -12.0941  -14.5561 N   0  0  0  0  0  0  0  0  0  0  0  0
   25.1203  -13.5700  -14.0438 N   0  0  0  0  0  0  0  0  0  0  0  0
   21.5099  -12.5976  -15.9680 C   0  0  0  0  0  0  0  0  0  0  0  0
   20.5240  -12.2321  -15.3163 O   0  0  0  0  0  0  0  0  0  0  0  0
   21.4953  -12.7225  -17.3077 N   0  0  0  0  0  0  0  0  0  0  0  0
   19.8759  -13.3301  -19.1344 C   0  0  0  0  0  0  0  0  0  0  0  0
   18.8504  -12.9178  -19.9598 C   0  0  0  0  0  0  0  0  0  0  0  0
   17.4171  -11.2696  -20.8174 F   0  0  0  0  0  0  0  0  0  0  0  0
   17.0331   -9.0829  -19.5577 C   0  0  0  0  0  0  0  0  0  0  0  0
   16.1745   -8.7248  -18.5109 F   0  0  0  0  0  0  0  0  0  0  0  0
   19.4608   -8.3542  -19.8148 C   0  0  0  0  0  0  0  0  0  0  0  0
   21.7883   -7.5385  -16.8443 C   0  0  0  0  0  0  0  0  0  0  0  0
   19.3182   -7.9412  -17.0723 C   0  0  0  0  0  0  0  0  0  0  0  0
   19.1220   -7.6106  -15.7673 N   0  0  0  0  0  0  0  0  0  0  0  0
   18.4093   -8.6740  -17.6493 N   0  0  0  0  0  0  0  0  0  0  0  0
   20.2961   -5.5684  -18.1599 S   0  0  2  0  0  0  0  0  0  0  0  0
   19.4104   -4.9127  -17.2518 O   0  0  0  0  0  0  0  0  0  0  0  0
   20.0009   -5.4794  -19.5489 O   0  0  0  0  0  0  0  0  0  0  0  0
   25.3566  -15.8807  -12.7386 H   0  0  0  0  0  0  0  0  0  0  0  0
   25.8746  -17.3314  -13.6626 H   0  0  0  0  0  0  0  0  0  0  0  0
   26.8968  -15.8543  -13.6626 H   0  0  0  0  0  0  0  0  0  0  0  0
   22.7974  -15.0881  -15.9569 H   0  0  0  0  0  0  0  0  0  0  0  0
   25.0769  -11.6033  -13.3830 H   0  0  0  0  0  0  0  0  0  0  0  0
   20.4130  -10.3974  -17.5214 H   0  0  0  0  0  0  0  0  0  0  0  0
   21.5028   -7.6151  -19.6868 H   0  0  0  0  0  0  0  0  0  0  0  0
   21.2025   -9.1526  -18.7933 H   0  0  0  0  0  0  0  0  0  0  0  0
   22.0575   -4.4751  -16.8923 H   0  0  0  0  0  0  0  0  0  0  0  0
   22.6734   -5.1499  -18.4389 H   0  0  0  0  0  0  0  0  0  0  0  0
   21.7260   -3.6237  -18.4389 H   0  0  0  0  0  0  0  0  0  0  0  0
   22.3647  -13.0798  -17.7290 H   0  0  0  0  0  0  0  0  0  0  0  0
   20.2458  -14.3645  -19.1909 H   0  0  0  0  0  0  0  0  0  0  0  0
   18.3826  -13.6397  -20.6453 H   0  0  0  0  0  0  0  0  0  0  0  0
   17.0049   -8.3083  -20.3381 H   0  0  0  0  0  0  0  0  0  0  0  0
   16.7117  -10.0432  -19.9872 H   0  0  0  0  0  0  0  0  0  0  0  0
   19.6695   -8.8501  -20.7742 H   0  0  0  0  0  0  0  0  0  0  0  0
   19.0125   -7.3617  -19.9702 H   0  0  0  0  0  0  0  0  0  0  0  0
   21.4796   -7.4950  -15.7894 H   0  0  0  0  0  0  0  0  0  0  0  0
   22.2585   -8.5117  -17.0490 H   0  0  0  0  0  0  0  0  0  0  0  0
   22.5088   -6.7329  -17.0490 H   0  0  0  0  0  0  0  0  0  0  0  0
   18.2999   -7.9714  -15.2626 H   0  0  0  0  0  0  0  0  0  0  0  0
   19.7957   -6.9995  -15.2839 H   0  0  0  0  0  0  0  0  0  0  0  0
   17.5733   -8.8991  -17.0914 H   0  0  0  0  0  0  0  0  0  0  0  0
  1 14  1  0
  2  3  2  0
  2 14  1  0
  2 16  1  0
  3  4  1  0
  4 15  2  0
  4 17  1  0
  5 15  1  0
  5 16  2  0
  6  9  2  0
  6 19  1  0
  6 20  1  0
  7  8  2  0
  7 21  1  0
  7 22  1  0
  8  9  1  0
  8 10  1  0
 10 23  1  6
 10 25  1  0
 10 29  1  0
 11 12  1  0
 11 25  1  0
 12 26  1  1
 12 27  1  0
 12 30  1  0
 30 13  1  6
 17 18  2  0
 17 19  1  0
 20 21  2  0
 23 24  1  0
 27 28  1  0
 27 29  2  0
 30 31  2  0
 30 32  2  0
  1 33  1  0
  1 34  1  0
  1 35  1  0
  3 36  1  0
  5 37  1  0
  9 38  1  0
 11 39  1  0
 11 40  1  0
 13 41  1  0
 13 42  1  0
 13 43  1  0
 19 44  1  0
 20 45  1  0
 21 46  1  0
 23 47  1  0
 23 48  1  0
 25 49  1  0
 25 50  1  0
 26 51  1  0
 26 52  1  0
 26 53  1  0
 28 54  1  0
 28 55  1  0
 29 56  1  0
M  CHG  1  29   1
M  END
>  <filename_input>  (16) 
7N4N_0BK_docked.sdf

>  <pdb_id>  (16) 
7N4N_0BK

>  <pose_rank>  (16) 
15

>  <num_atoms_heavy>  (16) 
32

>  <num_torsions>  (16) 
6

>  <pose>  (16) 
[20.446714205545486, -12.429858833318118, -18.223250870179363, -1.1226839514801712, 2.88581846688254, -4.451546474540345, -0.5979531286257506, 1.2849318897681694, -1.269974983430766, -2.0863922493675915, 1.890976443040903, 0.6167328061595837]

>  <energy>  (16) 
-692.3725054072802

>  <inter_energy>  (16) 
-761.1274833617881

>  <intra_energy>  (16) 
61.03880758346611

>  <rmsd>  (16) 
3.86618

>  <sdf_rank>  (16) 
0

$$$$

     RDKit          3D

 56 58  0  0  0  0  0  0  0  0999 V2000
   27.8433   -0.6132  -27.0100 C   0  0  0  0  0  0  0  0  0  0  0  0
   26.5793   -1.5220  -25.1653 C   0  0  0  0  0  0  0  0  0  0  0  0
   26.1597   -2.6721  -24.4674 C   0  0  0  0  0  0  0  0  0  0  0  0
   24.9196   -2.6069  -23.7966 C   0  0  0  0  0  0  0  0  0  0  0  0
   24.6929   -0.4109  -24.5034 C   0  0  0  0  0  0  0  0  0  0  0  0
   23.4129   -6.0607  -23.4335 C   0  0  0  0  0  0  0  0  0  0  0  0
   22.1020   -8.3574  -22.5419 C   0  0  0  0  0  0  0  0  0  0  0  0
   21.5575   -7.1074  -22.2061 C   0  0  0  0  0  0  0  0  0  0  0  0
   22.2344   -5.9945  -22.6784 C   0  0  0  0  0  0  0  0  0  0  0  0
   20.2564   -6.9819  -21.4009 C   0  0  2  0  0  0  0  0  0  0  0  0
   21.2294   -5.4766  -19.5696 C   0  0  0  0  0  0  0  0  0  0  0  0
   20.8336   -6.4450  -18.4289 C   0  0  2  0  0  0  0  0  0  0  0  0
   19.0222   -6.7071  -15.9902 C   0  0  0  0  0  0  0  0  0  0  0  0
   27.7376   -1.5050  -25.8646 O   0  0  0  0  0  0  0  0  0  0  0  0
   24.2387   -1.4579  -23.8388 N   0  0  0  0  0  0  0  0  0  0  0  0
   25.8307   -0.4258  -25.1500 N   0  0  0  0  0  0  0  0  0  0  0  0
   24.3337   -3.7649  -23.0781 C   0  0  0  0  0  0  0  0  0  0  0  0
   24.2426   -3.7624  -21.8444 O   0  0  0  0  0  0  0  0  0  0  0  0
   23.9824   -4.8205  -23.8349 N   0  0  0  0  0  0  0  0  0  0  0  0
   23.9145   -7.3335  -23.7411 C   0  0  0  0  0  0  0  0  0  0  0  0
   23.2691   -8.4598  -23.2743 C   0  0  0  0  0  0  0  0  0  0  0  0
   21.4984   -9.5188  -22.1565 F   0  0  0  0  0  0  0  0  0  0  0  0
   19.0288   -7.2343  -22.2743 C   0  0  0  0  0  0  0  0  0  0  0  0
   18.3823   -8.3962  -21.8348 F   0  0  0  0  0  0  0  0  0  0  0  0
   20.2256   -5.5856  -20.7444 C   0  0  0  0  0  0  0  0  0  0  0  0
   22.0341   -6.5969  -17.4866 C   0  0  0  0  0  0  0  0  0  0  0  0
   20.4805   -7.7833  -19.0659 C   0  0  0  0  0  0  0  0  0  0  0  0
   20.4215   -8.8584  -18.2343 N   0  0  0  0  0  0  0  0  0  0  0  0
   20.1814   -7.9760  -20.3187 N   0  0  0  0  0  0  0  0  0  0  0  0
   19.3645   -5.7537  -17.5153 S   0  0  2  0  0  0  0  0  0  0  0  0
   18.1438   -5.8910  -18.2431 O   0  0  0  0  0  0  0  0  0  0  0  0
   19.7114   -4.4552  -17.0483 O   0  0  0  0  0  0  0  0  0  0  0  0
   27.9660    0.4219  -26.6587 H   0  0  0  0  0  0  0  0  0  0  0  0
   28.7138   -0.8996  -27.6185 H   0  0  0  0  0  0  0  0  0  0  0  0
   26.9300   -0.6881  -27.6185 H   0  0  0  0  0  0  0  0  0  0  0  0
   26.7741   -3.5842  -24.4463 H   0  0  0  0  0  0  0  0  0  0  0  0
   24.0911    0.5099  -24.5141 H   0  0  0  0  0  0  0  0  0  0  0  0
   21.8226   -5.0010  -22.4472 H   0  0  0  0  0  0  0  0  0  0  0  0
   21.2280   -4.4455  -19.1863 H   0  0  0  0  0  0  0  0  0  0  0  0
   22.2329   -5.7441  -19.9322 H   0  0  0  0  0  0  0  0  0  0  0  0
   19.2456   -6.0850  -15.1110 H   0  0  0  0  0  0  0  0  0  0  0  0
   17.9624   -7.0011  -15.9717 H   0  0  0  0  0  0  0  0  0  0  0  0
   19.6530   -7.6081  -15.9717 H   0  0  0  0  0  0  0  0  0  0  0  0
   24.1491   -4.7161  -24.8460 H   0  0  0  0  0  0  0  0  0  0  0  0
   24.8222   -7.4338  -24.3543 H   0  0  0  0  0  0  0  0  0  0  0  0
   23.6896   -9.4535  -23.4882 H   0  0  0  0  0  0  0  0  0  0  0  0
   18.3409   -6.3793  -22.1980 H   0  0  0  0  0  0  0  0  0  0  0  0
   19.3397   -7.3581  -23.3221 H   0  0  0  0  0  0  0  0  0  0  0  0
   20.4819   -4.8307  -21.5023 H   0  0  0  0  0  0  0  0  0  0  0  0
   19.2143   -5.4194  -20.3448 H   0  0  0  0  0  0  0  0  0  0  0  0
   21.6890   -6.5533  -16.4431 H   0  0  0  0  0  0  0  0  0  0  0  0
   22.5244   -7.5643  -17.6705 H   0  0  0  0  0  0  0  0  0  0  0  0
   22.7500   -5.7823  -17.6705 H   0  0  0  0  0  0  0  0  0  0  0  0
   20.1872   -9.7882  -18.6105 H   0  0  0  0  0  0  0  0  0  0  0  0
   20.6110   -8.7426  -17.2286 H   0  0  0  0  0  0  0  0  0  0  0  0
   19.8599   -8.9195  -20.5781 H   0  0  0  0  0  0  0  0  0  0  0  0
  1 14  1  0
  2  3  2  0
  2 14  1  0
  2 16  1  0
  3  4  1  0
  4 15  2  0
  4 17  1  0
  5 15  1  0
  5 16  2  0
  6  9  2  0
  6 19  1  0
  6 20  1  0
  7  8  2  0
  7 21  1  0
  7 22  1  0
  8  9  1  0
  8 10  1  0
 10 23  1  6
 10 25  1  0
 10 29  1  0
 11 12  1  0
 11 25  1  0
 12 26  1  1
 12 27  1  0
 12 30  1  0
 30 13  1  1
 17 18  2  0
 17 19  1  0
 20 21  2  0
 23 24  1  0
 27 28  1  0
 27 29  2  0
 30 31  2  0
 30 32  2  0
  1 33  1  0
  1 34  1  0
  1 35  1  0
  3 36  1  0
  5 37  1  0
  9 38  1  0
 11 39  1  0
 11 40  1  0
 13 41  1  0
 13 42  1  0
 13 43  1  0
 19 44  1  0
 20 45  1  0
 21 46  1  0
 23 47  1  0
 23 48  1  0
 25 49  1  0
 25 50  1  0
 26 51  1  0
 26 52  1  0
 26 53  1  0
 28 54  1  0
 28 55  1  0
 29 56  1  0
M  CHG  1  29   1
M  END
>  <filename_input>  (17) 
7N4N_0BK_docked.sdf

>  <pdb_id>  (17) 
7N4N_0BK

>  <pose_rank>  (17) 
16

>  <num_atoms_heavy>  (17) 
32

>  <num_torsions>  (17) 
6

>  <pose>  (17) 
[23.412895287628732, -6.060683631382354, -23.43345761126442, -0.9006609749455676, -1.796722723056271, -3.729570202913558, -8.672473700308494, 0.007323661146624633, -1.2212903475228105, 4.136483789382326, 1.7670907590296883, -0.5042551216006584]

>  <energy>  (17) 
-471.9461755127253

>  <inter_energy>  (17) 
-504.5148292821131

>  <intra_energy>  (17) 
29.65598990872391

>  <rmsd>  (17) 
9.72219

>  <sdf_rank>  (17) 
0

$$$$

     RDKit          3D

 56 58  0  0  0  0  0  0  0  0999 V2000
   19.5567   -9.3546  -16.8979 C   0  0  0  0  0  0  0  0  0  0  0  0
   18.6765   -8.8876  -19.0965 C   0  0  0  0  0  0  0  0  0  0  0  0
   19.5027   -8.1584  -19.9749 C   0  0  0  0  0  0  0  0  0  0  0  0
   19.4355   -8.4824  -21.3470 C   0  0  0  0  0  0  0  0  0  0  0  0
   17.8793  -10.1259  -20.8464 C   0  0  0  0  0  0  0  0  0  0  0  0
   22.3491   -6.5265  -22.7670 C   0  0  0  0  0  0  0  0  0  0  0  0
   24.2268   -4.9271  -24.0724 C   0  0  0  0  0  0  0  0  0  0  0  0
   23.7201   -4.4870  -22.8390 C   0  0  0  0  0  0  0  0  0  0  0  0
   22.7987   -5.3170  -22.2209 C   0  0  0  0  0  0  0  0  0  0  0  0
   24.1977   -3.1813  -22.1880 C   0  0  2  0  0  0  0  0  0  0  0  0
   21.8618   -2.1696  -21.8932 C   0  0  0  0  0  0  0  0  0  0  0  0
   22.2087   -0.8919  -22.6950 C   0  0  2  0  0  0  0  0  0  0  0  0
   22.7683    2.0925  -22.4169 C   0  0  0  0  0  0  0  0  0  0  0  0
   18.6502   -8.6223  -17.7699 O   0  0  0  0  0  0  0  0  0  0  0  0
   18.6214   -9.4732  -21.7225 N   0  0  0  0  0  0  0  0  0  0  0  0
   17.8982   -9.8550  -19.5661 N   0  0  0  0  0  0  0  0  0  0  0  0
   20.2046   -7.7508  -22.3831 C   0  0  0  0  0  0  0  0  0  0  0  0
   19.7826   -7.6695  -23.5431 O   0  0  0  0  0  0  0  0  0  0  0  0
   21.3962   -7.2551  -22.0023 N   0  0  0  0  0  0  0  0  0  0  0  0
   22.8867   -6.9197  -24.0009 C   0  0  0  0  0  0  0  0  0  0  0  0
   23.7967   -6.1082  -24.6461 C   0  0  0  0  0  0  0  0  0  0  0  0
   25.1634   -4.2036  -24.7514 F   0  0  0  0  0  0  0  0  0  0  0  0
   25.5667   -3.3489  -21.5313 C   0  0  0  0  0  0  0  0  0  0  0  0
   25.4457   -4.1998  -20.4256 F   0  0  0  0  0  0  0  0  0  0  0  0
   23.1227   -2.7203  -21.1813 C   0  0  0  0  0  0  0  0  0  0  0  0
   21.0644   -0.6134  -23.6775 C   0  0  0  0  0  0  0  0  0  0  0  0
   23.5062   -1.1610  -23.4471 C   0  0  0  0  0  0  0  0  0  0  0  0
   23.8160   -0.3029  -24.4563 N   0  0  0  0  0  0  0  0  0  0  0  0
   24.3635   -2.1030  -23.1754 N   0  0  0  0  0  0  0  0  0  0  0  0
   22.4256    0.5352  -21.5173 S   0  0  2  0  0  0  0  0  0  0  0  0
   23.5801    0.3996  -20.6881 O   0  0  0  0  0  0  0  0  0  0  0  0
   21.1767    0.7666  -20.8759 O   0  0  0  0  0  0  0  0  0  0  0  0
   19.3018   -9.1487  -15.8479 H   0  0  0  0  0  0  0  0  0  0  0  0
   19.4623  -10.4330  -17.0935 H   0  0  0  0  0  0  0  0  0  0  0  0
   20.5911   -9.0357  -17.0935 H   0  0  0  0  0  0  0  0  0  0  0  0
   20.1732   -7.3683  -19.6059 H   0  0  0  0  0  0  0  0  0  0  0  0
   17.2194  -10.9287  -21.2070 H   0  0  0  0  0  0  0  0  0  0  0  0
   22.3967   -5.0084  -21.2446 H   0  0  0  0  0  0  0  0  0  0  0  0
   21.0969   -1.9284  -21.1404 H   0  0  0  0  0  0  0  0  0  0  0  0
   21.4819   -2.9338  -22.5872 H   0  0  0  0  0  0  0  0  0  0  0  0
   22.9465    2.9021  -21.6938 H   0  0  0  0  0  0  0  0  0  0  0  0
   23.6594    1.9625  -23.0487 H   0  0  0  0  0  0  0  0  0  0  0  0
   21.9050    2.3486  -23.0487 H   0  0  0  0  0  0  0  0  0  0  0  0
   21.6544   -7.4273  -21.0202 H   0  0  0  0  0  0  0  0  0  0  0  0
   22.5829   -7.8749  -24.4542 H   0  0  0  0  0  0  0  0  0  0  0  0
   24.1855   -6.4056  -25.6312 H   0  0  0  0  0  0  0  0  0  0  0  0
   26.2712   -3.7842  -22.2552 H   0  0  0  0  0  0  0  0  0  0  0  0
   25.9421   -2.3682  -21.2037 H   0  0  0  0  0  0  0  0  0  0  0  0
   22.8318   -3.5764  -20.5549 H   0  0  0  0  0  0  0  0  0  0  0  0
   23.5511   -1.9105  -20.5725 H   0  0  0  0  0  0  0  0  0  0  0  0
   20.1453   -0.3896  -23.1160 H   0  0  0  0  0  0  0  0  0  0  0  0
   21.3261    0.2473  -24.3106 H   0  0  0  0  0  0  0  0  0  0  0  0
   20.9012   -1.4980  -24.3106 H   0  0  0  0  0  0  0  0  0  0  0  0
   24.6813   -0.4368  -24.9988 H   0  0  0  0  0  0  0  0  0  0  0  0
   23.1853    0.4807  -24.6778 H   0  0  0  0  0  0  0  0  0  0  0  0
   25.2467   -2.0922  -23.7052 H   0  0  0  0  0  0  0  0  0  0  0  0
  1 14  1  0
  2  3  2  0
  2 14  1  0
  2 16  1  0
  3  4  1  0
  4 15  2  0
  4 17  1  0
  5 15  1  0
  5 16  2  0
  6  9  2  0
  6 19  1  0
  6 20  1  0
  7  8  2  0
  7 21  1  0
  7 22  1  0
  8  9  1  0
  8 10  1  0
 10 23  1  1
 10 25  1  0
 10 29  1  0
 11 12  1  0
 11 25  1  0
 12 26  1  6
 12 27  1  0
 12 30  1  0
 30 13  1  6
 17 18  2  0
 17 19  1  0
 20 21  2  0
 23 24  1  0
 27 28  1  0
 27 29  2  0
 30 31  2  0
 30 32  2  0
  1 33  1  0
  1 34  1  0
  1 35  1  0
  3 36  1  0
  5 37  1  0
  9 38  1  0
 11 39  1  0
 11 40  1  0
 13 41  1  0
 13 42  1  0
 13 43  1  0
 19 44  1  0
 20 45  1  0
 21 46  1  0
 23 47  1  0
 23 48  1  0
 25 49  1  0
 25 50  1  0
 26 51  1  0
 26 52  1  0
 26 53  1  0
 28 54  1  0
 28 55  1  0
 29 56  1  0
M  CHG  1  29   1
M  END
>  <filename_input>  (18) 
7N4N_0BK_docked.sdf

>  <pdb_id>  (18) 
7N4N_0BK

>  <pose_rank>  (18) 
17

>  <num_atoms_heavy>  (18) 
32

>  <num_torsions>  (18) 
6

>  <pose>  (18) 
[22.34906220900274, -6.526508063981604, -22.76698447612771, 0.480105963048702, 4.409089051127986, 0.5525977233609126, -2.3789290544872377, -0.11536173537563144, 1.8738565588789264, -0.8602061898918055, -2.8223731630843254, 1.5265634567667279]

>  <energy>  (18) 
-403.5592452818034

>  <inter_energy>  (18) 
-437.8005240620785

>  <intra_energy>  (18) 
30.41814815627049

>  <rmsd>  (18) 
7.29124

>  <sdf_rank>  (18) 
0

$$$$

     RDKit          3D

 56 58  0  0  0  0  0  0  0  0999 V2000
   18.5795  -12.9621  -21.6145 C   0  0  0  0  0  0  0  0  0  0  0  0
   18.7729  -11.0972  -20.0942 C   0  0  0  0  0  0  0  0  0  0  0  0
   19.4214   -9.8776  -19.8154 C   0  0  0  0  0  0  0  0  0  0  0  0
   19.5900   -9.5285  -18.4582 C   0  0  0  0  0  0  0  0  0  0  0  0
   18.4935  -11.4802  -17.8567 C   0  0  0  0  0  0  0  0  0  0  0  0
   20.5509   -5.8674  -18.5225 C   0  0  0  0  0  0  0  0  0  0  0  0
   21.7393   -3.3488  -18.3429 C   0  0  0  0  0  0  0  0  0  0  0  0
   22.2973   -4.2867  -19.2264 C   0  0  0  0  0  0  0  0  0  0  0  0
   21.6693   -5.5200  -19.2917 C   0  0  0  0  0  0  0  0  0  0  0  0
   23.5077   -3.9471  -20.1075 C   0  0  2  0  0  0  0  0  0  0  0  0
   22.3197   -4.3437  -22.3432 C   0  0  0  0  0  0  0  0  0  0  0  0
   23.3537   -5.3937  -22.8164 C   0  0  2  0  0  0  0  0  0  0  0  0
   25.5915   -3.3998  -23.3762 C   0  0  0  0  0  0  0  0  0  0  0  0
   18.5978  -11.5283  -21.3648 O   0  0  0  0  0  0  0  0  0  0  0  0
   19.1015  -10.3547  -17.5286 N   0  0  0  0  0  0  0  0  0  0  0  0
   18.3229  -11.8527  -19.0997 N   0  0  0  0  0  0  0  0  0  0  0  0
   20.3096   -8.3050  -18.0275 C   0  0  0  0  0  0  0  0  0  0  0  0
   21.0695   -8.3298  -17.0516 O   0  0  0  0  0  0  0  0  0  0  0  0
   20.0320   -7.1787  -18.7094 N   0  0  0  0  0  0  0  0  0  0  0  0
   20.0330   -4.8943  -17.6559 C   0  0  0  0  0  0  0  0  0  0  0  0
   20.6444   -3.6614  -17.5601 C   0  0  0  0  0  0  0  0  0  0  0  0
   22.2583   -2.0925  -18.2238 F   0  0  0  0  0  0  0  0  0  0  0  0
   24.5006   -3.0463  -19.3754 C   0  0  0  0  0  0  0  0  0  0  0  0
   25.7946   -3.3155  -19.8385 F   0  0  0  0  0  0  0  0  0  0  0  0
   22.9921   -3.3040  -21.4122 C   0  0  0  0  0  0  0  0  0  0  0  0
   22.5928   -6.5951  -23.3911 C   0  0  0  0  0  0  0  0  0  0  0  0
   24.1726   -5.8106  -21.6010 C   0  0  0  0  0  0  0  0  0  0  0  0
   24.9088   -6.9482  -21.7220 N   0  0  0  0  0  0  0  0  0  0  0  0
   24.2688   -5.1490  -20.4833 N   0  0  0  0  0  0  0  0  0  0  0  0
   24.4560   -4.6334  -24.1116 S   0  0  2  0  0  0  0  0  0  0  0  0
   23.7345   -3.8550  -25.0666 O   0  0  0  0  0  0  0  0  0  0  0  0
   25.3164   -5.6528  -24.6067 O   0  0  0  0  0  0  0  0  0  0  0  0
   18.5726  -13.5012  -20.6557 H   0  0  0  0  0  0  0  0  0  0  0  0
   17.6779  -13.2229  -22.1883 H   0  0  0  0  0  0  0  0  0  0  0  0
   19.4740  -13.2459  -22.1883 H   0  0  0  0  0  0  0  0  0  0  0  0
   19.7818   -9.2237  -20.6232 H   0  0  0  0  0  0  0  0  0  0  0  0
   18.1155  -12.1301  -17.0538 H   0  0  0  0  0  0  0  0  0  0  0  0
   22.0722   -6.2702  -19.9881 H   0  0  0  0  0  0  0  0  0  0  0  0
   21.9003   -3.8277  -23.2194 H   0  0  0  0  0  0  0  0  0  0  0  0
   21.5205   -4.8557  -21.7872 H   0  0  0  0  0  0  0  0  0  0  0  0
   25.5369   -3.4592  -22.2792 H   0  0  0  0  0  0  0  0  0  0  0  0
   26.6208   -3.6077  -23.7038 H   0  0  0  0  0  0  0  0  0  0  0  0
   25.2992   -2.3912  -23.7038 H   0  0  0  0  0  0  0  0  0  0  0  0
   19.3484   -7.2801  -19.4731 H   0  0  0  0  0  0  0  0  0  0  0  0
   19.1397   -5.1138  -17.0527 H   0  0  0  0  0  0  0  0  0  0  0  0
   20.2547   -2.9166  -16.8506 H   0  0  0  0  0  0  0  0  0  0  0  0
   24.2526   -1.9921  -19.5684 H   0  0  0  0  0  0  0  0  0  0  0  0
   24.4474   -3.2398  -18.2938 H   0  0  0  0  0  0  0  0  0  0  0  0
   22.2570   -2.5259  -21.1586 H   0  0  0  0  0  0  0  0  0  0  0  0
   23.8543   -2.8768  -21.9453 H   0  0  0  0  0  0  0  0  0  0  0  0
   22.2030   -7.2105  -22.5669 H   0  0  0  0  0  0  0  0  0  0  0  0
   21.7561   -6.2376  -24.0092 H   0  0  0  0  0  0  0  0  0  0  0  0
   23.2737   -7.1987  -24.0092 H   0  0  0  0  0  0  0  0  0  0  0  0
   25.4816   -7.2775  -20.9318 H   0  0  0  0  0  0  0  0  0  0  0  0
   24.8933   -7.4803  -22.6038 H   0  0  0  0  0  0  0  0  0  0  0  0
   24.9461   -5.5029  -19.7927 H   0  0  0  0  0  0  0  0  0  0  0  0
  1 14  1  0
  2  3  2  0
  2 14  1  0
  2 16  1  0
  3  4  1  0
  4 15  2  0
  4 17  1  0
  5 15  1  0
  5 16  2  0
  6  9  2  0
  6 19  1  0
  6 20  1  0
  7  8  2  0
  7 21  1  0
  7 22  1  0
  8  9  1  0
  8 10  1  0
 10 23  1  1
 10 25  1  0
 10 29  1  0
 11 12  1  0
 11 25  1  0
 12 26  1  6
 12 27  1  0
 12 30  1  0
 30 13  1  1
 17 18  2  0
 17 19  1  0
 20 21  2  0
 23 24  1  0
 27 28  1  0
 27 29  2  0
 30 31  2  0
 30 32  2  0
  1 33  1  0
  1 34  1  0
  1 35  1  0
  3 36  1  0
  5 37  1  0
  9 38  1  0
 11 39  1  0
 11 40  1  0
 13 41  1  0
 13 42  1  0
 13 43  1  0
 19 44  1  0
 20 45  1  0
 21 46  1  0
 23 47  1  0
 23 48  1  0
 25 49  1  0
 25 50  1  0
 26 51  1  0
 26 52  1  0
 26 53  1  0
 28 54  1  0
 28 55  1  0
 29 56  1  0
M  CHG  1  29   1
M  END
>  <filename_input>  (19) 
7N4N_0BK_docked.sdf

>  <pdb_id>  (19) 
7N4N_0BK

>  <pose_rank>  (19) 
18

>  <num_atoms_heavy>  (19) 
32

>  <num_torsions>  (19) 
6

>  <pose>  (19) 
[20.550861520754985, -5.867440428468633, -18.52249338511828, -1.0579539861857936, -2.7919198119884356, 3.684618585199105, -0.3834137095008615, -2.0590883713447203, -0.6181826915880224, -1.4723093195671886, -2.6116867118276663, -0.5561033593992493]

>  <energy>  (19) 
-578.9258552112382

>  <inter_energy>  (19) 
-619.3975917936102

>  <intra_energy>  (19) 
37.61292660497492

>  <rmsd>  (19) 
5.24735

>  <sdf_rank>  (19) 
0

$$$$

     RDKit          3D

 56 58  0  0  0  0  0  0  0  0999 V2000
   23.7641   -9.9485  -25.9255 C   0  0  0  0  0  0  0  0  0  0  0  0
   24.3543   -7.9520  -24.7039 C   0  0  0  0  0  0  0  0  0  0  0  0
   23.8911   -7.1012  -23.6806 C   0  0  0  0  0  0  0  0  0  0  0  0
   24.1621   -5.7223  -23.8117 C   0  0  0  0  0  0  0  0  0  0  0  0
   25.2770   -6.1661  -25.7949 C   0  0  0  0  0  0  0  0  0  0  0  0
   22.6087   -4.4760  -20.5923 C   0  0  0  0  0  0  0  0  0  0  0  0
   21.4684   -3.2991  -18.3333 C   0  0  0  0  0  0  0  0  0  0  0  0
   21.2452   -4.6675  -18.5554 C   0  0  0  0  0  0  0  0  0  0  0  0
   21.8388   -5.2127  -19.6825 C   0  0  0  0  0  0  0  0  0  0  0  0
   20.4287   -5.5231  -17.5766 C   0  0  2  0  0  0  0  0  0  0  0  0
   21.3654   -7.7764  -18.3589 C   0  0  0  0  0  0  0  0  0  0  0  0
   19.9671   -8.3524  -18.6885 C   0  0  2  0  0  0  0  0  0  0  0  0
   18.8361  -11.1256  -18.1160 C   0  0  0  0  0  0  0  0  0  0  0  0
   24.1110   -9.2829  -24.6785 O   0  0  0  0  0  0  0  0  0  0  0  0
   24.8619   -5.3148  -24.8745 N   0  0  0  0  0  0  0  0  0  0  0  0
   25.0411   -7.4515  -25.7237 N   0  0  0  0  0  0  0  0  0  0  0  0
   23.6775   -4.7129  -22.8387 C   0  0  0  0  0  0  0  0  0  0  0  0
   23.8270   -3.5041  -23.0554 O   0  0  0  0  0  0  0  0  0  0  0  0
   23.1420   -5.1907  -21.7005 N   0  0  0  0  0  0  0  0  0  0  0  0
   22.8007   -3.1131  -20.3238 C   0  0  0  0  0  0  0  0  0  0  0  0
   22.2120   -2.5394  -19.2160 C   0  0  0  0  0  0  0  0  0  0  0  0
   20.9581   -2.6678  -17.2366 F   0  0  0  0  0  0  0  0  0  0  0  0
   19.9986   -4.7188  -16.3512 C   0  0  0  0  0  0  0  0  0  0  0  0
   18.6073   -4.5602  -16.3698 F   0  0  0  0  0  0  0  0  0  0  0  0
   21.2704   -6.7589  -17.1946 C   0  0  0  0  0  0  0  0  0  0  0  0
   20.0360   -9.0294  -20.0630 C   0  0  0  0  0  0  0  0  0  0  0  0
   18.9859   -7.1870  -18.7145 C   0  0  0  0  0  0  0  0  0  0  0  0
   17.7791   -7.4181  -19.2985 N   0  0  0  0  0  0  0  0  0  0  0  0
   19.1814   -6.0140  -18.1837 N   0  0  0  0  0  0  0  0  0  0  0  0
   19.4809   -9.5806  -17.3748 S   0  0  2  0  0  0  0  0  0  0  0  0
   18.3790   -9.1378  -16.5820 O   0  0  0  0  0  0  0  0  0  0  0  0
   20.6634   -9.9836  -16.6937 O   0  0  0  0  0  0  0  0  0  0  0  0
   23.2661  -10.9042  -25.7048 H   0  0  0  0  0  0  0  0  0  0  0  0
   23.0855   -9.3071  -26.5071 H   0  0  0  0  0  0  0  0  0  0  0  0
   24.6785  -10.1373  -26.5071 H   0  0  0  0  0  0  0  0  0  0  0  0
   23.3403   -7.4960  -22.8141 H   0  0  0  0  0  0  0  0  0  0  0  0
   25.8432   -5.7797  -26.6552 H   0  0  0  0  0  0  0  0  0  0  0  0
   21.6974   -6.2866  -19.8743 H   0  0  0  0  0  0  0  0  0  0  0  0
   22.0364   -8.5981  -18.0681 H   0  0  0  0  0  0  0  0  0  0  0  0
   21.7587   -7.2638  -19.2491 H   0  0  0  0  0  0  0  0  0  0  0  0
   18.5453  -11.8224  -17.3161 H   0  0  0  0  0  0  0  0  0  0  0  0
   17.9590  -10.8953  -18.7386 H   0  0  0  0  0  0  0  0  0  0  0  0
   19.6167  -11.5871  -18.7386 H   0  0  0  0  0  0  0  0  0  0  0  0
   23.1143   -6.2173  -21.6206 H   0  0  0  0  0  0  0  0  0  0  0  0
   23.4204   -2.5018  -20.9963 H   0  0  0  0  0  0  0  0  0  0  0  0
   22.3363   -1.4620  -19.0327 H   0  0  0  0  0  0  0  0  0  0  0  0
   20.2957   -5.2538  -15.4371 H   0  0  0  0  0  0  0  0  0  0  0  0
   20.4834   -3.7316  -16.3682 H   0  0  0  0  0  0  0  0  0  0  0  0
   22.2851   -6.4290  -16.9271 H   0  0  0  0  0  0  0  0  0  0  0  0
   20.7785   -7.2570  -16.3462 H   0  0  0  0  0  0  0  0  0  0  0  0
   20.1465  -10.1159  -19.9315 H   0  0  0  0  0  0  0  0  0  0  0  0
   19.1119   -8.8197  -20.6217 H   0  0  0  0  0  0  0  0  0  0  0  0
   20.8990   -8.6380  -20.6217 H   0  0  0  0  0  0  0  0  0  0  0  0
   17.0768   -6.6661  -19.3444 H   0  0  0  0  0  0  0  0  0  0  0  0
   17.5678   -8.3450  -19.6948 H   0  0  0  0  0  0  0  0  0  0  0  0
   18.3823   -5.3642  -18.1894 H   0  0  0  0  0  0  0  0  0  0  0  0
  1 14  1  0
  2  3  2  0
  2 14  1  0
  2 16  1  0
  3  4  1  0
  4 15  2  0
  4 17  1  0
  5 15  1  0
  5 16  2  0
  6  9  2  0
  6 19  1  0
  6 20  1  0
  7  8  2  0
  7 21  1  0
  7 22  1  0
  8  9  1  0
  8 10  1  0
 10 23  1  1
 10 25  1  0
 10 29  1  0
 11 12  1  0
 11 25  1  0
 12 26  1  6
 12 27  1  0
 12 30  1  0
 30 13  1  6
 17 18  2  0
 17 19  1  0
 20 21  2  0
 23 24  1  0
 27 28  1  0
 27 29  2  0
 30 31  2  0
 30 32  2  0
  1 33  1  0
  1 34  1  0
  1 35  1  0
  3 36  1  0
  5 37  1  0
  9 38  1  0
 11 39  1  0
 11 40  1  0
 13 41  1  0
 13 42  1  0
 13 43  1  0
 19 44  1  0
 20 45  1  0
 21 46  1  0
 23 47  1  0
 23 48  1  0
 25 49  1  0
 25 50  1  0
 26 51  1  0
 26 52  1  0
 26 53  1  0
 28 54  1  0
 28 55  1  0
 29 56  1  0
M  CHG  1  29   1
M  END
>  <filename_input>  (20) 
7N4N_0BK_docked.sdf

>  <pdb_id>  (20) 
7N4N_0BK

>  <pose_rank>  (20) 
19

>  <num_atoms_heavy>  (20) 
32

>  <num_torsions>  (20) 
6

>  <pose>  (20) 
[22.608714876591147, -4.475954181558956, -20.592268397566517, -2.6931422681035597, 2.1206993619163783, 0.9322565835225383, -1.089899157716383, 0.6650187113929823, -1.2600470711470146, -0.20954924917981455, 3.0871737739927965, -0.7218050775287037]

>  <energy>  (20) 
-555.2430422014045

>  <inter_energy>  (20) 
-610.5940031264815

>  <intra_energy>  (20) 
69.21058152484977

>  <rmsd>  (20) 
8.03137

>  <sdf_rank>  (20) 
0

$$$$

     RDKit          3D

 56 58  0  0  0  0  0  0  0  0999 V2000
   27.9775    2.4895  -25.9311 C   0  0  0  0  0  0  0  0  0  0  0  0
   26.7186    0.5554  -25.2233 C   0  0  0  0  0  0  0  0  0  0  0  0
   26.5443   -0.8274  -25.0153 C   0  0  0  0  0  0  0  0  0  0  0  0
   25.2846   -1.2588  -24.5471 C   0  0  0  0  0  0  0  0  0  0  0  0
   24.5818    0.9498  -24.5093 C   0  0  0  0  0  0  0  0  0  0  0  0
   23.2681   -4.2043  -23.2866 C   0  0  0  0  0  0  0  0  0  0  0  0
   22.2278   -6.6258  -22.3689 C   0  0  0  0  0  0  0  0  0  0  0  0
   22.9560   -5.8306  -21.4695 C   0  0  0  0  0  0  0  0  0  0  0  0
   23.4448   -4.6322  -21.9642 C   0  0  0  0  0  0  0  0  0  0  0  0
   23.1577   -6.2440  -20.0048 C   0  0  2  0  0  0  0  0  0  0  0  0
   20.6644   -6.4161  -19.4388 C   0  0  0  0  0  0  0  0  0  0  0  0
   20.7610   -5.4049  -18.2710 C   0  0  2  0  0  0  0  0  0  0  0  0
   19.6588   -7.8374  -16.7995 C   0  0  0  0  0  0  0  0  0  0  0  0
   27.8811    1.0553  -25.7024 O   0  0  0  0  0  0  0  0  0  0  0  0
   24.3514   -0.3341  -24.3030 N   0  0  0  0  0  0  0  0  0  0  0  0
   25.7288    1.3977  -24.9528 N   0  0  0  0  0  0  0  0  0  0  0  0
   24.9498   -2.6899  -24.3466 C   0  0  0  0  0  0  0  0  0  0  0  0
   25.6323   -3.5778  -24.8721 O   0  0  0  0  0  0  0  0  0  0  0  0
   23.8398   -2.9481  -23.6312 N   0  0  0  0  0  0  0  0  0  0  0  0
   22.5333   -5.0358  -24.1438 C   0  0  0  0  0  0  0  0  0  0  0  0
   22.0446   -6.2408  -23.6832 C   0  0  0  0  0  0  0  0  0  0  0  0
   21.6738   -7.8100  -21.9783 F   0  0  0  0  0  0  0  0  0  0  0  0
   24.5247   -6.8897  -19.7864 C   0  0  0  0  0  0  0  0  0  0  0  0
   25.0206   -7.3443  -21.0146 F   0  0  0  0  0  0  0  0  0  0  0  0
   22.0006   -7.1826  -19.6025 C   0  0  0  0  0  0  0  0  0  0  0  0
   19.5961   -4.4146  -18.3926 C   0  0  0  0  0  0  0  0  0  0  0  0
   22.0951   -4.6805  -18.4013 C   0  0  0  0  0  0  0  0  0  0  0  0
   22.2409   -3.5357  -17.6809 N   0  0  0  0  0  0  0  0  0  0  0  0
   23.1185   -5.0871  -19.0965 N   0  0  0  0  0  0  0  0  0  0  0  0
   20.6767   -6.3228  -16.6520 S   0  0  2  0  0  0  0  0  0  0  0  0
   19.9923   -5.5913  -15.6346 O   0  0  0  0  0  0  0  0  0  0  0  0
   21.9822   -6.8037  -16.3535 O   0  0  0  0  0  0  0  0  0  0  0  0
   28.0127    3.0134  -24.9645 H   0  0  0  0  0  0  0  0  0  0  0  0
   28.8924    2.7093  -26.5008 H   0  0  0  0  0  0  0  0  0  0  0  0
   27.1002    2.8297  -26.5008 H   0  0  0  0  0  0  0  0  0  0  0  0
   27.3575   -1.5421  -25.2100 H   0  0  0  0  0  0  0  0  0  0  0  0
   23.7781    1.6712  -24.3001 H   0  0  0  0  0  0  0  0  0  0  0  0
   24.0042   -3.9785  -21.2787 H   0  0  0  0  0  0  0  0  0  0  0  0
   19.8578   -7.1345  -19.2302 H   0  0  0  0  0  0  0  0  0  0  0  0
   20.4517   -5.8678  -20.3684 H   0  0  0  0  0  0  0  0  0  0  0  0
   19.4083   -8.2101  -15.7953 H   0  0  0  0  0  0  0  0  0  0  0  0
   18.7328   -7.6051  -17.3458 H   0  0  0  0  0  0  0  0  0  0  0  0
   20.2236   -8.6071  -17.3458 H   0  0  0  0  0  0  0  0  0  0  0  0
   23.3335   -2.1208  -23.2847 H   0  0  0  0  0  0  0  0  0  0  0  0
   22.3466   -4.7274  -25.1831 H   0  0  0  0  0  0  0  0  0  0  0  0
   21.5015   -6.9046  -24.3720 H   0  0  0  0  0  0  0  0  0  0  0  0
   25.2179   -6.1489  -19.3612 H   0  0  0  0  0  0  0  0  0  0  0  0
   24.4267   -7.7365  -19.0911 H   0  0  0  0  0  0  0  0  0  0  0  0
   21.8775   -7.9493  -20.3816 H   0  0  0  0  0  0  0  0  0  0  0  0
   22.2528   -7.6382  -18.6335 H   0  0  0  0  0  0  0  0  0  0  0  0
   19.2550   -4.1246  -17.3879 H   0  0  0  0  0  0  0  0  0  0  0  0
   19.9307   -3.5203  -18.9386 H   0  0  0  0  0  0  0  0  0  0  0  0
   18.7673   -4.8888  -18.9386 H   0  0  0  0  0  0  0  0  0  0  0  0
   23.1220   -3.0046  -17.7306 H   0  0  0  0  0  0  0  0  0  0  0  0
   21.4702   -3.2001  -17.0856 H   0  0  0  0  0  0  0  0  0  0  0  0
   23.9884   -4.5439  -19.0008 H   0  0  0  0  0  0  0  0  0  0  0  0
  1 14  1  0
  2  3  2  0
  2 14  1  0
  2 16  1  0
  3  4  1  0
  4 15  2  0
  4 17  1  0
  5 15  1  0
  5 16  2  0
  6  9  2  0
  6 19  1  0
  6 20  1  0
  7  8  2  0
  7 21  1  0
  7 22  1  0
  8  9  1  0
  8 10  1  0
 10 23  1  6
 10 25  1  0
 10 29  1  0
 11 12  1  0
 11 25  1  0
 12 26  1  1
 12 27  1  0
 12 30  1  0
 30 13  1  6
 17 18  2  0
 17 19  1  0
 20 21  2  0
 23 24  1  0
 27 28  1  0
 27 29  2  0
 30 31  2  0
 30 32  2  0
  1 33  1  0
  1 34  1  0
  1 35  1  0
  3 36  1  0
  5 37  1  0
  9 38  1  0
 11 39  1  0
 11 40  1  0
 13 41  1  0
 13 42  1  0
 13 43  1  0
 19 44  1  0
 20 45  1  0
 21 46  1  0
 23 47  1  0
 23 48  1  0
 25 49  1  0
 25 50  1  0
 26 51  1  0
 26 52  1  0
 26 53  1  0
 28 54  1  0
 28 55  1  0
 29 56  1  0
M  CHG  1  29   1
M  END
>  <filename_input>  (21) 
7N4N_0BK_docked.sdf

>  <pdb_id>  (21) 
7N4N_0BK

>  <pose_rank>  (21) 
20

>  <num_atoms_heavy>  (21) 
32

>  <num_torsions>  (21) 
6

>  <pose>  (21) 
[23.26812054285642, -4.204280354028172, -23.286616675327007, 1.9873025094728696, 0.898637801456783, 1.3426316745028875, 0.6965258713525964, 2.4480829372573956, 2.7057271571571246, -1.2747388288006762, -0.47789456451245593, -0.04928365871728312]

>  <energy>  (21) 
-450.96500845803456

>  <inter_energy>  (21) 
-499.86221028699936

>  <intra_energy>  (21) 
41.209719312048726

>  <rmsd>  (21) 
10.5434

>  <sdf_rank>  (21) 
0

$$$$

     RDKit          3D

 56 58  0  0  0  0  0  0  0  0999 V2000
   19.4362  -10.5155  -17.5401 C   0  0  0  0  0  0  0  0  0  0  0  0
   18.6188   -9.3861  -19.5106 C   0  0  0  0  0  0  0  0  0  0  0  0
   19.7934   -8.6512  -19.7680 C   0  0  0  0  0  0  0  0  0  0  0  0
   19.6654   -7.4709  -20.5314 C   0  0  0  0  0  0  0  0  0  0  0  0
   17.3912   -7.8797  -20.7168 C   0  0  0  0  0  0  0  0  0  0  0  0
   22.8632   -6.3694  -22.2318 C   0  0  0  0  0  0  0  0  0  0  0  0
   25.1282   -4.9364  -23.0093 C   0  0  0  0  0  0  0  0  0  0  0  0
   24.3068   -4.3918  -22.0091 C   0  0  0  0  0  0  0  0  0  0  0  0
   23.1994   -5.1416  -21.6465 C   0  0  0  0  0  0  0  0  0  0  0  0
   24.6443   -3.0617  -21.3209 C   0  0  2  0  0  0  0  0  0  0  0  0
   22.2168   -2.3951  -20.8415 C   0  0  0  0  0  0  0  0  0  0  0  0
   22.3362   -1.0488  -21.5957 C   0  0  2  0  0  0  0  0  0  0  0  0
   21.5311    1.8215  -20.9550 C   0  0  0  0  0  0  0  0  0  0  0  0
   18.6416  -10.5114  -18.7595 O   0  0  0  0  0  0  0  0  0  0  0  0
   18.4526   -7.1411  -20.9852 N   0  0  0  0  0  0  0  0  0  0  0  0
   17.4570   -8.9757  -20.0044 N   0  0  0  0  0  0  0  0  0  0  0  0
   20.8108   -6.5739  -20.8208 C   0  0  0  0  0  0  0  0  0  0  0  0
   20.8983   -5.4660  -20.2776 O   0  0  0  0  0  0  0  0  0  0  0  0
   21.6884   -7.0066  -21.7446 N   0  0  0  0  0  0  0  0  0  0  0  0
   23.7168   -6.8685  -23.2260 C   0  0  0  0  0  0  0  0  0  0  0  0
   24.8203   -6.1386  -23.6168 C   0  0  0  0  0  0  0  0  0  0  0  0
   26.2620   -4.2977  -23.4195 F   0  0  0  0  0  0  0  0  0  0  0  0
   26.0624   -3.0668  -20.7531 C   0  0  0  0  0  0  0  0  0  0  0  0
   25.9989   -3.1520  -19.3567 F   0  0  0  0  0  0  0  0  0  0  0  0
   23.5832   -2.7966  -20.2320 C   0  0  0  0  0  0  0  0  0  0  0  0
   21.1045   -0.8890  -22.4955 C   0  0  0  0  0  0  0  0  0  0  0  0
   23.6076   -1.1042  -22.4336 C   0  0  0  0  0  0  0  0  0  0  0  0
   23.7337   -0.1693  -23.4139 N   0  0  0  0  0  0  0  0  0  0  0  0
   24.5997   -1.9298  -22.2599 N   0  0  0  0  0  0  0  0  0  0  0  0
   22.4331    0.3430  -20.3612 S   0  0  2  0  0  0  0  0  0  0  0  0
   23.7601    0.8416  -20.1903 O   0  0  0  0  0  0  0  0  0  0  0  0
   21.7237   -0.0571  -19.1944 O   0  0  0  0  0  0  0  0  0  0  0  0
   18.7675  -10.5120  -16.6667 H   0  0  0  0  0  0  0  0  0  0  0  0
   20.0662  -11.4169  -17.5160 H   0  0  0  0  0  0  0  0  0  0  0  0
   20.0754   -9.6206  -17.5160 H   0  0  0  0  0  0  0  0  0  0  0  0
   20.7709   -8.9841  -19.3892 H   0  0  0  0  0  0  0  0  0  0  0  0
   16.4134   -7.5612  -21.1073 H   0  0  0  0  0  0  0  0  0  0  0  0
   22.5462   -4.7501  -20.8527 H   0  0  0  0  0  0  0  0  0  0  0  0
   21.4759   -2.2940  -20.0347 H   0  0  0  0  0  0  0  0  0  0  0  0
   21.9001   -3.1741  -21.5506 H   0  0  0  0  0  0  0  0  0  0  0  0
   21.1753    2.4047  -20.0929 H   0  0  0  0  0  0  0  0  0  0  0  0
   22.2048    2.4417  -21.5645 H   0  0  0  0  0  0  0  0  0  0  0  0
   20.6714    1.5062  -21.5645 H   0  0  0  0  0  0  0  0  0  0  0  0
   21.4806   -7.9276  -22.1562 H   0  0  0  0  0  0  0  0  0  0  0  0
   23.5067   -7.8415  -23.6941 H   0  0  0  0  0  0  0  0  0  0  0  0
   25.4641   -6.5191  -24.4235 H   0  0  0  0  0  0  0  0  0  0  0  0
   26.6144   -3.9317  -21.1498 H   0  0  0  0  0  0  0  0  0  0  0  0
   26.5803   -2.1409  -21.0438 H   0  0  0  0  0  0  0  0  0  0  0  0
   23.4511   -3.7106  -19.6344 H   0  0  0  0  0  0  0  0  0  0  0  0
   23.9364   -1.9622  -19.6083 H   0  0  0  0  0  0  0  0  0  0  0  0
   20.2066   -0.7725  -21.8708 H   0  0  0  0  0  0  0  0  0  0  0  0
   21.2273    0.0007  -23.1306 H   0  0  0  0  0  0  0  0  0  0  0  0
   20.9962   -1.7807  -23.1306 H   0  0  0  0  0  0  0  0  0  0  0  0
   24.5727   -0.1594  -24.0113 H   0  0  0  0  0  0  0  0  0  0  0  0
   22.9901    0.5286  -23.5587 H   0  0  0  0  0  0  0  0  0  0  0  0
   25.4377   -1.7747  -22.8383 H   0  0  0  0  0  0  0  0  0  0  0  0
  1 14  1  0
  2  3  2  0
  2 14  1  0
  2 16  1  0
  3  4  1  0
  4 15  2  0
  4 17  1  0
  5 15  1  0
  5 16  2  0
  6  9  2  0
  6 19  1  0
  6 20  1  0
  7  8  2  0
  7 21  1  0
  7 22  1  0
  8  9  1  0
  8 10  1  0
 10 23  1  1
 10 25  1  0
 10 29  1  0
 11 12  1  0
 11 25  1  0
 12 26  1  6
 12 27  1  0
 12 30  1  0
 30 13  1  6
 17 18  2  0
 17 19  1  0
 20 21  2  0
 23 24  1  0
 27 28  1  0
 27 29  2  0
 30 31  2  0
 30 32  2  0
  1 33  1  0
  1 34  1  0
  1 35  1  0
  3 36  1  0
  5 37  1  0
  9 38  1  0
 11 39  1  0
 11 40  1  0
 13 41  1  0
 13 42  1  0
 13 43  1  0
 19 44  1  0
 20 45  1  0
 21 46  1  0
 23 47  1  0
 23 48  1  0
 25 49  1  0
 25 50  1  0
 26 51  1  0
 26 52  1  0
 26 53  1  0
 28 54  1  0
 28 55  1  0
 29 56  1  0
M  CHG  1  29   1
M  END
>  <filename_input>  (22) 
7N4N_0BK_docked.sdf

>  <pdb_id>  (22) 
7N4N_0BK

>  <pose_rank>  (22) 
21

>  <num_atoms_heavy>  (22) 
32

>  <num_torsions>  (22) 
6

>  <pose>  (22) 
[22.86315652485672, -6.369404103487744, -22.231820551282908, 0.5105475764123983, 4.102194038036445, 0.46805369388963064, 10.607710858506284, 6.771326928429972, 1.1843443095965582, 9.513197523277713, 4.21516950726866, -2.408451084816856]

>  <energy>  (22) 
-466.686647933542

>  <inter_energy>  (22) 
-510.518573761947

>  <intra_energy>  (22) 
51.977256693006396

>  <rmsd>  (22) 
7.11581

>  <sdf_rank>  (22) 
0

$$$$

     RDKit          3D

 56 58  0  0  0  0  0  0  0  0999 V2000
   29.2897   -3.7282  -23.8415 C   0  0  0  0  0  0  0  0  0  0  0  0
   27.1642   -3.1803  -22.8372 C   0  0  0  0  0  0  0  0  0  0  0  0
   26.5272   -4.3558  -22.3921 C   0  0  0  0  0  0  0  0  0  0  0  0
   25.1202   -4.4078  -22.4905 C   0  0  0  0  0  0  0  0  0  0  0  0
   25.1370   -2.2588  -23.3595 C   0  0  0  0  0  0  0  0  0  0  0  0
   22.1243   -6.7220  -22.4706 C   0  0  0  0  0  0  0  0  0  0  0  0
   20.1919   -8.6519  -21.8968 C   0  0  0  0  0  0  0  0  0  0  0  0
   20.6280   -7.8166  -20.8558 C   0  0  0  0  0  0  0  0  0  0  0  0
   21.5799   -6.8659  -21.1875 C   0  0  0  0  0  0  0  0  0  0  0  0
   20.0460   -7.9190  -19.4389 C   0  0  2  0  0  0  0  0  0  0  0  0
   19.8745   -5.3925  -19.0463 C   0  0  0  0  0  0  0  0  0  0  0  0
   20.7438   -5.4351  -17.7664 C   0  0  2  0  0  0  0  0  0  0  0  0
   19.6696   -3.5066  -15.6629 C   0  0  0  0  0  0  0  0  0  0  0  0
   28.5113   -3.0554  -22.8120 O   0  0  0  0  0  0  0  0  0  0  0  0
   24.4808   -3.3360  -22.9679 N   0  0  0  0  0  0  0  0  0  0  0  0
   26.4412   -2.1670  -23.2985 N   0  0  0  0  0  0  0  0  0  0  0  0
   24.3330   -5.6080  -22.1160 C   0  0  0  0  0  0  0  0  0  0  0  0
   24.8310   -6.4958  -21.4130 O   0  0  0  0  0  0  0  0  0  0  0  0
   23.0962   -5.6969  -22.6385 N   0  0  0  0  0  0  0  0  0  0  0  0
   21.6544   -7.5815  -23.4739 C   0  0  0  0  0  0  0  0  0  0  0  0
   20.7159   -8.5461  -23.1709 C   0  0  0  0  0  0  0  0  0  0  0  0
   19.2337   -9.6007  -21.6885 F   0  0  0  0  0  0  0  0  0  0  0  0
   19.3450   -9.2576  -19.2149 C   0  0  0  0  0  0  0  0  0  0  0  0
   19.2460   -9.5009  -17.8394 F   0  0  0  0  0  0  0  0  0  0  0  0
   19.0977   -6.7219  -19.2168 C   0  0  0  0  0  0  0  0  0  0  0  0
   21.7709   -4.2986  -17.8427 C   0  0  0  0  0  0  0  0  0  0  0  0
   21.4440   -6.7879  -17.7327 C   0  0  0  0  0  0  0  0  0  0  0  0
   22.4955   -6.9099  -16.8781 N   0  0  0  0  0  0  0  0  0  0  0  0
   21.0930   -7.8449  -18.4077 N   0  0  0  0  0  0  0  0  0  0  0  0
   19.6505   -5.2332  -16.2715 S   0  0  2  0  0  0  0  0  0  0  0  0
   20.1206   -5.9631  -15.1378 O   0  0  0  0  0  0  0  0  0  0  0  0
   18.3049   -5.4471  -16.6817 O   0  0  0  0  0  0  0  0  0  0  0  0
   30.0408   -4.3774  -23.3678 H   0  0  0  0  0  0  0  0  0  0  0  0
   28.6209   -4.3373  -24.4674 H   0  0  0  0  0  0  0  0  0  0  0  0
   29.7956   -2.9783  -24.4674 H   0  0  0  0  0  0  0  0  0  0  0  0
   27.1036   -5.1993  -21.9842 H   0  0  0  0  0  0  0  0  0  0  0  0
   24.5650   -1.4053  -23.7524 H   0  0  0  0  0  0  0  0  0  0  0  0
   21.9286   -6.1844  -20.3975 H   0  0  0  0  0  0  0  0  0  0  0  0
   19.1580   -4.5614  -18.9701 H   0  0  0  0  0  0  0  0  0  0  0  0
   20.5300   -5.2483  -19.9178 H   0  0  0  0  0  0  0  0  0  0  0  0
   19.6696   -3.5055  -14.5629 H   0  0  0  0  0  0  0  0  0  0  0  0
   20.5734   -2.9984  -16.0301 H   0  0  0  0  0  0  0  0  0  0  0  0
   18.7773   -2.9785  -16.0301 H   0  0  0  0  0  0  0  0  0  0  0  0
   22.8138   -4.9135  -23.2446 H   0  0  0  0  0  0  0  0  0  0  0  0
   22.0338   -7.4866  -24.5020 H   0  0  0  0  0  0  0  0  0  0  0  0
   20.3800   -9.2409  -23.9548 H   0  0  0  0  0  0  0  0  0  0  0  0
   18.3379   -9.2238  -19.6560 H   0  0  0  0  0  0  0  0  0  0  0  0
   19.9237  -10.0623  -19.6919 H   0  0  0  0  0  0  0  0  0  0  0  0
   18.4278   -6.6333  -20.0848 H   0  0  0  0  0  0  0  0  0  0  0  0
   18.5287   -6.9049  -18.2934 H   0  0  0  0  0  0  0  0  0  0  0  0
   22.0511   -3.9886  -16.8252 H   0  0  0  0  0  0  0  0  0  0  0  0
   22.6655   -4.6483  -18.3789 H   0  0  0  0  0  0  0  0  0  0  0  0
   21.3328   -3.4439  -18.3789 H   0  0  0  0  0  0  0  0  0  0  0  0
   23.0062   -7.8020  -16.8139 H   0  0  0  0  0  0  0  0  0  0  0  0
   22.7810   -6.1100  -16.2954 H   0  0  0  0  0  0  0  0  0  0  0  0
   21.5994   -8.7171  -18.1985 H   0  0  0  0  0  0  0  0  0  0  0  0
  1 14  1  0
  2  3  2  0
  2 14  1  0
  2 16  1  0
  3  4  1  0
  4 15  2  0
  4 17  1  0
  5 15  1  0
  5 16  2  0
  6  9  2  0
  6 19  1  0
  6 20  1  0
  7  8  2  0
  7 21  1  0
  7 22  1  0
  8  9  1  0
  8 10  1  0
 10 23  1  6
 10 25  1  0
 10 29  1  0
 11 12  1  0
 11 25  1  0
 12 26  1  6
 12 27  1  0
 12 30  1  0
 30 13  1  1
 17 18  2  0
 17 19  1  0
 20 21  2  0
 23 24  1  0
 27 28  1  0
 27 29  2  0
 30 31  2  0
 30 32  2  0
  1 33  1  0
  1 34  1  0
  1 35  1  0
  3 36  1  0
  5 37  1  0
  9 38  1  0
 11 39  1  0
 11 40  1  0
 13 41  1  0
 13 42  1  0
 13 43  1  0
 19 44  1  0
 20 45  1  0
 21 46  1  0
 23 47  1  0
 23 48  1  0
 25 49  1  0
 25 50  1  0
 26 51  1  0
 26 52  1  0
 26 53  1  0
 28 54  1  0
 28 55  1  0
 29 56  1  0
M  CHG  1  29   1
M  END
>  <filename_input>  (23) 
7N4N_0BK_docked.sdf

>  <pdb_id>  (23) 
7N4N_0BK

>  <pose_rank>  (23) 
22

>  <num_atoms_heavy>  (23) 
32

>  <num_torsions>  (23) 
6

>  <pose>  (23) 
[22.124343141328538, -6.72197151886177, -22.470552589222088, -2.857123293421909, -1.0057481230175245, -2.822253029827535, -0.7044060387316482, 1.2595340835875537, -0.43483277194360964, -1.9334144496580299, 0.12479610615283021, -1.8148382388171433]

>  <energy>  (23) 
-482.90779228424515

>  <inter_energy>  (23) 
-551.9925913027444

>  <intra_energy>  (23) 
63.01950328433997

>  <rmsd>  (23) 
8.22672

>  <sdf_rank>  (23) 
0

$$$$

     RDKit          3D

 56 58  0  0  0  0  0  0  0  0999 V2000
   20.2603    1.9622  -21.4867 C   0  0  0  0  0  0  0  0  0  0  0  0
   21.7054    1.6735  -23.3986 C   0  0  0  0  0  0  0  0  0  0  0  0
   21.8723    0.3004  -23.1294 C   0  0  0  0  0  0  0  0  0  0  0  0
   22.4733   -0.4887  -24.1335 C   0  0  0  0  0  0  0  0  0  0  0  0
   22.6239    1.3959  -25.4747 C   0  0  0  0  0  0  0  0  0  0  0  0
   23.4758   -3.6156  -22.2497 C   0  0  0  0  0  0  0  0  0  0  0  0
   24.0160   -6.1002  -21.0996 C   0  0  0  0  0  0  0  0  0  0  0  0
   23.4259   -5.1098  -20.2980 C   0  0  0  0  0  0  0  0  0  0  0  0
   23.1653   -3.8955  -20.9124 C   0  0  0  0  0  0  0  0  0  0  0  0
   23.0456   -5.3743  -18.8344 C   0  0  2  0  0  0  0  0  0  0  0  0
   21.4467   -7.3148  -19.3291 C   0  0  0  0  0  0  0  0  0  0  0  0
   20.2496   -6.6358  -18.6210 C   0  0  2  0  0  0  0  0  0  0  0  0
   19.8857   -9.2892  -17.1634 C   0  0  0  0  0  0  0  0  0  0  0  0
   21.1698    2.5118  -22.4813 O   0  0  0  0  0  0  0  0  0  0  0  0
   22.8171    0.1039  -25.2807 N   0  0  0  0  0  0  0  0  0  0  0  0
   22.0812    2.1710  -24.5705 N   0  0  0  0  0  0  0  0  0  0  0  0
   22.7633   -1.9323  -23.9538 C   0  0  0  0  0  0  0  0  0  0  0  0
   22.5946   -2.7309  -24.8835 O   0  0  0  0  0  0  0  0  0  0  0  0
   23.1447   -2.3151  -22.7215 N   0  0  0  0  0  0  0  0  0  0  0  0
   24.0641   -4.6393  -23.0061 C   0  0  0  0  0  0  0  0  0  0  0  0
   24.3468   -5.8549  -22.4185 C   0  0  0  0  0  0  0  0  0  0  0  0
   24.2856   -7.3431  -20.6051 F   0  0  0  0  0  0  0  0  0  0  0  0
   24.1215   -4.8701  -17.8744 C   0  0  0  0  0  0  0  0  0  0  0  0
   24.4633   -5.8969  -16.9856 F   0  0  0  0  0  0  0  0  0  0  0  0
   22.7804   -6.8856  -18.6682 C   0  0  0  0  0  0  0  0  0  0  0  0
   19.0180   -6.7636  -19.5260 C   0  0  0  0  0  0  0  0  0  0  0  0
   20.6113   -5.1703  -18.4133 C   0  0  0  0  0  0  0  0  0  0  0  0
   19.5885   -4.3264  -18.1088 N   0  0  0  0  0  0  0  0  0  0  0  0
   21.8127   -4.6690  -18.4504 N   0  0  0  0  0  0  0  0  0  0  0  0
   19.9497   -7.4685  -16.9817 S   0  0  2  0  0  0  0  0  0  0  0  0
   18.6652   -7.1696  -16.4345 O   0  0  0  0  0  0  0  0  0  0  0  0
   21.0871   -7.2366  -16.1588 O   0  0  0  0  0  0  0  0  0  0  0  0
   20.6378    2.1903  -20.4790 H   0  0  0  0  0  0  0  0  0  0  0  0
   19.2634    2.4091  -21.6147 H   0  0  0  0  0  0  0  0  0  0  0  0
   20.1925    0.8718  -21.6147 H   0  0  0  0  0  0  0  0  0  0  0  0
   21.5471   -0.1390  -22.1748 H   0  0  0  0  0  0  0  0  0  0  0  0
   22.9313    1.8380  -26.4339 H   0  0  0  0  0  0  0  0  0  0  0  0
   22.6868   -3.1051  -20.3154 H   0  0  0  0  0  0  0  0  0  0  0  0
   21.3401   -8.4071  -19.2538 H   0  0  0  0  0  0  0  0  0  0  0  0
   21.4572   -7.0076  -20.3853 H   0  0  0  0  0  0  0  0  0  0  0  0
   19.8692   -9.7567  -16.1679 H   0  0  0  0  0  0  0  0  0  0  0  0
   18.9771   -9.5708  -17.7158 H   0  0  0  0  0  0  0  0  0  0  0  0
   20.7722   -9.6339  -17.7158 H   0  0  0  0  0  0  0  0  0  0  0  0
   23.2054   -1.5612  -22.0222 H   0  0  0  0  0  0  0  0  0  0  0  0
   24.3002   -4.4731  -24.0676 H   0  0  0  0  0  0  0  0  0  0  0  0
   24.8425   -6.6400  -23.0082 H   0  0  0  0  0  0  0  0  0  0  0  0
   25.0113   -4.5665  -18.4455 H   0  0  0  0  0  0  0  0  0  0  0  0
   23.7390   -4.0059  -17.3114 H   0  0  0  0  0  0  0  0  0  0  0  0
   23.6047   -7.4446  -19.1351 H   0  0  0  0  0  0  0  0  0  0  0  0
   22.7128   -7.1032  -17.5920 H   0  0  0  0  0  0  0  0  0  0  0  0
   18.1148   -6.8574  -18.9051 H   0  0  0  0  0  0  0  0  0  0  0  0
   18.9351   -5.8693  -20.1610 H   0  0  0  0  0  0  0  0  0  0  0  0
   19.1206   -7.6560  -20.1610 H   0  0  0  0  0  0  0  0  0  0  0  0
   19.7749   -3.3248  -17.9577 H   0  0  0  0  0  0  0  0  0  0  0  0
   18.6278   -4.6892  -18.0293 H   0  0  0  0  0  0  0  0  0  0  0  0
   21.9096   -3.6788  -18.1840 H   0  0  0  0  0  0  0  0  0  0  0  0
  1 14  1  0
  2  3  2  0
  2 14  1  0
  2 16  1  0
  3  4  1  0
  4 15  2  0
  4 17  1  0
  5 15  1  0
  5 16  2  0
  6  9  2  0
  6 19  1  0
  6 20  1  0
  7  8  2  0
  7 21  1  0
  7 22  1  0
  8  9  1  0
  8 10  1  0
 10 23  1  1
 10 25  1  0
 10 29  1  0
 11 12  1  0
 11 25  1  0
 12 26  1  6
 12 27  1  0
 12 30  1  0
 30 13  1  6
 17 18  2  0
 17 19  1  0
 20 21  2  0
 23 24  1  0
 27 28  1  0
 27 29  2  0
 30 31  2  0
 30 32  2  0
  1 33  1  0
  1 34  1  0
  1 35  1  0
  3 36  1  0
  5 37  1  0
  9 38  1  0
 11 39  1  0
 11 40  1  0
 13 41  1  0
 13 42  1  0
 13 43  1  0
 19 44  1  0
 20 45  1  0
 21 46  1  0
 23 47  1  0
 23 48  1  0
 25 49  1  0
 25 50  1  0
 26 51  1  0
 26 52  1  0
 26 53  1  0
 28 54  1  0
 28 55  1  0
 29 56  1  0
M  CHG  1  29   1
M  END
>  <filename_input>  (24) 
7N4N_0BK_docked.sdf

>  <pdb_id>  (24) 
7N4N_0BK

>  <pose_rank>  (24) 
23

>  <num_atoms_heavy>  (24) 
32

>  <num_torsions>  (24) 
6

>  <pose>  (24) 
[23.47578083074144, -3.615560548989759, -22.249741352559646, 1.027915572481215, 1.5335911338231418, 2.042008302129543, 0.6700437880028504, -4.157506499909043, 0.8121176768369536, 0.608181323147443, 2.2839790007756777, 2.66586270439375]

>  <energy>  (24) 
-467.08355338192655

>  <inter_energy>  (24) 
-541.8620450527494

>  <intra_energy>  (24) 
51.42460960172868

>  <rmsd>  (24) 
10.5285

>  <sdf_rank>  (24) 
0

$$$$

     RDKit          3D

 56 58  0  0  0  0  0  0  0  0999 V2000
   19.3634   -7.6036  -16.5826 C   0  0  0  0  0  0  0  0  0  0  0  0
   19.8685   -7.4483  -18.9379 C   0  0  0  0  0  0  0  0  0  0  0  0
   20.7718   -7.1579  -19.9797 C   0  0  0  0  0  0  0  0  0  0  0  0
   20.4823   -7.6881  -21.2553 C   0  0  0  0  0  0  0  0  0  0  0  0
   18.5919   -8.6950  -20.3687 C   0  0  0  0  0  0  0  0  0  0  0  0
   23.3121   -6.1134  -23.2157 C   0  0  0  0  0  0  0  0  0  0  0  0
   25.1941   -5.0060  -24.9536 C   0  0  0  0  0  0  0  0  0  0  0  0
   24.5831   -4.1645  -24.0100 C   0  0  0  0  0  0  0  0  0  0  0  0
   23.6634   -4.7581  -23.1605 C   0  0  0  0  0  0  0  0  0  0  0  0
   24.9503   -2.6784  -23.8941 C   0  0  2  0  0  0  0  0  0  0  0  0
   22.7674   -1.7929  -24.9027 C   0  0  0  0  0  0  0  0  0  0  0  0
   23.4912   -1.0019  -26.0189 C   0  0  2  0  0  0  0  0  0  0  0  0
   22.9764    1.0947  -23.8656 C   0  0  0  0  0  0  0  0  0  0  0  0
   20.0479   -6.9544  -17.6909 O   0  0  0  0  0  0  0  0  0  0  0  0
   19.3941   -8.4519  -21.3893 N   0  0  0  0  0  0  0  0  0  0  0  0
   18.8115   -8.2171  -19.1702 N   0  0  0  0  0  0  0  0  0  0  0  0
   21.3161   -7.4071  -22.4496 C   0  0  0  0  0  0  0  0  0  0  0  0
   21.0961   -7.9816  -23.5228 O   0  0  0  0  0  0  0  0  0  0  0  0
   22.3461   -6.5597  -22.2717 N   0  0  0  0  0  0  0  0  0  0  0  0
   23.9517   -6.9097  -24.1765 C   0  0  0  0  0  0  0  0  0  0  0  0
   24.8628   -6.3443  -25.0443 C   0  0  0  0  0  0  0  0  0  0  0  0
   26.1383   -4.5327  -25.8174 F   0  0  0  0  0  0  0  0  0  0  0  0
   25.9986   -2.4417  -22.8084 C   0  0  0  0  0  0  0  0  0  0  0  0
   27.2634   -2.3483  -23.4023 F   0  0  0  0  0  0  0  0  0  0  0  0
   23.6561   -1.8781  -23.6367 C   0  0  0  0  0  0  0  0  0  0  0  0
   22.7733   -1.2744  -27.3466 C   0  0  0  0  0  0  0  0  0  0  0  0
   24.9295   -1.5018  -26.0758 C   0  0  0  0  0  0  0  0  0  0  0  0
   25.6439   -1.1801  -27.1880 N   0  0  0  0  0  0  0  0  0  0  0  0
   25.5453   -2.1604  -25.1362 N   0  0  0  0  0  0  0  0  0  0  0  0
   23.4518    0.8156  -25.6115 S   0  0  2  0  0  0  0  0  0  0  0  0
   22.4348    1.5216  -26.3228 O   0  0  0  0  0  0  0  0  0  0  0  0
   24.7825    1.3120  -25.6977 O   0  0  0  0  0  0  0  0  0  0  0  0
   19.7640   -7.2237  -15.6312 H   0  0  0  0  0  0  0  0  0  0  0  0
   18.2864   -7.3872  -16.6395 H   0  0  0  0  0  0  0  0  0  0  0  0
   19.5225   -8.6906  -16.6395 H   0  0  0  0  0  0  0  0  0  0  0  0
   21.6669   -6.5426  -19.8057 H   0  0  0  0  0  0  0  0  0  0  0  0
   17.7044   -9.3238  -20.5324 H   0  0  0  0  0  0  0  0  0  0  0  0
   23.1809   -4.1286  -22.3982 H   0  0  0  0  0  0  0  0  0  0  0  0
   21.8254   -1.2839  -24.6505 H   0  0  0  0  0  0  0  0  0  0  0  0
   22.5622   -2.8116  -25.2634 H   0  0  0  0  0  0  0  0  0  0  0  0
   23.7340    0.6499  -23.2037 H   0  0  0  0  0  0  0  0  0  0  0  0
   22.9095    2.1754  -23.6721 H   0  0  0  0  0  0  0  0  0  0  0  0
   22.0001    0.6264  -23.6721 H   0  0  0  0  0  0  0  0  0  0  0  0
   22.4495   -6.1816  -21.3193 H   0  0  0  0  0  0  0  0  0  0  0  0
   23.7269   -7.9848  -24.2381 H   0  0  0  0  0  0  0  0  0  0  0  0
   25.3322   -6.9678  -25.8196 H   0  0  0  0  0  0  0  0  0  0  0  0
   25.7721   -1.5062  -22.2760 H   0  0  0  0  0  0  0  0  0  0  0  0
   25.9864   -3.2782  -22.0942 H   0  0  0  0  0  0  0  0  0  0  0  0
   23.0867   -2.3712  -22.8351 H   0  0  0  0  0  0  0  0  0  0  0  0
   23.9398   -0.8546  -23.3502 H   0  0  0  0  0  0  0  0  0  0  0  0
   21.7623   -1.6580  -27.1447 H   0  0  0  0  0  0  0  0  0  0  0  0
   22.7027   -0.3405  -27.9236 H   0  0  0  0  0  0  0  0  0  0  0  0
   23.3400   -2.0199  -27.9236 H   0  0  0  0  0  0  0  0  0  0  0  0
   26.6213   -1.4917  -27.2803 H   0  0  0  0  0  0  0  0  0  0  0  0
   25.2073   -0.6250  -27.9378 H   0  0  0  0  0  0  0  0  0  0  0  0
   26.5504   -2.3365  -25.2766 H   0  0  0  0  0  0  0  0  0  0  0  0
  1 14  1  0
  2  3  2  0
  2 14  1  0
  2 16  1  0
  3  4  1  0
  4 15  2  0
  4 17  1  0
  5 15  1  0
  5 16  2  0
  6  9  2  0
  6 19  1  0
  6 20  1  0
  7  8  2  0
  7 21  1  0
  7 22  1  0
  8  9  1  0
  8 10  1  0
 10 23  1  1
 10 25  1  0
 10 29  1  0
 11 12  1  0
 11 25  1  0
 12 26  1  6
 12 27  1  0
 12 30  1  0
 30 13  1  1
 17 18  2  0
 17 19  1  0
 20 21  2  0
 23 24  1  0
 27 28  1  0
 27 29  2  0
 30 31  2  0
 30 32  2  0
  1 33  1  0
  1 34  1  0
  1 35  1  0
  3 36  1  0
  5 37  1  0
  9 38  1  0
 11 39  1  0
 11 40  1  0
 13 41  1  0
 13 42  1  0
 13 43  1  0
 19 44  1  0
 20 45  1  0
 21 46  1  0
 23 47  1  0
 23 48  1  0
 25 49  1  0
 25 50  1  0
 26 51  1  0
 26 52  1  0
 26 53  1  0
 28 54  1  0
 28 55  1  0
 29 56  1  0
M  CHG  1  29   1
M  END
>  <filename_input>  (25) 
7N4N_0BK_docked.sdf

>  <pdb_id>  (25) 
7N4N_0BK

>  <pose_rank>  (25) 
24

>  <num_atoms_heavy>  (25) 
32

>  <num_torsions>  (25) 
6

>  <pose>  (25) 
[23.312144938469487, -6.113384640932136, -23.215676562213922, 0.9360085340698278, 4.229102363225553, -0.3899136981120349, -2.6997452079663202, 3.237514558441568, -1.5066874773104266, -0.673304353873635, 2.856983049049871, 0.3201743056354904]

>  <energy>  (25) 
-355.50131265230664

>  <inter_energy>  (25) 
-409.22807549068585

>  <intra_energy>  (25) 
50.174630909266654

>  <rmsd>  (25) 
8.39821

>  <sdf_rank>  (25) 
0

$$$$

     RDKit          3D

 56 58  0  0  0  0  0  0  0  0999 V2000
   25.2440  -15.8560  -14.2940 C   0  0  0  0  0  0  0  0  0  0  0  0
   23.8030  -14.0290  -14.9360 C   0  0  0  0  0  0  0  0  0  0  0  0
   22.5850  -13.4840  -15.3890 C   0  0  0  0  0  0  0  0  0  0  0  0
   22.5210  -12.0830  -15.5480 C   0  0  0  0  0  0  0  0  0  0  0  0
   24.7110  -11.9340  -14.8030 C   0  0  0  0  0  0  0  0  0  0  0  0
   20.5340   -9.1950  -16.9770 C   0  0  0  0  0  0  0  0  0  0  0  0
   18.8560   -7.2380  -18.0460 C   0  0  0  0  0  0  0  0  0  0  0  0
   20.1770   -6.8820  -17.7300 C   0  0  0  0  0  0  0  0  0  0  0  0
   20.9780   -7.8870  -17.2120 C   0  0  0  0  0  0  0  0  0  0  0  0
   20.7180   -5.4690  -17.9900 C   0  0  2  0  0  0  0  0  0  0  0  0
   21.8450   -6.0300  -20.2220 C   0  0  0  0  0  0  0  0  0  0  0  0
   23.2380   -5.5480  -19.7500 C   0  0  2  0  0  0  0  0  0  0  0  0
   25.3600   -3.4130  -20.2360 C   0  0  0  0  0  0  0  0  0  0  0  0
   23.9660  -15.3640  -14.7870 O   0  0  0  0  0  0  0  0  0  0  0  0
   23.6010  -11.3620  -15.2330 N   0  0  0  0  0  0  0  0  0  0  0  0
   24.8230  -13.2290  -14.6500 N   0  0  0  0  0  0  0  0  0  0  0  0
   21.3210  -11.3890  -16.0760 C   0  0  0  0  0  0  0  0  0  0  0  0
   20.2550  -11.9980  -16.2280 O   0  0  0  0  0  0  0  0  0  0  0  0
   21.4860  -10.1030  -16.4360 N   0  0  0  0  0  0  0  0  0  0  0  0
   19.2060   -9.4980  -17.3100 C   0  0  0  0  0  0  0  0  0  0  0  0
   18.3810   -8.5150  -17.8160 C   0  0  0  0  0  0  0  0  0  0  0  0
   17.9910   -6.3350  -18.5920 F   0  0  0  0  0  0  0  0  0  0  0  0
   19.9080   -4.4110  -17.2430 C   0  0  0  0  0  0  0  0  0  0  0  0
   20.3740   -3.1390  -17.5980 F   0  0  0  0  0  0  0  0  0  0  0  0
   20.7260   -5.2260  -19.5140 C   0  0  0  0  0  0  0  0  0  0  0  0
   24.2760   -6.6020  -20.1550 C   0  0  0  0  0  0  0  0  0  0  0  0
   23.1840   -5.4050  -18.2340 C   0  0  0  0  0  0  0  0  0  0  0  0
   24.3770   -5.3100  -17.5870 N   0  0  0  0  0  0  0  0  0  0  0  0
   22.1020   -5.3140  -17.5150 N   0  0  0  0  0  0  0  0  0  0  0  0
   23.6240   -3.9070  -20.5430 S   0  0  2  0  0  0  0  0  0  0  0  0
   22.8910   -2.8260  -19.9660 O   0  0  0  0  0  0  0  0  0  0  0  0
   23.5500   -4.0750  -21.9540 O   0  0  0  0  0  0  0  0  0  0  0  0
   25.2381  -15.8537  -13.1940 H   0  0  0  0  0  0  0  0  0  0  0  0
   25.4072  -16.8812  -14.6577 H   0  0  0  0  0  0  0  0  0  0  0  0
   26.0526  -15.2049  -14.6577 H   0  0  0  0  0  0  0  0  0  0  0  0
   21.7187  -14.1249  -15.6099 H   0  0  0  0  0  0  0  0  0  0  0  0
   25.5754  -11.2970  -14.5641 H   0  0  0  0  0  0  0  0  0  0  0  0
   22.0234   -7.6438  -16.9712 H   0  0  0  0  0  0  0  0  0  0  0  0
   21.7614   -5.8869  -21.3094 H   0  0  0  0  0  0  0  0  0  0  0  0
   21.7323   -7.0950  -19.9708 H   0  0  0  0  0  0  0  0  0  0  0  0
   25.5404   -3.3617  -19.1521 H   0  0  0  0  0  0  0  0  0  0  0  0
   26.0371   -4.1541  -20.6857 H   0  0  0  0  0  0  0  0  0  0  0  0
   25.5455   -2.4264  -20.6857 H   0  0  0  0  0  0  0  0  0  0  0  0
   22.4338   -9.7231  -16.3010 H   0  0  0  0  0  0  0  0  0  0  0  0
   18.8223  -10.5191  -17.1678 H   0  0  0  0  0  0  0  0  0  0  0  0
   17.3301   -8.7511  -18.0395 H   0  0  0  0  0  0  0  0  0  0  0  0
   18.8456   -4.5023  -17.5132 H   0  0  0  0  0  0  0  0  0  0  0  0
   20.0208   -4.5566  -16.1585 H   0  0  0  0  0  0  0  0  0  0  0  0
   19.7533   -5.5306  -19.9277 H   0  0  0  0  0  0  0  0  0  0  0  0
   20.9136   -4.1561  -19.6873 H   0  0  0  0  0  0  0  0  0  0  0  0
   24.7163   -7.0491  -19.2515 H   0  0  0  0  0  0  0  0  0  0  0  0
   23.7881   -7.3866  -20.7520 H   0  0  0  0  0  0  0  0  0  0  0  0
   25.0680   -6.1262  -20.7520 H   0  0  0  0  0  0  0  0  0  0  0  0
   24.4006   -5.2116  -16.5620 H   0  0  0  0  0  0  0  0  0  0  0  0
   25.2566   -5.3364  -18.1222 H   0  0  0  0  0  0  0  0  0  0  0  0
   22.2277   -5.1133  -16.5126 H   0  0  0  0  0  0  0  0  0  0  0  0
  1 14  1  0
  2  3  2  0
  2 14  1  0
  2 16  1  0
  3  4  1  0
  4 15  2  0
  4 17  1  0
  5 15  1  0
  5 16  2  0
  6  9  2  0
  6 19  1  0
  6 20  1  0
  7  8  2  0
  7 21  1  0
  7 22  1  0
  8  9  1  0
  8 10  1  0
 10 23  1  1
 10 25  1  0
 10 29  1  0
 11 12  1  0
 11 25  1  0
 12 26  1  1
 12 27  1  0
 12 30  1  0
 30 13  1  6
 17 18  2  0
 17 19  1  0
 20 21  2  0
 23 24  1  0
 27 28  1  0
 27 29  2  0
 30 31  2  0
 30 32  2  0
  1 33  1  0
  1 34  1  0
  1 35  1  0
  3 36  1  0
  5 37  1  0
  9 38  1  0
 11 39  1  0
 11 40  1  0
 13 41  1  0
 13 42  1  0
 13 43  1  0
 19 44  1  0
 20 45  1  0
 21 46  1  0
 23 47  1  0
 23 48  1  0
 25 49  1  0
 25 50  1  0
 26 51  1  0
 26 52  1  0
 26 53  1  0
 28 54  1  0
 28 55  1  0
 29 56  1  0
M  CHG  1  29   1
M  END
>  <filename_input>  (26) 
7N4N_0BK_docked.sdf

>  <pdb_id>  (26) 
7N4N_0BK

>  <pose_rank>  (26) 
25

>  <num_atoms_heavy>  (26) 
32

>  <num_torsions>  (26) 
6

>  <pose>  (26) 
[20.534, -9.195, -16.977, 1e-06, 1e-06, 1e-06, 0.0, 0.0, 0.0, 0.0, 0.0, 0.0]

>  <energy>  (26) 
-1475.7189881988927

>  <inter_energy>  (26) 
-1489.7669065017833

>  <intra_energy>  (26) 
30.776337377555837

>  <rmsd>  (26) 
0.0

>  <sdf_rank>  (26) 
0

$$$$
