
     RDKit          3D

 52 55  0  0  0  0  0  0  0  0999 V2000
   -7.8935  -13.4732   13.9722 C   0  0  0  0  0  0  0  0  0  0  0  0
   -5.9804  -14.4221   12.8056 C   0  0  0  0  0  0  0  0  0  0  0  0
   -8.7468  -14.4447   15.9270 O   0  0  0  0  0  0  0  0  0  0  0  0
   -8.2951  -10.3235    7.0604 C   0  0  0  0  0  0  0  0  0  0  0  0
   -8.0432   -9.0847    7.6731 O   0  0  0  0  0  0  0  0  0  0  0  0
   -8.0454   -9.0819    9.0653 C   0  0  0  0  0  0  0  0  0  0  0  0
   -8.1819  -10.2725    9.7319 C   0  0  0  0  0  0  0  0  0  0  0  0
   -7.6604   -7.8782    9.6543 C   0  0  0  0  0  0  0  0  0  0  0  0
   -7.5055   -6.7496    8.8775 O   0  0  0  0  0  0  0  0  0  0  0  0
   -7.6939   -5.4558    9.4832 C   0  0  0  0  0  0  0  0  0  0  0  0
   -7.4996   -7.8241   11.0952 C   0  0  0  0  0  0  0  0  0  0  0  0
   -7.7071   -9.0015   11.7491 C   0  0  0  0  0  0  0  0  0  0  0  0
   -7.5768   -8.9399   13.2770 C   0  0  0  0  0  0  0  0  0  0  0  0
   -7.6146  -10.3284   13.9613 C   0  0  0  0  0  0  0  0  0  0  0  0
   -8.7300  -11.1905   13.3480 N   0  0  2  0  0  0  0  0  0  0  0  0
   -9.0403  -12.4835   13.9646 C   0  0  0  0  0  0  0  0  0  0  0  0
   -8.1867  -11.4500   12.0055 C   0  0  1  0  0  0  0  0  0  0  0  0
   -8.0794  -10.2437   11.1821 C   0  0  0  0  0  0  0  0  0  0  0  0
   -7.0847  -12.4340   11.7523 C   0  0  0  0  0  0  0  0  0  0  0  0
   -7.0147  -13.4667   12.8436 C   0  0  0  0  0  0  0  0  0  0  0  0
   -5.8325  -15.3781   13.7912 C   0  0  0  0  0  0  0  0  0  0  0  0
   -6.7487  -15.3929   14.8672 C   0  0  0  0  0  0  0  0  0  0  0  0
   -6.6603  -16.3079   15.9310 O   0  0  0  0  0  0  0  0  0  0  0  0
   -6.4874  -17.7434   15.6611 C   0  0  0  0  0  0  0  0  0  0  0  0
   -7.8210  -14.4350   14.8926 C   0  0  0  0  0  0  0  0  0  0  0  0
   -8.4244  -13.7962   17.1474 C   0  0  0  0  0  0  0  0  0  0  0  0
   -5.2696  -14.4063   11.9662 H   0  0  0  0  0  0  0  0  0  0  0  0
   -8.4509  -11.0901    7.8338 H   0  0  0  0  0  0  0  0  0  0  0  0
   -9.1959  -10.2462    6.4339 H   0  0  0  0  0  0  0  0  0  0  0  0
   -7.4356  -10.6042    6.4339 H   0  0  0  0  0  0  0  0  0  0  0  0
   -8.3619  -11.2129    9.1906 H   0  0  0  0  0  0  0  0  0  0  0  0
   -7.6790   -5.5579   10.5783 H   0  0  0  0  0  0  0  0  0  0  0  0
   -6.8844   -4.7815    9.1668 H   0  0  0  0  0  0  0  0  0  0  0  0
   -8.6620   -5.0402    9.1668 H   0  0  0  0  0  0  0  0  0  0  0  0
   -7.2291   -6.8976   11.6228 H   0  0  0  0  0  0  0  0  0  0  0  0
   -6.6203   -8.4566   13.5248 H   0  0  0  0  0  0  0  0  0  0  0  0
   -8.4425   -8.3736   13.6509 H   0  0  0  0  0  0  0  0  0  0  0  0
   -6.6464  -10.8307   13.8184 H   0  0  0  0  0  0  0  0  0  0  0  0
   -7.8125  -10.1948   15.0351 H   0  0  0  0  0  0  0  0  0  0  0  0
   -9.6235  -10.6869   13.4418 H   0  0  0  0  0  0  0  0  0  0  0  0
   -9.8780  -12.9342   13.4123 H   0  0  0  0  0  0  0  0  0  0  0  0
   -9.2781  -12.2758   15.0183 H   0  0  0  0  0  0  0  0  0  0  0  0
   -9.0107  -12.0946   11.6656 H   0  0  0  0  0  0  0  0  0  0  0  0
   -7.2682  -12.9387   10.7923 H   0  0  0  0  0  0  0  0  0  0  0  0
   -6.1299  -11.8884   11.7279 H   0  0  0  0  0  0  0  0  0  0  0  0
   -5.0169  -16.1144   13.7398 H   0  0  0  0  0  0  0  0  0  0  0  0
   -6.4216  -18.2902   16.6134 H   0  0  0  0  0  0  0  0  0  0  0  0
   -7.3474  -18.1142   15.0841 H   0  0  0  0  0  0  0  0  0  0  0  0
   -5.5640  -17.8994   15.0841 H   0  0  0  0  0  0  0  0  0  0  0  0
   -8.7381  -14.4273   17.9920 H   0  0  0  0  0  0  0  0  0  0  0  0
   -7.3383  -13.6292   17.1981 H   0  0  0  0  0  0  0  0  0  0  0  0
   -8.9467  -12.8295   17.1981 H   0  0  0  0  0  0  0  0  0  0  0  0
  1 16  1  0
  1 20  1  0
  1 25  2  0
  2 20  2  0
  2 21  1  0
  3 25  1  0
  3 26  1  0
  4  5  1  0
  5  6  1  0
  6  7  1  0
  6  8  2  0
  7 18  2  0
  8  9  1  0
  8 11  1  0
  9 10  1  0
 11 12  2  0
 12 13  1  0
 12 18  1  0
 13 14  1  0
 15 14  1  0
 15 16  1  0
 15 17  1  0
 17 18  1  0
 17 19  1  0
 19 20  1  0
 21 22  2  0
 22 23  1  0
 22 25  1  0
 23 24  1  0
  2 27  1  0
  4 28  1  0
  4 29  1  0
  4 30  1  0
  7 31  1  0
 10 32  1  0
 10 33  1  0
 10 34  1  0
 11 35  1  0
 13 36  1  0
 13 37  1  0
 14 38  1  0
 14 39  1  0
 15 40  1  6
 16 41  1  0
 16 42  1  0
 17 43  1  6
 19 44  1  0
 19 45  1  0
 21 46  1  0
 24 47  1  0
 24 48  1  0
 24 49  1  0
 26 50  1  0
 26 51  1  0
 26 52  1  0
M  CHG  1  15   1
M  END
>  <filename_input>  (1) 
7N4W_P4V_docked.sdf

>  <pdb_id>  (1) 
7N4W_P4V

>  <pose_rank>  (1) 
0

>  <num_atoms_heavy>  (1) 
26

>  <num_torsions>  (1) 
4

>  <pose>  (1) 
[-7.893527510712232, -13.473155651992617, 13.972196495134913, 1.8074053830748664, -5.905757054693166, -0.7035108603781909, 0.28157754562119547, -0.4477380448505117, 0.015352924383166712, -0.5205998261736814]

>  <energy>  (1) 
-765.525609871967

>  <inter_energy>  (1) 
-759.1093974896054

>  <intra_energy>  (1) 
5.41610497688354

>  <rmsd>  (1) 
0.33796

>  <sdf_rank>  (1) 
0

$$$$

     RDKit          3D

 52 55  0  0  0  0  0  0  0  0999 V2000
   -8.0343  -10.0185   10.5497 C   0  0  0  0  0  0  0  0  0  0  0  0
   -7.0551   -8.4085   12.0894 C   0  0  0  0  0  0  0  0  0  0  0  0
   -8.6462   -9.4179    8.3683 O   0  0  0  0  0  0  0  0  0  0  0  0
   -9.1847  -13.4770   17.2924 C   0  0  0  0  0  0  0  0  0  0  0  0
   -8.0944  -14.2863   16.9325 O   0  0  0  0  0  0  0  0  0  0  0  0
   -7.7209  -14.2446   15.5920 C   0  0  0  0  0  0  0  0  0  0  0  0
   -8.1398  -13.1930   14.8180 C   0  0  0  0  0  0  0  0  0  0  0  0
   -6.7415  -15.1658   15.2226 C   0  0  0  0  0  0  0  0  0  0  0  0
   -6.3611  -16.1569   16.1024 O   0  0  0  0  0  0  0  0  0  0  0  0
   -6.3049  -17.5189   15.6355 C   0  0  0  0  0  0  0  0  0  0  0  0
   -6.1916  -15.1025   13.8815 C   0  0  0  0  0  0  0  0  0  0  0  0
   -6.6708  -14.0924   13.1024 C   0  0  0  0  0  0  0  0  0  0  0  0
   -6.1213  -14.0456   11.6703 C   0  0  0  0  0  0  0  0  0  0  0  0
   -6.5286  -12.7726   10.8886 C   0  0  0  0  0  0  0  0  0  0  0  0
   -8.0164  -12.4625   11.1206 N   0  0  2  0  0  0  0  0  0  0  0  0
   -8.6421  -11.3902   10.3415 C   0  0  0  0  0  0  0  0  0  0  0  0
   -8.0062  -12.0473   12.5321 C   0  0  1  0  0  0  0  0  0  0  0  0
   -7.6486  -13.1302   13.4508 C   0  0  0  0  0  0  0  0  0  0  0  0
   -7.5054  -10.7074   12.9802 C   0  0  0  0  0  0  0  0  0  0  0  0
   -7.5660   -9.7016   11.8635 C   0  0  0  0  0  0  0  0  0  0  0  0
   -7.0451   -7.4442   11.1008 C   0  0  0  0  0  0  0  0  0  0  0  0
   -7.5636   -7.7704    9.8272 C   0  0  0  0  0  0  0  0  0  0  0  0
   -7.5681   -6.8653    8.7514 O   0  0  0  0  0  0  0  0  0  0  0  0
   -7.5375   -5.4163    9.0021 C   0  0  0  0  0  0  0  0  0  0  0  0
   -8.1101   -9.0817    9.6039 C   0  0  0  0  0  0  0  0  0  0  0  0
   -7.8146  -10.0417    7.4023 C   0  0  0  0  0  0  0  0  0  0  0  0
   -6.6523   -8.1595   13.0822 H   0  0  0  0  0  0  0  0  0  0  0  0
   -9.2559  -13.4241   18.3888 H   0  0  0  0  0  0  0  0  0  0  0  0
   -9.0406  -12.4654   16.8851 H   0  0  0  0  0  0  0  0  0  0  0  0
  -10.1113  -13.9077   16.8851 H   0  0  0  0  0  0  0  0  0  0  0  0
   -8.8211  -12.4266   15.2159 H   0  0  0  0  0  0  0  0  0  0  0  0
   -6.2768  -18.2013   16.4978 H   0  0  0  0  0  0  0  0  0  0  0  0
   -7.1950  -17.7346   15.0261 H   0  0  0  0  0  0  0  0  0  0  0  0
   -5.4002  -17.6607   15.0261 H   0  0  0  0  0  0  0  0  0  0  0  0
   -5.4404  -15.8197   13.5190 H   0  0  0  0  0  0  0  0  0  0  0  0
   -5.0231  -14.0872   11.7182 H   0  0  0  0  0  0  0  0  0  0  0  0
   -6.5507  -14.9040   11.1329 H   0  0  0  0  0  0  0  0  0  0  0  0
   -5.9217  -11.9232   11.2352 H   0  0  0  0  0  0  0  0  0  0  0  0
   -6.3594  -12.9405    9.8147 H   0  0  0  0  0  0  0  0  0  0  0  0
   -8.5708  -13.2842   10.8406 H   0  0  0  0  0  0  0  0  0  0  0  0
   -9.7050  -11.3398   10.6201 H   0  0  0  0  0  0  0  0  0  0  0  0
   -8.4834  -11.6427    9.2827 H   0  0  0  0  0  0  0  0  0  0  0  0
   -9.0779  -11.8075   12.5940 H   0  0  0  0  0  0  0  0  0  0  0  0
   -8.1271  -10.3534   13.8158 H   0  0  0  0  0  0  0  0  0  0  0  0
   -6.4569  -10.8153   13.2947 H   0  0  0  0  0  0  0  0  0  0  0  0
   -6.6411   -6.4408   11.3009 H   0  0  0  0  0  0  0  0  0  0  0  0
   -7.5336   -5.2318   10.0865 H   0  0  0  0  0  0  0  0  0  0  0  0
   -6.6300   -4.9857    8.5537 H   0  0  0  0  0  0  0  0  0  0  0  0
   -8.4259   -4.9477    8.5537 H   0  0  0  0  0  0  0  0  0  0  0  0
   -7.0350  -10.6265    7.9124 H   0  0  0  0  0  0  0  0  0  0  0  0
   -8.4211  -10.7096    6.7728 H   0  0  0  0  0  0  0  0  0  0  0  0
   -7.3432   -9.2726    6.7728 H   0  0  0  0  0  0  0  0  0  0  0  0
  1 16  1  0
  1 20  1  0
  1 25  2  0
  2 20  2  0
  2 21  1  0
  3 25  1  0
  3 26  1  0
  4  5  1  0
  5  6  1  0
  6  7  1  0
  6  8  2  0
  7 18  2  0
  8  9  1  0
  8 11  1  0
  9 10  1  0
 11 12  2  0
 12 13  1  0
 12 18  1  0
 13 14  1  0
 15 14  1  0
 15 16  1  0
 15 17  1  0
 17 18  1  0
 17 19  1  0
 19 20  1  0
 21 22  2  0
 22 23  1  0
 22 25  1  0
 23 24  1  0
  2 27  1  0
  4 28  1  0
  4 29  1  0
  4 30  1  0
  7 31  1  0
 10 32  1  0
 10 33  1  0
 10 34  1  0
 11 35  1  0
 13 36  1  0
 13 37  1  0
 14 38  1  0
 14 39  1  0
 15 40  1  1
 16 41  1  0
 16 42  1  0
 17 43  1  1
 19 44  1  0
 19 45  1  0
 21 46  1  0
 24 47  1  0
 24 48  1  0
 24 49  1  0
 26 50  1  0
 26 51  1  0
 26 52  1  0
M  CHG  1  15   1
M  END
>  <filename_input>  (2) 
7N4W_P4V_docked.sdf

>  <pdb_id>  (2) 
7N4W_P4V

>  <pose_rank>  (2) 
1

>  <num_atoms_heavy>  (2) 
26

>  <num_torsions>  (2) 
4

>  <pose>  (2) 
[-8.034309805212878, -10.018461237010873, 10.549657453802002, 3.000113761744683, 0.6370659242086474, 0.5258837074232917, 0.459233482788279, -0.2151516998136901, -0.3693915186524552, -0.093507204893655]

>  <energy>  (2) 
-725.0043080589489

>  <inter_energy>  (2) 
-728.2959942191919

>  <intra_energy>  (2) 
6.992270992794965

>  <rmsd>  (2) 
8.20584

>  <sdf_rank>  (2) 
0

$$$$

     RDKit          3D

 52 55  0  0  0  0  0  0  0  0999 V2000
   -7.5623   -9.9095   10.7701 C   0  0  0  0  0  0  0  0  0  0  0  0
   -8.7261  -11.5751    9.4310 C   0  0  0  0  0  0  0  0  0  0  0  0
   -7.1570   -7.7471    9.9618 O   0  0  0  0  0  0  0  0  0  0  0  0
   -5.5944  -16.4069   14.2976 C   0  0  0  0  0  0  0  0  0  0  0  0
   -6.5073  -16.0234   15.2940 O   0  0  0  0  0  0  0  0  0  0  0  0
   -6.9420  -14.7017   15.2459 C   0  0  0  0  0  0  0  0  0  0  0  0
   -6.7391  -13.9767   14.0998 C   0  0  0  0  0  0  0  0  0  0  0  0
   -7.7698  -14.3134   16.2986 C   0  0  0  0  0  0  0  0  0  0  0  0
   -7.9403  -15.1461   17.3843 O   0  0  0  0  0  0  0  0  0  0  0  0
   -9.0467  -14.9097   18.2766 C   0  0  0  0  0  0  0  0  0  0  0  0
   -8.3820  -12.9986   16.2591 C   0  0  0  0  0  0  0  0  0  0  0  0
   -8.1129  -12.2640   15.1434 C   0  0  0  0  0  0  0  0  0  0  0  0
   -8.7261  -10.8575   15.1152 C   0  0  0  0  0  0  0  0  0  0  0  0
   -8.5717  -10.1383   13.7527 C   0  0  0  0  0  0  0  0  0  0  0  0
   -7.1475  -10.3356   13.2085 N   0  0  2  0  0  0  0  0  0  0  0  0
   -6.7445   -9.5995   12.0068 C   0  0  0  0  0  0  0  0  0  0  0  0
   -7.1636  -11.7686   12.8753 C   0  0  1  0  0  0  0  0  0  0  0  0
   -7.2944  -12.6339   14.0495 C   0  0  0  0  0  0  0  0  0  0  0  0
   -7.8599  -12.3124   11.6643 C   0  0  0  0  0  0  0  0  0  0  0  0
   -8.0176  -11.2555   10.6058 C   0  0  0  0  0  0  0  0  0  0  0  0
   -8.9407  -10.6461    8.4319 C   0  0  0  0  0  0  0  0  0  0  0  0
   -8.4325   -9.3380    8.5991 C   0  0  0  0  0  0  0  0  0  0  0  0
   -8.6269   -8.3179    7.6512 O   0  0  0  0  0  0  0  0  0  0  0  0
   -8.7559   -8.6478    6.2237 C   0  0  0  0  0  0  0  0  0  0  0  0
   -7.6859   -9.0186    9.7858 C   0  0  0  0  0  0  0  0  0  0  0  0
   -7.8180   -6.8391   10.8293 C   0  0  0  0  0  0  0  0  0  0  0  0
   -9.1200  -12.5945    9.3057 H   0  0  0  0  0  0  0  0  0  0  0  0
   -4.6779  -16.7919   14.7685 H   0  0  0  0  0  0  0  0  0  0  0  0
   -6.0431  -17.1926   13.6720 H   0  0  0  0  0  0  0  0  0  0  0  0
   -5.3473  -15.5365   13.6720 H   0  0  0  0  0  0  0  0  0  0  0  0
   -6.1778  -14.3949   13.2512 H   0  0  0  0  0  0  0  0  0  0  0  0
   -8.7002  -14.9837   19.3180 H   0  0  0  0  0  0  0  0  0  0  0  0
   -9.4546  -13.9041   18.0965 H   0  0  0  0  0  0  0  0  0  0  0  0
   -9.8300  -15.6607   18.0965 H   0  0  0  0  0  0  0  0  0  0  0  0
   -9.0187  -12.6212   17.0728 H   0  0  0  0  0  0  0  0  0  0  0  0
   -9.7987  -10.9416   15.3440 H   0  0  0  0  0  0  0  0  0  0  0  0
   -8.1841  -10.2556   15.8596 H   0  0  0  0  0  0  0  0  0  0  0  0
   -9.2955  -10.5556   13.0372 H   0  0  0  0  0  0  0  0  0  0  0  0
   -8.7584   -9.0630   13.8904 H   0  0  0  0  0  0  0  0  0  0  0  0
   -6.4771   -9.9882   13.9091 H   0  0  0  0  0  0  0  0  0  0  0  0
   -5.6934   -9.8429   11.7924 H   0  0  0  0  0  0  0  0  0  0  0  0
   -6.9061   -8.5339   12.2268 H   0  0  0  0  0  0  0  0  0  0  0  0
   -6.1451  -11.8066   12.4616 H   0  0  0  0  0  0  0  0  0  0  0  0
   -7.2692  -13.1449   11.2546 H   0  0  0  0  0  0  0  0  0  0  0  0
   -8.8607  -12.6568   11.9639 H   0  0  0  0  0  0  0  0  0  0  0  0
   -9.4968  -10.9192    7.5230 H   0  0  0  0  0  0  0  0  0  0  0  0
   -9.1546   -9.6675    6.1176 H   0  0  0  0  0  0  0  0  0  0  0  0
   -9.4412   -7.9343    5.7429 H   0  0  0  0  0  0  0  0  0  0  0  0
   -7.7683   -8.5884    5.7429 H   0  0  0  0  0  0  0  0  0  0  0  0
   -7.6157   -7.1171   11.8742 H   0  0  0  0  0  0  0  0  0  0  0  0
   -7.4492   -5.8197   10.6431 H   0  0  0  0  0  0  0  0  0  0  0  0
   -8.9015   -6.8768   10.6431 H   0  0  0  0  0  0  0  0  0  0  0  0
  1 16  1  0
  1 20  1  0
  1 25  2  0
  2 20  2  0
  2 21  1  0
  3 25  1  0
  3 26  1  0
  4  5  1  0
  5  6  1  0
  6  7  1  0
  6  8  2  0
  7 18  2  0
  8  9  1  0
  8 11  1  0
  9 10  1  0
 11 12  2  0
 12 13  1  0
 12 18  1  0
 13 14  1  0
 15 14  1  0
 15 16  1  0
 15 17  1  0
 17 18  1  0
 17 19  1  0
 19 20  1  0
 21 22  2  0
 22 23  1  0
 22 25  1  0
 23 24  1  0
  2 27  1  0
  4 28  1  0
  4 29  1  0
  4 30  1  0
  7 31  1  0
 10 32  1  0
 10 33  1  0
 10 34  1  0
 11 35  1  0
 13 36  1  0
 13 37  1  0
 14 38  1  0
 14 39  1  0
 15 40  1  1
 16 41  1  0
 16 42  1  0
 17 43  1  6
 19 44  1  0
 19 45  1  0
 21 46  1  0
 24 47  1  0
 24 48  1  0
 24 49  1  0
 26 50  1  0
 26 51  1  0
 26 52  1  0
M  CHG  1  15   1
M  END
>  <filename_input>  (3) 
7N4W_P4V_docked.sdf

>  <pdb_id>  (3) 
7N4W_P4V

>  <pose_rank>  (3) 
2

>  <num_atoms_heavy>  (3) 
26

>  <num_torsions>  (3) 
4

>  <pose>  (3) 
[-7.562284482815865, -9.909500517132914, 10.770062091657836, -0.7122525581787337, 2.2254756855619555, 2.254308926330349, 0.6211970411051708, -0.26013941493125275, -5.509341839777551, -0.1981089706209183]

>  <energy>  (3) 
-690.1629167282315

>  <inter_energy>  (3) 
-690.2998224654624

>  <intra_energy>  (3) 
11.264266301353691

>  <rmsd>  (3) 
7.80449

>  <sdf_rank>  (3) 
0

$$$$

     RDKit          3D

 52 55  0  0  0  0  0  0  0  0999 V2000
   -8.0008  -13.0029   14.3687 C   0  0  0  0  0  0  0  0  0  0  0  0
   -6.3602  -14.2247   13.0506 C   0  0  0  0  0  0  0  0  0  0  0  0
   -8.7718  -13.8125   16.4287 O   0  0  0  0  0  0  0  0  0  0  0  0
   -8.3811  -10.0252    7.4024 C   0  0  0  0  0  0  0  0  0  0  0  0
   -8.2070   -8.7547    7.9758 O   0  0  0  0  0  0  0  0  0  0  0  0
   -8.0667   -8.7253    9.3606 C   0  0  0  0  0  0  0  0  0  0  0  0
   -8.2917   -9.8735   10.0758 C   0  0  0  0  0  0  0  0  0  0  0  0
   -7.4667   -7.5740    9.8694 C   0  0  0  0  0  0  0  0  0  0  0  0
   -7.2430   -6.4918    9.0447 O   0  0  0  0  0  0  0  0  0  0  0  0
   -7.0853   -5.1869    9.6353 C   0  0  0  0  0  0  0  0  0  0  0  0
   -7.1539   -7.5150   11.2848 C   0  0  0  0  0  0  0  0  0  0  0  0
   -7.4485   -8.6407   11.9939 C   0  0  0  0  0  0  0  0  0  0  0  0
   -7.1559   -8.5686   13.4987 C   0  0  0  0  0  0  0  0  0  0  0  0
   -7.3081   -9.9259   14.2282 C   0  0  0  0  0  0  0  0  0  0  0  0
   -8.5851  -10.6401   13.7562 N   0  0  2  0  0  0  0  0  0  0  0  0
   -9.0003  -11.8670   14.4421 C   0  0  0  0  0  0  0  0  0  0  0  0
   -8.2211  -10.9962   12.3758 C   0  0  1  0  0  0  0  0  0  0  0  0
   -8.0388   -9.8315   11.5070 C   0  0  0  0  0  0  0  0  0  0  0  0
   -7.2917  -12.1254   12.0473 C   0  0  0  0  0  0  0  0  0  0  0  0
   -7.2488  -13.1371   13.1594 C   0  0  0  0  0  0  0  0  0  0  0  0
   -6.2412  -15.1731   14.0475 C   0  0  0  0  0  0  0  0  0  0  0  0
   -7.0365  -15.0431   15.2084 C   0  0  0  0  0  0  0  0  0  0  0  0
   -6.9626  -15.9413   16.2875 O   0  0  0  0  0  0  0  0  0  0  0  0
   -7.0104  -17.3918   16.0487 C   0  0  0  0  0  0  0  0  0  0  0  0
   -7.9634  -13.9481   15.3083 C   0  0  0  0  0  0  0  0  0  0  0  0
   -9.9141  -14.6444   16.5599 C   0  0  0  0  0  0  0  0  0  0  0  0
   -5.7431  -14.3214   12.1452 H   0  0  0  0  0  0  0  0  0  0  0  0
   -8.4841  -10.7762    8.1995 H   0  0  0  0  0  0  0  0  0  0  0  0
   -9.2877  -10.0251    6.7793 H   0  0  0  0  0  0  0  0  0  0  0  0
   -7.5080  -10.2691    6.7793 H   0  0  0  0  0  0  0  0  0  0  0  0
   -8.6497  -10.7908    9.5857 H   0  0  0  0  0  0  0  0  0  0  0  0
   -7.0962   -5.2769   10.7315 H   0  0  0  0  0  0  0  0  0  0  0  0
   -6.1280   -4.7517    9.3125 H   0  0  0  0  0  0  0  0  0  0  0  0
   -7.9113   -4.5361    9.3125 H   0  0  0  0  0  0  0  0  0  0  0  0
   -6.7099   -6.6240   11.7528 H   0  0  0  0  0  0  0  0  0  0  0  0
   -6.1232   -8.2150   13.6351 H   0  0  0  0  0  0  0  0  0  0  0  0
   -7.8957   -7.8831   13.9376 H   0  0  0  0  0  0  0  0  0  0  0  0
   -6.4352  -10.5576   14.0069 H   0  0  0  0  0  0  0  0  0  0  0  0
   -7.3759   -9.7464   15.3114 H   0  0  0  0  0  0  0  0  0  0  0  0
   -9.3894  -10.0181   13.9213 H   0  0  0  0  0  0  0  0  0  0  0  0
   -9.9425  -12.2102   13.9900 H   0  0  0  0  0  0  0  0  0  0  0  0
   -9.0995  -11.6091   15.5068 H   0  0  0  0  0  0  0  0  0  0  0  0
   -9.1540  -11.5293   12.1399 H   0  0  0  0  0  0  0  0  0  0  0  0
   -7.6378  -12.6185   11.1270 H   0  0  0  0  0  0  0  0  0  0  0  0
   -6.2802  -11.7150   11.9112 H   0  0  0  0  0  0  0  0  0  0  0  0
   -5.5404  -16.0141   13.9398 H   0  0  0  0  0  0  0  0  0  0  0  0
   -7.0278  -17.9217   17.0124 H   0  0  0  0  0  0  0  0  0  0  0  0
   -7.9172  -17.6397   15.4774 H   0  0  0  0  0  0  0  0  0  0  0  0
   -6.1218  -17.6988   15.4774 H   0  0  0  0  0  0  0  0  0  0  0  0
  -10.1317  -14.8028   17.6264 H   0  0  0  0  0  0  0  0  0  0  0  0
  -10.7767  -14.1615   16.0775 H   0  0  0  0  0  0  0  0  0  0  0  0
   -9.7192  -15.6135   16.0775 H   0  0  0  0  0  0  0  0  0  0  0  0
  1 16  1  0
  1 20  1  0
  1 25  2  0
  2 20  2  0
  2 21  1  0
  3 25  1  0
  3 26  1  0
  4  5  1  0
  5  6  1  0
  6  7  1  0
  6  8  2  0
  7 18  2  0
  8  9  1  0
  8 11  1  0
  9 10  1  0
 11 12  2  0
 12 13  1  0
 12 18  1  0
 13 14  1  0
 15 14  1  0
 15 16  1  0
 15 17  1  0
 17 18  1  0
 17 19  1  0
 19 20  1  0
 21 22  2  0
 22 23  1  0
 22 25  1  0
 23 24  1  0
  2 27  1  0
  4 28  1  0
  4 29  1  0
  4 30  1  0
  7 31  1  0
 10 32  1  0
 10 33  1  0
 10 34  1  0
 11 35  1  0
 13 36  1  0
 13 37  1  0
 14 38  1  0
 14 39  1  0
 15 40  1  6
 16 41  1  0
 16 42  1  0
 17 43  1  6
 19 44  1  0
 19 45  1  0
 21 46  1  0
 24 47  1  0
 24 48  1  0
 24 49  1  0
 26 50  1  0
 26 51  1  0
 26 52  1  0
M  CHG  1  15   1
M  END
>  <filename_input>  (4) 
7N4W_P4V_docked.sdf

>  <pdb_id>  (4) 
7N4W_P4V

>  <pose_rank>  (4) 
3

>  <num_atoms_heavy>  (4) 
26

>  <num_torsions>  (4) 
4

>  <pose>  (4) 
[-8.000791885182908, -13.002891546392705, 14.368721992193304, -0.040617021618009064, 0.16589203095902372, -0.12739395497708142, 3.77368078671858, -0.6939187079211873, 0.1031753953849574, -0.5201872291085229]

>  <energy>  (4) 
-728.4501735176444

>  <inter_energy>  (4) 
-725.281136525842

>  <intra_energy>  (4) 
5.069151906747419

>  <rmsd>  (4) 
0.556581

>  <sdf_rank>  (4) 
0

$$$$

     RDKit          3D

 52 55  0  0  0  0  0  0  0  0999 V2000
   -7.3519  -13.3731   14.5366 C   0  0  0  0  0  0  0  0  0  0  0  0
   -8.9588  -11.9889   15.7296 C   0  0  0  0  0  0  0  0  0  0  0  0
   -6.6022  -15.4153   15.4087 O   0  0  0  0  0  0  0  0  0  0  0  0
   -7.9468   -6.4044   10.9173 C   0  0  0  0  0  0  0  0  0  0  0  0
   -7.0996   -7.1345   10.0671 O   0  0  0  0  0  0  0  0  0  0  0  0
   -7.2606   -8.5171   10.0873 C   0  0  0  0  0  0  0  0  0  0  0  0
   -7.0332   -9.1956   11.2571 C   0  0  0  0  0  0  0  0  0  0  0  0
   -7.8810   -9.0562    8.9609 C   0  0  0  0  0  0  0  0  0  0  0  0
   -8.1048   -8.2662    7.8533 O   0  0  0  0  0  0  0  0  0  0  0  0
   -8.4243   -8.8995    6.5990 C   0  0  0  0  0  0  0  0  0  0  0  0
   -8.2154  -10.4680    8.9545 C   0  0  0  0  0  0  0  0  0  0  0  0
   -7.9185  -11.1422   10.1009 C   0  0  0  0  0  0  0  0  0  0  0  0
   -8.2341  -12.6440   10.0842 C   0  0  0  0  0  0  0  0  0  0  0  0
   -8.0772  -13.3284   11.4642 C   0  0  0  0  0  0  0  0  0  0  0  0
   -6.7854  -12.8513   12.1477 N   0  0  2  0  0  0  0  0  0  0  0  0
   -6.3665  -13.5007   13.3932 C   0  0  0  0  0  0  0  0  0  0  0  0
   -7.1249  -11.4542   12.4597 C   0  0  1  0  0  0  0  0  0  0  0  0
   -7.3076  -10.6235   11.2675 C   0  0  0  0  0  0  0  0  0  0  0  0
   -8.0366  -11.0728   13.5868 C   0  0  0  0  0  0  0  0  0  0  0  0
   -8.0843  -12.1486   14.6369 C   0  0  0  0  0  0  0  0  0  0  0  0
   -9.0818  -12.9505   16.7132 C   0  0  0  0  0  0  0  0  0  0  0  0
   -8.3052  -14.1271   16.6149 C   0  0  0  0  0  0  0  0  0  0  0  0
   -8.3849  -15.1733   17.5508 O   0  0  0  0  0  0  0  0  0  0  0  0
   -8.9098  -14.9208   18.9014 C   0  0  0  0  0  0  0  0  0  0  0  0
   -7.3924  -14.2787   15.5142 C   0  0  0  0  0  0  0  0  0  0  0  0
   -7.1822  -16.6161   14.9233 C   0  0  0  0  0  0  0  0  0  0  0  0
   -9.5614  -11.0714   15.8015 H   0  0  0  0  0  0  0  0  0  0  0  0
   -7.6924   -6.6236   11.9648 H   0  0  0  0  0  0  0  0  0  0  0  0
   -7.8193   -5.3286   10.7263 H   0  0  0  0  0  0  0  0  0  0  0  0
   -8.9919   -6.6894   10.7263 H   0  0  0  0  0  0  0  0  0  0  0  0
   -6.6576   -8.6796   12.1530 H   0  0  0  0  0  0  0  0  0  0  0  0
   -8.9123   -9.8666    6.7904 H   0  0  0  0  0  0  0  0  0  0  0  0
   -9.1042   -8.2531    6.0246 H   0  0  0  0  0  0  0  0  0  0  0  0
   -7.5005   -9.0622    6.0246 H   0  0  0  0  0  0  0  0  0  0  0  0
   -8.6763  -10.9597    8.0851 H   0  0  0  0  0  0  0  0  0  0  0  0
   -9.2726  -12.7769    9.7467 H   0  0  0  0  0  0  0  0  0  0  0  0
   -7.5086  -13.1174    9.4063 H   0  0  0  0  0  0  0  0  0  0  0  0
   -8.9396  -13.0723   12.0973 H   0  0  0  0  0  0  0  0  0  0  0  0
   -8.0275  -14.4180   11.3217 H   0  0  0  0  0  0  0  0  0  0  0  0
   -5.9908  -13.0500   11.5232 H   0  0  0  0  0  0  0  0  0  0  0  0
   -5.4139  -13.0513   13.7102 H   0  0  0  0  0  0  0  0  0  0  0  0
   -6.2859  -14.5751   13.1713 H   0  0  0  0  0  0  0  0  0  0  0  0
   -6.1827  -11.2142   12.9741 H   0  0  0  0  0  0  0  0  0  0  0  0
   -7.6713  -10.1414   14.0439 H   0  0  0  0  0  0  0  0  0  0  0  0
   -9.0505  -10.9357   13.1829 H   0  0  0  0  0  0  0  0  0  0  0  0
   -9.7714  -12.8032   17.5575 H   0  0  0  0  0  0  0  0  0  0  0  0
   -8.1824  -15.2707   19.6488 H   0  0  0  0  0  0  0  0  0  0  0  0
   -9.0804  -13.8421   19.0327 H   0  0  0  0  0  0  0  0  0  0  0  0
   -9.8590  -15.4609   19.0327 H   0  0  0  0  0  0  0  0  0  0  0  0
   -7.4864  -17.2457   15.7724 H   0  0  0  0  0  0  0  0  0  0  0  0
   -8.0636  -16.3759   14.3106 H   0  0  0  0  0  0  0  0  0  0  0  0
   -6.4462  -17.1572   14.3106 H   0  0  0  0  0  0  0  0  0  0  0  0
  1 16  1  0
  1 20  1  0
  1 25  2  0
  2 20  2  0
  2 21  1  0
  3 25  1  0
  3 26  1  0
  4  5  1  0
  5  6  1  0
  6  7  1  0
  6  8  2  0
  7 18  2  0
  8  9  1  0
  8 11  1  0
  9 10  1  0
 11 12  2  0
 12 13  1  0
 12 18  1  0
 13 14  1  0
 15 14  1  0
 15 16  1  0
 15 17  1  0
 17 18  1  0
 17 19  1  0
 19 20  1  0
 21 22  2  0
 22 23  1  0
 22 25  1  0
 23 24  1  0
  2 27  1  0
  4 28  1  0
  4 29  1  0
  4 30  1  0
  7 31  1  0
 10 32  1  0
 10 33  1  0
 10 34  1  0
 11 35  1  0
 13 36  1  0
 13 37  1  0
 14 38  1  0
 14 39  1  0
 15 40  1  6
 16 41  1  0
 16 42  1  0
 17 43  1  1
 19 44  1  0
 19 45  1  0
 21 46  1  0
 24 47  1  0
 24 48  1  0
 24 49  1  0
 26 50  1  0
 26 51  1  0
 26 52  1  0
M  CHG  1  15   1
M  END
>  <filename_input>  (5) 
7N4W_P4V_docked.sdf

>  <pdb_id>  (5) 
7N4W_P4V

>  <pose_rank>  (5) 
4

>  <num_atoms_heavy>  (5) 
26

>  <num_torsions>  (5) 
4

>  <pose>  (5) 
[-7.351853048787288, -13.37305372057211, 14.536550482681596, 0.05731770469391688, 2.387691019942076, -2.3729663644501167, 0.20277671973977907, -1.615546530429463, 0.21504539295005448, -0.043034442910101896]

>  <energy>  (5) 
-674.6368292190455

>  <inter_energy>  (5) 
-680.76234945031

>  <intra_energy>  (5) 
5.765657488630044

>  <rmsd>  (5) 
3.23262

>  <sdf_rank>  (5) 
0

$$$$

     RDKit          3D

 52 55  0  0  0  0  0  0  0  0999 V2000
   -8.2022  -13.1344   14.0829 C   0  0  0  0  0  0  0  0  0  0  0  0
   -6.3792  -14.2176   12.8891 C   0  0  0  0  0  0  0  0  0  0  0  0
   -9.1346  -14.0741   16.0170 O   0  0  0  0  0  0  0  0  0  0  0  0
   -8.3296   -9.8028    7.2473 C   0  0  0  0  0  0  0  0  0  0  0  0
   -7.9771   -8.6034    7.8879 O   0  0  0  0  0  0  0  0  0  0  0  0
   -7.9779   -8.6329    9.2797 C   0  0  0  0  0  0  0  0  0  0  0  0
   -8.2163   -9.8225    9.9189 C   0  0  0  0  0  0  0  0  0  0  0  0
   -7.4898   -7.4811    9.8955 C   0  0  0  0  0  0  0  0  0  0  0  0
   -7.2386   -6.3522    9.1446 O   0  0  0  0  0  0  0  0  0  0  0  0
   -7.2256   -5.0687    9.7994 C   0  0  0  0  0  0  0  0  0  0  0  0
   -7.3237   -7.4748   11.3368 C   0  0  0  0  0  0  0  0  0  0  0  0
   -7.6317   -8.6448   11.9637 C   0  0  0  0  0  0  0  0  0  0  0  0
   -7.4953   -8.6305   13.4923 C   0  0  0  0  0  0  0  0  0  0  0  0
   -7.6524  -10.0261   14.1443 C   0  0  0  0  0  0  0  0  0  0  0  0
   -8.8386  -10.7741   13.5142 N   0  0  2  0  0  0  0  0  0  0  0  0
   -9.2591  -12.0495   14.1016 C   0  0  0  0  0  0  0  0  0  0  0  0
   -8.3209  -11.0481   12.1646 C   0  0  1  0  0  0  0  0  0  0  0  0
   -8.1104   -9.8366   11.3691 C   0  0  0  0  0  0  0  0  0  0  0  0
   -7.3084  -12.1175   11.8854 C   0  0  0  0  0  0  0  0  0  0  0  0
   -7.3271  -13.1775   12.9523 C   0  0  0  0  0  0  0  0  0  0  0  0
   -6.3138  -15.2056   13.8518 C   0  0  0  0  0  0  0  0  0  0  0  0
   -7.2269  -15.1664   14.9298 C   0  0  0  0  0  0  0  0  0  0  0  0
   -7.2170  -16.1102   15.9718 O   0  0  0  0  0  0  0  0  0  0  0  0
   -6.7572  -17.4848   15.7220 C   0  0  0  0  0  0  0  0  0  0  0  0
   -8.2123  -14.1202   14.9805 C   0  0  0  0  0  0  0  0  0  0  0  0
  -10.3217  -14.8456   15.9189 C   0  0  0  0  0  0  0  0  0  0  0  0
   -5.6704  -14.2437   12.0483 H   0  0  0  0  0  0  0  0  0  0  0  0
   -8.5549  -10.5697    8.0031 H   0  0  0  0  0  0  0  0  0  0  0  0
   -9.2166   -9.6359    6.6186 H   0  0  0  0  0  0  0  0  0  0  0  0
   -7.4932  -10.1423    6.6186 H   0  0  0  0  0  0  0  0  0  0  0  0
   -8.4774  -10.7310    9.3564 H   0  0  0  0  0  0  0  0  0  0  0  0
   -7.2271   -5.2134   10.8898 H   0  0  0  0  0  0  0  0  0  0  0  0
   -6.3218   -4.5156    9.5041 H   0  0  0  0  0  0  0  0  0  0  0  0
   -8.1180   -4.4974    9.5041 H   0  0  0  0  0  0  0  0  0  0  0  0
   -6.9736   -6.5877   11.8850 H   0  0  0  0  0  0  0  0  0  0  0  0
   -6.5003   -8.2375   13.7485 H   0  0  0  0  0  0  0  0  0  0  0  0
   -8.3085   -8.0004   13.8817 H   0  0  0  0  0  0  0  0  0  0  0  0
   -6.7314  -10.6068   13.9870 H   0  0  0  0  0  0  0  0  0  0  0  0
   -7.8371   -9.9011   15.2214 H   0  0  0  0  0  0  0  0  0  0  0  0
   -9.6852  -10.1975   13.6223 H   0  0  0  0  0  0  0  0  0  0  0  0
  -10.1331  -12.4130   13.5413 H   0  0  0  0  0  0  0  0  0  0  0  0
   -9.4772  -11.8467   15.1605 H   0  0  0  0  0  0  0  0  0  0  0  0
   -9.1978  -11.6109   11.8121 H   0  0  0  0  0  0  0  0  0  0  0  0
   -7.5357  -12.5818   10.9144 H   0  0  0  0  0  0  0  0  0  0  0  0
   -6.3100  -11.6560   11.8710 H   0  0  0  0  0  0  0  0  0  0  0  0
   -5.5648  -16.0082   13.7810 H   0  0  0  0  0  0  0  0  0  0  0  0
   -6.5867  -17.9945   16.6817 H   0  0  0  0  0  0  0  0  0  0  0  0
   -7.5223  -18.0289   15.1487 H   0  0  0  0  0  0  0  0  0  0  0  0
   -5.8188  -17.4591   15.1487 H   0  0  0  0  0  0  0  0  0  0  0  0
  -10.6885  -15.0840   16.9282 H   0  0  0  0  0  0  0  0  0  0  0  0
  -11.0878  -14.2723   15.3762 H   0  0  0  0  0  0  0  0  0  0  0  0
  -10.1089  -15.7784   15.3762 H   0  0  0  0  0  0  0  0  0  0  0  0
  1 16  1  0
  1 20  1  0
  1 25  2  0
  2 20  2  0
  2 21  1  0
  3 25  1  0
  3 26  1  0
  4  5  1  0
  5  6  1  0
  6  7  1  0
  6  8  2  0
  7 18  2  0
  8  9  1  0
  8 11  1  0
  9 10  1  0
 11 12  2  0
 12 13  1  0
 12 18  1  0
 13 14  1  0
 15 14  1  0
 15 16  1  0
 15 17  1  0
 17 18  1  0
 17 19  1  0
 19 20  1  0
 21 22  2  0
 22 23  1  0
 22 25  1  0
 23 24  1  0
  2 27  1  0
  4 28  1  0
  4 29  1  0
  4 30  1  0
  7 31  1  0
 10 32  1  0
 10 33  1  0
 10 34  1  0
 11 35  1  0
 13 36  1  0
 13 37  1  0
 14 38  1  0
 14 39  1  0
 15 40  1  6
 16 41  1  0
 16 42  1  0
 17 43  1  6
 19 44  1  0
 19 45  1  0
 21 46  1  0
 24 47  1  0
 24 48  1  0
 24 49  1  0
 26 50  1  0
 26 51  1  0
 26 52  1  0
M  CHG  1  15   1
M  END
>  <filename_input>  (6) 
7N4W_P4V_docked.sdf

>  <pdb_id>  (6) 
7N4W_P4V

>  <pose_rank>  (6) 
5

>  <num_atoms_heavy>  (6) 
26

>  <num_torsions>  (6) 
4

>  <pose>  (6) 
[-8.20216284555835, -13.134424213291776, 14.08287174050384, 0.006595420799536406, 0.06631475814985274, -0.07816123257601898, 3.6441361158054435, -0.4527764805607069, 0.08709338591922955, -0.18830071552250222]

>  <energy>  (6) 
-717.4519902146035

>  <inter_energy>  (6) 
-714.111523181025

>  <intra_energy>  (6) 
4.5328233257129575

>  <rmsd>  (6) 
0.49918

>  <sdf_rank>  (6) 
0

$$$$

     RDKit          3D

 52 55  0  0  0  0  0  0  0  0999 V2000
   -7.4520  -13.0381   14.2085 C   0  0  0  0  0  0  0  0  0  0  0  0
   -8.4302  -11.5266   15.8456 C   0  0  0  0  0  0  0  0  0  0  0  0
   -7.0415  -15.2912   14.7069 O   0  0  0  0  0  0  0  0  0  0  0  0
   -7.4665   -5.4540    9.8111 C   0  0  0  0  0  0  0  0  0  0  0  0
   -6.6345   -6.4367   10.3726 O   0  0  0  0  0  0  0  0  0  0  0  0
   -7.1048   -7.7453   10.3034 C   0  0  0  0  0  0  0  0  0  0  0  0
   -6.8177   -8.6097   11.3285 C   0  0  0  0  0  0  0  0  0  0  0  0
   -8.0404   -7.9844    9.2976 C   0  0  0  0  0  0  0  0  0  0  0  0
   -8.2860   -7.0212    8.3420 O   0  0  0  0  0  0  0  0  0  0  0  0
   -8.7507   -7.4327    7.0416 C   0  0  0  0  0  0  0  0  0  0  0  0
   -8.6878   -9.2814    9.2380 C   0  0  0  0  0  0  0  0  0  0  0  0
   -8.3381  -10.1529   10.2255 C   0  0  0  0  0  0  0  0  0  0  0  0
   -8.9905  -11.5396   10.1438 C   0  0  0  0  0  0  0  0  0  0  0  0
   -8.7311  -12.4238   11.3881 C   0  0  0  0  0  0  0  0  0  0  0  0
   -7.2562  -12.3238   11.8103 N   0  0  2  0  0  0  0  0  0  0  0  0
   -6.7652  -13.2101   12.8694 C   0  0  0  0  0  0  0  0  0  0  0  0
   -7.1950  -10.9426   12.3137 C   0  0  1  0  0  0  0  0  0  0  0  0
   -7.4085   -9.9370   11.2707 C   0  0  0  0  0  0  0  0  0  0  0  0
   -7.7559  -10.5379   13.6435 C   0  0  0  0  0  0  0  0  0  0  0  0
   -7.8466  -11.7136   14.5773 C   0  0  0  0  0  0  0  0  0  0  0  0
   -8.5790  -12.5669   16.7417 C   0  0  0  0  0  0  0  0  0  0  0  0
   -8.1310  -13.8546   16.3694 C   0  0  0  0  0  0  0  0  0  0  0  0
   -8.2674  -14.9793   17.2019 O   0  0  0  0  0  0  0  0  0  0  0  0
   -9.2419  -14.9719   18.3035 C   0  0  0  0  0  0  0  0  0  0  0  0
   -7.5105  -14.0405   15.0855 C   0  0  0  0  0  0  0  0  0  0  0  0
   -5.7118  -15.6589   15.0393 C   0  0  0  0  0  0  0  0  0  0  0  0
   -8.7777  -10.5226   16.1307 H   0  0  0  0  0  0  0  0  0  0  0  0
   -7.9515   -4.8810   10.6151 H   0  0  0  0  0  0  0  0  0  0  0  0
   -6.8642   -4.7754    9.1892 H   0  0  0  0  0  0  0  0  0  0  0  0
   -8.2352   -5.9360    9.1892 H   0  0  0  0  0  0  0  0  0  0  0  0
   -6.1656   -8.3104   12.1623 H   0  0  0  0  0  0  0  0  0  0  0  0
   -9.5697   -8.1578    7.1574 H   0  0  0  0  0  0  0  0  0  0  0  0
   -9.1140   -6.5547    6.4873 H   0  0  0  0  0  0  0  0  0  0  0  0
   -7.9232   -7.8995    6.4873 H   0  0  0  0  0  0  0  0  0  0  0  0
   -9.4103   -9.5430    8.4509 H   0  0  0  0  0  0  0  0  0  0  0  0
  -10.0767  -11.4064   10.0328 H   0  0  0  0  0  0  0  0  0  0  0  0
   -8.5409  -12.0562    9.2830 H   0  0  0  0  0  0  0  0  0  0  0  0
   -9.3703  -12.0831   12.2160 H   0  0  0  0  0  0  0  0  0  0  0  0
   -8.9642  -13.4700   11.1408 H   0  0  0  0  0  0  0  0  0  0  0  0
   -6.6665  -12.5959   11.0108 H   0  0  0  0  0  0  0  0  0  0  0  0
   -5.6913  -13.0162   13.0078 H   0  0  0  0  0  0  0  0  0  0  0  0
   -6.9808  -14.2371   12.5395 H   0  0  0  0  0  0  0  0  0  0  0  0
   -6.1412  -10.9763   12.6274 H   0  0  0  0  0  0  0  0  0  0  0  0
   -7.1028   -9.7742   14.0908 H   0  0  0  0  0  0  0  0  0  0  0  0
   -8.7690  -10.1392   13.4869 H   0  0  0  0  0  0  0  0  0  0  0  0
   -9.0376  -12.3965   17.7269 H   0  0  0  0  0  0  0  0  0  0  0  0
   -8.7082  -14.9759   19.2653 H   0  0  0  0  0  0  0  0  0  0  0  0
   -9.8664  -14.0689   18.2345 H   0  0  0  0  0  0  0  0  0  0  0  0
   -9.8801  -15.8652   18.2345 H   0  0  0  0  0  0  0  0  0  0  0  0
   -5.6023  -15.6891   16.1334 H   0  0  0  0  0  0  0  0  0  0  0  0
   -5.4905  -16.6519   14.6211 H   0  0  0  0  0  0  0  0  0  0  0  0
   -5.0117  -14.9206   14.6211 H   0  0  0  0  0  0  0  0  0  0  0  0
  1 16  1  0
  1 20  1  0
  1 25  2  0
  2 20  2  0
  2 21  1  0
  3 25  1  0
  3 26  1  0
  4  5  1  0
  5  6  1  0
  6  7  1  0
  6  8  2  0
  7 18  2  0
  8  9  1  0
  8 11  1  0
  9 10  1  0
 11 12  2  0
 12 13  1  0
 12 18  1  0
 13 14  1  0
 15 14  1  0
 15 16  1  0
 15 17  1  0
 17 18  1  0
 17 19  1  0
 19 20  1  0
 21 22  2  0
 22 23  1  0
 22 25  1  0
 23 24  1  0
  2 27  1  0
  4 28  1  0
  4 29  1  0
  4 30  1  0
  7 31  1  0
 10 32  1  0
 10 33  1  0
 10 34  1  0
 11 35  1  0
 13 36  1  0
 13 37  1  0
 14 38  1  0
 14 39  1  0
 15 40  1  6
 16 41  1  0
 16 42  1  0
 17 43  1  1
 19 44  1  0
 19 45  1  0
 21 46  1  0
 24 47  1  0
 24 48  1  0
 24 49  1  0
 26 50  1  0
 26 51  1  0
 26 52  1  0
M  CHG  1  15   1
M  END
>  <filename_input>  (7) 
7N4W_P4V_docked.sdf

>  <pdb_id>  (7) 
7N4W_P4V

>  <pose_rank>  (7) 
6

>  <num_atoms_heavy>  (7) 
26

>  <num_torsions>  (7) 
4

>  <pose>  (7) 
[-7.452048139839422, -13.038050309568842, 14.208461029966672, -0.040895101995973224, -1.9509532886452192, 1.7291996449582765, 3.5731169922688784, 3.1995481955876652, 0.014500849071308886, 0.6672725023584479]

>  <energy>  (7) 
-595.9022850587952

>  <inter_energy>  (7) 
-653.5087870025952

>  <intra_energy>  (7) 
56.518268772910126

>  <rmsd>  (7) 
3.0285

>  <sdf_rank>  (7) 
0

$$$$

     RDKit          3D

 52 55  0  0  0  0  0  0  0  0999 V2000
   -8.1535  -12.9855   14.6684 C   0  0  0  0  0  0  0  0  0  0  0  0
   -6.5184  -14.3418   13.4816 C   0  0  0  0  0  0  0  0  0  0  0  0
   -8.9792  -13.6144   16.7699 O   0  0  0  0  0  0  0  0  0  0  0  0
   -8.1825  -10.5642    7.4726 C   0  0  0  0  0  0  0  0  0  0  0  0
   -8.1492   -9.2476    7.9611 O   0  0  0  0  0  0  0  0  0  0  0  0
   -8.0327   -9.1129    9.3419 C   0  0  0  0  0  0  0  0  0  0  0  0
   -8.2966  -10.1964   10.1399 C   0  0  0  0  0  0  0  0  0  0  0  0
   -7.4155   -7.9385    9.7709 C   0  0  0  0  0  0  0  0  0  0  0  0
   -7.1525   -6.9292    8.8690 O   0  0  0  0  0  0  0  0  0  0  0  0
   -7.5989   -5.5926    9.1696 C   0  0  0  0  0  0  0  0  0  0  0  0
   -7.1264   -7.7755   11.1833 C   0  0  0  0  0  0  0  0  0  0  0  0
   -7.4593   -8.8356   11.9721 C   0  0  0  0  0  0  0  0  0  0  0  0
   -7.1917   -8.6522   13.4721 C   0  0  0  0  0  0  0  0  0  0  0  0
   -7.3879   -9.9445   14.3020 C   0  0  0  0  0  0  0  0  0  0  0  0
   -8.6725  -10.6659   13.8624 N   0  0  2  0  0  0  0  0  0  0  0  0
   -9.1278  -11.8261   14.6337 C   0  0  0  0  0  0  0  0  0  0  0  0
   -8.2925  -11.1368   12.5213 C   0  0  1  0  0  0  0  0  0  0  0  0
   -8.0681  -10.0478   11.5681 C   0  0  0  0  0  0  0  0  0  0  0  0
   -7.3835  -12.3079   12.2998 C   0  0  0  0  0  0  0  0  0  0  0  0
   -7.3836  -13.2302   13.4880 C   0  0  0  0  0  0  0  0  0  0  0  0
   -6.4388  -15.2116   14.5514 C   0  0  0  0  0  0  0  0  0  0  0  0
   -7.2513  -14.9739   15.6831 C   0  0  0  0  0  0  0  0  0  0  0  0
   -7.2171  -15.7862   16.8301 O   0  0  0  0  0  0  0  0  0  0  0  0
   -7.4303  -17.2371   16.7170 C   0  0  0  0  0  0  0  0  0  0  0  0
   -8.1544  -13.8548   15.6793 C   0  0  0  0  0  0  0  0  0  0  0  0
  -10.2144  -14.3064   16.8663 C   0  0  0  0  0  0  0  0  0  0  0  0
   -5.8878  -14.5224   12.5986 H   0  0  0  0  0  0  0  0  0  0  0  0
   -8.2003  -11.2685    8.3174 H   0  0  0  0  0  0  0  0  0  0  0  0
   -9.0845  -10.7049    6.8589 H   0  0  0  0  0  0  0  0  0  0  0  0
   -7.2888  -10.7504    6.8589 H   0  0  0  0  0  0  0  0  0  0  0  0
   -8.6669  -11.1414    9.7158 H   0  0  0  0  0  0  0  0  0  0  0  0
   -7.6440   -5.4577   10.2604 H   0  0  0  0  0  0  0  0  0  0  0  0
   -6.8949   -4.8653    8.7390 H   0  0  0  0  0  0  0  0  0  0  0  0
   -8.5987   -5.4343    8.7390 H   0  0  0  0  0  0  0  0  0  0  0  0
   -6.6705   -6.8604   11.5890 H   0  0  0  0  0  0  0  0  0  0  0  0
   -6.1538   -8.3112   13.6006 H   0  0  0  0  0  0  0  0  0  0  0  0
   -7.9233   -7.9186   13.8418 H   0  0  0  0  0  0  0  0  0  0  0  0
   -6.5260  -10.6103   14.1476 H   0  0  0  0  0  0  0  0  0  0  0  0
   -7.4707   -9.6794   15.3664 H   0  0  0  0  0  0  0  0  0  0  0  0
   -9.4650  -10.0157   13.9629 H   0  0  0  0  0  0  0  0  0  0  0  0
  -10.0695  -12.1832   14.1915 H   0  0  0  0  0  0  0  0  0  0  0  0
   -9.2398  -11.4835   15.6729 H   0  0  0  0  0  0  0  0  0  0  0  0
   -9.2330  -11.6665   12.3096 H   0  0  0  0  0  0  0  0  0  0  0  0
   -7.7246  -12.8641   11.4142 H   0  0  0  0  0  0  0  0  0  0  0  0
   -6.3607  -11.9313   12.1518 H   0  0  0  0  0  0  0  0  0  0  0  0
   -5.7557  -16.0733   14.5232 H   0  0  0  0  0  0  0  0  0  0  0  0
   -7.4950  -17.6777   17.7228 H   0  0  0  0  0  0  0  0  0  0  0  0
   -8.3662  -17.4288   16.1718 H   0  0  0  0  0  0  0  0  0  0  0  0
   -6.5890  -17.6899   16.1718 H   0  0  0  0  0  0  0  0  0  0  0  0
  -10.4721  -14.4508   17.9259 H   0  0  0  0  0  0  0  0  0  0  0  0
  -11.0033  -13.7189   16.3739 H   0  0  0  0  0  0  0  0  0  0  0  0
  -10.1253  -15.2860   16.3739 H   0  0  0  0  0  0  0  0  0  0  0  0
  1 16  1  0
  1 20  1  0
  1 25  2  0
  2 20  2  0
  2 21  1  0
  3 25  1  0
  3 26  1  0
  4  5  1  0
  5  6  1  0
  6  7  1  0
  6  8  2  0
  7 18  2  0
  8  9  1  0
  8 11  1  0
  9 10  1  0
 11 12  2  0
 12 13  1  0
 12 18  1  0
 13 14  1  0
 15 14  1  0
 15 16  1  0
 15 17  1  0
 17 18  1  0
 17 19  1  0
 19 20  1  0
 21 22  2  0
 22 23  1  0
 22 25  1  0
 23 24  1  0
  2 27  1  0
  4 28  1  0
  4 29  1  0
  4 30  1  0
  7 31  1  0
 10 32  1  0
 10 33  1  0
 10 34  1  0
 11 35  1  0
 13 36  1  0
 13 37  1  0
 14 38  1  0
 14 39  1  0
 15 40  1  6
 16 41  1  0
 16 42  1  0
 17 43  1  6
 19 44  1  0
 19 45  1  0
 21 46  1  0
 24 47  1  0
 24 48  1  0
 24 49  1  0
 26 50  1  0
 26 51  1  0
 26 52  1  0
M  CHG  1  15   1
M  END
>  <filename_input>  (8) 
7N4W_P4V_docked.sdf

>  <pdb_id>  (8) 
7N4W_P4V

>  <pose_rank>  (8) 
7

>  <num_atoms_heavy>  (8) 
26

>  <num_torsions>  (8) 
4

>  <pose>  (8) 
[-8.153508515076927, -12.985472269081743, 14.668411269120117, -0.11550853302955905, 0.14282871223382995, -0.1564122637388753, 3.6551815555146208, -0.8211560689702088, -0.4194617280451443, -0.6284270248887346]

>  <energy>  (8) 
-721.5826412855989

>  <inter_energy>  (8) 
-722.7229104776361

>  <intra_energy>  (8) 
4.512621647239366

>  <rmsd>  (8) 
0.783539

>  <sdf_rank>  (8) 
0

$$$$

     RDKit          3D

 52 55  0  0  0  0  0  0  0  0999 V2000
   -8.1717  -13.0403   14.2900 C   0  0  0  0  0  0  0  0  0  0  0  0
   -6.2170  -14.0927   13.2934 C   0  0  0  0  0  0  0  0  0  0  0  0
   -9.2014  -13.9215   16.2022 O   0  0  0  0  0  0  0  0  0  0  0  0
   -7.5773  -10.1182    7.3137 C   0  0  0  0  0  0  0  0  0  0  0  0
   -7.6947   -8.8384    7.8809 O   0  0  0  0  0  0  0  0  0  0  0  0
   -7.7978   -8.7942    9.2685 C   0  0  0  0  0  0  0  0  0  0  0  0
   -8.0280   -9.9586    9.9552 C   0  0  0  0  0  0  0  0  0  0  0  0
   -7.4104   -7.5883    9.8516 C   0  0  0  0  0  0  0  0  0  0  0  0
   -7.1561   -6.4898    9.0581 O   0  0  0  0  0  0  0  0  0  0  0  0
   -7.7678   -5.2297    9.3963 C   0  0  0  0  0  0  0  0  0  0  0  0
   -7.3525   -7.4974   11.2985 C   0  0  0  0  0  0  0  0  0  0  0  0
   -7.6521   -8.6464   11.9669 C   0  0  0  0  0  0  0  0  0  0  0  0
   -7.6307   -8.5443   13.4980 C   0  0  0  0  0  0  0  0  0  0  0  0
   -7.7716   -9.9095   14.2149 C   0  0  0  0  0  0  0  0  0  0  0  0
   -8.8720  -10.7482   13.5446 N   0  0  2  0  0  0  0  0  0  0  0  0
   -9.2759  -12.0101   14.1713 C   0  0  0  0  0  0  0  0  0  0  0  0
   -8.2432  -11.0671   12.2532 C   0  0  1  0  0  0  0  0  0  0  0  0
   -8.0300   -9.8905   11.4077 C   0  0  0  0  0  0  0  0  0  0  0  0
   -7.1645  -12.0978   12.1084 C   0  0  0  0  0  0  0  0  0  0  0  0
   -7.2138  -13.0994   13.2294 C   0  0  0  0  0  0  0  0  0  0  0  0
   -6.1781  -15.0238   14.3126 C   0  0  0  0  0  0  0  0  0  0  0  0
   -7.1698  -14.9731   15.3183 C   0  0  0  0  0  0  0  0  0  0  0  0
   -7.1941  -15.8587   16.4100 O   0  0  0  0  0  0  0  0  0  0  0  0
   -6.9492  -17.2945   16.2049 C   0  0  0  0  0  0  0  0  0  0  0  0
   -8.2033  -13.9764   15.2388 C   0  0  0  0  0  0  0  0  0  0  0  0
  -10.3350  -14.7650   16.0697 C   0  0  0  0  0  0  0  0  0  0  0  0
   -5.4472  -14.1278   12.5085 H   0  0  0  0  0  0  0  0  0  0  0  0
   -7.5084  -10.8693    8.1144 H   0  0  0  0  0  0  0  0  0  0  0  0
   -8.4602  -10.3258    6.6912 H   0  0  0  0  0  0  0  0  0  0  0  0
   -6.6714  -10.1617    6.6912 H   0  0  0  0  0  0  0  0  0  0  0  0
   -8.2045  -10.9076    9.4276 H   0  0  0  0  0  0  0  0  0  0  0  0
   -7.8171   -5.1280   10.4905 H   0  0  0  0  0  0  0  0  0  0  0  0
   -7.1686   -4.4073    8.9783 H   0  0  0  0  0  0  0  0  0  0  0  0
   -8.7845   -5.1918    8.9783 H   0  0  0  0  0  0  0  0  0  0  0  0
   -7.0854   -6.5661   11.8194 H   0  0  0  0  0  0  0  0  0  0  0  0
   -6.6768   -8.0890   13.8024 H   0  0  0  0  0  0  0  0  0  0  0  0
   -8.4988   -7.9359   13.7917 H   0  0  0  0  0  0  0  0  0  0  0  0
   -6.8157  -10.4509   14.1572 H   0  0  0  0  0  0  0  0  0  0  0  0
   -8.0416   -9.7370   15.2672 H   0  0  0  0  0  0  0  0  0  0  0  0
   -9.7499  -10.2097   13.5588 H   0  0  0  0  0  0  0  0  0  0  0  0
  -10.0881  -12.4461   13.5712 H   0  0  0  0  0  0  0  0  0  0  0  0
   -9.5813  -11.7626   15.1987 H   0  0  0  0  0  0  0  0  0  0  0  0
   -9.0646  -11.6910   11.8711 H   0  0  0  0  0  0  0  0  0  0  0  0
   -7.2973  -12.6238   11.1514 H   0  0  0  0  0  0  0  0  0  0  0  0
   -6.1901  -11.5884   12.1397 H   0  0  0  0  0  0  0  0  0  0  0  0
   -5.3899  -15.7905   14.3412 H   0  0  0  0  0  0  0  0  0  0  0  0
   -6.8638  -17.7949   17.1808 H   0  0  0  0  0  0  0  0  0  0  0  0
   -7.7857  -17.7321   15.6403 H   0  0  0  0  0  0  0  0  0  0  0  0
   -6.0149  -17.4301   15.6403 H   0  0  0  0  0  0  0  0  0  0  0  0
  -10.7056  -15.0407   17.0680 H   0  0  0  0  0  0  0  0  0  0  0  0
  -11.1252  -14.2334   15.5192 H   0  0  0  0  0  0  0  0  0  0  0  0
  -10.0530  -15.6746   15.5192 H   0  0  0  0  0  0  0  0  0  0  0  0
  1 16  1  0
  1 20  1  0
  1 25  2  0
  2 20  2  0
  2 21  1  0
  3 25  1  0
  3 26  1  0
  4  5  1  0
  5  6  1  0
  6  7  1  0
  6  8  2  0
  7 18  2  0
  8  9  1  0
  8 11  1  0
  9 10  1  0
 11 12  2  0
 12 13  1  0
 12 18  1  0
 13 14  1  0
 15 14  1  0
 15 16  1  0
 15 17  1  0
 17 18  1  0
 17 19  1  0
 19 20  1  0
 21 22  2  0
 22 23  1  0
 22 25  1  0
 23 24  1  0
  2 27  1  0
  4 28  1  0
  4 29  1  0
  4 30  1  0
  7 31  1  0
 10 32  1  0
 10 33  1  0
 10 34  1  0
 11 35  1  0
 13 36  1  0
 13 37  1  0
 14 38  1  0
 14 39  1  0
 15 40  1  6
 16 41  1  0
 16 42  1  0
 17 43  1  6
 19 44  1  0
 19 45  1  0
 21 46  1  0
 24 47  1  0
 24 48  1  0
 24 49  1  0
 26 50  1  0
 26 51  1  0
 26 52  1  0
M  CHG  1  15   1
M  END
>  <filename_input>  (9) 
7N4W_P4V_docked.sdf

>  <pdb_id>  (9) 
7N4W_P4V

>  <pose_rank>  (9) 
8

>  <num_atoms_heavy>  (9) 
26

>  <num_torsions>  (9) 
4

>  <pose>  (9) 
[-8.171723030318638, -13.040287994194438, 14.289971972245578, -0.04693098363797477, -0.008934934530804378, -0.031597759358147834, 3.6547490459070233, -0.7451929492183779, -0.37154578302784524, -0.4340715807274383]

>  <energy>  (9) 
-706.7683698855474

>  <inter_energy>  (9) 
-709.6967480796256

>  <intra_energy>  (9) 
4.5131785627757

>  <rmsd>  (9) 
0.592036

>  <sdf_rank>  (9) 
0

$$$$

     RDKit          3D

 52 55  0  0  0  0  0  0  0  0999 V2000
   -8.1186  -12.8993   13.8387 C   0  0  0  0  0  0  0  0  0  0  0  0
   -6.2493  -13.9532   12.6912 C   0  0  0  0  0  0  0  0  0  0  0  0
   -8.9537  -13.7429   15.8596 O   0  0  0  0  0  0  0  0  0  0  0  0
   -8.2830  -10.1565    6.7682 C   0  0  0  0  0  0  0  0  0  0  0  0
   -8.2990   -8.8607    7.3105 O   0  0  0  0  0  0  0  0  0  0  0  0
   -8.2738   -8.7815    8.7002 C   0  0  0  0  0  0  0  0  0  0  0  0
   -8.4224   -9.9304    9.4341 C   0  0  0  0  0  0  0  0  0  0  0  0
   -7.8519   -7.5561    9.2146 C   0  0  0  0  0  0  0  0  0  0  0  0
   -7.6884   -6.4756    8.3738 O   0  0  0  0  0  0  0  0  0  0  0  0
   -8.0052   -5.1579    8.8634 C   0  0  0  0  0  0  0  0  0  0  0  0
   -7.6616   -7.4267   10.6471 C   0  0  0  0  0  0  0  0  0  0  0  0
   -7.8811   -8.5615   11.3688 C   0  0  0  0  0  0  0  0  0  0  0  0
   -7.7196   -8.4192   12.8883 C   0  0  0  0  0  0  0  0  0  0  0  0
   -7.7733   -9.7668   13.6489 C   0  0  0  0  0  0  0  0  0  0  0  0
   -8.9186  -10.6363   13.1048 N   0  0  2  0  0  0  0  0  0  0  0  0
   -9.2440  -11.8862   13.7976 C   0  0  0  0  0  0  0  0  0  0  0  0
   -8.4074  -10.9810   11.7690 C   0  0  1  0  0  0  0  0  0  0  0  0
   -8.2908   -9.8244   10.8782 C   0  0  0  0  0  0  0  0  0  0  0  0
   -7.3317  -12.0017   11.5502 C   0  0  0  0  0  0  0  0  0  0  0  0
   -7.2623  -12.9743   12.6955 C   0  0  0  0  0  0  0  0  0  0  0  0
   -6.1025  -14.8567   13.7253 C   0  0  0  0  0  0  0  0  0  0  0  0
   -6.9974  -14.7921   14.8171 C   0  0  0  0  0  0  0  0  0  0  0  0
   -6.9075  -15.6491   15.9281 O   0  0  0  0  0  0  0  0  0  0  0  0
   -6.9277  -17.1080   15.7419 C   0  0  0  0  0  0  0  0  0  0  0  0
   -8.0484  -13.8106   14.8094 C   0  0  0  0  0  0  0  0  0  0  0  0
  -10.1092  -14.5663   15.8284 C   0  0  0  0  0  0  0  0  0  0  0  0
   -5.5550  -13.9992   11.8392 H   0  0  0  0  0  0  0  0  0  0  0  0
   -8.2738  -10.8950    7.5834 H   0  0  0  0  0  0  0  0  0  0  0  0
   -9.1793  -10.3057    6.1483 H   0  0  0  0  0  0  0  0  0  0  0  0
   -7.3832  -10.2834    6.1483 H   0  0  0  0  0  0  0  0  0  0  0  0
   -8.6329  -10.8949    8.9489 H   0  0  0  0  0  0  0  0  0  0  0  0
   -8.0034   -5.1652    9.9633 H   0  0  0  0  0  0  0  0  0  0  0  0
   -7.2537   -4.4414    8.5002 H   0  0  0  0  0  0  0  0  0  0  0  0
   -9.0002   -4.8612    8.5002 H   0  0  0  0  0  0  0  0  0  0  0  0
   -7.3612   -6.4789   11.1176 H   0  0  0  0  0  0  0  0  0  0  0  0
   -6.7483   -7.9444   13.0913 H   0  0  0  0  0  0  0  0  0  0  0  0
   -8.5656   -7.8141   13.2463 H   0  0  0  0  0  0  0  0  0  0  0  0
   -6.8190  -10.2977   13.5161 H   0  0  0  0  0  0  0  0  0  0  0  0
   -7.9472   -9.5702   14.7171 H   0  0  0  0  0  0  0  0  0  0  0  0
   -9.7992  -10.1085   13.1872 H   0  0  0  0  0  0  0  0  0  0  0  0
  -10.1019  -12.3478   13.2866 H   0  0  0  0  0  0  0  0  0  0  0  0
   -9.4566  -11.6158   14.8424 H   0  0  0  0  0  0  0  0  0  0  0  0
   -9.2514  -11.6248   11.4804 H   0  0  0  0  0  0  0  0  0  0  0  0
   -7.5448  -12.5541   10.6231 H   0  0  0  0  0  0  0  0  0  0  0  0
   -6.3662  -11.4797   11.4781 H   0  0  0  0  0  0  0  0  0  0  0  0
   -5.3038  -15.6126   13.6995 H   0  0  0  0  0  0  0  0  0  0  0  0
   -6.9346  -17.6029   16.7243 H   0  0  0  0  0  0  0  0  0  0  0  0
   -7.8299  -17.3936   15.1811 H   0  0  0  0  0  0  0  0  0  0  0  0
   -6.0338  -17.4185   15.1811 H   0  0  0  0  0  0  0  0  0  0  0  0
  -10.4263  -14.7923   16.8572 H   0  0  0  0  0  0  0  0  0  0  0  0
  -10.9196  -14.0410   15.3020 H   0  0  0  0  0  0  0  0  0  0  0  0
   -9.8772  -15.5039   15.3020 H   0  0  0  0  0  0  0  0  0  0  0  0
  1 16  1  0
  1 20  1  0
  1 25  2  0
  2 20  2  0
  2 21  1  0
  3 25  1  0
  3 26  1  0
  4  5  1  0
  5  6  1  0
  6  7  1  0
  6  8  2  0
  7 18  2  0
  8  9  1  0
  8 11  1  0
  9 10  1  0
 11 12  2  0
 12 13  1  0
 12 18  1  0
 13 14  1  0
 15 14  1  0
 15 16  1  0
 15 17  1  0
 17 18  1  0
 17 19  1  0
 19 20  1  0
 21 22  2  0
 22 23  1  0
 22 25  1  0
 23 24  1  0
  2 27  1  0
  4 28  1  0
  4 29  1  0
  4 30  1  0
  7 31  1  0
 10 32  1  0
 10 33  1  0
 10 34  1  0
 11 35  1  0
 13 36  1  0
 13 37  1  0
 14 38  1  0
 14 39  1  0
 15 40  1  6
 16 41  1  0
 16 42  1  0
 17 43  1  6
 19 44  1  0
 19 45  1  0
 21 46  1  0
 24 47  1  0
 24 48  1  0
 24 49  1  0
 26 50  1  0
 26 51  1  0
 26 52  1  0
M  CHG  1  15   1
M  END
>  <filename_input>  (10) 
7N4W_P4V_docked.sdf

>  <pdb_id>  (10) 
7N4W_P4V

>  <pose_rank>  (10) 
9

>  <num_atoms_heavy>  (10) 
26

>  <num_torsions>  (10) 
4

>  <pose>  (10) 
[-8.118619544500655, -12.899276805434988, 13.838679638042194, -0.07382773592387724, 0.08324675557258278, -0.01572093773592017, 3.612341653304582, -0.692018355040675, -0.12327463034177047, -0.644675178818233]

>  <energy>  (10) 
-698.7875583740554

>  <inter_energy>  (10) 
-703.5431869675333

>  <intra_energy>  (10) 
4.660706531110453

>  <rmsd>  (10) 
0.645254

>  <sdf_rank>  (10) 
0

$$$$

     RDKit          3D

 52 55  0  0  0  0  0  0  0  0999 V2000
   -8.0505  -12.7894   14.1325 C   0  0  0  0  0  0  0  0  0  0  0  0
   -6.2805  -13.9587   12.9404 C   0  0  0  0  0  0  0  0  0  0  0  0
   -8.8758  -13.5706   16.1824 O   0  0  0  0  0  0  0  0  0  0  0  0
   -8.3393  -10.0756    7.0534 C   0  0  0  0  0  0  0  0  0  0  0  0
   -8.1789   -8.7843    7.5826 O   0  0  0  0  0  0  0  0  0  0  0  0
   -8.1092   -8.6989    8.9704 C   0  0  0  0  0  0  0  0  0  0  0  0
   -8.3043   -9.8327    9.7166 C   0  0  0  0  0  0  0  0  0  0  0  0
   -7.6010   -7.4977    9.4637 C   0  0  0  0  0  0  0  0  0  0  0  0
   -7.3981   -6.4336    8.6107 O   0  0  0  0  0  0  0  0  0  0  0  0
   -7.8546   -5.1258    9.0077 C   0  0  0  0  0  0  0  0  0  0  0  0
   -7.3625   -7.3717   10.8892 C   0  0  0  0  0  0  0  0  0  0  0  0
   -7.6280   -8.4874   11.6251 C   0  0  0  0  0  0  0  0  0  0  0  0
   -7.4148   -8.3463   13.1384 C   0  0  0  0  0  0  0  0  0  0  0  0
   -7.5263   -9.6841   13.9101 C   0  0  0  0  0  0  0  0  0  0  0  0
   -8.7360  -10.4872   13.4050 N   0  0  2  0  0  0  0  0  0  0  0  0
   -9.1148  -11.7117   14.1158 C   0  0  0  0  0  0  0  0  0  0  0  0
   -8.2846  -10.8691   12.0578 C   0  0  1  0  0  0  0  0  0  0  0  0
   -8.1254   -9.7265   11.1556 C   0  0  0  0  0  0  0  0  0  0  0  0
   -7.2779  -11.9531   11.8162 C   0  0  0  0  0  0  0  0  0  0  0  0
   -7.2332  -12.9215   12.9662 C   0  0  0  0  0  0  0  0  0  0  0  0
   -6.1577  -14.8636   13.9766 C   0  0  0  0  0  0  0  0  0  0  0  0
   -7.0156  -14.7398   15.0928 C   0  0  0  0  0  0  0  0  0  0  0  0
   -6.9447  -15.5943   16.2070 O   0  0  0  0  0  0  0  0  0  0  0  0
   -6.7044  -17.0336   16.0228 C   0  0  0  0  0  0  0  0  0  0  0  0
   -8.0065  -13.6978   15.1075 C   0  0  0  0  0  0  0  0  0  0  0  0
  -10.1108  -14.2692   16.1572 C   0  0  0  0  0  0  0  0  0  0  0  0
   -5.6147  -14.0507   12.0696 H   0  0  0  0  0  0  0  0  0  0  0  0
   -8.4293  -10.8004    7.8760 H   0  0  0  0  0  0  0  0  0  0  0  0
   -9.2484  -10.1082    6.4350 H   0  0  0  0  0  0  0  0  0  0  0  0
   -7.4658  -10.3296    6.4350 H   0  0  0  0  0  0  0  0  0  0  0  0
   -8.5853  -10.7858    9.2447 H   0  0  0  0  0  0  0  0  0  0  0  0
   -7.8766   -5.0628   10.1057 H   0  0  0  0  0  0  0  0  0  0  0  0
   -7.1698   -4.3621    8.6102 H   0  0  0  0  0  0  0  0  0  0  0  0
   -8.8658   -4.9541    8.6102 H   0  0  0  0  0  0  0  0  0  0  0  0
   -6.9932   -6.4407   11.3441 H   0  0  0  0  0  0  0  0  0  0  0  0
   -6.4118   -7.9288   13.3103 H   0  0  0  0  0  0  0  0  0  0  0  0
   -8.2129   -7.6901   13.5156 H   0  0  0  0  0  0  0  0  0  0  0  0
   -6.6092  -10.2713   13.7543 H   0  0  0  0  0  0  0  0  0  0  0  0
   -7.6576   -9.4715   14.9813 H   0  0  0  0  0  0  0  0  0  0  0  0
   -9.5813   -9.9077   13.5083 H   0  0  0  0  0  0  0  0  0  0  0  0
  -10.0127  -12.1244   13.6327 H   0  0  0  0  0  0  0  0  0  0  0  0
   -9.2811  -11.4232   15.1642 H   0  0  0  0  0  0  0  0  0  0  0  0
   -9.1731  -11.4634   11.7979 H   0  0  0  0  0  0  0  0  0  0  0  0
   -7.5496  -12.4971   10.8996 H   0  0  0  0  0  0  0  0  0  0  0  0
   -6.2856  -11.4896   11.7130 H   0  0  0  0  0  0  0  0  0  0  0  0
   -5.4061  -15.6656   13.9338 H   0  0  0  0  0  0  0  0  0  0  0  0
   -6.6231  -17.5206   17.0057 H   0  0  0  0  0  0  0  0  0  0  0  0
   -7.5410  -17.4763   15.4624 H   0  0  0  0  0  0  0  0  0  0  0  0
   -5.7693  -17.1804   15.4624 H   0  0  0  0  0  0  0  0  0  0  0  0
  -10.4460  -14.4588   17.1876 H   0  0  0  0  0  0  0  0  0  0  0  0
  -10.8641  -13.6635   15.6322 H   0  0  0  0  0  0  0  0  0  0  0  0
   -9.9797  -15.2269   15.6322 H   0  0  0  0  0  0  0  0  0  0  0  0
  1 16  1  0
  1 20  1  0
  1 25  2  0
  2 20  2  0
  2 21  1  0
  3 25  1  0
  3 26  1  0
  4  5  1  0
  5  6  1  0
  6  7  1  0
  6  8  2  0
  7 18  2  0
  8  9  1  0
  8 11  1  0
  9 10  1  0
 11 12  2  0
 12 13  1  0
 12 18  1  0
 13 14  1  0
 15 14  1  0
 15 16  1  0
 15 17  1  0
 17 18  1  0
 17 19  1  0
 19 20  1  0
 21 22  2  0
 22 23  1  0
 22 25  1  0
 23 24  1  0
  2 27  1  0
  4 28  1  0
  4 29  1  0
  4 30  1  0
  7 31  1  0
 10 32  1  0
 10 33  1  0
 10 34  1  0
 11 35  1  0
 13 36  1  0
 13 37  1  0
 14 38  1  0
 14 39  1  0
 15 40  1  6
 16 41  1  0
 16 42  1  0
 17 43  1  6
 19 44  1  0
 19 45  1  0
 21 46  1  0
 24 47  1  0
 24 48  1  0
 24 49  1  0
 26 50  1  0
 26 51  1  0
 26 52  1  0
M  CHG  1  15   1
M  END
>  <filename_input>  (11) 
7N4W_P4V_docked.sdf

>  <pdb_id>  (11) 
7N4W_P4V

>  <pose_rank>  (11) 
10

>  <num_atoms_heavy>  (11) 
26

>  <num_torsions>  (11) 
4

>  <pose>  (11) 
[-8.050539409071872, -12.789413224468005, 14.132542353722384, -0.07808608704503489, 0.1138277710591225, -0.07413271022337033, 3.55444496611836, -0.6249641662090115, -0.32287559002802246, -0.36628979944518575]

>  <energy>  (11) 
-730.9805422171679

>  <inter_energy>  (11) 
-729.2737155274727

>  <intra_energy>  (11) 
5.160677229153329

>  <rmsd>  (11) 
0.583141

>  <sdf_rank>  (11) 
0

$$$$

     RDKit          3D

 52 55  0  0  0  0  0  0  0  0999 V2000
   -7.9893  -13.0297   14.3087 C   0  0  0  0  0  0  0  0  0  0  0  0
   -6.0649  -14.0200   13.1963 C   0  0  0  0  0  0  0  0  0  0  0  0
   -8.8084  -13.8768   16.3347 O   0  0  0  0  0  0  0  0  0  0  0  0
   -8.4121  -10.4024    7.1948 C   0  0  0  0  0  0  0  0  0  0  0  0
   -8.2751   -9.1049    7.7152 O   0  0  0  0  0  0  0  0  0  0  0  0
   -8.2676   -9.0030    9.1037 C   0  0  0  0  0  0  0  0  0  0  0  0
   -8.3744  -10.1456    9.8543 C   0  0  0  0  0  0  0  0  0  0  0  0
   -7.9038   -7.7527    9.6024 C   0  0  0  0  0  0  0  0  0  0  0  0
   -7.7781   -6.6794    8.7460 O   0  0  0  0  0  0  0  0  0  0  0  0
   -7.8891   -5.3456    9.2799 C   0  0  0  0  0  0  0  0  0  0  0  0
   -7.7340   -7.5929   11.0344 C   0  0  0  0  0  0  0  0  0  0  0  0
   -7.9123   -8.7247   11.7720 C   0  0  0  0  0  0  0  0  0  0  0  0
   -7.7726   -8.5520   13.2905 C   0  0  0  0  0  0  0  0  0  0  0  0
   -7.7764   -9.8886   14.0721 C   0  0  0  0  0  0  0  0  0  0  0  0
   -8.8778  -10.8149   13.5310 N   0  0  2  0  0  0  0  0  0  0  0  0
   -9.1566  -12.0667   14.2405 C   0  0  0  0  0  0  0  0  0  0  0  0
   -8.3386  -11.1581   12.2058 C   0  0  1  0  0  0  0  0  0  0  0  0
   -8.2624  -10.0115   11.2978 C   0  0  0  0  0  0  0  0  0  0  0  0
   -7.2180  -12.1350   12.0138 C   0  0  0  0  0  0  0  0  0  0  0  0
   -7.1188  -13.0856   13.1751 C   0  0  0  0  0  0  0  0  0  0  0  0
   -5.8902  -14.9002   14.2461 C   0  0  0  0  0  0  0  0  0  0  0  0
   -6.7983  -14.8571   15.3281 C   0  0  0  0  0  0  0  0  0  0  0  0
   -6.6832  -15.6920   16.4534 O   0  0  0  0  0  0  0  0  0  0  0  0
   -6.5826  -17.1499   16.2871 C   0  0  0  0  0  0  0  0  0  0  0  0
   -7.8902  -13.9219   15.2945 C   0  0  0  0  0  0  0  0  0  0  0  0
   -9.5929  -15.0263   16.6126 C   0  0  0  0  0  0  0  0  0  0  0  0
   -5.3605  -14.0495   12.3519 H   0  0  0  0  0  0  0  0  0  0  0  0
   -8.4882  -11.1232    8.0222 H   0  0  0  0  0  0  0  0  0  0  0  0
   -9.3209  -10.4557    6.5773 H   0  0  0  0  0  0  0  0  0  0  0  0
   -7.5345  -10.6444    6.5773 H   0  0  0  0  0  0  0  0  0  0  0  0
   -8.5385  -11.1257    9.3827 H   0  0  0  0  0  0  0  0  0  0  0  0
   -7.8855   -5.3891   10.3790 H   0  0  0  0  0  0  0  0  0  0  0  0
   -7.0383   -4.7402    8.9341 H   0  0  0  0  0  0  0  0  0  0  0  0
   -8.8284   -4.8893    8.9341 H   0  0  0  0  0  0  0  0  0  0  0  0
   -7.4793   -6.6259   11.4926 H   0  0  0  0  0  0  0  0  0  0  0  0
   -6.8247   -8.0327   13.4952 H   0  0  0  0  0  0  0  0  0  0  0  0
   -8.6473   -7.9782   13.6306 H   0  0  0  0  0  0  0  0  0  0  0  0
   -6.7990  -10.3800   13.9570 H   0  0  0  0  0  0  0  0  0  0  0  0
   -7.9696   -9.6830   15.1353 H   0  0  0  0  0  0  0  0  0  0  0  0
   -9.7810  -10.3242   13.5964 H   0  0  0  0  0  0  0  0  0  0  0  0
   -9.9886  -12.5725   13.7287 H   0  0  0  0  0  0  0  0  0  0  0  0
   -9.3913  -11.7894   15.2788 H   0  0  0  0  0  0  0  0  0  0  0  0
   -9.1512  -11.8419   11.9195 H   0  0  0  0  0  0  0  0  0  0  0  0
   -7.3976  -12.7104   11.0936 H   0  0  0  0  0  0  0  0  0  0  0  0
   -6.2750  -11.5731   11.9426 H   0  0  0  0  0  0  0  0  0  0  0  0
   -5.0596  -15.6215   14.2401 H   0  0  0  0  0  0  0  0  0  0  0  0
   -6.5495  -17.6304   17.2760 H   0  0  0  0  0  0  0  0  0  0  0  0
   -7.4576  -17.5167   15.7304 H   0  0  0  0  0  0  0  0  0  0  0  0
   -5.6656  -17.3930   15.7304 H   0  0  0  0  0  0  0  0  0  0  0  0
   -9.6812  -15.1555   17.7014 H   0  0  0  0  0  0  0  0  0  0  0  0
  -10.5947  -14.9008   16.1758 H   0  0  0  0  0  0  0  0  0  0  0  0
   -9.1111  -15.9134   16.1758 H   0  0  0  0  0  0  0  0  0  0  0  0
  1 16  1  0
  1 20  1  0
  1 25  2  0
  2 20  2  0
  2 21  1  0
  3 25  1  0
  3 26  1  0
  4  5  1  0
  5  6  1  0
  6  7  1  0
  6  8  2  0
  7 18  2  0
  8  9  1  0
  8 11  1  0
  9 10  1  0
 11 12  2  0
 12 13  1  0
 12 18  1  0
 13 14  1  0
 15 14  1  0
 15 16  1  0
 15 17  1  0
 17 18  1  0
 17 19  1  0
 19 20  1  0
 21 22  2  0
 22 23  1  0
 22 25  1  0
 23 24  1  0
  2 27  1  0
  4 28  1  0
  4 29  1  0
  4 30  1  0
  7 31  1  0
 10 32  1  0
 10 33  1  0
 10 34  1  0
 11 35  1  0
 13 36  1  0
 13 37  1  0
 14 38  1  0
 14 39  1  0
 15 40  1  6
 16 41  1  0
 16 42  1  0
 17 43  1  6
 19 44  1  0
 19 45  1  0
 21 46  1  0
 24 47  1  0
 24 48  1  0
 24 49  1  0
 26 50  1  0
 26 51  1  0
 26 52  1  0
M  CHG  1  15   1
M  END
>  <filename_input>  (12) 
7N4W_P4V_docked.sdf

>  <pdb_id>  (12) 
7N4W_P4V

>  <pose_rank>  (12) 
11

>  <num_atoms_heavy>  (12) 
26

>  <num_torsions>  (12) 
4

>  <pose>  (12) 
[-7.989326007021937, -13.029674809639001, 14.308673206592696, -0.09131156265801663, 0.07155339452895562, 0.026101124124312543, 4.044269896287898, -0.5222351300409672, 0.09636472617070346, -0.6000884401517639]

>  <energy>  (12) 
-724.9354010685298

>  <inter_energy>  (12) 
-730.7750630944556

>  <intra_energy>  (12) 
11.505110922797934

>  <rmsd>  (12) 
0.533256

>  <sdf_rank>  (12) 
0

$$$$

     RDKit          3D

 52 55  0  0  0  0  0  0  0  0999 V2000
   -8.2485  -13.4082   14.4259 C   0  0  0  0  0  0  0  0  0  0  0  0
   -6.1955  -14.3809   13.5537 C   0  0  0  0  0  0  0  0  0  0  0  0
   -9.3217  -14.2908   16.3134 O   0  0  0  0  0  0  0  0  0  0  0  0
   -7.5236  -10.6556    7.3945 C   0  0  0  0  0  0  0  0  0  0  0  0
   -7.6833   -9.3640    7.9232 O   0  0  0  0  0  0  0  0  0  0  0  0
   -7.8555   -9.2874    9.3026 C   0  0  0  0  0  0  0  0  0  0  0  0
   -8.0573  -10.4432   10.0123 C   0  0  0  0  0  0  0  0  0  0  0  0
   -7.5604   -8.0469    9.8668 C   0  0  0  0  0  0  0  0  0  0  0  0
   -7.3260   -6.9584    9.0536 O   0  0  0  0  0  0  0  0  0  0  0  0
   -7.9468   -5.6993    9.3788 C   0  0  0  0  0  0  0  0  0  0  0  0
   -7.5773   -7.9133   11.3114 C   0  0  0  0  0  0  0  0  0  0  0  0
   -7.8483   -9.0581   11.9991 C   0  0  0  0  0  0  0  0  0  0  0  0
   -7.9062   -8.9130   13.5259 C   0  0  0  0  0  0  0  0  0  0  0  0
   -8.0097  -10.2637   14.2759 C   0  0  0  0  0  0  0  0  0  0  0  0
   -9.0311  -11.1784   13.5803 N   0  0  2  0  0  0  0  0  0  0  0  0
   -9.3981  -12.4425   14.2250 C   0  0  0  0  0  0  0  0  0  0  0  0
   -8.3248  -11.4983   12.3299 C   0  0  1  0  0  0  0  0  0  0  0  0
   -8.1329  -10.3356   11.4604 C   0  0  0  0  0  0  0  0  0  0  0  0
   -7.1879  -12.4731   12.2666 C   0  0  0  0  0  0  0  0  0  0  0  0
   -7.2387  -13.4448   13.4135 C   0  0  0  0  0  0  0  0  0  0  0  0
   -6.1571  -15.2803   14.6011 C   0  0  0  0  0  0  0  0  0  0  0  0
   -7.1975  -15.2555   15.5573 C   0  0  0  0  0  0  0  0  0  0  0  0
   -7.2281  -16.1108   16.6727 O   0  0  0  0  0  0  0  0  0  0  0  0
   -7.0154  -17.5564   16.5039 C   0  0  0  0  0  0  0  0  0  0  0  0
   -8.2767  -14.3183   15.3998 C   0  0  0  0  0  0  0  0  0  0  0  0
  -10.4573  -15.1113   16.0873 C   0  0  0  0  0  0  0  0  0  0  0  0
   -5.3878  -14.3961   12.8071 H   0  0  0  0  0  0  0  0  0  0  0  0
   -7.4339  -11.3801    8.2173 H   0  0  0  0  0  0  0  0  0  0  0  0
   -8.3972  -10.9093    6.7761 H   0  0  0  0  0  0  0  0  0  0  0  0
   -6.6145  -10.6888    6.7761 H   0  0  0  0  0  0  0  0  0  0  0  0
   -8.1582  -11.4144    9.5057 H   0  0  0  0  0  0  0  0  0  0  0  0
   -8.0012   -5.5889   10.4719 H   0  0  0  0  0  0  0  0  0  0  0  0
   -7.3509   -4.8768    8.9564 H   0  0  0  0  0  0  0  0  0  0  0  0
   -8.9620   -5.6711    8.9564 H   0  0  0  0  0  0  0  0  0  0  0  0
   -7.3848   -6.9551   11.8162 H   0  0  0  0  0  0  0  0  0  0  0  0
   -6.9932   -8.3990   13.8607 H   0  0  0  0  0  0  0  0  0  0  0  0
   -8.8181   -8.3444   13.7604 H   0  0  0  0  0  0  0  0  0  0  0  0
   -7.0252  -10.7542   14.2792 H   0  0  0  0  0  0  0  0  0  0  0  0
   -8.3389  -10.0771   15.3088 H   0  0  0  0  0  0  0  0  0  0  0  0
   -9.9357  -10.6877   13.5373 H   0  0  0  0  0  0  0  0  0  0  0  0
  -10.1564  -12.9378   13.6008 H   0  0  0  0  0  0  0  0  0  0  0  0
   -9.7653  -12.1837   15.2291 H   0  0  0  0  0  0  0  0  0  0  0  0
   -9.0930  -12.1756   11.9286 H   0  0  0  0  0  0  0  0  0  0  0  0
   -7.2465  -13.0314   11.3206 H   0  0  0  0  0  0  0  0  0  0  0  0
   -6.2441  -11.9113   12.3281 H   0  0  0  0  0  0  0  0  0  0  0  0
   -5.3321  -16.0024   14.6895 H   0  0  0  0  0  0  0  0  0  0  0  0
   -6.9450  -18.0345   17.4920 H   0  0  0  0  0  0  0  0  0  0  0  0
   -7.8596  -17.9886   15.9467 H   0  0  0  0  0  0  0  0  0  0  0  0
   -6.0824  -17.7271   15.9467 H   0  0  0  0  0  0  0  0  0  0  0  0
  -10.8846  -15.4201   17.0528 H   0  0  0  0  0  0  0  0  0  0  0  0
  -11.2098  -14.5470   15.5170 H   0  0  0  0  0  0  0  0  0  0  0  0
  -10.1577  -16.0030   15.5170 H   0  0  0  0  0  0  0  0  0  0  0  0
  1 16  1  0
  1 20  1  0
  1 25  2  0
  2 20  2  0
  2 21  1  0
  3 25  1  0
  3 26  1  0
  4  5  1  0
  5  6  1  0
  6  7  1  0
  6  8  2  0
  7 18  2  0
  8  9  1  0
  8 11  1  0
  9 10  1  0
 11 12  2  0
 12 13  1  0
 12 18  1  0
 13 14  1  0
 15 14  1  0
 15 16  1  0
 15 17  1  0
 17 18  1  0
 17 19  1  0
 19 20  1  0
 21 22  2  0
 22 23  1  0
 22 25  1  0
 23 24  1  0
  2 27  1  0
  4 28  1  0
  4 29  1  0
  4 30  1  0
  7 31  1  0
 10 32  1  0
 10 33  1  0
 10 34  1  0
 11 35  1  0
 13 36  1  0
 13 37  1  0
 14 38  1  0
 14 39  1  0
 15 40  1  6
 16 41  1  0
 16 42  1  0
 17 43  1  6
 19 44  1  0
 19 45  1  0
 21 46  1  0
 24 47  1  0
 24 48  1  0
 24 49  1  0
 26 50  1  0
 26 51  1  0
 26 52  1  0
M  CHG  1  15   1
M  END
>  <filename_input>  (13) 
7N4W_P4V_docked.sdf

>  <pdb_id>  (13) 
7N4W_P4V

>  <pose_rank>  (13) 
12

>  <num_atoms_heavy>  (13) 
26

>  <num_torsions>  (13) 
4

>  <pose>  (13) 
[-8.248482215744287, -13.408185278162614, 14.425900454730348, -0.07460929161262181, -0.05818554823005416, 0.020542409987193807, 3.556606177640792, -0.7037782606399782, -0.2976961000889471, -0.5284423243234168]

>  <energy>  (13) 
-672.8081295767578

>  <inter_energy>  (13) 
-671.0568174357433

>  <intra_energy>  (13) 
5.135805828822179

>  <rmsd>  (13) 
0.752153

>  <sdf_rank>  (13) 
0

$$$$

     RDKit          3D

 52 55  0  0  0  0  0  0  0  0999 V2000
   -8.0183  -13.1121   14.0302 C   0  0  0  0  0  0  0  0  0  0  0  0
   -6.0487  -14.0904   12.9885 C   0  0  0  0  0  0  0  0  0  0  0  0
   -8.9832  -14.0441   15.9521 O   0  0  0  0  0  0  0  0  0  0  0  0
   -8.4454   -9.9142    7.0234 C   0  0  0  0  0  0  0  0  0  0  0  0
   -7.7973   -8.8393    7.6542 O   0  0  0  0  0  0  0  0  0  0  0  0
   -7.8763   -8.8110    9.0439 C   0  0  0  0  0  0  0  0  0  0  0  0
   -8.0556   -9.9885    9.7234 C   0  0  0  0  0  0  0  0  0  0  0  0
   -7.5182   -7.5983    9.6314 C   0  0  0  0  0  0  0  0  0  0  0  0
   -7.3148   -6.4848    8.8441 O   0  0  0  0  0  0  0  0  0  0  0  0
   -7.5655   -5.1808    9.4035 C   0  0  0  0  0  0  0  0  0  0  0  0
   -7.4368   -7.5185   11.0778 C   0  0  0  0  0  0  0  0  0  0  0  0
   -7.6862   -8.6828   11.7404 C   0  0  0  0  0  0  0  0  0  0  0  0
   -7.6401   -8.5938   13.2718 C   0  0  0  0  0  0  0  0  0  0  0  0
   -7.7228   -9.9693   13.9780 C   0  0  0  0  0  0  0  0  0  0  0  0
   -8.8071  -10.8379   13.3196 N   0  0  2  0  0  0  0  0  0  0  0  0
   -9.1577  -12.1180   13.9414 C   0  0  0  0  0  0  0  0  0  0  0  0
   -8.1919  -11.1241   12.0141 C   0  0  1  0  0  0  0  0  0  0  0  0
   -8.0331   -9.9336   11.1762 C   0  0  0  0  0  0  0  0  0  0  0  0
   -7.0828  -12.1173   11.8400 C   0  0  0  0  0  0  0  0  0  0  0  0
   -7.0786  -13.1300   12.9520 C   0  0  0  0  0  0  0  0  0  0  0  0
   -5.9604  -15.0288   13.9979 C   0  0  0  0  0  0  0  0  0  0  0  0
   -6.9346  -15.0200   15.0217 C   0  0  0  0  0  0  0  0  0  0  0  0
   -6.9098  -15.9157   16.1051 O   0  0  0  0  0  0  0  0  0  0  0  0
   -6.2807  -17.2372   15.9596 C   0  0  0  0  0  0  0  0  0  0  0  0
   -8.0016  -14.0573   14.9705 C   0  0  0  0  0  0  0  0  0  0  0  0
  -10.3470  -14.1066   15.5648 C   0  0  0  0  0  0  0  0  0  0  0  0
   -5.2926  -14.0929   12.1895 H   0  0  0  0  0  0  0  0  0  0  0  0
   -8.8550  -10.5936    7.7854 H   0  0  0  0  0  0  0  0  0  0  0  0
   -9.2635   -9.5316    6.3954 H   0  0  0  0  0  0  0  0  0  0  0  0
   -7.7251  -10.4591    6.3954 H   0  0  0  0  0  0  0  0  0  0  0  0
   -8.2104  -10.9380    9.1900 H   0  0  0  0  0  0  0  0  0  0  0  0
   -7.5533   -5.2444   10.5016 H   0  0  0  0  0  0  0  0  0  0  0  0
   -6.7853   -4.4816    9.0680 H   0  0  0  0  0  0  0  0  0  0  0  0
   -8.5493   -4.8209    9.0680 H   0  0  0  0  0  0  0  0  0  0  0  0
   -7.1910   -6.5836   11.6028 H   0  0  0  0  0  0  0  0  0  0  0  0
   -6.6962   -8.1100   13.5633 H   0  0  0  0  0  0  0  0  0  0  0  0
   -8.5222   -8.0171   13.5870 H   0  0  0  0  0  0  0  0  0  0  0  0
   -6.7509  -10.4782   13.8979 H   0  0  0  0  0  0  0  0  0  0  0  0
   -7.9790   -9.8153   15.0366 H   0  0  0  0  0  0  0  0  0  0  0  0
   -9.7019  -10.3289   13.3548 H   0  0  0  0  0  0  0  0  0  0  0  0
   -9.9660  -12.5752   13.3519 H   0  0  0  0  0  0  0  0  0  0  0  0
   -9.4522  -11.8900   14.9764 H   0  0  0  0  0  0  0  0  0  0  0  0
   -8.9992  -11.7714   11.6409 H   0  0  0  0  0  0  0  0  0  0  0  0
   -7.2157  -12.6387   10.8806 H   0  0  0  0  0  0  0  0  0  0  0  0
   -6.1253  -11.5762   11.8586 H   0  0  0  0  0  0  0  0  0  0  0  0
   -5.1470  -15.7692   14.0049 H   0  0  0  0  0  0  0  0  0  0  0  0
   -6.0798  -17.6593   16.9554 H   0  0  0  0  0  0  0  0  0  0  0  0
   -6.9569  -17.9064   15.4073 H   0  0  0  0  0  0  0  0  0  0  0  0
   -5.3350  -17.1343   15.4073 H   0  0  0  0  0  0  0  0  0  0  0  0
  -10.9822  -14.1357   16.4624 H   0  0  0  0  0  0  0  0  0  0  0  0
  -10.5991  -13.2190   14.9658 H   0  0  0  0  0  0  0  0  0  0  0  0
  -10.5169  -15.0134   14.9658 H   0  0  0  0  0  0  0  0  0  0  0  0
  1 16  1  0
  1 20  1  0
  1 25  2  0
  2 20  2  0
  2 21  1  0
  3 25  1  0
  3 26  1  0
  4  5  1  0
  5  6  1  0
  6  7  1  0
  6  8  2  0
  7 18  2  0
  8  9  1  0
  8 11  1  0
  9 10  1  0
 11 12  2  0
 12 13  1  0
 12 18  1  0
 13 14  1  0
 15 14  1  0
 15 16  1  0
 15 17  1  0
 17 18  1  0
 17 19  1  0
 19 20  1  0
 21 22  2  0
 22 23  1  0
 22 25  1  0
 23 24  1  0
  2 27  1  0
  4 28  1  0
  4 29  1  0
  4 30  1  0
  7 31  1  0
 10 32  1  0
 10 33  1  0
 10 34  1  0
 11 35  1  0
 13 36  1  0
 13 37  1  0
 14 38  1  0
 14 39  1  0
 15 40  1  6
 16 41  1  0
 16 42  1  0
 17 43  1  6
 19 44  1  0
 19 45  1  0
 21 46  1  0
 24 47  1  0
 24 48  1  0
 24 49  1  0
 26 50  1  0
 26 51  1  0
 26 52  1  0
M  CHG  1  15   1
M  END
>  <filename_input>  (14) 
7N4W_P4V_docked.sdf

>  <pdb_id>  (14) 
7N4W_P4V

>  <pose_rank>  (14) 
13

>  <num_atoms_heavy>  (14) 
26

>  <num_torsions>  (14) 
4

>  <pose>  (14) 
[-8.018295594858117, -13.112139295223443, 14.030228201722318, 12.200814969407519, -2.7848135332452357, -0.5706682002289101, 2.9149246980439605, -0.08230218156219932, -0.01463149846072406, -0.14610632230003415]

>  <energy>  (14) 
-686.7174731078545

>  <inter_energy>  (14) 
-715.7439312239259

>  <intra_energy>  (14) 
28.27414294614334

>  <rmsd>  (14) 
0.48738

>  <sdf_rank>  (14) 
0

$$$$

     RDKit          3D

 52 55  0  0  0  0  0  0  0  0999 V2000
   -8.3158  -13.2250   14.4564 C   0  0  0  0  0  0  0  0  0  0  0  0
   -6.6555  -14.5108   13.2268 C   0  0  0  0  0  0  0  0  0  0  0  0
   -9.1586  -13.9576   16.5171 O   0  0  0  0  0  0  0  0  0  0  0  0
   -8.2303  -10.4716    7.3757 C   0  0  0  0  0  0  0  0  0  0  0  0
   -8.2725   -9.1812    7.9291 O   0  0  0  0  0  0  0  0  0  0  0  0
   -8.1723   -9.1094    9.3158 C   0  0  0  0  0  0  0  0  0  0  0  0
   -8.4350  -10.2309   10.0600 C   0  0  0  0  0  0  0  0  0  0  0  0
   -7.5707   -7.9508    9.8056 C   0  0  0  0  0  0  0  0  0  0  0  0
   -7.3071   -6.8987    8.9542 O   0  0  0  0  0  0  0  0  0  0  0  0
   -7.7445   -5.5766    9.3245 C   0  0  0  0  0  0  0  0  0  0  0  0
   -7.2985   -7.8508   11.2272 C   0  0  0  0  0  0  0  0  0  0  0  0
   -7.6302   -8.9491   11.9624 C   0  0  0  0  0  0  0  0  0  0  0  0
   -7.3808   -8.8329   13.4722 C   0  0  0  0  0  0  0  0  0  0  0  0
   -7.5742  -10.1639   14.2394 C   0  0  0  0  0  0  0  0  0  0  0  0
   -8.8472  -10.8752   13.7524 N   0  0  2  0  0  0  0  0  0  0  0  0
   -9.3002  -12.0738   14.4641 C   0  0  0  0  0  0  0  0  0  0  0  0
   -8.4483  -11.2803   12.3954 C   0  0  1  0  0  0  0  0  0  0  0  0
   -8.2235  -10.1466   11.4961 C   0  0  0  0  0  0  0  0  0  0  0  0
   -7.5263  -12.4321   12.1304 C   0  0  0  0  0  0  0  0  0  0  0  0
   -7.5308  -13.4082   13.2748 C   0  0  0  0  0  0  0  0  0  0  0  0
   -6.5796  -15.4284   14.2562 C   0  0  0  0  0  0  0  0  0  0  0  0
   -7.4065  -15.2503   15.3884 C   0  0  0  0  0  0  0  0  0  0  0  0
   -7.3774  -16.1145   16.4970 O   0  0  0  0  0  0  0  0  0  0  0  0
   -7.1849  -17.5599   16.3048 C   0  0  0  0  0  0  0  0  0  0  0  0
   -8.3198  -14.1401   15.4260 C   0  0  0  0  0  0  0  0  0  0  0  0
  -10.4739  -14.4885   16.4724 C   0  0  0  0  0  0  0  0  0  0  0  0
   -6.0136  -14.6449   12.3437 H   0  0  0  0  0  0  0  0  0  0  0  0
   -8.2060  -11.2168    8.1845 H   0  0  0  0  0  0  0  0  0  0  0  0
   -9.1237  -10.6336    6.7546 H   0  0  0  0  0  0  0  0  0  0  0  0
   -7.3283  -10.5749    6.7546 H   0  0  0  0  0  0  0  0  0  0  0  0
   -8.7920  -11.1585    9.5886 H   0  0  0  0  0  0  0  0  0  0  0  0
   -7.7721   -5.4932   10.4209 H   0  0  0  0  0  0  0  0  0  0  0  0
   -7.0449   -4.8316    8.9175 H   0  0  0  0  0  0  0  0  0  0  0  0
   -8.7503   -5.3958    8.9175 H   0  0  0  0  0  0  0  0  0  0  0  0
   -6.8554   -6.9515   11.6798 H   0  0  0  0  0  0  0  0  0  0  0  0
   -6.3475   -8.4893   13.6280 H   0  0  0  0  0  0  0  0  0  0  0  0
   -8.1230   -8.1235   13.8670 H   0  0  0  0  0  0  0  0  0  0  0  0
   -6.7046  -10.8143   14.0642 H   0  0  0  0  0  0  0  0  0  0  0  0
   -7.6710   -9.9490   15.3138 H   0  0  0  0  0  0  0  0  0  0  0  0
   -9.6467  -10.2373   13.8738 H   0  0  0  0  0  0  0  0  0  0  0  0
  -10.2338  -12.4182   13.9953 H   0  0  0  0  0  0  0  0  0  0  0  0
   -9.4267  -11.7805   15.5167 H   0  0  0  0  0  0  0  0  0  0  0  0
   -9.3815  -11.8078   12.1488 H   0  0  0  0  0  0  0  0  0  0  0  0
   -7.8525  -12.9496   11.2163 H   0  0  0  0  0  0  0  0  0  0  0  0
   -6.5053  -12.0402   12.0115 H   0  0  0  0  0  0  0  0  0  0  0  0
   -5.8884  -16.2820   14.1960 H   0  0  0  0  0  0  0  0  0  0  0  0
   -7.1190  -18.0546   17.2851 H   0  0  0  0  0  0  0  0  0  0  0  0
   -8.0361  -17.9717   15.7428 H   0  0  0  0  0  0  0  0  0  0  0  0
   -6.2555  -17.7345   15.7428 H   0  0  0  0  0  0  0  0  0  0  0  0
  -10.8440  -14.6380   17.4974 H   0  0  0  0  0  0  0  0  0  0  0  0
  -11.1348  -13.7868   15.9426 H   0  0  0  0  0  0  0  0  0  0  0  0
  -10.4624  -15.4525   15.9426 H   0  0  0  0  0  0  0  0  0  0  0  0
  1 16  1  0
  1 20  1  0
  1 25  2  0
  2 20  2  0
  2 21  1  0
  3 25  1  0
  3 26  1  0
  4  5  1  0
  5  6  1  0
  6  7  1  0
  6  8  2  0
  7 18  2  0
  8  9  1  0
  8 11  1  0
  9 10  1  0
 11 12  2  0
 12 13  1  0
 12 18  1  0
 13 14  1  0
 15 14  1  0
 15 16  1  0
 15 17  1  0
 17 18  1  0
 17 19  1  0
 19 20  1  0
 21 22  2  0
 22 23  1  0
 22 25  1  0
 23 24  1  0
  2 27  1  0
  4 28  1  0
  4 29  1  0
  4 30  1  0
  7 31  1  0
 10 32  1  0
 10 33  1  0
 10 34  1  0
 11 35  1  0
 13 36  1  0
 13 37  1  0
 14 38  1  0
 14 39  1  0
 15 40  1  6
 16 41  1  0
 16 42  1  0
 17 43  1  6
 19 44  1  0
 19 45  1  0
 21 46  1  0
 24 47  1  0
 24 48  1  0
 24 49  1  0
 26 50  1  0
 26 51  1  0
 26 52  1  0
M  CHG  1  15   1
M  END
>  <filename_input>  (15) 
7N4W_P4V_docked.sdf

>  <pdb_id>  (15) 
7N4W_P4V

>  <pose_rank>  (15) 
14

>  <num_atoms_heavy>  (15) 
26

>  <num_torsions>  (15) 
4

>  <pose>  (15) 
[-8.31581139407515, -13.225015924672897, 14.456358230793745, -0.06922840621620138, 0.1347300739491861, -0.1447561197663421, 3.4799263065267376, -0.867302288914694, -0.3970393766679129, -0.31924218201481375]

>  <energy>  (15) 
-708.192912531743

>  <inter_energy>  (15) 
-704.3508277873284

>  <intra_energy>  (15) 
6.312067351353763

>  <rmsd>  (15) 
0.667458

>  <sdf_rank>  (15) 
0

$$$$

     RDKit          3D

 52 55  0  0  0  0  0  0  0  0999 V2000
   -8.2765  -13.1222   14.2721 C   0  0  0  0  0  0  0  0  0  0  0  0
   -6.3084  -14.1055   13.2322 C   0  0  0  0  0  0  0  0  0  0  0  0
   -9.2369  -14.0431   16.2016 O   0  0  0  0  0  0  0  0  0  0  0  0
   -8.3518  -10.1271    7.2715 C   0  0  0  0  0  0  0  0  0  0  0  0
   -8.0711   -8.8876    7.8701 O   0  0  0  0  0  0  0  0  0  0  0  0
   -8.1473   -8.8510    9.2597 C   0  0  0  0  0  0  0  0  0  0  0  0
   -8.3245  -10.0245    9.9467 C   0  0  0  0  0  0  0  0  0  0  0  0
   -7.7887   -7.6345    9.8393 C   0  0  0  0  0  0  0  0  0  0  0  0
   -7.5875   -6.5257    9.0448 O   0  0  0  0  0  0  0  0  0  0  0  0
   -7.2738   -5.2670    9.6721 C   0  0  0  0  0  0  0  0  0  0  0  0
   -7.7043   -7.5460   11.2850 C   0  0  0  0  0  0  0  0  0  0  0  0
   -7.9517   -8.7064   11.9551 C   0  0  0  0  0  0  0  0  0  0  0  0
   -7.9025   -8.6082   13.4858 C   0  0  0  0  0  0  0  0  0  0  0  0
   -7.9829   -9.9795   14.2004 C   0  0  0  0  0  0  0  0  0  0  0  0
   -9.0681  -10.8526   13.5495 N   0  0  2  0  0  0  0  0  0  0  0  0
   -9.4166  -12.1292   14.1797 C   0  0  0  0  0  0  0  0  0  0  0  0
   -8.4554  -11.1464   12.2445 C   0  0  1  0  0  0  0  0  0  0  0  0
   -8.2990   -9.9609   11.3991 C   0  0  0  0  0  0  0  0  0  0  0  0
   -7.3461  -12.1400   12.0740 C   0  0  0  0  0  0  0  0  0  0  0  0
   -7.3390  -13.1460   13.1921 C   0  0  0  0  0  0  0  0  0  0  0  0
   -6.2176  -15.0378   14.2471 C   0  0  0  0  0  0  0  0  0  0  0  0
   -7.1896  -15.0234   15.2728 C   0  0  0  0  0  0  0  0  0  0  0  0
   -7.1621  -15.9125   16.3616 O   0  0  0  0  0  0  0  0  0  0  0  0
   -6.8934  -17.3422   16.1440 C   0  0  0  0  0  0  0  0  0  0  0  0
   -8.2573  -14.0616   15.2180 C   0  0  0  0  0  0  0  0  0  0  0  0
  -10.3779  -14.8740   16.0545 C   0  0  0  0  0  0  0  0  0  0  0  0
   -5.5540  -14.1124   12.4317 H   0  0  0  0  0  0  0  0  0  0  0  0
   -8.5227  -10.8816    8.0535 H   0  0  0  0  0  0  0  0  0  0  0  0
   -9.2522  -10.0367    6.6462 H   0  0  0  0  0  0  0  0  0  0  0  0
   -7.5003  -10.4334    6.6462 H   0  0  0  0  0  0  0  0  0  0  0  0
   -8.4798  -10.9773    9.4193 H   0  0  0  0  0  0  0  0  0  0  0  0
   -7.3031   -5.3848   10.7654 H   0  0  0  0  0  0  0  0  0  0  0  0
   -6.2679   -4.9449    9.3649 H   0  0  0  0  0  0  0  0  0  0  0  0
   -8.0108   -4.5104    9.3649 H   0  0  0  0  0  0  0  0  0  0  0  0
   -7.4580   -6.6078   11.8038 H   0  0  0  0  0  0  0  0  0  0  0  0
   -6.9582   -8.1221   13.7724 H   0  0  0  0  0  0  0  0  0  0  0  0
   -8.7842   -8.0302   13.7993 H   0  0  0  0  0  0  0  0  0  0  0  0
   -7.0109  -10.4884   14.1213 H   0  0  0  0  0  0  0  0  0  0  0  0
   -8.2370   -9.8193   15.2586 H   0  0  0  0  0  0  0  0  0  0  0  0
   -9.9631  -10.3439   13.5835 H   0  0  0  0  0  0  0  0  0  0  0  0
  -10.2259  -12.5904   13.5946 H   0  0  0  0  0  0  0  0  0  0  0  0
   -9.7092  -11.8952   15.2140 H   0  0  0  0  0  0  0  0  0  0  0  0
   -9.2631  -11.7963   11.8768 H   0  0  0  0  0  0  0  0  0  0  0  0
   -7.4807  -12.6672   11.1181 H   0  0  0  0  0  0  0  0  0  0  0  0
   -6.3888  -11.5982   12.0874 H   0  0  0  0  0  0  0  0  0  0  0  0
   -5.4037  -15.7777   14.2569 H   0  0  0  0  0  0  0  0  0  0  0  0
   -6.7981  -17.8494   17.1154 H   0  0  0  0  0  0  0  0  0  0  0  0
   -7.7233  -17.7890   15.5769 H   0  0  0  0  0  0  0  0  0  0  0  0
   -5.9579  -17.4573   15.5769 H   0  0  0  0  0  0  0  0  0  0  0  0
  -10.7596  -15.1520   17.0480 H   0  0  0  0  0  0  0  0  0  0  0  0
  -11.1579  -14.3310   15.5007 H   0  0  0  0  0  0  0  0  0  0  0  0
  -10.1005  -15.7831   15.5007 H   0  0  0  0  0  0  0  0  0  0  0  0
  1 16  1  0
  1 20  1  0
  1 25  2  0
  2 20  2  0
  2 21  1  0
  3 25  1  0
  3 26  1  0
  4  5  1  0
  5  6  1  0
  6  7  1  0
  6  8  2  0
  7 18  2  0
  8  9  1  0
  8 11  1  0
  9 10  1  0
 11 12  2  0
 12 13  1  0
 12 18  1  0
 13 14  1  0
 15 14  1  0
 15 16  1  0
 15 17  1  0
 17 18  1  0
 17 19  1  0
 19 20  1  0
 21 22  2  0
 22 23  1  0
 22 25  1  0
 23 24  1  0
  2 27  1  0
  4 28  1  0
  4 29  1  0
  4 30  1  0
  7 31  1  0
 10 32  1  0
 10 33  1  0
 10 34  1  0
 11 35  1  0
 13 36  1  0
 13 37  1  0
 14 38  1  0
 14 39  1  0
 15 40  1  6
 16 41  1  0
 16 42  1  0
 17 43  1  6
 19 44  1  0
 19 45  1  0
 21 46  1  0
 24 47  1  0
 24 48  1  0
 24 49  1  0
 26 50  1  0
 26 51  1  0
 26 52  1  0
M  CHG  1  15   1
M  END
>  <filename_input>  (16) 
7N4W_P4V_docked.sdf

>  <pdb_id>  (16) 
7N4W_P4V

>  <pose_rank>  (16) 
15

>  <num_atoms_heavy>  (16) 
26

>  <num_torsions>  (16) 
4

>  <pose>  (16) 
[-8.276471811417013, -13.122151987075389, 14.272146976861611, 12.14760574219884, -2.9648243750823835, -0.6535995595406298, 3.5988688484258238, -0.40213316659325293, 0.4421042641114446, -0.4501060489618359]

>  <energy>  (16) 
-731.6193577954255

>  <inter_energy>  (16) 
-727.3683966588615

>  <intra_energy>  (16) 
4.746220694940782

>  <rmsd>  (16) 
0.551913

>  <sdf_rank>  (16) 
0

$$$$

     RDKit          3D

 52 55  0  0  0  0  0  0  0  0999 V2000
  -13.6935  -13.5928   16.3615 C   0  0  0  0  0  0  0  0  0  0  0  0
  -14.2793  -15.1306   14.5689 C   0  0  0  0  0  0  0  0  0  0  0  0
  -15.3138  -12.7279   17.8176 O   0  0  0  0  0  0  0  0  0  0  0  0
   -7.3513  -12.7828   11.9380 C   0  0  0  0  0  0  0  0  0  0  0  0
   -6.9222  -13.8461   12.7497 O   0  0  0  0  0  0  0  0  0  0  0  0
   -7.5649  -13.9726   13.9781 C   0  0  0  0  0  0  0  0  0  0  0  0
   -8.8910  -13.6362   14.0720 C   0  0  0  0  0  0  0  0  0  0  0  0
   -6.8484  -14.6687   14.9509 C   0  0  0  0  0  0  0  0  0  0  0  0
   -5.5282  -14.9991   14.7294 O   0  0  0  0  0  0  0  0  0  0  0  0
   -5.1866  -16.3776   14.4855 C   0  0  0  0  0  0  0  0  0  0  0  0
   -7.4945  -14.9695   16.2146 C   0  0  0  0  0  0  0  0  0  0  0  0
   -8.7920  -14.5658   16.3161 C   0  0  0  0  0  0  0  0  0  0  0  0
   -9.4672  -14.8466   17.6654 C   0  0  0  0  0  0  0  0  0  0  0  0
  -10.9895  -14.5634   17.6706 C   0  0  0  0  0  0  0  0  0  0  0  0
  -11.2826  -13.2323   16.9593 N   0  0  2  0  0  0  0  0  0  0  0  0
  -12.6476  -12.6997   16.9964 C   0  0  0  0  0  0  0  0  0  0  0  0
  -10.9714  -13.5783   15.5635 C   0  0  1  0  0  0  0  0  0  0  0  0
   -9.5543  -13.8755   15.3436 C   0  0  0  0  0  0  0  0  0  0  0  0
  -11.8844  -14.4051   14.7094 C   0  0  0  0  0  0  0  0  0  0  0  0
  -13.3019  -14.3432   15.2085 C   0  0  0  0  0  0  0  0  0  0  0  0
  -15.5931  -15.1517   14.9939 C   0  0  0  0  0  0  0  0  0  0  0  0
  -15.9617  -14.3583   16.1038 C   0  0  0  0  0  0  0  0  0  0  0  0
  -17.2667  -14.3380   16.6264 O   0  0  0  0  0  0  0  0  0  0  0  0
  -17.7538  -15.4576   17.4466 C   0  0  0  0  0  0  0  0  0  0  0  0
  -14.9704  -13.5335   16.7403 C   0  0  0  0  0  0  0  0  0  0  0  0
  -16.3259  -11.7473   17.6506 C   0  0  0  0  0  0  0  0  0  0  0  0
  -13.9874  -15.7467   13.7056 H   0  0  0  0  0  0  0  0  0  0  0  0
   -7.6875  -11.9496   12.5727 H   0  0  0  0  0  0  0  0  0  0  0  0
   -6.5182  -12.4470   11.3030 H   0  0  0  0  0  0  0  0  0  0  0  0
   -8.1840  -13.1192   11.3030 H   0  0  0  0  0  0  0  0  0  0  0  0
   -9.4320  -13.2020   13.2184 H   0  0  0  0  0  0  0  0  0  0  0  0
   -5.0575  -16.8988   15.4456 H   0  0  0  0  0  0  0  0  0  0  0  0
   -5.9926  -16.8592   13.9124 H   0  0  0  0  0  0  0  0  0  0  0  0
   -4.2490  -16.4271   13.9124 H   0  0  0  0  0  0  0  0  0  0  0  0
   -6.9734  -15.4871   17.0335 H   0  0  0  0  0  0  0  0  0  0  0  0
   -9.3101  -15.9054   17.9187 H   0  0  0  0  0  0  0  0  0  0  0  0
   -9.0113  -14.1670   18.4005 H   0  0  0  0  0  0  0  0  0  0  0  0
  -11.5126  -15.3779   17.1481 H   0  0  0  0  0  0  0  0  0  0  0  0
  -11.3399  -14.4999   18.7113 H   0  0  0  0  0  0  0  0  0  0  0  0
  -10.7472  -12.4860   17.4254 H   0  0  0  0  0  0  0  0  0  0  0  0
  -12.6536  -11.7354   16.4672 H   0  0  0  0  0  0  0  0  0  0  0  0
  -12.9179  -12.6122   18.0591 H   0  0  0  0  0  0  0  0  0  0  0  0
  -11.2471  -12.6036   15.1345 H   0  0  0  0  0  0  0  0  0  0  0  0
  -11.8507  -14.0261   13.6773 H   0  0  0  0  0  0  0  0  0  0  0  0
  -11.5465  -15.4511   14.7503 H   0  0  0  0  0  0  0  0  0  0  0  0
  -16.3389  -15.7744   14.4781 H   0  0  0  0  0  0  0  0  0  0  0  0
  -17.6445  -15.2064   18.5120 H   0  0  0  0  0  0  0  0  0  0  0  0
  -18.8142  -15.6435   17.2206 H   0  0  0  0  0  0  0  0  0  0  0  0
  -17.1670  -16.3601   17.2206 H   0  0  0  0  0  0  0  0  0  0  0  0
  -16.6750  -11.4091   18.6374 H   0  0  0  0  0  0  0  0  0  0  0  0
  -15.9187  -10.8913   17.0926 H   0  0  0  0  0  0  0  0  0  0  0  0
  -17.1686  -12.1814   17.0926 H   0  0  0  0  0  0  0  0  0  0  0  0
  1 16  1  0
  1 20  1  0
  1 25  2  0
  2 20  2  0
  2 21  1  0
  3 25  1  0
  3 26  1  0
  4  5  1  0
  5  6  1  0
  6  7  1  0
  6  8  2  0
  7 18  2  0
  8  9  1  0
  8 11  1  0
  9 10  1  0
 11 12  2  0
 12 13  1  0
 12 18  1  0
 13 14  1  0
 15 14  1  0
 15 16  1  0
 15 17  1  0
 17 18  1  0
 17 19  1  0
 19 20  1  0
 21 22  2  0
 22 23  1  0
 22 25  1  0
 23 24  1  0
  2 27  1  0
  4 28  1  0
  4 29  1  0
  4 30  1  0
  7 31  1  0
 10 32  1  0
 10 33  1  0
 10 34  1  0
 11 35  1  0
 13 36  1  0
 13 37  1  0
 14 38  1  0
 14 39  1  0
 15 40  1  1
 16 41  1  0
 16 42  1  0
 17 43  1  6
 19 44  1  0
 19 45  1  0
 21 46  1  0
 24 47  1  0
 24 48  1  0
 24 49  1  0
 26 50  1  0
 26 51  1  0
 26 52  1  0
M  CHG  1  15   1
M  END
>  <filename_input>  (17) 
7N4W_P4V_docked.sdf

>  <pdb_id>  (17) 
7N4W_P4V

>  <pose_rank>  (17) 
16

>  <num_atoms_heavy>  (17) 
26

>  <num_torsions>  (17) 
4

>  <pose>  (17) 
[-13.693468755602604, -13.59276029652682, 16.36150041465406, 0.5347978099654024, -0.2026103608047796, -1.7082943559715342, 4.09908505371698, 0.05390833296313986, 1.7371355554919194, -4.627371760384451]

>  <energy>  (17) 
-333.6680276606831

>  <inter_energy>  (17) 
-348.2835685403917

>  <intra_energy>  (17) 
13.216734717678323

>  <rmsd>  (17) 
7.87139

>  <sdf_rank>  (17) 
0

$$$$

     RDKit          3D

 52 55  0  0  0  0  0  0  0  0999 V2000
   -8.3192  -12.7544   14.1572 C   0  0  0  0  0  0  0  0  0  0  0  0
   -6.3662  -13.8172   13.1683 C   0  0  0  0  0  0  0  0  0  0  0  0
   -9.2399  -13.5102   16.1757 O   0  0  0  0  0  0  0  0  0  0  0  0
   -8.7046  -10.3131    6.9172 C   0  0  0  0  0  0  0  0  0  0  0  0
   -8.2502   -9.0806    7.4149 O   0  0  0  0  0  0  0  0  0  0  0  0
   -8.3010   -8.9258    8.7976 C   0  0  0  0  0  0  0  0  0  0  0  0
   -8.4603  -10.0370    9.5852 C   0  0  0  0  0  0  0  0  0  0  0  0
   -7.9372   -7.6634    9.2646 C   0  0  0  0  0  0  0  0  0  0  0  0
   -7.7556   -6.6257    8.3749 O   0  0  0  0  0  0  0  0  0  0  0  0
   -8.3395   -5.3425    8.6727 C   0  0  0  0  0  0  0  0  0  0  0  0
   -7.8267   -7.4516   10.6956 C   0  0  0  0  0  0  0  0  0  0  0  0
   -8.0566   -8.5514   11.4667 C   0  0  0  0  0  0  0  0  0  0  0  0
   -7.9797   -8.3229   12.9823 C   0  0  0  0  0  0  0  0  0  0  0  0
   -8.0409   -9.6285   13.8125 C   0  0  0  0  0  0  0  0  0  0  0  0
   -9.1340  -10.5570   13.2587 N   0  0  2  0  0  0  0  0  0  0  0  0
   -9.4653  -11.7762   14.0018 C   0  0  0  0  0  0  0  0  0  0  0  0
   -8.5441  -10.9592   11.9723 C   0  0  1  0  0  0  0  0  0  0  0  0
   -8.4085   -9.8496   11.0262 C   0  0  0  0  0  0  0  0  0  0  0  0
   -7.4337  -11.9605   11.8664 C   0  0  0  0  0  0  0  0  0  0  0  0
   -7.4016  -12.8675   13.0658 C   0  0  0  0  0  0  0  0  0  0  0  0
   -6.2526  -14.6593   14.2570 C   0  0  0  0  0  0  0  0  0  0  0  0
   -7.2058  -14.5603   15.2958 C   0  0  0  0  0  0  0  0  0  0  0  0
   -7.1543  -15.3533   16.4556 O   0  0  0  0  0  0  0  0  0  0  0  0
   -7.1320  -16.8201   16.3498 C   0  0  0  0  0  0  0  0  0  0  0  0
   -8.2785  -13.6097   15.1791 C   0  0  0  0  0  0  0  0  0  0  0  0
  -10.3638  -14.3760   16.1388 C   0  0  0  0  0  0  0  0  0  0  0  0
   -5.6266  -13.8902   12.3574 H   0  0  0  0  0  0  0  0  0  0  0  0
   -8.9502  -10.9796    7.7571 H   0  0  0  0  0  0  0  0  0  0  0  0
   -9.6023  -10.1518    6.3024 H   0  0  0  0  0  0  0  0  0  0  0  0
   -7.9169  -10.7731    6.3024 H   0  0  0  0  0  0  0  0  0  0  0  0
   -8.6211  -11.0317    9.1439 H   0  0  0  0  0  0  0  0  0  0  0  0
   -8.3993   -5.2111    9.7632 H   0  0  0  0  0  0  0  0  0  0  0  0
   -7.7150   -4.5464    8.2412 H   0  0  0  0  0  0  0  0  0  0  0  0
   -9.3500   -5.2904    8.2412 H   0  0  0  0  0  0  0  0  0  0  0  0
   -7.5750   -6.4719   11.1279 H   0  0  0  0  0  0  0  0  0  0  0  0
   -7.0326   -7.8114   13.2088 H   0  0  0  0  0  0  0  0  0  0  0  0
   -8.8581   -7.7227   13.2618 H   0  0  0  0  0  0  0  0  0  0  0  0
   -7.0683  -10.1394   13.7589 H   0  0  0  0  0  0  0  0  0  0  0  0
   -8.2763   -9.3793   14.8577 H   0  0  0  0  0  0  0  0  0  0  0  0
  -10.0305  -10.0498   13.2660 H   0  0  0  0  0  0  0  0  0  0  0  0
  -10.2831  -12.2879   13.4733 H   0  0  0  0  0  0  0  0  0  0  0  0
   -9.7398  -11.4557   15.0176 H   0  0  0  0  0  0  0  0  0  0  0  0
   -9.3555  -11.6405   11.6764 H   0  0  0  0  0  0  0  0  0  0  0  0
   -7.5835  -12.5678   10.9615 H   0  0  0  0  0  0  0  0  0  0  0  0
   -6.4788  -11.4169   11.8157 H   0  0  0  0  0  0  0  0  0  0  0  0
   -5.4355  -15.3934   14.3146 H   0  0  0  0  0  0  0  0  0  0  0  0
   -7.1253  -17.2604   17.3578 H   0  0  0  0  0  0  0  0  0  0  0  0
   -8.0251  -17.1621   15.8062 H   0  0  0  0  0  0  0  0  0  0  0  0
   -6.2290  -17.1349   15.8062 H   0  0  0  0  0  0  0  0  0  0  0  0
  -10.6755  -14.6161   17.1660 H   0  0  0  0  0  0  0  0  0  0  0  0
  -11.1916  -13.8799   15.6109 H   0  0  0  0  0  0  0  0  0  0  0  0
  -10.0954  -15.3029   15.6109 H   0  0  0  0  0  0  0  0  0  0  0  0
  1 16  1  0
  1 20  1  0
  1 25  2  0
  2 20  2  0
  2 21  1  0
  3 25  1  0
  3 26  1  0
  4  5  1  0
  5  6  1  0
  6  7  1  0
  6  8  2  0
  7 18  2  0
  8  9  1  0
  8 11  1  0
  9 10  1  0
 11 12  2  0
 12 13  1  0
 12 18  1  0
 13 14  1  0
 15 14  1  0
 15 16  1  0
 15 17  1  0
 17 18  1  0
 17 19  1  0
 19 20  1  0
 21 22  2  0
 22 23  1  0
 22 25  1  0
 23 24  1  0
  2 27  1  0
  4 28  1  0
  4 29  1  0
  4 30  1  0
  7 31  1  0
 10 32  1  0
 10 33  1  0
 10 34  1  0
 11 35  1  0
 13 36  1  0
 13 37  1  0
 14 38  1  0
 14 39  1  0
 15 40  1  6
 16 41  1  0
 16 42  1  0
 17 43  1  6
 19 44  1  0
 19 45  1  0
 21 46  1  0
 24 47  1  0
 24 48  1  0
 24 49  1  0
 26 50  1  0
 26 51  1  0
 26 52  1  0
M  CHG  1  15   1
M  END
>  <filename_input>  (18) 
7N4W_P4V_docked.sdf

>  <pdb_id>  (18) 
7N4W_P4V

>  <pose_rank>  (18) 
17

>  <num_atoms_heavy>  (18) 
26

>  <num_torsions>  (18) 
4

>  <pose>  (18) 
[-8.319216000864568, -12.754379685100785, 14.157187702027427, 12.11458441804395, -2.7432703490659436, -0.5586669896296921, 3.625024865140653, -0.26173251018395494, -0.3120351255527401, -0.6471527706265391]

>  <energy>  (18) 
-709.3875622707479

>  <inter_energy>  (18) 
-706.3225757404166

>  <intra_energy>  (18) 
4.597258991942357

>  <rmsd>  (18) 
0.762162

>  <sdf_rank>  (18) 
0

$$$$

     RDKit          3D

 52 55  0  0  0  0  0  0  0  0999 V2000
  -14.1077  -13.3060    9.8345 C   0  0  0  0  0  0  0  0  0  0  0  0
  -13.0413  -15.1159    8.6062 C   0  0  0  0  0  0  0  0  0  0  0  0
  -16.3542  -13.4236   10.4924 O   0  0  0  0  0  0  0  0  0  0  0  0
   -8.0244   -9.5143    6.9275 C   0  0  0  0  0  0  0  0  0  0  0  0
   -7.4548   -9.8545    8.1657 O   0  0  0  0  0  0  0  0  0  0  0  0
   -8.3515  -10.1716    9.1823 C   0  0  0  0  0  0  0  0  0  0  0  0
   -9.5670  -10.7134    8.8512 C   0  0  0  0  0  0  0  0  0  0  0  0
   -7.8218  -10.1305   10.4715 C   0  0  0  0  0  0  0  0  0  0  0  0
   -6.5643   -9.6060   10.6832 O   0  0  0  0  0  0  0  0  0  0  0  0
   -6.4187   -8.1790   10.8194 C   0  0  0  0  0  0  0  0  0  0  0  0
   -8.6429  -10.5797   11.5801 C   0  0  0  0  0  0  0  0  0  0  0  0
   -9.8752  -11.0507   11.2389 C   0  0  0  0  0  0  0  0  0  0  0  0
  -10.7622  -11.4899   12.4118 C   0  0  0  0  0  0  0  0  0  0  0  0
  -12.0631  -12.2064   11.9741 C   0  0  0  0  0  0  0  0  0  0  0  0
  -12.7098  -11.4573   10.7975 N   0  0  2  0  0  0  0  0  0  0  0  0
  -14.0360  -11.8791   10.3377 C   0  0  0  0  0  0  0  0  0  0  0  0
  -11.7491  -11.7344    9.7182 C   0  0  1  0  0  0  0  0  0  0  0  0
  -10.4365  -11.1243    9.9417 C   0  0  0  0  0  0  0  0  0  0  0  0
  -11.6701  -13.0597    9.0225 C   0  0  0  0  0  0  0  0  0  0  0  0
  -12.9675  -13.8124    9.1349 C   0  0  0  0  0  0  0  0  0  0  0  0
  -14.1878  -15.8797    8.7034 C   0  0  0  0  0  0  0  0  0  0  0  0
  -15.3166  -15.3321    9.3540 C   0  0  0  0  0  0  0  0  0  0  0  0
  -16.5163  -16.0444    9.5277 O   0  0  0  0  0  0  0  0  0  0  0  0
  -17.1827  -16.6660    8.3732 C   0  0  0  0  0  0  0  0  0  0  0  0
  -15.2508  -13.9914    9.8700 C   0  0  0  0  0  0  0  0  0  0  0  0
  -17.3654  -12.8278    9.6947 C   0  0  0  0  0  0  0  0  0  0  0  0
  -12.1600  -15.5378    8.1010 H   0  0  0  0  0  0  0  0  0  0  0  0
   -8.9579   -8.9569    7.0942 H   0  0  0  0  0  0  0  0  0  0  0  0
   -7.3202   -8.8888    6.3594 H   0  0  0  0  0  0  0  0  0  0  0  0
   -8.2412  -10.4310    6.3594 H   0  0  0  0  0  0  0  0  0  0  0  0
   -9.8723  -10.8324    7.8011 H   0  0  0  0  0  0  0  0  0  0  0  0
   -6.3916   -7.9134   11.8865 H   0  0  0  0  0  0  0  0  0  0  0  0
   -5.4832   -7.8582   10.3379 H   0  0  0  0  0  0  0  0  0  0  0  0
   -7.2702   -7.6759   10.3379 H   0  0  0  0  0  0  0  0  0  0  0  0
   -8.2951  -10.5426   12.6230 H   0  0  0  0  0  0  0  0  0  0  0  0
  -10.1836  -12.1775   13.0462 H   0  0  0  0  0  0  0  0  0  0  0  0
  -11.0624  -10.5771   12.9472 H   0  0  0  0  0  0  0  0  0  0  0  0
  -11.8253  -13.2346   11.6639 H   0  0  0  0  0  0  0  0  0  0  0  0
  -12.7664  -12.2233   12.8198 H   0  0  0  0  0  0  0  0  0  0  0  0
  -12.8805  -10.4824   11.0829 H   0  0  0  0  0  0  0  0  0  0  0  0
  -14.3432  -11.2114    9.5193 H   0  0  0  0  0  0  0  0  0  0  0  0
  -14.6999  -11.8249   11.2131 H   0  0  0  0  0  0  0  0  0  0  0  0
  -12.3043  -11.2103    8.9264 H   0  0  0  0  0  0  0  0  0  0  0  0
  -11.4428  -12.8936    7.9592 H   0  0  0  0  0  0  0  0  0  0  0  0
  -10.8791  -13.6567    9.5001 H   0  0  0  0  0  0  0  0  0  0  0  0
  -14.2218  -16.8953    8.2824 H   0  0  0  0  0  0  0  0  0  0  0  0
  -17.9440  -17.3763    8.7280 H   0  0  0  0  0  0  0  0  0  0  0  0
  -17.6638  -15.8866    7.7641 H   0  0  0  0  0  0  0  0  0  0  0  0
  -16.4385  -17.2001    7.7641 H   0  0  0  0  0  0  0  0  0  0  0  0
  -18.1290  -12.3780   10.3462 H   0  0  0  0  0  0  0  0  0  0  0  0
  -16.9196  -12.0481    9.0597 H   0  0  0  0  0  0  0  0  0  0  0  0
  -17.8315  -13.5957    9.0597 H   0  0  0  0  0  0  0  0  0  0  0  0
  1 16  1  0
  1 20  1  0
  1 25  2  0
  2 20  2  0
  2 21  1  0
  3 25  1  0
  3 26  1  0
  4  5  1  0
  5  6  1  0
  6  7  1  0
  6  8  2  0
  7 18  2  0
  8  9  1  0
  8 11  1  0
  9 10  1  0
 11 12  2  0
 12 13  1  0
 12 18  1  0
 13 14  1  0
 15 14  1  0
 15 16  1  0
 15 17  1  0
 17 18  1  0
 17 19  1  0
 19 20  1  0
 21 22  2  0
 22 23  1  0
 22 25  1  0
 23 24  1  0
  2 27  1  0
  4 28  1  0
  4 29  1  0
  4 30  1  0
  7 31  1  0
 10 32  1  0
 10 33  1  0
 10 34  1  0
 11 35  1  0
 13 36  1  0
 13 37  1  0
 14 38  1  0
 14 39  1  0
 15 40  1  1
 16 41  1  0
 16 42  1  0
 17 43  1  6
 19 44  1  0
 19 45  1  0
 21 46  1  0
 24 47  1  0
 24 48  1  0
 24 49  1  0
 26 50  1  0
 26 51  1  0
 26 52  1  0
M  CHG  1  15   1
M  END
>  <filename_input>  (19) 
7N4W_P4V_docked.sdf

>  <pdb_id>  (19) 
7N4W_P4V

>  <pose_rank>  (19) 
18

>  <num_atoms_heavy>  (19) 
26

>  <num_torsions>  (19) 
4

>  <pose>  (19) 
[-14.107720005602612, -13.306017996747892, 9.834470986764687, 0.6042195692300153, -0.45026158089263024, -0.9529018752549578, -2.6146823130634407, -0.031957936197723455, -1.197069318294658, -0.5959383075939123]

>  <energy>  (19) 
-257.26479438688756

>  <inter_energy>  (19) 
-258.0351955496792

>  <intra_energy>  (19) 
7.115548521435208

>  <rmsd>  (19) 
6.68845

>  <sdf_rank>  (19) 
0

$$$$

     RDKit          3D

 52 55  0  0  0  0  0  0  0  0999 V2000
  -14.6837  -13.6671    9.1340 C   0  0  0  0  0  0  0  0  0  0  0  0
  -13.2033  -15.1856    7.9406 C   0  0  0  0  0  0  0  0  0  0  0  0
  -17.0153  -13.8436    8.9724 O   0  0  0  0  0  0  0  0  0  0  0  0
   -8.1450   -9.5023    9.3715 C   0  0  0  0  0  0  0  0  0  0  0  0
   -7.9922  -10.1922   10.5856 O   0  0  0  0  0  0  0  0  0  0  0  0
   -9.1597  -10.6994   11.1493 C   0  0  0  0  0  0  0  0  0  0  0  0
  -10.1770  -11.1010   10.3221 C   0  0  0  0  0  0  0  0  0  0  0  0
   -9.0845  -10.9783   12.5134 C   0  0  0  0  0  0  0  0  0  0  0  0
   -7.9877  -10.5675   13.2410 O   0  0  0  0  0  0  0  0  0  0  0  0
   -8.0686   -9.3387   13.9893 C   0  0  0  0  0  0  0  0  0  0  0  0
  -10.2057  -11.6381   13.1557 C   0  0  0  0  0  0  0  0  0  0  0  0
  -11.2383  -11.9679   12.3300 C   0  0  0  0  0  0  0  0  0  0  0  0
  -12.4431  -12.6303   13.0119 C   0  0  0  0  0  0  0  0  0  0  0  0
  -13.4993  -13.1739   12.0186 C   0  0  0  0  0  0  0  0  0  0  0  0
  -13.7528  -12.1481   10.9019 N   0  0  2  0  0  0  0  0  0  0  0  0
  -14.8371  -12.3990    9.9481 C   0  0  0  0  0  0  0  0  0  0  0  0
  -12.4810  -12.2066   10.1644 C   0  0  1  0  0  0  0  0  0  0  0  0
  -11.3395  -11.7176   10.9406 C   0  0  0  0  0  0  0  0  0  0  0  0
  -12.1263  -13.3376    9.2469 C   0  0  0  0  0  0  0  0  0  0  0  0
  -13.3581  -14.0434    8.7503 C   0  0  0  0  0  0  0  0  0  0  0  0
  -14.2874  -15.9047    7.4771 C   0  0  0  0  0  0  0  0  0  0  0  0
  -15.5877  -15.4775    7.8291 C   0  0  0  0  0  0  0  0  0  0  0  0
  -16.7491  -16.1621    7.4301 O   0  0  0  0  0  0  0  0  0  0  0  0
  -16.9863  -16.4522    6.0078 C   0  0  0  0  0  0  0  0  0  0  0  0
  -15.7474  -14.2960    8.6332 C   0  0  0  0  0  0  0  0  0  0  0  0
  -17.7316  -13.0405    8.0472 C   0  0  0  0  0  0  0  0  0  0  0  0
  -12.1891  -15.5143    7.6696 H   0  0  0  0  0  0  0  0  0  0  0  0
   -8.3788   -8.4471    9.5763 H   0  0  0  0  0  0  0  0  0  0  0  0
   -7.2111   -9.5655    8.7938 H   0  0  0  0  0  0  0  0  0  0  0  0
   -8.9648   -9.9541    8.7938 H   0  0  0  0  0  0  0  0  0  0  0  0
  -10.1159  -10.9620    9.2326 H   0  0  0  0  0  0  0  0  0  0  0  0
   -8.0538   -9.5634   15.0660 H   0  0  0  0  0  0  0  0  0  0  0  0
   -7.2107   -8.6983   13.7366 H   0  0  0  0  0  0  0  0  0  0  0  0
   -9.0031   -8.8164   13.7366 H   0  0  0  0  0  0  0  0  0  0  0  0
  -10.2211  -11.8567   14.2336 H   0  0  0  0  0  0  0  0  0  0  0  0
  -12.0783  -13.4684   13.6239 H   0  0  0  0  0  0  0  0  0  0  0  0
  -12.9379  -11.8546   13.6146 H   0  0  0  0  0  0  0  0  0  0  0  0
  -13.1328  -14.1113   11.5750 H   0  0  0  0  0  0  0  0  0  0  0  0
  -14.4399  -13.3575   12.5586 H   0  0  0  0  0  0  0  0  0  0  0  0
  -14.0458  -11.2594   11.3325 H   0  0  0  0  0  0  0  0  0  0  0  0
  -14.8845  -11.5486    9.2519 H   0  0  0  0  0  0  0  0  0  0  0  0
  -15.7530  -12.5219   10.5447 H   0  0  0  0  0  0  0  0  0  0  0  0
  -12.7658  -11.4921    9.3781 H   0  0  0  0  0  0  0  0  0  0  0  0
  -11.5693  -12.9396    8.3858 H   0  0  0  0  0  0  0  0  0  0  0  0
  -11.5131  -14.0598    9.8059 H   0  0  0  0  0  0  0  0  0  0  0  0
  -14.1415  -16.7935    6.8456 H   0  0  0  0  0  0  0  0  0  0  0  0
  -17.6803  -17.3009    5.9175 H   0  0  0  0  0  0  0  0  0  0  0  0
  -17.4233  -15.5678    5.5211 H   0  0  0  0  0  0  0  0  0  0  0  0
  -16.0327  -16.7049    5.5211 H   0  0  0  0  0  0  0  0  0  0  0  0
  -18.3666  -12.3284    8.5946 H   0  0  0  0  0  0  0  0  0  0  0  0
  -17.0213  -12.4875    7.4150 H   0  0  0  0  0  0  0  0  0  0  0  0
  -18.3619  -13.6831    7.4150 H   0  0  0  0  0  0  0  0  0  0  0  0
  1 16  1  0
  1 20  1  0
  1 25  2  0
  2 20  2  0
  2 21  1  0
  3 25  1  0
  3 26  1  0
  4  5  1  0
  5  6  1  0
  6  7  1  0
  6  8  2  0
  7 18  2  0
  8  9  1  0
  8 11  1  0
  9 10  1  0
 11 12  2  0
 12 13  1  0
 12 18  1  0
 13 14  1  0
 15 14  1  0
 15 16  1  0
 15 17  1  0
 17 18  1  0
 17 19  1  0
 19 20  1  0
 21 22  2  0
 22 23  1  0
 22 25  1  0
 23 24  1  0
  2 27  1  0
  4 28  1  0
  4 29  1  0
  4 30  1  0
  7 31  1  0
 10 32  1  0
 10 33  1  0
 10 34  1  0
 11 35  1  0
 13 36  1  0
 13 37  1  0
 14 38  1  0
 14 39  1  0
 15 40  1  1
 16 41  1  0
 16 42  1  0
 17 43  1  6
 19 44  1  0
 19 45  1  0
 21 46  1  0
 24 47  1  0
 24 48  1  0
 24 49  1  0
 26 50  1  0
 26 51  1  0
 26 52  1  0
M  CHG  1  15   1
M  END
>  <filename_input>  (20) 
7N4W_P4V_docked.sdf

>  <pdb_id>  (20) 
7N4W_P4V

>  <pose_rank>  (20) 
19

>  <num_atoms_heavy>  (20) 
26

>  <num_torsions>  (20) 
4

>  <pose>  (20) 
[-14.683731461960427, -13.667100638176766, 9.133959120400917, 0.9885519071569782, -0.641675185683982, -0.9138023763106481, -2.614004845903912, 0.014369482531747847, -0.9598629869603189, -0.6149412271119699]

>  <energy>  (20) 
-216.33303663769354

>  <inter_energy>  (20) 
-216.2111332747478

>  <intra_energy>  (20) 
4.748296294382766

>  <rmsd>  (20) 
7.77867

>  <sdf_rank>  (20) 
0

$$$$

     RDKit          3D

 52 55  0  0  0  0  0  0  0  0999 V2000
  -14.7131  -13.9763    8.9563 C   0  0  0  0  0  0  0  0  0  0  0  0
  -14.2695  -15.9133   10.3608 C   0  0  0  0  0  0  0  0  0  0  0  0
  -16.5387  -13.9152    7.4877 O   0  0  0  0  0  0  0  0  0  0  0  0
   -6.8820  -11.1203   11.0793 C   0  0  0  0  0  0  0  0  0  0  0  0
   -7.8599  -11.8955   11.7244 O   0  0  0  0  0  0  0  0  0  0  0  0
   -9.1795  -11.4974   11.5289 C   0  0  0  0  0  0  0  0  0  0  0  0
  -10.0054  -12.2849   10.7685 C   0  0  0  0  0  0  0  0  0  0  0  0
   -9.6050  -10.4442   12.3376 C   0  0  0  0  0  0  0  0  0  0  0  0
   -8.6910   -9.7492   13.1011 O   0  0  0  0  0  0  0  0  0  0  0  0
   -7.8550   -8.7647   12.4622 C   0  0  0  0  0  0  0  0  0  0  0  0
  -11.0021  -10.0546   12.3019 C   0  0  0  0  0  0  0  0  0  0  0  0
  -11.7955  -10.8053   11.4870 C   0  0  0  0  0  0  0  0  0  0  0  0
  -13.2660  -10.3721   11.4157 C   0  0  0  0  0  0  0  0  0  0  0  0
  -14.1714  -11.3666   10.6484 C   0  0  0  0  0  0  0  0  0  0  0  0
  -13.4736  -11.8314    9.3597 N   0  0  2  0  0  0  0  0  0  0  0  0
  -14.2279  -12.6507    8.4068 C   0  0  0  0  0  0  0  0  0  0  0  0
  -12.3865  -12.6595    9.9047 C   0  0  1  0  0  0  0  0  0  0  0  0
  -11.4015  -11.8908   10.6687 C   0  0  0  0  0  0  0  0  0  0  0  0
  -12.6119  -14.0358   10.4540 C   0  0  0  0  0  0  0  0  0  0  0  0
  -13.8624  -14.6505    9.8878 C   0  0  0  0  0  0  0  0  0  0  0  0
  -15.4247  -16.5234    9.9129 C   0  0  0  0  0  0  0  0  0  0  0  0
  -16.2177  -15.8561    8.9522 C   0  0  0  0  0  0  0  0  0  0  0  0
  -17.4242  -16.3841    8.4601 O   0  0  0  0  0  0  0  0  0  0  0  0
  -17.6563  -17.8365    8.4708 C   0  0  0  0  0  0  0  0  0  0  0  0
  -15.7886  -14.5792    8.4488 C   0  0  0  0  0  0  0  0  0  0  0  0
  -16.4211  -14.3071    6.1288 C   0  0  0  0  0  0  0  0  0  0  0  0
  -13.6491  -16.4286   11.1089 H   0  0  0  0  0  0  0  0  0  0  0  0
   -6.2535  -10.6221   11.8322 H   0  0  0  0  0  0  0  0  0  0  0  0
   -6.2554  -11.7698   10.4503 H   0  0  0  0  0  0  0  0  0  0  0  0
   -7.3713  -10.3621   10.4503 H   0  0  0  0  0  0  0  0  0  0  0  0
   -9.6264  -13.1802   10.2540 H   0  0  0  0  0  0  0  0  0  0  0  0
   -7.3446   -8.1637   13.2292 H   0  0  0  0  0  0  0  0  0  0  0  0
   -7.1065   -9.2708   11.8348 H   0  0  0  0  0  0  0  0  0  0  0  0
   -8.4757   -8.1081   11.8348 H   0  0  0  0  0  0  0  0  0  0  0  0
  -11.3935   -9.2124   12.8913 H   0  0  0  0  0  0  0  0  0  0  0  0
  -13.6494  -10.2743   12.4421 H   0  0  0  0  0  0  0  0  0  0  0  0
  -13.2945   -9.4205   10.8646 H   0  0  0  0  0  0  0  0  0  0  0  0
  -14.3756  -12.2391   11.2864 H   0  0  0  0  0  0  0  0  0  0  0  0
  -15.1147  -10.8653   10.3860 H   0  0  0  0  0  0  0  0  0  0  0  0
  -13.2414  -11.0022    8.7946 H   0  0  0  0  0  0  0  0  0  0  0  0
  -13.5792  -12.8551    7.5422 H   0  0  0  0  0  0  0  0  0  0  0  0
  -15.1280  -12.0745    8.1463 H   0  0  0  0  0  0  0  0  0  0  0  0
  -11.9798  -12.9774    8.9333 H   0  0  0  0  0  0  0  0  0  0  0  0
  -11.7515  -14.6705   10.1954 H   0  0  0  0  0  0  0  0  0  0  0  0
  -12.7247  -13.9605   11.5456 H   0  0  0  0  0  0  0  0  0  0  0  0
  -15.7220  -17.5104   10.2969 H   0  0  0  0  0  0  0  0  0  0  0  0
  -17.7130  -18.1911    9.5106 H   0  0  0  0  0  0  0  0  0  0  0  0
  -18.6016  -18.0606    7.9550 H   0  0  0  0  0  0  0  0  0  0  0  0
  -16.8279  -18.3440    7.9550 H   0  0  0  0  0  0  0  0  0  0  0  0
  -16.1053  -15.3595    6.0767 H   0  0  0  0  0  0  0  0  0  0  0  0
  -17.3937  -14.1910    5.6282 H   0  0  0  0  0  0  0  0  0  0  0  0
  -15.6732  -13.6747    5.6282 H   0  0  0  0  0  0  0  0  0  0  0  0
  1 16  1  0
  1 20  1  0
  1 25  2  0
  2 20  2  0
  2 21  1  0
  3 25  1  0
  3 26  1  0
  4  5  1  0
  5  6  1  0
  6  7  1  0
  6  8  2  0
  7 18  2  0
  8  9  1  0
  8 11  1  0
  9 10  1  0
 11 12  2  0
 12 13  1  0
 12 18  1  0
 13 14  1  0
 15 14  1  0
 15 16  1  0
 15 17  1  0
 17 18  1  0
 17 19  1  0
 19 20  1  0
 21 22  2  0
 22 23  1  0
 22 25  1  0
 23 24  1  0
  2 27  1  0
  4 28  1  0
  4 29  1  0
  4 30  1  0
  7 31  1  0
 10 32  1  0
 10 33  1  0
 10 34  1  0
 11 35  1  0
 13 36  1  0
 13 37  1  0
 14 38  1  0
 14 39  1  0
 15 40  1  6
 16 41  1  0
 16 42  1  0
 17 43  1  6
 19 44  1  0
 19 45  1  0
 21 46  1  0
 24 47  1  0
 24 48  1  0
 24 49  1  0
 26 50  1  0
 26 51  1  0
 26 52  1  0
M  CHG  1  15   1
M  END
>  <filename_input>  (21) 
7N4W_P4V_docked.sdf

>  <pdb_id>  (21) 
7N4W_P4V

>  <pose_rank>  (21) 
20

>  <num_atoms_heavy>  (21) 
26

>  <num_torsions>  (21) 
4

>  <pose>  (21) 
[-14.71308594253396, -13.976315533878902, 8.956254455302012, 0.1638770874407187, -1.669001102023596, -0.5716184628866373, -2.557912568954148, 1.384240211217822, -1.294777351376897, -0.11315492645939318]

>  <energy>  (21) 
-190.4600596577638

>  <inter_energy>  (21) 
-226.96086859205715

>  <intra_energy>  (21) 
42.81936317993383

>  <rmsd>  (21) 
7.85699

>  <sdf_rank>  (21) 
0

$$$$

     RDKit          3D

 52 55  0  0  0  0  0  0  0  0999 V2000
  -14.2093  -13.3481    9.7017 C   0  0  0  0  0  0  0  0  0  0  0  0
  -12.9641  -15.2292    8.7891 C   0  0  0  0  0  0  0  0  0  0  0  0
  -16.5430  -13.4047    9.9117 O   0  0  0  0  0  0  0  0  0  0  0  0
   -7.5967   -9.7030    7.8937 C   0  0  0  0  0  0  0  0  0  0  0  0
   -7.2840  -10.0676    9.2138 O   0  0  0  0  0  0  0  0  0  0  0  0
   -8.3685  -10.3234   10.0484 C   0  0  0  0  0  0  0  0  0  0  0  0
   -9.5078  -10.8649    9.5105 C   0  0  0  0  0  0  0  0  0  0  0  0
   -8.0996  -10.2264   11.4131 C   0  0  0  0  0  0  0  0  0  0  0  0
   -6.8962   -9.7084   11.8430 O   0  0  0  0  0  0  0  0  0  0  0  0
   -6.8255   -8.3138   12.1986 C   0  0  0  0  0  0  0  0  0  0  0  0
   -9.1308  -10.6105   12.3586 C   0  0  0  0  0  0  0  0  0  0  0  0
  -10.2831  -11.0817   11.8043 C   0  0  0  0  0  0  0  0  0  0  0  0
  -11.3911  -11.4519   12.7995 C   0  0  0  0  0  0  0  0  0  0  0  0
  -12.5973  -12.1721   12.1484 C   0  0  0  0  0  0  0  0  0  0  0  0
  -12.9854  -11.4728   10.8353 N   0  0  2  0  0  0  0  0  0  0  0  0
  -14.2055  -11.8995   10.1443 C   0  0  0  0  0  0  0  0  0  0  0  0
  -11.8391  -11.8144    9.9787 C   0  0  1  0  0  0  0  0  0  0  0  0
  -10.5821  -11.2111   10.4270 C   0  0  0  0  0  0  0  0  0  0  0  0
  -11.6553  -13.1730    9.3726 C   0  0  0  0  0  0  0  0  0  0  0  0
  -12.9660  -13.9025    9.2626 C   0  0  0  0  0  0  0  0  0  0  0  0
  -14.1242  -15.9725    8.6944 C   0  0  0  0  0  0  0  0  0  0  0  0
  -15.3458  -15.3795    9.0860 C   0  0  0  0  0  0  0  0  0  0  0  0
  -16.5717  -16.0670    9.0534 O   0  0  0  0  0  0  0  0  0  0  0  0
  -17.0007  -16.7592    7.8286 C   0  0  0  0  0  0  0  0  0  0  0  0
  -15.3522  -14.0163    9.5437 C   0  0  0  0  0  0  0  0  0  0  0  0
  -17.3755  -12.8533    8.9034 C   0  0  0  0  0  0  0  0  0  0  0  0
  -12.0107  -15.6865    8.4859 H   0  0  0  0  0  0  0  0  0  0  0  0
   -8.3128   -8.8680    7.9038 H   0  0  0  0  0  0  0  0  0  0  0  0
   -6.6794   -9.3930    7.3718 H   0  0  0  0  0  0  0  0  0  0  0  0
   -8.0429  -10.5624    7.3718 H   0  0  0  0  0  0  0  0  0  0  0  0
   -9.6051  -11.0309    8.4274 H   0  0  0  0  0  0  0  0  0  0  0  0
   -6.8204   -8.2146   13.2941 H   0  0  0  0  0  0  0  0  0  0  0  0
   -5.9040   -7.8767   11.7866 H   0  0  0  0  0  0  0  0  0  0  0  0
   -7.6979   -7.7856   11.7866 H   0  0  0  0  0  0  0  0  0  0  0  0
   -8.9923  -10.5271   13.4467 H   0  0  0  0  0  0  0  0  0  0  0  0
  -10.9627  -12.1151   13.5653 H   0  0  0  0  0  0  0  0  0  0  0  0
  -11.7698  -10.5103   13.2239 H   0  0  0  0  0  0  0  0  0  0  0  0
  -12.3264  -13.2171   11.9376 H   0  0  0  0  0  0  0  0  0  0  0  0
  -13.4522  -12.1388   12.8399 H   0  0  0  0  0  0  0  0  0  0  0  0
  -13.1869  -10.4832   11.0374 H   0  0  0  0  0  0  0  0  0  0  0  0
  -14.3324  -11.2685    9.2522 H   0  0  0  0  0  0  0  0  0  0  0  0
  -15.0260  -11.7942   10.8694 H   0  0  0  0  0  0  0  0  0  0  0  0
  -12.2176  -11.3224    9.0706 H   0  0  0  0  0  0  0  0  0  0  0  0
  -11.2214  -13.0617    8.3679 H   0  0  0  0  0  0  0  0  0  0  0  0
  -10.9860  -13.7561   10.0222 H   0  0  0  0  0  0  0  0  0  0  0  0
  -14.0978  -17.0069    8.3212 H   0  0  0  0  0  0  0  0  0  0  0  0
  -17.5625  -17.6659    8.0975 H   0  0  0  0  0  0  0  0  0  0  0  0
  -17.6436  -16.0917    7.2362 H   0  0  0  0  0  0  0  0  0  0  0  0
  -16.1167  -17.0378    7.2362 H   0  0  0  0  0  0  0  0  0  0  0  0
  -18.2049  -12.3039    9.3726 H   0  0  0  0  0  0  0  0  0  0  0  0
  -16.7875  -12.1655    8.2780 H   0  0  0  0  0  0  0  0  0  0  0  0
  -17.7794  -13.6631    8.2780 H   0  0  0  0  0  0  0  0  0  0  0  0
  1 16  1  0
  1 20  1  0
  1 25  2  0
  2 20  2  0
  2 21  1  0
  3 25  1  0
  3 26  1  0
  4  5  1  0
  5  6  1  0
  6  7  1  0
  6  8  2  0
  7 18  2  0
  8  9  1  0
  8 11  1  0
  9 10  1  0
 11 12  2  0
 12 13  1  0
 12 18  1  0
 13 14  1  0
 15 14  1  0
 15 16  1  0
 15 17  1  0
 17 18  1  0
 17 19  1  0
 19 20  1  0
 21 22  2  0
 22 23  1  0
 22 25  1  0
 23 24  1  0
  2 27  1  0
  4 28  1  0
  4 29  1  0
  4 30  1  0
  7 31  1  0
 10 32  1  0
 10 33  1  0
 10 34  1  0
 11 35  1  0
 13 36  1  0
 13 37  1  0
 14 38  1  0
 14 39  1  0
 15 40  1  1
 16 41  1  0
 16 42  1  0
 17 43  1  6
 19 44  1  0
 19 45  1  0
 21 46  1  0
 24 47  1  0
 24 48  1  0
 24 49  1  0
 26 50  1  0
 26 51  1  0
 26 52  1  0
M  CHG  1  15   1
M  END
>  <filename_input>  (22) 
7N4W_P4V_docked.sdf

>  <pdb_id>  (22) 
7N4W_P4V

>  <pose_rank>  (22) 
21

>  <num_atoms_heavy>  (22) 
26

>  <num_torsions>  (22) 
4

>  <pose>  (22) 
[-14.209263064621693, -13.348142340680115, 9.701749096156616, 0.6548181634757513, -0.6526497864022285, -0.9006795465164514, -2.5983173765291525, 0.03166778824611796, -0.9812242006508625, -0.5735689121336418]

>  <energy>  (22) 
-256.7588044929144

>  <inter_energy>  (22) 
-252.72061298518753

>  <intra_energy>  (22) 
4.868443490173258

>  <rmsd>  (22) 
6.89431

>  <sdf_rank>  (22) 
0

$$$$

     RDKit          3D

 52 55  0  0  0  0  0  0  0  0999 V2000
  -14.1237  -13.8293    9.6598 C   0  0  0  0  0  0  0  0  0  0  0  0
  -13.5400  -15.6072   11.2154 C   0  0  0  0  0  0  0  0  0  0  0  0
  -15.9558  -14.0169    8.2101 O   0  0  0  0  0  0  0  0  0  0  0  0
   -6.7711  -11.7639   11.1484 C   0  0  0  0  0  0  0  0  0  0  0  0
   -7.4193  -11.0572   12.1749 O   0  0  0  0  0  0  0  0  0  0  0  0
   -8.7644  -10.7688   11.9608 C   0  0  0  0  0  0  0  0  0  0  0  0
   -9.5369  -11.6720   11.2768 C   0  0  0  0  0  0  0  0  0  0  0  0
   -9.2584   -9.6836   12.6837 C   0  0  0  0  0  0  0  0  0  0  0  0
   -8.3915   -8.8661   13.3775 O   0  0  0  0  0  0  0  0  0  0  0  0
   -8.4564   -8.8440   14.8168 C   0  0  0  0  0  0  0  0  0  0  0  0
  -10.6794   -9.3957   12.6303 C   0  0  0  0  0  0  0  0  0  0  0  0
  -11.4223  -10.2646   11.8887 C   0  0  0  0  0  0  0  0  0  0  0  0
  -12.9197   -9.9413   11.7970 C   0  0  0  0  0  0  0  0  0  0  0  0
  -13.7572  -11.0564   11.1241 C   0  0  0  0  0  0  0  0  0  0  0  0
  -13.0347  -11.5779    9.8712 N   0  0  2  0  0  0  0  0  0  0  0  0
  -13.7344  -12.5239    8.9973 C   0  0  0  0  0  0  0  0  0  0  0  0
  -11.8900  -12.2806   10.4717 C   0  0  1  0  0  0  0  0  0  0  0  0
  -10.9574  -11.3848   11.1591 C   0  0  0  0  0  0  0  0  0  0  0  0
  -12.0166  -13.6186   11.1355 C   0  0  0  0  0  0  0  0  0  0  0  0
  -13.2239  -14.3631   10.6351 C   0  0  0  0  0  0  0  0  0  0  0  0
  -14.6519  -16.3307   10.8316 C   0  0  0  0  0  0  0  0  0  0  0  0
  -15.4938  -15.8021    9.8270 C   0  0  0  0  0  0  0  0  0  0  0  0
  -16.6629  -16.4513    9.3929 O   0  0  0  0  0  0  0  0  0  0  0  0
  -17.7429  -16.7483   10.3462 C   0  0  0  0  0  0  0  0  0  0  0  0
  -15.1569  -14.5451    9.2151 C   0  0  0  0  0  0  0  0  0  0  0  0
  -15.7484  -14.4384    6.8710 C   0  0  0  0  0  0  0  0  0  0  0  0
  -12.8818  -16.0143   11.9971 H   0  0  0  0  0  0  0  0  0  0  0  0
   -6.0897  -12.5069   11.5885 H   0  0  0  0  0  0  0  0  0  0  0  0
   -7.5200  -12.2762   10.5265 H   0  0  0  0  0  0  0  0  0  0  0  0
   -6.1961  -11.0621   10.5265 H   0  0  0  0  0  0  0  0  0  0  0  0
   -9.0989  -12.5789   10.8343 H   0  0  0  0  0  0  0  0  0  0  0  0
   -7.4924   -9.1726   15.2324 H   0  0  0  0  0  0  0  0  0  0  0  0
   -8.6733   -7.8211   15.1584 H   0  0  0  0  0  0  0  0  0  0  0  0
   -9.2530   -9.5213   15.1584 H   0  0  0  0  0  0  0  0  0  0  0  0
  -11.1257   -8.5362   13.1519 H   0  0  0  0  0  0  0  0  0  0  0  0
  -13.3043   -9.7850   12.8156 H   0  0  0  0  0  0  0  0  0  0  0  0
  -13.0168   -9.0433   11.1692 H   0  0  0  0  0  0  0  0  0  0  0  0
  -13.8973  -11.8847   11.8343 H   0  0  0  0  0  0  0  0  0  0  0  0
  -14.7343  -10.6450   10.8308 H   0  0  0  0  0  0  0  0  0  0  0  0
  -12.8633  -10.7847    9.2369 H   0  0  0  0  0  0  0  0  0  0  0  0
  -13.0771  -12.7544    8.1460 H   0  0  0  0  0  0  0  0  0  0  0  0
  -14.6736  -12.0348    8.6993 H   0  0  0  0  0  0  0  0  0  0  0  0
  -11.4667  -12.6497    9.5259 H   0  0  0  0  0  0  0  0  0  0  0  0
  -11.1153  -14.2118   10.9214 H   0  0  0  0  0  0  0  0  0  0  0  0
  -12.1294  -13.4605   12.2182 H   0  0  0  0  0  0  0  0  0  0  0  0
  -14.8781  -17.3004   11.2990 H   0  0  0  0  0  0  0  0  0  0  0  0
  -17.3641  -16.6441   11.3736 H   0  0  0  0  0  0  0  0  0  0  0  0
  -18.5744  -16.0455   10.1889 H   0  0  0  0  0  0  0  0  0  0  0  0
  -18.0981  -17.7775   10.1889 H   0  0  0  0  0  0  0  0  0  0  0  0
  -15.2627  -15.4253    6.8682 H   0  0  0  0  0  0  0  0  0  0  0  0
  -16.7167  -14.5049    6.3533 H   0  0  0  0  0  0  0  0  0  0  0  0
  -15.1051  -13.7116    6.3533 H   0  0  0  0  0  0  0  0  0  0  0  0
  1 16  1  0
  1 20  1  0
  1 25  2  0
  2 20  2  0
  2 21  1  0
  3 25  1  0
  3 26  1  0
  4  5  1  0
  5  6  1  0
  6  7  1  0
  6  8  2  0
  7 18  2  0
  8  9  1  0
  8 11  1  0
  9 10  1  0
 11 12  2  0
 12 13  1  0
 12 18  1  0
 13 14  1  0
 15 14  1  0
 15 16  1  0
 15 17  1  0
 17 18  1  0
 17 19  1  0
 19 20  1  0
 21 22  2  0
 22 23  1  0
 22 25  1  0
 23 24  1  0
  2 27  1  0
  4 28  1  0
  4 29  1  0
  4 30  1  0
  7 31  1  0
 10 32  1  0
 10 33  1  0
 10 34  1  0
 11 35  1  0
 13 36  1  0
 13 37  1  0
 14 38  1  0
 14 39  1  0
 15 40  1  6
 16 41  1  0
 16 42  1  0
 17 43  1  6
 19 44  1  0
 19 45  1  0
 21 46  1  0
 24 47  1  0
 24 48  1  0
 24 49  1  0
 26 50  1  0
 26 51  1  0
 26 52  1  0
M  CHG  1  15   1
M  END
>  <filename_input>  (23) 
7N4W_P4V_docked.sdf

>  <pdb_id>  (23) 
7N4W_P4V

>  <pose_rank>  (23) 
22

>  <num_atoms_heavy>  (23) 
26

>  <num_torsions>  (23) 
4

>  <pose>  (23) 
[-14.123700872644795, -13.829301739685501, 9.659758890490167, -0.4143586568835773, 4.3720414527015405, 1.1760402629115094, -2.64023726418229, 0.06657673077450614, 1.646028875871052, 1.3630336110101415]

>  <energy>  (23) 
-242.70398668687093

>  <inter_energy>  (23) 
-241.7138625832644

>  <intra_energy>  (23) 
4.535764647298913

>  <rmsd>  (23) 
7.21638

>  <sdf_rank>  (23) 
0

$$$$

     RDKit          3D

 52 55  0  0  0  0  0  0  0  0999 V2000
  -14.6034  -13.8646    9.5101 C   0  0  0  0  0  0  0  0  0  0  0  0
  -13.2021  -15.5228    8.4108 C   0  0  0  0  0  0  0  0  0  0  0  0
  -16.9362  -14.0796    9.5815 O   0  0  0  0  0  0  0  0  0  0  0  0
   -8.1501   -9.6781    8.5832 C   0  0  0  0  0  0  0  0  0  0  0  0
   -7.8813  -10.1709    9.8710 O   0  0  0  0  0  0  0  0  0  0  0  0
   -8.9854  -10.6037   10.6003 C   0  0  0  0  0  0  0  0  0  0  0  0
  -10.0623  -11.1241    9.9296 C   0  0  0  0  0  0  0  0  0  0  0  0
   -8.7867  -10.6898   11.9778 C   0  0  0  0  0  0  0  0  0  0  0  0
   -7.6393  -10.1736   12.5419 O   0  0  0  0  0  0  0  0  0  0  0  0
   -7.6142   -8.7838   12.9214 C   0  0  0  0  0  0  0  0  0  0  0  0
   -9.8347  -11.2625   12.8015 C   0  0  0  0  0  0  0  0  0  0  0  0
  -10.9283  -11.7117   12.1239 C   0  0  0  0  0  0  0  0  0  0  0  0
  -12.0561  -12.2821   12.9945 C   0  0  0  0  0  0  0  0  0  0  0  0
  -13.1834  -12.9664   12.1830 C   0  0  0  0  0  0  0  0  0  0  0  0
  -13.5530  -12.1077   10.9625 N   0  0  2  0  0  0  0  0  0  0  0  0
  -14.7107  -12.4969   10.1522 C   0  0  0  0  0  0  0  0  0  0  0  0
  -12.3490  -12.2584   10.1305 C   0  0  1  0  0  0  0  0  0  0  0  0
  -11.1544  -11.6576   10.7277 C   0  0  0  0  0  0  0  0  0  0  0  0
  -12.0528  -13.5031    9.3496 C   0  0  0  0  0  0  0  0  0  0  0  0
  -13.3088  -14.2804    9.0660 C   0  0  0  0  0  0  0  0  0  0  0  0
  -14.3078  -16.3076    8.1486 C   0  0  0  0  0  0  0  0  0  0  0  0
  -15.5810  -15.8456    8.5523 C   0  0  0  0  0  0  0  0  0  0  0  0
  -16.7587  -16.5878    8.3558 O   0  0  0  0  0  0  0  0  0  0  0  0
  -17.1011  -17.0937    7.0178 C   0  0  0  0  0  0  0  0  0  0  0  0
  -15.6938  -14.5650    9.1969 C   0  0  0  0  0  0  0  0  0  0  0  0
  -17.7638  -13.4566    8.6115 C   0  0  0  0  0  0  0  0  0  0  0  0
  -12.2090  -15.8783    8.0989 H   0  0  0  0  0  0  0  0  0  0  0  0
   -8.6754   -8.7149    8.6615 H   0  0  0  0  0  0  0  0  0  0  0  0
   -7.2041   -9.5368    8.0399 H   0  0  0  0  0  0  0  0  0  0  0  0
   -8.7811  -10.3969    8.0399 H   0  0  0  0  0  0  0  0  0  0  0  0
  -10.0987  -11.1374    8.8303 H   0  0  0  0  0  0  0  0  0  0  0  0
   -7.6127   -8.7033   14.0185 H   0  0  0  0  0  0  0  0  0  0  0  0
   -6.7073   -8.3098   12.5178 H   0  0  0  0  0  0  0  0  0  0  0  0
   -8.5033   -8.2773   12.5178 H   0  0  0  0  0  0  0  0  0  0  0  0
   -9.7524  -11.3294   13.8964 H   0  0  0  0  0  0  0  0  0  0  0  0
  -11.6231  -13.0242   13.6814 H   0  0  0  0  0  0  0  0  0  0  0  0
  -12.5121  -11.4339   13.5261 H   0  0  0  0  0  0  0  0  0  0  0  0
  -12.8382  -13.9536   11.8420 H   0  0  0  0  0  0  0  0  0  0  0  0
  -14.0699  -13.0804   12.8243 H   0  0  0  0  0  0  0  0  0  0  0  0
  -13.8251  -11.1701   11.2909 H   0  0  0  0  0  0  0  0  0  0  0  0
  -14.8351  -11.7519    9.3525 H   0  0  0  0  0  0  0  0  0  0  0  0
  -15.5689  -12.5427   10.8388 H   0  0  0  0  0  0  0  0  0  0  0  0
  -12.7149  -11.6622    9.2815 H   0  0  0  0  0  0  0  0  0  0  0  0
  -11.5805  -13.2244    8.3961 H   0  0  0  0  0  0  0  0  0  0  0  0
  -11.3793  -14.1360    9.9462 H   0  0  0  0  0  0  0  0  0  0  0  0
  -14.1996  -17.2744    7.6351 H   0  0  0  0  0  0  0  0  0  0  0  0
  -17.7151  -18.0012    7.1150 H   0  0  0  0  0  0  0  0  0  0  0  0
  -17.6659  -16.3258    6.4689 H   0  0  0  0  0  0  0  0  0  0  0  0
  -16.1782  -17.3325    6.4689 H   0  0  0  0  0  0  0  0  0  0  0  0
  -18.5440  -12.8693    9.1179 H   0  0  0  0  0  0  0  0  0  0  0  0
  -17.1543  -12.7912    7.9824 H   0  0  0  0  0  0  0  0  0  0  0  0
  -18.2346  -14.2263    7.9824 H   0  0  0  0  0  0  0  0  0  0  0  0
  1 16  1  0
  1 20  1  0
  1 25  2  0
  2 20  2  0
  2 21  1  0
  3 25  1  0
  3 26  1  0
  4  5  1  0
  5  6  1  0
  6  7  1  0
  6  8  2  0
  7 18  2  0
  8  9  1  0
  8 11  1  0
  9 10  1  0
 11 12  2  0
 12 13  1  0
 12 18  1  0
 13 14  1  0
 15 14  1  0
 15 16  1  0
 15 17  1  0
 17 18  1  0
 17 19  1  0
 19 20  1  0
 21 22  2  0
 22 23  1  0
 22 25  1  0
 23 24  1  0
  2 27  1  0
  4 28  1  0
  4 29  1  0
  4 30  1  0
  7 31  1  0
 10 32  1  0
 10 33  1  0
 10 34  1  0
 11 35  1  0
 13 36  1  0
 13 37  1  0
 14 38  1  0
 14 39  1  0
 15 40  1  1
 16 41  1  0
 16 42  1  0
 17 43  1  6
 19 44  1  0
 19 45  1  0
 21 46  1  0
 24 47  1  0
 24 48  1  0
 24 49  1  0
 26 50  1  0
 26 51  1  0
 26 52  1  0
M  CHG  1  15   1
M  END
>  <filename_input>  (24) 
7N4W_P4V_docked.sdf

>  <pdb_id>  (24) 
7N4W_P4V

>  <pose_rank>  (24) 
23

>  <num_atoms_heavy>  (24) 
26

>  <num_torsions>  (24) 
4

>  <pose>  (24) 
[-14.60337787024518, -13.864609178138455, 9.510098146496448, 0.8235055282944586, -0.6147691930331889, -0.8836244007413411, -2.578879544493918, -0.003389706958167278, -1.133309730543062, -0.5969959602553223]

>  <energy>  (24) 
-222.5031134528894

>  <inter_energy>  (24) 
-227.60667936768647

>  <intra_energy>  (24) 
6.276864966540819

>  <rmsd>  (24) 
7.39413

>  <sdf_rank>  (24) 
0

$$$$

     RDKit          3D

 52 55  0  0  0  0  0  0  0  0999 V2000
  -14.3373  -13.5126    9.5315 C   0  0  0  0  0  0  0  0  0  0  0  0
  -13.0596  -15.2782    8.4490 C   0  0  0  0  0  0  0  0  0  0  0  0
  -16.6767  -13.5866    9.6539 O   0  0  0  0  0  0  0  0  0  0  0  0
   -7.6718   -9.6355    8.4150 C   0  0  0  0  0  0  0  0  0  0  0  0
   -7.4031  -10.2174    9.6650 O   0  0  0  0  0  0  0  0  0  0  0  0
   -8.5152  -10.5655   10.4267 C   0  0  0  0  0  0  0  0  0  0  0  0
   -9.6348  -11.0375    9.7909 C   0  0  0  0  0  0  0  0  0  0  0  0
   -8.2931  -10.6289   11.8018 C   0  0  0  0  0  0  0  0  0  0  0  0
   -7.1057  -10.1679   12.3298 O   0  0  0  0  0  0  0  0  0  0  0  0
   -6.9939   -8.7749   12.6812 C   0  0  0  0  0  0  0  0  0  0  0  0
   -9.3556  -11.1175   12.6605 C   0  0  0  0  0  0  0  0  0  0  0  0
  -10.4877  -11.5176   12.0162 C   0  0  0  0  0  0  0  0  0  0  0  0
  -11.6287  -11.9980   12.9232 C   0  0  0  0  0  0  0  0  0  0  0  0
  -12.8112  -12.6340   12.1519 C   0  0  0  0  0  0  0  0  0  0  0  0
  -13.1550  -11.7856   10.9168 N   0  0  2  0  0  0  0  0  0  0  0  0
  -14.3503  -12.1253   10.1396 C   0  0  0  0  0  0  0  0  0  0  0  0
  -11.9797  -12.0284   10.0657 C   0  0  1  0  0  0  0  0  0  0  0  0
  -10.7395  -11.4850   10.6238 C   0  0  0  0  0  0  0  0  0  0  0  0
  -11.7737  -13.3076    9.3121 C   0  0  0  0  0  0  0  0  0  0  0  0
  -13.0791  -14.0156    9.0734 C   0  0  0  0  0  0  0  0  0  0  0  0
  -14.2149  -16.0021    8.2289 C   0  0  0  0  0  0  0  0  0  0  0  0
  -15.4498  -15.4552    8.6450 C   0  0  0  0  0  0  0  0  0  0  0  0
  -16.6732  -16.1307    8.4909 O   0  0  0  0  0  0  0  0  0  0  0  0
  -17.0573  -16.6782    7.1809 C   0  0  0  0  0  0  0  0  0  0  0  0
  -15.4734  -14.1545    9.2580 C   0  0  0  0  0  0  0  0  0  0  0  0
  -17.4342  -12.8467    8.7090 C   0  0  0  0  0  0  0  0  0  0  0  0
  -12.0959  -15.6998    8.1272 H   0  0  0  0  0  0  0  0  0  0  0  0
   -8.1289   -8.6458    8.5619 H   0  0  0  0  0  0  0  0  0  0  0  0
   -6.7331   -9.5260    7.8521 H   0  0  0  0  0  0  0  0  0  0  0  0
   -8.3639  -10.2791    7.8521 H   0  0  0  0  0  0  0  0  0  0  0  0
   -9.6948  -11.0760    8.6933 H   0  0  0  0  0  0  0  0  0  0  0  0
   -6.9857   -8.6726   13.7764 H   0  0  0  0  0  0  0  0  0  0  0  0
   -6.0601   -8.3663   12.2678 H   0  0  0  0  0  0  0  0  0  0  0  0
   -7.8506   -8.2226   12.2678 H   0  0  0  0  0  0  0  0  0  0  0  0
   -9.2544  -11.1618   13.7549 H   0  0  0  0  0  0  0  0  0  0  0  0
  -11.2260  -12.7471   13.6207 H   0  0  0  0  0  0  0  0  0  0  0  0
  -12.0227  -11.1112   13.4412 H   0  0  0  0  0  0  0  0  0  0  0  0
  -12.5320  -13.6482   11.8302 H   0  0  0  0  0  0  0  0  0  0  0  0
  -13.6892  -12.6790   12.8131 H   0  0  0  0  0  0  0  0  0  0  0  0
  -13.3644  -10.8256   11.2258 H   0  0  0  0  0  0  0  0  0  0  0  0
  -14.4473  -11.3944    9.3233 H   0  0  0  0  0  0  0  0  0  0  0  0
  -15.1951  -12.1029   10.8437 H   0  0  0  0  0  0  0  0  0  0  0  0
  -12.3275  -11.4328    9.2088 H   0  0  0  0  0  0  0  0  0  0  0  0
  -11.3059  -13.0814    8.3426 H   0  0  0  0  0  0  0  0  0  0  0  0
  -11.1264  -13.9643    9.9119 H   0  0  0  0  0  0  0  0  0  0  0  0
  -14.1747  -16.9861    7.7389 H   0  0  0  0  0  0  0  0  0  0  0  0
  -17.6836  -17.5708    7.3259 H   0  0  0  0  0  0  0  0  0  0  0  0
  -17.6230  -15.9207    6.6186 H   0  0  0  0  0  0  0  0  0  0  0  0
  -16.1526  -16.9525    6.6186 H   0  0  0  0  0  0  0  0  0  0  0  0
  -18.1239  -12.1731    9.2386 H   0  0  0  0  0  0  0  0  0  0  0  0
  -16.7553  -12.2543    8.0779 H   0  0  0  0  0  0  0  0  0  0  0  0
  -18.0105  -13.5393    8.0779 H   0  0  0  0  0  0  0  0  0  0  0  0
  1 16  1  0
  1 20  1  0
  1 25  2  0
  2 20  2  0
  2 21  1  0
  3 25  1  0
  3 26  1  0
  4  5  1  0
  5  6  1  0
  6  7  1  0
  6  8  2  0
  7 18  2  0
  8  9  1  0
  8 11  1  0
  9 10  1  0
 11 12  2  0
 12 13  1  0
 12 18  1  0
 13 14  1  0
 15 14  1  0
 15 16  1  0
 15 17  1  0
 17 18  1  0
 17 19  1  0
 19 20  1  0
 21 22  2  0
 22 23  1  0
 22 25  1  0
 23 24  1  0
  2 27  1  0
  4 28  1  0
  4 29  1  0
  4 30  1  0
  7 31  1  0
 10 32  1  0
 10 33  1  0
 10 34  1  0
 11 35  1  0
 13 36  1  0
 13 37  1  0
 14 38  1  0
 14 39  1  0
 15 40  1  1
 16 41  1  0
 16 42  1  0
 17 43  1  6
 19 44  1  0
 19 45  1  0
 21 46  1  0
 24 47  1  0
 24 48  1  0
 24 49  1  0
 26 50  1  0
 26 51  1  0
 26 52  1  0
M  CHG  1  15   1
M  END
>  <filename_input>  (25) 
7N4W_P4V_docked.sdf

>  <pdb_id>  (25) 
7N4W_P4V

>  <pose_rank>  (25) 
24

>  <num_atoms_heavy>  (25) 
26

>  <num_torsions>  (25) 
4

>  <pose>  (25) 
[-14.337290099782775, -13.51260811552739, 9.531517917380697, 0.7757542696270885, -0.6342433303518757, -0.935148320574148, -2.667226935749544, 0.08798797369086404, -1.1256964446320272, -0.5701269527938772]

>  <energy>  (25) 
-233.35548917009172

>  <inter_energy>  (25) 
-233.19112452760686

>  <intra_energy>  (25) 
6.250403640601919

>  <rmsd>  (25) 
7.17974

>  <sdf_rank>  (25) 
0

$$$$

     RDKit          3D

 52 55  0  0  0  0  0  0  0  0999 V2000
   -8.1480  -13.2900   13.9470 C   0  0  0  0  0  0  0  0  0  0  0  0
   -6.1710  -14.2320   12.8860 C   0  0  0  0  0  0  0  0  0  0  0  0
   -9.1310  -14.2920   15.8240 O   0  0  0  0  0  0  0  0  0  0  0  0
   -8.5940   -9.7690    7.0580 C   0  0  0  0  0  0  0  0  0  0  0  0
   -7.8650   -8.7800    7.7390 O   0  0  0  0  0  0  0  0  0  0  0  0
   -7.9560   -8.8040    9.1280 C   0  0  0  0  0  0  0  0  0  0  0  0
   -8.1430  -10.0060    9.7610 C   0  0  0  0  0  0  0  0  0  0  0  0
   -7.6010   -7.6150    9.7640 C   0  0  0  0  0  0  0  0  0  0  0  0
   -7.3890   -6.4730    9.0210 O   0  0  0  0  0  0  0  0  0  0  0  0
   -7.6250   -5.1900    9.6330 C   0  0  0  0  0  0  0  0  0  0  0  0
   -7.5320   -7.5900   11.2130 C   0  0  0  0  0  0  0  0  0  0  0  0
   -7.7890   -8.7780   11.8290 C   0  0  0  0  0  0  0  0  0  0  0  0
   -7.7560   -8.7470   13.3630 C   0  0  0  0  0  0  0  0  0  0  0  0
   -7.8470  -10.1480   14.0160 C   0  0  0  0  0  0  0  0  0  0  0  0
   -8.9270  -10.9890   13.3160 N   0  0  2  0  0  0  0  0  0  0  0  0
   -9.2850  -12.2910   13.8860 C   0  0  0  0  0  0  0  0  0  0  0  0
   -8.3010  -11.2270   12.0060 C   0  0  1  0  0  0  0  0  0  0  0  0
   -8.1330  -10.0060   11.2150 C   0  0  0  0  0  0  0  0  0  0  0  0
   -7.1920  -12.2150   11.8040 C   0  0  0  0  0  0  0  0  0  0  0  0
   -7.1990  -13.2690   12.8770 C   0  0  0  0  0  0  0  0  0  0  0  0
   -6.0930  -15.2080   13.8600 C   0  0  0  0  0  0  0  0  0  0  0  0
   -7.0760  -15.2360   14.8750 C   0  0  0  0  0  0  0  0  0  0  0  0
   -7.0620  -16.1720   15.9240 O   0  0  0  0  0  0  0  0  0  0  0  0
   -6.2790  -17.4110   15.8010 C   0  0  0  0  0  0  0  0  0  0  0  0
   -8.1410  -14.2700   14.8510 C   0  0  0  0  0  0  0  0  0  0  0  0
   -8.7850  -13.9910   17.1670 C   0  0  0  0  0  0  0  0  0  0  0  0
   -5.4080  -14.2059   12.0941 H   0  0  0  0  0  0  0  0  0  0  0  0
   -9.0826  -10.4318    7.7873 H   0  0  0  0  0  0  0  0  0  0  0  0
   -9.3581   -9.2919    6.4267 H   0  0  0  0  0  0  0  0  0  0  0  0
   -7.9122  -10.3577    6.4267 H   0  0  0  0  0  0  0  0  0  0  0  0
   -8.2947  -10.9344    9.1908 H   0  0  0  0  0  0  0  0  0  0  0  0
   -7.6054   -5.2967   10.7276 H   0  0  0  0  0  0  0  0  0  0  0  0
   -6.8416   -4.4844    9.3193 H   0  0  0  0  0  0  0  0  0  0  0  0
   -8.6082   -4.8094    9.3193 H   0  0  0  0  0  0  0  0  0  0  0  0
   -7.2892   -6.6761   11.7750 H   0  0  0  0  0  0  0  0  0  0  0  0
   -6.8139   -8.2763   13.6806 H   0  0  0  0  0  0  0  0  0  0  0  0
   -8.6399   -8.1809   13.6922 H   0  0  0  0  0  0  0  0  0  0  0  0
   -6.8753  -10.6554   13.9251 H   0  0  0  0  0  0  0  0  0  0  0  0
   -8.1121  -10.0335   15.0774 H   0  0  0  0  0  0  0  0  0  0  0  0
   -9.8212  -10.4800   13.3627 H   0  0  0  0  0  0  0  0  0  0  0  0
  -10.0889  -12.7241   13.2727 H   0  0  0  0  0  0  0  0  0  0  0  0
   -9.5881  -12.1017   14.9263 H   0  0  0  0  0  0  0  0  0  0  0  0
   -9.1061  -11.8581   11.6016 H   0  0  0  0  0  0  0  0  0  0  0  0
   -7.3174  -12.6996   10.8245 H   0  0  0  0  0  0  0  0  0  0  0  0
   -6.2338  -11.6769   11.8512 H   0  0  0  0  0  0  0  0  0  0  0  0
   -5.2809  -15.9498   13.8460 H   0  0  0  0  0  0  0  0  0  0  0  0
   -6.0375  -17.7932   16.8038 H   0  0  0  0  0  0  0  0  0  0  0  0
   -6.8662  -18.1630   15.2536 H   0  0  0  0  0  0  0  0  0  0  0  0
   -5.3477  -17.2034   15.2536 H   0  0  0  0  0  0  0  0  0  0  0  0
   -9.4361  -14.5574   17.8491 H   0  0  0  0  0  0  0  0  0  0  0  0
   -7.7359  -14.2688   17.3464 H   0  0  0  0  0  0  0  0  0  0  0  0
   -8.9149  -12.9135   17.3464 H   0  0  0  0  0  0  0  0  0  0  0  0
  1 16  1  0
  1 20  1  0
  1 25  2  0
  2 20  2  0
  2 21  1  0
  3 25  1  0
  3 26  1  0
  4  5  1  0
  5  6  1  0
  6  7  1  0
  6  8  2  0
  7 18  2  0
  8  9  1  0
  8 11  1  0
  9 10  1  0
 11 12  2  0
 12 13  1  0
 12 18  1  0
 13 14  1  0
 15 14  1  0
 15 16  1  0
 15 17  1  0
 17 18  1  0
 17 19  1  0
 19 20  1  0
 21 22  2  0
 22 23  1  0
 22 25  1  0
 23 24  1  0
  2 27  1  0
  4 28  1  0
  4 29  1  0
  4 30  1  0
  7 31  1  0
 10 32  1  0
 10 33  1  0
 10 34  1  0
 11 35  1  0
 13 36  1  0
 13 37  1  0
 14 38  1  0
 14 39  1  0
 15 40  1  6
 16 41  1  0
 16 42  1  0
 17 43  1  6
 19 44  1  0
 19 45  1  0
 21 46  1  0
 24 47  1  0
 24 48  1  0
 24 49  1  0
 26 50  1  0
 26 51  1  0
 26 52  1  0
M  CHG  1  15   1
M  END
>  <filename_input>  (26) 
7N4W_P4V_docked.sdf

>  <pdb_id>  (26) 
7N4W_P4V

>  <pose_rank>  (26) 
25

>  <num_atoms_heavy>  (26) 
26

>  <num_torsions>  (26) 
4

>  <pose>  (26) 
[-8.148, -13.29, 13.947, 1e-06, 1e-06, 1e-06, 0.0, 0.0, 0.0, 0.0]

>  <energy>  (26) 
-717.5294965503142

>  <inter_energy>  (26) 
-732.0673981624477

>  <intra_energy>  (26) 
9.40038197489685

>  <rmsd>  (26) 
0.0

>  <sdf_rank>  (26) 
0

$$$$
