
     RDKit          3D

 46 49  0  0  0  0  0  0  0  0999 V2000
  -17.8708    4.5559   20.2464 C   0  0  0  0  0  0  0  0  0  0  0  0
  -18.9809    2.5749   21.5373 C   0  0  0  0  0  0  0  0  0  0  0  0
  -17.7776    1.6978   21.2802 C   0  0  2  0  0  0  0  0  0  0  0  0
  -15.6832    0.7229   22.3640 C   0  0  0  0  0  0  0  0  0  0  0  0
  -18.2048    0.2586   20.9887 C   0  0  0  0  0  0  0  0  0  0  0  0
  -13.8886   -1.5666   21.9189 C   0  0  0  0  0  0  0  0  0  0  0  0
  -13.5222   -3.8112   22.2248 C   0  0  0  0  0  0  0  0  0  0  0  0
  -17.0956   -3.2788   23.0677 C   0  0  0  0  0  0  0  0  0  0  0  0
  -17.6384   -2.4548   24.0397 C   0  0  0  0  0  0  0  0  0  0  0  0
  -18.9449   -2.7290   24.5349 C   0  0  0  0  0  0  0  0  0  0  0  0
  -17.8479   -4.3410   22.5274 C   0  0  0  0  0  0  0  0  0  0  0  0
  -19.4536    5.7370   18.9032 F   0  0  0  0  0  0  0  0  0  0  0  0
  -18.9914    5.6772   20.1804 C   0  0  1  0  0  0  0  0  0  0  0  0
  -19.8691    4.8735   21.1331 C   0  0  0  0  0  0  0  0  0  0  0  0
  -18.8532    3.8249   21.1250 N   0  0  0  0  0  0  0  0  0  0  0  0
  -19.9603    2.1986   22.1828 O   0  0  0  0  0  0  0  0  0  0  0  0
  -16.8749    1.6825   22.5263 C   0  0  0  0  0  0  0  0  0  0  0  0
  -16.1520   -0.6199   22.0530 N   0  0  0  0  0  0  0  0  0  0  0  0
  -16.9888   -0.6693   20.8394 C   0  0  0  0  0  0  0  0  0  0  0  0
  -15.2603   -1.7131   22.1788 C   0  0  0  0  0  0  0  0  0  0  0  0
  -13.0380   -2.6087   21.9711 N   0  0  0  0  0  0  0  0  0  0  0  0
  -14.8404   -4.0562   22.5168 N   0  0  0  0  0  0  0  0  0  0  0  0
  -15.7258   -2.9952   22.5479 C   0  0  0  0  0  0  0  0  0  0  0  0
  -19.6114   -3.7660   24.0034 C   0  0  0  0  0  0  0  0  0  0  0  0
  -20.8642   -4.0332   24.4823 F   0  0  0  0  0  0  0  0  0  0  0  0
  -19.0868   -4.6067   23.0766 C   0  0  0  0  0  0  0  0  0  0  0  0
  -17.6410    4.0647   19.2894 H   0  0  0  0  0  0  0  0  0  0  0  0
  -16.8315    4.7591   20.5437 H   0  0  0  0  0  0  0  0  0  0  0  0
  -17.2396    2.1056   20.4117 H   0  0  0  0  0  0  0  0  0  0  0  0
  -15.0388    1.0801   21.5472 H   0  0  0  0  0  0  0  0  0  0  0  0
  -15.1173    0.6940   23.3068 H   0  0  0  0  0  0  0  0  0  0  0  0
  -18.8313   -0.1033   21.8173 H   0  0  0  0  0  0  0  0  0  0  0  0
  -18.7650    0.2493   20.0421 H   0  0  0  0  0  0  0  0  0  0  0  0
  -13.4971   -0.5705   21.6651 H   0  0  0  0  0  0  0  0  0  0  0  0
  -12.8291   -4.6651   22.2007 H   0  0  0  0  0  0  0  0  0  0  0  0
  -17.0664   -1.5978   24.4249 H   0  0  0  0  0  0  0  0  0  0  0  0
  -19.3933   -2.1115   25.3271 H   0  0  0  0  0  0  0  0  0  0  0  0
  -17.4592   -4.9416   21.6919 H   0  0  0  0  0  0  0  0  0  0  0  0
  -18.8054    6.7340   20.4227 H   0  0  0  0  0  0  0  0  0  0  0  0
  -20.0272    5.3461   22.1138 H   0  0  0  0  0  0  0  0  0  0  0  0
  -20.9187    4.6515   20.8901 H   0  0  0  0  0  0  0  0  0  0  0  0
  -16.4912    2.6988   22.6993 H   0  0  0  0  0  0  0  0  0  0  0  0
  -17.4777    1.3340   23.3779 H   0  0  0  0  0  0  0  0  0  0  0  0
  -17.3371   -1.7007   20.6812 H   0  0  0  0  0  0  0  0  0  0  0  0
  -16.3896   -0.3365   19.9791 H   0  0  0  0  0  0  0  0  0  0  0  0
  -19.6480   -5.4993   22.7628 H   0  0  0  0  0  0  0  0  0  0  0  0
  1 13  1  0
  1 15  1  0
  3  2  1  0
  2 15  1  0
  2 16  2  0
  3  5  1  0
  3 17  1  0
  4 17  1  0
  4 18  1  0
  5 19  1  0
  6 20  2  0
  6 21  1  0
  7 21  2  0
  7 22  1  0
  8  9  2  0
  8 11  1  0
  8 23  1  0
  9 10  1  0
 10 24  2  0
 11 26  2  0
 13 12  1  0
 13 14  1  0
 14 15  1  0
 18 19  1  0
 18 20  1  0
 20 23  1  0
 22 23  2  0
 24 25  1  0
 24 26  1  0
  1 27  1  0
  1 28  1  0
  3 29  1  6
  4 30  1  0
  4 31  1  0
  5 32  1  0
  5 33  1  0
  6 34  1  0
  7 35  1  0
  9 36  1  0
 10 37  1  0
 11 38  1  0
 13 39  1  1
 14 40  1  0
 14 41  1  0
 17 42  1  0
 17 43  1  0
 19 44  1  0
 19 45  1  0
 26 46  1  0
M  END
>  <filename_input>  (1) 
7N6F_0I1_docked.sdf

>  <pdb_id>  (1) 
7N6F_0I1

>  <pose_rank>  (1) 
0

>  <num_atoms_heavy>  (1) 
26

>  <num_torsions>  (1) 
3

>  <pose>  (1) 
[-17.777627557177997, 1.6978305312803015, 21.2801644211056, -4.206369625299663, 4.294891692319343, -0.06535313423426459, 0.38215084060988197, -0.29655144775558206, -0.14677894277287212]

>  <energy>  (1) 
-927.8480027915145

>  <inter_energy>  (1) 
-931.8347251517786

>  <intra_energy>  (1) 
15.534688274147591

>  <rmsd>  (1) 
0.369216

>  <sdf_rank>  (1) 
0

$$$$

     RDKit          3D

 46 49  0  0  0  0  0  0  0  0999 V2000
  -19.8811    4.3535   20.3051 C   0  0  0  0  0  0  0  0  0  0  0  0
  -17.7530    2.8537   20.5158 C   0  0  0  0  0  0  0  0  0  0  0  0
  -18.5928    1.6772   20.9558 C   0  0  2  0  0  0  0  0  0  0  0  0
  -18.7091   -0.8719   20.9553 C   0  0  0  0  0  0  0  0  0  0  0  0
  -18.6725    1.6050   22.4814 C   0  0  0  0  0  0  0  0  0  0  0  0
  -20.4853   -2.3656   23.3510 C   0  0  0  0  0  0  0  0  0  0  0  0
  -19.8905   -4.2258   24.5560 C   0  0  0  0  0  0  0  0  0  0  0  0
  -16.7131   -2.8922   23.1817 C   0  0  0  0  0  0  0  0  0  0  0  0
  -16.2307   -3.7334   22.1927 C   0  0  0  0  0  0  0  0  0  0  0  0
  -14.8528   -3.6740   21.8390 C   0  0  0  0  0  0  0  0  0  0  0  0
  -15.8671   -1.9436   23.7905 C   0  0  0  0  0  0  0  0  0  0  0  0
  -19.4846    6.5720   21.0960 F   0  0  0  0  0  0  0  0  0  0  0  0
  -19.3259    5.8049   19.9848 C   0  0  1  0  0  0  0  0  0  0  0  0
  -17.9216    5.2407   19.8016 C   0  0  0  0  0  0  0  0  0  0  0  0
  -18.4427    3.9260   20.1650 N   0  0  0  0  0  0  0  0  0  0  0  0
  -16.5303    2.7917   20.3784 O   0  0  0  0  0  0  0  0  0  0  0  0
  -17.9552    0.3708   20.4509 C   0  0  0  0  0  0  0  0  0  0  0  0
  -18.7828   -0.8651   22.4092 N   0  0  0  0  0  0  0  0  0  0  0  0
  -19.4262    0.3487   22.9460 C   0  0  0  0  0  0  0  0  0  0  0  0
  -19.1416   -2.0531   23.0918 C   0  0  0  0  0  0  0  0  0  0  0  0
  -20.8405   -3.4572   24.0542 N   0  0  0  0  0  0  0  0  0  0  0  0
  -18.5510   -4.0218   24.3392 N   0  0  0  0  0  0  0  0  0  0  0  0
  -18.1563   -2.9533   23.5561 C   0  0  0  0  0  0  0  0  0  0  0  0
  -14.0840   -2.7684   22.4642 C   0  0  0  0  0  0  0  0  0  0  0  0
  -12.7593   -2.7143   22.1288 F   0  0  0  0  0  0  0  0  0  0  0  0
  -14.5265   -1.9592   23.4594 C   0  0  0  0  0  0  0  0  0  0  0  0
  -20.3130    4.2269   21.3088 H   0  0  0  0  0  0  0  0  0  0  0  0
  -20.7058    3.8867   19.7464 H   0  0  0  0  0  0  0  0  0  0  0  0
  -19.6029    1.8065   20.5398 H   0  0  0  0  0  0  0  0  0  0  0  0
  -19.7280   -0.8709   20.5407 H   0  0  0  0  0  0  0  0  0  0  0  0
  -18.1695   -1.7734   20.6295 H   0  0  0  0  0  0  0  0  0  0  0  0
  -17.6524    1.5824   22.8922 H   0  0  0  0  0  0  0  0  0  0  0  0
  -19.2194    2.4890   22.8412 H   0  0  0  0  0  0  0  0  0  0  0  0
  -21.2717   -1.6985   22.9681 H   0  0  0  0  0  0  0  0  0  0  0  0
  -20.1904   -5.0781   25.1834 H   0  0  0  0  0  0  0  0  0  0  0  0
  -16.9048   -4.4398   21.6861 H   0  0  0  0  0  0  0  0  0  0  0  0
  -14.4320   -4.3480   21.0783 H   0  0  0  0  0  0  0  0  0  0  0  0
  -16.2635   -1.2113   24.5093 H   0  0  0  0  0  0  0  0  0  0  0  0
  -19.7296    6.4449   19.1863 H   0  0  0  0  0  0  0  0  0  0  0  0
  -17.5347    5.3084   18.7742 H   0  0  0  0  0  0  0  0  0  0  0  0
  -17.0595    5.6768   20.3275 H   0  0  0  0  0  0  0  0  0  0  0  0
  -17.9680    0.3716   19.3510 H   0  0  0  0  0  0  0  0  0  0  0  0
  -16.9264    0.3237   20.8373 H   0  0  0  0  0  0  0  0  0  0  0  0
  -19.4185    0.3072   24.0451 H   0  0  0  0  0  0  0  0  0  0  0  0
  -20.4613    0.3968   22.5767 H   0  0  0  0  0  0  0  0  0  0  0  0
  -13.8180   -1.3162   24.0021 H   0  0  0  0  0  0  0  0  0  0  0  0
  1 13  1  0
  1 15  1  0
  3  2  1  0
  2 15  1  0
  2 16  2  0
  3  5  1  0
  3 17  1  0
  4 17  1  0
  4 18  1  0
  5 19  1  0
  6 20  2  0
  6 21  1  0
  7 21  2  0
  7 22  1  0
  8  9  2  0
  8 11  1  0
  8 23  1  0
  9 10  1  0
 10 24  2  0
 11 26  2  0
 13 12  1  0
 13 14  1  0
 14 15  1  0
 18 19  1  0
 18 20  1  0
 20 23  1  0
 22 23  2  0
 24 25  1  0
 24 26  1  0
  1 27  1  0
  1 28  1  0
  3 29  1  6
  4 30  1  0
  4 31  1  0
  5 32  1  0
  5 33  1  0
  6 34  1  0
  7 35  1  0
  9 36  1  0
 10 37  1  0
 11 38  1  0
 13 39  1  6
 14 40  1  0
 14 41  1  0
 17 42  1  0
 17 43  1  0
 19 44  1  0
 19 45  1  0
 26 46  1  0
M  END
>  <filename_input>  (2) 
7N6F_0I1_docked.sdf

>  <pdb_id>  (2) 
7N6F_0I1

>  <pose_rank>  (2) 
1

>  <num_atoms_heavy>  (2) 
26

>  <num_torsions>  (2) 
3

>  <pose>  (2) 
[-18.592833990792624, 1.6772188852898025, 20.955847490133113, -0.6575622739337631, 1.492727352878888, -1.2543917866446568, -5.063835016889227, -7.54522772618787, -1.0910432376934853]

>  <energy>  (2) 
-729.3899335786439

>  <inter_energy>  (2) 
-729.7404254983236

>  <intra_energy>  (2) 
4.0175825972974355

>  <rmsd>  (2) 
4.01074

>  <sdf_rank>  (2) 
0

$$$$

     RDKit          3D

 46 49  0  0  0  0  0  0  0  0999 V2000
  -19.1145    1.4407   20.2693 C   0  0  0  0  0  0  0  0  0  0  0  0
  -17.3947    3.3851   20.5595 C   0  0  0  0  0  0  0  0  0  0  0  0
  -16.3351    2.4141   21.0260 C   0  0  2  0  0  0  0  0  0  0  0  0
  -15.7064    0.8195   22.9164 C   0  0  0  0  0  0  0  0  0  0  0  0
  -16.2443    1.2127   20.0842 C   0  0  0  0  0  0  0  0  0  0  0  0
  -13.6596   -1.7024   22.2740 C   0  0  0  0  0  0  0  0  0  0  0  0
  -13.8669   -3.8938   22.9230 C   0  0  0  0  0  0  0  0  0  0  0  0
  -17.2831   -2.4698   23.1779 C   0  0  0  0  0  0  0  0  0  0  0  0
  -18.0991   -1.6148   22.4557 C   0  0  0  0  0  0  0  0  0  0  0  0
  -19.4773   -1.5127   22.7983 C   0  0  0  0  0  0  0  0  0  0  0  0
  -17.8191   -3.2774   24.2010 C   0  0  0  0  0  0  0  0  0  0  0  0
  -21.3007    2.0750   20.9923 F   0  0  0  0  0  0  0  0  0  0  0  0
  -20.4830    2.1583   19.9093 C   0  0  1  0  0  0  0  0  0  0  0  0
  -19.7596    3.4924   19.7648 C   0  0  0  0  0  0  0  0  0  0  0  0
  -18.5246    2.8235   20.1638 N   0  0  0  0  0  0  0  0  0  0  0  0
  -17.1919    4.5945   20.4415 O   0  0  0  0  0  0  0  0  0  0  0  0
  -16.6950    1.8925   22.4284 C   0  0  0  0  0  0  0  0  0  0  0  0
  -15.6373   -0.2781   21.9624 N   0  0  0  0  0  0  0  0  0  0  0  0
  -15.2530    0.1615   20.6080 C   0  0  0  0  0  0  0  0  0  0  0  0
  -15.0468   -1.5039   22.3559 C   0  0  0  0  0  0  0  0  0  0  0  0
  -13.0889   -2.8819   22.5826 N   0  0  0  0  0  0  0  0  0  0  0  0
  -15.2291   -3.7964   23.0570 N   0  0  0  0  0  0  0  0  0  0  0  0
  -15.8378   -2.5777   22.8226 C   0  0  0  0  0  0  0  0  0  0  0  0
  -19.9341   -2.2869   23.7953 C   0  0  0  0  0  0  0  0  0  0  0  0
  -21.2566   -2.1855   24.1285 F   0  0  0  0  0  0  0  0  0  0  0  0
  -19.1469   -3.1047   24.5387 C   0  0  0  0  0  0  0  0  0  0  0  0
  -19.0714    0.9870   21.2704 H   0  0  0  0  0  0  0  0  0  0  0  0
  -18.7239    0.5748   19.7147 H   0  0  0  0  0  0  0  0  0  0  0  0
  -15.3715    2.9445   21.0408 H   0  0  0  0  0  0  0  0  0  0  0  0
  -14.7082    1.2688   23.0249 H   0  0  0  0  0  0  0  0  0  0  0  0
  -16.0524    0.4293   23.8849 H   0  0  0  0  0  0  0  0  0  0  0  0
  -17.2394    0.7525   19.9945 H   0  0  0  0  0  0  0  0  0  0  0  0
  -15.8877    1.5667   19.1056 H   0  0  0  0  0  0  0  0  0  0  0  0
  -13.0198   -0.8692   21.9479 H   0  0  0  0  0  0  0  0  0  0  0  0
  -13.3959   -4.8701   23.1097 H   0  0  0  0  0  0  0  0  0  0  0  0
  -17.6869   -1.0212   21.6265 H   0  0  0  0  0  0  0  0  0  0  0  0
  -20.1459   -0.8220   22.2636 H   0  0  0  0  0  0  0  0  0  0  0  0
  -17.1972   -4.0244   24.7161 H   0  0  0  0  0  0  0  0  0  0  0  0
  -21.1363    1.8373   19.0846 H   0  0  0  0  0  0  0  0  0  0  0  0
  -19.7485    3.8951   18.7412 H   0  0  0  0  0  0  0  0  0  0  0  0
  -20.1146    4.3924   20.2882 H   0  0  0  0  0  0  0  0  0  0  0  0
  -16.6814    2.7354   23.1350 H   0  0  0  0  0  0  0  0  0  0  0  0
  -17.6936    1.4344   22.3741 H   0  0  0  0  0  0  0  0  0  0  0  0
  -15.2535   -0.7060   19.9316 H   0  0  0  0  0  0  0  0  0  0  0  0
  -14.2485    0.6080   20.6495 H   0  0  0  0  0  0  0  0  0  0  0  0
  -19.5662   -3.6297   25.4097 H   0  0  0  0  0  0  0  0  0  0  0  0
  1 13  1  0
  1 15  1  0
  3  2  1  0
  2 15  1  0
  2 16  2  0
  3  5  1  0
  3 17  1  0
  4 17  1  0
  4 18  1  0
  5 19  1  0
  6 20  2  0
  6 21  1  0
  7 21  2  0
  7 22  1  0
  8  9  2  0
  8 11  1  0
  8 23  1  0
  9 10  1  0
 10 24  2  0
 11 26  2  0
 13 12  1  0
 13 14  1  0
 14 15  1  0
 18 19  1  0
 18 20  1  0
 20 23  1  0
 22 23  2  0
 24 25  1  0
 24 26  1  0
  1 27  1  0
  1 28  1  0
  3 29  1  1
  4 30  1  0
  4 31  1  0
  5 32  1  0
  5 33  1  0
  6 34  1  0
  7 35  1  0
  9 36  1  0
 10 37  1  0
 11 38  1  0
 13 39  1  6
 14 40  1  0
 14 41  1  0
 17 42  1  0
 17 43  1  0
 19 44  1  0
 19 45  1  0
 26 46  1  0
M  END
>  <filename_input>  (3) 
7N6F_0I1_docked.sdf

>  <pdb_id>  (3) 
7N6F_0I1

>  <pose_rank>  (3) 
2

>  <num_atoms_heavy>  (3) 
26

>  <num_torsions>  (3) 
3

>  <pose>  (3) 
[-16.335075182192224, 2.414143647687372, 21.0260490165022, 0.5227055543914991, -1.0730801352018497, 0.007787533876488055, 3.697637290722163, -1.2081063264437564, 1.2520968681062867]

>  <energy>  (3) 
-605.3892683734547

>  <inter_energy>  (3) 
-665.9949140741799

>  <intra_energy>  (3) 
59.786256510658255

>  <rmsd>  (3) 
2.13755

>  <sdf_rank>  (3) 
0

$$$$

     RDKit          3D

 46 49  0  0  0  0  0  0  0  0999 V2000
  -19.9782   -2.6027   24.1268 C   0  0  0  0  0  0  0  0  0  0  0  0
  -17.6449   -1.9050   23.1829 C   0  0  0  0  0  0  0  0  0  0  0  0
  -18.0671   -0.4549   23.1370 C   0  0  2  0  0  0  0  0  0  0  0  0
  -17.2907    1.8858   22.4813 C   0  0  0  0  0  0  0  0  0  0  0  0
  -19.2332   -0.2574   22.1673 C   0  0  0  0  0  0  0  0  0  0  0  0
  -18.5357    4.4526   21.7624 C   0  0  0  0  0  0  0  0  0  0  0  0
  -19.5193    5.7227   20.1236 C   0  0  0  0  0  0  0  0  0  0  0  0
  -19.4175    2.2737   18.7607 C   0  0  0  0  0  0  0  0  0  0  0  0
  -18.2604    1.6389   18.3406 C   0  0  0  0  0  0  0  0  0  0  0  0
  -18.3522    0.5766   17.3970 C   0  0  0  0  0  0  0  0  0  0  0  0
  -20.6789    1.8360   18.3093 C   0  0  0  0  0  0  0  0  0  0  0  0
  -20.7495   -4.6475   23.1631 F   0  0  0  0  0  0  0  0  0  0  0  0
  -19.9462   -4.1887   24.1594 C   0  0  1  0  0  0  0  0  0  0  0  0
  -18.4603   -4.1780   23.8188 C   0  0  0  0  0  0  0  0  0  0  0  0
  -18.5297   -2.7223   23.7285 N   0  0  0  0  0  0  0  0  0  0  0  0
  -16.5223   -2.2882   22.8501 O   0  0  0  0  0  0  0  0  0  0  0  0
  -16.8914    0.4095   22.6485 C   0  0  0  0  0  0  0  0  0  0  0  0
  -18.4258    2.0050   21.5775 N   0  0  0  0  0  0  0  0  0  0  0  0
  -19.5982    1.2285   22.0223 C   0  0  0  0  0  0  0  0  0  0  0  0
  -18.7507    3.2721   21.0342 C   0  0  0  0  0  0  0  0  0  0  0  0
  -18.8978    5.6591   21.2875 N   0  0  0  0  0  0  0  0  0  0  0  0
  -19.7539    4.6324   19.3242 N   0  0  0  0  0  0  0  0  0  0  0  0
  -19.3246    3.3887   19.7482 C   0  0  0  0  0  0  0  0  0  0  0  0
  -19.5754    0.2123   16.9810 C   0  0  0  0  0  0  0  0  0  0  0  0
  -19.6640   -0.8045   16.0706 F   0  0  0  0  0  0  0  0  0  0  0  0
  -20.7187    0.8419   17.3517 C   0  0  0  0  0  0  0  0  0  0  0  0
  -20.6395   -2.1620   23.3663 H   0  0  0  0  0  0  0  0  0  0  0  0
  -20.3221   -1.9893   24.9727 H   0  0  0  0  0  0  0  0  0  0  0  0
  -18.3763   -0.1590   24.1503 H   0  0  0  0  0  0  0  0  0  0  0  0
  -17.5636    2.3009   23.4627 H   0  0  0  0  0  0  0  0  0  0  0  0
  -16.4393    2.4404   22.0600 H   0  0  0  0  0  0  0  0  0  0  0  0
  -18.9495   -0.6539   21.1813 H   0  0  0  0  0  0  0  0  0  0  0  0
  -20.1086   -0.7910   22.5662 H   0  0  0  0  0  0  0  0  0  0  0  0
  -18.0570    4.3901   22.7509 H   0  0  0  0  0  0  0  0  0  0  0  0
  -19.8688    6.7058   19.7753 H   0  0  0  0  0  0  0  0  0  0  0  0
  -17.2811    1.9521   18.7317 H   0  0  0  0  0  0  0  0  0  0  0  0
  -17.4504    0.0711   17.0213 H   0  0  0  0  0  0  0  0  0  0  0  0
  -21.6056    2.2740   18.7086 H   0  0  0  0  0  0  0  0  0  0  0  0
  -20.2692   -4.7830   25.0269 H   0  0  0  0  0  0  0  0  0  0  0  0
  -17.8073   -4.5532   24.6205 H   0  0  0  0  0  0  0  0  0  0  0  0
  -18.0616   -4.7817   22.9902 H   0  0  0  0  0  0  0  0  0  0  0  0
  -16.0738    0.3437   23.3815 H   0  0  0  0  0  0  0  0  0  0  0  0
  -16.5763    0.0297   21.6653 H   0  0  0  0  0  0  0  0  0  0  0  0
  -20.4045    1.3330   21.2814 H   0  0  0  0  0  0  0  0  0  0  0  0
  -19.9300    1.6112   22.9988 H   0  0  0  0  0  0  0  0  0  0  0  0
  -21.6765    0.5606   16.8898 H   0  0  0  0  0  0  0  0  0  0  0  0
  1 13  1  0
  1 15  1  0
  3  2  1  0
  2 15  1  0
  2 16  2  0
  3  5  1  0
  3 17  1  0
  4 17  1  0
  4 18  1  0
  5 19  1  0
  6 20  2  0
  6 21  1  0
  7 21  2  0
  7 22  1  0
  8  9  2  0
  8 11  1  0
  8 23  1  0
  9 10  1  0
 10 24  2  0
 11 26  2  0
 13 12  1  0
 13 14  1  0
 14 15  1  0
 18 19  1  0
 18 20  1  0
 20 23  1  0
 22 23  2  0
 24 25  1  0
 24 26  1  0
  1 27  1  0
  1 28  1  0
  3 29  1  1
  4 30  1  0
  4 31  1  0
  5 32  1  0
  5 33  1  0
  6 34  1  0
  7 35  1  0
  9 36  1  0
 10 37  1  0
 11 38  1  0
 13 39  1  1
 14 40  1  0
 14 41  1  0
 17 42  1  0
 17 43  1  0
 19 44  1  0
 19 45  1  0
 26 46  1  0
M  END
>  <filename_input>  (4) 
7N6F_0I1_docked.sdf

>  <pdb_id>  (4) 
7N6F_0I1

>  <pose_rank>  (4) 
3

>  <num_atoms_heavy>  (4) 
26

>  <num_torsions>  (4) 
3

>  <pose>  (4) 
[-18.0671298380625, -0.4548518843231927, 23.136953316540417, -2.905046242970139, -1.809344045797638, -0.8893477172826344, 1.7532502644788583, -6.576459674296923, -0.37111383060899245]

>  <energy>  (4) 
-616.6520122795688

>  <inter_energy>  (4) 
-623.7173760625411

>  <intra_energy>  (4) 
22.72125319171002

>  <rmsd>  (4) 
7.57548

>  <sdf_rank>  (4) 
0

$$$$

     RDKit          3D

 46 49  0  0  0  0  0  0  0  0999 V2000
  -19.7268   -4.8583   22.5326 C   0  0  0  0  0  0  0  0  0  0  0  0
  -20.1142   -2.7669   24.0487 C   0  0  0  0  0  0  0  0  0  0  0  0
  -19.5167   -1.8608   22.9974 C   0  0  2  0  0  0  0  0  0  0  0  0
  -19.9470    0.2457   21.6230 C   0  0  0  0  0  0  0  0  0  0  0  0
  -18.2599   -1.1678   23.5259 C   0  0  0  0  0  0  0  0  0  0  0  0
  -18.9856    3.1911   21.4869 C   0  0  0  0  0  0  0  0  0  0  0  0
  -17.3459    4.2596   20.2886 C   0  0  0  0  0  0  0  0  0  0  0  0
  -15.8909    0.9793   21.2298 C   0  0  0  0  0  0  0  0  0  0  0  0
  -15.6746    0.0496   20.2262 C   0  0  0  0  0  0  0  0  0  0  0  0
  -14.7005   -0.9706   20.4201 C   0  0  0  0  0  0  0  0  0  0  0  0
  -15.1149    0.9570   22.4061 C   0  0  0  0  0  0  0  0  0  0  0  0
  -18.9859   -6.7448   23.7962 F   0  0  0  0  0  0  0  0  0  0  0  0
  -20.1269   -6.0976   23.4390 C   0  0  1  0  0  0  0  0  0  0  0  0
  -20.6792   -5.1564   24.5035 C   0  0  0  0  0  0  0  0  0  0  0  0
  -20.2414   -4.0312   23.6825 N   0  0  0  0  0  0  0  0  0  0  0  0
  -20.5589   -2.3508   25.1195 O   0  0  0  0  0  0  0  0  0  0  0  0
  -20.5350   -0.7719   22.6160 C   0  0  0  0  0  0  0  0  0  0  0  0
  -18.7358    0.8432   22.1666 N   0  0  0  0  0  0  0  0  0  0  0  0
  -17.7067   -0.1560   22.5100 C   0  0  0  0  0  0  0  0  0  0  0  0
  -18.2163    2.0203   21.5746 C   0  0  0  0  0  0  0  0  0  0  0  0
  -18.5311    4.2983   20.8705 N   0  0  0  0  0  0  0  0  0  0  0  0
  -16.5073    3.1746   20.3385 N   0  0  0  0  0  0  0  0  0  0  0  0
  -16.9125    2.0487   21.0305 C   0  0  0  0  0  0  0  0  0  0  0  0
  -14.0035   -0.9613   21.5674 C   0  0  0  0  0  0  0  0  0  0  0  0
  -13.0715   -1.9441   21.7566 F   0  0  0  0  0  0  0  0  0  0  0  0
  -14.2225   -0.0827   22.5778 C   0  0  0  0  0  0  0  0  0  0  0  0
  -18.6514   -4.7562   22.3250 H   0  0  0  0  0  0  0  0  0  0  0  0
  -20.0741   -4.7323   21.4965 H   0  0  0  0  0  0  0  0  0  0  0  0
  -19.2577   -2.4780   22.1245 H   0  0  0  0  0  0  0  0  0  0  0  0
  -19.7069   -0.2658   20.6793 H   0  0  0  0  0  0  0  0  0  0  0  0
  -20.6876    1.0394   21.4448 H   0  0  0  0  0  0  0  0  0  0  0  0
  -18.5081   -0.6393   24.4582 H   0  0  0  0  0  0  0  0  0  0  0  0
  -17.4914   -1.9344   23.7038 H   0  0  0  0  0  0  0  0  0  0  0  0
  -19.9900    3.2044   21.9354 H   0  0  0  0  0  0  0  0  0  0  0  0
  -17.0121    5.1478   19.7321 H   0  0  0  0  0  0  0  0  0  0  0  0
  -16.2492    0.0989   19.2894 H   0  0  0  0  0  0  0  0  0  0  0  0
  -14.5248   -1.7411   19.6549 H   0  0  0  0  0  0  0  0  0  0  0  0
  -15.2173    1.7457   23.1660 H   0  0  0  0  0  0  0  0  0  0  0  0
  -20.7744   -6.9168   23.0929 H   0  0  0  0  0  0  0  0  0  0  0  0
  -21.7682   -5.2194   24.6453 H   0  0  0  0  0  0  0  0  0  0  0  0
  -20.3741   -5.2459   25.5565 H   0  0  0  0  0  0  0  0  0  0  0  0
  -21.4116   -1.2512   22.1557 H   0  0  0  0  0  0  0  0  0  0  0  0
  -20.8123   -0.2305   23.5325 H   0  0  0  0  0  0  0  0  0  0  0  0
  -16.8358    0.3557   22.9455 H   0  0  0  0  0  0  0  0  0  0  0  0
  -17.4118   -0.6928   21.5962 H   0  0  0  0  0  0  0  0  0  0  0  0
  -13.6895   -0.1985   23.5331 H   0  0  0  0  0  0  0  0  0  0  0  0
  1 13  1  0
  1 15  1  0
  3  2  1  0
  2 15  1  0
  2 16  2  0
  3  5  1  0
  3 17  1  0
  4 17  1  0
  4 18  1  0
  5 19  1  0
  6 20  2  0
  6 21  1  0
  7 21  2  0
  7 22  1  0
  8  9  2  0
  8 11  1  0
  8 23  1  0
  9 10  1  0
 10 24  2  0
 11 26  2  0
 13 12  1  0
 13 14  1  0
 14 15  1  0
 18 19  1  0
 18 20  1  0
 20 23  1  0
 22 23  2  0
 24 25  1  0
 24 26  1  0
  1 27  1  0
  1 28  1  0
  3 29  1  6
  4 30  1  0
  4 31  1  0
  5 32  1  0
  5 33  1  0
  6 34  1  0
  7 35  1  0
  9 36  1  0
 10 37  1  0
 11 38  1  0
 13 39  1  6
 14 40  1  0
 14 41  1  0
 17 42  1  0
 17 43  1  0
 19 44  1  0
 19 45  1  0
 26 46  1  0
M  END
>  <filename_input>  (5) 
7N6F_0I1_docked.sdf

>  <pdb_id>  (5) 
7N6F_0I1

>  <pose_rank>  (5) 
4

>  <num_atoms_heavy>  (5) 
26

>  <num_torsions>  (5) 
3

>  <pose>  (5) 
[-19.51666953741741, -1.860784340718259, 22.997441584822234, 1.9161256508750852, -0.7974813687004049, -3.409950897179721, 0.7977836802341263, -4.985627426328913, 2.3991423776300365]

>  <energy>  (5) 
-507.5117496017285

>  <inter_energy>  (5) 
-601.996862512137

>  <intra_energy>  (5) 
99.19562404133305

>  <rmsd>  (5) 
7.14637

>  <sdf_rank>  (5) 
0

$$$$

     RDKit          3D

 46 49  0  0  0  0  0  0  0  0999 V2000
  -19.4317   -3.8787   23.5629 C   0  0  0  0  0  0  0  0  0  0  0  0
  -17.5928   -2.5206   22.2994 C   0  0  0  0  0  0  0  0  0  0  0  0
  -18.4442   -1.2732   22.3457 C   0  0  2  0  0  0  0  0  0  0  0  0
  -18.5957    1.0687   23.3479 C   0  0  0  0  0  0  0  0  0  0  0  0
  -18.5094   -0.6067   20.9707 C   0  0  0  0  0  0  0  0  0  0  0  0
  -19.8222    3.6493   22.7909 C   0  0  0  0  0  0  0  0  0  0  0  0
  -19.9167    5.5429   21.4980 C   0  0  0  0  0  0  0  0  0  0  0  0
  -17.5965    3.2583   19.7202 C   0  0  0  0  0  0  0  0  0  0  0  0
  -17.9649    3.0652   18.3991 C   0  0  0  0  0  0  0  0  0  0  0  0
  -16.9900    2.6185   17.4624 C   0  0  0  0  0  0  0  0  0  0  0  0
  -16.2589    3.0755   20.1248 C   0  0  0  0  0  0  0  0  0  0  0  0
  -19.6661   -6.0864   22.6822 F   0  0  0  0  0  0  0  0  0  0  0  0
  -18.9069   -5.3761   23.5583 C   0  0  1  0  0  0  0  0  0  0  0  0
  -17.5638   -4.9166   23.0025 C   0  0  0  0  0  0  0  0  0  0  0  0
  -18.0919   -3.5562   22.9529 N   0  0  0  0  0  0  0  0  0  0  0  0
  -16.4683   -2.5476   21.7970 O   0  0  0  0  0  0  0  0  0  0  0  0
  -17.8300   -0.2657   23.3335 C   0  0  0  0  0  0  0  0  0  0  0  0
  -18.6545    1.6343   22.0078 N   0  0  0  0  0  0  0  0  0  0  0  0
  -19.2756    0.7244   21.0271 C   0  0  0  0  0  0  0  0  0  0  0  0
  -19.0227    2.9920   21.8427 C   0  0  0  0  0  0  0  0  0  0  0  0
  -20.2345    4.9191   22.6182 N   0  0  0  0  0  0  0  0  0  0  0  0
  -19.1202    4.9988   20.5221 N   0  0  0  0  0  0  0  0  0  0  0  0
  -18.6164    3.7246   20.7047 C   0  0  0  0  0  0  0  0  0  0  0  0
  -15.7348    2.4377   17.9028 C   0  0  0  0  0  0  0  0  0  0  0  0
  -14.7991    2.0036   17.0049 F   0  0  0  0  0  0  0  0  0  0  0  0
  -15.3593    2.5867   19.1981 C   0  0  0  0  0  0  0  0  0  0  0  0
  -20.3007   -3.6837   22.9173 H   0  0  0  0  0  0  0  0  0  0  0  0
  -19.8204   -3.3790   24.4624 H   0  0  0  0  0  0  0  0  0  0  0  0
  -19.4566   -1.5646   22.6622 H   0  0  0  0  0  0  0  0  0  0  0  0
  -19.6186    0.8956   23.7136 H   0  0  0  0  0  0  0  0  0  0  0  0
  -18.0719    1.7736   24.0103 H   0  0  0  0  0  0  0  0  0  0  0  0
  -17.4855   -0.4153   20.6172 H   0  0  0  0  0  0  0  0  0  0  0  0
  -19.0403   -1.2823   20.2839 H   0  0  0  0  0  0  0  0  0  0  0  0
  -20.1208    3.1107   23.7023 H   0  0  0  0  0  0  0  0  0  0  0  0
  -20.3132    6.5565   21.3383 H   0  0  0  0  0  0  0  0  0  0  0  0
  -18.9995    3.2548   18.0769 H   0  0  0  0  0  0  0  0  0  0  0  0
  -17.2565    2.4279   16.4124 H   0  0  0  0  0  0  0  0  0  0  0  0
  -15.9405    3.3154   21.1500 H   0  0  0  0  0  0  0  0  0  0  0  0
  -18.8998   -6.0178   24.4517 H   0  0  0  0  0  0  0  0  0  0  0  0
  -16.7168   -5.0507   23.6913 H   0  0  0  0  0  0  0  0  0  0  0  0
  -17.1240   -5.3896   22.1121 H   0  0  0  0  0  0  0  0  0  0  0  0
  -17.8539   -0.6996   24.3440 H   0  0  0  0  0  0  0  0  0  0  0  0
  -16.7980   -0.0613   23.0121 H   0  0  0  0  0  0  0  0  0  0  0  0
  -19.2572    1.1955   20.0333 H   0  0  0  0  0  0  0  0  0  0  0  0
  -20.3136    0.5259   21.3322 H   0  0  0  0  0  0  0  0  0  0  0  0
  -14.3391    2.3185   19.5097 H   0  0  0  0  0  0  0  0  0  0  0  0
  1 13  1  0
  1 15  1  0
  3  2  1  0
  2 15  1  0
  2 16  2  0
  3  5  1  0
  3 17  1  0
  4 17  1  0
  4 18  1  0
  5 19  1  0
  6 20  2  0
  6 21  1  0
  7 21  2  0
  7 22  1  0
  8  9  2  0
  8 11  1  0
  8 23  1  0
  9 10  1  0
 10 24  2  0
 11 26  2  0
 13 12  1  0
 13 14  1  0
 14 15  1  0
 18 19  1  0
 18 20  1  0
 20 23  1  0
 22 23  2  0
 24 25  1  0
 24 26  1  0
  1 27  1  0
  1 28  1  0
  3 29  1  1
  4 30  1  0
  4 31  1  0
  5 32  1  0
  5 33  1  0
  6 34  1  0
  7 35  1  0
  9 36  1  0
 10 37  1  0
 11 38  1  0
 13 39  1  1
 14 40  1  0
 14 41  1  0
 17 42  1  0
 17 43  1  0
 19 44  1  0
 19 45  1  0
 26 46  1  0
M  END
>  <filename_input>  (6) 
7N6F_0I1_docked.sdf

>  <pdb_id>  (6) 
7N6F_0I1

>  <pose_rank>  (6) 
5

>  <num_atoms_heavy>  (6) 
26

>  <num_torsions>  (6) 
3

>  <pose>  (6) 
[-18.444249508347127, -1.273154042118132, 22.345669726637396, -1.947374021887968, -1.365173886685339, -2.5291126759117586, 0.5492596033851944, -6.45514784439182, 2.710131761088604]

>  <energy>  (6) 
-541.1967076633697

>  <inter_energy>  (6) 
-551.3513070968751

>  <intra_energy>  (6) 
10.55418708707133

>  <rmsd>  (6) 
8.04681

>  <sdf_rank>  (6) 
0

$$$$

     RDKit          3D

 46 49  0  0  0  0  0  0  0  0999 V2000
  -16.7732   -3.4953   22.6510 C   0  0  0  0  0  0  0  0  0  0  0  0
  -14.8343   -1.9001   21.9310 C   0  0  0  0  0  0  0  0  0  0  0  0
  -15.7651   -0.7102   21.9637 C   0  0  2  0  0  0  0  0  0  0  0  0
  -15.8318    1.8354   22.1272 C   0  0  0  0  0  0  0  0  0  0  0  0
  -16.5156   -0.5691   20.6387 C   0  0  0  0  0  0  0  0  0  0  0  0
  -16.4053    4.1381   19.8690 C   0  0  0  0  0  0  0  0  0  0  0  0
  -18.2236    5.5378   19.8394 C   0  0  0  0  0  0  0  0  0  0  0  0
  -19.5108    2.2864   21.0784 C   0  0  0  0  0  0  0  0  0  0  0  0
  -20.5210    1.9200   20.2045 C   0  0  0  0  0  0  0  0  0  0  0  0
  -21.4528    0.9181   20.5981 C   0  0  0  0  0  0  0  0  0  0  0  0
  -19.3657    1.6342   22.3193 C   0  0  0  0  0  0  0  0  0  0  0  0
  -16.6881   -5.5777   21.4844 F   0  0  0  0  0  0  0  0  0  0  0  0
  -16.1530   -4.9533   22.5671 C   0  0  1  0  0  0  0  0  0  0  0  0
  -14.7665   -4.3634   22.3352 C   0  0  0  0  0  0  0  0  0  0  0  0
  -15.3705   -3.0342   22.3493 N   0  0  0  0  0  0  0  0  0  0  0  0
  -13.6379   -1.8091   21.6514 O   0  0  0  0  0  0  0  0  0  0  0  0
  -14.9503    0.5759   22.1876 C   0  0  0  0  0  0  0  0  0  0  0  0
  -16.5463    1.8943   20.8601 N   0  0  0  0  0  0  0  0  0  0  0  0
  -17.3791    0.7021   20.6145 C   0  0  0  0  0  0  0  0  0  0  0  0
  -17.1545    3.1098   20.4618 C   0  0  0  0  0  0  0  0  0  0  0  0
  -16.9542    5.3235   19.5434 N   0  0  0  0  0  0  0  0  0  0  0  0
  -19.0471    4.5911   20.3948 N   0  0  0  0  0  0  0  0  0  0  0  0
  -18.5336    3.3375   20.6696 C   0  0  0  0  0  0  0  0  0  0  0  0
  -21.2844    0.3431   21.7994 C   0  0  0  0  0  0  0  0  0  0  0  0
  -22.1822   -0.6156   22.1804 F   0  0  0  0  0  0  0  0  0  0  0  0
  -20.3244    0.7101   22.6852 C   0  0  0  0  0  0  0  0  0  0  0  0
  -17.5214   -3.2582   21.8803 H   0  0  0  0  0  0  0  0  0  0  0  0
  -17.3534   -3.1359   23.5137 H   0  0  0  0  0  0  0  0  0  0  0  0
  -16.4853   -0.8649   22.7806 H   0  0  0  0  0  0  0  0  0  0  0  0
  -16.5588    1.8090   22.9524 H   0  0  0  0  0  0  0  0  0  0  0  0
  -15.1905    2.7246   22.2171 H   0  0  0  0  0  0  0  0  0  0  0  0
  -15.7855   -0.5213   19.8173 H   0  0  0  0  0  0  0  0  0  0  0  0
  -17.1783   -1.4394   20.5224 H   0  0  0  0  0  0  0  0  0  0  0  0
  -15.3376    3.9704   19.6642 H   0  0  0  0  0  0  0  0  0  0  0  0
  -18.6445    6.5320   19.6287 H   0  0  0  0  0  0  0  0  0  0  0  0
  -20.6024    2.3980   19.2171 H   0  0  0  0  0  0  0  0  0  0  0  0
  -22.2836    0.6247   19.9394 H   0  0  0  0  0  0  0  0  0  0  0  0
  -18.5127    1.8551   22.9779 H   0  0  0  0  0  0  0  0  0  0  0  0
  -16.2639   -5.7051   23.3624 H   0  0  0  0  0  0  0  0  0  0  0  0
  -14.0520   -4.5469   23.1511 H   0  0  0  0  0  0  0  0  0  0  0  0
  -14.1397   -4.6953   21.4944 H   0  0  0  0  0  0  0  0  0  0  0  0
  -14.4712    0.5250   23.1764 H   0  0  0  0  0  0  0  0  0  0  0  0
  -14.2012    0.6472   21.3852 H   0  0  0  0  0  0  0  0  0  0  0  0
  -17.8617    0.7937   19.6302 H   0  0  0  0  0  0  0  0  0  0  0  0
  -18.1414    0.6306   21.4042 H   0  0  0  0  0  0  0  0  0  0  0  0
  -20.3098    0.2718   23.6940 H   0  0  0  0  0  0  0  0  0  0  0  0
  1 13  1  0
  1 15  1  0
  3  2  1  0
  2 15  1  0
  2 16  2  0
  3  5  1  0
  3 17  1  0
  4 17  1  0
  4 18  1  0
  5 19  1  0
  6 20  2  0
  6 21  1  0
  7 21  2  0
  7 22  1  0
  8  9  2  0
  8 11  1  0
  8 23  1  0
  9 10  1  0
 10 24  2  0
 11 26  2  0
 13 12  1  0
 13 14  1  0
 14 15  1  0
 18 19  1  0
 18 20  1  0
 20 23  1  0
 22 23  2  0
 24 25  1  0
 24 26  1  0
  1 27  1  0
  1 28  1  0
  3 29  1  1
  4 30  1  0
  4 31  1  0
  5 32  1  0
  5 33  1  0
  6 34  1  0
  7 35  1  0
  9 36  1  0
 10 37  1  0
 11 38  1  0
 13 39  1  1
 14 40  1  0
 14 41  1  0
 17 42  1  0
 17 43  1  0
 19 44  1  0
 19 45  1  0
 26 46  1  0
M  END
>  <filename_input>  (7) 
7N6F_0I1_docked.sdf

>  <pdb_id>  (7) 
7N6F_0I1

>  <pose_rank>  (7) 
6

>  <num_atoms_heavy>  (7) 
26

>  <num_torsions>  (7) 
3

>  <pose>  (7) 
[-15.765052015390582, -0.7102325494352305, 21.963658508047192, -2.24643916568189, -1.9153135416730425, -1.7164255184822532, 1.3632237892292676, -4.593420800726518, -1.355569816361697]

>  <energy>  (7) 
-519.4893366903711

>  <inter_energy>  (7) 
-603.6065170796064

>  <intra_energy>  (7) 
85.58351638851167

>  <rmsd>  (7) 
6.97705

>  <sdf_rank>  (7) 
0

$$$$

     RDKit          3D

 46 49  0  0  0  0  0  0  0  0999 V2000
  -18.4930   -4.2786   22.1633 C   0  0  0  0  0  0  0  0  0  0  0  0
  -20.3283   -2.8610   23.3654 C   0  0  0  0  0  0  0  0  0  0  0  0
  -20.1259   -1.7237   22.3914 C   0  0  2  0  0  0  0  0  0  0  0  0
  -20.4306    0.7913   22.0856 C   0  0  0  0  0  0  0  0  0  0  0  0
  -18.6382   -1.5004   22.1160 C   0  0  0  0  0  0  0  0  0  0  0  0
  -19.3493    3.2524   21.1089 C   0  0  0  0  0  0  0  0  0  0  0  0
  -17.6597    4.4507   20.1212 C   0  0  0  0  0  0  0  0  0  0  0  0
  -16.0825    1.2927   21.2624 C   0  0  0  0  0  0  0  0  0  0  0  0
  -15.6879    0.3675   20.3102 C   0  0  0  0  0  0  0  0  0  0  0  0
  -14.6690   -0.5730   20.6334 C   0  0  0  0  0  0  0  0  0  0  0  0
  -15.4429    1.3464   22.5171 C   0  0  0  0  0  0  0  0  0  0  0  0
  -17.1291   -5.4684   23.7217 F   0  0  0  0  0  0  0  0  0  0  0  0
  -18.3176   -5.5693   23.0692 C   0  0  1  0  0  0  0  0  0  0  0  0
  -19.5306   -5.1662   23.8999 C   0  0  0  0  0  0  0  0  0  0  0  0
  -19.6313   -3.9519   23.0955 N   0  0  0  0  0  0  0  0  0  0  0  0
  -21.1609   -2.8277   24.2728 O   0  0  0  0  0  0  0  0  0  0  0  0
  -20.6989   -0.4258   22.9876 C   0  0  0  0  0  0  0  0  0  0  0  0
  -19.0039    0.9294   21.8311 N   0  0  0  0  0  0  0  0  0  0  0  0
  -18.4107   -0.2739   21.2182 C   0  0  0  0  0  0  0  0  0  0  0  0
  -18.5075    2.1457   21.3017 C   0  0  0  0  0  0  0  0  0  0  0  0
  -18.9087    4.3939   20.5476 N   0  0  0  0  0  0  0  0  0  0  0  0
  -16.7515    3.4353   20.2848 N   0  0  0  0  0  0  0  0  0  0  0  0
  -17.1514    2.2787   20.9275 C   0  0  0  0  0  0  0  0  0  0  0  0
  -14.1068   -0.4943   21.8499 C   0  0  0  0  0  0  0  0  0  0  0  0
  -13.1318   -1.4008   22.1630 F   0  0  0  0  0  0  0  0  0  0  0  0
  -14.5010    0.3799   22.8097 C   0  0  0  0  0  0  0  0  0  0  0  0
  -17.6506   -3.5716   22.1851 H   0  0  0  0  0  0  0  0  0  0  0  0
  -18.6026   -4.3201   21.0696 H   0  0  0  0  0  0  0  0  0  0  0  0
  -20.6391   -1.9841   21.4540 H   0  0  0  0  0  0  0  0  0  0  0  0
  -20.9581    0.6574   21.1296 H   0  0  0  0  0  0  0  0  0  0  0  0
  -20.7921    1.6980   22.5928 H   0  0  0  0  0  0  0  0  0  0  0  0
  -18.1168   -1.3453   23.0722 H   0  0  0  0  0  0  0  0  0  0  0  0
  -18.2460   -2.3869   21.5962 H   0  0  0  0  0  0  0  0  0  0  0  0
  -20.4004    3.1848   21.4260 H   0  0  0  0  0  0  0  0  0  0  0  0
  -17.3289    5.3643   19.6055 H   0  0  0  0  0  0  0  0  0  0  0  0
  -16.1565    0.3595   19.3151 H   0  0  0  0  0  0  0  0  0  0  0  0
  -14.3528   -1.3390   19.9100 H   0  0  0  0  0  0  0  0  0  0  0  0
  -15.6871    2.1361   23.2430 H   0  0  0  0  0  0  0  0  0  0  0  0
  -18.2891   -6.5924   22.6662 H   0  0  0  0  0  0  0  0  0  0  0  0
  -20.3910   -5.8454   23.8077 H   0  0  0  0  0  0  0  0  0  0  0  0
  -19.4791   -5.1195   24.9977 H   0  0  0  0  0  0  0  0  0  0  0  0
  -21.7855   -0.5422   23.1128 H   0  0  0  0  0  0  0  0  0  0  0  0
  -20.2034   -0.2483   23.9535 H   0  0  0  0  0  0  0  0  0  0  0  0
  -17.3301   -0.1176   21.0851 H   0  0  0  0  0  0  0  0  0  0  0  0
  -18.8899   -0.4512   20.2440 H   0  0  0  0  0  0  0  0  0  0  0  0
  -14.0708    0.3187   23.8202 H   0  0  0  0  0  0  0  0  0  0  0  0
  1 13  1  0
  1 15  1  0
  3  2  1  0
  2 15  1  0
  2 16  2  0
  3  5  1  0
  3 17  1  0
  4 17  1  0
  4 18  1  0
  5 19  1  0
  6 20  2  0
  6 21  1  0
  7 21  2  0
  7 22  1  0
  8  9  2  0
  8 11  1  0
  8 23  1  0
  9 10  1  0
 10 24  2  0
 11 26  2  0
 13 12  1  0
 13 14  1  0
 14 15  1  0
 18 19  1  0
 18 20  1  0
 20 23  1  0
 22 23  2  0
 24 25  1  0
 24 26  1  0
  1 27  1  0
  1 28  1  0
  3 29  1  6
  4 30  1  0
  4 31  1  0
  5 32  1  0
  5 33  1  0
  6 34  1  0
  7 35  1  0
  9 36  1  0
 10 37  1  0
 11 38  1  0
 13 39  1  6
 14 40  1  0
 14 41  1  0
 17 42  1  0
 17 43  1  0
 19 44  1  0
 19 45  1  0
 26 46  1  0
M  END
>  <filename_input>  (8) 
7N6F_0I1_docked.sdf

>  <pdb_id>  (8) 
7N6F_0I1

>  <pose_rank>  (8) 
7

>  <num_atoms_heavy>  (8) 
26

>  <num_torsions>  (8) 
3

>  <pose>  (8) 
[-20.125894119411832, -1.7236861268802879, 22.391372649187367, 0.2829748273482457, -1.154669252734066, -4.0232342188172545, 2.1186897172554877, 0.36046509102168245, 2.3751571788913135]

>  <energy>  (8) 
-509.9752337664462

>  <inter_energy>  (8) 
-591.3992397205236

>  <intra_energy>  (8) 
83.82980116257019

>  <rmsd>  (8) 
7.09321

>  <sdf_rank>  (8) 
0

$$$$

     RDKit          3D

 46 49  0  0  0  0  0  0  0  0999 V2000
  -19.0237   -3.3986   23.1631 C   0  0  0  0  0  0  0  0  0  0  0  0
  -16.4469   -3.4804   22.7436 C   0  0  0  0  0  0  0  0  0  0  0  0
  -16.4390   -2.0241   22.3408 C   0  0  2  0  0  0  0  0  0  0  0  0
  -14.9079   -0.0569   21.7956 C   0  0  0  0  0  0  0  0  0  0  0  0
  -17.0448   -1.8406   20.9486 C   0  0  0  0  0  0  0  0  0  0  0  0
  -14.3504    1.2032   18.6588 C   0  0  0  0  0  0  0  0  0  0  0  0
  -14.6447    3.4469   18.2773 C   0  0  0  0  0  0  0  0  0  0  0  0
  -17.1425    2.5592   20.8726 C   0  0  0  0  0  0  0  0  0  0  0  0
  -17.2095    3.6343   21.7432 C   0  0  0  0  0  0  0  0  0  0  0  0
  -18.3294    3.7567   22.6139 C   0  0  0  0  0  0  0  0  0  0  0  0
  -18.1980    1.6278   20.8022 C   0  0  0  0  0  0  0  0  0  0  0  0
  -20.1097   -5.3851   22.4023 F   0  0  0  0  0  0  0  0  0  0  0  0
  -19.4327   -4.8992   23.4766 C   0  0  1  0  0  0  0  0  0  0  0  0
  -17.9633   -5.3011   23.5321 C   0  0  0  0  0  0  0  0  0  0  0  0
  -17.6131   -3.9289   23.1767 N   0  0  0  0  0  0  0  0  0  0  0  0
  -15.4280   -4.1720   22.7815 O   0  0  0  0  0  0  0  0  0  0  0  0
  -14.9899   -1.5079   22.3004 C   0  0  0  0  0  0  0  0  0  0  0  0
  -15.5315    0.0604   20.4853 N   0  0  0  0  0  0  0  0  0  0  0  0
  -16.9386   -0.3816   20.4773 C   0  0  0  0  0  0  0  0  0  0  0  0
  -15.2894    1.2154   19.7021 C   0  0  0  0  0  0  0  0  0  0  0  0
  -14.0616    2.3086   17.9468 N   0  0  0  0  0  0  0  0  0  0  0  0
  -15.5935    3.5595   19.2622 N   0  0  0  0  0  0  0  0  0  0  0  0
  -15.9692    2.4270   19.9601 C   0  0  0  0  0  0  0  0  0  0  0  0
  -19.2974    2.8310   22.5233 C   0  0  0  0  0  0  0  0  0  0  0  0
  -20.3709    2.9449   23.3630 F   0  0  0  0  0  0  0  0  0  0  0  0
  -19.2367    1.7514   21.7037 C   0  0  0  0  0  0  0  0  0  0  0  0
  -19.3700   -3.0102   22.1940 H   0  0  0  0  0  0  0  0  0  0  0  0
  -19.3523   -2.5442   23.7731 H   0  0  0  0  0  0  0  0  0  0  0  0
  -17.0337   -1.4647   23.0781 H   0  0  0  0  0  0  0  0  0  0  0  0
  -15.4280    0.6036   22.5050 H   0  0  0  0  0  0  0  0  0  0  0  0
  -13.8501    0.2337   21.7148 H   0  0  0  0  0  0  0  0  0  0  0  0
  -16.5086   -2.4862   20.2374 H   0  0  0  0  0  0  0  0  0  0  0  0
  -18.1098   -2.1117   20.9965 H   0  0  0  0  0  0  0  0  0  0  0  0
  -13.8351    0.2623   18.4158 H   0  0  0  0  0  0  0  0  0  0  0  0
  -14.3530    4.3565   17.7319 H   0  0  0  0  0  0  0  0  0  0  0  0
  -16.4061    4.3855   21.7618 H   0  0  0  0  0  0  0  0  0  0  0  0
  -18.3991    4.5826   23.3371 H   0  0  0  0  0  0  0  0  0  0  0  0
  -18.1944    0.8250   20.0502 H   0  0  0  0  0  0  0  0  0  0  0  0
  -20.0755   -5.1876   24.3213 H   0  0  0  0  0  0  0  0  0  0  0  0
  -17.6152   -5.6161   24.5269 H   0  0  0  0  0  0  0  0  0  0  0  0
  -17.5838   -6.1545   22.9509 H   0  0  0  0  0  0  0  0  0  0  0  0
  -14.5677   -1.5552   23.3150 H   0  0  0  0  0  0  0  0  0  0  0  0
  -14.4229   -2.1423   21.6031 H   0  0  0  0  0  0  0  0  0  0  0  0
  -17.3380   -0.3009   19.4555 H   0  0  0  0  0  0  0  0  0  0  0  0
  -17.5170    0.2571   21.1610 H   0  0  0  0  0  0  0  0  0  0  0  0
  -20.0143    0.9753   21.7573 H   0  0  0  0  0  0  0  0  0  0  0  0
  1 13  1  0
  1 15  1  0
  3  2  1  0
  2 15  1  0
  2 16  2  0
  3  5  1  0
  3 17  1  0
  4 17  1  0
  4 18  1  0
  5 19  1  0
  6 20  2  0
  6 21  1  0
  7 21  2  0
  7 22  1  0
  8  9  2  0
  8 11  1  0
  8 23  1  0
  9 10  1  0
 10 24  2  0
 11 26  2  0
 13 12  1  0
 13 14  1  0
 14 15  1  0
 18 19  1  0
 18 20  1  0
 20 23  1  0
 22 23  2  0
 24 25  1  0
 24 26  1  0
  1 27  1  0
  1 28  1  0
  3 29  1  1
  4 30  1  0
  4 31  1  0
  5 32  1  0
  5 33  1  0
  6 34  1  0
  7 35  1  0
  9 36  1  0
 10 37  1  0
 11 38  1  0
 13 39  1  1
 14 40  1  0
 14 41  1  0
 17 42  1  0
 17 43  1  0
 19 44  1  0
 19 45  1  0
 26 46  1  0
M  END
>  <filename_input>  (9) 
7N6F_0I1_docked.sdf

>  <pdb_id>  (9) 
7N6F_0I1

>  <pose_rank>  (9) 
8

>  <num_atoms_heavy>  (9) 
26

>  <num_torsions>  (9) 
3

>  <pose>  (9) 
[-16.43904593664929, -2.0241017841897677, 22.340834096942547, -3.2895738399028236, -1.6197076772512282, -1.474739978063658, 1.5583775687461663, -4.26132227790465, 3.0358763834266913]

>  <energy>  (9) 
-436.2017064614663

>  <inter_energy>  (9) 
-531.4879113935793

>  <intra_energy>  (9) 
104.16447671134065

>  <rmsd>  (9) 
6.79568

>  <sdf_rank>  (9) 
0

$$$$

     RDKit          3D

 46 49  0  0  0  0  0  0  0  0999 V2000
  -19.7188   -5.4142   24.1599 C   0  0  0  0  0  0  0  0  0  0  0  0
  -19.8583   -2.8458   24.6138 C   0  0  0  0  0  0  0  0  0  0  0  0
  -18.5661   -2.6160   23.8650 C   0  0  2  0  0  0  0  0  0  0  0  0
  -17.5799   -2.2741   21.5365 C   0  0  0  0  0  0  0  0  0  0  0  0
  -17.9510   -1.2673   24.2410 C   0  0  0  0  0  0  0  0  0  0  0  0
  -14.8424   -0.9680   20.8303 C   0  0  0  0  0  0  0  0  0  0  0  0
  -14.1029    0.9075   19.7340 C   0  0  0  0  0  0  0  0  0  0  0  0
  -17.6080    1.6529   20.6944 C   0  0  0  0  0  0  0  0  0  0  0  0
  -17.8470    2.5712   21.7033 C   0  0  0  0  0  0  0  0  0  0  0  0
  -19.1023    3.2413   21.7519 C   0  0  0  0  0  0  0  0  0  0  0  0
  -18.5697    1.4263   19.6895 C   0  0  0  0  0  0  0  0  0  0  0  0
  -20.3983   -6.6893   26.0618 F   0  0  0  0  0  0  0  0  0  0  0  0
  -20.9196   -6.0395   24.9873 C   0  0  1  0  0  0  0  0  0  0  0  0
  -21.4533   -4.6440   25.2906 C   0  0  0  0  0  0  0  0  0  0  0  0
  -20.3032   -4.0906   24.5815 N   0  0  0  0  0  0  0  0  0  0  0  0
  -20.5139   -1.9324   25.1174 O   0  0  0  0  0  0  0  0  0  0  0  0
  -18.8419   -2.6071   22.3511 C   0  0  0  0  0  0  0  0  0  0  0  0
  -17.0219   -0.9993   21.9642 N   0  0  0  0  0  0  0  0  0  0  0  0
  -16.6980   -0.9678   23.4028 C   0  0  0  0  0  0  0  0  0  0  0  0
  -16.0632   -0.3518   21.1470 C   0  0  0  0  0  0  0  0  0  0  0  0
  -13.8939   -0.3418   20.1088 N   0  0  0  0  0  0  0  0  0  0  0  0
  -15.2700    1.5893   19.9708 N   0  0  0  0  0  0  0  0  0  0  0  0
  -16.2940    0.9475   20.6417 C   0  0  0  0  0  0  0  0  0  0  0  0
  -19.9931    2.9739   20.7839 C   0  0  0  0  0  0  0  0  0  0  0  0
  -21.2011    3.6132   20.8330 F   0  0  0  0  0  0  0  0  0  0  0  0
  -19.7944    2.0535   19.8071 C   0  0  0  0  0  0  0  0  0  0  0  0
  -18.7146   -5.6307   24.5532 H   0  0  0  0  0  0  0  0  0  0  0  0
  -19.5092   -5.6742   23.1118 H   0  0  0  0  0  0  0  0  0  0  0  0
  -17.8706   -3.4254   24.1318 H   0  0  0  0  0  0  0  0  0  0  0  0
  -16.8317   -3.0662   21.6872 H   0  0  0  0  0  0  0  0  0  0  0  0
  -17.8496   -2.2066   20.4722 H   0  0  0  0  0  0  0  0  0  0  0  0
  -18.6942   -0.4748   24.0689 H   0  0  0  0  0  0  0  0  0  0  0  0
  -17.6574   -1.3045   25.3004 H   0  0  0  0  0  0  0  0  0  0  0  0
  -14.6551   -1.9932   21.1821 H   0  0  0  0  0  0  0  0  0  0  0  0
  -13.2953    1.4313   19.2016 H   0  0  0  0  0  0  0  0  0  0  0  0
  -17.0754    2.7806   22.4588 H   0  0  0  0  0  0  0  0  0  0  0  0
  -19.3346    3.9548   22.5563 H   0  0  0  0  0  0  0  0  0  0  0  0
  -18.3510    0.7685   18.8354 H   0  0  0  0  0  0  0  0  0  0  0  0
  -21.6213   -6.7778   24.5720 H   0  0  0  0  0  0  0  0  0  0  0  0
  -22.4251   -4.4182   24.8272 H   0  0  0  0  0  0  0  0  0  0  0  0
  -21.6901   -4.3360   26.3197 H   0  0  0  0  0  0  0  0  0  0  0  0
  -19.2063   -3.6006   22.0508 H   0  0  0  0  0  0  0  0  0  0  0  0
  -19.5925   -1.8292   22.1474 H   0  0  0  0  0  0  0  0  0  0  0  0
  -16.3154    0.0292   23.6664 H   0  0  0  0  0  0  0  0  0  0  0  0
  -15.9365   -1.7330   23.6138 H   0  0  0  0  0  0  0  0  0  0  0  0
  -20.6083    1.8070   19.1093 H   0  0  0  0  0  0  0  0  0  0  0  0
  1 13  1  0
  1 15  1  0
  3  2  1  0
  2 15  1  0
  2 16  2  0
  3  5  1  0
  3 17  1  0
  4 17  1  0
  4 18  1  0
  5 19  1  0
  6 20  2  0
  6 21  1  0
  7 21  2  0
  7 22  1  0
  8  9  2  0
  8 11  1  0
  8 23  1  0
  9 10  1  0
 10 24  2  0
 11 26  2  0
 13 12  1  0
 13 14  1  0
 14 15  1  0
 18 19  1  0
 18 20  1  0
 20 23  1  0
 22 23  2  0
 24 25  1  0
 24 26  1  0
  1 27  1  0
  1 28  1  0
  3 29  1  6
  4 30  1  0
  4 31  1  0
  5 32  1  0
  5 33  1  0
  6 34  1  0
  7 35  1  0
  9 36  1  0
 10 37  1  0
 11 38  1  0
 13 39  1  6
 14 40  1  0
 14 41  1  0
 17 42  1  0
 17 43  1  0
 19 44  1  0
 19 45  1  0
 26 46  1  0
M  END
>  <filename_input>  (10) 
7N6F_0I1_docked.sdf

>  <pdb_id>  (10) 
7N6F_0I1

>  <pose_rank>  (10) 
9

>  <num_atoms_heavy>  (10) 
26

>  <num_torsions>  (10) 
3

>  <pose>  (10) 
[-18.566119142691345, -2.6160301593898034, 23.865045470229788, 2.9449917971332, -0.9520300580891077, -1.5498352803139335, 0.04706651294919332, -0.7703665874132476, 2.3536041660761353]

>  <energy>  (10) 
-505.0683343816361

>  <inter_energy>  (10) 
-505.5639004628137

>  <intra_energy>  (10) 
3.671417676033519

>  <rmsd>  (10) 
6.91678

>  <sdf_rank>  (10) 
0

$$$$

     RDKit          3D

 46 49  0  0  0  0  0  0  0  0999 V2000
  -15.3980   -3.6758   22.7649 C   0  0  0  0  0  0  0  0  0  0  0  0
  -14.2631   -1.5715   21.7129 C   0  0  0  0  0  0  0  0  0  0  0  0
  -15.5487   -0.7863   21.8303 C   0  0  2  0  0  0  0  0  0  0  0  0
  -17.8919   -0.5328   20.8521 C   0  0  0  0  0  0  0  0  0  0  0  0
  -16.2218   -1.0416   23.1797 C   0  0  0  0  0  0  0  0  0  0  0  0
  -20.6432   -1.4130   23.1109 C   0  0  0  0  0  0  0  0  0  0  0  0
  -22.5219   -0.1626   22.6948 C   0  0  0  0  0  0  0  0  0  0  0  0
  -19.7086    1.7949   21.2747 C   0  0  0  0  0  0  0  0  0  0  0  0
  -18.7619    2.4601   22.0359 C   0  0  0  0  0  0  0  0  0  0  0  0
  -18.0576    3.5589   21.4668 C   0  0  0  0  0  0  0  0  0  0  0  0
  -19.9318    2.1584   19.9314 C   0  0  0  0  0  0  0  0  0  0  0  0
  -14.7086   -5.6899   21.6821 F   0  0  0  0  0  0  0  0  0  0  0  0
  -14.3094   -4.8245   22.6517 C   0  0  1  0  0  0  0  0  0  0  0  0
  -13.2661   -3.8083   22.2013 C   0  0  0  0  0  0  0  0  0  0  0  0
  -14.3016   -2.7801   22.2482 N   0  0  0  0  0  0  0  0  0  0  0  0
  -13.2219   -1.0914   21.2623 O   0  0  0  0  0  0  0  0  0  0  0  0
  -16.5234   -1.2238   20.7227 C   0  0  0  0  0  0  0  0  0  0  0  0
  -18.4639   -0.7826   22.1674 N   0  0  0  0  0  0  0  0  0  0  0  0
  -17.5870   -0.3413   23.2682 C   0  0  0  0  0  0  0  0  0  0  0  0
  -19.8377   -0.5187   22.3886 C   0  0  0  0  0  0  0  0  0  0  0  0
  -21.9638   -1.2096   23.2755 N   0  0  0  0  0  0  0  0  0  0  0  0
  -21.8198    0.7826   21.9902 N   0  0  0  0  0  0  0  0  0  0  0  0
  -20.4499    0.6440   21.8688 C   0  0  0  0  0  0  0  0  0  0  0  0
  -18.3227    3.8796   20.1905 C   0  0  0  0  0  0  0  0  0  0  0  0
  -17.6505    4.9382   19.6449 F   0  0  0  0  0  0  0  0  0  0  0  0
  -19.2697    3.2652   19.4378 C   0  0  0  0  0  0  0  0  0  0  0  0
  -16.2673   -3.7855   22.0999 H   0  0  0  0  0  0  0  0  0  0  0  0
  -15.9617   -3.4683   23.6864 H   0  0  0  0  0  0  0  0  0  0  0  0
  -15.3038    0.2820   21.7370 H   0  0  0  0  0  0  0  0  0  0  0  0
  -17.7656    0.5508   20.7116 H   0  0  0  0  0  0  0  0  0  0  0  0
  -18.5696   -0.9368   20.0856 H   0  0  0  0  0  0  0  0  0  0  0  0
  -16.3664   -2.1245   23.3080 H   0  0  0  0  0  0  0  0  0  0  0  0
  -15.5739   -0.6372   23.9712 H   0  0  0  0  0  0  0  0  0  0  0  0
  -20.1815   -2.3068   23.5559 H   0  0  0  0  0  0  0  0  0  0  0  0
  -23.6118   -0.0415   22.7811 H   0  0  0  0  0  0  0  0  0  0  0  0
  -18.5563    2.1430   23.0690 H   0  0  0  0  0  0  0  0  0  0  0  0
  -17.3204    4.1264   22.0537 H   0  0  0  0  0  0  0  0  0  0  0  0
  -20.6142    1.5768   19.2941 H   0  0  0  0  0  0  0  0  0  0  0  0
  -14.0471   -5.4942   23.4841 H   0  0  0  0  0  0  0  0  0  0  0  0
  -12.4418   -3.6565   22.9137 H   0  0  0  0  0  0  0  0  0  0  0  0
  -12.6665   -3.9718   21.2936 H   0  0  0  0  0  0  0  0  0  0  0  0
  -16.0878   -0.9685   19.7454 H   0  0  0  0  0  0  0  0  0  0  0  0
  -16.6804   -2.3084   20.8178 H   0  0  0  0  0  0  0  0  0  0  0  0
  -18.0599   -0.5893   24.2299 H   0  0  0  0  0  0  0  0  0  0  0  0
  -17.4361    0.7455   23.1903 H   0  0  0  0  0  0  0  0  0  0  0  0
  -19.5099    3.6485   18.4351 H   0  0  0  0  0  0  0  0  0  0  0  0
  1 13  1  0
  1 15  1  0
  3  2  1  0
  2 15  1  0
  2 16  2  0
  3  5  1  0
  3 17  1  0
  4 17  1  0
  4 18  1  0
  5 19  1  0
  6 20  2  0
  6 21  1  0
  7 21  2  0
  7 22  1  0
  8  9  2  0
  8 11  1  0
  8 23  1  0
  9 10  1  0
 10 24  2  0
 11 26  2  0
 13 12  1  0
 13 14  1  0
 14 15  1  0
 18 19  1  0
 18 20  1  0
 20 23  1  0
 22 23  2  0
 24 25  1  0
 24 26  1  0
  1 27  1  0
  1 28  1  0
  3 29  1  6
  4 30  1  0
  4 31  1  0
  5 32  1  0
  5 33  1  0
  6 34  1  0
  7 35  1  0
  9 36  1  0
 10 37  1  0
 11 38  1  0
 13 39  1  1
 14 40  1  0
 14 41  1  0
 17 42  1  0
 17 43  1  0
 19 44  1  0
 19 45  1  0
 26 46  1  0
M  END
>  <filename_input>  (11) 
7N6F_0I1_docked.sdf

>  <pdb_id>  (11) 
7N6F_0I1

>  <pose_rank>  (11) 
10

>  <num_atoms_heavy>  (11) 
26

>  <num_torsions>  (11) 
3

>  <pose>  (11) 
[-15.548733248429057, -0.7862703421482468, 21.830342095187902, -1.304350531980319, -2.3374491569815676, 1.9763090715473801, -2.6860603721646004, -3.6122748010933265, -0.3677943325967799]

>  <energy>  (11) 
-465.2185980149553

>  <inter_energy>  (11) 
-537.6051345771042

>  <intra_energy>  (11) 
80.06255109251302

>  <rmsd>  (11) 
7.5565

>  <sdf_rank>  (11) 
0

$$$$

     RDKit          3D

 46 49  0  0  0  0  0  0  0  0999 V2000
  -16.6009   -3.2189   22.1546 C   0  0  0  0  0  0  0  0  0  0  0  0
  -16.7482   -1.4146   24.0375 C   0  0  0  0  0  0  0  0  0  0  0  0
  -17.1114   -0.3512   23.0272 C   0  0  2  0  0  0  0  0  0  0  0  0
  -16.3819    0.7231   20.8306 C   0  0  0  0  0  0  0  0  0  0  0  0
  -18.4347   -0.6849   22.3369 C   0  0  0  0  0  0  0  0  0  0  0  0
  -18.2227    0.1576   17.8551 C   0  0  0  0  0  0  0  0  0  0  0  0
  -18.5739    2.0097   16.5463 C   0  0  0  0  0  0  0  0  0  0  0  0
  -18.2700    3.3021   20.0105 C   0  0  0  0  0  0  0  0  0  0  0  0
  -18.5951    4.6274   19.7736 C   0  0  0  0  0  0  0  0  0  0  0  0
  -18.6485    5.5376   20.8673 C   0  0  0  0  0  0  0  0  0  0  0  0
  -18.0541    2.8415   21.3248 C   0  0  0  0  0  0  0  0  0  0  0  0
  -14.7654   -4.7087   22.4954 F   0  0  0  0  0  0  0  0  0  0  0  0
  -16.0558   -4.5204   22.8800 C   0  0  1  0  0  0  0  0  0  0  0  0
  -16.2186   -3.8467   24.2378 C   0  0  0  0  0  0  0  0  0  0  0  0
  -16.6536   -2.6378   23.5441 N   0  0  0  0  0  0  0  0  0  0  0  0
  -16.6609   -1.1908   25.2458 O   0  0  0  0  0  0  0  0  0  0  0  0
  -16.0186   -0.2716   21.9467 C   0  0  0  0  0  0  0  0  0  0  0  0
  -17.6652    0.3743   20.2382 N   0  0  0  0  0  0  0  0  0  0  0  0
  -18.7595    0.3261   21.2259 C   0  0  0  0  0  0  0  0  0  0  0  0
  -18.0372    0.9500   18.9988 C   0  0  0  0  0  0  0  0  0  0  0  0
  -18.5132    0.6946   16.6553 N   0  0  0  0  0  0  0  0  0  0  0  0
  -18.4333    2.8696   17.6063 N   0  0  0  0  0  0  0  0  0  0  0  0
  -18.2114    2.3460   18.8662 C   0  0  0  0  0  0  0  0  0  0  0  0
  -18.4129    5.0536   22.0970 C   0  0  0  0  0  0  0  0  0  0  0  0
  -18.4587    5.9283   23.1474 F   0  0  0  0  0  0  0  0  0  0  0  0
  -18.0587    3.7683   22.3486 C   0  0  0  0  0  0  0  0  0  0  0  0
  -15.8922   -2.7320   21.4686 H   0  0  0  0  0  0  0  0  0  0  0  0
  -17.4629   -3.2260   21.4712 H   0  0  0  0  0  0  0  0  0  0  0  0
  -17.2052    0.6061   23.5608 H   0  0  0  0  0  0  0  0  0  0  0  0
  -16.4415    1.7367   21.2537 H   0  0  0  0  0  0  0  0  0  0  0  0
  -15.6066    0.6839   20.0513 H   0  0  0  0  0  0  0  0  0  0  0  0
  -18.3647   -1.6903   21.8963 H   0  0  0  0  0  0  0  0  0  0  0  0
  -19.2369   -0.6423   23.0883 H   0  0  0  0  0  0  0  0  0  0  0  0
  -18.1279   -0.9349   17.9418 H   0  0  0  0  0  0  0  0  0  0  0  0
  -18.7472    2.4399   15.5489 H   0  0  0  0  0  0  0  0  0  0  0  0
  -18.8098    4.9731   18.7516 H   0  0  0  0  0  0  0  0  0  0  0  0
  -18.8753    6.6023   20.7096 H   0  0  0  0  0  0  0  0  0  0  0  0
  -17.8867    1.7737   21.5295 H   0  0  0  0  0  0  0  0  0  0  0  0
  -16.4987   -5.5184   22.7464 H   0  0  0  0  0  0  0  0  0  0  0  0
  -16.9850   -4.3019   24.8824 H   0  0  0  0  0  0  0  0  0  0  0  0
  -15.3923   -3.8209   24.9635 H   0  0  0  0  0  0  0  0  0  0  0  0
  -15.0775    0.0503   22.4166 H   0  0  0  0  0  0  0  0  0  0  0  0
  -15.9167   -1.2685   21.4929 H   0  0  0  0  0  0  0  0  0  0  0  0
  -19.6895    0.0244   20.7219 H   0  0  0  0  0  0  0  0  0  0  0  0
  -18.8791    1.3233   21.6747 H   0  0  0  0  0  0  0  0  0  0  0  0
  -17.7754    3.4647   23.3672 H   0  0  0  0  0  0  0  0  0  0  0  0
  1 13  1  0
  1 15  1  0
  3  2  1  0
  2 15  1  0
  2 16  2  0
  3  5  1  0
  3 17  1  0
  4 17  1  0
  4 18  1  0
  5 19  1  0
  6 20  2  0
  6 21  1  0
  7 21  2  0
  7 22  1  0
  8  9  2  0
  8 11  1  0
  8 23  1  0
  9 10  1  0
 10 24  2  0
 11 26  2  0
 13 12  1  0
 13 14  1  0
 14 15  1  0
 18 19  1  0
 18 20  1  0
 20 23  1  0
 22 23  2  0
 24 25  1  0
 24 26  1  0
  1 27  1  0
  1 28  1  0
  3 29  1  1
  4 30  1  0
  4 31  1  0
  5 32  1  0
  5 33  1  0
  6 34  1  0
  7 35  1  0
  9 36  1  0
 10 37  1  0
 11 38  1  0
 13 39  1  1
 14 40  1  0
 14 41  1  0
 17 42  1  0
 17 43  1  0
 19 44  1  0
 19 45  1  0
 26 46  1  0
M  END
>  <filename_input>  (12) 
7N6F_0I1_docked.sdf

>  <pdb_id>  (12) 
7N6F_0I1

>  <pose_rank>  (12) 
11

>  <num_atoms_heavy>  (12) 
26

>  <num_torsions>  (12) 
3

>  <pose>  (12) 
[-17.111428497032524, -0.3512299353281638, 23.02723220156156, 1.76303210440412, 1.2956864642564418, -0.10011824932792227, -2.341870363319475, -10.259117736925692, 3.91251518514555]

>  <energy>  (12) 
-338.9709039704876

>  <inter_energy>  (12) 
-493.10494930292646

>  <intra_energy>  (12) 
153.65021647789024

>  <rmsd>  (12) 
7.44256

>  <sdf_rank>  (12) 
0

$$$$

     RDKit          3D

 46 49  0  0  0  0  0  0  0  0999 V2000
  -15.7255   -1.0324   20.7911 C   0  0  0  0  0  0  0  0  0  0  0  0
  -14.1290   -2.8181   21.8325 C   0  0  0  0  0  0  0  0  0  0  0  0
  -15.2498   -3.3599   22.6889 C   0  0  2  0  0  0  0  0  0  0  0  0
  -16.9198   -2.7350   24.5144 C   0  0  0  0  0  0  0  0  0  0  0  0
  -16.4521   -3.7519   21.8288 C   0  0  0  0  0  0  0  0  0  0  0  0
  -19.6149   -4.2924   25.0987 C   0  0  0  0  0  0  0  0  0  0  0  0
  -21.8365   -3.7177   25.1195 C   0  0  0  0  0  0  0  0  0  0  0  0
  -20.1809   -1.1509   23.0139 C   0  0  0  0  0  0  0  0  0  0  0  0
  -21.2932   -0.4659   22.5535 C   0  0  0  0  0  0  0  0  0  0  0  0
  -21.1128    0.7317   21.8047 C   0  0  0  0  0  0  0  0  0  0  0  0
  -18.8852   -0.6397   22.7992 C   0  0  0  0  0  0  0  0  0  0  0  0
  -14.6389    1.0768   20.5173 F   0  0  0  0  0  0  0  0  0  0  0  0
  -14.7867   -0.1218   19.8928 C   0  0  1  0  0  0  0  0  0  0  0  0
  -13.6277   -1.0900   20.1010 C   0  0  0  0  0  0  0  0  0  0  0  0
  -14.4908   -1.8760   20.9781 N   0  0  0  0  0  0  0  0  0  0  0  0
  -12.9912   -3.2905   21.8383 O   0  0  0  0  0  0  0  0  0  0  0  0
  -15.7089   -2.2781   23.6825 C   0  0  0  0  0  0  0  0  0  0  0  0
  -18.0160   -3.1283   23.6409 N   0  0  0  0  0  0  0  0  0  0  0  0
  -17.6417   -4.1959   22.6947 C   0  0  0  0  0  0  0  0  0  0  0  0
  -19.3172   -3.2724   24.1815 C   0  0  0  0  0  0  0  0  0  0  0  0
  -20.8603   -4.4834   25.5729 N   0  0  0  0  0  0  0  0  0  0  0  0
  -21.6463   -2.6790   24.2433 N   0  0  0  0  0  0  0  0  0  0  0  0
  -20.3664   -2.4074   23.7973 C   0  0  0  0  0  0  0  0  0  0  0  0
  -19.8574    1.1648   21.6085 C   0  0  0  0  0  0  0  0  0  0  0  0
  -19.6832    2.3120   20.8848 F   0  0  0  0  0  0  0  0  0  0  0  0
  -18.7529    0.4924   22.0195 C   0  0  0  0  0  0  0  0  0  0  0  0
  -16.1099   -0.5538   21.7039 H   0  0  0  0  0  0  0  0  0  0  0  0
  -16.6857   -1.4387   20.4403 H   0  0  0  0  0  0  0  0  0  0  0  0
  -14.8728   -4.2458   23.2210 H   0  0  0  0  0  0  0  0  0  0  0  0
  -16.6280   -3.5925   25.1385 H   0  0  0  0  0  0  0  0  0  0  0  0
  -17.2515   -1.9006   25.1499 H   0  0  0  0  0  0  0  0  0  0  0  0
  -16.7550   -2.8861   21.2217 H   0  0  0  0  0  0  0  0  0  0  0  0
  -16.1576   -4.5955   21.1872 H   0  0  0  0  0  0  0  0  0  0  0  0
  -18.8065   -4.9555   25.4402 H   0  0  0  0  0  0  0  0  0  0  0  0
  -22.8605   -3.9246   25.4640 H   0  0  0  0  0  0  0  0  0  0  0  0
  -22.3048   -0.8429   22.7640 H   0  0  0  0  0  0  0  0  0  0  0  0
  -21.9739    1.2839   21.4003 H   0  0  0  0  0  0  0  0  0  0  0  0
  -18.0041   -1.1286   23.2402 H   0  0  0  0  0  0  0  0  0  0  0  0
  -15.0329    0.1690   18.8609 H   0  0  0  0  0  0  0  0  0  0  0  0
  -13.3051   -1.6157   19.1902 H   0  0  0  0  0  0  0  0  0  0  0  0
  -12.6431   -0.7353   20.4397 H   0  0  0  0  0  0  0  0  0  0  0  0
  -14.8772   -2.0460   24.3640 H   0  0  0  0  0  0  0  0  0  0  0  0
  -16.0093   -1.3918   23.1044 H   0  0  0  0  0  0  0  0  0  0  0  0
  -18.4996   -4.4207   22.0440 H   0  0  0  0  0  0  0  0  0  0  0  0
  -17.3538   -5.0922   23.2638 H   0  0  0  0  0  0  0  0  0  0  0  0
  -17.7528    0.8489   21.7319 H   0  0  0  0  0  0  0  0  0  0  0  0
  1 13  1  0
  1 15  1  0
  3  2  1  0
  2 15  1  0
  2 16  2  0
  3  5  1  0
  3 17  1  0
  4 17  1  0
  4 18  1  0
  5 19  1  0
  6 20  2  0
  6 21  1  0
  7 21  2  0
  7 22  1  0
  8  9  2  0
  8 11  1  0
  8 23  1  0
  9 10  1  0
 10 24  2  0
 11 26  2  0
 13 12  1  0
 13 14  1  0
 14 15  1  0
 18 19  1  0
 18 20  1  0
 20 23  1  0
 22 23  2  0
 24 25  1  0
 24 26  1  0
  1 27  1  0
  1 28  1  0
  3 29  1  1
  4 30  1  0
  4 31  1  0
  5 32  1  0
  5 33  1  0
  6 34  1  0
  7 35  1  0
  9 36  1  0
 10 37  1  0
 11 38  1  0
 13 39  1  6
 14 40  1  0
 14 41  1  0
 17 42  1  0
 17 43  1  0
 19 44  1  0
 19 45  1  0
 26 46  1  0
M  END
>  <filename_input>  (13) 
7N6F_0I1_docked.sdf

>  <pdb_id>  (13) 
7N6F_0I1

>  <pose_rank>  (13) 
12

>  <num_atoms_heavy>  (13) 
26

>  <num_torsions>  (13) 
3

>  <pose>  (13) 
[-15.249810515529926, -3.3598916687376517, 22.688946524021006, 1.6558988763241016, 3.063740301221191, 2.1781979358789036, -2.470034390415107, -0.8921742429492038, 3.648806805182888]

>  <energy>  (13) 
-470.91406526200456

>  <inter_energy>  (13) 
-536.8793915883545

>  <intra_energy>  (13) 
65.84901769241164

>  <rmsd>  (13) 
6.21832

>  <sdf_rank>  (13) 
0

$$$$

     RDKit          3D

 46 49  0  0  0  0  0  0  0  0999 V2000
  -20.2378   -4.7409   21.7652 C   0  0  0  0  0  0  0  0  0  0  0  0
  -20.2377   -4.2288   24.3265 C   0  0  0  0  0  0  0  0  0  0  0  0
  -18.7633   -3.9003   24.2881 C   0  0  2  0  0  0  0  0  0  0  0  0
  -16.5649   -4.4769   23.1279 C   0  0  0  0  0  0  0  0  0  0  0  0
  -18.5382   -2.4580   23.8321 C   0  0  0  0  0  0  0  0  0  0  0  0
  -14.0170   -3.4312   22.3200 C   0  0  0  0  0  0  0  0  0  0  0  0
  -12.7152   -1.7690   21.4208 C   0  0  0  0  0  0  0  0  0  0  0  0
  -16.1963   -0.5020   21.2219 C   0  0  0  0  0  0  0  0  0  0  0  0
  -17.1447   -0.9835   20.3347 C   0  0  0  0  0  0  0  0  0  0  0  0
  -18.2401   -0.1515   19.9670 C   0  0  0  0  0  0  0  0  0  0  0  0
  -16.3424    0.7730   21.8043 C   0  0  0  0  0  0  0  0  0  0  0  0
  -21.5886   -6.6394   21.2404 F   0  0  0  0  0  0  0  0  0  0  0  0
  -21.6907   -5.3020   21.4625 C   0  0  1  0  0  0  0  0  0  0  0  0
  -22.1417   -4.9279   22.8699 C   0  0  0  0  0  0  0  0  0  0  0  0
  -20.7800   -4.4796   23.1469 N   0  0  0  0  0  0  0  0  0  0  0  0
  -20.9152   -4.1562   25.3529 O   0  0  0  0  0  0  0  0  0  0  0  0
  -18.0534   -4.8309   23.2890 C   0  0  0  0  0  0  0  0  0  0  0  0
  -16.4150   -3.0849   22.7287 N   0  0  0  0  0  0  0  0  0  0  0  0
  -17.0416   -2.1448   23.6768 C   0  0  0  0  0  0  0  0  0  0  0  0
  -15.1714   -2.6392   22.2177 C   0  0  0  0  0  0  0  0  0  0  0  0
  -12.8148   -2.9968   21.8978 N   0  0  0  0  0  0  0  0  0  0  0  0
  -13.7853   -0.9261   21.2561 N   0  0  0  0  0  0  0  0  0  0  0  0
  -15.0460   -1.3708   21.6078 C   0  0  0  0  0  0  0  0  0  0  0  0
  -18.3219    1.0631   20.5329 C   0  0  0  0  0  0  0  0  0  0  0  0
  -19.3708    1.8648   20.1762 F   0  0  0  0  0  0  0  0  0  0  0  0
  -17.3870    1.5685   21.3764 C   0  0  0  0  0  0  0  0  0  0  0  0
  -19.4273   -5.4827   21.7114 H   0  0  0  0  0  0  0  0  0  0  0  0
  -19.7505   -3.9679   21.1528 H   0  0  0  0  0  0  0  0  0  0  0  0
  -18.3593   -4.0334   25.3025 H   0  0  0  0  0  0  0  0  0  0  0  0
  -16.0485   -4.6369   24.0859 H   0  0  0  0  0  0  0  0  0  0  0  0
  -16.1271   -5.1203   22.3505 H   0  0  0  0  0  0  0  0  0  0  0  0
  -19.0375   -2.3070   22.8636 H   0  0  0  0  0  0  0  0  0  0  0  0
  -18.9548   -1.7849   24.5959 H   0  0  0  0  0  0  0  0  0  0  0  0
  -14.0971   -4.4370   22.7582 H   0  0  0  0  0  0  0  0  0  0  0  0
  -11.7173   -1.4013   21.1397 H   0  0  0  0  0  0  0  0  0  0  0  0
  -17.0527   -1.9976   19.9187 H   0  0  0  0  0  0  0  0  0  0  0  0
  -18.9947   -0.4928   19.2431 H   0  0  0  0  0  0  0  0  0  0  0  0
  -15.6441    1.1247   22.5781 H   0  0  0  0  0  0  0  0  0  0  0  0
  -22.3078   -4.9605   20.6185 H   0  0  0  0  0  0  0  0  0  0  0  0
  -22.8993   -4.1312   22.9079 H   0  0  0  0  0  0  0  0  0  0  0  0
  -22.6440   -5.6591   23.5202 H   0  0  0  0  0  0  0  0  0  0  0  0
  -18.1349   -5.8670   23.6495 H   0  0  0  0  0  0  0  0  0  0  0  0
  -18.5389   -4.7107   22.3093 H   0  0  0  0  0  0  0  0  0  0  0  0
  -16.9233   -1.1179   23.3005 H   0  0  0  0  0  0  0  0  0  0  0  0
  -16.5522   -2.2471   24.6566 H   0  0  0  0  0  0  0  0  0  0  0  0
  -17.4611    2.6111   21.7192 H   0  0  0  0  0  0  0  0  0  0  0  0
  1 13  1  0
  1 15  1  0
  3  2  1  0
  2 15  1  0
  2 16  2  0
  3  5  1  0
  3 17  1  0
  4 17  1  0
  4 18  1  0
  5 19  1  0
  6 20  2  0
  6 21  1  0
  7 21  2  0
  7 22  1  0
  8  9  2  0
  8 11  1  0
  8 23  1  0
  9 10  1  0
 10 24  2  0
 11 26  2  0
 13 12  1  0
 13 14  1  0
 14 15  1  0
 18 19  1  0
 18 20  1  0
 20 23  1  0
 22 23  2  0
 24 25  1  0
 24 26  1  0
  1 27  1  0
  1 28  1  0
  3 29  1  1
  4 30  1  0
  4 31  1  0
  5 32  1  0
  5 33  1  0
  6 34  1  0
  7 35  1  0
  9 36  1  0
 10 37  1  0
 11 38  1  0
 13 39  1  6
 14 40  1  0
 14 41  1  0
 17 42  1  0
 17 43  1  0
 19 44  1  0
 19 45  1  0
 26 46  1  0
M  END
>  <filename_input>  (14) 
7N6F_0I1_docked.sdf

>  <pdb_id>  (14) 
7N6F_0I1

>  <pose_rank>  (14) 
13

>  <num_atoms_heavy>  (14) 
26

>  <num_torsions>  (14) 
3

>  <pose>  (14) 
[-18.763337560019874, -3.9003016271848274, 24.288121856499135, 2.7864255262586486, -0.6855057882575089, -0.18830054126437148, -1.9813729656670651, 0.06721979033711158, -0.37884143760935257]

>  <energy>  (14) 
-459.4640213185278

>  <inter_energy>  (14) 
-525.474405191771

>  <intra_energy>  (14) 
66.64394169670422

>  <rmsd>  (14) 
6.34115

>  <sdf_rank>  (14) 
0

$$$$

     RDKit          3D

 46 49  0  0  0  0  0  0  0  0999 V2000
  -19.8275   -4.1487   23.1632 C   0  0  0  0  0  0  0  0  0  0  0  0
  -20.2230   -2.2406   24.9024 C   0  0  0  0  0  0  0  0  0  0  0  0
  -19.4234   -1.2722   24.0621 C   0  0  2  0  0  0  0  0  0  0  0  0
  -17.1080   -0.2404   23.7692 C   0  0  0  0  0  0  0  0  0  0  0  0
  -19.2987   -1.7741   22.6228 C   0  0  0  0  0  0  0  0  0  0  0  0
  -14.9289   -1.0585   21.2199 C   0  0  0  0  0  0  0  0  0  0  0  0
  -14.0002    0.6394   19.9866 C   0  0  0  0  0  0  0  0  0  0  0  0
  -17.3546    1.8731   20.9811 C   0  0  0  0  0  0  0  0  0  0  0  0
  -18.3142    1.7428   19.9909 C   0  0  0  0  0  0  0  0  0  0  0  0
  -19.4716    2.5713   20.0295 C   0  0  0  0  0  0  0  0  0  0  0  0
  -17.5462    2.7707   22.0506 C   0  0  0  0  0  0  0  0  0  0  0  0
  -19.4140   -6.2468   24.2269 F   0  0  0  0  0  0  0  0  0  0  0  0
  -20.4421   -5.4471   23.8369 C   0  0  1  0  0  0  0  0  0  0  0  0
  -21.0416   -4.5992   24.9529 C   0  0  0  0  0  0  0  0  0  0  0  0
  -20.4103   -3.4280   24.3516 N   0  0  0  0  0  0  0  0  0  0  0  0
  -20.7617   -1.9223   25.9637 O   0  0  0  0  0  0  0  0  0  0  0  0
  -18.0047   -1.1352   24.6423 C   0  0  0  0  0  0  0  0  0  0  0  0
  -17.0583   -0.7484   22.4058 N   0  0  0  0  0  0  0  0  0  0  0  0
  -18.3917   -0.8589   21.7851 C   0  0  0  0  0  0  0  0  0  0  0  0
  -16.0540   -0.2768   21.5254 C   0  0  0  0  0  0  0  0  0  0  0  0
  -13.9342   -0.6009   20.4366 N   0  0  0  0  0  0  0  0  0  0  0  0
  -15.0665    1.4744   20.2068 N   0  0  0  0  0  0  0  0  0  0  0  0
  -16.1395    1.0076   20.9426 C   0  0  0  0  0  0  0  0  0  0  0  0
  -19.5963    3.4259   21.0572 C   0  0  0  0  0  0  0  0  0  0  0  0
  -20.7050    4.2257   21.0921 F   0  0  0  0  0  0  0  0  0  0  0  0
  -18.6536    3.5952   22.0182 C   0  0  0  0  0  0  0  0  0  0  0  0
  -18.7298   -4.1300   23.0946 H   0  0  0  0  0  0  0  0  0  0  0  0
  -20.0301   -3.8564   22.1222 H   0  0  0  0  0  0  0  0  0  0  0  0
  -19.9454   -0.3040   24.0707 H   0  0  0  0  0  0  0  0  0  0  0  0
  -17.5144    0.7817   23.7606 H   0  0  0  0  0  0  0  0  0  0  0  0
  -16.0904   -0.2389   24.1869 H   0  0  0  0  0  0  0  0  0  0  0  0
  -18.8720   -2.7879   22.6333 H   0  0  0  0  0  0  0  0  0  0  0  0
  -20.3009   -1.7764   22.1694 H   0  0  0  0  0  0  0  0  0  0  0  0
  -14.8578   -2.0756   21.6328 H   0  0  0  0  0  0  0  0  0  0  0  0
  -13.1518    1.0247   19.4020 H   0  0  0  0  0  0  0  0  0  0  0  0
  -18.1837    1.0072   19.1835 H   0  0  0  0  0  0  0  0  0  0  0  0
  -20.2383    2.5130   19.2430 H   0  0  0  0  0  0  0  0  0  0  0  0
  -16.8337    2.8134   22.8876 H   0  0  0  0  0  0  0  0  0  0  0  0
  -21.1082   -6.1455   23.3091 H   0  0  0  0  0  0  0  0  0  0  0  0
  -22.1412   -4.5694   24.9607 H   0  0  0  0  0  0  0  0  0  0  0  0
  -20.8799   -4.8533   26.0109 H   0  0  0  0  0  0  0  0  0  0  0  0
  -18.0735   -0.6953   25.6481 H   0  0  0  0  0  0  0  0  0  0  0  0
  -17.5536   -2.1379   24.6761 H   0  0  0  0  0  0  0  0  0  0  0  0
  -18.2870   -1.2794   20.7740 H   0  0  0  0  0  0  0  0  0  0  0  0
  -18.8451    0.1420   21.7332 H   0  0  0  0  0  0  0  0  0  0  0  0
  -18.7712    4.3886   22.7710 H   0  0  0  0  0  0  0  0  0  0  0  0
  1 13  1  0
  1 15  1  0
  3  2  1  0
  2 15  1  0
  2 16  2  0
  3  5  1  0
  3 17  1  0
  4 17  1  0
  4 18  1  0
  5 19  1  0
  6 20  2  0
  6 21  1  0
  7 21  2  0
  7 22  1  0
  8  9  2  0
  8 11  1  0
  8 23  1  0
  9 10  1  0
 10 24  2  0
 11 26  2  0
 13 12  1  0
 13 14  1  0
 14 15  1  0
 18 19  1  0
 18 20  1  0
 20 23  1  0
 22 23  2  0
 24 25  1  0
 24 26  1  0
  1 27  1  0
  1 28  1  0
  3 29  1  6
  4 30  1  0
  4 31  1  0
  5 32  1  0
  5 33  1  0
  6 34  1  0
  7 35  1  0
  9 36  1  0
 10 37  1  0
 11 38  1  0
 13 39  1  6
 14 40  1  0
 14 41  1  0
 17 42  1  0
 17 43  1  0
 19 44  1  0
 19 45  1  0
 26 46  1  0
M  END
>  <filename_input>  (15) 
7N6F_0I1_docked.sdf

>  <pdb_id>  (15) 
7N6F_0I1

>  <pose_rank>  (15) 
14

>  <num_atoms_heavy>  (15) 
26

>  <num_torsions>  (15) 
3

>  <pose>  (15) 
[-19.423447222345747, -1.272202388993781, 24.06206212721095, 1.2861633064688154, 0.4485488435319923, 0.7763172626204883, 3.1790467568277494, -4.201283507062665, -0.8898936577425722]

>  <energy>  (15) 
-453.03787780885517

>  <inter_energy>  (15) 
-537.9610775563465

>  <intra_energy>  (15) 
87.30633198184994

>  <rmsd>  (15) 
6.6423

>  <sdf_rank>  (15) 
0

$$$$

     RDKit          3D

 46 49  0  0  0  0  0  0  0  0999 V2000
  -20.3410   -0.5865   22.9097 C   0  0  0  0  0  0  0  0  0  0  0  0
  -20.8062   -2.8540   24.1199 C   0  0  0  0  0  0  0  0  0  0  0  0
  -19.3535   -3.2501   23.9939 C   0  0  2  0  0  0  0  0  0  0  0  0
  -17.5654   -3.9787   22.3255 C   0  0  0  0  0  0  0  0  0  0  0  0
  -18.4366   -2.0790   24.3497 C   0  0  0  0  0  0  0  0  0  0  0  0
  -14.5698   -3.9289   22.3582 C   0  0  0  0  0  0  0  0  0  0  0  0
  -12.7324   -2.7196   21.7039 C   0  0  0  0  0  0  0  0  0  0  0  0
  -15.5802   -0.3489   21.5228 C   0  0  0  0  0  0  0  0  0  0  0  0
  -16.3767   -0.3227   20.3900 C   0  0  0  0  0  0  0  0  0  0  0  0
  -17.1087    0.8587   20.0805 C   0  0  0  0  0  0  0  0  0  0  0  0
  -15.5396    0.7571   22.3955 C   0  0  0  0  0  0  0  0  0  0  0  0
  -22.1007   -0.0087   21.4016 F   0  0  0  0  0  0  0  0  0  0  0  0
  -21.7712    0.0733   22.7181 C   0  0  1  0  0  0  0  0  0  0  0  0
  -22.3993   -1.0040   23.5950 C   0  0  0  0  0  0  0  0  0  0  0  0
  -21.0849   -1.6309   23.7017 N   0  0  0  0  0  0  0  0  0  0  0  0
  -21.6492   -3.5609   24.6744 O   0  0  0  0  0  0  0  0  0  0  0  0
  -19.0555   -3.6627   22.5416 C   0  0  0  0  0  0  0  0  0  0  0  0
  -16.7441   -2.8416   22.7150 N   0  0  0  0  0  0  0  0  0  0  0  0
  -16.9590   -2.4307   24.1152 C   0  0  0  0  0  0  0  0  0  0  0  0
  -15.3894   -2.7906   22.3047 C   0  0  0  0  0  0  0  0  0  0  0  0
  -13.2642   -3.8831   22.0332 N   0  0  0  0  0  0  0  0  0  0  0  0
  -13.4514   -1.5558   21.5973 N   0  0  0  0  0  0  0  0  0  0  0  0
  -14.8103   -1.5849   21.8490 C   0  0  0  0  0  0  0  0  0  0  0  0
  -17.0186    1.8926   20.9320 C   0  0  0  0  0  0  0  0  0  0  0  0
  -17.7172    3.0295   20.6326 F   0  0  0  0  0  0  0  0  0  0  0  0
  -16.2185    1.9020   22.0277 C   0  0  0  0  0  0  0  0  0  0  0  0
  -19.8636   -0.9485   21.9873 H   0  0  0  0  0  0  0  0  0  0  0  0
  -19.4719   -0.0382   23.3022 H   0  0  0  0  0  0  0  0  0  0  0  0
  -19.1684   -4.0861   24.6844 H   0  0  0  0  0  0  0  0  0  0  0  0
  -17.2880   -4.8518   22.9345 H   0  0  0  0  0  0  0  0  0  0  0  0
  -17.3967   -4.1925   21.2598 H   0  0  0  0  0  0  0  0  0  0  0  0
  -18.7020   -1.2140   23.7242 H   0  0  0  0  0  0  0  0  0  0  0  0
  -18.5714   -1.8462   25.4163 H   0  0  0  0  0  0  0  0  0  0  0  0
  -15.0074   -4.8870   22.6752 H   0  0  0  0  0  0  0  0  0  0  0  0
  -11.6515   -2.6815   21.5037 H   0  0  0  0  0  0  0  0  0  0  0  0
  -16.4431   -1.2051   19.7365 H   0  0  0  0  0  0  0  0  0  0  0  0
  -17.7276    0.9222   19.1734 H   0  0  0  0  0  0  0  0  0  0  0  0
  -14.9827    0.7096   23.3430 H   0  0  0  0  0  0  0  0  0  0  0  0
  -21.9906    1.1238   22.9600 H   0  0  0  0  0  0  0  0  0  0  0  0
  -22.8057   -0.6347   24.5482 H   0  0  0  0  0  0  0  0  0  0  0  0
  -23.2766   -1.5744   23.2560 H   0  0  0  0  0  0  0  0  0  0  0  0
  -19.6471   -4.5576   22.2983 H   0  0  0  0  0  0  0  0  0  0  0  0
  -19.3219   -2.8192   21.8877 H   0  0  0  0  0  0  0  0  0  0  0  0
  -16.3376   -1.5497   24.3337 H   0  0  0  0  0  0  0  0  0  0  0  0
  -16.6809   -3.2633   24.7780 H   0  0  0  0  0  0  0  0  0  0  0  0
  -16.1106    2.8209   22.6226 H   0  0  0  0  0  0  0  0  0  0  0  0
  1 13  1  0
  1 15  1  0
  3  2  1  0
  2 15  1  0
  2 16  2  0
  3  5  1  0
  3 17  1  0
  4 17  1  0
  4 18  1  0
  5 19  1  0
  6 20  2  0
  6 21  1  0
  7 21  2  0
  7 22  1  0
  8  9  2  0
  8 11  1  0
  8 23  1  0
  9 10  1  0
 10 24  2  0
 11 26  2  0
 13 12  1  0
 13 14  1  0
 14 15  1  0
 18 19  1  0
 18 20  1  0
 20 23  1  0
 22 23  2  0
 24 25  1  0
 24 26  1  0
  1 27  1  0
  1 28  1  0
  3 29  1  1
  4 30  1  0
  4 31  1  0
  5 32  1  0
  5 33  1  0
  6 34  1  0
  7 35  1  0
  9 36  1  0
 10 37  1  0
 11 38  1  0
 13 39  1  1
 14 40  1  0
 14 41  1  0
 17 42  1  0
 17 43  1  0
 19 44  1  0
 19 45  1  0
 26 46  1  0
M  END
>  <filename_input>  (16) 
7N6F_0I1_docked.sdf

>  <pdb_id>  (16) 
7N6F_0I1

>  <pose_rank>  (16) 
15

>  <num_atoms_heavy>  (16) 
26

>  <num_torsions>  (16) 
3

>  <pose>  (16) 
[-19.353508657785266, -3.2501159232415695, 23.993894105700004, 3.0690044441533457, -1.5285837455804867, -0.645635257129157, -2.6590272243801687, -0.46635115612822514, -0.5955474544772491]

>  <energy>  (16) 
-495.0384457506999

>  <inter_energy>  (16) 
-528.1046424141658

>  <intra_energy>  (16) 
38.14600855966557

>  <rmsd>  (16) 
5.16392

>  <sdf_rank>  (16) 
0

$$$$

     RDKit          3D

 46 49  0  0  0  0  0  0  0  0999 V2000
  -24.2212    3.6673   16.5712 C   0  0  0  0  0  0  0  0  0  0  0  0
  -23.8393    1.5179   18.0054 C   0  0  0  0  0  0  0  0  0  0  0  0
  -22.3894    1.8857   18.2192 C   0  0  2  0  0  0  0  0  0  0  0  0
  -20.5477    2.0211   19.9804 C   0  0  0  0  0  0  0  0  0  0  0  0
  -21.4684    0.9479   17.4375 C   0  0  0  0  0  0  0  0  0  0  0  0
  -17.6569   -0.2040   19.1765 C   0  0  0  0  0  0  0  0  0  0  0  0
  -15.7697    0.5349   20.2527 C   0  0  0  0  0  0  0  0  0  0  0  0
  -18.1609    3.3667   20.4141 C   0  0  0  0  0  0  0  0  0  0  0  0
  -19.0830    3.5919   21.4228 C   0  0  0  0  0  0  0  0  0  0  0  0
  -19.5738    4.9114   21.6358 C   0  0  0  0  0  0  0  0  0  0  0  0
  -17.6646    4.4384   19.6450 C   0  0  0  0  0  0  0  0  0  0  0  0
  -25.6243    3.2382   14.6865 F   0  0  0  0  0  0  0  0  0  0  0  0
  -25.6998    3.5265   16.0130 C   0  0  1  0  0  0  0  0  0  0  0  0
  -25.9364    2.3169   16.9101 C   0  0  0  0  0  0  0  0  0  0  0  0
  -24.5512    2.4256   17.3589 N   0  0  0  0  0  0  0  0  0  0  0  0
  -24.3552    0.5107   18.4922 O   0  0  0  0  0  0  0  0  0  0  0  0
  -22.0400    1.7591   19.7126 C   0  0  0  0  0  0  0  0  0  0  0  0
  -19.7241    1.1241   19.1825 N   0  0  0  0  0  0  0  0  0  0  0  0
  -19.9885    1.2361   17.7358 C   0  0  0  0  0  0  0  0  0  0  0  0
  -18.3534    0.9699   19.5040 C   0  0  0  0  0  0  0  0  0  0  0  0
  -16.3722   -0.3932   19.5312 N   0  0  0  0  0  0  0  0  0  0  0  0
  -16.3530    1.7266   20.6026 N   0  0  0  0  0  0  0  0  0  0  0  0
  -17.6459    1.9846   20.1871 C   0  0  0  0  0  0  0  0  0  0  0  0
  -19.0861    5.8937   20.8617 C   0  0  0  0  0  0  0  0  0  0  0  0
  -19.5610    7.1604   21.0620 F   0  0  0  0  0  0  0  0  0  0  0  0
  -18.2098    5.6912   19.8458 C   0  0  0  0  0  0  0  0  0  0  0  0
  -23.4236    3.5504   15.8227 H   0  0  0  0  0  0  0  0  0  0  0  0
  -23.8361    4.5888   17.0320 H   0  0  0  0  0  0  0  0  0  0  0  0
  -22.2460    2.9188   17.8696 H   0  0  0  0  0  0  0  0  0  0  0  0
  -20.3095    3.0622   19.7173 H   0  0  0  0  0  0  0  0  0  0  0  0
  -20.3398    1.8436   21.0459 H   0  0  0  0  0  0  0  0  0  0  0  0
  -21.6941   -0.0914   17.7186 H   0  0  0  0  0  0  0  0  0  0  0  0
  -21.6421    1.1089   16.3633 H   0  0  0  0  0  0  0  0  0  0  0  0
  -18.1766   -0.9930   18.6130 H   0  0  0  0  0  0  0  0  0  0  0  0
  -14.7415    0.3414   20.5925 H   0  0  0  0  0  0  0  0  0  0  0  0
  -19.4323    2.7604   22.0525 H   0  0  0  0  0  0  0  0  0  0  0  0
  -20.3279    5.1190   22.4092 H   0  0  0  0  0  0  0  0  0  0  0  0
  -16.8656    4.2813   18.9056 H   0  0  0  0  0  0  0  0  0  0  0  0
  -26.4388    4.3407   16.0445 H   0  0  0  0  0  0  0  0  0  0  0  0
  -26.6844    2.4765   17.7007 H   0  0  0  0  0  0  0  0  0  0  0  0
  -26.3309    1.3743   16.5029 H   0  0  0  0  0  0  0  0  0  0  0  0
  -22.6359    2.4893   20.2797 H   0  0  0  0  0  0  0  0  0  0  0  0
  -22.2658    0.7298   20.0279 H   0  0  0  0  0  0  0  0  0  0  0  0
  -19.3620    0.5109   17.1958 H   0  0  0  0  0  0  0  0  0  0  0  0
  -19.7511    2.2588   17.4079 H   0  0  0  0  0  0  0  0  0  0  0  0
  -17.9338    6.5243   19.1826 H   0  0  0  0  0  0  0  0  0  0  0  0
  1 13  1  0
  1 15  1  0
  3  2  1  0
  2 15  1  0
  2 16  2  0
  3  5  1  0
  3 17  1  0
  4 17  1  0
  4 18  1  0
  5 19  1  0
  6 20  2  0
  6 21  1  0
  7 21  2  0
  7 22  1  0
  8  9  2  0
  8 11  1  0
  8 23  1  0
  9 10  1  0
 10 24  2  0
 11 26  2  0
 13 12  1  0
 13 14  1  0
 14 15  1  0
 18 19  1  0
 18 20  1  0
 20 23  1  0
 22 23  2  0
 24 25  1  0
 24 26  1  0
  1 27  1  0
  1 28  1  0
  3 29  1  6
  4 30  1  0
  4 31  1  0
  5 32  1  0
  5 33  1  0
  6 34  1  0
  7 35  1  0
  9 36  1  0
 10 37  1  0
 11 38  1  0
 13 39  1  6
 14 40  1  0
 14 41  1  0
 17 42  1  0
 17 43  1  0
 19 44  1  0
 19 45  1  0
 26 46  1  0
M  END
>  <filename_input>  (17) 
7N6F_0I1_docked.sdf

>  <pdb_id>  (17) 
7N6F_0I1

>  <pose_rank>  (17) 
16

>  <num_atoms_heavy>  (17) 
26

>  <num_torsions>  (17) 
3

>  <pose>  (17) 
[-22.38936381512657, 1.885745010066645, 18.219216656791552, -2.97550884517533, 2.113013578494124, -3.5032520393502526, 0.9489844270633164, -3.3170440241755323, 2.01507503508595]

>  <energy>  (17) 
-265.6756247633121

>  <inter_energy>  (17) 
-341.54332571879587

>  <intra_energy>  (17) 
81.78273593467314

>  <rmsd>  (17) 
7.20969

>  <sdf_rank>  (17) 
0

$$$$

     RDKit          3D

 46 49  0  0  0  0  0  0  0  0999 V2000
  -18.5714    4.1701   27.9513 C   0  0  0  0  0  0  0  0  0  0  0  0
  -17.2640    1.9091   27.9810 C   0  0  0  0  0  0  0  0  0  0  0  0
  -17.7002    1.6073   26.5661 C   0  0  2  0  0  0  0  0  0  0  0  0
  -17.5610    2.4382   24.1574 C   0  0  0  0  0  0  0  0  0  0  0  0
  -17.0786    0.3005   26.0713 C   0  0  0  0  0  0  0  0  0  0  0  0
  -16.0764    1.6196   21.5149 C   0  0  0  0  0  0  0  0  0  0  0  0
  -16.7765    0.4138   19.6922 C   0  0  0  0  0  0  0  0  0  0  0  0
  -18.2999   -1.2716   22.6251 C   0  0  0  0  0  0  0  0  0  0  0  0
  -17.5673   -2.2674   23.2497 C   0  0  0  0  0  0  0  0  0  0  0  0
  -18.2482   -3.2595   24.0108 C   0  0  0  0  0  0  0  0  0  0  0  0
  -19.6980   -1.2012   22.7889 C   0  0  0  0  0  0  0  0  0  0  0  0
  -19.6645    4.5900   30.0330 F   0  0  0  0  0  0  0  0  0  0  0  0
  -18.4529    4.7281   29.4319 C   0  0  1  0  0  0  0  0  0  0  0  0
  -17.4481    3.6347   29.7766 C   0  0  0  0  0  0  0  0  0  0  0  0
  -17.6246    3.0996   28.4296 N   0  0  0  0  0  0  0  0  0  0  0  0
  -16.5309    1.1624   28.6312 O   0  0  0  0  0  0  0  0  0  0  0  0
  -17.2364    2.7381   25.6311 C   0  0  0  0  0  0  0  0  0  0  0  0
  -16.9738    1.1677   23.7571 N   0  0  0  0  0  0  0  0  0  0  0  0
  -17.4198    0.0393   24.5957 C   0  0  0  0  0  0  0  0  0  0  0  0
  -16.8727    0.8528   22.3799 C   0  0  0  0  0  0  0  0  0  0  0  0
  -16.0195    1.3738   20.1926 N   0  0  0  0  0  0  0  0  0  0  0  0
  -17.5686   -0.4076   20.4543 N   0  0  0  0  0  0  0  0  0  0  0  0
  -17.5895   -0.2313   21.8251 C   0  0  0  0  0  0  0  0  0  0  0  0
  -19.5826   -3.1607   24.1178 C   0  0  0  0  0  0  0  0  0  0  0  0
  -20.2378   -4.1163   24.8442 F   0  0  0  0  0  0  0  0  0  0  0  0
  -20.3237   -2.2154   23.4867 C   0  0  0  0  0  0  0  0  0  0  0  0
  -19.5719    3.8167   27.6614 H   0  0  0  0  0  0  0  0  0  0  0  0
  -18.3845    4.7851   27.0586 H   0  0  0  0  0  0  0  0  0  0  0  0
  -18.7967    1.5192   26.5604 H   0  0  0  0  0  0  0  0  0  0  0  0
  -18.6525    2.3895   24.0294 H   0  0  0  0  0  0  0  0  0  0  0  0
  -17.1423    3.2386   23.5297 H   0  0  0  0  0  0  0  0  0  0  0  0
  -15.9857    0.3604   26.1806 H   0  0  0  0  0  0  0  0  0  0  0  0
  -17.4869   -0.5256   26.6720 H   0  0  0  0  0  0  0  0  0  0  0  0
  -15.4811    2.4462   21.9300 H   0  0  0  0  0  0  0  0  0  0  0  0
  -16.7716    0.2644   18.6025 H   0  0  0  0  0  0  0  0  0  0  0  0
  -16.4713   -2.2914   23.1587 H   0  0  0  0  0  0  0  0  0  0  0  0
  -17.6987   -4.0801   24.4953 H   0  0  0  0  0  0  0  0  0  0  0  0
  -20.2745   -0.3619   22.3727 H   0  0  0  0  0  0  0  0  0  0  0  0
  -18.1805    5.7675   29.6671 H   0  0  0  0  0  0  0  0  0  0  0  0
  -16.4333    4.0008   29.9912 H   0  0  0  0  0  0  0  0  0  0  0  0
  -17.5809    2.9984   30.6641 H   0  0  0  0  0  0  0  0  0  0  0  0
  -17.7420    3.6703   25.9234 H   0  0  0  0  0  0  0  0  0  0  0  0
  -16.1444    2.8306   25.7260 H   0  0  0  0  0  0  0  0  0  0  0  0
  -16.9150   -0.8802   24.2643 H   0  0  0  0  0  0  0  0  0  0  0  0
  -18.5097   -0.0707   24.4956 H   0  0  0  0  0  0  0  0  0  0  0  0
  -21.4220   -2.2569   23.5309 H   0  0  0  0  0  0  0  0  0  0  0  0
  1 13  1  0
  1 15  1  0
  3  2  1  0
  2 15  1  0
  2 16  2  0
  3  5  1  0
  3 17  1  0
  4 17  1  0
  4 18  1  0
  5 19  1  0
  6 20  2  0
  6 21  1  0
  7 21  2  0
  7 22  1  0
  8  9  2  0
  8 11  1  0
  8 23  1  0
  9 10  1  0
 10 24  2  0
 11 26  2  0
 13 12  1  0
 13 14  1  0
 14 15  1  0
 18 19  1  0
 18 20  1  0
 20 23  1  0
 22 23  2  0
 24 25  1  0
 24 26  1  0
  1 27  1  0
  1 28  1  0
  3 29  1  1
  4 30  1  0
  4 31  1  0
  5 32  1  0
  5 33  1  0
  6 34  1  0
  7 35  1  0
  9 36  1  0
 10 37  1  0
 11 38  1  0
 13 39  1  6
 14 40  1  0
 14 41  1  0
 17 42  1  0
 17 43  1  0
 19 44  1  0
 19 45  1  0
 26 46  1  0
M  END
>  <filename_input>  (18) 
7N6F_0I1_docked.sdf

>  <pdb_id>  (18) 
7N6F_0I1

>  <pose_rank>  (18) 
17

>  <num_atoms_heavy>  (18) 
26

>  <num_torsions>  (18) 
3

>  <pose>  (18) 
[-17.700220513930955, 1.6073185943086377, 26.566135478973447, -0.3621620865585605, -3.9500388505129, -1.7503578314026984, -0.3375628592994816, 1.3873219700901918, -0.6855963617435015]

>  <energy>  (18) 
-217.52164690136942

>  <inter_energy>  (18) 
-336.4124664789562

>  <intra_energy>  (18) 
121.10619603494037

>  <rmsd>  (18) 
5.38658

>  <sdf_rank>  (18) 
0

$$$$

     RDKit          3D

 46 49  0  0  0  0  0  0  0  0999 V2000
  -18.3736    3.7933   27.3018 C   0  0  0  0  0  0  0  0  0  0  0  0
  -17.2368    1.4739   27.6902 C   0  0  0  0  0  0  0  0  0  0  0  0
  -17.4806    1.0834   26.2510 C   0  0  2  0  0  0  0  0  0  0  0  0
  -16.5698    1.3249   23.8796 C   0  0  0  0  0  0  0  0  0  0  0  0
  -17.3476   -0.4290   26.0668 C   0  0  0  0  0  0  0  0  0  0  0  0
  -15.5580   -1.9318   22.3832 C   0  0  0  0  0  0  0  0  0  0  0  0
  -15.6168   -1.8107   20.0923 C   0  0  0  0  0  0  0  0  0  0  0  0
  -17.6070    1.0872   21.2774 C   0  0  0  0  0  0  0  0  0  0  0  0
  -17.0821    2.3689   21.2742 C   0  0  0  0  0  0  0  0  0  0  0  0
  -17.9670    3.4837   21.2354 C   0  0  0  0  0  0  0  0  0  0  0  0
  -18.9981    0.8827   21.1811 C   0  0  0  0  0  0  0  0  0  0  0  0
  -19.7291    4.4388   29.1594 F   0  0  0  0  0  0  0  0  0  0  0  0
  -18.4361    4.4615   28.7396 C   0  0  1  0  0  0  0  0  0  0  0  0
  -17.5670    3.3462   29.3093 C   0  0  0  0  0  0  0  0  0  0  0  0
  -17.5797    2.7147   27.9929 N   0  0  0  0  0  0  0  0  0  0  0  0
  -16.6576    0.7431   28.4952 O   0  0  0  0  0  0  0  0  0  0  0  0
  -16.4381    1.7656   25.3477 C   0  0  0  0  0  0  0  0  0  0  0  0
  -16.4711   -0.1238   23.7740 N   0  0  0  0  0  0  0  0  0  0  0  0
  -17.4783   -0.8289   24.5886 C   0  0  0  0  0  0  0  0  0  0  0  0
  -16.2446   -0.7137   22.5064 C   0  0  0  0  0  0  0  0  0  0  0  0
  -15.2779   -2.4740   21.1833 N   0  0  0  0  0  0  0  0  0  0  0  0
  -16.3115   -0.6275   20.1046 N   0  0  0  0  0  0  0  0  0  0  0  0
  -16.6824   -0.0833   21.3200 C   0  0  0  0  0  0  0  0  0  0  0  0
  -19.2845    3.2357   21.1667 C   0  0  0  0  0  0  0  0  0  0  0  0
  -20.1352    4.3060   21.1348 F   0  0  0  0  0  0  0  0  0  0  0  0
  -19.8222    1.9906   21.2039 C   0  0  0  0  0  0  0  0  0  0  0  0
  -19.3422    3.4729   26.8904 H   0  0  0  0  0  0  0  0  0  0  0  0
  -18.0180    4.3232   26.4058 H   0  0  0  0  0  0  0  0  0  0  0  0
  -18.4992    1.3993   25.9813 H   0  0  0  0  0  0  0  0  0  0  0  0
  -17.5450    1.6512   23.4892 H   0  0  0  0  0  0  0  0  0  0  0  0
  -15.7571    1.7815   23.2956 H   0  0  0  0  0  0  0  0  0  0  0  0
  -16.3629   -0.7493   26.4382 H   0  0  0  0  0  0  0  0  0  0  0  0
  -18.1559   -0.9182   26.6301 H   0  0  0  0  0  0  0  0  0  0  0  0
  -15.2392   -2.4591   23.2944 H   0  0  0  0  0  0  0  0  0  0  0  0
  -15.3255   -2.2309   19.1184 H   0  0  0  0  0  0  0  0  0  0  0  0
  -15.9934    2.5239   21.3014 H   0  0  0  0  0  0  0  0  0  0  0  0
  -17.5836    4.5144   21.2607 H   0  0  0  0  0  0  0  0  0  0  0  0
  -19.4157   -0.1309   21.0903 H   0  0  0  0  0  0  0  0  0  0  0  0
  -18.1329    5.5001   28.9381 H   0  0  0  0  0  0  0  0  0  0  0  0
  -16.5725    3.6724   29.6476 H   0  0  0  0  0  0  0  0  0  0  0  0
  -17.8698    2.7918   30.2098 H   0  0  0  0  0  0  0  0  0  0  0  0
  -16.5774    2.8552   25.4051 H   0  0  0  0  0  0  0  0  0  0  0  0
  -15.4386    1.4726   25.7017 H   0  0  0  0  0  0  0  0  0  0  0  0
  -17.3274   -1.9142   24.4921 H   0  0  0  0  0  0  0  0  0  0  0  0
  -18.4819   -0.5535   24.2321 H   0  0  0  0  0  0  0  0  0  0  0  0
  -20.9138    1.8637   21.2522 H   0  0  0  0  0  0  0  0  0  0  0  0
  1 13  1  0
  1 15  1  0
  3  2  1  0
  2 15  1  0
  2 16  2  0
  3  5  1  0
  3 17  1  0
  4 17  1  0
  4 18  1  0
  5 19  1  0
  6 20  2  0
  6 21  1  0
  7 21  2  0
  7 22  1  0
  8  9  2  0
  8 11  1  0
  8 23  1  0
  9 10  1  0
 10 24  2  0
 11 26  2  0
 13 12  1  0
 13 14  1  0
 14 15  1  0
 18 19  1  0
 18 20  1  0
 20 23  1  0
 22 23  2  0
 24 25  1  0
 24 26  1  0
  1 27  1  0
  1 28  1  0
  3 29  1  6
  4 30  1  0
  4 31  1  0
  5 32  1  0
  5 33  1  0
  6 34  1  0
  7 35  1  0
  9 36  1  0
 10 37  1  0
 11 38  1  0
 13 39  1  6
 14 40  1  0
 14 41  1  0
 17 42  1  0
 17 43  1  0
 19 44  1  0
 19 45  1  0
 26 46  1  0
M  END
>  <filename_input>  (19) 
7N6F_0I1_docked.sdf

>  <pdb_id>  (19) 
7N6F_0I1

>  <pose_rank>  (19) 
18

>  <num_atoms_heavy>  (19) 
26

>  <num_torsions>  (19) 
3

>  <pose>  (19) 
[-17.480607658922807, 1.083360410824448, 26.2509757467608, -0.8800298182256405, -4.484860966584759, -1.0828901928577468, 0.014260784095476382, -3.377078908837843, 2.241741750099795]

>  <energy>  (19) 
-298.07545910114135

>  <inter_energy>  (19) 
-357.17575781794505

>  <intra_energy>  (19) 
62.01889658862659

>  <rmsd>  (19) 
5.89242

>  <sdf_rank>  (19) 
0

$$$$

     RDKit          3D

 46 49  0  0  0  0  0  0  0  0999 V2000
  -12.9358    7.3796   15.2210 C   0  0  0  0  0  0  0  0  0  0  0  0
  -10.8815    6.5628   13.8300 C   0  0  0  0  0  0  0  0  0  0  0  0
  -10.3665    5.7677   15.0072 C   0  0  2  0  0  0  0  0  0  0  0  0
  -10.4969    3.4945   16.1593 C   0  0  0  0  0  0  0  0  0  0  0  0
   -8.8589    5.5381   14.8920 C   0  0  0  0  0  0  0  0  0  0  0  0
   -7.6362    2.6017   17.8793 C   0  0  0  0  0  0  0  0  0  0  0  0
   -6.9412    0.4209   18.0450 C   0  0  0  0  0  0  0  0  0  0  0  0
   -9.3680    0.4647   15.2393 C   0  0  0  0  0  0  0  0  0  0  0  0
   -8.9670    0.4981   13.9140 C   0  0  0  0  0  0  0  0  0  0  0  0
   -9.8494    0.0136   12.9071 C   0  0  0  0  0  0  0  0  0  0  0  0
  -10.6092   -0.0982   15.5981 C   0  0  0  0  0  0  0  0  0  0  0  0
  -13.4450    9.6726   14.7880 F   0  0  0  0  0  0  0  0  0  0  0  0
  -13.6695    8.4297   14.2848 C   0  0  1  0  0  0  0  0  0  0  0  0
  -12.7619    8.0454   13.1218 C   0  0  0  0  0  0  0  0  0  0  0  0
  -12.0585    7.1346   14.0204 N   0  0  0  0  0  0  0  0  0  0  0  0
  -10.3150    6.5860   12.7363 O   0  0  0  0  0  0  0  0  0  0  0  0
  -11.0554    4.3920   15.0415 C   0  0  0  0  0  0  0  0  0  0  0  0
   -9.0560    3.3437   16.0164 N   0  0  0  0  0  0  0  0  0  0  0  0
   -8.3403    4.6333   16.0209 C   0  0  0  0  0  0  0  0  0  0  0  0
   -8.3911    2.3171   16.7307 C   0  0  0  0  0  0  0  0  0  0  0  0
   -6.9458    1.6485   18.5329 N   0  0  0  0  0  0  0  0  0  0  0  0
   -7.6651    0.0351   16.9450 N   0  0  0  0  0  0  0  0  0  0  0  0
   -8.4462    0.9734   16.2969 C   0  0  0  0  0  0  0  0  0  0  0  0
  -11.0295   -0.4922   13.2988 C   0  0  0  0  0  0  0  0  0  0  0  0
  -11.8798   -0.9528   12.3318 F   0  0  0  0  0  0  0  0  0  0  0  0
  -11.4574   -0.5030   14.5863 C   0  0  0  0  0  0  0  0  0  0  0  0
  -12.4251    7.8074   16.0963 H   0  0  0  0  0  0  0  0  0  0  0  0
  -13.4641    6.5764   15.7555 H   0  0  0  0  0  0  0  0  0  0  0  0
  -10.5836    6.3374   15.9228 H   0  0  0  0  0  0  0  0  0  0  0  0
  -10.7186    3.9508   17.1354 H   0  0  0  0  0  0  0  0  0  0  0  0
  -10.9682    2.5030   16.0900 H   0  0  0  0  0  0  0  0  0  0  0  0
   -8.6425    5.0621   13.9242 H   0  0  0  0  0  0  0  0  0  0  0  0
   -8.3539    6.5122   14.9702 H   0  0  0  0  0  0  0  0  0  0  0  0
   -7.6078    3.6345   18.2568 H   0  0  0  0  0  0  0  0  0  0  0  0
   -6.3216   -0.3352   18.5494 H   0  0  0  0  0  0  0  0  0  0  0  0
   -7.9775    0.8946   13.6423 H   0  0  0  0  0  0  0  0  0  0  0  0
   -9.5731    0.0525   11.8430 H   0  0  0  0  0  0  0  0  0  0  0  0
  -10.8943   -0.2119   16.6544 H   0  0  0  0  0  0  0  0  0  0  0  0
  -14.7555    8.4295   14.1096 H   0  0  0  0  0  0  0  0  0  0  0  0
  -13.2785    7.5509   12.2860 H   0  0  0  0  0  0  0  0  0  0  0  0
  -12.2192    8.8097   12.5462 H   0  0  0  0  0  0  0  0  0  0  0  0
  -12.1327    4.5386   15.2088 H   0  0  0  0  0  0  0  0  0  0  0  0
  -10.8660    3.8935   14.0794 H   0  0  0  0  0  0  0  0  0  0  0  0
   -7.2652    4.4517   15.8749 H   0  0  0  0  0  0  0  0  0  0  0  0
   -8.5117    5.1330   16.9858 H   0  0  0  0  0  0  0  0  0  0  0  0
  -12.4792   -0.8339   14.8240 H   0  0  0  0  0  0  0  0  0  0  0  0
  1 13  1  0
  1 15  1  0
  3  2  1  0
  2 15  1  0
  2 16  2  0
  3  5  1  0
  3 17  1  0
  4 17  1  0
  4 18  1  0
  5 19  1  0
  6 20  2  0
  6 21  1  0
  7 21  2  0
  7 22  1  0
  8  9  2  0
  8 11  1  0
  8 23  1  0
  9 10  1  0
 10 24  2  0
 11 26  2  0
 13 12  1  0
 13 14  1  0
 14 15  1  0
 18 19  1  0
 18 20  1  0
 20 23  1  0
 22 23  2  0
 24 25  1  0
 24 26  1  0
  1 27  1  0
  1 28  1  0
  3 29  1  1
  4 30  1  0
  4 31  1  0
  5 32  1  0
  5 33  1  0
  6 34  1  0
  7 35  1  0
  9 36  1  0
 10 37  1  0
 11 38  1  0
 13 39  1  6
 14 40  1  0
 14 41  1  0
 17 42  1  0
 17 43  1  0
 19 44  1  0
 19 45  1  0
 26 46  1  0
M  END
>  <filename_input>  (20) 
7N6F_0I1_docked.sdf

>  <pdb_id>  (20) 
7N6F_0I1

>  <pose_rank>  (20) 
19

>  <num_atoms_heavy>  (20) 
26

>  <num_torsions>  (20) 
3

>  <pose>  (20) 
[-10.366520355542942, 5.767671344785329, 15.007236620679208, -1.938911259426873, 2.926285805469841, -1.0944488946515616, 0.12349934306137803, -1.5314680739533635, -4.094137763762067]

>  <energy>  (20) 
-162.73634382205756

>  <inter_energy>  (20) 
-178.5632246086978

>  <intra_energy>  (20) 
9.440555577071224

>  <rmsd>  (20) 
10.7952

>  <sdf_rank>  (20) 
0

$$$$

     RDKit          3D

 46 49  0  0  0  0  0  0  0  0999 V2000
  -11.3904    6.8555   14.3371 C   0  0  0  0  0  0  0  0  0  0  0  0
   -9.6166    8.4952   15.3308 C   0  0  0  0  0  0  0  0  0  0  0  0
   -8.9048    7.3522   16.0166 C   0  0  2  0  0  0  0  0  0  0  0  0
   -9.2258    5.4348   17.6694 C   0  0  0  0  0  0  0  0  0  0  0  0
   -8.4574    6.3008   15.0001 C   0  0  0  0  0  0  0  0  0  0  0  0
   -7.7095    2.8887   18.1717 C   0  0  0  0  0  0  0  0  0  0  0  0
   -7.6870    0.6418   17.7058 C   0  0  0  0  0  0  0  0  0  0  0  0
   -9.9013    2.1515   15.1405 C   0  0  0  0  0  0  0  0  0  0  0  0
  -11.2519    2.2112   15.4413 C   0  0  0  0  0  0  0  0  0  0  0  0
  -12.1985    2.2945   14.3810 C   0  0  0  0  0  0  0  0  0  0  0  0
   -9.4608    2.2341   13.8043 C   0  0  0  0  0  0  0  0  0  0  0  0
  -13.5884    7.7886   14.3895 F   0  0  0  0  0  0  0  0  0  0  0  0
  -12.4597    7.7917   13.6316 C   0  0  1  0  0  0  0  0  0  0  0  0
  -11.5585    9.0025   13.8450 C   0  0  0  0  0  0  0  0  0  0  0  0
  -10.6205    8.1334   14.5498 N   0  0  0  0  0  0  0  0  0  0  0  0
   -9.2281    9.6626   15.3939 O   0  0  0  0  0  0  0  0  0  0  0  0
   -9.8606    6.6732   17.0133 C   0  0  0  0  0  0  0  0  0  0  0  0
   -8.7887    4.4897   16.6520 N   0  0  0  0  0  0  0  0  0  0  0  0
   -7.8350    5.0783   15.6931 C   0  0  0  0  0  0  0  0  0  0  0  0
   -8.4762    3.1602   17.0277 C   0  0  0  0  0  0  0  0  0  0  0  0
   -7.3493    1.6358   18.5076 N   0  0  0  0  0  0  0  0  0  0  0  0
   -8.4552    0.7981   16.5797 N   0  0  0  0  0  0  0  0  0  0  0  0
   -8.9067    2.0622   16.2494 C   0  0  0  0  0  0  0  0  0  0  0  0
  -11.7288    2.3479   13.1246 C   0  0  0  0  0  0  0  0  0  0  0  0
  -12.6376    2.4226   12.1054 F   0  0  0  0  0  0  0  0  0  0  0  0
  -10.4134    2.2558   12.8048 C   0  0  0  0  0  0  0  0  0  0  0  0
  -11.7357    6.3571   15.2550 H   0  0  0  0  0  0  0  0  0  0  0  0
  -10.9592    5.9647   13.8571 H   0  0  0  0  0  0  0  0  0  0  0  0
   -8.0251    7.7620   16.5345 H   0  0  0  0  0  0  0  0  0  0  0  0
   -8.3590    5.7471   18.2704 H   0  0  0  0  0  0  0  0  0  0  0  0
   -9.9746    4.9475   18.3112 H   0  0  0  0  0  0  0  0  0  0  0  0
   -9.3300    5.9746   14.4153 H   0  0  0  0  0  0  0  0  0  0  0  0
   -7.6961    6.7529   14.3475 H   0  0  0  0  0  0  0  0  0  0  0  0
   -7.3936    3.7247   18.8130 H   0  0  0  0  0  0  0  0  0  0  0  0
   -7.3320   -0.3690   17.9552 H   0  0  0  0  0  0  0  0  0  0  0  0
  -11.5897    2.1944   16.4881 H   0  0  0  0  0  0  0  0  0  0  0  0
  -13.2793    2.3145   14.5847 H   0  0  0  0  0  0  0  0  0  0  0  0
   -8.3882    2.2802   13.5643 H   0  0  0  0  0  0  0  0  0  0  0  0
  -12.8459    7.6122   12.6174 H   0  0  0  0  0  0  0  0  0  0  0  0
  -11.1619    9.4432   12.9184 H   0  0  0  0  0  0  0  0  0  0  0  0
  -11.9417    9.9228   14.3100 H   0  0  0  0  0  0  0  0  0  0  0  0
  -10.1250    7.3953   17.7998 H   0  0  0  0  0  0  0  0  0  0  0  0
  -10.7518    6.3442   16.4587 H   0  0  0  0  0  0  0  0  0  0  0  0
   -7.5730    4.3260   14.9345 H   0  0  0  0  0  0  0  0  0  0  0  0
   -6.9334    5.3970   16.2368 H   0  0  0  0  0  0  0  0  0  0  0  0
  -10.1061    2.1983   11.7502 H   0  0  0  0  0  0  0  0  0  0  0  0
  1 13  1  0
  1 15  1  0
  3  2  1  0
  2 15  1  0
  2 16  2  0
  3  5  1  0
  3 17  1  0
  4 17  1  0
  4 18  1  0
  5 19  1  0
  6 20  2  0
  6 21  1  0
  7 21  2  0
  7 22  1  0
  8  9  2  0
  8 11  1  0
  8 23  1  0
  9 10  1  0
 10 24  2  0
 11 26  2  0
 13 12  1  0
 13 14  1  0
 14 15  1  0
 18 19  1  0
 18 20  1  0
 20 23  1  0
 22 23  2  0
 24 25  1  0
 24 26  1  0
  1 27  1  0
  1 28  1  0
  3 29  1  1
  4 30  1  0
  4 31  1  0
  5 32  1  0
  5 33  1  0
  6 34  1  0
  7 35  1  0
  9 36  1  0
 10 37  1  0
 11 38  1  0
 13 39  1  6
 14 40  1  0
 14 41  1  0
 17 42  1  0
 17 43  1  0
 19 44  1  0
 19 45  1  0
 26 46  1  0
M  END
>  <filename_input>  (21) 
7N6F_0I1_docked.sdf

>  <pdb_id>  (21) 
7N6F_0I1

>  <pose_rank>  (21) 
20

>  <num_atoms_heavy>  (21) 
26

>  <num_torsions>  (21) 
3

>  <pose>  (21) 
[-8.904831670183345, 7.352244393456242, 16.01657786913072, -1.793460300226276, 4.245832856772636, 0.10610809307024771, -2.413944685207021, -0.49318231052152295, -0.7393377802670758]

>  <energy>  (21) 
-179.29243430833816

>  <inter_energy>  (21) 
-200.6857171213612

>  <intra_energy>  (21) 
33.19344933016156

>  <rmsd>  (21) 
11.3607

>  <sdf_rank>  (21) 
0

$$$$

     RDKit          3D

 46 49  0  0  0  0  0  0  0  0999 V2000
  -13.5104   -1.6971   24.3068 C   0  0  0  0  0  0  0  0  0  0  0  0
  -14.2165   -2.1839   26.7740 C   0  0  0  0  0  0  0  0  0  0  0  0
  -12.7958   -2.5488   27.1369 C   0  0  2  0  0  0  0  0  0  0  0  0
  -11.0303   -2.3401   28.9675 C   0  0  0  0  0  0  0  0  0  0  0  0
  -12.6377   -4.0647   27.2624 C   0  0  0  0  0  0  0  0  0  0  0  0
   -8.6117   -3.7422   29.8413 C   0  0  0  0  0  0  0  0  0  0  0  0
   -7.6971   -5.5440   30.9291 C   0  0  0  0  0  0  0  0  0  0  0  0
  -11.2927   -6.3647   30.5271 C   0  0  0  0  0  0  0  0  0  0  0  0
  -11.7486   -7.2067   29.5264 C   0  0  0  0  0  0  0  0  0  0  0  0
  -12.9884   -7.8855   29.6985 C   0  0  0  0  0  0  0  0  0  0  0  0
  -12.0136   -6.2259   31.7301 C   0  0  0  0  0  0  0  0  0  0  0  0
  -15.1399   -2.4815   22.7467 F   0  0  0  0  0  0  0  0  0  0  0  0
  -14.8715   -1.4125   23.5427 C   0  0  1  0  0  0  0  0  0  0  0  0
  -15.6274   -1.4048   24.8665 C   0  0  0  0  0  0  0  0  0  0  0  0
  -14.3746   -1.7332   25.5409 N   0  0  0  0  0  0  0  0  0  0  0  0
  -15.1403   -2.1901   27.5890 O   0  0  0  0  0  0  0  0  0  0  0  0
  -12.4320   -1.9192   28.4932 C   0  0  0  0  0  0  0  0  0  0  0  0
  -10.9311   -3.7911   29.0320 N   0  0  0  0  0  0  0  0  0  0  0  0
  -11.2284   -4.4449   27.7437 C   0  0  0  0  0  0  0  0  0  0  0  0
   -9.8565   -4.3829   29.7400 C   0  0  0  0  0  0  0  0  0  0  0  0
   -7.5612   -4.3186   30.4550 N   0  0  0  0  0  0  0  0  0  0  0  0
   -8.8764   -6.2450   30.9029 N   0  0  0  0  0  0  0  0  0  0  0  0
   -9.9946   -5.6504   30.3490 C   0  0  0  0  0  0  0  0  0  0  0  0
  -13.6478   -7.7023   30.8534 C   0  0  0  0  0  0  0  0  0  0  0  0
  -14.8412   -8.3497   31.0173 F   0  0  0  0  0  0  0  0  0  0  0  0
  -13.2381   -6.8562   31.8318 C   0  0  0  0  0  0  0  0  0  0  0  0
  -13.0178   -2.6467   24.0506 H   0  0  0  0  0  0  0  0  0  0  0  0
  -12.6209   -1.0569   24.2124 H   0  0  0  0  0  0  0  0  0  0  0  0
  -12.1352   -2.1739   26.3413 H   0  0  0  0  0  0  0  0  0  0  0  0
  -10.2785   -1.9563   28.2622 H   0  0  0  0  0  0  0  0  0  0  0  0
  -10.8535   -1.9254   29.9709 H   0  0  0  0  0  0  0  0  0  0  0  0
  -13.3763   -4.4429   27.9845 H   0  0  0  0  0  0  0  0  0  0  0  0
  -12.7964   -4.5121   26.2701 H   0  0  0  0  0  0  0  0  0  0  0  0
   -8.4909   -2.7391   29.4064 H   0  0  0  0  0  0  0  0  0  0  0  0
   -6.8145   -6.0303   31.3701 H   0  0  0  0  0  0  0  0  0  0  0  0
  -11.1594   -7.3495   28.6085 H   0  0  0  0  0  0  0  0  0  0  0  0
  -13.3926   -8.5386   28.9111 H   0  0  0  0  0  0  0  0  0  0  0  0
  -11.6123   -5.6322   32.5646 H   0  0  0  0  0  0  0  0  0  0  0  0
  -15.0177   -0.5594   22.8638 H   0  0  0  0  0  0  0  0  0  0  0  0
  -16.0502   -0.4277   25.1431 H   0  0  0  0  0  0  0  0  0  0  0  0
  -16.5295   -2.0175   25.0109 H   0  0  0  0  0  0  0  0  0  0  0  0
  -12.4595   -0.8239   28.3949 H   0  0  0  0  0  0  0  0  0  0  0  0
  -13.1619   -2.2708   29.2373 H   0  0  0  0  0  0  0  0  0  0  0  0
  -11.1704   -5.5362   27.8692 H   0  0  0  0  0  0  0  0  0  0  0  0
  -10.4939   -4.1107   26.9962 H   0  0  0  0  0  0  0  0  0  0  0  0
  -13.8809   -6.6725   32.7054 H   0  0  0  0  0  0  0  0  0  0  0  0
  1 13  1  0
  1 15  1  0
  3  2  1  0
  2 15  1  0
  2 16  2  0
  3  5  1  0
  3 17  1  0
  4 17  1  0
  4 18  1  0
  5 19  1  0
  6 20  2  0
  6 21  1  0
  7 21  2  0
  7 22  1  0
  8  9  2  0
  8 11  1  0
  8 23  1  0
  9 10  1  0
 10 24  2  0
 11 26  2  0
 13 12  1  0
 13 14  1  0
 14 15  1  0
 18 19  1  0
 18 20  1  0
 20 23  1  0
 22 23  2  0
 24 25  1  0
 24 26  1  0
  1 27  1  0
  1 28  1  0
  3 29  1  6
  4 30  1  0
  4 31  1  0
  5 32  1  0
  5 33  1  0
  6 34  1  0
  7 35  1  0
  9 36  1  0
 10 37  1  0
 11 38  1  0
 13 39  1  6
 14 40  1  0
 14 41  1  0
 17 42  1  0
 17 43  1  0
 19 44  1  0
 19 45  1  0
 26 46  1  0
M  END
>  <filename_input>  (22) 
7N6F_0I1_docked.sdf

>  <pdb_id>  (22) 
7N6F_0I1

>  <pose_rank>  (22) 
21

>  <num_atoms_heavy>  (22) 
26

>  <num_torsions>  (22) 
3

>  <pose>  (22) 
[-12.795779339348092, -2.5487699519997906, 27.13693238428397, 0.7218194076599813, 4.130432546338747, -3.77853933636439, -5.247340562872803, 6.037946192064785, 2.1981935076569386]

>  <energy>  (22) 
-139.42256664246887

>  <inter_energy>  (22) 
-156.41945111583848

>  <intra_energy>  (22) 
12.62888311006466

>  <rmsd>  (22) 
9.41568

>  <sdf_rank>  (22) 
0

$$$$

     RDKit          3D

 46 49  0  0  0  0  0  0  0  0999 V2000
  -11.7039    5.9880   28.0699 C   0  0  0  0  0  0  0  0  0  0  0  0
  -13.0492    8.2266   28.0385 C   0  0  0  0  0  0  0  0  0  0  0  0
  -14.2719    7.5308   28.5896 C   0  0  2  0  0  0  0  0  0  0  0  0
  -15.7633    7.3341   30.6509 C   0  0  0  0  0  0  0  0  0  0  0  0
  -15.5260    7.9375   27.8145 C   0  0  0  0  0  0  0  0  0  0  0  0
  -19.0678    8.6632   30.5740 C   0  0  0  0  0  0  0  0  0  0  0  0
  -20.6620    7.3434   31.5653 C   0  0  0  0  0  0  0  0  0  0  0  0
  -18.0219    4.9999   30.4246 C   0  0  0  0  0  0  0  0  0  0  0  0
  -18.2245    4.4286   29.1792 C   0  0  0  0  0  0  0  0  0  0  0  0
  -17.5806    3.1984   28.8643 C   0  0  0  0  0  0  0  0  0  0  0  0
  -17.1407    4.4059   31.3503 C   0  0  0  0  0  0  0  0  0  0  0  0
  -10.3217    5.7566   26.1358 F   0  0  0  0  0  0  0  0  0  0  0  0
  -10.3237    6.3328   27.3673 C   0  0  1  0  0  0  0  0  0  0  0  0
  -10.6783    7.8154   27.3706 C   0  0  0  0  0  0  0  0  0  0  0  0
  -11.9700    7.4669   27.9555 N   0  0  0  0  0  0  0  0  0  0  0  0
  -13.0167    9.4336   27.7939 O   0  0  0  0  0  0  0  0  0  0  0  0
  -14.4729    7.9303   30.0621 C   0  0  0  0  0  0  0  0  0  0  0  0
  -16.9145    7.7265   29.8508 N   0  0  0  0  0  0  0  0  0  0  0  0
  -16.7929    7.3283   28.4358 C   0  0  0  0  0  0  0  0  0  0  0  0
  -18.2173    7.5631   30.3818 C   0  0  0  0  0  0  0  0  0  0  0  0
  -20.2839    8.5343   31.1368 N   0  0  0  0  0  0  0  0  0  0  0  0
  -19.9168    6.2027   31.4025 N   0  0  0  0  0  0  0  0  0  0  0  0
  -18.6967    6.2883   30.7584 C   0  0  0  0  0  0  0  0  0  0  0  0
  -16.7686    2.6617   29.7888 C   0  0  0  0  0  0  0  0  0  0  0  0
  -16.1540    1.4773   29.4891 F   0  0  0  0  0  0  0  0  0  0  0  0
  -16.5827    3.1848   31.0269 C   0  0  0  0  0  0  0  0  0  0  0  0
  -12.3787    5.3430   27.4881 H   0  0  0  0  0  0  0  0  0  0  0  0
  -11.7760    5.4341   29.0176 H   0  0  0  0  0  0  0  0  0  0  0  0
  -14.1164    6.4459   28.4959 H   0  0  0  0  0  0  0  0  0  0  0  0
  -15.6847    6.2370   30.6595 H   0  0  0  0  0  0  0  0  0  0  0  0
  -15.8956    7.7115   31.6757 H   0  0  0  0  0  0  0  0  0  0  0  0
  -15.6137    9.0339   27.8260 H   0  0  0  0  0  0  0  0  0  0  0  0
  -15.4321    7.5635   26.7843 H   0  0  0  0  0  0  0  0  0  0  0  0
  -18.7304    9.6604   30.2551 H   0  0  0  0  0  0  0  0  0  0  0  0
  -21.6295    7.2613   32.0822 H   0  0  0  0  0  0  0  0  0  0  0  0
  -18.8758    4.9200   28.4414 H   0  0  0  0  0  0  0  0  0  0  0  0
  -17.7432    2.7039   27.8953 H   0  0  0  0  0  0  0  0  0  0  0  0
  -16.9040    4.9010   32.3036 H   0  0  0  0  0  0  0  0  0  0  0  0
   -9.3459    6.0385   27.7764 H   0  0  0  0  0  0  0  0  0  0  0  0
  -10.0387    8.4345   28.0168 H   0  0  0  0  0  0  0  0  0  0  0  0
  -10.6127    8.4188   26.4532 H   0  0  0  0  0  0  0  0  0  0  0  0
  -13.6152    7.5689   30.6483 H   0  0  0  0  0  0  0  0  0  0  0  0
  -14.5535    9.0264   30.1084 H   0  0  0  0  0  0  0  0  0  0  0  0
  -17.6747    7.6835   27.8824 H   0  0  0  0  0  0  0  0  0  0  0  0
  -16.7267    6.2319   28.3782 H   0  0  0  0  0  0  0  0  0  0  0  0
  -15.9881    2.6366   31.7724 H   0  0  0  0  0  0  0  0  0  0  0  0
  1 13  1  0
  1 15  1  0
  3  2  1  0
  2 15  1  0
  2 16  2  0
  3  5  1  0
  3 17  1  0
  4 17  1  0
  4 18  1  0
  5 19  1  0
  6 20  2  0
  6 21  1  0
  7 21  2  0
  7 22  1  0
  8  9  2  0
  8 11  1  0
  8 23  1  0
  9 10  1  0
 10 24  2  0
 11 26  2  0
 13 12  1  0
 13 14  1  0
 14 15  1  0
 18 19  1  0
 18 20  1  0
 20 23  1  0
 22 23  2  0
 24 25  1  0
 24 26  1  0
  1 27  1  0
  1 28  1  0
  3 29  1  1
  4 30  1  0
  4 31  1  0
  5 32  1  0
  5 33  1  0
  6 34  1  0
  7 35  1  0
  9 36  1  0
 10 37  1  0
 11 38  1  0
 13 39  1  1
 14 40  1  0
 14 41  1  0
 17 42  1  0
 17 43  1  0
 19 44  1  0
 19 45  1  0
 26 46  1  0
M  END
>  <filename_input>  (23) 
7N6F_0I1_docked.sdf

>  <pdb_id>  (23) 
7N6F_0I1

>  <pose_rank>  (23) 
22

>  <num_atoms_heavy>  (23) 
26

>  <num_torsions>  (23) 
3

>  <pose>  (23) 
[-14.27194603317277, 7.530787584247498, 28.589649828777507, -0.703042099668937, -1.0443879835960852, -1.637282782091265, 0.5128113455306742, 2.355297944689177, -0.7932280817482826]

>  <energy>  (23) 
-160.9032434753825

>  <inter_energy>  (23) 
-178.34380008064431

>  <intra_energy>  (23) 
30.846321614241177

>  <rmsd>  (23) 
11.5375

>  <sdf_rank>  (23) 
0

$$$$

     RDKit          3D

 46 49  0  0  0  0  0  0  0  0999 V2000
  -17.6117    6.8702   30.7723 C   0  0  0  0  0  0  0  0  0  0  0  0
  -19.4986    5.6401   29.4498 C   0  0  0  0  0  0  0  0  0  0  0  0
  -20.5611    6.4288   30.1794 C   0  0  2  0  0  0  0  0  0  0  0  0
  -21.9364    8.5767   30.0989 C   0  0  0  0  0  0  0  0  0  0  0  0
  -21.8884    5.6692   30.1958 C   0  0  0  0  0  0  0  0  0  0  0  0
  -24.5548    9.3326   31.4262 C   0  0  0  0  0  0  0  0  0  0  0  0
  -26.7944    9.5705   30.9857 C   0  0  0  0  0  0  0  0  0  0  0  0
  -25.4805    7.4341   28.2521 C   0  0  0  0  0  0  0  0  0  0  0  0
  -25.6985    6.0663   28.2479 C   0  0  0  0  0  0  0  0  0  0  0  0
  -25.6542    5.3580   27.0136 C   0  0  0  0  0  0  0  0  0  0  0  0
  -25.2779    8.1309   27.0439 C   0  0  0  0  0  0  0  0  0  0  0  0
  -15.8482    5.3830   31.3912 F   0  0  0  0  0  0  0  0  0  0  0  0
  -16.2708    6.1387   30.3430 C   0  0  1  0  0  0  0  0  0  0  0  0
  -17.0235    5.3634   29.2677 C   0  0  0  0  0  0  0  0  0  0  0  0
  -18.2560    5.9990   29.7248 N   0  0  0  0  0  0  0  0  0  0  0  0
  -19.7591    4.8085   28.5790 O   0  0  0  0  0  0  0  0  0  0  0  0
  -20.7906    7.7710   29.4625 C   0  0  0  0  0  0  0  0  0  0  0  0
  -23.1606    7.7891   30.1181 N   0  0  0  0  0  0  0  0  0  0  0  0
  -23.0080    6.5078   30.8325 C   0  0  0  0  0  0  0  0  0  0  0  0
  -24.3980    8.4350   30.3584 C   0  0  0  0  0  0  0  0  0  0  0  0
  -25.7401    9.9056   31.7076 N   0  0  0  0  0  0  0  0  0  0  0  0
  -26.7419    8.7239   29.9072 N   0  0  0  0  0  0  0  0  0  0  0  0
  -25.5243    8.1792   29.5443 C   0  0  0  0  0  0  0  0  0  0  0  0
  -25.4357    6.0645   25.8933 C   0  0  0  0  0  0  0  0  0  0  0  0
  -25.3878    5.3840   24.7080 F   0  0  0  0  0  0  0  0  0  0  0  0
  -25.1851    7.3979   25.8773 C   0  0  0  0  0  0  0  0  0  0  0  0
  -17.9390    6.6822   31.8055 H   0  0  0  0  0  0  0  0  0  0  0  0
  -17.7204    7.9645   30.7962 H   0  0  0  0  0  0  0  0  0  0  0  0
  -20.2159    6.5898   31.2113 H   0  0  0  0  0  0  0  0  0  0  0  0
  -21.6618    8.8452   31.1297 H   0  0  0  0  0  0  0  0  0  0  0  0
  -22.1065    9.4863   29.5041 H   0  0  0  0  0  0  0  0  0  0  0  0
  -22.1713    5.4209   29.1622 H   0  0  0  0  0  0  0  0  0  0  0  0
  -21.7569    4.7563   30.7952 H   0  0  0  0  0  0  0  0  0  0  0  0
  -23.6831    9.5750   32.0517 H   0  0  0  0  0  0  0  0  0  0  0  0
  -27.7702    9.9944   31.2652 H   0  0  0  0  0  0  0  0  0  0  0  0
  -25.9036    5.5331   29.1879 H   0  0  0  0  0  0  0  0  0  0  0  0
  -25.7945    4.2675   26.9791 H   0  0  0  0  0  0  0  0  0  0  0  0
  -25.1961    9.2278   27.0306 H   0  0  0  0  0  0  0  0  0  0  0  0
  -15.3577    6.6747   30.0443 H   0  0  0  0  0  0  0  0  0  0  0  0
  -16.7354    5.6185   28.2373 H   0  0  0  0  0  0  0  0  0  0  0  0
  -16.9413    4.2691   29.1918 H   0  0  0  0  0  0  0  0  0  0  0  0
  -19.8663    8.3649   29.5166 H   0  0  0  0  0  0  0  0  0  0  0  0
  -21.0654    7.5560   28.4193 H   0  0  0  0  0  0  0  0  0  0  0  0
  -23.9540    5.9488   30.7802 H   0  0  0  0  0  0  0  0  0  0  0  0
  -22.7476    6.7129   31.8813 H   0  0  0  0  0  0  0  0  0  0  0  0
  -24.9081    7.8946   24.9357 H   0  0  0  0  0  0  0  0  0  0  0  0
  1 13  1  0
  1 15  1  0
  3  2  1  0
  2 15  1  0
  2 16  2  0
  3  5  1  0
  3 17  1  0
  4 17  1  0
  4 18  1  0
  5 19  1  0
  6 20  2  0
  6 21  1  0
  7 21  2  0
  7 22  1  0
  8  9  2  0
  8 11  1  0
  8 23  1  0
  9 10  1  0
 10 24  2  0
 11 26  2  0
 13 12  1  0
 13 14  1  0
 14 15  1  0
 18 19  1  0
 18 20  1  0
 20 23  1  0
 22 23  2  0
 24 25  1  0
 24 26  1  0
  1 27  1  0
  1 28  1  0
  3 29  1  1
  4 30  1  0
  4 31  1  0
  5 32  1  0
  5 33  1  0
  6 34  1  0
  7 35  1  0
  9 36  1  0
 10 37  1  0
 11 38  1  0
 13 39  1  6
 14 40  1  0
 14 41  1  0
 17 42  1  0
 17 43  1  0
 19 44  1  0
 19 45  1  0
 26 46  1  0
M  END
>  <filename_input>  (24) 
7N6F_0I1_docked.sdf

>  <pdb_id>  (24) 
7N6F_0I1

>  <pose_rank>  (24) 
23

>  <num_atoms_heavy>  (24) 
26

>  <num_torsions>  (24) 
3

>  <pose>  (24) 
[-20.56114143493872, 6.428757737096783, 30.17936647626398, -1.7736034843808164, -2.2232392803367533, -0.07979896475317572, 6.425017654969024, -0.563808057618348, 2.2537187550489644]

>  <energy>  (24) 
-152.87000372230915

>  <inter_energy>  (24) 
-146.4678768362744

>  <intra_energy>  (24) 
2.56583980717208

>  <rmsd>  (24) 
13.5743

>  <sdf_rank>  (24) 
0

$$$$

     RDKit          3D

 46 49  0  0  0  0  0  0  0  0999 V2000
  -24.2654   -8.1166   19.2962 C   0  0  0  0  0  0  0  0  0  0  0  0
  -23.9550   -9.3773   17.0298 C   0  0  0  0  0  0  0  0  0  0  0  0
  -22.7966   -8.4807   16.6589 C   0  0  2  0  0  0  0  0  0  0  0  0
  -20.9944   -8.0845   14.8963 C   0  0  0  0  0  0  0  0  0  0  0  0
  -23.2782   -7.0567   16.3772 C   0  0  0  0  0  0  0  0  0  0  0  0
  -19.3378   -5.9273   13.8582 C   0  0  0  0  0  0  0  0  0  0  0  0
  -19.1766   -3.9682   12.6741 C   0  0  0  0  0  0  0  0  0  0  0  0
  -22.8149   -4.5822   13.0603 C   0  0  0  0  0  0  0  0  0  0  0  0
  -23.4621   -3.4634   13.5580 C   0  0  0  0  0  0  0  0  0  0  0  0
  -24.8659   -3.3266   13.3627 C   0  0  0  0  0  0  0  0  0  0  0  0
  -23.5224   -5.5468   12.3151 C   0  0  0  0  0  0  0  0  0  0  0  0
  -26.5728   -7.8088   19.8311 F   0  0  0  0  0  0  0  0  0  0  0  0
  -25.5825   -8.7352   19.9288 C   0  0  1  0  0  0  0  0  0  0  0  0
  -25.6126   -9.8088   18.8469 C   0  0  0  0  0  0  0  0  0  0  0  0
  -24.4395   -9.1819   18.2445 N   0  0  0  0  0  0  0  0  0  0  0  0
  -24.3476  -10.2983   16.3120 O   0  0  0  0  0  0  0  0  0  0  0  0
  -22.1191   -9.0140   15.3842 C   0  0  0  0  0  0  0  0  0  0  0  0
  -21.5062   -6.7387   14.6810 N   0  0  0  0  0  0  0  0  0  0  0  0
  -22.1293   -6.1615   15.8868 C   0  0  0  0  0  0  0  0  0  0  0  0
  -20.7347   -5.8134   13.9362 C   0  0  0  0  0  0  0  0  0  0  0  0
  -18.5839   -5.0208   13.2086 N   0  0  0  0  0  0  0  0  0  0  0  0
  -20.5354   -3.7771   12.6735 N   0  0  0  0  0  0  0  0  0  0  0  0
  -21.3440   -4.7296   13.2649 C   0  0  0  0  0  0  0  0  0  0  0  0
  -25.4976   -4.2840   12.6653 C   0  0  0  0  0  0  0  0  0  0  0  0
  -26.8468   -4.1560   12.4820 F   0  0  0  0  0  0  0  0  0  0  0  0
  -24.8911   -5.4046   12.1992 C   0  0  0  0  0  0  0  0  0  0  0  0
  -24.3590   -7.0814   18.9360 H   0  0  0  0  0  0  0  0  0  0  0  0
  -23.3333   -7.9757   19.8630 H   0  0  0  0  0  0  0  0  0  0  0  0
  -22.0911   -8.4710   17.5027 H   0  0  0  0  0  0  0  0  0  0  0  0
  -20.1968   -8.0523   15.6531 H   0  0  0  0  0  0  0  0  0  0  0  0
  -20.5982   -8.4720   13.9461 H   0  0  0  0  0  0  0  0  0  0  0  0
  -24.0605   -7.0900   15.6046 H   0  0  0  0  0  0  0  0  0  0  0  0
  -23.6710   -6.6332   17.3134 H   0  0  0  0  0  0  0  0  0  0  0  0
  -18.8445   -6.7830   14.3424 H   0  0  0  0  0  0  0  0  0  0  0  0
  -18.5448   -3.2010   12.2027 H   0  0  0  0  0  0  0  0  0  0  0  0
  -22.8978   -2.6890   14.0981 H   0  0  0  0  0  0  0  0  0  0  0  0
  -25.4147   -2.4647   13.7701 H   0  0  0  0  0  0  0  0  0  0  0  0
  -22.9991   -6.3892   11.8392 H   0  0  0  0  0  0  0  0  0  0  0  0
  -25.6553   -9.0612   20.9769 H   0  0  0  0  0  0  0  0  0  0  0  0
  -25.4428  -10.8311   19.2159 H   0  0  0  0  0  0  0  0  0  0  0  0
  -26.5222   -9.9989   18.2583 H   0  0  0  0  0  0  0  0  0  0  0  0
  -21.6930  -10.0056   15.5970 H   0  0  0  0  0  0  0  0  0  0  0  0
  -22.8810   -9.0695   14.5927 H   0  0  0  0  0  0  0  0  0  0  0  0
  -22.5244   -5.1631   15.6480 H   0  0  0  0  0  0  0  0  0  0  0  0
  -21.3707   -6.0882   16.6800 H   0  0  0  0  0  0  0  0  0  0  0  0
  -25.4892   -6.1993   11.7294 H   0  0  0  0  0  0  0  0  0  0  0  0
  1 13  1  0
  1 15  1  0
  3  2  1  0
  2 15  1  0
  2 16  2  0
  3  5  1  0
  3 17  1  0
  4 17  1  0
  4 18  1  0
  5 19  1  0
  6 20  2  0
  6 21  1  0
  7 21  2  0
  7 22  1  0
  8  9  2  0
  8 11  1  0
  8 23  1  0
  9 10  1  0
 10 24  2  0
 11 26  2  0
 13 12  1  0
 13 14  1  0
 14 15  1  0
 18 19  1  0
 18 20  1  0
 20 23  1  0
 22 23  2  0
 24 25  1  0
 24 26  1  0
  1 27  1  0
  1 28  1  0
  3 29  1  1
  4 30  1  0
  4 31  1  0
  5 32  1  0
  5 33  1  0
  6 34  1  0
  7 35  1  0
  9 36  1  0
 10 37  1  0
 11 38  1  0
 13 39  1  1
 14 40  1  0
 14 41  1  0
 17 42  1  0
 17 43  1  0
 19 44  1  0
 19 45  1  0
 26 46  1  0
M  END
>  <filename_input>  (25) 
7N6F_0I1_docked.sdf

>  <pdb_id>  (25) 
7N6F_0I1

>  <pose_rank>  (25) 
24

>  <num_atoms_heavy>  (25) 
26

>  <num_torsions>  (25) 
3

>  <pose>  (25) 
[-22.79661591939694, -8.480696885737276, 16.658874870063006, 2.827867707439453, -0.03759463444526768, -0.5369167647835756, 1.6472011703711744, -0.17277273558422965, -3.5232221251690685]

>  <energy>  (25) 
-132.52686767331008

>  <inter_energy>  (25) 
-152.50516801143112

>  <intra_energy>  (25) 
20.136520868807747

>  <rmsd>  (25) 
12.6968

>  <sdf_rank>  (25) 
0

$$$$

     RDKit          3D

 46 49  0  0  0  0  0  0  0  0999 V2000
  -17.5140    4.5710   20.3720 C   0  0  0  0  0  0  0  0  0  0  0  0
  -18.8160    2.5560   21.4050 C   0  0  0  0  0  0  0  0  0  0  0  0
  -17.6710    1.6210   21.0920 C   0  0  2  0  0  0  0  0  0  0  0  0
  -15.3930    0.8220   21.9190 C   0  0  0  0  0  0  0  0  0  0  0  0
  -18.1240    0.1620   21.1630 C   0  0  0  0  0  0  0  0  0  0  0  0
  -13.6010   -1.4310   21.9020 C   0  0  0  0  0  0  0  0  0  0  0  0
  -13.1850   -3.6650   22.2220 C   0  0  0  0  0  0  0  0  0  0  0  0
  -16.7970   -3.2280   22.9470 C   0  0  0  0  0  0  0  0  0  0  0  0
  -17.4610   -2.3280   23.7640 C   0  0  0  0  0  0  0  0  0  0  0  0
  -18.7750   -2.6370   24.2170 C   0  0  0  0  0  0  0  0  0  0  0  0
  -17.4340   -4.4090   22.5160 C   0  0  0  0  0  0  0  0  0  0  0  0
  -18.9520    6.0060   19.1160 F   0  0  0  0  0  0  0  0  0  0  0  0
  -18.5460    5.7760   20.3930 C   0  0  1  0  0  0  0  0  0  0  0  0
  -19.5170    4.9460   21.2250 C   0  0  0  0  0  0  0  0  0  0  0  0
  -18.5810    3.8290   21.1350 N   0  0  0  0  0  0  0  0  0  0  0  0
  -19.8450    2.1900   21.9750 O   0  0  0  0  0  0  0  0  0  0  0  0
  -16.5460    1.8200   22.1230 C   0  0  0  0  0  0  0  0  0  0  0  0
  -15.8920   -0.5450   21.9610 N   0  0  0  0  0  0  0  0  0  0  0  0
  -16.9450   -0.8030   20.9610 C   0  0  0  0  0  0  0  0  0  0  0  0
  -14.9760   -1.6140   22.1170 C   0  0  0  0  0  0  0  0  0  0  0  0
  -12.7250   -2.4500   21.9830 N   0  0  0  0  0  0  0  0  0  0  0  0
  -14.5050   -3.9450   22.4710 N   0  0  0  0  0  0  0  0  0  0  0  0
  -15.4190   -2.9080   22.4720 C   0  0  0  0  0  0  0  0  0  0  0  0
  -19.3290   -3.7850   23.7960 C   0  0  0  0  0  0  0  0  0  0  0  0
  -20.5890   -4.0850   24.2350 F   0  0  0  0  0  0  0  0  0  0  0  0
  -18.6850   -4.6970   23.0250 C   0  0  0  0  0  0  0  0  0  0  0  0
  -17.2833    4.1677   19.3750 H   0  0  0  0  0  0  0  0  0  0  0  0
  -16.4750    4.6610   20.7219 H   0  0  0  0  0  0  0  0  0  0  0  0
  -17.3157    1.8475   20.0759 H   0  0  0  0  0  0  0  0  0  0  0  0
  -14.9226    1.0063   20.9419 H   0  0  0  0  0  0  0  0  0  0  0  0
  -14.6564    0.9580   22.7246 H   0  0  0  0  0  0  0  0  0  0  0  0
  -18.5744   -0.0251   22.1490 H   0  0  0  0  0  0  0  0  0  0  0  0
  -18.8550   -0.0125   20.3598 H   0  0  0  0  0  0  0  0  0  0  0  0
  -13.2281   -0.4248   21.6601 H   0  0  0  0  0  0  0  0  0  0  0  0
  -12.4689   -4.5000   22.2214 H   0  0  0  0  0  0  0  0  0  0  0  0
  -16.9784   -1.3848   24.0597 H   0  0  0  0  0  0  0  0  0  0  0  0
  -19.3184   -1.9573   24.8899 H   0  0  0  0  0  0  0  0  0  0  0  0
  -16.9483   -5.0824   21.7944 H   0  0  0  0  0  0  0  0  0  0  0  0
  -18.2928    6.7837   20.7542 H   0  0  0  0  0  0  0  0  0  0  0  0
  -19.6785    5.3229   22.2457 H   0  0  0  0  0  0  0  0  0  0  0  0
  -20.5697    4.8324   20.9267 H   0  0  0  0  0  0  0  0  0  0  0  0
  -16.1520    2.8424   22.0256 H   0  0  0  0  0  0  0  0  0  0  0  0
  -16.9690    1.6499   23.1240 H   0  0  0  0  0  0  0  0  0  0  0  0
  -17.3013   -1.8381   21.0687 H   0  0  0  0  0  0  0  0  0  0  0  0
  -16.5269   -0.6498   19.9551 H   0  0  0  0  0  0  0  0  0  0  0  0
  -19.1590   -5.6651   22.8055 H   0  0  0  0  0  0  0  0  0  0  0  0
  1 13  1  0
  1 15  1  0
  3  2  1  0
  2 15  1  0
  2 16  2  0
  3  5  1  0
  3 17  1  0
  4 17  1  0
  4 18  1  0
  5 19  1  0
  6 20  2  0
  6 21  1  0
  7 21  2  0
  7 22  1  0
  8  9  2  0
  8 11  1  0
  8 23  1  0
  9 10  1  0
 10 24  2  0
 11 26  2  0
 13 12  1  0
 13 14  1  0
 14 15  1  0
 18 19  1  0
 18 20  1  0
 20 23  1  0
 22 23  2  0
 24 25  1  0
 24 26  1  0
  1 27  1  0
  1 28  1  0
  3 29  1  6
  4 30  1  0
  4 31  1  0
  5 32  1  0
  5 33  1  0
  6 34  1  0
  7 35  1  0
  9 36  1  0
 10 37  1  0
 11 38  1  0
 13 39  1  1
 14 40  1  0
 14 41  1  0
 17 42  1  0
 17 43  1  0
 19 44  1  0
 19 45  1  0
 26 46  1  0
M  END
>  <filename_input>  (26) 
7N6F_0I1_docked.sdf

>  <pdb_id>  (26) 
7N6F_0I1

>  <pose_rank>  (26) 
25

>  <num_atoms_heavy>  (26) 
26

>  <num_torsions>  (26) 
3

>  <pose>  (26) 
[-17.671, 1.621, 21.092, 1e-06, 1e-06, 1e-06, 0.0, 0.0, 0.0]

>  <energy>  (26) 
-864.6471722421672

>  <inter_energy>  (26) 
-906.3155080227233

>  <intra_energy>  (26) 
43.62206518761214

>  <rmsd>  (26) 
0.0

>  <sdf_rank>  (26) 
0

$$$$
