
     RDKit          3D

 61 63  0  0  0  0  0  0  0  0999 V2000
   46.2373  -14.3926    8.9193 O   0  0  0  0  0  0  0  0  0  0  0  0
   46.9192  -14.3005    7.5943 P   0  0  2  0  0  0  0  0  0  0  0  0
   48.2871  -13.6898    7.4427 O   0  0  0  0  0  0  0  0  0  0  0  0
   45.8729  -13.6103    6.5952 O   0  0  0  0  0  0  0  0  0  0  0  0
   45.5677  -12.2378    6.6380 C   0  0  1  0  0  0  0  0  0  0  0  0
   46.6978  -11.3999    6.4742 O   0  0  0  0  0  0  0  0  0  0  0  0
   47.3722  -11.5651    5.2030 C   0  0  2  0  0  0  0  0  0  0  0  0
   48.6201  -10.7164    5.2774 C   0  0  0  0  0  0  0  0  0  0  0  0
   44.5384  -11.9867    5.5561 C   0  0  2  0  0  0  0  0  0  0  0  0
   43.5374  -12.9842    5.6576 O   0  0  0  0  0  0  0  0  0  0  0  0
   45.1352  -11.9823    4.1576 C   0  0  1  0  0  0  0  0  0  0  0  0
   44.1227  -11.4898    3.2087 N   0  0  0  0  0  0  0  0  0  0  0  0
   46.4242  -11.1444    4.0957 C   0  0  1  0  0  0  0  0  0  0  0  0
   46.1159   -9.7562    4.2651 O   0  0  0  0  0  0  0  0  0  0  0  0
   46.9244  -15.7646    6.9844 O   0  0  0  0  0  0  0  0  0  0  0  0
   47.5824  -17.1815    7.3174 P   0  0  1  0  0  0  0  0  0  0  0  0
   47.4460  -17.8996    6.0124 O   0  0  0  0  0  0  0  0  0  0  0  0
   48.8921  -16.9659    8.0103 O   0  0  0  0  0  0  0  0  0  0  0  0
   46.5298  -17.8000    8.3282 O   0  0  0  0  0  0  0  0  0  0  0  0
   45.3168  -18.2754    7.7804 C   0  0  0  0  0  0  0  0  0  0  0  0
   44.3101  -18.3463    8.8995 C   0  0  1  0  0  0  0  0  0  0  0  0
   44.8148  -19.2097    9.9470 O   0  0  0  0  0  0  0  0  0  0  0  0
   43.9991  -17.0276    9.5956 C   0  0  1  0  0  0  0  0  0  0  0  0
   43.0923  -16.2384    8.8170 O   0  0  0  0  0  0  0  0  0  0  0  0
   43.4203  -17.5578   10.9065 C   0  0  0  0  0  0  0  0  0  0  0  0
   44.2849  -18.7940   11.1950 C   0  0  2  0  0  0  0  0  0  0  0  0
   45.4143  -18.5359   12.1010 N   0  0  0  0  0  0  0  0  0  0  0  0
   45.2940  -18.9609   13.4084 C   0  0  0  0  0  0  0  0  0  0  0  0
   44.3026  -19.5275   13.8328 O   0  0  0  0  0  0  0  0  0  0  0  0
   46.3452  -18.6406   14.2180 N   0  0  0  0  0  0  0  0  0  0  0  0
   46.5353  -17.8572   11.6785 C   0  0  0  0  0  0  0  0  0  0  0  0
   47.5738  -17.5651   12.4748 C   0  0  0  0  0  0  0  0  0  0  0  0
   48.7836  -16.8179   11.9985 C   0  0  0  0  0  0  0  0  0  0  0  0
   47.4997  -17.9709   13.8659 C   0  0  0  0  0  0  0  0  0  0  0  0
   48.3490  -17.7435   14.7241 O   0  0  0  0  0  0  0  0  0  0  0  0
   45.1791  -11.9847    7.6355 H   0  0  0  0  0  0  0  0  0  0  0  0
   47.6609  -12.6045    4.9881 H   0  0  0  0  0  0  0  0  0  0  0  0
   48.8807  -10.5391    6.3313 H   0  0  0  0  0  0  0  0  0  0  0  0
   49.4492  -11.2387    4.7775 H   0  0  0  0  0  0  0  0  0  0  0  0
   48.4390   -9.7534    4.7775 H   0  0  0  0  0  0  0  0  0  0  0  0
   44.1151  -10.9832    5.7107 H   0  0  0  0  0  0  0  0  0  0  0  0
   43.3516  -13.1693    6.6122 H   0  0  0  0  0  0  0  0  0  0  0  0
   45.4192  -13.0087    3.8822 H   0  0  0  0  0  0  0  0  0  0  0  0
   43.3239  -11.1011    3.7300 H   0  0  0  0  0  0  0  0  0  0  0  0
   44.5359  -10.7555    2.6161 H   0  0  0  0  0  0  0  0  0  0  0  0
   43.8001  -12.2680    2.6161 H   0  0  0  0  0  0  0  0  0  0  0  0
   46.8966  -11.3072    3.1157 H   0  0  0  0  0  0  0  0  0  0  0  0
   46.0688   -9.5441    5.2310 H   0  0  0  0  0  0  0  0  0  0  0  0
   44.9621  -17.5865    6.9995 H   0  0  0  0  0  0  0  0  0  0  0  0
   45.4599  -19.2665    7.3251 H   0  0  0  0  0  0  0  0  0  0  0  0
   43.3941  -18.7033    8.4061 H   0  0  0  0  0  0  0  0  0  0  0  0
   44.8422  -16.3370    9.7446 H   0  0  0  0  0  0  0  0  0  0  0  0
   42.5006  -15.7235    9.4210 H   0  0  0  0  0  0  0  0  0  0  0  0
   43.5159  -16.8129   11.7102 H   0  0  0  0  0  0  0  0  0  0  0  0
   42.3462  -17.7869   10.8433 H   0  0  0  0  0  0  0  0  0  0  0  0
   43.6520  -19.5458   11.6892 H   0  0  0  0  0  0  0  0  0  0  0  0
   46.2683  -18.9315   15.2031 H   0  0  0  0  0  0  0  0  0  0  0  0
   46.5817  -17.5363   10.6274 H   0  0  0  0  0  0  0  0  0  0  0  0
   49.3597  -16.4621   12.8654 H   0  0  0  0  0  0  0  0  0  0  0  0
   49.4112  -17.4859   11.3903 H   0  0  0  0  0  0  0  0  0  0  0  0
   48.4673  -15.9576   11.3903 H   0  0  0  0  0  0  0  0  0  0  0  0
  2  1  1  1
  2  3  2  0
  2  4  1  0
  2 15  1  0
  5  4  1  0
  5  6  1  0
  5  9  1  0
  6  7  1  0
  7  8  1  0
  7 13  1  0
  9 10  1  0
  9 11  1  0
 11 12  1  0
 11 13  1  0
 13 14  1  0
 15 16  1  0
 16 17  1  6
 16 18  2  0
 16 19  1  0
 19 20  1  0
 21 20  1  0
 21 22  1  0
 21 23  1  0
 22 26  1  0
 23 24  1  0
 23 25  1  0
 25 26  1  0
 26 27  1  0
 27 28  1  0
 27 31  1  0
 28 29  2  0
 28 30  1  0
 30 34  1  0
 31 32  2  0
 32 33  1  0
 32 34  1  0
 34 35  2  0
  5 36  1  1
  7 37  1  6
  8 38  1  0
  8 39  1  0
  8 40  1  0
  9 41  1  1
 10 42  1  0
 11 43  1  6
 12 44  1  0
 12 45  1  0
 12 46  1  0
 13 47  1  6
 14 48  1  0
 20 49  1  0
 20 50  1  0
 21 51  1  6
 23 52  1  1
 24 53  1  0
 25 54  1  0
 25 55  1  0
 26 56  1  1
 30 57  1  0
 31 58  1  0
 33 59  1  0
 33 60  1  0
 33 61  1  0
M  CHG  3   1  -1  12   1  17  -1
M  END
>  <filename_input>  (1) 
7N7B_T3F_docked.sdf

>  <pdb_id>  (1) 
7N7B_T3F

>  <pose_rank>  (1) 
0

>  <num_atoms_heavy>  (1) 
35

>  <num_torsions>  (1) 
8

>  <pose>  (1) 
[47.58240520895659, -17.181528274532223, 7.317430511120086, -0.356695129726879, -3.1209120036236975, 4.840897116906681, 0.2784630296776981, 0.8158715875516948, -1.509419339900754, -0.28171874889415544, 0.49113785117895525, -0.061661164596518755, -0.05946345846003033, -6.048424704007297]

>  <energy>  (1) 
-964.0198345321555

>  <inter_energy>  (1) 
-987.5732261835328

>  <intra_energy>  (1) 
22.323942537779647

>  <rmsd>  (1) 
1.57639

>  <sdf_rank>  (1) 
0

$$$$

     RDKit          3D

 61 63  0  0  0  0  0  0  0  0999 V2000
   44.1641  -14.6125    5.4259 O   0  0  0  0  0  0  0  0  0  0  0  0
   44.7604  -13.8883    6.5874 P   0  0  2  0  0  0  0  0  0  0  0  0
   44.3293  -12.4960    6.9652 O   0  0  0  0  0  0  0  0  0  0  0  0
   46.3503  -13.9605    6.3964 O   0  0  0  0  0  0  0  0  0  0  0  0
   46.9677  -13.9732    5.1325 C   0  0  1  0  0  0  0  0  0  0  0  0
   46.4765  -12.9790    4.2513 O   0  0  0  0  0  0  0  0  0  0  0  0
   46.6795  -11.6243    4.7223 C   0  0  2  0  0  0  0  0  0  0  0  0
   45.9624  -10.7274    3.7403 C   0  0  0  0  0  0  0  0  0  0  0  0
   48.4536  -13.8069    5.3721 C   0  0  2  0  0  0  0  0  0  0  0  0
   48.8373  -14.6960    6.4064 O   0  0  0  0  0  0  0  0  0  0  0  0
   48.8414  -12.3819    5.7341 C   0  0  1  0  0  0  0  0  0  0  0  0
   50.3088  -12.2645    5.7025 N   0  0  0  0  0  0  0  0  0  0  0  0
   48.1713  -11.3591    4.8002 C   0  0  1  0  0  0  0  0  0  0  0  0
   48.7205  -11.4648    3.4818 O   0  0  0  0  0  0  0  0  0  0  0  0
   44.6121  -14.8457    7.8432 O   0  0  0  0  0  0  0  0  0  0  0  0
   45.1033  -16.3000    8.2854 P   0  0  1  0  0  0  0  0  0  0  0  0
   45.8099  -16.7743    7.0554 O   0  0  0  0  0  0  0  0  0  0  0  0
   45.7535  -16.2123    9.6314 O   0  0  0  0  0  0  0  0  0  0  0  0
   43.7322  -17.0873    8.3960 O   0  0  0  0  0  0  0  0  0  0  0  0
   43.8055  -18.4971    8.4647 C   0  0  0  0  0  0  0  0  0  0  0  0
   43.3044  -18.9120    9.8239 C   0  0  1  0  0  0  0  0  0  0  0  0
   44.3537  -19.6188   10.5288 O   0  0  0  0  0  0  0  0  0  0  0  0
   42.9025  -17.7770   10.7569 C   0  0  1  0  0  0  0  0  0  0  0  0
   41.6044  -17.2731   10.4215 O   0  0  0  0  0  0  0  0  0  0  0  0
   42.9773  -18.5060   12.0976 C   0  0  0  0  0  0  0  0  0  0  0  0
   44.1918  -19.4302   11.9249 C   0  0  2  0  0  0  0  0  0  0  0  0
   45.4466  -18.8741   12.4534 N   0  0  0  0  0  0  0  0  0  0  0  0
   45.5672  -18.7597   13.8234 C   0  0  0  0  0  0  0  0  0  0  0  0
   44.6864  -19.0919   14.5965 O   0  0  0  0  0  0  0  0  0  0  0  0
   46.7262  -18.1813   14.2539 N   0  0  0  0  0  0  0  0  0  0  0  0
   46.4508  -18.4413   11.6166 C   0  0  0  0  0  0  0  0  0  0  0  0
   47.5961  -17.8936   12.0481 C   0  0  0  0  0  0  0  0  0  0  0  0
   48.6756  -17.4207   11.1210 C   0  0  0  0  0  0  0  0  0  0  0  0
   47.7756  -17.7306   13.4787 C   0  0  0  0  0  0  0  0  0  0  0  0
   48.7477  -17.2136   14.0238 O   0  0  0  0  0  0  0  0  0  0  0  0
   46.7410  -14.9244    4.6288 H   0  0  0  0  0  0  0  0  0  0  0  0
   46.2776  -11.4423    5.7299 H   0  0  0  0  0  0  0  0  0  0  0  0
   45.3674   -9.9834    4.2902 H   0  0  0  0  0  0  0  0  0  0  0  0
   46.7003  -10.2121    3.1079 H   0  0  0  0  0  0  0  0  0  0  0  0
   45.2973  -11.3339    3.1079 H   0  0  0  0  0  0  0  0  0  0  0  0
   48.9808  -14.0382    4.4348 H   0  0  0  0  0  0  0  0  0  0  0  0
   48.6567  -14.2774    7.2852 H   0  0  0  0  0  0  0  0  0  0  0  0
   48.4828  -12.1561    6.7493 H   0  0  0  0  0  0  0  0  0  0  0  0
   50.6718  -12.2354    6.6660 H   0  0  0  0  0  0  0  0  0  0  0  0
   50.7077  -13.0762    5.2097 H   0  0  0  0  0  0  0  0  0  0  0  0
   50.5735  -11.3996    5.2097 H   0  0  0  0  0  0  0  0  0  0  0  0
   48.3525  -10.3516    5.2027 H   0  0  0  0  0  0  0  0  0  0  0  0
   49.6908  -11.6515    3.5425 H   0  0  0  0  0  0  0  0  0  0  0  0
   43.1771  -18.9443    7.6803 H   0  0  0  0  0  0  0  0  0  0  0  0
   44.8400  -18.8387    8.3127 H   0  0  0  0  0  0  0  0  0  0  0  0
   42.4099  -19.5125    9.6016 H   0  0  0  0  0  0  0  0  0  0  0  0
   43.5218  -16.8685   10.7248 H   0  0  0  0  0  0  0  0  0  0  0  0
   41.1015  -17.0779   11.2516 H   0  0  0  0  0  0  0  0  0  0  0  0
   43.1348  -17.7974   12.9241 H   0  0  0  0  0  0  0  0  0  0  0  0
   42.0534  -19.0485   12.3467 H   0  0  0  0  0  0  0  0  0  0  0  0
   43.9987  -20.3565   12.4858 H   0  0  0  0  0  0  0  0  0  0  0  0
   46.8294  -18.0684   15.2725 H   0  0  0  0  0  0  0  0  0  0  0  0
   46.3050  -18.5511   10.5319 H   0  0  0  0  0  0  0  0  0  0  0  0
   49.5269  -17.0478   11.7094 H   0  0  0  0  0  0  0  0  0  0  0  0
   49.0063  -18.2564   10.4867 H   0  0  0  0  0  0  0  0  0  0  0  0
   48.2855  -16.6111   10.4867 H   0  0  0  0  0  0  0  0  0  0  0  0
  2  1  1  6
  2  3  2  0
  2  4  1  0
  2 15  1  0
  5  4  1  0
  5  6  1  0
  5  9  1  0
  6  7  1  0
  7  8  1  0
  7 13  1  0
  9 10  1  0
  9 11  1  0
 11 12  1  0
 11 13  1  0
 13 14  1  0
 15 16  1  0
 16 17  1  6
 16 18  2  0
 16 19  1  0
 19 20  1  0
 21 20  1  0
 21 22  1  0
 21 23  1  0
 22 26  1  0
 23 24  1  0
 23 25  1  0
 25 26  1  0
 26 27  1  0
 27 28  1  0
 27 31  1  0
 28 29  2  0
 28 30  1  0
 30 34  1  0
 31 32  2  0
 32 33  1  0
 32 34  1  0
 34 35  2  0
  5 36  1  6
  7 37  1  1
  8 38  1  0
  8 39  1  0
  8 40  1  0
  9 41  1  6
 10 42  1  0
 11 43  1  1
 12 44  1  0
 12 45  1  0
 12 46  1  0
 13 47  1  1
 14 48  1  0
 20 49  1  0
 20 50  1  0
 21 51  1  6
 23 52  1  1
 24 53  1  0
 25 54  1  0
 25 55  1  0
 26 56  1  1
 30 57  1  0
 31 58  1  0
 33 59  1  0
 33 60  1  0
 33 61  1  0
M  CHG  3   1  -1  12   1  17  -1
M  END
>  <filename_input>  (2) 
7N7B_T3F_docked.sdf

>  <pdb_id>  (2) 
7N7B_T3F

>  <pose_rank>  (2) 
1

>  <num_atoms_heavy>  (2) 
35

>  <num_torsions>  (2) 
8

>  <pose>  (2) 
[45.10333480564549, -16.29995424141621, 8.285388658153849, -3.39922461259571, 3.108112799705353, 3.429695420242264, -3.249486468054092, 3.0267809368028296, -8.524008506716783, -0.4575463293324061, 2.074898489859662, -1.5544847400495012, -1.1425919892182947, -6.637210435129527]

>  <energy>  (2) 
-826.2959982632174

>  <inter_energy>  (2) 
-880.6115764306033

>  <intra_energy>  (2) 
49.87183383238025

>  <rmsd>  (2) 
2.38071

>  <sdf_rank>  (2) 
0

$$$$

     RDKit          3D

 61 63  0  0  0  0  0  0  0  0999 V2000
   49.7105  -14.4956    6.5412 O   0  0  0  0  0  0  0  0  0  0  0  0
   48.2612  -14.7963    6.3451 P   0  0  2  0  0  0  0  0  0  0  0  0
   47.7819  -15.7528    5.2858 O   0  0  0  0  0  0  0  0  0  0  0  0
   47.5206  -13.3809    6.2124 O   0  0  0  0  0  0  0  0  0  0  0  0
   47.0352  -12.8850    4.9888 C   0  0  1  0  0  0  0  0  0  0  0  0
   45.6880  -13.2364    4.7286 O   0  0  0  0  0  0  0  0  0  0  0  0
   44.7486  -12.7263    5.7060 C   0  0  2  0  0  0  0  0  0  0  0  0
   43.4079  -13.3263    5.3514 C   0  0  0  0  0  0  0  0  0  0  0  0
   47.2112  -11.3815    5.0278 C   0  0  2  0  0  0  0  0  0  0  0  0
   48.5219  -11.1011    5.4872 O   0  0  0  0  0  0  0  0  0  0  0  0
   46.1860  -10.6859    5.9094 C   0  0  1  0  0  0  0  0  0  0  0  0
   46.2769   -9.2326    5.6906 N   0  0  0  0  0  0  0  0  0  0  0  0
   44.7641  -11.2105    5.6447 C   0  0  1  0  0  0  0  0  0  0  0  0
   44.3253  -10.8043    4.3434 O   0  0  0  0  0  0  0  0  0  0  0  0
   47.6966  -15.2465    7.7573 O   0  0  0  0  0  0  0  0  0  0  0  0
   48.0047  -16.3704    8.8498 P   0  0  1  0  0  0  0  0  0  0  0  0
   49.4521  -16.6540    8.6011 O   0  0  0  0  0  0  0  0  0  0  0  0
   47.4633  -15.9311   10.1748 O   0  0  0  0  0  0  0  0  0  0  0  0
   47.1647  -17.5973    8.3008 O   0  0  0  0  0  0  0  0  0  0  0  0
   45.9153  -17.3056    7.7080 C   0  0  0  0  0  0  0  0  0  0  0  0
   44.8494  -17.9533    8.5537 C   0  0  1  0  0  0  0  0  0  0  0  0
   45.4611  -18.9186    9.4434 O   0  0  0  0  0  0  0  0  0  0  0  0
   44.0697  -17.0176    9.4685 C   0  0  1  0  0  0  0  0  0  0  0  0
   43.0679  -16.3023    8.7363 O   0  0  0  0  0  0  0  0  0  0  0  0
   43.5243  -18.0326   10.4719 C   0  0  0  0  0  0  0  0  0  0  0  0
   44.6819  -19.0306   10.6230 C   0  0  2  0  0  0  0  0  0  0  0  0
   45.5601  -18.7588   11.7710 N   0  0  0  0  0  0  0  0  0  0  0  0
   45.1487  -19.2069   13.0097 C   0  0  0  0  0  0  0  0  0  0  0  0
   44.1015  -19.8043   13.1844 O   0  0  0  0  0  0  0  0  0  0  0  0
   45.9718  -18.8734   14.0462 N   0  0  0  0  0  0  0  0  0  0  0  0
   46.7297  -18.0462   11.6296 C   0  0  0  0  0  0  0  0  0  0  0  0
   47.5444  -17.7409   12.6499 C   0  0  0  0  0  0  0  0  0  0  0  0
   48.8109  -16.9569   12.4777 C   0  0  0  0  0  0  0  0  0  0  0  0
   47.1577  -18.1701   13.9810 C   0  0  0  0  0  0  0  0  0  0  0  0
   47.7757  -17.9352   15.0166 O   0  0  0  0  0  0  0  0  0  0  0  0
   47.6030  -13.3396    4.1635 H   0  0  0  0  0  0  0  0  0  0  0  0
   44.9978  -12.9989    6.7421 H   0  0  0  0  0  0  0  0  0  0  0  0
   42.8604  -13.5713    6.2734 H   0  0  0  0  0  0  0  0  0  0  0  0
   42.8268  -12.6023    4.7612 H   0  0  0  0  0  0  0  0  0  0  0  0
   43.5605  -14.2419    4.7612 H   0  0  0  0  0  0  0  0  0  0  0  0
   47.0554  -10.9908    4.0114 H   0  0  0  0  0  0  0  0  0  0  0  0
   48.5312  -11.0991    6.4771 H   0  0  0  0  0  0  0  0  0  0  0  0
   46.4066  -10.9067    6.9642 H   0  0  0  0  0  0  0  0  0  0  0  0
   46.3070   -8.7497    6.5998 H   0  0  0  0  0  0  0  0  0  0  0  0
   47.1329   -9.0182    5.1594 H   0  0  0  0  0  0  0  0  0  0  0  0
   45.4542   -8.9133    5.1594 H   0  0  0  0  0  0  0  0  0  0  0  0
   44.0937  -10.7973    6.4128 H   0  0  0  0  0  0  0  0  0  0  0  0
   43.6018  -10.1345    4.4332 H   0  0  0  0  0  0  0  0  0  0  0  0
   45.7597  -16.2172    7.6766 H   0  0  0  0  0  0  0  0  0  0  0  0
   45.8771  -17.6882    6.6774 H   0  0  0  0  0  0  0  0  0  0  0  0
   44.1526  -18.3791    7.8167 H   0  0  0  0  0  0  0  0  0  0  0  0
   44.6382  -16.2043    9.9434 H   0  0  0  0  0  0  0  0  0  0  0  0
   42.4487  -15.8602    9.3699 H   0  0  0  0  0  0  0  0  0  0  0  0
   43.2901  -17.5511   11.4328 H   0  0  0  0  0  0  0  0  0  0  0  0
   42.5868  -18.5047   10.1428 H   0  0  0  0  0  0  0  0  0  0  0  0
   44.2523  -20.0299   10.7866 H   0  0  0  0  0  0  0  0  0  0  0  0
   45.6744  -19.1815   14.9830 H   0  0  0  0  0  0  0  0  0  0  0  0
   47.0121  -17.7080   10.6217 H   0  0  0  0  0  0  0  0  0  0  0  0
   49.2219  -16.7025   13.4658 H   0  0  0  0  0  0  0  0  0  0  0  0
   49.5427  -17.5602   11.9205 H   0  0  0  0  0  0  0  0  0  0  0  0
   48.5972  -16.0328   11.9205 H   0  0  0  0  0  0  0  0  0  0  0  0
  2  1  1  1
  2  3  2  0
  2  4  1  0
  2 15  1  0
  5  4  1  0
  5  6  1  0
  5  9  1  0
  6  7  1  0
  7  8  1  0
  7 13  1  0
  9 10  1  0
  9 11  1  0
 11 12  1  0
 11 13  1  0
 13 14  1  0
 15 16  1  0
 16 17  1  1
 16 18  2  0
 16 19  1  0
 19 20  1  0
 21 20  1  0
 21 22  1  0
 21 23  1  0
 22 26  1  0
 23 24  1  0
 23 25  1  0
 25 26  1  0
 26 27  1  0
 27 28  1  0
 27 31  1  0
 28 29  2  0
 28 30  1  0
 30 34  1  0
 31 32  2  0
 32 33  1  0
 32 34  1  0
 34 35  2  0
  5 36  1  6
  7 37  1  1
  8 38  1  0
  8 39  1  0
  8 40  1  0
  9 41  1  6
 10 42  1  0
 11 43  1  1
 12 44  1  0
 12 45  1  0
 12 46  1  0
 13 47  1  1
 14 48  1  0
 20 49  1  0
 20 50  1  0
 21 51  1  6
 23 52  1  1
 24 53  1  0
 25 54  1  0
 25 55  1  0
 26 56  1  1
 30 57  1  0
 31 58  1  0
 33 59  1  0
 33 60  1  0
 33 61  1  0
M  CHG  3   1  -1  12   1  17  -1
M  END
>  <filename_input>  (3) 
7N7B_T3F_docked.sdf

>  <pdb_id>  (3) 
7N7B_T3F

>  <pose_rank>  (3) 
2

>  <num_atoms_heavy>  (3) 
35

>  <num_torsions>  (3) 
8

>  <pose>  (3) 
[48.004710794910594, -16.370419275838003, 8.849775008603705, -1.2093378525161502, 5.009999797906747, -0.8578632316736355, 9.842055368817006, -5.319530547624316, 11.615271452423375, 0.30602800299800365, -1.4602889627663447, 13.269133674862525, 13.254343209062759, -0.14094746880826234]

>  <energy>  (3) 
-864.9078137982764

>  <inter_energy>  (3) 
-941.0340433450906

>  <intra_energy>  (3) 
76.8151068009648

>  <rmsd>  (3) 
2.37489

>  <sdf_rank>  (3) 
0

$$$$

     RDKit          3D

 61 63  0  0  0  0  0  0  0  0999 V2000
   43.9851  -13.9262    4.7834 O   0  0  0  0  0  0  0  0  0  0  0  0
   44.4439  -13.9687    6.2036 P   0  0  2  0  0  0  0  0  0  0  0  0
   43.8679  -13.0577    7.2548 O   0  0  0  0  0  0  0  0  0  0  0  0
   46.0424  -13.8557    6.1651 O   0  0  0  0  0  0  0  0  0  0  0  0
   46.7514  -13.4439    5.0221 C   0  0  1  0  0  0  0  0  0  0  0  0
   46.5065  -12.0975    4.6571 O   0  0  0  0  0  0  0  0  0  0  0  0
   46.8917  -11.1351    5.6688 C   0  0  2  0  0  0  0  0  0  0  0  0
   46.4169   -9.7902    5.1702 C   0  0  0  0  0  0  0  0  0  0  0  0
   48.2194  -13.6737    5.3141 C   0  0  2  0  0  0  0  0  0  0  0  0
   48.3635  -14.9722    5.8623 O   0  0  0  0  0  0  0  0  0  0  0  0
   48.8069  -12.6370    6.2585 C   0  0  1  0  0  0  0  0  0  0  0  0
   50.2710  -12.7914    6.2848 N   0  0  0  0  0  0  0  0  0  0  0  0
   48.3952  -11.2097    5.8578 C   0  0  1  0  0  0  0  0  0  0  0  0
   49.0263  -10.8445    4.6252 O   0  0  0  0  0  0  0  0  0  0  0  0
   44.3077  -15.4758    6.6790 O   0  0  0  0  0  0  0  0  0  0  0  0
   44.5040  -16.3129    8.0252 P   0  0  1  0  0  0  0  0  0  0  0  0
   43.1351  -16.2576    8.6254 O   0  0  0  0  0  0  0  0  0  0  0  0
   45.2190  -17.5905    7.7111 O   0  0  0  0  0  0  0  0  0  0  0  0
   45.4466  -15.3574    8.8683 O   0  0  0  0  0  0  0  0  0  0  0  0
   46.7721  -15.1928    8.4063 C   0  0  0  0  0  0  0  0  0  0  0  0
   47.6897  -15.8089    9.4306 C   0  0  1  0  0  0  0  0  0  0  0  0
   47.0552  -15.7681   10.7318 O   0  0  0  0  0  0  0  0  0  0  0  0
   48.0382  -17.2754    9.2112 C   0  0  1  0  0  0  0  0  0  0  0  0
   49.0488  -17.4173    8.2063 O   0  0  0  0  0  0  0  0  0  0  0  0
   48.4857  -17.6486   10.6237 C   0  0  0  0  0  0  0  0  0  0  0  0
   47.5219  -16.8532   11.5166 C   0  0  2  0  0  0  0  0  0  0  0  0
   46.3509  -17.6213   11.9659 N   0  0  0  0  0  0  0  0  0  0  0  0
   46.4288  -18.2436   13.1951 C   0  0  0  0  0  0  0  0  0  0  0  0
   47.4159  -18.1849   13.9065 O   0  0  0  0  0  0  0  0  0  0  0  0
   45.3382  -18.9916   13.5330 N   0  0  0  0  0  0  0  0  0  0  0  0
   45.2314  -17.7549   11.1754 C   0  0  0  0  0  0  0  0  0  0  0  0
   44.1548  -18.4742   11.5237 C   0  0  0  0  0  0  0  0  0  0  0  0
   42.9472  -18.6146   10.6459 C   0  0  0  0  0  0  0  0  0  0  0  0
   44.1827  -19.1668   12.7985 C   0  0  0  0  0  0  0  0  0  0  0  0
   43.2942  -19.8923   13.2385 O   0  0  0  0  0  0  0  0  0  0  0  0
   46.4125  -14.0305    4.1554 H   0  0  0  0  0  0  0  0  0  0  0  0
   46.4437  -11.3278    6.6548 H   0  0  0  0  0  0  0  0  0  0  0  0
   46.1877   -9.1411    6.0282 H   0  0  0  0  0  0  0  0  0  0  0  0
   47.2055   -9.3261    4.5597 H   0  0  0  0  0  0  0  0  0  0  0  0
   45.5117   -9.9241    4.5597 H   0  0  0  0  0  0  0  0  0  0  0  0
   48.7765  -13.5778    4.3704 H   0  0  0  0  0  0  0  0  0  0  0  0
   48.3573  -14.9157    6.8506 H   0  0  0  0  0  0  0  0  0  0  0  0
   48.4081  -12.8022    7.2703 H   0  0  0  0  0  0  0  0  0  0  0  0
   50.5952  -12.8256    7.2619 H   0  0  0  0  0  0  0  0  0  0  0  0
   50.5328  -13.6647    5.8055 H   0  0  0  0  0  0  0  0  0  0  0  0
   50.7092  -11.9920    5.8055 H   0  0  0  0  0  0  0  0  0  0  0  0
   48.7071  -10.5217    6.6575 H   0  0  0  0  0  0  0  0  0  0  0  0
   49.8671  -10.3581    4.8164 H   0  0  0  0  0  0  0  0  0  0  0  0
   46.8975  -15.6985    7.4375 H   0  0  0  0  0  0  0  0  0  0  0  0
   47.0048  -14.1264    8.2699 H   0  0  0  0  0  0  0  0  0  0  0  0
   48.6125  -15.2160    9.3463 H   0  0  0  0  0  0  0  0  0  0  0  0
   47.2348  -17.9220    8.8284 H   0  0  0  0  0  0  0  0  0  0  0  0
   49.9302  -17.5411    8.6398 H   0  0  0  0  0  0  0  0  0  0  0  0
   48.3834  -18.7299   10.7975 H   0  0  0  0  0  0  0  0  0  0  0  0
   49.5438  -17.4179   10.8169 H   0  0  0  0  0  0  0  0  0  0  0  0
   48.0663  -16.5523   12.4238 H   0  0  0  0  0  0  0  0  0  0  0  0
   45.3824  -19.4807   14.4384 H   0  0  0  0  0  0  0  0  0  0  0  0
   45.2196  -17.2421   10.2023 H   0  0  0  0  0  0  0  0  0  0  0  0
   42.0489  -18.7191   11.2721 H   0  0  0  0  0  0  0  0  0  0  0  0
   42.8497  -17.7218   10.0109 H   0  0  0  0  0  0  0  0  0  0  0  0
   43.0572  -19.5060   10.0109 H   0  0  0  0  0  0  0  0  0  0  0  0
  2  1  1  6
  2  3  2  0
  2  4  1  0
  2 15  1  0
  5  4  1  0
  5  6  1  0
  5  9  1  0
  6  7  1  0
  7  8  1  0
  7 13  1  0
  9 10  1  0
  9 11  1  0
 11 12  1  0
 11 13  1  0
 13 14  1  0
 15 16  1  0
 16 17  1  1
 16 18  2  0
 16 19  1  0
 19 20  1  0
 21 20  1  0
 21 22  1  0
 21 23  1  0
 22 26  1  0
 23 24  1  0
 23 25  1  0
 25 26  1  0
 26 27  1  0
 27 28  1  0
 27 31  1  0
 28 29  2  0
 28 30  1  0
 30 34  1  0
 31 32  2  0
 32 33  1  0
 32 34  1  0
 34 35  2  0
  5 36  1  6
  7 37  1  1
  8 38  1  0
  8 39  1  0
  8 40  1  0
  9 41  1  6
 10 42  1  0
 11 43  1  1
 12 44  1  0
 12 45  1  0
 12 46  1  0
 13 47  1  1
 14 48  1  0
 20 49  1  0
 20 50  1  0
 21 51  1  1
 23 52  1  6
 24 53  1  0
 25 54  1  0
 25 55  1  0
 26 56  1  1
 30 57  1  0
 31 58  1  0
 33 59  1  0
 33 60  1  0
 33 61  1  0
M  CHG  3   1  -1  12   1  17  -1
M  END
>  <filename_input>  (4) 
7N7B_T3F_docked.sdf

>  <pdb_id>  (4) 
7N7B_T3F

>  <pose_rank>  (4) 
3

>  <num_atoms_heavy>  (4) 
35

>  <num_torsions>  (4) 
8

>  <pose>  (4) 
[44.50403165720634, -16.312885952685356, 8.02518502121398, 1.9230767286634884, -1.949436938860925, 2.7733319677462385, -7.8741403506369965, -13.668767004887167, -8.830421685486897, -6.424849861748229, -8.298433531519724, 44.73171236905967, -18.370850829726574, 6.358021319711106]

>  <energy>  (4) 
-760.8684424589142

>  <inter_energy>  (4) 
-837.8474500758333

>  <intra_energy>  (4) 
78.69053628237356

>  <rmsd>  (4) 
3.63233

>  <sdf_rank>  (4) 
0

$$$$

     RDKit          3D

 61 63  0  0  0  0  0  0  0  0999 V2000
   43.9848  -15.8150    8.5562 O   0  0  0  0  0  0  0  0  0  0  0  0
   45.0616  -16.7582    8.1316 P   0  0  2  0  0  0  0  0  0  0  0  0
   44.7806  -17.9404    7.2426 O   0  0  0  0  0  0  0  0  0  0  0  0
   45.8129  -17.2179    9.4709 O   0  0  0  0  0  0  0  0  0  0  0  0
   45.4740  -16.7249   10.7440 C   0  0  1  0  0  0  0  0  0  0  0  0
   44.3382  -17.3526   11.3115 O   0  0  0  0  0  0  0  0  0  0  0  0
   44.4983  -18.7766   11.5230 C   0  0  2  0  0  0  0  0  0  0  0  0
   43.1513  -19.2863   11.9800 C   0  0  0  0  0  0  0  0  0  0  0  0
   46.6954  -16.9068   11.6205 C   0  0  2  0  0  0  0  0  0  0  0  0
   47.8258  -16.4367   10.9074 O   0  0  0  0  0  0  0  0  0  0  0  0
   46.9088  -18.3496   12.0505 C   0  0  1  0  0  0  0  0  0  0  0  0
   47.9550  -18.3887   13.0859 N   0  0  0  0  0  0  0  0  0  0  0  0
   45.6003  -18.9920   12.5431 C   0  0  1  0  0  0  0  0  0  0  0  0
   45.1962  -18.3954   13.7807 O   0  0  0  0  0  0  0  0  0  0  0  0
   46.2101  -15.8743    7.4871 O   0  0  0  0  0  0  0  0  0  0  0  0
   47.4633  -16.0870    6.5198 P   0  0  1  0  0  0  0  0  0  0  0  0
   48.1117  -17.2959    7.1160 O   0  0  0  0  0  0  0  0  0  0  0  0
   47.0054  -16.0108    5.0962 O   0  0  0  0  0  0  0  0  0  0  0  0
   48.3613  -14.8283    6.8685 O   0  0  0  0  0  0  0  0  0  0  0  0
   49.6707  -14.8071    6.3368 C   0  0  0  0  0  0  0  0  0  0  0  0
   49.8805  -13.4573    5.7005 C   0  0  1  0  0  0  0  0  0  0  0  0
   49.0777  -13.3616    4.4989 O   0  0  0  0  0  0  0  0  0  0  0  0
   49.4689  -12.2566    6.5425 C   0  0  1  0  0  0  0  0  0  0  0  0
   50.4634  -11.9570    7.5287 O   0  0  0  0  0  0  0  0  0  0  0  0
   49.3247  -11.2066    5.4419 C   0  0  0  0  0  0  0  0  0  0  0  0
   48.7290  -12.0056    4.2733 C   0  0  2  0  0  0  0  0  0  0  0  0
   47.2633  -11.9264    4.1801 N   0  0  0  0  0  0  0  0  0  0  0  0
   46.7238  -11.4339    3.0093 C   0  0  0  0  0  0  0  0  0  0  0  0
   47.4049  -11.0648    2.0692 O   0  0  0  0  0  0  0  0  0  0  0  0
   45.3631  -11.3257    3.0021 N   0  0  0  0  0  0  0  0  0  0  0  0
   46.4546  -12.2875    5.2342 C   0  0  0  0  0  0  0  0  0  0  0  0
   45.1169  -12.1985    5.2118 C   0  0  0  0  0  0  0  0  0  0  0  0
   44.2525  -12.5895    6.3731 C   0  0  0  0  0  0  0  0  0  0  0  0
   44.4901  -11.6717    4.0138 C   0  0  0  0  0  0  0  0  0  0  0  0
   43.2848  -11.4939    3.8555 O   0  0  0  0  0  0  0  0  0  0  0  0
   45.1895  -15.6659   10.6578 H   0  0  0  0  0  0  0  0  0  0  0  0
   44.7988  -19.3262   10.6187 H   0  0  0  0  0  0  0  0  0  0  0  0
   43.1178  -19.2989   13.0795 H   0  0  0  0  0  0  0  0  0  0  0  0
   42.3598  -18.6255   11.5967 H   0  0  0  0  0  0  0  0  0  0  0  0
   42.9955  -20.3055   11.5967 H   0  0  0  0  0  0  0  0  0  0  0  0
   46.5431  -16.3317   12.5457 H   0  0  0  0  0  0  0  0  0  0  0  0
   48.5229  -16.1468   11.5479 H   0  0  0  0  0  0  0  0  0  0  0  0
   47.2370  -18.9409   11.1829 H   0  0  0  0  0  0  0  0  0  0  0  0
   47.5166  -18.3723   14.0178 H   0  0  0  0  0  0  0  0  0  0  0  0
   48.5087  -19.2510   12.9821 H   0  0  0  0  0  0  0  0  0  0  0  0
   48.5716  -17.5702   12.9821 H   0  0  0  0  0  0  0  0  0  0  0  0
   45.7749  -20.0688   12.6848 H   0  0  0  0  0  0  0  0  0  0  0  0
   45.5554  -18.9257   14.5355 H   0  0  0  0  0  0  0  0  0  0  0  0
   50.4050  -14.9611    7.1413 H   0  0  0  0  0  0  0  0  0  0  0  0
   49.8002  -15.6090    5.5951 H   0  0  0  0  0  0  0  0  0  0  0  0
   50.9672  -13.4108    5.5366 H   0  0  0  0  0  0  0  0  0  0  0  0
   48.5605  -12.3693    7.1527 H   0  0  0  0  0  0  0  0  0  0  0  0
   50.0773  -12.0733    8.4328 H   0  0  0  0  0  0  0  0  0  0  0  0
   48.6469  -10.3983    5.7537 H   0  0  0  0  0  0  0  0  0  0  0  0
   50.2746  -10.7132    5.1883 H   0  0  0  0  0  0  0  0  0  0  0  0
   49.1258  -11.5877    3.3364 H   0  0  0  0  0  0  0  0  0  0  0  0
   44.9399  -10.9424    2.1449 H   0  0  0  0  0  0  0  0  0  0  0  0
   46.9333  -12.6711    6.1473 H   0  0  0  0  0  0  0  0  0  0  0  0
   44.7729  -12.3541    7.3131 H   0  0  0  0  0  0  0  0  0  0  0  0
   43.3051  -12.0323    6.3289 H   0  0  0  0  0  0  0  0  0  0  0  0
   44.0454  -13.6689    6.3289 H   0  0  0  0  0  0  0  0  0  0  0  0
  2  1  1  1
  2  3  2  0
  2  4  1  0
  2 15  1  0
  5  4  1  0
  5  6  1  0
  5  9  1  0
  6  7  1  0
  7  8  1  0
  7 13  1  0
  9 10  1  0
  9 11  1  0
 11 12  1  0
 11 13  1  0
 13 14  1  0
 15 16  1  0
 16 17  1  1
 16 18  2  0
 16 19  1  0
 19 20  1  0
 21 20  1  0
 21 22  1  0
 21 23  1  0
 22 26  1  0
 23 24  1  0
 23 25  1  0
 25 26  1  0
 26 27  1  0
 27 28  1  0
 27 31  1  0
 28 29  2  0
 28 30  1  0
 30 34  1  0
 31 32  2  0
 32 33  1  0
 32 34  1  0
 34 35  2  0
  5 36  1  6
  7 37  1  6
  8 38  1  0
  8 39  1  0
  8 40  1  0
  9 41  1  1
 10 42  1  0
 11 43  1  6
 12 44  1  0
 12 45  1  0
 12 46  1  0
 13 47  1  1
 14 48  1  0
 20 49  1  0
 20 50  1  0
 21 51  1  6
 23 52  1  1
 24 53  1  0
 25 54  1  0
 25 55  1  0
 26 56  1  6
 30 57  1  0
 31 58  1  0
 33 59  1  0
 33 60  1  0
 33 61  1  0
M  CHG  3   1  -1  12   1  17  -1
M  END
>  <filename_input>  (5) 
7N7B_T3F_docked.sdf

>  <pdb_id>  (5) 
7N7B_T3F

>  <pose_rank>  (5) 
4

>  <num_atoms_heavy>  (5) 
35

>  <num_torsions>  (5) 
8

>  <pose>  (5) 
[47.46332780512616, -16.087026381431976, 6.519781823028714, 2.8116339867144995, -2.420526990041422, -0.8970741730069077, 8.572081341327033, -7.1327738748698355, -15.40930180422991, -12.455612417367817, -4.125562227493108, -20.10897188949666, -12.84686699758929, -5.7333568376761255]

>  <energy>  (5) 
-828.4749228919385

>  <inter_energy>  (5) 
-840.1736838991171

>  <intra_energy>  (5) 
10.550024787179977

>  <rmsd>  (5) 
9.10097

>  <sdf_rank>  (5) 
0

$$$$

     RDKit          3D

 61 63  0  0  0  0  0  0  0  0999 V2000
   50.8533  -12.2327    6.1504 O   0  0  0  0  0  0  0  0  0  0  0  0
   49.8251  -13.2115    5.6878 P   0  0  2  0  0  0  0  0  0  0  0  0
   49.9725  -13.9718    4.3967 O   0  0  0  0  0  0  0  0  0  0  0  0
   48.4174  -12.4466    5.7414 O   0  0  0  0  0  0  0  0  0  0  0  0
   47.3755  -12.7003    4.8311 C   0  0  1  0  0  0  0  0  0  0  0  0
   46.2064  -13.2211    5.4378 O   0  0  0  0  0  0  0  0  0  0  0  0
   45.6058  -12.3345    6.4131 C   0  0  2  0  0  0  0  0  0  0  0  0
   44.4816  -13.1154    7.0529 C   0  0  0  0  0  0  0  0  0  0  0  0
   47.0888  -11.3932    4.1223 C   0  0  2  0  0  0  0  0  0  0  0  0
   48.3237  -10.8302    3.7155 O   0  0  0  0  0  0  0  0  0  0  0  0
   46.3205  -10.4051    4.9857 C   0  0  1  0  0  0  0  0  0  0  0  0
   45.8760   -9.2816    4.1440 N   0  0  0  0  0  0  0  0  0  0  0  0
   45.1369  -11.0800    5.7004 C   0  0  1  0  0  0  0  0  0  0  0  0
   44.1331  -11.4477    4.7475 O   0  0  0  0  0  0  0  0  0  0  0  0
   49.6037  -14.2339    6.8801 O   0  0  0  0  0  0  0  0  0  0  0  0
   50.4806  -14.9259    8.0219 P   0  0  1  0  0  0  0  0  0  0  0  0
   51.3768  -15.8190    7.2242 O   0  0  0  0  0  0  0  0  0  0  0  0
   50.9838  -13.8747    8.9619 O   0  0  0  0  0  0  0  0  0  0  0  0
   49.4067  -15.8357    8.7509 O   0  0  0  0  0  0  0  0  0  0  0  0
   48.9107  -16.9457    8.0301 C   0  0  0  0  0  0  0  0  0  0  0  0
   47.4220  -16.7634    7.8838 C   0  0  1  0  0  0  0  0  0  0  0  0
   46.7470  -17.9847    8.2717 O   0  0  0  0  0  0  0  0  0  0  0  0
   46.7985  -15.6790    8.7530 C   0  0  1  0  0  0  0  0  0  0  0  0
   47.0224  -14.3804    8.1917 O   0  0  0  0  0  0  0  0  0  0  0  0
   45.3418  -16.1395    8.7352 C   0  0  0  0  0  0  0  0  0  0  0  0
   45.4593  -17.6704    8.7757 C   0  0  2  0  0  0  0  0  0  0  0  0
   45.3513  -18.2432   10.1259 N   0  0  0  0  0  0  0  0  0  0  0  0
   44.1329  -18.7730   10.4992 C   0  0  0  0  0  0  0  0  0  0  0  0
   43.1601  -18.7791    9.7660 O   0  0  0  0  0  0  0  0  0  0  0  0
   44.0734  -19.2343   11.7824 N   0  0  0  0  0  0  0  0  0  0  0  0
   46.4099  -18.2161   11.0060 C   0  0  0  0  0  0  0  0  0  0  0  0
   46.3501  -18.6909   12.2585 C   0  0  0  0  0  0  0  0  0  0  0  0
   47.5117  -18.6457   13.2057 C   0  0  0  0  0  0  0  0  0  0  0  0
   45.0899  -19.2460   12.7162 C   0  0  0  0  0  0  0  0  0  0  0  0
   44.8672  -19.6829   13.8426 O   0  0  0  0  0  0  0  0  0  0  0  0
   47.6931  -13.4835    4.1270 H   0  0  0  0  0  0  0  0  0  0  0  0
   46.3023  -12.0051    7.1982 H   0  0  0  0  0  0  0  0  0  0  0  0
   44.5694  -13.0544    8.1477 H   0  0  0  0  0  0  0  0  0  0  0  0
   43.5161  -12.6925    6.7384 H   0  0  0  0  0  0  0  0  0  0  0  0
   44.5408  -14.1678    6.7384 H   0  0  0  0  0  0  0  0  0  0  0  0
   46.4456  -11.6061    3.2557 H   0  0  0  0  0  0  0  0  0  0  0  0
   48.8552  -10.5880    4.5148 H   0  0  0  0  0  0  0  0  0  0  0  0
   46.9835  -10.0237    5.7763 H   0  0  0  0  0  0  0  0  0  0  0  0
   45.5681   -8.5035    4.7445 H   0  0  0  0  0  0  0  0  0  0  0  0
   46.6565   -8.9683    3.5493 H   0  0  0  0  0  0  0  0  0  0  0  0
   45.0925   -9.5872    3.5493 H   0  0  0  0  0  0  0  0  0  0  0  0
   44.7205  -10.3685    6.4287 H   0  0  0  0  0  0  0  0  0  0  0  0
   43.3186  -11.7460    5.2246 H   0  0  0  0  0  0  0  0  0  0  0  0
   49.3828  -16.9901    7.0375 H   0  0  0  0  0  0  0  0  0  0  0  0
   49.1356  -17.8830    8.5599 H   0  0  0  0  0  0  0  0  0  0  0  0
   47.2951  -16.4790    6.8288 H   0  0  0  0  0  0  0  0  0  0  0  0
   47.2033  -15.5676    9.7698 H   0  0  0  0  0  0  0  0  0  0  0  0
   47.1362  -13.7208    8.9211 H   0  0  0  0  0  0  0  0  0  0  0  0
   44.7976  -15.7620    9.6135 H   0  0  0  0  0  0  0  0  0  0  0  0
   44.7829  -15.7719    7.8619 H   0  0  0  0  0  0  0  0  0  0  0  0
   44.6300  -18.0923    8.1889 H   0  0  0  0  0  0  0  0  0  0  0  0
   43.1675  -19.6170   12.0887 H   0  0  0  0  0  0  0  0  0  0  0  0
   47.3592  -17.7798   10.6618 H   0  0  0  0  0  0  0  0  0  0  0  0
   47.1412  -18.6601   14.2413 H   0  0  0  0  0  0  0  0  0  0  0  0
   48.1580  -19.5193   13.0353 H   0  0  0  0  0  0  0  0  0  0  0  0
   48.0881  -17.7244   13.0353 H   0  0  0  0  0  0  0  0  0  0  0  0
  2  1  1  1
  2  3  2  0
  2  4  1  0
  2 15  1  0
  5  4  1  0
  5  6  1  0
  5  9  1  0
  6  7  1  0
  7  8  1  0
  7 13  1  0
  9 10  1  0
  9 11  1  0
 11 12  1  0
 11 13  1  0
 13 14  1  0
 15 16  1  0
 16 17  1  6
 16 18  2  0
 16 19  1  0
 19 20  1  0
 21 20  1  0
 21 22  1  0
 21 23  1  0
 22 26  1  0
 23 24  1  0
 23 25  1  0
 25 26  1  0
 26 27  1  0
 27 28  1  0
 27 31  1  0
 28 29  2  0
 28 30  1  0
 30 34  1  0
 31 32  2  0
 32 33  1  0
 32 34  1  0
 34 35  2  0
  5 36  1  6
  7 37  1  1
  8 38  1  0
  8 39  1  0
  8 40  1  0
  9 41  1  6
 10 42  1  0
 11 43  1  1
 12 44  1  0
 12 45  1  0
 12 46  1  0
 13 47  1  1
 14 48  1  0
 20 49  1  0
 20 50  1  0
 21 51  1  6
 23 52  1  1
 24 53  1  0
 25 54  1  0
 25 55  1  0
 26 56  1  6
 30 57  1  0
 31 58  1  0
 33 59  1  0
 33 60  1  0
 33 61  1  0
M  CHG  3   1  -1  12   1  17  -1
M  END
>  <filename_input>  (6) 
7N7B_T3F_docked.sdf

>  <pdb_id>  (6) 
7N7B_T3F

>  <pose_rank>  (6) 
5

>  <num_atoms_heavy>  (6) 
35

>  <num_torsions>  (6) 
8

>  <pose>  (6) 
[50.4805901087249, -14.925935407097583, 8.021941449743155, 3.9486558035203854, 4.162799095084377, -1.2526741446872325, -4.355958172268626, 1.35254562042663, -0.23937417672922268, 0.7490487784997765, 0.39348400230659164, 0.6466955006740847, -1.3354518114560554, 0.16606531298033667]

>  <energy>  (6) 
-745.7773517905416

>  <inter_energy>  (6) 
-794.3960055476649

>  <intra_energy>  (6) 
52.83370116511788

>  <rmsd>  (6) 
3.49

>  <sdf_rank>  (6) 
0

$$$$

     RDKit          3D

 61 63  0  0  0  0  0  0  0  0999 V2000
   46.5591  -15.8413    6.7946 O   0  0  0  0  0  0  0  0  0  0  0  0
   46.7719  -14.6583    7.6805 P   0  0  2  0  0  0  0  0  0  0  0  0
   45.9861  -14.4614    8.9496 O   0  0  0  0  0  0  0  0  0  0  0  0
   46.6680  -13.3650    6.7392 O   0  0  0  0  0  0  0  0  0  0  0  0
   46.4066  -13.4440    5.3593 C   0  0  1  0  0  0  0  0  0  0  0  0
   45.1001  -13.0275    5.0047 O   0  0  0  0  0  0  0  0  0  0  0  0
   44.8148  -11.6458    5.3325 C   0  0  2  0  0  0  0  0  0  0  0  0
   43.3497  -11.4367    5.0277 C   0  0  0  0  0  0  0  0  0  0  0  0
   47.4570  -12.6001    4.6682 C   0  0  2  0  0  0  0  0  0  0  0  0
   48.7212  -12.9316    5.2152 O   0  0  0  0  0  0  0  0  0  0  0  0
   47.2022  -11.1071    4.8020 C   0  0  1  0  0  0  0  0  0  0  0  0
   48.1176  -10.3848    3.9028 N   0  0  0  0  0  0  0  0  0  0  0  0
   45.7320  -10.7565    4.5142 C   0  0  1  0  0  0  0  0  0  0  0  0
   45.4416  -10.9595    3.1266 O   0  0  0  0  0  0  0  0  0  0  0  0
   48.3232  -14.6101    8.0074 O   0  0  0  0  0  0  0  0  0  0  0  0
   49.7029  -14.6783    7.2052 P   0  0  1  0  0  0  0  0  0  0  0  0
   49.3631  -15.6097    6.0853 O   0  0  0  0  0  0  0  0  0  0  0  0
   50.2214  -13.2890    6.9977 O   0  0  0  0  0  0  0  0  0  0  0  0
   50.6339  -15.4577    8.2241 O   0  0  0  0  0  0  0  0  0  0  0  0
   50.1045  -16.6304    8.8089 C   0  0  0  0  0  0  0  0  0  0  0  0
   50.3102  -16.5276   10.2982 C   0  0  1  0  0  0  0  0  0  0  0  0
   49.0586  -16.1709   10.9337 O   0  0  0  0  0  0  0  0  0  0  0  0
   50.7522  -17.8074   10.9960 C   0  0  1  0  0  0  0  0  0  0  0  0
   52.1537  -18.0356   10.8084 O   0  0  0  0  0  0  0  0  0  0  0  0
   50.3465  -17.4728   12.4306 C   0  0  0  0  0  0  0  0  0  0  0  0
   49.0325  -16.6982   12.2498 C   0  0  2  0  0  0  0  0  0  0  0  0
   47.8258  -17.5289   12.3791 N   0  0  0  0  0  0  0  0  0  0  0  0
   47.5826  -18.1155   13.6043 C   0  0  0  0  0  0  0  0  0  0  0  0
   48.3202  -17.9767   14.5638 O   0  0  0  0  0  0  0  0  0  0  0  0
   46.4835  -18.9237   13.6489 N   0  0  0  0  0  0  0  0  0  0  0  0
   46.9883  -17.7529   11.3094 C   0  0  0  0  0  0  0  0  0  0  0  0
   45.8980  -18.5313   11.3667 C   0  0  0  0  0  0  0  0  0  0  0  0
   45.0016  -18.7697   10.1886 C   0  0  0  0  0  0  0  0  0  0  0  0
   45.5978  -19.1901   12.6243 C   0  0  0  0  0  0  0  0  0  0  0  0
   44.6617  -19.9604   12.8232 O   0  0  0  0  0  0  0  0  0  0  0  0
   46.4563  -14.4959    5.0414 H   0  0  0  0  0  0  0  0  0  0  0  0
   44.9982  -11.3955    6.3879 H   0  0  0  0  0  0  0  0  0  0  0  0
   42.7871  -11.3565    5.9695 H   0  0  0  0  0  0  0  0  0  0  0  0
   43.2246  -10.5116    4.4459 H   0  0  0  0  0  0  0  0  0  0  0  0
   42.9709  -12.2899    4.4459 H   0  0  0  0  0  0  0  0  0  0  0  0
   47.4209  -12.8208    3.5911 H   0  0  0  0  0  0  0  0  0  0  0  0
   48.6671  -12.9175    6.2036 H   0  0  0  0  0  0  0  0  0  0  0  0
   47.3971  -10.7985    5.8397 H   0  0  0  0  0  0  0  0  0  0  0  0
   48.7966   -9.8490    4.4622 H   0  0  0  0  0  0  0  0  0  0  0  0
   48.6192  -11.0603    3.3087 H   0  0  0  0  0  0  0  0  0  0  0  0
   47.5773   -9.7399    3.3087 H   0  0  0  0  0  0  0  0  0  0  0  0
   45.5685   -9.7021    4.7816 H   0  0  0  0  0  0  0  0  0  0  0  0
   44.6334  -11.5244    3.0378 H   0  0  0  0  0  0  0  0  0  0  0  0
   49.0309  -16.7109    8.5830 H   0  0  0  0  0  0  0  0  0  0  0  0
   50.6077  -17.5232    8.4095 H   0  0  0  0  0  0  0  0  0  0  0  0
   51.1114  -15.7810   10.4013 H   0  0  0  0  0  0  0  0  0  0  0  0
   50.3110  -18.7466   10.6309 H   0  0  0  0  0  0  0  0  0  0  0  0
   52.5973  -18.1079   11.6905 H   0  0  0  0  0  0  0  0  0  0  0  0
   50.1874  -18.3881   13.0196 H   0  0  0  0  0  0  0  0  0  0  0  0
   51.1133  -16.9019   12.9746 H   0  0  0  0  0  0  0  0  0  0  0  0
   48.9742  -15.9355   13.0402 H   0  0  0  0  0  0  0  0  0  0  0  0
   46.2936  -19.3871   14.5489 H   0  0  0  0  0  0  0  0  0  0  0  0
   47.2274  -17.2653   10.3528 H   0  0  0  0  0  0  0  0  0  0  0  0
   43.9949  -19.0375   10.5420 H   0  0  0  0  0  0  0  0  0  0  0  0
   44.9452  -17.8553    9.5797 H   0  0  0  0  0  0  0  0  0  0  0  0
   45.4070  -19.5913    9.5797 H   0  0  0  0  0  0  0  0  0  0  0  0
  2  1  1  6
  2  3  2  0
  2  4  1  0
  2 15  1  0
  5  4  1  0
  5  6  1  0
  5  9  1  0
  6  7  1  0
  7  8  1  0
  7 13  1  0
  9 10  1  0
  9 11  1  0
 11 12  1  0
 11 13  1  0
 13 14  1  0
 15 16  1  0
 16 17  1  6
 16 18  2  0
 16 19  1  0
 19 20  1  0
 21 20  1  0
 21 22  1  0
 21 23  1  0
 22 26  1  0
 23 24  1  0
 23 25  1  0
 25 26  1  0
 26 27  1  0
 27 28  1  0
 27 31  1  0
 28 29  2  0
 28 30  1  0
 30 34  1  0
 31 32  2  0
 32 33  1  0
 32 34  1  0
 34 35  2  0
  5 36  1  6
  7 37  1  1
  8 38  1  0
  8 39  1  0
  8 40  1  0
  9 41  1  6
 10 42  1  0
 11 43  1  1
 12 44  1  0
 12 45  1  0
 12 46  1  0
 13 47  1  1
 14 48  1  0
 20 49  1  0
 20 50  1  0
 21 51  1  6
 23 52  1  6
 24 53  1  0
 25 54  1  0
 25 55  1  0
 26 56  1  1
 30 57  1  0
 31 58  1  0
 33 59  1  0
 33 60  1  0
 33 61  1  0
M  CHG  3   1  -1  12   1  17  -1
M  END
>  <filename_input>  (7) 
7N7B_T3F_docked.sdf

>  <pdb_id>  (7) 
7N7B_T3F

>  <pose_rank>  (7) 
6

>  <num_atoms_heavy>  (7) 
35

>  <num_torsions>  (7) 
8

>  <pose>  (7) 
[49.702912467489355, -14.67827589535063, 7.205208399344476, 0.9141475410003937, -4.140906642366577, -2.5848396175875887, 2.5179466871016407, -3.456015806410572, 3.4899136874807826, 6.864571300548494, -12.551073263503923, 6.748280896836017, -16.104064436492248, -6.738913833800033]

>  <energy>  (7) 
-649.3308843180992

>  <inter_energy>  (7) 
-737.7019357678755

>  <intra_energy>  (7) 
90.1406938162559

>  <rmsd>  (7) 
4.03573

>  <sdf_rank>  (7) 
0

$$$$

     RDKit          3D

 61 63  0  0  0  0  0  0  0  0999 V2000
   43.8018  -13.4233    6.8152 O   0  0  0  0  0  0  0  0  0  0  0  0
   45.2110  -12.9574    6.6525 P   0  0  2  0  0  0  0  0  0  0  0  0
   46.0560  -12.5482    7.8296 O   0  0  0  0  0  0  0  0  0  0  0  0
   45.1786  -11.7998    5.5442 O   0  0  0  0  0  0  0  0  0  0  0  0
   46.1344  -10.7692    5.4884 C   0  0  1  0  0  0  0  0  0  0  0  0
   47.3555  -11.0928    6.1288 O   0  0  0  0  0  0  0  0  0  0  0  0
   48.0392  -12.2308    5.5495 C   0  0  2  0  0  0  0  0  0  0  0  0
   49.2197  -12.5131    6.4495 C   0  0  0  0  0  0  0  0  0  0  0  0
   46.3510  -10.4553    4.0229 C   0  0  2  0  0  0  0  0  0  0  0  0
   45.0823  -10.3399    3.4028 O   0  0  0  0  0  0  0  0  0  0  0  0
   47.1911  -11.5022    3.3087 C   0  0  1  0  0  0  0  0  0  0  0  0
   47.5534  -10.9941    1.9750 N   0  0  0  0  0  0  0  0  0  0  0  0
   48.4371  -11.8819    4.1276 C   0  0  1  0  0  0  0  0  0  0  0  0
   49.3514  -10.7805    4.1694 O   0  0  0  0  0  0  0  0  0  0  0  0
   45.9668  -14.0798    5.8250 O   0  0  0  0  0  0  0  0  0  0  0  0
   47.0284  -15.2404    6.1032 P   0  0  1  0  0  0  0  0  0  0  0  0
   47.2965  -15.7508    4.7230 O   0  0  0  0  0  0  0  0  0  0  0  0
   48.0964  -14.7228    7.0161 O   0  0  0  0  0  0  0  0  0  0  0  0
   46.1438  -16.3166    6.8593 O   0  0  0  0  0  0  0  0  0  0  0  0
   45.5340  -15.9112    8.0681 C   0  0  0  0  0  0  0  0  0  0  0  0
   46.4984  -16.2123    9.1863 C   0  0  1  0  0  0  0  0  0  0  0  0
   45.8046  -16.1322   10.4550 O   0  0  0  0  0  0  0  0  0  0  0  0
   47.1209  -17.6024    9.1681 C   0  0  1  0  0  0  0  0  0  0  0  0
   48.1882  -17.6735    8.2155 O   0  0  0  0  0  0  0  0  0  0  0  0
   47.5602  -17.7078   10.6277 C   0  0  0  0  0  0  0  0  0  0  0  0
   46.4241  -17.0048   11.3855 C   0  0  2  0  0  0  0  0  0  0  0  0
   45.3940  -17.9189   11.9016 N   0  0  0  0  0  0  0  0  0  0  0  0
   45.6340  -18.5320   13.1144 C   0  0  0  0  0  0  0  0  0  0  0  0
   46.6515  -18.3506   13.7590 O   0  0  0  0  0  0  0  0  0  0  0  0
   44.6732  -19.4153   13.5142 N   0  0  0  0  0  0  0  0  0  0  0  0
   44.2496  -18.1912   11.1859 C   0  0  0  0  0  0  0  0  0  0  0  0
   43.2997  -19.0443   11.5956 C   0  0  0  0  0  0  0  0  0  0  0  0
   42.0631  -19.3342   10.7985 C   0  0  0  0  0  0  0  0  0  0  0  0
   43.5023  -19.7337   12.8562 C   0  0  0  0  0  0  0  0  0  0  0  0
   42.7457  -20.5693   13.3448 O   0  0  0  0  0  0  0  0  0  0  0  0
   45.7569   -9.8956    6.0399 H   0  0  0  0  0  0  0  0  0  0  0  0
   47.4158  -13.1349    5.4858 H   0  0  0  0  0  0  0  0  0  0  0  0
   48.9053  -12.4379    7.5009 H   0  0  0  0  0  0  0  0  0  0  0  0
   49.5976  -13.5270    6.2513 H   0  0  0  0  0  0  0  0  0  0  0  0
   50.0154  -11.7799    6.2513 H   0  0  0  0  0  0  0  0  0  0  0  0
   46.9135   -9.5125    3.9530 H   0  0  0  0  0  0  0  0  0  0  0  0
   44.3800  -10.2761    4.0977 H   0  0  0  0  0  0  0  0  0  0  0  0
   46.6014  -12.4240    3.1960 H   0  0  0  0  0  0  0  0  0  0  0  0
   48.1485  -10.1594    2.0756 H   0  0  0  0  0  0  0  0  0  0  0  0
   48.0673  -11.7219    1.4583 H   0  0  0  0  0  0  0  0  0  0  0  0
   46.6978  -10.7454    1.4583 H   0  0  0  0  0  0  0  0  0  0  0  0
   48.9155  -12.7490    3.6487 H   0  0  0  0  0  0  0  0  0  0  0  0
   49.5447  -10.5477    5.1120 H   0  0  0  0  0  0  0  0  0  0  0  0
   45.3199  -14.8327    8.0373 H   0  0  0  0  0  0  0  0  0  0  0  0
   44.5849  -16.4458    8.2211 H   0  0  0  0  0  0  0  0  0  0  0  0
   47.2993  -15.4709    9.0486 H   0  0  0  0  0  0  0  0  0  0  0  0
   46.4698  -18.4310    8.8527 H   0  0  0  0  0  0  0  0  0  0  0  0
   49.0535  -17.7312    8.6930 H   0  0  0  0  0  0  0  0  0  0  0  0
   47.6502  -18.7592   10.9380 H   0  0  0  0  0  0  0  0  0  0  0  0
   48.5470  -17.2596   10.8155 H   0  0  0  0  0  0  0  0  0  0  0  0
   46.8591  -16.4974   12.2592 H   0  0  0  0  0  0  0  0  0  0  0  0
   44.8409  -19.8989   14.4080 H   0  0  0  0  0  0  0  0  0  0  0  0
   44.1064  -17.6795   10.2228 H   0  0  0  0  0  0  0  0  0  0  0  0
   41.2240  -19.5309   11.4821 H   0  0  0  0  0  0  0  0  0  0  0  0
   41.8241  -18.4677   10.1644 H   0  0  0  0  0  0  0  0  0  0  0  0
   42.2341  -20.2166   10.1644 H   0  0  0  0  0  0  0  0  0  0  0  0
  2  1  1  1
  2  3  2  0
  2  4  1  0
  2 15  1  0
  5  4  1  0
  5  6  1  0
  5  9  1  0
  6  7  1  0
  7  8  1  0
  7 13  1  0
  9 10  1  0
  9 11  1  0
 11 12  1  0
 11 13  1  0
 13 14  1  0
 15 16  1  0
 16 17  1  6
 16 18  2  0
 16 19  1  0
 19 20  1  0
 21 20  1  0
 21 22  1  0
 21 23  1  0
 22 26  1  0
 23 24  1  0
 23 25  1  0
 25 26  1  0
 26 27  1  0
 27 28  1  0
 27 31  1  0
 28 29  2  0
 28 30  1  0
 30 34  1  0
 31 32  2  0
 32 33  1  0
 32 34  1  0
 34 35  2  0
  5 36  1  1
  7 37  1  6
  8 38  1  0
  8 39  1  0
  8 40  1  0
  9 41  1  1
 10 42  1  0
 11 43  1  6
 12 44  1  0
 12 45  1  0
 12 46  1  0
 13 47  1  6
 14 48  1  0
 20 49  1  0
 20 50  1  0
 21 51  1  1
 23 52  1  6
 24 53  1  0
 25 54  1  0
 25 55  1  0
 26 56  1  1
 30 57  1  0
 31 58  1  0
 33 59  1  0
 33 60  1  0
 33 61  1  0
M  CHG  3   1  -1  12   1  17  -1
M  END
>  <filename_input>  (8) 
7N7B_T3F_docked.sdf

>  <pdb_id>  (8) 
7N7B_T3F

>  <pose_rank>  (8) 
7

>  <num_atoms_heavy>  (8) 
35

>  <num_torsions>  (8) 
8

>  <pose>  (8) 
[47.02840100433457, -15.240419256341053, 6.103207340442033, 4.069434000751903, 4.7229961675866905, -1.8911810292005709, -6.232190304942834, 0.12838129557382877, -0.12577820699377182, -0.9007371644073116, 16.99346541826805, 1.1668021737270657, -20.793182768021094, -12.673628196783296]

>  <energy>  (8) 
-652.8159511606067

>  <inter_energy>  (8) 
-842.4479878691135

>  <intra_energy>  (8) 
198.8549760524343

>  <rmsd>  (8) 
2.92434

>  <sdf_rank>  (8) 
0

$$$$

     RDKit          3D

 61 63  0  0  0  0  0  0  0  0999 V2000
   43.0508  -17.3868    8.2783 O   0  0  0  0  0  0  0  0  0  0  0  0
   44.4602  -17.7771    8.5792 P   0  0  2  0  0  0  0  0  0  0  0  0
   45.1391  -18.9197    7.8718 O   0  0  0  0  0  0  0  0  0  0  0  0
   44.5489  -17.9578   10.1694 O   0  0  0  0  0  0  0  0  0  0  0  0
   45.3363  -18.9492   10.7825 C   0  0  1  0  0  0  0  0  0  0  0  0
   46.6857  -18.5639   10.9739 O   0  0  0  0  0  0  0  0  0  0  0  0
   46.8508  -17.4100   11.8337 C   0  0  2  0  0  0  0  0  0  0  0  0
   48.3207  -17.0627   11.7913 C   0  0  0  0  0  0  0  0  0  0  0  0
   44.6693  -19.2816   12.1007 C   0  0  2  0  0  0  0  0  0  0  0  0
   43.2840  -19.4605   11.8630 O   0  0  0  0  0  0  0  0  0  0  0  0
   44.8863  -18.2147   13.1621 C   0  0  1  0  0  0  0  0  0  0  0  0
   44.4230  -18.7326   14.4603 N   0  0  0  0  0  0  0  0  0  0  0  0
   46.3577  -17.7689   13.2229 C   0  0  1  0  0  0  0  0  0  0  0  0
   47.1717  -18.8310   13.7331 O   0  0  0  0  0  0  0  0  0  0  0  0
   45.3370  -16.4645    8.4238 O   0  0  0  0  0  0  0  0  0  0  0  0
   45.3678  -15.1670    7.4927 P   0  0  1  0  0  0  0  0  0  0  0  0
   45.2917  -15.7670    6.1246 O   0  0  0  0  0  0  0  0  0  0  0  0
   44.3849  -14.1641    8.0124 O   0  0  0  0  0  0  0  0  0  0  0  0
   46.8468  -14.6418    7.7146 O   0  0  0  0  0  0  0  0  0  0  0  0
   47.8973  -15.4742    7.2663 C   0  0  0  0  0  0  0  0  0  0  0  0
   48.6799  -14.7020    6.2356 C   0  0  1  0  0  0  0  0  0  0  0  0
   47.8201  -14.3895    5.1129 O   0  0  0  0  0  0  0  0  0  0  0  0
   49.2309  -13.3574    6.6924 C   0  0  1  0  0  0  0  0  0  0  0  0
   50.4162  -13.5294    7.4778 O   0  0  0  0  0  0  0  0  0  0  0  0
   49.4558  -12.6955    5.3338 C   0  0  0  0  0  0  0  0  0  0  0  0
   48.2603  -13.1867    4.5042 C   0  0  2  0  0  0  0  0  0  0  0  0
   47.1250  -12.2520    4.4793 N   0  0  0  0  0  0  0  0  0  0  0  0
   47.2678  -11.0935    3.7432 C   0  0  0  0  0  0  0  0  0  0  0  0
   48.2832  -10.8196    3.1284 O   0  0  0  0  0  0  0  0  0  0  0  0
   46.2077  -10.2360    3.8059 N   0  0  0  0  0  0  0  0  0  0  0  0
   45.9755  -12.4967    5.1967 C   0  0  0  0  0  0  0  0  0  0  0  0
   44.9292  -11.6591    5.2362 C   0  0  0  0  0  0  0  0  0  0  0  0
   43.6881  -11.9391    6.0298 C   0  0  0  0  0  0  0  0  0  0  0  0
   45.0254  -10.4150    4.4955 C   0  0  0  0  0  0  0  0  0  0  0  0
   44.1711   -9.5326    4.4644 O   0  0  0  0  0  0  0  0  0  0  0  0
   45.3913  -19.8271   10.1219 H   0  0  0  0  0  0  0  0  0  0  0  0
   46.2684  -16.5336   11.5131 H   0  0  0  0  0  0  0  0  0  0  0  0
   48.7058  -16.9717   12.8176 H   0  0  0  0  0  0  0  0  0  0  0  0
   48.8697  -17.8558   11.2626 H   0  0  0  0  0  0  0  0  0  0  0  0
   48.4567  -16.1077   11.2626 H   0  0  0  0  0  0  0  0  0  0  0  0
   45.1259  -20.2016   12.4945 H   0  0  0  0  0  0  0  0  0  0  0  0
   42.8061  -19.5222   12.7278 H   0  0  0  0  0  0  0  0  0  0  0  0
   44.3019  -17.3202   12.9008 H   0  0  0  0  0  0  0  0  0  0  0  0
   44.8858  -18.2153   15.2213 H   0  0  0  0  0  0  0  0  0  0  0  0
   43.4028  -18.6117   14.5339 H   0  0  0  0  0  0  0  0  0  0  0  0
   44.6563  -19.7331   14.5339 H   0  0  0  0  0  0  0  0  0  0  0  0
   46.4271  -16.8922   13.8836 H   0  0  0  0  0  0  0  0  0  0  0  0
   47.1570  -18.8118   14.7228 H   0  0  0  0  0  0  0  0  0  0  0  0
   48.5501  -15.7421    8.1101 H   0  0  0  0  0  0  0  0  0  0  0  0
   47.4973  -16.4027    6.8328 H   0  0  0  0  0  0  0  0  0  0  0  0
   49.5271  -15.3630    6.0004 H   0  0  0  0  0  0  0  0  0  0  0  0
   48.5910  -12.7630    7.3612 H   0  0  0  0  0  0  0  0  0  0  0  0
   50.1828  -13.4955    8.4393 H   0  0  0  0  0  0  0  0  0  0  0  0
   49.4506  -11.5991    5.4231 H   0  0  0  0  0  0  0  0  0  0  0  0
   50.4272  -12.9499    4.8847 H   0  0  0  0  0  0  0  0  0  0  0  0
   48.5927  -13.3040    3.4622 H   0  0  0  0  0  0  0  0  0  0  0  0
   46.3004   -9.3558    3.2791 H   0  0  0  0  0  0  0  0  0  0  0  0
   45.9119  -13.4331    5.7705 H   0  0  0  0  0  0  0  0  0  0  0  0
   43.9201  -11.8867    7.1038 H   0  0  0  0  0  0  0  0  0  0  0  0
   42.9193  -11.1918    5.7839 H   0  0  0  0  0  0  0  0  0  0  0  0
   43.3146  -12.9440    5.7839 H   0  0  0  0  0  0  0  0  0  0  0  0
  2  1  1  6
  2  3  2  0
  2  4  1  0
  2 15  1  0
  5  4  1  0
  5  6  1  0
  5  9  1  0
  6  7  1  0
  7  8  1  0
  7 13  1  0
  9 10  1  0
  9 11  1  0
 11 12  1  0
 11 13  1  0
 13 14  1  0
 15 16  1  0
 16 17  1  6
 16 18  2  0
 16 19  1  0
 19 20  1  0
 21 20  1  0
 21 22  1  0
 21 23  1  0
 22 26  1  0
 23 24  1  0
 23 25  1  0
 25 26  1  0
 26 27  1  0
 27 28  1  0
 27 31  1  0
 28 29  2  0
 28 30  1  0
 30 34  1  0
 31 32  2  0
 32 33  1  0
 32 34  1  0
 34 35  2  0
  5 36  1  6
  7 37  1  6
  8 38  1  0
  8 39  1  0
  8 40  1  0
  9 41  1  1
 10 42  1  0
 11 43  1  6
 12 44  1  0
 12 45  1  0
 12 46  1  0
 13 47  1  1
 14 48  1  0
 20 49  1  0
 20 50  1  0
 21 51  1  6
 23 52  1  1
 24 53  1  0
 25 54  1  0
 25 55  1  0
 26 56  1  6
 30 57  1  0
 31 58  1  0
 33 59  1  0
 33 60  1  0
 33 61  1  0
M  CHG  3   1  -1  12   1  17  -1
M  END
>  <filename_input>  (9) 
7N7B_T3F_docked.sdf

>  <pdb_id>  (9) 
7N7B_T3F

>  <pose_rank>  (9) 
8

>  <num_atoms_heavy>  (9) 
35

>  <num_torsions>  (9) 
8

>  <pose>  (9) 
[45.36782179207134, -15.166966459675205, 7.492661666005133, 0.5321314126000947, -1.9597784300828316, -3.294635598673764, -4.051026875753234, 1.3419993896661477, -0.30118710828052414, 0.20269252035058594, 0.31602682830739165, -1.460378806232128, -0.13205059583777803, -0.31285832159209465]

>  <energy>  (9) 
-819.6302540883671

>  <inter_energy>  (9) 
-840.2830866217171

>  <intra_energy>  (9) 
30.145468997056653

>  <rmsd>  (9) 
9.12917

>  <sdf_rank>  (9) 
0

$$$$

     RDKit          3D

 61 63  0  0  0  0  0  0  0  0999 V2000
   47.4242  -11.2373    3.7182 O   0  0  0  0  0  0  0  0  0  0  0  0
   47.2028  -11.2800    5.1942 P   0  0  2  0  0  0  0  0  0  0  0  0
   46.9926  -10.0289    6.0051 O   0  0  0  0  0  0  0  0  0  0  0  0
   48.3950  -12.1610    5.8041 O   0  0  0  0  0  0  0  0  0  0  0  0
   49.7525  -11.8484    5.6086 C   0  0  1  0  0  0  0  0  0  0  0  0
   50.2449  -10.8713    6.5079 O   0  0  0  0  0  0  0  0  0  0  0  0
   50.1776  -11.2668    7.8997 C   0  0  2  0  0  0  0  0  0  0  0  0
   50.5937  -10.0548    8.7003 C   0  0  0  0  0  0  0  0  0  0  0  0
   50.5210  -13.1470    5.7363 C   0  0  2  0  0  0  0  0  0  0  0  0
   49.8565  -14.1322    4.9648 O   0  0  0  0  0  0  0  0  0  0  0  0
   50.6621  -13.6148    7.1762 C   0  0  1  0  0  0  0  0  0  0  0  0
   51.6216  -14.7308    7.2230 N   0  0  0  0  0  0  0  0  0  0  0  0
   51.0864  -12.4641    8.1054 C   0  0  1  0  0  0  0  0  0  0  0  0
   52.4315  -12.0684    7.8140 O   0  0  0  0  0  0  0  0  0  0  0  0
   45.9963  -12.2791    5.4428 O   0  0  0  0  0  0  0  0  0  0  0  0
   44.6988  -12.3577    6.3712 P   0  0  1  0  0  0  0  0  0  0  0  0
   45.2251  -11.8602    7.6799 O   0  0  0  0  0  0  0  0  0  0  0  0
   43.5414  -11.7348    5.6541 O   0  0  0  0  0  0  0  0  0  0  0  0
   44.4811  -13.9228    6.4949 O   0  0  0  0  0  0  0  0  0  0  0  0
   44.9050  -14.5368    7.6953 C   0  0  0  0  0  0  0  0  0  0  0  0
   45.0338  -16.0143    7.4286 C   0  0  1  0  0  0  0  0  0  0  0  0
   46.1528  -16.5435    8.1804 O   0  0  0  0  0  0  0  0  0  0  0  0
   43.8437  -16.8691    7.8451 C   0  0  1  0  0  0  0  0  0  0  0  0
   42.7858  -16.7779    6.8839 O   0  0  0  0  0  0  0  0  0  0  0  0
   44.5216  -18.2363    7.9205 C   0  0  0  0  0  0  0  0  0  0  0  0
   45.9102  -17.9064    8.4879 C   0  0  2  0  0  0  0  0  0  0  0  0
   46.0137  -18.0651    9.9463 N   0  0  0  0  0  0  0  0  0  0  0  0
   47.1894  -17.6678   10.5500 C   0  0  0  0  0  0  0  0  0  0  0  0
   48.1292  -17.2033    9.9295 O   0  0  0  0  0  0  0  0  0  0  0  0
   47.2527  -17.8948   11.8944 N   0  0  0  0  0  0  0  0  0  0  0  0
   44.9961  -18.6287   10.6829 C   0  0  0  0  0  0  0  0  0  0  0  0
   45.0573  -18.8288   12.0074 C   0  0  0  0  0  0  0  0  0  0  0  0
   43.9414  -19.4516   12.7919 C   0  0  0  0  0  0  0  0  0  0  0  0
   46.2752  -18.4470   12.6975 C   0  0  0  0  0  0  0  0  0  0  0  0
   46.4973  -18.6015   13.8959 O   0  0  0  0  0  0  0  0  0  0  0  0
   49.8800  -11.3967    4.6137 H   0  0  0  0  0  0  0  0  0  0  0  0
   49.1732  -11.5788    8.2220 H   0  0  0  0  0  0  0  0  0  0  0  0
   50.5162  -10.2804    9.7741 H   0  0  0  0  0  0  0  0  0  0  0  0
   51.6333   -9.7924    8.4548 H   0  0  0  0  0  0  0  0  0  0  0  0
   49.9344   -9.2092    8.4548 H   0  0  0  0  0  0  0  0  0  0  0  0
   51.5438  -12.9786    5.3682 H   0  0  0  0  0  0  0  0  0  0  0  0
   49.4176  -14.7830    5.5680 H   0  0  0  0  0  0  0  0  0  0  0  0
   49.6846  -13.9634    7.5408 H   0  0  0  0  0  0  0  0  0  0  0  0
   51.8251  -14.9676    8.2045 H   0  0  0  0  0  0  0  0  0  0  0  0
   51.2176  -15.5510    6.7486 H   0  0  0  0  0  0  0  0  0  0  0  0
   52.4931  -14.4545    6.7486 H   0  0  0  0  0  0  0  0  0  0  0  0
   51.0151  -12.8146    9.1456 H   0  0  0  0  0  0  0  0  0  0  0  0
   52.9237  -11.9236    8.6607 H   0  0  0  0  0  0  0  0  0  0  0  0
   45.8770  -14.1250    8.0046 H   0  0  0  0  0  0  0  0  0  0  0  0
   44.1805  -14.3508    8.5019 H   0  0  0  0  0  0  0  0  0  0  0  0
   45.1398  -16.0752    6.3354 H   0  0  0  0  0  0  0  0  0  0  0  0
   43.3361  -16.5872    8.7794 H   0  0  0  0  0  0  0  0  0  0  0  0
   41.9180  -16.7032    7.3543 H   0  0  0  0  0  0  0  0  0  0  0  0
   43.9718  -18.9131    8.5911 H   0  0  0  0  0  0  0  0  0  0  0  0
   44.5627  -18.7524    6.9500 H   0  0  0  0  0  0  0  0  0  0  0  0
   46.6351  -18.6048    8.0443 H   0  0  0  0  0  0  0  0  0  0  0  0
   48.1290  -17.6233   12.3627 H   0  0  0  0  0  0  0  0  0  0  0  0
   44.0803  -18.9323   10.1545 H   0  0  0  0  0  0  0  0  0  0  0  0
   44.1423  -19.3394   13.8675 H   0  0  0  0  0  0  0  0  0  0  0  0
   42.9939  -18.9517   12.5418 H   0  0  0  0  0  0  0  0  0  0  0  0
   43.8692  -20.5203   12.5418 H   0  0  0  0  0  0  0  0  0  0  0  0
  2  1  1  6
  2  3  2  0
  2  4  1  0
  2 15  1  0
  5  4  1  0
  5  6  1  0
  5  9  1  0
  6  7  1  0
  7  8  1  0
  7 13  1  0
  9 10  1  0
  9 11  1  0
 11 12  1  0
 11 13  1  0
 13 14  1  0
 15 16  1  0
 16 17  1  1
 16 18  2  0
 16 19  1  0
 19 20  1  0
 21 20  1  0
 21 22  1  0
 21 23  1  0
 22 26  1  0
 23 24  1  0
 23 25  1  0
 25 26  1  0
 26 27  1  0
 27 28  1  0
 27 31  1  0
 28 29  2  0
 28 30  1  0
 30 34  1  0
 31 32  2  0
 32 33  1  0
 32 34  1  0
 34 35  2  0
  5 36  1  6
  7 37  1  1
  8 38  1  0
  8 39  1  0
  8 40  1  0
  9 41  1  6
 10 42  1  0
 11 43  1  1
 12 44  1  0
 12 45  1  0
 12 46  1  0
 13 47  1  1
 14 48  1  0
 20 49  1  0
 20 50  1  0
 21 51  1  6
 23 52  1  1
 24 53  1  0
 25 54  1  0
 25 55  1  0
 26 56  1  6
 30 57  1  0
 31 58  1  0
 33 59  1  0
 33 60  1  0
 33 61  1  0
M  CHG  3   1  -1  12   1  17  -1
M  END
>  <filename_input>  (10) 
7N7B_T3F_docked.sdf

>  <pdb_id>  (10) 
7N7B_T3F

>  <pose_rank>  (10) 
9

>  <num_atoms_heavy>  (10) 
35

>  <num_torsions>  (10) 
8

>  <pose>  (10) 
[44.69880629563719, -12.357704926869886, 6.371228648370473, 1.1412442885030343, 3.357644209581385, -1.5491776659287315, 2.379667310210194, -0.4559979548276694, -1.8115251678094333, 0.15667570408962475, 0.9629328333778616, -0.0867994544996897, -2.8135251241703485, 1.6751667979985683]

>  <energy>  (10) 
-737.9539871407056

>  <inter_energy>  (10) 
-749.422758369658

>  <intra_energy>  (10) 
19.844849548339536

>  <rmsd>  (10) 
4.25498

>  <sdf_rank>  (10) 
0

$$$$

     RDKit          3D

 61 63  0  0  0  0  0  0  0  0999 V2000
   47.4399  -15.5641    9.4675 O   0  0  0  0  0  0  0  0  0  0  0  0
   45.9590  -15.3751    9.4414 P   0  0  2  0  0  0  0  0  0  0  0  0
   45.3281  -14.0107    9.5269 O   0  0  0  0  0  0  0  0  0  0  0  0
   45.3595  -16.3516   10.5623 O   0  0  0  0  0  0  0  0  0  0  0  0
   45.7922  -17.6797   10.7286 C   0  0  1  0  0  0  0  0  0  0  0  0
   46.4958  -17.9000   11.9379 O   0  0  0  0  0  0  0  0  0  0  0  0
   45.7135  -17.6391   13.1287 C   0  0  2  0  0  0  0  0  0  0  0  0
   46.6657  -17.7757   14.2939 C   0  0  0  0  0  0  0  0  0  0  0  0
   44.5579  -18.5532   10.6463 C   0  0  2  0  0  0  0  0  0  0  0  0
   43.8000  -18.1434    9.5216 O   0  0  0  0  0  0  0  0  0  0  0  0
   43.7046  -18.4960   11.9035 C   0  0  1  0  0  0  0  0  0  0  0  0
   42.6790  -19.5502   11.8318 N   0  0  0  0  0  0  0  0  0  0  0  0
   44.5616  -18.6254   13.1747 C   0  0  1  0  0  0  0  0  0  0  0  0
   45.1006  -19.9487   13.2708 O   0  0  0  0  0  0  0  0  0  0  0  0
   45.4296  -16.1212    8.1457 O   0  0  0  0  0  0  0  0  0  0  0  0
   44.4137  -15.8321    6.9474 P   0  0  1  0  0  0  0  0  0  0  0  0
   45.2343  -16.1988    5.7518 O   0  0  0  0  0  0  0  0  0  0  0  0
   43.0887  -16.4535    7.2640 O   0  0  0  0  0  0  0  0  0  0  0  0
   44.2963  -14.2521    6.9939 O   0  0  0  0  0  0  0  0  0  0  0  0
   43.3172  -13.6567    6.1667 C   0  0  0  0  0  0  0  0  0  0  0  0
   43.7929  -12.2677    5.8276 C   0  0  1  0  0  0  0  0  0  0  0  0
   45.0221  -11.9920    6.5421 O   0  0  0  0  0  0  0  0  0  0  0  0
   44.1287  -12.0215    4.3623 C   0  0  1  0  0  0  0  0  0  0  0  0
   42.9394  -11.8127    3.5921 O   0  0  0  0  0  0  0  0  0  0  0  0
   45.0211  -10.7895    4.5053 C   0  0  0  0  0  0  0  0  0  0  0  0
   45.8037  -11.0736    5.7960 C   0  0  2  0  0  0  0  0  0  0  0  0
   47.1242  -11.6818    5.5733 N   0  0  0  0  0  0  0  0  0  0  0  0
   47.9306  -11.1203    4.6044 C   0  0  0  0  0  0  0  0  0  0  0  0
   47.5928  -10.1597    3.9357 O   0  0  0  0  0  0  0  0  0  0  0  0
   49.1174  -11.7623    4.3987 N   0  0  0  0  0  0  0  0  0  0  0  0
   47.5299  -12.7969    6.2717 C   0  0  0  0  0  0  0  0  0  0  0  0
   48.7069  -13.4096    6.0790 C   0  0  0  0  0  0  0  0  0  0  0  0
   49.1284  -14.6283    6.8441 C   0  0  0  0  0  0  0  0  0  0  0  0
   49.5928  -12.8762    5.0610 C   0  0  0  0  0  0  0  0  0  0  0  0
   50.6820  -13.3467    4.7421 O   0  0  0  0  0  0  0  0  0  0  0  0
   46.5175  -17.9253    9.9389 H   0  0  0  0  0  0  0  0  0  0  0  0
   45.2651  -16.6349   13.1511 H   0  0  0  0  0  0  0  0  0  0  0  0
   46.1051  -17.6953   15.2369 H   0  0  0  0  0  0  0  0  0  0  0  0
   47.1650  -18.7547   14.2465 H   0  0  0  0  0  0  0  0  0  0  0  0
   47.4201  -16.9766   14.2465 H   0  0  0  0  0  0  0  0  0  0  0  0
   44.8833  -19.5991   10.5452 H   0  0  0  0  0  0  0  0  0  0  0  0
   42.9717  -17.6956    9.8272 H   0  0  0  0  0  0  0  0  0  0  0  0
   43.2105  -17.5149   11.9611 H   0  0  0  0  0  0  0  0  0  0  0  0
   42.4069  -19.8299   12.7851 H   0  0  0  0  0  0  0  0  0  0  0  0
   41.8535  -19.1926   11.3301 H   0  0  0  0  0  0  0  0  0  0  0  0
   43.0591  -20.3655   11.3301 H   0  0  0  0  0  0  0  0  0  0  0  0
   43.9232  -18.4159   14.0457 H   0  0  0  0  0  0  0  0  0  0  0  0
   45.2012  -20.1956   14.2242 H   0  0  0  0  0  0  0  0  0  0  0  0
   43.1942  -14.2466    5.2464 H   0  0  0  0  0  0  0  0  0  0  0  0
   42.3463  -13.6181    6.6824 H   0  0  0  0  0  0  0  0  0  0  0  0
   42.9434  -11.6252    6.1021 H   0  0  0  0  0  0  0  0  0  0  0  0
   44.6159  -12.8465    3.8220 H   0  0  0  0  0  0  0  0  0  0  0  0
   42.1709  -11.6777    4.2015 H   0  0  0  0  0  0  0  0  0  0  0  0
   45.7000  -10.6918    3.6454 H   0  0  0  0  0  0  0  0  0  0  0  0
   44.4545   -9.8474    4.5420 H   0  0  0  0  0  0  0  0  0  0  0  0
   45.9820  -10.1150    6.3053 H   0  0  0  0  0  0  0  0  0  0  0  0
   49.7273  -11.3715    3.6665 H   0  0  0  0  0  0  0  0  0  0  0  0
   46.8493  -13.2089    7.0313 H   0  0  0  0  0  0  0  0  0  0  0  0
   49.0585  -14.4262    7.9231 H   0  0  0  0  0  0  0  0  0  0  0  0
   48.4692  -15.4700    6.5853 H   0  0  0  0  0  0  0  0  0  0  0  0
   50.1668  -14.8828    6.5853 H   0  0  0  0  0  0  0  0  0  0  0  0
  2  1  1  6
  2  3  2  0
  2  4  1  0
  2 15  1  0
  5  4  1  0
  5  6  1  0
  5  9  1  0
  6  7  1  0
  7  8  1  0
  7 13  1  0
  9 10  1  0
  9 11  1  0
 11 12  1  0
 11 13  1  0
 13 14  1  0
 15 16  1  0
 16 17  1  6
 16 18  2  0
 16 19  1  0
 19 20  1  0
 21 20  1  0
 21 22  1  0
 21 23  1  0
 22 26  1  0
 23 24  1  0
 23 25  1  0
 25 26  1  0
 26 27  1  0
 27 28  1  0
 27 31  1  0
 28 29  2  0
 28 30  1  0
 30 34  1  0
 31 32  2  0
 32 33  1  0
 32 34  1  0
 34 35  2  0
  5 36  1  6
  7 37  1  6
  8 38  1  0
  8 39  1  0
  8 40  1  0
  9 41  1  6
 10 42  1  0
 11 43  1  1
 12 44  1  0
 12 45  1  0
 12 46  1  0
 13 47  1  1
 14 48  1  0
 20 49  1  0
 20 50  1  0
 21 51  1  1
 23 52  1  6
 24 53  1  0
 25 54  1  0
 25 55  1  0
 26 56  1  1
 30 57  1  0
 31 58  1  0
 33 59  1  0
 33 60  1  0
 33 61  1  0
M  CHG  3   1  -1  12   1  17  -1
M  END
>  <filename_input>  (11) 
7N7B_T3F_docked.sdf

>  <pdb_id>  (11) 
7N7B_T3F

>  <pose_rank>  (11) 
10

>  <num_atoms_heavy>  (11) 
35

>  <num_torsions>  (11) 
8

>  <pose>  (11) 
[44.41370553725141, -15.832054500030385, 6.947380301174887, -1.6450527788670457, 1.2831402448878635, 2.810941221342882, -0.8908189082507625, -0.3889517494209774, 2.7095157497003575, 0.6667553773425853, 2.4745560376542715, 0.07475229078363177, -5.4094806967839455, -0.7563273632694373]

>  <energy>  (11) 
-742.788023609745

>  <inter_energy>  (11) 
-802.416816558331

>  <intra_energy>  (11) 
58.80394783563034

>  <rmsd>  (11) 
8.67616

>  <sdf_rank>  (11) 
0

$$$$

     RDKit          3D

 61 63  0  0  0  0  0  0  0  0999 V2000
   50.7648  -17.0993   11.5073 O   0  0  0  0  0  0  0  0  0  0  0  0
   50.2142  -15.7648   11.1262 P   0  0  2  0  0  0  0  0  0  0  0  0
   50.2181  -14.5993   12.0794 O   0  0  0  0  0  0  0  0  0  0  0  0
   48.7395  -16.0308   10.5571 O   0  0  0  0  0  0  0  0  0  0  0  0
   48.3328  -17.2749   10.0418 C   0  0  1  0  0  0  0  0  0  0  0  0
   47.8757  -18.1774   11.0331 O   0  0  0  0  0  0  0  0  0  0  0  0
   46.7159  -17.7094   11.7638 C   0  0  2  0  0  0  0  0  0  0  0  0
   46.4773  -18.7191   12.8623 C   0  0  0  0  0  0  0  0  0  0  0  0
   47.2521  -16.9905    9.0199 C   0  0  2  0  0  0  0  0  0  0  0  0
   47.7002  -15.9390    8.1827 O   0  0  0  0  0  0  0  0  0  0  0  0
   45.9179  -16.6263    9.6516 C   0  0  1  0  0  0  0  0  0  0  0  0
   44.8824  -16.6133    8.6048 N   0  0  0  0  0  0  0  0  0  0  0  0
   45.5534  -17.5873   10.7966 C   0  0  1  0  0  0  0  0  0  0  0  0
   45.2609  -18.8873   10.2719 O   0  0  0  0  0  0  0  0  0  0  0  0
   50.9350  -15.3457    9.7770 O   0  0  0  0  0  0  0  0  0  0  0  0
   52.4093  -15.3835    9.1633 P   0  0  1  0  0  0  0  0  0  0  0  0
   53.0871  -14.2862    9.9208 O   0  0  0  0  0  0  0  0  0  0  0  0
   52.8980  -16.7986    9.1420 O   0  0  0  0  0  0  0  0  0  0  0  0
   52.1593  -14.8739    7.6834 O   0  0  0  0  0  0  0  0  0  0  0  0
   50.8366  -14.5084    7.3455 C   0  0  0  0  0  0  0  0  0  0  0  0
   50.9178  -13.4049    6.3224 C   0  0  1  0  0  0  0  0  0  0  0  0
   49.8332  -13.5475    5.3733 O   0  0  0  0  0  0  0  0  0  0  0  0
   50.7800  -11.9878    6.8638 C   0  0  1  0  0  0  0  0  0  0  0  0
   52.0066  -11.5434    7.4549 O   0  0  0  0  0  0  0  0  0  0  0  0
   50.3888  -11.2577    5.5799 C   0  0  0  0  0  0  0  0  0  0  0  0
   49.4829  -12.2710    4.8646 C   0  0  2  0  0  0  0  0  0  0  0  0
   48.0471  -12.0666    5.1089 N   0  0  0  0  0  0  0  0  0  0  0  0
   47.3280  -11.3798    4.1521 C   0  0  0  0  0  0  0  0  0  0  0  0
   47.8309  -10.9406    3.1332 O   0  0  0  0  0  0  0  0  0  0  0  0
   46.0154  -11.1665    4.4598 N   0  0  0  0  0  0  0  0  0  0  0  0
   47.4449  -12.5034    6.2676 C   0  0  0  0  0  0  0  0  0  0  0  0
   46.1494  -12.3089    6.5532 C   0  0  0  0  0  0  0  0  0  0  0  0
   45.5126  -12.7855    7.8244 C   0  0  0  0  0  0  0  0  0  0  0  0
   45.3434  -11.5778    5.5932 C   0  0  0  0  0  0  0  0  0  0  0  0
   44.1573  -11.2874    5.7282 O   0  0  0  0  0  0  0  0  0  0  0  0
   49.1988  -17.7790    9.5882 H   0  0  0  0  0  0  0  0  0  0  0  0
   46.8505  -16.7159   12.2164 H   0  0  0  0  0  0  0  0  0  0  0  0
   46.5928  -18.2303   13.8409 H   0  0  0  0  0  0  0  0  0  0  0  0
   45.4586  -19.1244   12.7728 H   0  0  0  0  0  0  0  0  0  0  0  0
   47.2068  -19.5375   12.7728 H   0  0  0  0  0  0  0  0  0  0  0  0
   47.0755  -17.9096    8.4418 H   0  0  0  0  0  0  0  0  0  0  0  0
   48.0209  -15.1868    8.7408 H   0  0  0  0  0  0  0  0  0  0  0  0
   45.9912  -15.6242   10.0995 H   0  0  0  0  0  0  0  0  0  0  0  0
   43.9506  -16.6017    9.0436 H   0  0  0  0  0  0  0  0  0  0  0  0
   44.9967  -15.7737    8.0192 H   0  0  0  0  0  0  0  0  0  0  0  0
   44.9756  -17.4555    8.0192 H   0  0  0  0  0  0  0  0  0  0  0  0
   44.6721  -17.1861   11.3184 H   0  0  0  0  0  0  0  0  0  0  0  0
   45.1185  -19.5205   11.0195 H   0  0  0  0  0  0  0  0  0  0  0  0
   50.3043  -15.3734    6.9231 H   0  0  0  0  0  0  0  0  0  0  0  0
   50.2888  -14.1697    8.2373 H   0  0  0  0  0  0  0  0  0  0  0  0
   51.9252  -13.5172    5.8950 H   0  0  0  0  0  0  0  0  0  0  0  0
   50.0589  -11.8394    7.6812 H   0  0  0  0  0  0  0  0  0  0  0  0
   51.9271  -11.5722    8.4413 H   0  0  0  0  0  0  0  0  0  0  0  0
   49.8428  -10.3295    5.8042 H   0  0  0  0  0  0  0  0  0  0  0  0
   51.2555  -10.9511    4.9759 H   0  0  0  0  0  0  0  0  0  0  0  0
   49.6353  -12.1600    3.7809 H   0  0  0  0  0  0  0  0  0  0  0  0
   45.4639  -10.6391    3.7680 H   0  0  0  0  0  0  0  0  0  0  0  0
   48.0621  -13.0431    7.0009 H   0  0  0  0  0  0  0  0  0  0  0  0
   46.0607  -12.3752    8.6853 H   0  0  0  0  0  0  0  0  0  0  0  0
   44.4668  -12.4463    7.8602 H   0  0  0  0  0  0  0  0  0  0  0  0
   45.5431  -13.8845    7.8602 H   0  0  0  0  0  0  0  0  0  0  0  0
  2  1  1  1
  2  3  2  0
  2  4  1  0
  2 15  1  0
  5  4  1  0
  5  6  1  0
  5  9  1  0
  6  7  1  0
  7  8  1  0
  7 13  1  0
  9 10  1  0
  9 11  1  0
 11 12  1  0
 11 13  1  0
 13 14  1  0
 15 16  1  0
 16 17  1  1
 16 18  2  0
 16 19  1  0
 19 20  1  0
 21 20  1  0
 21 22  1  0
 21 23  1  0
 22 26  1  0
 23 24  1  0
 23 25  1  0
 25 26  1  0
 26 27  1  0
 27 28  1  0
 27 31  1  0
 28 29  2  0
 28 30  1  0
 30 34  1  0
 31 32  2  0
 32 33  1  0
 32 34  1  0
 34 35  2  0
  5 36  1  6
  7 37  1  1
  8 38  1  0
  8 39  1  0
  8 40  1  0
  9 41  1  6
 10 42  1  0
 11 43  1  1
 12 44  1  0
 12 45  1  0
 12 46  1  0
 13 47  1  1
 14 48  1  0
 20 49  1  0
 20 50  1  0
 21 51  1  6
 23 52  1  1
 24 53  1  0
 25 54  1  0
 25 55  1  0
 26 56  1  6
 30 57  1  0
 31 58  1  0
 33 59  1  0
 33 60  1  0
 33 61  1  0
M  CHG  3   1  -1  12   1  17  -1
M  END
>  <filename_input>  (12) 
7N7B_T3F_docked.sdf

>  <pdb_id>  (12) 
7N7B_T3F

>  <pose_rank>  (12) 
11

>  <num_atoms_heavy>  (12) 
35

>  <num_torsions>  (12) 
8

>  <pose>  (12) 
[52.40931881930202, -15.383452582524324, 9.163316118346254, -3.6689084926888156, 0.8932199105579771, -0.5198546894794781, 1.816586174422146, 1.223671205088018, -3.2022079144762063, 0.20002512776945944, -0.7765064940125329, -0.9597760319151275, 3.471214768318032, 0.1407839973992211]

>  <energy>  (12) 
-625.6161610901678

>  <inter_energy>  (12) 
-632.583207221846

>  <intra_energy>  (12) 
9.327610468519945

>  <rmsd>  (12) 
8.66338

>  <sdf_rank>  (12) 
0

$$$$

     RDKit          3D

 61 63  0  0  0  0  0  0  0  0999 V2000
   45.9902  -11.6499    3.4834 O   0  0  0  0  0  0  0  0  0  0  0  0
   45.8939  -10.6907    4.6236 P   0  0  2  0  0  0  0  0  0  0  0  0
   45.3273   -9.3060    4.4546 O   0  0  0  0  0  0  0  0  0  0  0  0
   47.3509  -10.6331    5.2893 O   0  0  0  0  0  0  0  0  0  0  0  0
   47.7367  -11.4655    6.3555 C   0  0  1  0  0  0  0  0  0  0  0  0
   47.9420  -12.8146    5.9763 O   0  0  0  0  0  0  0  0  0  0  0  0
   48.9940  -12.9961    4.9972 C   0  0  2  0  0  0  0  0  0  0  0  0
   48.9577  -14.4558    4.6088 C   0  0  0  0  0  0  0  0  0  0  0  0
   48.9960  -10.8643    6.9437 C   0  0  2  0  0  0  0  0  0  0  0  0
   48.7852   -9.4735    7.1125 O   0  0  0  0  0  0  0  0  0  0  0  0
   50.2276  -11.1083    6.0861 C   0  0  1  0  0  0  0  0  0  0  0  0
   51.4245  -10.7131    6.8473 N   0  0  0  0  0  0  0  0  0  0  0  0
   50.3109  -12.5722    5.6199 C   0  0  1  0  0  0  0  0  0  0  0  0
   50.5815  -13.4280    6.7359 O   0  0  0  0  0  0  0  0  0  0  0  0
   45.1148  -11.4419    5.7832 O   0  0  0  0  0  0  0  0  0  0  0  0
   44.0339  -12.6103    5.9169 P   0  0  1  0  0  0  0  0  0  0  0  0
   43.4635  -12.3493    7.2747 O   0  0  0  0  0  0  0  0  0  0  0  0
   43.2085  -12.6631    4.6687 O   0  0  0  0  0  0  0  0  0  0  0  0
   44.9549  -13.8967    6.0124 O   0  0  0  0  0  0  0  0  0  0  0  0
   44.7555  -14.7476    7.1232 C   0  0  0  0  0  0  0  0  0  0  0  0
   46.0992  -15.3067    7.5138 C   0  0  1  0  0  0  0  0  0  0  0  0
   46.2370  -15.2664    8.9549 O   0  0  0  0  0  0  0  0  0  0  0  0
   46.3461  -16.7621    7.1379 C   0  0  1  0  0  0  0  0  0  0  0  0
   46.6879  -16.8826    5.7522 O   0  0  0  0  0  0  0  0  0  0  0  0
   47.4816  -17.0898    8.1063 C   0  0  0  0  0  0  0  0  0  0  0  0
   47.0923  -16.3167    9.3750 C   0  0  2  0  0  0  0  0  0  0  0  0
   46.3638  -17.1223   10.3666 N   0  0  0  0  0  0  0  0  0  0  0  0
   47.0955  -17.6912   11.3890 C   0  0  0  0  0  0  0  0  0  0  0  0
   48.3016  -17.5566   11.4955 O   0  0  0  0  0  0  0  0  0  0  0  0
   46.3780  -18.4773   12.2436 N   0  0  0  0  0  0  0  0  0  0  0  0
   45.0085  -17.3412   10.2605 C   0  0  0  0  0  0  0  0  0  0  0  0
   44.3065  -18.0975   11.1167 C   0  0  0  0  0  0  0  0  0  0  0  0
   42.8316  -18.3308   10.9806 C   0  0  0  0  0  0  0  0  0  0  0  0
   45.0229  -18.7371   12.2045 C   0  0  0  0  0  0  0  0  0  0  0  0
   44.5296  -19.4869   13.0434 O   0  0  0  0  0  0  0  0  0  0  0  0
   46.9228  -11.5077    7.0942 H   0  0  0  0  0  0  0  0  0  0  0  0
   48.8656  -12.3836    4.0925 H   0  0  0  0  0  0  0  0  0  0  0  0
   48.9422  -15.0766    5.5168 H   0  0  0  0  0  0  0  0  0  0  0  0
   48.0543  -14.6545    4.0134 H   0  0  0  0  0  0  0  0  0  0  0  0
   49.8500  -14.6992    4.0134 H   0  0  0  0  0  0  0  0  0  0  0  0
   49.1931  -11.3553    7.9081 H   0  0  0  0  0  0  0  0  0  0  0  0
   48.7527   -9.2595    8.0786 H   0  0  0  0  0  0  0  0  0  0  0  0
   50.1609  -10.4961    5.1746 H   0  0  0  0  0  0  0  0  0  0  0  0
   51.2268  -10.7784    7.8561 H   0  0  0  0  0  0  0  0  0  0  0  0
   52.2056  -11.3408    6.6092 H   0  0  0  0  0  0  0  0  0  0  0  0
   51.6782   -9.7437    6.6092 H   0  0  0  0  0  0  0  0  0  0  0  0
   51.1197  -12.6544    4.8790 H   0  0  0  0  0  0  0  0  0  0  0  0
   50.4246  -12.9318    7.5780 H   0  0  0  0  0  0  0  0  0  0  0  0
   44.3283  -14.1772    7.9611 H   0  0  0  0  0  0  0  0  0  0  0  0
   44.0578  -15.5591    6.8687 H   0  0  0  0  0  0  0  0  0  0  0  0
   46.8147  -14.6791    6.9623 H   0  0  0  0  0  0  0  0  0  0  0  0
   45.4906  -17.4475    7.2286 H   0  0  0  0  0  0  0  0  0  0  0  0
   47.6183  -17.2107    5.6692 H   0  0  0  0  0  0  0  0  0  0  0  0
   47.5331  -18.1709    8.3029 H   0  0  0  0  0  0  0  0  0  0  0  0
   48.4733  -16.8133    7.7189 H   0  0  0  0  0  0  0  0  0  0  0  0
   48.0166  -15.9769    9.8651 H   0  0  0  0  0  0  0  0  0  0  0  0
   46.9076  -18.9275   13.0037 H   0  0  0  0  0  0  0  0  0  0  0  0
   44.4708  -16.8683    9.4255 H   0  0  0  0  0  0  0  0  0  0  0  0
   42.3779  -18.4026   11.9802 H   0  0  0  0  0  0  0  0  0  0  0  0
   42.3770  -17.4934   10.4310 H   0  0  0  0  0  0  0  0  0  0  0  0
   42.6577  -19.2676   10.4310 H   0  0  0  0  0  0  0  0  0  0  0  0
  2  1  1  6
  2  3  2  0
  2  4  1  0
  2 15  1  0
  5  4  1  0
  5  6  1  0
  5  9  1  0
  6  7  1  0
  7  8  1  0
  7 13  1  0
  9 10  1  0
  9 11  1  0
 11 12  1  0
 11 13  1  0
 13 14  1  0
 15 16  1  0
 16 17  1  1
 16 18  2  0
 16 19  1  0
 19 20  1  0
 21 20  1  0
 21 22  1  0
 21 23  1  0
 22 26  1  0
 23 24  1  0
 23 25  1  0
 25 26  1  0
 26 27  1  0
 27 28  1  0
 27 31  1  0
 28 29  2  0
 28 30  1  0
 30 34  1  0
 31 32  2  0
 32 33  1  0
 32 34  1  0
 34 35  2  0
  5 36  1  1
  7 37  1  6
  8 38  1  0
  8 39  1  0
  8 40  1  0
  9 41  1  1
 10 42  1  0
 11 43  1  6
 12 44  1  0
 12 45  1  0
 12 46  1  0
 13 47  1  6
 14 48  1  0
 20 49  1  0
 20 50  1  0
 21 51  1  6
 23 52  1  1
 24 53  1  0
 25 54  1  0
 25 55  1  0
 26 56  1  1
 30 57  1  0
 31 58  1  0
 33 59  1  0
 33 60  1  0
 33 61  1  0
M  CHG  3   1  -1  12   1  17  -1
M  END
>  <filename_input>  (13) 
7N7B_T3F_docked.sdf

>  <pdb_id>  (13) 
7N7B_T3F

>  <pose_rank>  (13) 
12

>  <num_atoms_heavy>  (13) 
35

>  <num_torsions>  (13) 
8

>  <pose>  (13) 
[44.03386162301652, -12.610325415527239, 5.916850017656036, 0.037297466756191534, 2.9339625870229096, -1.044377454896743, 0.3243754023678295, 7.776354092513312, 1.8722053136624237, -0.02266546063983919, 1.3796779112627342, 0.19728002186314406, -2.952334032009043, 0.1011022667015456]

>  <energy>  (13) 
-784.7876146371028

>  <inter_energy>  (13) 
-764.9366762552615

>  <intra_energy>  (13) 
11.577173670470536

>  <rmsd>  (13) 
4.15687

>  <sdf_rank>  (13) 
0

$$$$

     RDKit          3D

 61 63  0  0  0  0  0  0  0  0999 V2000
   49.1302  -10.9857    7.3452 O   0  0  0  0  0  0  0  0  0  0  0  0
   48.9695  -11.3100    5.8966 P   0  0  2  0  0  0  0  0  0  0  0  0
   49.6569  -10.5124    4.8204 O   0  0  0  0  0  0  0  0  0  0  0  0
   47.3920  -11.3930    5.6249 O   0  0  0  0  0  0  0  0  0  0  0  0
   46.6794  -10.3853    4.9500 C   0  0  1  0  0  0  0  0  0  0  0  0
   46.9747  -10.3110    3.5668 O   0  0  0  0  0  0  0  0  0  0  0  0
   46.6505  -11.5160    2.8313 C   0  0  2  0  0  0  0  0  0  0  0  0
   47.1729  -11.3046    1.4293 C   0  0  0  0  0  0  0  0  0  0  0  0
   45.2088  -10.6621    5.1819 C   0  0  2  0  0  0  0  0  0  0  0  0
   45.0198  -10.9228    6.5617 O   0  0  0  0  0  0  0  0  0  0  0  0
   44.6845  -11.8232    4.3518 C   0  0  1  0  0  0  0  0  0  0  0  0
   43.2159  -11.8567    4.4529 N   0  0  0  0  0  0  0  0  0  0  0  0
   45.1492  -11.7267    2.8881 C   0  0  1  0  0  0  0  0  0  0  0  0
   44.5107  -10.6193    2.2424 O   0  0  0  0  0  0  0  0  0  0  0  0
   49.3363  -12.8443    5.7322 O   0  0  0  0  0  0  0  0  0  0  0  0
   50.3873  -13.8804    6.3432 P   0  0  1  0  0  0  0  0  0  0  0  0
   50.9106  -14.5510    5.1129 O   0  0  0  0  0  0  0  0  0  0  0  0
   51.2586  -13.1721    7.3338 O   0  0  0  0  0  0  0  0  0  0  0  0
   49.4373  -14.9047    7.0919 O   0  0  0  0  0  0  0  0  0  0  0  0
   48.2384  -14.3892    7.6344 C   0  0  0  0  0  0  0  0  0  0  0  0
   47.0947  -14.9816    6.8523 C   0  0  1  0  0  0  0  0  0  0  0  0
   47.0926  -16.4204    7.0175 O   0  0  0  0  0  0  0  0  0  0  0  0
   45.7010  -14.5372    7.2770 C   0  0  1  0  0  0  0  0  0  0  0  0
   45.3965  -13.2380    6.7566 O   0  0  0  0  0  0  0  0  0  0  0  0
   44.8739  -15.6742    6.6788 C   0  0  0  0  0  0  0  0  0  0  0  0
   45.7657  -16.9058    6.8954 C   0  0  2  0  0  0  0  0  0  0  0  0
   45.4497  -17.6663    8.1140 N   0  0  0  0  0  0  0  0  0  0  0  0
   46.0637  -18.8910    8.2794 C   0  0  0  0  0  0  0  0  0  0  0  0
   46.8400  -19.3588    7.4655 O   0  0  0  0  0  0  0  0  0  0  0  0
   45.6868  -19.5788    9.3966 N   0  0  0  0  0  0  0  0  0  0  0  0
   44.5426  -17.1994    9.0387 C   0  0  0  0  0  0  0  0  0  0  0  0
   44.1935  -17.8716   10.1452 C   0  0  0  0  0  0  0  0  0  0  0  0
   43.1974  -17.3504   11.1375 C   0  0  0  0  0  0  0  0  0  0  0  0
   44.7926  -19.1744   10.3672 C   0  0  0  0  0  0  0  0  0  0  0  0
   44.5466  -19.9243   11.3088 O   0  0  0  0  0  0  0  0  0  0  0  0
   46.9761   -9.4038    5.3483 H   0  0  0  0  0  0  0  0  0  0  0  0
   47.1088  -12.4248    3.2487 H   0  0  0  0  0  0  0  0  0  0  0  0
   48.1915  -10.8921    1.4759 H   0  0  0  0  0  0  0  0  0  0  0  0
   47.1907  -12.2663    0.8957 H   0  0  0  0  0  0  0  0  0  0  0  0
   46.5166  -10.6013    0.8957 H   0  0  0  0  0  0  0  0  0  0  0  0
   44.6382   -9.7771    4.8639 H   0  0  0  0  0  0  0  0  0  0  0  0
   45.5094  -10.2476    7.0951 H   0  0  0  0  0  0  0  0  0  0  0  0
   45.0953  -12.7644    4.7460 H   0  0  0  0  0  0  0  0  0  0  0  0
   42.9402  -11.8630    5.4453 H   0  0  0  0  0  0  0  0  0  0  0  0
   42.8209  -11.0245    3.9921 H   0  0  0  0  0  0  0  0  0  0  0  0
   42.8593  -12.7061    3.9921 H   0  0  0  0  0  0  0  0  0  0  0  0
   44.8825  -12.6638    2.3775 H   0  0  0  0  0  0  0  0  0  0  0  0
   44.1533   -9.9996    2.9267 H   0  0  0  0  0  0  0  0  0  0  0  0
   48.1542  -14.6712    8.6943 H   0  0  0  0  0  0  0  0  0  0  0  0
   48.2246  -13.2913    7.5687 H   0  0  0  0  0  0  0  0  0  0  0  0
   47.2721  -14.6337    5.8239 H   0  0  0  0  0  0  0  0  0  0  0  0
   45.5328  -14.4028    8.3557 H   0  0  0  0  0  0  0  0  0  0  0  0
   45.2491  -12.6085    7.5064 H   0  0  0  0  0  0  0  0  0  0  0  0
   43.9145  -15.7839    7.2055 H   0  0  0  0  0  0  0  0  0  0  0  0
   44.6131  -15.5098    5.6229 H   0  0  0  0  0  0  0  0  0  0  0  0
   45.6124  -17.5916    6.0492 H   0  0  0  0  0  0  0  0  0  0  0  0
   46.1185  -20.5044    9.5304 H   0  0  0  0  0  0  0  0  0  0  0  0
   44.0777  -16.2188    8.8595 H   0  0  0  0  0  0  0  0  0  0  0  0
   43.5620  -17.5411   12.1576 H   0  0  0  0  0  0  0  0  0  0  0  0
   43.0662  -16.2680   10.9914 H   0  0  0  0  0  0  0  0  0  0  0  0
   42.2334  -17.8596   10.9914 H   0  0  0  0  0  0  0  0  0  0  0  0
  2  1  1  1
  2  3  2  0
  2  4  1  0
  2 15  1  0
  5  4  1  0
  5  6  1  0
  5  9  1  0
  6  7  1  0
  7  8  1  0
  7 13  1  0
  9 10  1  0
  9 11  1  0
 11 12  1  0
 11 13  1  0
 13 14  1  0
 15 16  1  0
 16 17  1  6
 16 18  2  0
 16 19  1  0
 19 20  1  0
 21 20  1  0
 21 22  1  0
 21 23  1  0
 22 26  1  0
 23 24  1  0
 23 25  1  0
 25 26  1  0
 26 27  1  0
 27 28  1  0
 27 31  1  0
 28 29  2  0
 28 30  1  0
 30 34  1  0
 31 32  2  0
 32 33  1  0
 32 34  1  0
 34 35  2  0
  5 36  1  1
  7 37  1  1
  8 38  1  0
  8 39  1  0
  8 40  1  0
  9 41  1  6
 10 42  1  0
 11 43  1  1
 12 44  1  0
 12 45  1  0
 12 46  1  0
 13 47  1  6
 14 48  1  0
 20 49  1  0
 20 50  1  0
 21 51  1  6
 23 52  1  1
 24 53  1  0
 25 54  1  0
 25 55  1  0
 26 56  1  6
 30 57  1  0
 31 58  1  0
 33 59  1  0
 33 60  1  0
 33 61  1  0
M  CHG  3   1  -1  12   1  17  -1
M  END
>  <filename_input>  (14) 
7N7B_T3F_docked.sdf

>  <pdb_id>  (14) 
7N7B_T3F

>  <pose_rank>  (14) 
13

>  <num_atoms_heavy>  (14) 
35

>  <num_torsions>  (14) 
8

>  <pose>  (14) 
[50.38734883510977, -13.880410771617482, 6.343220329575603, -3.473106653520268, 0.42321050519783493, 5.2068831971745215, 7.069980182297056, 1.3145759335408365, -7.252051163010898, -6.34515557436228, 4.915026070583378, -14.151109701115454, 33.45343266431932, 13.970634712614673]

>  <energy>  (14) 
-680.29895218509

>  <inter_energy>  (14) 
-771.9536072956553

>  <intra_energy>  (14) 
92.18565994964545

>  <rmsd>  (14) 
4.40716

>  <sdf_rank>  (14) 
0

$$$$

     RDKit          3D

 61 63  0  0  0  0  0  0  0  0999 V2000
   47.8637  -17.8182    8.8291 O   0  0  0  0  0  0  0  0  0  0  0  0
   47.1985  -16.8877    9.7888 P   0  0  2  0  0  0  0  0  0  0  0  0
   47.8163  -16.5363   11.1161 O   0  0  0  0  0  0  0  0  0  0  0  0
   45.7032  -17.4318    9.9822 O   0  0  0  0  0  0  0  0  0  0  0  0
   45.4159  -18.7483   10.3857 C   0  0  1  0  0  0  0  0  0  0  0  0
   45.8806  -19.0568   11.6876 O   0  0  0  0  0  0  0  0  0  0  0  0
   45.2938  -18.2395   12.7297 C   0  0  2  0  0  0  0  0  0  0  0  0
   46.0170  -18.6041   14.0053 C   0  0  0  0  0  0  0  0  0  0  0  0
   43.9143  -18.9164   10.2860 C   0  0  2  0  0  0  0  0  0  0  0  0
   43.4938  -18.4040    9.0338 O   0  0  0  0  0  0  0  0  0  0  0  0
   43.1630  -18.2274   11.4142 C   0  0  1  0  0  0  0  0  0  0  0  0
   41.7527  -18.6490   11.3751 N   0  0  0  0  0  0  0  0  0  0  0  0
   43.8039  -18.5206   12.7819 C   0  0  1  0  0  0  0  0  0  0  0  0
   43.6136  -19.8972   13.1281 O   0  0  0  0  0  0  0  0  0  0  0  0
   46.8824  -15.5574    8.9851 O   0  0  0  0  0  0  0  0  0  0  0  0
   46.0986  -15.1357    7.6586 P   0  0  1  0  0  0  0  0  0  0  0  0
   45.1218  -16.2583    7.5073 O   0  0  0  0  0  0  0  0  0  0  0  0
   45.6965  -13.6970    7.7602 O   0  0  0  0  0  0  0  0  0  0  0  0
   47.2180  -15.3088    6.5499 O   0  0  0  0  0  0  0  0  0  0  0  0
   48.5557  -15.0875    6.9486 C   0  0  0  0  0  0  0  0  0  0  0  0
   49.2314  -14.3015    5.8547 C   0  0  1  0  0  0  0  0  0  0  0  0
   48.2796  -14.0328    4.7967 O   0  0  0  0  0  0  0  0  0  0  0  0
   49.7669  -12.9331    6.2557 C   0  0  1  0  0  0  0  0  0  0  0  0
   51.0129  -13.0542    6.9516 O   0  0  0  0  0  0  0  0  0  0  0  0
   49.8662  -12.2807    4.8777 C   0  0  0  0  0  0  0  0  0  0  0  0
   48.6302  -12.8232    4.1449 C   0  0  2  0  0  0  0  0  0  0  0  0
   47.4639  -11.9287    4.1962 N   0  0  0  0  0  0  0  0  0  0  0  0
   47.3523  -10.9679    3.2118 C   0  0  0  0  0  0  0  0  0  0  0  0
   48.1722  -10.8331    2.3210 O   0  0  0  0  0  0  0  0  0  0  0  0
   46.2846  -10.1280    3.3442 N   0  0  0  0  0  0  0  0  0  0  0  0
   46.5365  -12.0127    5.2105 C   0  0  0  0  0  0  0  0  0  0  0  0
   45.4780  -11.1973    5.3218 C   0  0  0  0  0  0  0  0  0  0  0  0
   44.4823  -11.2991    6.4384 C   0  0  0  0  0  0  0  0  0  0  0  0
   45.3146  -10.1547    4.3259 C   0  0  0  0  0  0  0  0  0  0  0  0
   44.4225   -9.3102    4.3135 O   0  0  0  0  0  0  0  0  0  0  0  0
   45.9484  -19.4521    9.7291 H   0  0  0  0  0  0  0  0  0  0  0  0
   45.4012  -17.1586   12.5561 H   0  0  0  0  0  0  0  0  0  0  0  0
   45.4108  -18.2984   14.8707 H   0  0  0  0  0  0  0  0  0  0  0  0
   46.1790  -19.6917   14.0369 H   0  0  0  0  0  0  0  0  0  0  0  0
   46.9878  -18.0878   14.0369 H   0  0  0  0  0  0  0  0  0  0  0  0
   43.6819  -19.9880   10.3740 H   0  0  0  0  0  0  0  0  0  0  0  0
   42.8726  -17.6469    9.1788 H   0  0  0  0  0  0  0  0  0  0  0  0
   43.2182  -17.1379   11.2732 H   0  0  0  0  0  0  0  0  0  0  0  0
   41.3992  -18.7547   12.3367 H   0  0  0  0  0  0  0  0  0  0  0  0
   41.1954  -17.9379   10.8806 H   0  0  0  0  0  0  0  0  0  0  0  0
   41.6772  -19.5494   10.8806 H   0  0  0  0  0  0  0  0  0  0  0  0
   43.3266  -17.8750   13.5337 H   0  0  0  0  0  0  0  0  0  0  0  0
   43.6007  -19.9908   14.1136 H   0  0  0  0  0  0  0  0  0  0  0  0
   48.5777  -14.5172    7.8890 H   0  0  0  0  0  0  0  0  0  0  0  0
   49.0734  -16.0438    7.1144 H   0  0  0  0  0  0  0  0  0  0  0  0
   50.0815  -14.9357    5.5629 H   0  0  0  0  0  0  0  0  0  0  0  0
   49.1581  -12.3529    6.9647 H   0  0  0  0  0  0  0  0  0  0  0  0
   50.8487  -13.0382    7.9277 H   0  0  0  0  0  0  0  0  0  0  0  0
   49.8288  -11.1841    4.9564 H   0  0  0  0  0  0  0  0  0  0  0  0
   50.8098  -12.5068    4.3594 H   0  0  0  0  0  0  0  0  0  0  0  0
   48.8879  -12.9417    3.0821 H   0  0  0  0  0  0  0  0  0  0  0  0
   46.1922   -9.3907    2.6309 H   0  0  0  0  0  0  0  0  0  0  0  0
   46.6719  -12.7936    5.9733 H   0  0  0  0  0  0  0  0  0  0  0  0
   45.0071  -11.2454    7.4037 H   0  0  0  0  0  0  0  0  0  0  0  0
   43.7634  -10.4697    6.3653 H   0  0  0  0  0  0  0  0  0  0  0  0
   43.9460  -12.2567    6.3653 H   0  0  0  0  0  0  0  0  0  0  0  0
  2  1  1  6
  2  3  2  0
  2  4  1  0
  2 15  1  0
  5  4  1  0
  5  6  1  0
  5  9  1  0
  6  7  1  0
  7  8  1  0
  7 13  1  0
  9 10  1  0
  9 11  1  0
 11 12  1  0
 11 13  1  0
 13 14  1  0
 15 16  1  0
 16 17  1  6
 16 18  2  0
 16 19  1  0
 19 20  1  0
 21 20  1  0
 21 22  1  0
 21 23  1  0
 22 26  1  0
 23 24  1  0
 23 25  1  0
 25 26  1  0
 26 27  1  0
 27 28  1  0
 27 31  1  0
 28 29  2  0
 28 30  1  0
 30 34  1  0
 31 32  2  0
 32 33  1  0
 32 34  1  0
 34 35  2  0
  5 36  1  6
  7 37  1  6
  8 38  1  0
  8 39  1  0
  8 40  1  0
  9 41  1  6
 10 42  1  0
 11 43  1  6
 12 44  1  0
 12 45  1  0
 12 46  1  0
 13 47  1  1
 14 48  1  0
 20 49  1  0
 20 50  1  0
 21 51  1  6
 23 52  1  1
 24 53  1  0
 25 54  1  0
 25 55  1  0
 26 56  1  6
 30 57  1  0
 31 58  1  0
 33 59  1  0
 33 60  1  0
 33 61  1  0
M  CHG  3   1  -1  12   1  17  -1
M  END
>  <filename_input>  (15) 
7N7B_T3F_docked.sdf

>  <pdb_id>  (15) 
7N7B_T3F

>  <pose_rank>  (15) 
14

>  <num_atoms_heavy>  (15) 
35

>  <num_torsions>  (15) 
8

>  <pose>  (15) 
[46.09858276892718, -15.135724737098647, 7.658617010418379, -0.406322666784965, -2.924198212670853, -1.79057703750361, -2.757988093147506, -3.342716968156661, -1.843142403841868, -0.17324332575362106, -1.3473003015456382, 0.32513340292618037, 0.964003363201264, -0.03568625822404189]

>  <energy>  (15) 
-739.8237242423585

>  <inter_energy>  (15) 
-791.256155231472

>  <intra_energy>  (15) 
44.38228642657077

>  <rmsd>  (15) 
9.35785

>  <sdf_rank>  (15) 
0

$$$$

     RDKit          3D

 61 63  0  0  0  0  0  0  0  0999 V2000
   44.1076  -18.0951   14.0037 O   0  0  0  0  0  0  0  0  0  0  0  0
   44.9112  -18.5405   12.8268 P   0  0  2  0  0  0  0  0  0  0  0  0
   45.2107  -19.9935   12.5700 O   0  0  0  0  0  0  0  0  0  0  0  0
   46.2606  -17.6755   12.8482 O   0  0  0  0  0  0  0  0  0  0  0  0
   47.5141  -18.2074   12.4952 C   0  0  1  0  0  0  0  0  0  0  0  0
   47.9324  -17.8548   11.1888 O   0  0  0  0  0  0  0  0  0  0  0  0
   48.0921  -16.4292   10.9878 C   0  0  2  0  0  0  0  0  0  0  0  0
   48.3846  -16.2436    9.5170 C   0  0  0  0  0  0  0  0  0  0  0  0
   48.5015  -17.7225   13.5359 C   0  0  2  0  0  0  0  0  0  0  0  0
   47.9306  -17.9265   14.8165 O   0  0  0  0  0  0  0  0  0  0  0  0
   48.8829  -16.2614   13.3579 C   0  0  1  0  0  0  0  0  0  0  0  0
   50.0170  -15.9532   14.2451 N   0  0  0  0  0  0  0  0  0  0  0  0
   49.2085  -15.9370   11.8895 C   0  0  1  0  0  0  0  0  0  0  0  0
   50.4248  -16.5857   11.5015 O   0  0  0  0  0  0  0  0  0  0  0  0
   44.2251  -17.9083   11.5441 O   0  0  0  0  0  0  0  0  0  0  0  0
   44.3148  -18.0657    9.9570 P   0  0  1  0  0  0  0  0  0  0  0  0
   45.3244  -19.1597    9.8118 O   0  0  0  0  0  0  0  0  0  0  0  0
   42.9308  -18.1362    9.3899 O   0  0  0  0  0  0  0  0  0  0  0  0
   45.0055  -16.7035    9.5331 O   0  0  0  0  0  0  0  0  0  0  0  0
   44.1741  -15.7123    8.9641 C   0  0  0  0  0  0  0  0  0  0  0  0
   44.1890  -15.9100    7.4703 C   0  0  1  0  0  0  0  0  0  0  0  0
   43.5941  -14.7573    6.8261 O   0  0  0  0  0  0  0  0  0  0  0  0
   45.5660  -16.0466    6.8336 C   0  0  1  0  0  0  0  0  0  0  0  0
   46.0898  -17.3661    7.0232 O   0  0  0  0  0  0  0  0  0  0  0  0
   45.2171  -15.7001    5.3869 C   0  0  0  0  0  0  0  0  0  0  0  0
   44.1634  -14.5929    5.5377 C   0  0  2  0  0  0  0  0  0  0  0  0
   44.7115  -13.2305    5.4573 N   0  0  0  0  0  0  0  0  0  0  0  0
   43.9414  -12.2681    4.8367 C   0  0  0  0  0  0  0  0  0  0  0  0
   42.8463  -12.5027    4.3575 O   0  0  0  0  0  0  0  0  0  0  0  0
   44.5253  -11.0384    4.7368 N   0  0  0  0  0  0  0  0  0  0  0  0
   45.9643  -12.9290    5.9425 C   0  0  0  0  0  0  0  0  0  0  0  0
   46.5226  -11.7127    5.8598 C   0  0  0  0  0  0  0  0  0  0  0  0
   47.8921  -11.4049    6.3873 C   0  0  0  0  0  0  0  0  0  0  0  0
   45.7689  -10.6614    5.2025 C   0  0  0  0  0  0  0  0  0  0  0  0
   46.1583   -9.5114    5.0150 O   0  0  0  0  0  0  0  0  0  0  0  0
   47.4490  -19.3053   12.4769 H   0  0  0  0  0  0  0  0  0  0  0  0
   47.1986  -15.8436   11.2498 H   0  0  0  0  0  0  0  0  0  0  0  0
   49.3079  -15.6577    9.3979 H   0  0  0  0  0  0  0  0  0  0  0  0
   48.5106  -17.2274    9.0412 H   0  0  0  0  0  0  0  0  0  0  0  0
   47.5482  -15.7107    9.0412 H   0  0  0  0  0  0  0  0  0  0  0  0
   49.4322  -18.2974   13.4207 H   0  0  0  0  0  0  0  0  0  0  0  0
   48.5921  -17.6901   15.5141 H   0  0  0  0  0  0  0  0  0  0  0  0
   48.0268  -15.6278   13.6329 H   0  0  0  0  0  0  0  0  0  0  0  0
   49.7168  -16.0348   15.2270 H   0  0  0  0  0  0  0  0  0  0  0  0
   50.7843  -16.6162   14.0645 H   0  0  0  0  0  0  0  0  0  0  0  0
   50.3432  -14.9931   14.0645 H   0  0  0  0  0  0  0  0  0  0  0  0
   49.3166  -14.8467   11.7913 H   0  0  0  0  0  0  0  0  0  0  0  0
   50.9282  -16.8542   12.3106 H   0  0  0  0  0  0  0  0  0  0  0  0
   43.1482  -15.8181    9.3466 H   0  0  0  0  0  0  0  0  0  0  0  0
   44.5362  -14.7069    9.2251 H   0  0  0  0  0  0  0  0  0  0  0  0
   43.6438  -16.8544    7.3253 H   0  0  0  0  0  0  0  0  0  0  0  0
   46.3662  -15.4153    7.2473 H   0  0  0  0  0  0  0  0  0  0  0  0
   46.1648  -17.5553    7.9920 H   0  0  0  0  0  0  0  0  0  0  0  0
   46.1009  -15.3328    4.8448 H   0  0  0  0  0  0  0  0  0  0  0  0
   44.8561  -16.5646    4.8105 H   0  0  0  0  0  0  0  0  0  0  0  0
   43.4443  -14.6908    4.7111 H   0  0  0  0  0  0  0  0  0  0  0  0
   43.9759  -10.3092    4.2599 H   0  0  0  0  0  0  0  0  0  0  0  0
   46.5402  -13.7320    6.4257 H   0  0  0  0  0  0  0  0  0  0  0  0
   47.8711  -11.4097    7.4871 H   0  0  0  0  0  0  0  0  0  0  0  0
   48.6019  -12.1660    6.0309 H   0  0  0  0  0  0  0  0  0  0  0  0
   48.2081  -10.4134    6.0309 H   0  0  0  0  0  0  0  0  0  0  0  0
  2  1  1  1
  2  3  2  0
  2  4  1  0
  2 15  1  0
  5  4  1  0
  5  6  1  0
  5  9  1  0
  6  7  1  0
  7  8  1  0
  7 13  1  0
  9 10  1  0
  9 11  1  0
 11 12  1  0
 11 13  1  0
 13 14  1  0
 15 16  1  0
 16 17  1  1
 16 18  2  0
 16 19  1  0
 19 20  1  0
 21 20  1  0
 21 22  1  0
 21 23  1  0
 22 26  1  0
 23 24  1  0
 23 25  1  0
 25 26  1  0
 26 27  1  0
 27 28  1  0
 27 31  1  0
 28 29  2  0
 28 30  1  0
 30 34  1  0
 31 32  2  0
 32 33  1  0
 32 34  1  0
 34 35  2  0
  5 36  1  6
  7 37  1  1
  8 38  1  0
  8 39  1  0
  8 40  1  0
  9 41  1  1
 10 42  1  0
 11 43  1  1
 12 44  1  0
 12 45  1  0
 12 46  1  0
 13 47  1  1
 14 48  1  0
 20 49  1  0
 20 50  1  0
 21 51  1  1
 23 52  1  1
 24 53  1  0
 25 54  1  0
 25 55  1  0
 26 56  1  6
 30 57  1  0
 31 58  1  0
 33 59  1  0
 33 60  1  0
 33 61  1  0
M  CHG  3   1  -1  12   1  17  -1
M  END
>  <filename_input>  (16) 
7N7B_T3F_docked.sdf

>  <pdb_id>  (16) 
7N7B_T3F

>  <pose_rank>  (16) 
15

>  <num_atoms_heavy>  (16) 
35

>  <num_torsions>  (16) 
8

>  <pose>  (16) 
[44.314802813906816, -18.065687700316442, 9.9569694829288, -1.7769033328469608, 1.9839946243985331, 1.5630883870724952, -3.1413868795076567, -0.9719079361797379, -0.3222297953594576, 0.48274995366897344, 3.662050824879491, -5.144837440579848, 4.305490548788403, -5.3450928288801425]

>  <energy>  (16) 
-704.0217410884798

>  <inter_energy>  (16) 
-739.2045094702723

>  <intra_energy>  (16) 
38.0896729959416

>  <rmsd>  (16) 
8.2725

>  <sdf_rank>  (16) 
0

$$$$

     RDKit          3D

 61 63  0  0  0  0  0  0  0  0999 V2000
   44.8245  -17.6758   13.5951 O   0  0  0  0  0  0  0  0  0  0  0  0
   45.5864  -18.4565   12.5757 P   0  0  2  0  0  0  0  0  0  0  0  0
   45.2097  -19.8668   12.2068 O   0  0  0  0  0  0  0  0  0  0  0  0
   47.1291  -18.3718   13.0027 O   0  0  0  0  0  0  0  0  0  0  0  0
   47.6509  -17.3178   13.7745 C   0  0  1  0  0  0  0  0  0  0  0  0
   48.2075  -17.7388   15.0070 O   0  0  0  0  0  0  0  0  0  0  0  0
   49.3241  -18.6507   14.8663 C   0  0  2  0  0  0  0  0  0  0  0  0
   49.6753  -19.1019   16.2649 C   0  0  0  0  0  0  0  0  0  0  0  0
   48.6853  -16.6204   12.9162 C   0  0  2  0  0  0  0  0  0  0  0  0
   48.1246  -16.4077   11.6326 O   0  0  0  0  0  0  0  0  0  0  0  0
   49.9845  -17.4016   12.7988 C   0  0  1  0  0  0  0  0  0  0  0  0
   51.0005  -16.5445   12.1652 N   0  0  0  0  0  0  0  0  0  0  0  0
   50.4567  -17.9223   14.1674 C   0  0  1  0  0  0  0  0  0  0  0  0
   50.8702  -16.8277   14.9930 O   0  0  0  0  0  0  0  0  0  0  0  0
   45.6365  -17.5638   11.2656 O   0  0  0  0  0  0  0  0  0  0  0  0
   45.7404  -17.7858    9.6872 P   0  0  1  0  0  0  0  0  0  0  0  0
   47.1986  -17.5634    9.4395 O   0  0  0  0  0  0  0  0  0  0  0  0
   45.0212  -19.0464    9.3186 O   0  0  0  0  0  0  0  0  0  0  0  0
   44.9523  -16.5290    9.1289 O   0  0  0  0  0  0  0  0  0  0  0  0
   45.4137  -15.9693    7.9159 C   0  0  0  0  0  0  0  0  0  0  0  0
   44.4388  -14.8933    7.5127 C   0  0  1  0  0  0  0  0  0  0  0  0
   45.0848  -13.6002    7.6023 O   0  0  0  0  0  0  0  0  0  0  0  0
   43.9185  -14.9723    6.0832 C   0  0  1  0  0  0  0  0  0  0  0  0
   42.8896  -15.9618    5.9662 O   0  0  0  0  0  0  0  0  0  0  0  0
   43.4423  -13.5318    5.9017 C   0  0  0  0  0  0  0  0  0  0  0  0
   44.5006  -12.7164    6.6595 C   0  0  2  0  0  0  0  0  0  0  0  0
   45.5770  -12.1925    5.8052 N   0  0  0  0  0  0  0  0  0  0  0  0
   45.2243  -11.3165    4.7989 C   0  0  0  0  0  0  0  0  0  0  0  0
   44.0743  -10.9714    4.5933 O   0  0  0  0  0  0  0  0  0  0  0  0
   46.2541  -10.9111    4.0000 N   0  0  0  0  0  0  0  0  0  0  0  0
   46.8847  -12.5907    5.9697 C   0  0  0  0  0  0  0  0  0  0  0  0
   47.8947  -12.1711    5.1940 C   0  0  0  0  0  0  0  0  0  0  0  0
   49.3122  -12.6220    5.3837 C   0  0  0  0  0  0  0  0  0  0  0  0
   47.5850  -11.2612    4.1071 C   0  0  0  0  0  0  0  0  0  0  0  0
   48.3906  -10.8206    3.2908 O   0  0  0  0  0  0  0  0  0  0  0  0
   46.8336  -16.6387   14.0588 H   0  0  0  0  0  0  0  0  0  0  0  0
   49.0972  -19.5353   14.2532 H   0  0  0  0  0  0  0  0  0  0  0  0
   49.1710  -18.4539   16.9968 H   0  0  0  0  0  0  0  0  0  0  0  0
   49.3466  -20.1419   16.4081 H   0  0  0  0  0  0  0  0  0  0  0  0
   50.7641  -19.0386   16.4081 H   0  0  0  0  0  0  0  0  0  0  0  0
   48.9450  -15.6663   13.3983 H   0  0  0  0  0  0  0  0  0  0  0  0
   47.2034  -16.0582   11.7286 H   0  0  0  0  0  0  0  0  0  0  0  0
   49.8176  -18.2888   12.1703 H   0  0  0  0  0  0  0  0  0  0  0  0
   51.5568  -16.0753   12.8941 H   0  0  0  0  0  0  0  0  0  0  0  0
   51.6200  -17.1222   11.5791 H   0  0  0  0  0  0  0  0  0  0  0  0
   50.5354  -15.8366   11.5791 H   0  0  0  0  0  0  0  0  0  0  0  0
   51.3002  -18.6093   14.0045 H   0  0  0  0  0  0  0  0  0  0  0  0
   50.7754  -17.0788   15.9459 H   0  0  0  0  0  0  0  0  0  0  0  0
   46.4140  -15.5349    8.0595 H   0  0  0  0  0  0  0  0  0  0  0  0
   45.4829  -16.7411    7.1352 H   0  0  0  0  0  0  0  0  0  0  0  0
   43.5915  -15.0364    8.1994 H   0  0  0  0  0  0  0  0  0  0  0  0
   44.6370  -15.2893    5.3130 H   0  0  0  0  0  0  0  0  0  0  0  0
   42.5976  -16.2426    6.8695 H   0  0  0  0  0  0  0  0  0  0  0  0
   43.4183  -13.2551    4.8374 H   0  0  0  0  0  0  0  0  0  0  0  0
   42.4204  -13.3644    6.2728 H   0  0  0  0  0  0  0  0  0  0  0  0
   44.0031  -11.8436    7.1075 H   0  0  0  0  0  0  0  0  0  0  0  0
   46.0106  -10.2715    3.2302 H   0  0  0  0  0  0  0  0  0  0  0  0
   47.1141  -13.2934    6.7844 H   0  0  0  0  0  0  0  0  0  0  0  0
   49.5338  -12.6925    6.4588 H   0  0  0  0  0  0  0  0  0  0  0  0
   49.4491  -13.6080    4.9157 H   0  0  0  0  0  0  0  0  0  0  0  0
   49.9936  -11.8962    4.9157 H   0  0  0  0  0  0  0  0  0  0  0  0
  2  1  1  1
  2  3  2  0
  2  4  1  0
  2 15  1  0
  5  4  1  0
  5  6  1  0
  5  9  1  0
  6  7  1  0
  7  8  1  0
  7 13  1  0
  9 10  1  0
  9 11  1  0
 11 12  1  0
 11 13  1  0
 13 14  1  0
 15 16  1  0
 16 17  1  6
 16 18  2  0
 16 19  1  0
 19 20  1  0
 21 20  1  0
 21 22  1  0
 21 23  1  0
 22 26  1  0
 23 24  1  0
 23 25  1  0
 25 26  1  0
 26 27  1  0
 27 28  1  0
 27 31  1  0
 28 29  2  0
 28 30  1  0
 30 34  1  0
 31 32  2  0
 32 33  1  0
 32 34  1  0
 34 35  2  0
  5 36  1  1
  7 37  1  6
  8 38  1  0
  8 39  1  0
  8 40  1  0
  9 41  1  1
 10 42  1  0
 11 43  1  6
 12 44  1  0
 12 45  1  0
 12 46  1  0
 13 47  1  6
 14 48  1  0
 20 49  1  0
 20 50  1  0
 21 51  1  1
 23 52  1  6
 24 53  1  0
 25 54  1  0
 25 55  1  0
 26 56  1  1
 30 57  1  0
 31 58  1  0
 33 59  1  0
 33 60  1  0
 33 61  1  0
M  CHG  3   1  -1  12   1  17  -1
M  END
>  <filename_input>  (17) 
7N7B_T3F_docked.sdf

>  <pdb_id>  (17) 
7N7B_T3F

>  <pose_rank>  (17) 
16

>  <num_atoms_heavy>  (17) 
35

>  <num_torsions>  (17) 
8

>  <pose>  (17) 
[45.740363617161044, -17.785838592170688, 9.68715774398152, 2.1042728369756385, -0.8454270381821789, -1.2258061297566547, 1.3833793717119498, -6.969681752513276, -3.243023845894434, 7.077424091170838, -4.552554697809569, -0.5094484009949932, 9.198390755251832, -0.49849641280661117]

>  <energy>  (17) 
-677.3134279409619

>  <inter_energy>  (17) 
-732.3242005407402

>  <intra_energy>  (17) 
57.26703592760229

>  <rmsd>  (17) 
8.81348

>  <sdf_rank>  (17) 
0

$$$$

     RDKit          3D

 61 63  0  0  0  0  0  0  0  0999 V2000
   42.1936  -15.0777    6.3908 O   0  0  0  0  0  0  0  0  0  0  0  0
   43.6573  -15.2702    6.1678 P   0  0  2  0  0  0  0  0  0  0  0  0
   44.2372  -15.4458    4.7894 O   0  0  0  0  0  0  0  0  0  0  0  0
   44.1070  -16.4689    7.1323 O   0  0  0  0  0  0  0  0  0  0  0  0
   45.0813  -16.3171    8.1355 C   0  0  1  0  0  0  0  0  0  0  0  0
   44.5752  -16.4843    9.4477 O   0  0  0  0  0  0  0  0  0  0  0  0
   44.0200  -17.7981    9.7003 C   0  0  2  0  0  0  0  0  0  0  0  0
   43.4004  -17.7336   11.0769 C   0  0  0  0  0  0  0  0  0  0  0  0
   46.1734  -17.3229    7.8375 C   0  0  2  0  0  0  0  0  0  0  0  0
   46.4915  -17.2355    6.4596 O   0  0  0  0  0  0  0  0  0  0  0  0
   45.7831  -18.7479    8.1968 C   0  0  1  0  0  0  0  0  0  0  0  0
   46.9766  -19.6057    8.1088 N   0  0  0  0  0  0  0  0  0  0  0  0
   45.1340  -18.8220    9.5898 C   0  0  1  0  0  0  0  0  0  0  0  0
   46.1089  -18.5430   10.6011 O   0  0  0  0  0  0  0  0  0  0  0  0
   44.3892  -14.0680    6.8991 O   0  0  0  0  0  0  0  0  0  0  0  0
   44.6828  -12.5216    6.6268 P   0  0  1  0  0  0  0  0  0  0  0  0
   43.3900  -11.8864    7.0298 O   0  0  0  0  0  0  0  0  0  0  0  0
   46.0058  -12.1582    7.2266 O   0  0  0  0  0  0  0  0  0  0  0  0
   44.7753  -12.4812    5.0450 O   0  0  0  0  0  0  0  0  0  0  0  0
   44.4024  -11.2744    4.4110 C   0  0  0  0  0  0  0  0  0  0  0  0
   45.6667  -10.5866    3.9646 C   0  0  1  0  0  0  0  0  0  0  0  0
   46.5917  -10.5107    5.0763 O   0  0  0  0  0  0  0  0  0  0  0  0
   46.4443  -11.2837    2.8557 C   0  0  1  0  0  0  0  0  0  0  0  0
   45.8470  -11.0366    1.5776 O   0  0  0  0  0  0  0  0  0  0  0  0
   47.8144  -10.6377    3.0557 C   0  0  0  0  0  0  0  0  0  0  0  0
   47.9211  -10.5114    4.5827 C   0  0  2  0  0  0  0  0  0  0  0  0
   48.6405  -11.6214    5.2258 N   0  0  0  0  0  0  0  0  0  0  0  0
   49.8790  -11.3493    5.7701 C   0  0  0  0  0  0  0  0  0  0  0  0
   50.3910  -10.2445    5.7338 O   0  0  0  0  0  0  0  0  0  0  0  0
   50.5264  -12.4285    6.2986 N   0  0  0  0  0  0  0  0  0  0  0  0
   48.1226  -12.8970    5.2494 C   0  0  0  0  0  0  0  0  0  0  0  0
   48.7554  -13.9483    5.7897 C   0  0  0  0  0  0  0  0  0  0  0  0
   48.1788  -15.3325    5.7991 C   0  0  0  0  0  0  0  0  0  0  0  0
   50.0701  -13.7296    6.3636 C   0  0  0  0  0  0  0  0  0  0  0  0
   50.7880  -14.5950    6.8588 O   0  0  0  0  0  0  0  0  0  0  0  0
   45.4625  -15.2854    8.1164 H   0  0  0  0  0  0  0  0  0  0  0  0
   43.2482  -18.0979    8.9761 H   0  0  0  0  0  0  0  0  0  0  0  0
   44.1898  -17.8158   11.8385 H   0  0  0  0  0  0  0  0  0  0  0  0
   42.8732  -16.7757   11.1971 H   0  0  0  0  0  0  0  0  0  0  0  0
   42.6871  -18.5623   11.1971 H   0  0  0  0  0  0  0  0  0  0  0  0
   47.0454  -17.0784    8.4618 H   0  0  0  0  0  0  0  0  0  0  0  0
   47.4409  -16.9746    6.3560 H   0  0  0  0  0  0  0  0  0  0  0  0
   45.0270  -19.1068    7.4830 H   0  0  0  0  0  0  0  0  0  0  0  0
   47.3021  -19.8396    9.0576 H   0  0  0  0  0  0  0  0  0  0  0  0
   46.7406  -20.4717    7.6036 H   0  0  0  0  0  0  0  0  0  0  0  0
   47.7222  -19.1059    7.6036 H   0  0  0  0  0  0  0  0  0  0  0  0
   44.7277  -19.8347    9.7293 H   0  0  0  0  0  0  0  0  0  0  0  0
   45.6999  -18.6600   11.4950 H   0  0  0  0  0  0  0  0  0  0  0  0
   43.7645  -11.4890    3.5409 H   0  0  0  0  0  0  0  0  0  0  0  0
   43.8362  -10.6329    5.1024 H   0  0  0  0  0  0  0  0  0  0  0  0
   45.3168   -9.6149    3.5859 H   0  0  0  0  0  0  0  0  0  0  0  0
   46.4764  -12.3827    2.8908 H   0  0  0  0  0  0  0  0  0  0  0  0
   44.9398  -10.6613    1.7043 H   0  0  0  0  0  0  0  0  0  0  0  0
   48.6147  -11.2775    2.6555 H   0  0  0  0  0  0  0  0  0  0  0  0
   47.9184   -9.6748    2.5341 H   0  0  0  0  0  0  0  0  0  0  0  0
   48.4876   -9.5966    4.8110 H   0  0  0  0  0  0  0  0  0  0  0  0
   51.4612  -12.2520    6.6936 H   0  0  0  0  0  0  0  0  0  0  0  0
   47.1329  -13.0631    4.7990 H   0  0  0  0  0  0  0  0  0  0  0  0
   48.0403  -15.6649    6.8385 H   0  0  0  0  0  0  0  0  0  0  0  0
   47.2075  -15.3285    5.2829 H   0  0  0  0  0  0  0  0  0  0  0  0
   48.8656  -16.0193    5.2829 H   0  0  0  0  0  0  0  0  0  0  0  0
  2  1  1  6
  2  3  2  0
  2  4  1  0
  2 15  1  0
  5  4  1  0
  5  6  1  0
  5  9  1  0
  6  7  1  0
  7  8  1  0
  7 13  1  0
  9 10  1  0
  9 11  1  0
 11 12  1  0
 11 13  1  0
 13 14  1  0
 15 16  1  0
 16 17  1  1
 16 18  2  0
 16 19  1  0
 19 20  1  0
 21 20  1  0
 21 22  1  0
 21 23  1  0
 22 26  1  0
 23 24  1  0
 23 25  1  0
 25 26  1  0
 26 27  1  0
 27 28  1  0
 27 31  1  0
 28 29  2  0
 28 30  1  0
 30 34  1  0
 31 32  2  0
 32 33  1  0
 32 34  1  0
 34 35  2  0
  5 36  1  1
  7 37  1  6
  8 38  1  0
  8 39  1  0
  8 40  1  0
  9 41  1  1
 10 42  1  0
 11 43  1  6
 12 44  1  0
 12 45  1  0
 12 46  1  0
 13 47  1  1
 14 48  1  0
 20 49  1  0
 20 50  1  0
 21 51  1  6
 23 52  1  1
 24 53  1  0
 25 54  1  0
 25 55  1  0
 26 56  1  6
 30 57  1  0
 31 58  1  0
 33 59  1  0
 33 60  1  0
 33 61  1  0
M  CHG  3   1  -1  12   1  17  -1
M  END
>  <filename_input>  (18) 
7N7B_T3F_docked.sdf

>  <pdb_id>  (18) 
7N7B_T3F

>  <pose_rank>  (18) 
17

>  <num_atoms_heavy>  (18) 
35

>  <num_torsions>  (18) 
8

>  <pose>  (18) 
[44.682802153551734, -12.52162430058351, 6.62678411864778, 2.111786374159878, 1.1311792673587215, 1.4511527132351805, 4.514435736701167, 13.165957026280442, 20.229043172912213, -5.560365332181929, -10.747603979519111, -1.7186218117152023, 0.06272738042830578, 0.3561415709686166]

>  <energy>  (18) 
-655.6138803272876

>  <inter_energy>  (18) 
-746.4398517345744

>  <intra_energy>  (18) 
85.78307809873591

>  <rmsd>  (18) 
8.40966

>  <sdf_rank>  (18) 
0

$$$$

     RDKit          3D

 61 63  0  0  0  0  0  0  0  0999 V2000
   49.4374  -11.7204    6.0420 O   0  0  0  0  0  0  0  0  0  0  0  0
   48.6178  -12.4590    5.0360 P   0  0  2  0  0  0  0  0  0  0  0  0
   48.8950  -12.3660    3.5591 O   0  0  0  0  0  0  0  0  0  0  0  0
   47.0871  -12.1032    5.3522 O   0  0  0  0  0  0  0  0  0  0  0  0
   46.4787  -10.9067    4.9316 C   0  0  1  0  0  0  0  0  0  0  0  0
   46.7664  -10.5661    3.5872 O   0  0  0  0  0  0  0  0  0  0  0  0
   46.3088  -11.5449    2.6224 C   0  0  2  0  0  0  0  0  0  0  0  0
   46.8365  -11.0900    1.2816 C   0  0  0  0  0  0  0  0  0  0  0  0
   44.9895  -11.0764    5.1469 C   0  0  2  0  0  0  0  0  0  0  0  0
   44.7877  -11.6080    6.4447 O   0  0  0  0  0  0  0  0  0  0  0  0
   44.3367  -11.9716    4.1056 C   0  0  1  0  0  0  0  0  0  0  0  0
   42.8739  -11.8770    4.2452 N   0  0  0  0  0  0  0  0  0  0  0  0
   44.7942  -11.6094    2.6820 C   0  0  1  0  0  0  0  0  0  0  0  0
   44.2704  -10.3298    2.3087 O   0  0  0  0  0  0  0  0  0  0  0  0
   48.6209  -13.9820    5.4789 O   0  0  0  0  0  0  0  0  0  0  0  0
   48.4511  -14.8212    6.8274 P   0  0  1  0  0  0  0  0  0  0  0  0
   49.8734  -15.0461    7.2321 O   0  0  0  0  0  0  0  0  0  0  0  0
   47.4383  -14.1491    7.7017 O   0  0  0  0  0  0  0  0  0  0  0  0
   47.8739  -16.1945    6.2859 O   0  0  0  0  0  0  0  0  0  0  0  0
   47.0413  -16.9297    7.1599 C   0  0  0  0  0  0  0  0  0  0  0  0
   47.1089  -16.2703    8.5132 C   0  0  1  0  0  0  0  0  0  0  0  0
   45.7727  -16.1544    9.0596 O   0  0  0  0  0  0  0  0  0  0  0  0
   47.9025  -17.0190    9.5762 C   0  0  1  0  0  0  0  0  0  0  0  0
   49.3100  -16.8216    9.3989 O   0  0  0  0  0  0  0  0  0  0  0  0
   47.3210  -16.3749   10.8339 C   0  0  0  0  0  0  0  0  0  0  0  0
   45.8395  -16.1854   10.4757 C   0  0  2  0  0  0  0  0  0  0  0  0
   44.9669  -17.2724   10.9447 N   0  0  0  0  0  0  0  0  0  0  0  0
   43.7317  -17.4041   10.3436 C   0  0  0  0  0  0  0  0  0  0  0  0
   43.3430  -16.6633    9.4582 O   0  0  0  0  0  0  0  0  0  0  0  0
   42.9411  -18.3897   10.8601 N   0  0  0  0  0  0  0  0  0  0  0  0
   45.3442  -18.1046   11.9748 C   0  0  0  0  0  0  0  0  0  0  0  0
   44.5702  -19.0849   12.4625 C   0  0  0  0  0  0  0  0  0  0  0  0
   44.9953  -19.9767   13.5906 C   0  0  0  0  0  0  0  0  0  0  0  0
   43.2520  -19.2629   11.8828 C   0  0  0  0  0  0  0  0  0  0  0  0
   42.4162  -20.0874   12.2450 O   0  0  0  0  0  0  0  0  0  0  0  0
   46.8820  -10.0696    5.5203 H   0  0  0  0  0  0  0  0  0  0  0  0
   46.6722  -12.5639    2.8210 H   0  0  0  0  0  0  0  0  0  0  0  0
   47.6617  -10.3789    1.4345 H   0  0  0  0  0  0  0  0  0  0  0  0
   47.2024  -11.9604    0.7172 H   0  0  0  0  0  0  0  0  0  0  0  0
   46.0297  -10.5997    0.7172 H   0  0  0  0  0  0  0  0  0  0  0  0
   44.5129  -10.0903    5.0440 H   0  0  0  0  0  0  0  0  0  0  0  0
   45.0441  -10.9325    7.1215 H   0  0  0  0  0  0  0  0  0  0  0  0
   44.6491  -13.0124    4.2762 H   0  0  0  0  0  0  0  0  0  0  0  0
   42.6246  -11.8609    5.2444 H   0  0  0  0  0  0  0  0  0  0  0  0
   42.5412  -11.0127    3.7944 H   0  0  0  0  0  0  0  0  0  0  0  0
   42.4326  -12.6912    3.7944 H   0  0  0  0  0  0  0  0  0  0  0  0
   44.4244  -12.3822    1.9920 H   0  0  0  0  0  0  0  0  0  0  0  0
   44.0575   -9.8099    3.1238 H   0  0  0  0  0  0  0  0  0  0  0  0
   46.0058  -16.9198    6.7888 H   0  0  0  0  0  0  0  0  0  0  0  0
   47.3741  -17.9763    7.2223 H   0  0  0  0  0  0  0  0  0  0  0  0
   47.6125  -15.3129    8.3135 H   0  0  0  0  0  0  0  0  0  0  0  0
   47.8177  -18.1157    9.5747 H   0  0  0  0  0  0  0  0  0  0  0  0
   49.7487  -16.7600   10.2843 H   0  0  0  0  0  0  0  0  0  0  0  0
   47.4350  -17.0367   11.7051 H   0  0  0  0  0  0  0  0  0  0  0  0
   47.8225  -15.4356   11.1098 H   0  0  0  0  0  0  0  0  0  0  0  0
   45.4850  -15.2659   10.9643 H   0  0  0  0  0  0  0  0  0  0  0  0
   42.0069  -18.4935   10.4390 H   0  0  0  0  0  0  0  0  0  0  0  0
   46.3377  -17.9568   12.4233 H   0  0  0  0  0  0  0  0  0  0  0  0
   44.7635  -19.4905   14.5497 H   0  0  0  0  0  0  0  0  0  0  0  0
   44.4563  -20.9333   13.5248 H   0  0  0  0  0  0  0  0  0  0  0  0
   46.0778  -20.1605   13.5248 H   0  0  0  0  0  0  0  0  0  0  0  0
  2  1  1  1
  2  3  2  0
  2  4  1  0
  2 15  1  0
  5  4  1  0
  5  6  1  0
  5  9  1  0
  6  7  1  0
  7  8  1  0
  7 13  1  0
  9 10  1  0
  9 11  1  0
 11 12  1  0
 11 13  1  0
 13 14  1  0
 15 16  1  0
 16 17  1  1
 16 18  2  0
 16 19  1  0
 19 20  1  0
 21 20  1  0
 21 22  1  0
 21 23  1  0
 22 26  1  0
 23 24  1  0
 23 25  1  0
 25 26  1  0
 26 27  1  0
 27 28  1  0
 27 31  1  0
 28 29  2  0
 28 30  1  0
 30 34  1  0
 31 32  2  0
 32 33  1  0
 32 34  1  0
 34 35  2  0
  5 36  1  1
  7 37  1  1
  8 38  1  0
  8 39  1  0
  8 40  1  0
  9 41  1  1
 10 42  1  0
 11 43  1  1
 12 44  1  0
 12 45  1  0
 12 46  1  0
 13 47  1  6
 14 48  1  0
 20 49  1  0
 20 50  1  0
 21 51  1  6
 23 52  1  1
 24 53  1  0
 25 54  1  0
 25 55  1  0
 26 56  1  1
 30 57  1  0
 31 58  1  0
 33 59  1  0
 33 60  1  0
 33 61  1  0
M  CHG  3   1  -1  12   1  17  -1
M  END
>  <filename_input>  (19) 
7N7B_T3F_docked.sdf

>  <pdb_id>  (19) 
7N7B_T3F

>  <pose_rank>  (19) 
18

>  <num_atoms_heavy>  (19) 
35

>  <num_torsions>  (19) 
8

>  <pose>  (19) 
[48.451140089847314, -14.821199261864118, 6.827379249115167, -0.04711495176762415, 4.683759617820131, -1.260570627186469, 1.4285864628049638, 2.737809939304988, -1.4024319601426842, -0.5048547625194706, 2.8294954447173986, 2.574618242154329, -2.9789270682793565, 1.9051711911698226]

>  <energy>  (19) 
-641.9983104851615

>  <inter_energy>  (19) 
-790.5366903835147

>  <intra_energy>  (19) 
145.63679775778434

>  <rmsd>  (19) 
3.95966

>  <sdf_rank>  (19) 
0

$$$$

     RDKit          3D

 61 63  0  0  0  0  0  0  0  0999 V2000
   48.0070  -16.2998    9.6475 O   0  0  0  0  0  0  0  0  0  0  0  0
   46.6540  -15.8491    9.2055 P   0  0  2  0  0  0  0  0  0  0  0  0
   46.2130  -14.4145    9.3263 O   0  0  0  0  0  0  0  0  0  0  0  0
   45.5994  -16.8307    9.9081 O   0  0  0  0  0  0  0  0  0  0  0  0
   45.8201  -18.2126   10.0506 C   0  0  1  0  0  0  0  0  0  0  0  0
   46.5757  -18.5508   11.1999 O   0  0  0  0  0  0  0  0  0  0  0  0
   45.9482  -18.1698   12.4486 C   0  0  2  0  0  0  0  0  0  0  0  0
   46.9582  -18.4662   13.5326 C   0  0  0  0  0  0  0  0  0  0  0  0
   44.4566  -18.8707   10.0786 C   0  0  2  0  0  0  0  0  0  0  0  0
   43.6858  -18.3370    9.0163 O   0  0  0  0  0  0  0  0  0  0  0  0
   43.7313  -18.6792   11.4012 C   0  0  1  0  0  0  0  0  0  0  0  0
   42.5441  -19.5499   11.4243 N   0  0  0  0  0  0  0  0  0  0  0  0
   44.6577  -18.9532   12.5987 C   0  0  1  0  0  0  0  0  0  0  0  0
   44.9781  -20.3476   12.6625 O   0  0  0  0  0  0  0  0  0  0  0  0
   46.4849  -16.3285    7.7031 O   0  0  0  0  0  0  0  0  0  0  0  0
   45.9555  -15.7248    6.3222 P   0  0  1  0  0  0  0  0  0  0  0  0
   46.7631  -16.4888    5.3216 O   0  0  0  0  0  0  0  0  0  0  0  0
   44.4583  -15.7044    6.3352 O   0  0  0  0  0  0  0  0  0  0  0  0
   46.5183  -14.2441    6.3769 O   0  0  0  0  0  0  0  0  0  0  0  0
   47.0508  -13.7154    5.1792 C   0  0  0  0  0  0  0  0  0  0  0  0
   47.4915  -12.3026    5.4632 C   0  0  1  0  0  0  0  0  0  0  0  0
   48.1625  -12.2562    6.7458 O   0  0  0  0  0  0  0  0  0  0  0  0
   48.4901  -11.7093    4.4778 C   0  0  1  0  0  0  0  0  0  0  0  0
   47.8332  -11.2743    3.2817 O   0  0  0  0  0  0  0  0  0  0  0  0
   49.0629  -10.5832    5.3371 C   0  0  0  0  0  0  0  0  0  0  0  0
   49.1169  -11.2074    6.7394 C   0  0  2  0  0  0  0  0  0  0  0  0
   50.4241  -11.7849    7.0871 N   0  0  0  0  0  0  0  0  0  0  0  0
   51.2966  -10.9993    7.8123 C   0  0  0  0  0  0  0  0  0  0  0  0
   51.0304   -9.8639    8.1643 O   0  0  0  0  0  0  0  0  0  0  0  0
   52.5161  -11.5632    8.0532 N   0  0  0  0  0  0  0  0  0  0  0  0
   50.7874  -13.0460    6.6707 C   0  0  0  0  0  0  0  0  0  0  0  0
   51.9798  -13.6017    6.9298 C   0  0  0  0  0  0  0  0  0  0  0  0
   52.3607  -14.9742    6.4611 C   0  0  0  0  0  0  0  0  0  0  0  0
   52.9479  -12.8184    7.6747 C   0  0  0  0  0  0  0  0  0  0  0  0
   54.0904  -13.1719    7.9559 O   0  0  0  0  0  0  0  0  0  0  0  0
   46.4273  -18.5708    9.2063 H   0  0  0  0  0  0  0  0  0  0  0  0
   45.6744  -17.1056   12.4984 H   0  0  0  0  0  0  0  0  0  0  0  0
   46.4894  -18.3286   14.5181 H   0  0  0  0  0  0  0  0  0  0  0  0
   47.3074  -19.5046   13.4344 H   0  0  0  0  0  0  0  0  0  0  0  0
   47.8132  -17.7810   13.4344 H   0  0  0  0  0  0  0  0  0  0  0  0
   44.5961  -19.9554    9.9609 H   0  0  0  0  0  0  0  0  0  0  0  0
   42.9309  -17.8143    9.3865 H   0  0  0  0  0  0  0  0  0  0  0  0
   43.4118  -17.6304   11.4901 H   0  0  0  0  0  0  0  0  0  0  0  0
   42.2795  -19.7439   12.4006 H   0  0  0  0  0  0  0  0  0  0  0  0
   41.7637  -19.0792   10.9442 H   0  0  0  0  0  0  0  0  0  0  0  0
   42.7584  -20.4356   10.9442 H   0  0  0  0  0  0  0  0  0  0  0  0
   44.1369  -18.6452   13.5173 H   0  0  0  0  0  0  0  0  0  0  0  0
   45.0426  -20.6283   13.6097 H   0  0  0  0  0  0  0  0  0  0  0  0
   47.9108  -14.3184    4.8524 H   0  0  0  0  0  0  0  0  0  0  0  0
   46.2957  -13.7319    4.3795 H   0  0  0  0  0  0  0  0  0  0  0  0
   46.5597  -11.7208    5.4064 H   0  0  0  0  0  0  0  0  0  0  0  0
   49.2618  -12.3889    4.0872 H   0  0  0  0  0  0  0  0  0  0  0  0
   47.0319  -10.7437    3.5196 H   0  0  0  0  0  0  0  0  0  0  0  0
   50.0678  -10.2965    4.9935 H   0  0  0  0  0  0  0  0  0  0  0  0
   48.4638   -9.6615    5.2970 H   0  0  0  0  0  0  0  0  0  0  0  0
   48.9195  -10.4133    7.4745 H   0  0  0  0  0  0  0  0  0  0  0  0
   53.1904  -10.9869    8.5768 H   0  0  0  0  0  0  0  0  0  0  0  0
   50.0575  -13.6313    6.0921 H   0  0  0  0  0  0  0  0  0  0  0  0
   52.5405  -15.6222    7.3316 H   0  0  0  0  0  0  0  0  0  0  0  0
   51.5451  -15.3938    5.8539 H   0  0  0  0  0  0  0  0  0  0  0  0
   53.2759  -14.9135    5.8539 H   0  0  0  0  0  0  0  0  0  0  0  0
  2  1  1  1
  2  3  2  0
  2  4  1  0
  2 15  1  0
  5  4  1  0
  5  6  1  0
  5  9  1  0
  6  7  1  0
  7  8  1  0
  7 13  1  0
  9 10  1  0
  9 11  1  0
 11 12  1  0
 11 13  1  0
 13 14  1  0
 15 16  1  0
 16 17  1  6
 16 18  2  0
 16 19  1  0
 19 20  1  0
 21 20  1  0
 21 22  1  0
 21 23  1  0
 22 26  1  0
 23 24  1  0
 23 25  1  0
 25 26  1  0
 26 27  1  0
 27 28  1  0
 27 31  1  0
 28 29  2  0
 28 30  1  0
 30 34  1  0
 31 32  2  0
 32 33  1  0
 32 34  1  0
 34 35  2  0
  5 36  1  6
  7 37  1  6
  8 38  1  0
  8 39  1  0
  8 40  1  0
  9 41  1  6
 10 42  1  0
 11 43  1  1
 12 44  1  0
 12 45  1  0
 12 46  1  0
 13 47  1  1
 14 48  1  0
 20 49  1  0
 20 50  1  0
 21 51  1  1
 23 52  1  6
 24 53  1  0
 25 54  1  0
 25 55  1  0
 26 56  1  1
 30 57  1  0
 31 58  1  0
 33 59  1  0
 33 60  1  0
 33 61  1  0
M  CHG  3   1  -1  12   1  17  -1
M  END
>  <filename_input>  (20) 
7N7B_T3F_docked.sdf

>  <pdb_id>  (20) 
7N7B_T3F

>  <pose_rank>  (20) 
19

>  <num_atoms_heavy>  (20) 
35

>  <num_torsions>  (20) 
8

>  <pose>  (20) 
[45.955459530788914, -15.724838903175263, 6.322190446629084, -1.3902576266492104, 1.4787629253295864, 2.3118952488540296, -0.5363007236906775, -0.39677581277357665, 2.7881047906415466, 0.19576441132361627, 1.6084814647834418, -0.42995219028674014, -4.593673660317938, 0.10181514749429842]

>  <energy>  (20) 
-695.1183063575821

>  <inter_energy>  (20) 
-709.1605038647994

>  <intra_energy>  (20) 
13.810689186567181

>  <rmsd>  (20) 
8.62385

>  <sdf_rank>  (20) 
0

$$$$

     RDKit          3D

 61 63  0  0  0  0  0  0  0  0999 V2000
   45.1410  -18.2711    7.5788 O   0  0  0  0  0  0  0  0  0  0  0  0
   46.2469  -17.2855    7.7651 P   0  0  2  0  0  0  0  0  0  0  0  0
   47.4656  -17.2786    6.8810 O   0  0  0  0  0  0  0  0  0  0  0  0
   46.6644  -17.3623    9.3108 O   0  0  0  0  0  0  0  0  0  0  0  0
   45.9609  -16.6891   10.3260 C   0  0  1  0  0  0  0  0  0  0  0  0
   44.6322  -17.1490   10.4963 O   0  0  0  0  0  0  0  0  0  0  0  0
   44.5374  -18.5437   10.8758 C   0  0  2  0  0  0  0  0  0  0  0  0
   43.0653  -18.8840   10.8567 C   0  0  0  0  0  0  0  0  0  0  0  0
   46.7657  -16.8566   11.5978 C   0  0  2  0  0  0  0  0  0  0  0  0
   48.1218  -16.5702   11.3043 O   0  0  0  0  0  0  0  0  0  0  0  0
   46.6414  -18.2468   12.2010 C   0  0  1  0  0  0  0  0  0  0  0  0
   47.2446  -18.2393   13.5442 N   0  0  0  0  0  0  0  0  0  0  0  0
   45.1769  -18.7169   12.2406 C   0  0  1  0  0  0  0  0  0  0  0  0
   44.4376  -17.9404   13.1901 O   0  0  0  0  0  0  0  0  0  0  0  0
   45.5787  -15.8470    7.7540 O   0  0  0  0  0  0  0  0  0  0  0  0
   45.0144  -14.8141    6.6741 P   0  0  1  0  0  0  0  0  0  0  0  0
   45.2849  -15.5316    5.3899 O   0  0  0  0  0  0  0  0  0  0  0  0
   43.6525  -14.3560    7.0952 O   0  0  0  0  0  0  0  0  0  0  0  0
   46.0493  -13.6195    6.7942 O   0  0  0  0  0  0  0  0  0  0  0  0
   47.3620  -13.9465    7.2035 C   0  0  0  0  0  0  0  0  0  0  0  0
   48.3156  -13.1682    6.3342 C   0  0  1  0  0  0  0  0  0  0  0  0
   49.1212  -12.2964    7.1640 O   0  0  0  0  0  0  0  0  0  0  0  0
   49.3216  -13.9975    5.5464 C   0  0  1  0  0  0  0  0  0  0  0  0
   48.7139  -14.5709    4.3831 O   0  0  0  0  0  0  0  0  0  0  0  0
   50.3697  -12.9245    5.2559 C   0  0  0  0  0  0  0  0  0  0  0  0
   50.3797  -12.0885    6.5443 C   0  0  2  0  0  0  0  0  0  0  0  0
   51.4245  -12.4794    7.5029 N   0  0  0  0  0  0  0  0  0  0  0  0
   52.1147  -11.4696    8.1419 C   0  0  0  0  0  0  0  0  0  0  0  0
   51.8975  -10.2880    7.9410 O   0  0  0  0  0  0  0  0  0  0  0  0
   53.1127  -11.8897    8.9731 N   0  0  0  0  0  0  0  0  0  0  0  0
   51.7374  -13.8014    7.7270 C   0  0  0  0  0  0  0  0  0  0  0  0
   52.7052  -14.2070    8.5617 C   0  0  0  0  0  0  0  0  0  0  0  0
   53.0369  -15.6518    8.7873 C   0  0  0  0  0  0  0  0  0  0  0  0
   53.4787  -13.1912    9.2512 C   0  0  0  0  0  0  0  0  0  0  0  0
   54.4183  -13.4021   10.0141 O   0  0  0  0  0  0  0  0  0  0  0  0
   45.8528  -15.6299   10.0498 H   0  0  0  0  0  0  0  0  0  0  0  0
   45.0689  -19.2239   10.1939 H   0  0  0  0  0  0  0  0  0  0  0  0
   42.6954  -18.9695   11.8891 H   0  0  0  0  0  0  0  0  0  0  0  0
   42.5122  -18.0900   10.3336 H   0  0  0  0  0  0  0  0  0  0  0  0
   42.9167  -19.8401   10.3336 H   0  0  0  0  0  0  0  0  0  0  0  0
   46.3675  -16.1603   12.3506 H   0  0  0  0  0  0  0  0  0  0  0  0
   48.6269  -16.4635   12.1491 H   0  0  0  0  0  0  0  0  0  0  0  0
   47.1808  -18.9658   11.5669 H   0  0  0  0  0  0  0  0  0  0  0  0
   46.4994  -18.2485   14.2553 H   0  0  0  0  0  0  0  0  0  0  0  0
   47.8385  -19.0731   13.6585 H   0  0  0  0  0  0  0  0  0  0  0  0
   47.8177  -17.3912   13.6585 H   0  0  0  0  0  0  0  0  0  0  0  0
   45.1613  -19.7780   12.5300 H   0  0  0  0  0  0  0  0  0  0  0  0
   44.6940  -18.2097   14.1076 H   0  0  0  0  0  0  0  0  0  0  0  0
   47.5057  -13.6710    8.2586 H   0  0  0  0  0  0  0  0  0  0  0  0
   47.5408  -15.0272    7.1030 H   0  0  0  0  0  0  0  0  0  0  0  0
   47.6574  -12.6506    5.6209 H   0  0  0  0  0  0  0  0  0  0  0  0
   49.7376  -14.8809    6.0529 H   0  0  0  0  0  0  0  0  0  0  0  0
   48.0224  -15.2233    4.6595 H   0  0  0  0  0  0  0  0  0  0  0  0
   51.3557  -13.3756    5.0703 H   0  0  0  0  0  0  0  0  0  0  0  0
   50.1434  -12.3313    4.3576 H   0  0  0  0  0  0  0  0  0  0  0  0
   50.5806  -11.0421    6.2710 H   0  0  0  0  0  0  0  0  0  0  0  0
   53.6538  -11.1520    9.4462 H   0  0  0  0  0  0  0  0  0  0  0  0
   51.1602  -14.5689    7.1905 H   0  0  0  0  0  0  0  0  0  0  0  0
   53.0832  -15.8531    9.8677 H   0  0  0  0  0  0  0  0  0  0  0  0
   52.2602  -16.2821    8.3298 H   0  0  0  0  0  0  0  0  0  0  0  0
   54.0109  -15.8801    8.3298 H   0  0  0  0  0  0  0  0  0  0  0  0
  2  1  1  6
  2  3  2  0
  2  4  1  0
  2 15  1  0
  5  4  1  0
  5  6  1  0
  5  9  1  0
  6  7  1  0
  7  8  1  0
  7 13  1  0
  9 10  1  0
  9 11  1  0
 11 12  1  0
 11 13  1  0
 13 14  1  0
 15 16  1  0
 16 17  1  6
 16 18  2  0
 16 19  1  0
 19 20  1  0
 21 20  1  0
 21 22  1  0
 21 23  1  0
 22 26  1  0
 23 24  1  0
 23 25  1  0
 25 26  1  0
 26 27  1  0
 27 28  1  0
 27 31  1  0
 28 29  2  0
 28 30  1  0
 30 34  1  0
 31 32  2  0
 32 33  1  0
 32 34  1  0
 34 35  2  0
  5 36  1  6
  7 37  1  6
  8 38  1  0
  8 39  1  0
  8 40  1  0
  9 41  1  1
 10 42  1  0
 11 43  1  6
 12 44  1  0
 12 45  1  0
 12 46  1  0
 13 47  1  1
 14 48  1  0
 20 49  1  0
 20 50  1  0
 21 51  1  6
 23 52  1  1
 24 53  1  0
 25 54  1  0
 25 55  1  0
 26 56  1  6
 30 57  1  0
 31 58  1  0
 33 59  1  0
 33 60  1  0
 33 61  1  0
M  CHG  3   1  -1  12   1  17  -1
M  END
>  <filename_input>  (21) 
7N7B_T3F_docked.sdf

>  <pdb_id>  (21) 
7N7B_T3F

>  <pose_rank>  (21) 
20

>  <num_atoms_heavy>  (21) 
35

>  <num_torsions>  (21) 
8

>  <pose>  (21) 
[45.014416677919144, -14.814073182761406, 6.674123015898111, -0.7682286437037114, 1.3667998400574808, 2.393540017261697, 3.0805719802798626, -5.683717694133657, 2.053112450156723, -0.16112930707149786, -0.31718425070511347, -1.1584883832685358, 3.0355534580356136, 0.8373582108507327]

>  <energy>  (21) 
-644.0441165681789

>  <inter_energy>  (21) 
-664.2861885163754

>  <intra_energy>  (21) 
24.428255920322535

>  <rmsd>  (21) 
8.28426

>  <sdf_rank>  (21) 
0

$$$$

     RDKit          3D

 61 63  0  0  0  0  0  0  0  0999 V2000
   46.6498  -17.4772    7.8429 O   0  0  0  0  0  0  0  0  0  0  0  0
   46.5472  -16.3312    8.7944 P   0  0  2  0  0  0  0  0  0  0  0  0
   47.6774  -15.3564    8.9929 O   0  0  0  0  0  0  0  0  0  0  0  0
   46.0745  -16.9490   10.1959 O   0  0  0  0  0  0  0  0  0  0  0  0
   46.5750  -18.1618   10.7033 C   0  0  1  0  0  0  0  0  0  0  0  0
   47.6791  -17.9993   11.5754 O   0  0  0  0  0  0  0  0  0  0  0  0
   47.3811  -17.2242   12.7622 C   0  0  2  0  0  0  0  0  0  0  0  0
   48.6978  -17.0306   13.4777 C   0  0  0  0  0  0  0  0  0  0  0  0
   45.4215  -18.8502   11.4023 C   0  0  2  0  0  0  0  0  0  0  0  0
   44.2927  -18.8003   10.5476 O   0  0  0  0  0  0  0  0  0  0  0  0
   45.0876  -18.2297   12.7497 C   0  0  1  0  0  0  0  0  0  0  0  0
   44.1372  -19.1054   13.4554 N   0  0  0  0  0  0  0  0  0  0  0  0
   46.3545  -17.9787   13.5860 C   0  0  1  0  0  0  0  0  0  0  0  0
   46.9280  -19.2258   13.9945 O   0  0  0  0  0  0  0  0  0  0  0  0
   45.2284  -15.5388    8.4089 O   0  0  0  0  0  0  0  0  0  0  0  0
   44.5592  -14.9260    7.0942 P   0  0  1  0  0  0  0  0  0  0  0  0
   44.6594  -16.0695    6.1353 O   0  0  0  0  0  0  0  0  0  0  0  0
   43.2670  -14.2647    7.4615 O   0  0  0  0  0  0  0  0  0  0  0  0
   45.6245  -13.8335    6.6654 O   0  0  0  0  0  0  0  0  0  0  0  0
   45.3381  -13.0784    5.5056 C   0  0  0  0  0  0  0  0  0  0  0  0
   46.2237  -11.8594    5.5273 C   0  0  1  0  0  0  0  0  0  0  0  0
   47.2174  -12.0047    6.5708 O   0  0  0  0  0  0  0  0  0  0  0  0
   47.0246  -11.5995    4.2580 C   0  0  1  0  0  0  0  0  0  0  0  0
   46.2051  -10.9981    3.2489 O   0  0  0  0  0  0  0  0  0  0  0  0
   48.1141  -10.6887    4.8220 C   0  0  0  0  0  0  0  0  0  0  0  0
   48.3869  -11.2889    6.2092 C   0  0  2  0  0  0  0  0  0  0  0  0
   49.5187  -12.2274    6.2429 N   0  0  0  0  0  0  0  0  0  0  0  0
   49.4626  -13.3255    5.4089 C   0  0  0  0  0  0  0  0  0  0  0  0
   48.5247  -13.5441    4.6629 O   0  0  0  0  0  0  0  0  0  0  0  0
   50.5097  -14.1932    5.5266 N   0  0  0  0  0  0  0  0  0  0  0  0
   50.5782  -12.0468    7.1036 C   0  0  0  0  0  0  0  0  0  0  0  0
   51.6141  -12.8928    7.1982 C   0  0  0  0  0  0  0  0  0  0  0  0
   52.7558  -12.6834    8.1476 C   0  0  0  0  0  0  0  0  0  0  0  0
   51.6049  -14.0761    6.3585 C   0  0  0  0  0  0  0  0  0  0  0  0
   52.4583  -14.9600    6.3578 O   0  0  0  0  0  0  0  0  0  0  0  0
   46.9666  -18.7672    9.8725 H   0  0  0  0  0  0  0  0  0  0  0  0
   46.9443  -16.2379   12.5472 H   0  0  0  0  0  0  0  0  0  0  0  0
   48.5314  -17.0551   14.5648 H   0  0  0  0  0  0  0  0  0  0  0  0
   49.3909  -17.8365   13.1946 H   0  0  0  0  0  0  0  0  0  0  0  0
   49.1296  -16.0593   13.1946 H   0  0  0  0  0  0  0  0  0  0  0  0
   45.7163  -19.8896   11.6093 H   0  0  0  0  0  0  0  0  0  0  0  0
   43.4672  -18.7638   11.0929 H   0  0  0  0  0  0  0  0  0  0  0  0
   44.6219  -17.2461   12.5896 H   0  0  0  0  0  0  0  0  0  0  0  0
   44.2579  -18.9942   14.4723 H   0  0  0  0  0  0  0  0  0  0  0  0
   43.1746  -18.8487   13.1939 H   0  0  0  0  0  0  0  0  0  0  0  0
   44.3142  -20.0857   13.1939 H   0  0  0  0  0  0  0  0  0  0  0  0
   46.0746  -17.3868   14.4698 H   0  0  0  0  0  0  0  0  0  0  0  0
   46.9489  -19.2712   14.9833 H   0  0  0  0  0  0  0  0  0  0  0  0
   45.5460  -13.6775    4.6068 H   0  0  0  0  0  0  0  0  0  0  0  0
   44.2778  -12.7862    5.4862 H   0  0  0  0  0  0  0  0  0  0  0  0
   45.5197  -11.0264    5.6707 H   0  0  0  0  0  0  0  0  0  0  0  0
   47.4265  -12.4818    3.7383 H   0  0  0  0  0  0  0  0  0  0  0  0
   45.4862  -10.4705    3.6789 H   0  0  0  0  0  0  0  0  0  0  0  0
   49.0171  -10.7180    4.1946 H   0  0  0  0  0  0  0  0  0  0  0  0
   47.8159   -9.6305    4.8600 H   0  0  0  0  0  0  0  0  0  0  0  0
   48.6416  -10.4660    6.8933 H   0  0  0  0  0  0  0  0  0  0  0  0
   50.4791  -15.0300    4.9268 H   0  0  0  0  0  0  0  0  0  0  0  0
   50.5744  -11.1573    7.7508 H   0  0  0  0  0  0  0  0  0  0  0  0
   52.3891  -12.7506    9.1825 H   0  0  0  0  0  0  0  0  0  0  0  0
   53.5199  -13.4564    7.9783 H   0  0  0  0  0  0  0  0  0  0  0  0
   53.1958  -11.6896    7.9783 H   0  0  0  0  0  0  0  0  0  0  0  0
  2  1  1  6
  2  3  2  0
  2  4  1  0
  2 15  1  0
  5  4  1  0
  5  6  1  0
  5  9  1  0
  6  7  1  0
  7  8  1  0
  7 13  1  0
  9 10  1  0
  9 11  1  0
 11 12  1  0
 11 13  1  0
 13 14  1  0
 15 16  1  0
 16 17  1  6
 16 18  2  0
 16 19  1  0
 19 20  1  0
 21 20  1  0
 21 22  1  0
 21 23  1  0
 22 26  1  0
 23 24  1  0
 23 25  1  0
 25 26  1  0
 26 27  1  0
 27 28  1  0
 27 31  1  0
 28 29  2  0
 28 30  1  0
 30 34  1  0
 31 32  2  0
 32 33  1  0
 32 34  1  0
 34 35  2  0
  5 36  1  6
  7 37  1  6
  8 38  1  0
  8 39  1  0
  8 40  1  0
  9 41  1  1
 10 42  1  0
 11 43  1  6
 12 44  1  0
 12 45  1  0
 12 46  1  0
 13 47  1  1
 14 48  1  0
 20 49  1  0
 20 50  1  0
 21 51  1  1
 23 52  1  6
 24 53  1  0
 25 54  1  0
 25 55  1  0
 26 56  1  1
 30 57  1  0
 31 58  1  0
 33 59  1  0
 33 60  1  0
 33 61  1  0
M  CHG  3   1  -1  12   1  17  -1
M  END
>  <filename_input>  (22) 
7N7B_T3F_docked.sdf

>  <pdb_id>  (22) 
7N7B_T3F

>  <pose_rank>  (22) 
21

>  <num_atoms_heavy>  (22) 
35

>  <num_torsions>  (22) 
8

>  <pose>  (22) 
[44.55921720120355, -14.926009702534058, 7.09420098772738, -0.6859734511902305, 1.883366307666773, 2.2110016963441863, 3.9543108260812976, 1.0902445091616484, 4.191484794759599, 0.34338798639658485, 2.3298278110752455, -0.7080821260590183, -5.149703270848768, -2.5815677403069257]

>  <energy>  (22) 
-707.0500294730317

>  <inter_energy>  (22) 
-799.5739543001857

>  <intra_energy>  (22) 
95.4317038654989

>  <rmsd>  (22) 
8.52053

>  <sdf_rank>  (22) 
0

$$$$

     RDKit          3D

 61 63  0  0  0  0  0  0  0  0999 V2000
   43.7433  -14.4952    7.9075 O   0  0  0  0  0  0  0  0  0  0  0  0
   45.2331  -14.4414    7.8245 P   0  0  2  0  0  0  0  0  0  0  0  0
   46.0804  -13.9952    8.9863 O   0  0  0  0  0  0  0  0  0  0  0  0
   45.5815  -13.5969    6.5073 O   0  0  0  0  0  0  0  0  0  0  0  0
   45.6301  -12.1911    6.4923 C   0  0  1  0  0  0  0  0  0  0  0  0
   46.9388  -11.6704    6.3432 O   0  0  0  0  0  0  0  0  0  0  0  0
   47.5856  -12.0524    5.1047 C   0  0  2  0  0  0  0  0  0  0  0  0
   49.0042  -11.5407    5.1976 C   0  0  0  0  0  0  0  0  0  0  0  0
   44.7280  -11.7363    5.3643 C   0  0  2  0  0  0  0  0  0  0  0  0
   43.5058  -12.4463    5.4615 O   0  0  0  0  0  0  0  0  0  0  0  0
   45.3459  -11.9403    3.9901 C   0  0  1  0  0  0  0  0  0  0  0  0
   44.5169  -11.2504    2.9875 N   0  0  0  0  0  0  0  0  0  0  0  0
   46.8054  -11.4550    3.9489 C   0  0  1  0  0  0  0  0  0  0  0  0
   46.8514  -10.0279    4.0596 O   0  0  0  0  0  0  0  0  0  0  0  0
   45.7121  -15.8741    7.3412 O   0  0  0  0  0  0  0  0  0  0  0  0
   47.0894  -16.6661    7.1752 P   0  0  1  0  0  0  0  0  0  0  0  0
   46.6830  -18.0657    7.5116 O   0  0  0  0  0  0  0  0  0  0  0  0
   47.7270  -16.2789    5.8770 O   0  0  0  0  0  0  0  0  0  0  0  0
   47.9393  -16.0991    8.3870 O   0  0  0  0  0  0  0  0  0  0  0  0
   48.0347  -16.9115    9.5395 C   0  0  0  0  0  0  0  0  0  0  0  0
   48.3418  -16.0092   10.7068 C   0  0  1  0  0  0  0  0  0  0  0  0
   47.6263  -16.4751   11.8766 O   0  0  0  0  0  0  0  0  0  0  0  0
   49.8021  -15.9560   11.1370 C   0  0  1  0  0  0  0  0  0  0  0  0
   50.5616  -15.1072   10.2686 O   0  0  0  0  0  0  0  0  0  0  0  0
   49.6329  -15.4258   12.5600 C   0  0  0  0  0  0  0  0  0  0  0  0
   48.3532  -16.1246   13.0428 C   0  0  2  0  0  0  0  0  0  0  0  0
   48.5967  -17.3558   13.8095 N   0  0  0  0  0  0  0  0  0  0  0  0
   47.4976  -18.0963   14.1942 C   0  0  0  0  0  0  0  0  0  0  0  0
   46.3537  -17.7708   13.9308 O   0  0  0  0  0  0  0  0  0  0  0  0
   47.7794  -19.1942   14.9547 N   0  0  0  0  0  0  0  0  0  0  0  0
   49.8689  -17.7386   14.1711 C   0  0  0  0  0  0  0  0  0  0  0  0
   50.1395  -18.8308   14.9004 C   0  0  0  0  0  0  0  0  0  0  0  0
   51.5317  -19.2278   15.2913 C   0  0  0  0  0  0  0  0  0  0  0  0
   49.0238  -19.6422   15.3499 C   0  0  0  0  0  0  0  0  0  0  0  0
   49.1063  -20.6457   16.0540 O   0  0  0  0  0  0  0  0  0  0  0  0
   45.2898  -11.8071    7.4653 H   0  0  0  0  0  0  0  0  0  0  0  0
   47.6094  -13.1392    4.9360 H   0  0  0  0  0  0  0  0  0  0  0  0
   49.2885  -11.4381    6.2553 H   0  0  0  0  0  0  0  0  0  0  0  0
   49.6832  -12.2505    4.7026 H   0  0  0  0  0  0  0  0  0  0  0  0
   49.0737  -10.5608    4.7026 H   0  0  0  0  0  0  0  0  0  0  0  0
   44.5665  -10.6532    5.4690 H   0  0  0  0  0  0  0  0  0  0  0  0
   43.2764  -12.5796    6.4153 H   0  0  0  0  0  0  0  0  0  0  0  0
   45.3702  -13.0158    3.7604 H   0  0  0  0  0  0  0  0  0  0  0  0
   43.8154  -10.6666    3.4650 H   0  0  0  0  0  0  0  0  0  0  0  0
   45.1157  -10.6546    2.3981 H   0  0  0  0  0  0  0  0  0  0  0  0
   44.0398  -11.9475    2.3981 H   0  0  0  0  0  0  0  0  0  0  0  0
   47.2490  -11.7719    2.9935 H   0  0  0  0  0  0  0  0  0  0  0  0
   46.8597   -9.7712    5.0157 H   0  0  0  0  0  0  0  0  0  0  0  0
   47.0823  -17.4347    9.7099 H   0  0  0  0  0  0  0  0  0  0  0  0
   48.8246  -17.6670    9.4161 H   0  0  0  0  0  0  0  0  0  0  0  0
   48.0477  -15.0108   10.3509 H   0  0  0  0  0  0  0  0  0  0  0  0
   50.3647  -16.9002   11.0925 H   0  0  0  0  0  0  0  0  0  0  0  0
   51.1139  -14.4899   10.8108 H   0  0  0  0  0  0  0  0  0  0  0  0
   50.4933  -15.6998   13.1882 H   0  0  0  0  0  0  0  0  0  0  0  0
   49.5706  -14.3287   12.6078 H   0  0  0  0  0  0  0  0  0  0  0  0
   47.8213  -15.4361   13.7159 H   0  0  0  0  0  0  0  0  0  0  0  0
   46.9723  -19.7514   15.2692 H   0  0  0  0  0  0  0  0  0  0  0  0
   50.7117  -17.1126   13.8428 H   0  0  0  0  0  0  0  0  0  0  0  0
   51.6121  -19.2507   16.3881 H   0  0  0  0  0  0  0  0  0  0  0  0
   51.7558  -20.2256   14.8862 H   0  0  0  0  0  0  0  0  0  0  0  0
   52.2484  -18.4982   14.8862 H   0  0  0  0  0  0  0  0  0  0  0  0
  2  1  1  1
  2  3  2  0
  2  4  1  0
  2 15  1  0
  5  4  1  0
  5  6  1  0
  5  9  1  0
  6  7  1  0
  7  8  1  0
  7 13  1  0
  9 10  1  0
  9 11  1  0
 11 12  1  0
 11 13  1  0
 13 14  1  0
 15 16  1  0
 16 17  1  1
 16 18  2  0
 16 19  1  0
 19 20  1  0
 21 20  1  0
 21 22  1  0
 21 23  1  0
 22 26  1  0
 23 24  1  0
 23 25  1  0
 25 26  1  0
 26 27  1  0
 27 28  1  0
 27 31  1  0
 28 29  2  0
 28 30  1  0
 30 34  1  0
 31 32  2  0
 32 33  1  0
 32 34  1  0
 34 35  2  0
  5 36  1  1
  7 37  1  6
  8 38  1  0
  8 39  1  0
  8 40  1  0
  9 41  1  1
 10 42  1  0
 11 43  1  6
 12 44  1  0
 12 45  1  0
 12 46  1  0
 13 47  1  6
 14 48  1  0
 20 49  1  0
 20 50  1  0
 21 51  1  6
 23 52  1  1
 24 53  1  0
 25 54  1  0
 25 55  1  0
 26 56  1  1
 30 57  1  0
 31 58  1  0
 33 59  1  0
 33 60  1  0
 33 61  1  0
M  CHG  3   1  -1  12   1  17  -1
M  END
>  <filename_input>  (23) 
7N7B_T3F_docked.sdf

>  <pdb_id>  (23) 
7N7B_T3F

>  <pose_rank>  (23) 
22

>  <num_atoms_heavy>  (23) 
35

>  <num_torsions>  (23) 
8

>  <pose>  (23) 
[47.08937953199, -16.666102303073828, 7.1752063328423175, -1.1682694663818163, 1.3341537539770156, -0.07816094656121912, -0.6403802965187766, -1.018956819380046, -1.336028418143683, 0.6319821662295464, 0.9478456602732687, 0.0018712717671287668, -2.8527157960430696, 1.6524908239152676]

>  <energy>  (23) 
-692.2069545653371

>  <inter_energy>  (23) 
-709.1638693337866

>  <intra_energy>  (23) 
27.44574215458335

>  <rmsd>  (23) 
3.25796

>  <sdf_rank>  (23) 
0

$$$$

     RDKit          3D

 61 63  0  0  0  0  0  0  0  0999 V2000
   44.5999  -15.3752    6.6802 O   0  0  0  0  0  0  0  0  0  0  0  0
   45.5105  -14.7237    7.6680 P   0  0  2  0  0  0  0  0  0  0  0  0
   45.0488  -14.3490    9.0512 O   0  0  0  0  0  0  0  0  0  0  0  0
   46.1571  -13.4612    6.9214 O   0  0  0  0  0  0  0  0  0  0  0  0
   46.4092  -13.4392    5.5376 C   0  0  1  0  0  0  0  0  0  0  0  0
   45.5849  -12.5342    4.8252 O   0  0  0  0  0  0  0  0  0  0  0  0
   45.7445  -11.1521    5.2282 C   0  0  2  0  0  0  0  0  0  0  0  0
   44.6886  -10.3727    4.4795 C   0  0  0  0  0  0  0  0  0  0  0  0
   47.8742  -13.0958    5.3674 C   0  0  2  0  0  0  0  0  0  0  0  0
   48.6244  -13.9044    6.2566 O   0  0  0  0  0  0  0  0  0  0  0  0
   48.1728  -11.6258    5.6158 C   0  0  1  0  0  0  0  0  0  0  0  0
   49.5531  -11.3410    5.1893 N   0  0  0  0  0  0  0  0  0  0  0  0
   47.1598  -10.7146    4.9010 C   0  0  1  0  0  0  0  0  0  0  0  0
   47.3432  -10.7944    3.4829 O   0  0  0  0  0  0  0  0  0  0  0  0
   46.7984  -15.6435    7.7725 O   0  0  0  0  0  0  0  0  0  0  0  0
   47.2271  -16.9986    8.5016 P   0  0  1  0  0  0  0  0  0  0  0  0
   45.9152  -17.7038    8.6385 O   0  0  0  0  0  0  0  0  0  0  0  0
   48.4116  -17.5838    7.7969 O   0  0  0  0  0  0  0  0  0  0  0  0
   47.6534  -16.4759    9.9359 O   0  0  0  0  0  0  0  0  0  0  0  0
   48.7441  -17.1253   10.5575 C   0  0  0  0  0  0  0  0  0  0  0  0
   49.2424  -16.2236   11.6573 C   0  0  1  0  0  0  0  0  0  0  0  0
   48.7660  -16.7133   12.9343 O   0  0  0  0  0  0  0  0  0  0  0  0
   50.7556  -16.1395   11.8106 C   0  0  1  0  0  0  0  0  0  0  0  0
   51.3228  -15.2678   10.8257 O   0  0  0  0  0  0  0  0  0  0  0  0
   50.8413  -15.6225   13.2458 C   0  0  0  0  0  0  0  0  0  0  0  0
   49.6884  -16.3536   13.9495 C   0  0  2  0  0  0  0  0  0  0  0  0
   50.0960  -17.5837   14.6450 N   0  0  0  0  0  0  0  0  0  0  0  0
   49.0995  -18.4477   15.0511 C   0  0  0  0  0  0  0  0  0  0  0  0
   47.9159  -18.2303   14.8621 O   0  0  0  0  0  0  0  0  0  0  0  0
   49.5316  -19.5412   15.7445 N   0  0  0  0  0  0  0  0  0  0  0  0
   51.4183  -17.8490   14.9226 C   0  0  0  0  0  0  0  0  0  0  0  0
   51.8369  -18.9366   15.5858 C   0  0  0  0  0  0  0  0  0  0  0  0
   53.2813  -19.2049   15.8859 C   0  0  0  0  0  0  0  0  0  0  0  0
   50.8345  -19.8755   16.0541 C   0  0  0  0  0  0  0  0  0  0  0  0
   51.0560  -20.8931   16.7058 O   0  0  0  0  0  0  0  0  0  0  0  0
   46.1701  -14.4244    5.1108 H   0  0  0  0  0  0  0  0  0  0  0  0
   45.6094  -10.9885    6.3076 H   0  0  0  0  0  0  0  0  0  0  0  0
   44.0189   -9.8783    5.1985 H   0  0  0  0  0  0  0  0  0  0  0  0
   45.1725   -9.6135    3.8474 H   0  0  0  0  0  0  0  0  0  0  0  0
   44.1057  -11.0587    3.8474 H   0  0  0  0  0  0  0  0  0  0  0  0
   48.1538  -13.2919    4.3217 H   0  0  0  0  0  0  0  0  0  0  0  0
   48.4007  -13.6633    7.1904 H   0  0  0  0  0  0  0  0  0  0  0  0
   48.0760  -11.4136    6.6908 H   0  0  0  0  0  0  0  0  0  0  0  0
   50.1504  -11.2177    6.0193 H   0  0  0  0  0  0  0  0  0  0  0  0
   49.9071  -12.1266    4.6251 H   0  0  0  0  0  0  0  0  0  0  0  0
   49.5672  -10.4794    4.6251 H   0  0  0  0  0  0  0  0  0  0  0  0
   47.3215   -9.6816    5.2429 H   0  0  0  0  0  0  0  0  0  0  0  0
   48.2329  -11.1816    3.2865 H   0  0  0  0  0  0  0  0  0  0  0  0
   48.4173  -18.0871   10.9797 H   0  0  0  0  0  0  0  0  0  0  0  0
   49.5431  -17.3239    9.8280 H   0  0  0  0  0  0  0  0  0  0  0  0
   48.8661  -15.2300   11.3725 H   0  0  0  0  0  0  0  0  0  0  0  0
   51.3204  -17.0701   11.6529 H   0  0  0  0  0  0  0  0  0  0  0  0
   51.8035  -14.5291   11.2765 H   0  0  0  0  0  0  0  0  0  0  0  0
   51.8088  -15.8804   13.7012 H   0  0  0  0  0  0  0  0  0  0  0  0
   50.7654  -14.5273   13.3160 H   0  0  0  0  0  0  0  0  0  0  0  0
   49.2756  -15.6819   14.7166 H   0  0  0  0  0  0  0  0  0  0  0  0
   48.8029  -20.1903   16.0740 H   0  0  0  0  0  0  0  0  0  0  0  0
   52.1747  -17.1272   14.5808 H   0  0  0  0  0  0  0  0  0  0  0  0
   53.4305  -19.2326   16.9754 H   0  0  0  0  0  0  0  0  0  0  0  0
   53.5725  -20.1725   15.4512 H   0  0  0  0  0  0  0  0  0  0  0  0
   53.9006  -18.4064   15.4512 H   0  0  0  0  0  0  0  0  0  0  0  0
  2  1  1  6
  2  3  2  0
  2  4  1  0
  2 15  1  0
  5  4  1  0
  5  6  1  0
  5  9  1  0
  6  7  1  0
  7  8  1  0
  7 13  1  0
  9 10  1  0
  9 11  1  0
 11 12  1  0
 11 13  1  0
 13 14  1  0
 15 16  1  0
 16 17  1  1
 16 18  2  0
 16 19  1  0
 19 20  1  0
 21 20  1  0
 21 22  1  0
 21 23  1  0
 22 26  1  0
 23 24  1  0
 23 25  1  0
 25 26  1  0
 26 27  1  0
 27 28  1  0
 27 31  1  0
 28 29  2  0
 28 30  1  0
 30 34  1  0
 31 32  2  0
 32 33  1  0
 32 34  1  0
 34 35  2  0
  5 36  1  6
  7 37  1  1
  8 38  1  0
  8 39  1  0
  8 40  1  0
  9 41  1  6
 10 42  1  0
 11 43  1  1
 12 44  1  0
 12 45  1  0
 12 46  1  0
 13 47  1  1
 14 48  1  0
 20 49  1  0
 20 50  1  0
 21 51  1  6
 23 52  1  1
 24 53  1  0
 25 54  1  0
 25 55  1  0
 26 56  1  1
 30 57  1  0
 31 58  1  0
 33 59  1  0
 33 60  1  0
 33 61  1  0
M  CHG  3   1  -1  12   1  17  -1
M  END
>  <filename_input>  (24) 
7N7B_T3F_docked.sdf

>  <pdb_id>  (24) 
7N7B_T3F

>  <pose_rank>  (24) 
23

>  <num_atoms_heavy>  (24) 
35

>  <num_torsions>  (24) 
8

>  <pose>  (24) 
[47.22712103723757, -16.99860790445816, 8.501550462764637, 2.059871352757886, -3.0026007991296897, 2.70782592692734, -2.7041345521343176, -5.706798890892983, -15.920684596934409, 6.945418664628042, 2.958619163753594, -0.715913335559505, -3.55102615921153, 1.810402418756261]

>  <energy>  (24) 
-615.6225855495211

>  <inter_energy>  (24) 
-641.3884037259088

>  <intra_energy>  (24) 
29.375247936624476

>  <rmsd>  (24) 
4.3099

>  <sdf_rank>  (24) 
0

$$$$

     RDKit          3D

 61 63  0  0  0  0  0  0  0  0999 V2000
   43.8367  -14.5467    6.3204 O   0  0  0  0  0  0  0  0  0  0  0  0
   44.9600  -14.4206    7.2960 P   0  0  2  0  0  0  0  0  0  0  0  0
   44.8607  -13.5451    8.5169 O   0  0  0  0  0  0  0  0  0  0  0  0
   46.2642  -14.0566    6.4381 O   0  0  0  0  0  0  0  0  0  0  0  0
   46.2111  -13.7214    5.0730 C   0  0  1  0  0  0  0  0  0  0  0  0
   45.6077  -12.4652    4.8204 O   0  0  0  0  0  0  0  0  0  0  0  0
   46.3031  -11.3473    5.4246 C   0  0  2  0  0  0  0  0  0  0  0  0
   45.4373  -10.1334    5.1797 C   0  0  0  0  0  0  0  0  0  0  0  0
   47.6354  -13.7578    4.5601 C   0  0  2  0  0  0  0  0  0  0  0  0
   48.2405  -14.9541    5.0187 O   0  0  0  0  0  0  0  0  0  0  0  0
   48.4553  -12.5540    4.9967 C   0  0  1  0  0  0  0  0  0  0  0  0
   49.7281  -12.5502    4.2564 N   0  0  0  0  0  0  0  0  0  0  0  0
   47.6803  -11.2399    4.7973 C   0  0  1  0  0  0  0  0  0  0  0  0
   47.5227  -10.9703    3.3996 O   0  0  0  0  0  0  0  0  0  0  0  0
   45.3477  -15.8949    7.7338 O   0  0  0  0  0  0  0  0  0  0  0  0
   46.1574  -16.6028    8.9149 P   0  0  1  0  0  0  0  0  0  0  0  0
   46.2563  -15.5030    9.9238 O   0  0  0  0  0  0  0  0  0  0  0  0
   45.5425  -17.9373    9.2030 O   0  0  0  0  0  0  0  0  0  0  0  0
   47.5877  -16.7952    8.2595 O   0  0  0  0  0  0  0  0  0  0  0  0
   48.6527  -16.0486    8.8127 C   0  0  0  0  0  0  0  0  0  0  0  0
   49.7934  -17.0012    9.0620 C   0  0  1  0  0  0  0  0  0  0  0  0
   50.9774  -16.5242    8.3777 O   0  0  0  0  0  0  0  0  0  0  0  0
   50.2191  -17.1592   10.5160 C   0  0  1  0  0  0  0  0  0  0  0  0
   49.3257  -18.0296   11.2200 O   0  0  0  0  0  0  0  0  0  0  0  0
   51.6269  -17.7176   10.3137 C   0  0  0  0  0  0  0  0  0  0  0  0
   52.1317  -16.9530    9.0810 C   0  0  2  0  0  0  0  0  0  0  0  0
   52.9324  -15.7619    9.4023 N   0  0  0  0  0  0  0  0  0  0  0  0
   54.2590  -15.9538    9.7304 C   0  0  0  0  0  0  0  0  0  0  0  0
   54.7803  -17.0542    9.7674 O   0  0  0  0  0  0  0  0  0  0  0  0
   54.9367  -14.8212   10.0785 N   0  0  0  0  0  0  0  0  0  0  0  0
   52.3748  -14.5031    9.4196 C   0  0  0  0  0  0  0  0  0  0  0  0
   53.0528  -13.3921    9.7419 C   0  0  0  0  0  0  0  0  0  0  0  0
   52.4263  -12.0299    9.7628 C   0  0  0  0  0  0  0  0  0  0  0  0
   54.4487  -13.5305   10.1130 C   0  0  0  0  0  0  0  0  0  0  0  0
   55.1889  -12.6167   10.4687 O   0  0  0  0  0  0  0  0  0  0  0  0
   45.5710  -14.4453    4.5475 H   0  0  0  0  0  0  0  0  0  0  0  0
   46.4616  -11.4590    6.5073 H   0  0  0  0  0  0  0  0  0  0  0  0
   45.1295   -9.7021    6.1436 H   0  0  0  0  0  0  0  0  0  0  0  0
   46.0071   -9.3857    4.6086 H   0  0  0  0  0  0  0  0  0  0  0  0
   44.5447  -10.4289    4.6086 H   0  0  0  0  0  0  0  0  0  0  0  0
   47.6058  -13.7248    3.4610 H   0  0  0  0  0  0  0  0  0  0  0  0
   48.2450  -14.9631    6.0087 H   0  0  0  0  0  0  0  0  0  0  0  0
   48.6644  -12.6302    6.0740 H   0  0  0  0  0  0  0  0  0  0  0  0
   50.5131  -12.5478    4.9231 H   0  0  0  0  0  0  0  0  0  0  0  0
   49.7833  -13.3910    3.6640 H   0  0  0  0  0  0  0  0  0  0  0  0
   49.7782  -11.7090    3.6640 H   0  0  0  0  0  0  0  0  0  0  0  0
   48.2474  -10.4273    5.2748 H   0  0  0  0  0  0  0  0  0  0  0  0
   47.0268  -10.1217    3.2811 H   0  0  0  0  0  0  0  0  0  0  0  0
   48.9662  -15.2636    8.1088 H   0  0  0  0  0  0  0  0  0  0  0  0
   48.3404  -15.5651    9.7500 H   0  0  0  0  0  0  0  0  0  0  0  0
   49.4101  -17.9685    8.7050 H   0  0  0  0  0  0  0  0  0  0  0  0
   50.2003  -16.2518   11.1375 H   0  0  0  0  0  0  0  0  0  0  0  0
   49.4484  -17.9100   12.1950 H   0  0  0  0  0  0  0  0  0  0  0  0
   52.2610  -17.5167   11.1898 H   0  0  0  0  0  0  0  0  0  0  0  0
   51.6439  -18.8095   10.1818 H   0  0  0  0  0  0  0  0  0  0  0  0
   52.7862  -17.6250    8.5065 H   0  0  0  0  0  0  0  0  0  0  0  0
   55.9239  -14.9436   10.3456 H   0  0  0  0  0  0  0  0  0  0  0  0
   51.3121  -14.4031    9.1538 H   0  0  0  0  0  0  0  0  0  0  0  0
   52.2791  -11.7099   10.8049 H   0  0  0  0  0  0  0  0  0  0  0  0
   53.0860  -11.3149    9.2494 H   0  0  0  0  0  0  0  0  0  0  0  0
   51.4541  -12.0655    9.2494 H   0  0  0  0  0  0  0  0  0  0  0  0
  2  1  1  6
  2  3  2  0
  2  4  1  0
  2 15  1  0
  5  4  1  0
  5  6  1  0
  5  9  1  0
  6  7  1  0
  7  8  1  0
  7 13  1  0
  9 10  1  0
  9 11  1  0
 11 12  1  0
 11 13  1  0
 13 14  1  0
 15 16  1  0
 16 17  1  1
 16 18  2  0
 16 19  1  0
 19 20  1  0
 21 20  1  0
 21 22  1  0
 21 23  1  0
 22 26  1  0
 23 24  1  0
 23 25  1  0
 25 26  1  0
 26 27  1  0
 27 28  1  0
 27 31  1  0
 28 29  2  0
 28 30  1  0
 30 34  1  0
 31 32  2  0
 32 33  1  0
 32 34  1  0
 34 35  2  0
  5 36  1  6
  7 37  1  1
  8 38  1  0
  8 39  1  0
  8 40  1  0
  9 41  1  6
 10 42  1  0
 11 43  1  1
 12 44  1  0
 12 45  1  0
 12 46  1  0
 13 47  1  1
 14 48  1  0
 20 49  1  0
 20 50  1  0
 21 51  1  6
 23 52  1  1
 24 53  1  0
 25 54  1  0
 25 55  1  0
 26 56  1  6
 30 57  1  0
 31 58  1  0
 33 59  1  0
 33 60  1  0
 33 61  1  0
M  CHG  3   1  -1  12   1  17  -1
M  END
>  <filename_input>  (25) 
7N7B_T3F_docked.sdf

>  <pdb_id>  (25) 
7N7B_T3F

>  <pose_rank>  (25) 
24

>  <num_atoms_heavy>  (25) 
35

>  <num_torsions>  (25) 
8

>  <pose>  (25) 
[46.15744034603997, -16.60281678125342, 8.914874209744212, 1.4475441947844085, -1.5562184369038912, 1.5117286007822281, -2.9057580037185025, 5.409242996180361, -2.6422464901066576, -0.07219888926386452, 7.445937344835985, -1.2685842082133374, -3.1668197372536677, -0.16424068846485168]

>  <energy>  (25) 
-557.2562912263104

>  <inter_energy>  (25) 
-581.879351356682

>  <intra_energy>  (25) 
20.15054726407571

>  <rmsd>  (25) 
5.86698

>  <sdf_rank>  (25) 
0

$$$$

     RDKit          3D

 61 63  0  0  0  0  0  0  0  0999 V2000
   44.2480  -14.5920    7.5390 O   0  0  0  0  0  0  0  0  0  0  0  0
   45.6340  -14.0880    7.7720 P   0  0  2  0  0  0  0  0  0  0  0  0
   46.0920  -13.6120    9.1250 O   0  0  0  0  0  0  0  0  0  0  0  0
   45.9020  -12.9710    6.6540 O   0  0  0  0  0  0  0  0  0  0  0  0
   46.9140  -12.0010    6.7710 C   0  0  1  0  0  0  0  0  0  0  0  0
   48.2180  -12.5140    6.5650 O   0  0  0  0  0  0  0  0  0  0  0  0
   48.4270  -13.0750    5.2460 C   0  0  2  0  0  0  0  0  0  0  0  0
   49.8020  -13.7010    5.2700 C   0  0  0  0  0  0  0  0  0  0  0  0
   46.5900  -10.9110    5.7710 C   0  0  2  0  0  0  0  0  0  0  0  0
   45.2170  -10.5860    5.9000 O   0  0  0  0  0  0  0  0  0  0  0  0
   46.9030  -11.3080    4.3370 C   0  0  1  0  0  0  0  0  0  0  0  0
   46.7940  -10.1170    3.4780 N   0  0  0  0  0  0  0  0  0  0  0  0
   48.2900  -11.9640    4.2220 C   0  0  1  0  0  0  0  0  0  0  0  0
   49.3140  -10.9930    4.4660 O   0  0  0  0  0  0  0  0  0  0  0  0
   46.6200  -15.2140    7.2470 O   0  0  0  0  0  0  0  0  0  0  0  0
   47.6800  -16.2380    7.8630 P   0  0  1  0  0  0  0  0  0  0  0  0
   48.2080  -16.9110    6.6360 O   0  0  0  0  0  0  0  0  0  0  0  0
   48.5460  -15.5170    8.8490 O   0  0  0  0  0  0  0  0  0  0  0  0
   46.7390  -17.2660    8.6180 O   0  0  0  0  0  0  0  0  0  0  0  0
   45.6120  -17.7430    7.9110 C   0  0  0  0  0  0  0  0  0  0  0  0
   44.5960  -18.1950    8.9280 C   0  0  1  0  0  0  0  0  0  0  0  0
   45.2070  -19.1530    9.8260 O   0  0  0  0  0  0  0  0  0  0  0  0
   44.0390  -17.1070    9.8370 C   0  0  1  0  0  0  0  0  0  0  0  0
   43.0360  -16.3390    9.1620 O   0  0  0  0  0  0  0  0  0  0  0  0
   43.5170  -17.9710   10.9840 C   0  0  0  0  0  0  0  0  0  0  0  0
   44.5720  -19.0820   11.0920 C   0  0  2  0  0  0  0  0  0  0  0  0
   45.6090  -18.8260   12.1030 N   0  0  0  0  0  0  0  0  0  0  0  0
   45.3770  -19.2810   13.3850 C   0  0  0  0  0  0  0  0  0  0  0  0
   44.3610  -19.8720   13.7050 O   0  0  0  0  0  0  0  0  0  0  0  0
   46.3440  -18.9620   14.2940 N   0  0  0  0  0  0  0  0  0  0  0  0
   46.7520  -18.1210   11.7990 C   0  0  0  0  0  0  0  0  0  0  0  0
   47.7080  -17.8300   12.6930 C   0  0  0  0  0  0  0  0  0  0  0  0
   48.9430  -17.0540   12.3450 C   0  0  0  0  0  0  0  0  0  0  0  0
   47.5140  -18.2670   14.0630 C   0  0  0  0  0  0  0  0  0  0  0  0
   48.2770  -18.0450   15.0000 O   0  0  0  0  0  0  0  0  0  0  0  0
   46.9287  -11.6162    7.8014 H   0  0  0  0  0  0  0  0  0  0  0  0
   47.6902  -13.8444    4.9716 H   0  0  0  0  0  0  0  0  0  0  0  0
   50.1207  -13.8461    6.3128 H   0  0  0  0  0  0  0  0  0  0  0  0
   49.7710  -14.6737    4.7573 H   0  0  0  0  0  0  0  0  0  0  0  0
   50.5153  -13.0389    4.7573 H   0  0  0  0  0  0  0  0  0  0  0  0
   47.2257  -10.0412    5.9929 H   0  0  0  0  0  0  0  0  0  0  0  0
   44.9799  -10.5299    6.8596 H   0  0  0  0  0  0  0  0  0  0  0  0
   46.1749  -12.0619    4.0031 H   0  0  0  0  0  0  0  0  0  0  0  0
   46.7169   -9.2752    4.0665 H   0  0  0  0  0  0  0  0  0  0  0  0
   47.6319  -10.0447    2.8834 H   0  0  0  0  0  0  0  0  0  0  0  0
   45.9569  -10.1980    2.8834 H   0  0  0  0  0  0  0  0  0  0  0  0
   48.3960  -12.3745    3.2070 H   0  0  0  0  0  0  0  0  0  0  0  0
   49.4346  -10.8787    5.4420 H   0  0  0  0  0  0  0  0  0  0  0  0
   45.1900  -16.9386    7.2907 H   0  0  0  0  0  0  0  0  0  0  0  0
   45.8940  -18.5753    7.2494 H   0  0  0  0  0  0  0  0  0  0  0  0
   43.7724  -18.5927    8.3169 H   0  0  0  0  0  0  0  0  0  0  0  0
   44.7448  -16.3310   10.1682 H   0  0  0  0  0  0  0  0  0  0  0  0
   42.4557  -15.8946    9.8297 H   0  0  0  0  0  0  0  0  0  0  0  0
   43.4557  -17.3927   11.9177 H   0  0  0  0  0  0  0  0  0  0  0  0
   42.5014  -18.3551   10.8082 H   0  0  0  0  0  0  0  0  0  0  0  0
   44.0622  -20.0090   11.3935 H   0  0  0  0  0  0  0  0  0  0  0  0
   46.1824  -19.2753   15.2618 H   0  0  0  0  0  0  0  0  0  0  0  0
   46.8887  -17.7767   10.7632 H   0  0  0  0  0  0  0  0  0  0  0  0
   49.4488  -16.7362   13.2687 H   0  0  0  0  0  0  0  0  0  0  0  0
   49.6209  -17.6888   11.7555 H   0  0  0  0  0  0  0  0  0  0  0  0
   48.6653  -16.1678   11.7555 H   0  0  0  0  0  0  0  0  0  0  0  0
  2  1  1  1
  2  3  2  0
  2  4  1  0
  2 15  1  0
  5  4  1  0
  5  6  1  0
  5  9  1  0
  6  7  1  0
  7  8  1  0
  7 13  1  0
  9 10  1  0
  9 11  1  0
 11 12  1  0
 11 13  1  0
 13 14  1  0
 15 16  1  0
 16 17  1  6
 16 18  2  0
 16 19  1  0
 19 20  1  0
 21 20  1  0
 21 22  1  0
 21 23  1  0
 22 26  1  0
 23 24  1  0
 23 25  1  0
 25 26  1  0
 26 27  1  0
 27 28  1  0
 27 31  1  0
 28 29  2  0
 28 30  1  0
 30 34  1  0
 31 32  2  0
 32 33  1  0
 32 34  1  0
 34 35  2  0
  5 36  1  1
  7 37  1  6
  8 38  1  0
  8 39  1  0
  8 40  1  0
  9 41  1  1
 10 42  1  0
 11 43  1  6
 12 44  1  0
 12 45  1  0
 12 46  1  0
 13 47  1  6
 14 48  1  0
 20 49  1  0
 20 50  1  0
 21 51  1  6
 23 52  1  1
 24 53  1  0
 25 54  1  0
 25 55  1  0
 26 56  1  1
 30 57  1  0
 31 58  1  0
 33 59  1  0
 33 60  1  0
 33 61  1  0
M  CHG  3   1  -1  12   1  17  -1
M  END
>  <filename_input>  (26) 
7N7B_T3F_docked.sdf

>  <pdb_id>  (26) 
7N7B_T3F

>  <pose_rank>  (26) 
25

>  <num_atoms_heavy>  (26) 
35

>  <num_torsions>  (26) 
8

>  <pose>  (26) 
[47.68, -16.238, 7.863, 1e-06, 1e-06, 1e-06, 0.0, 0.0, 0.0, 0.0, 0.0, 0.0, 0.0, 0.0]

>  <energy>  (26) 
-977.6654855941683

>  <inter_energy>  (26) 
-1008.5105099896499

>  <intra_energy>  (26) 
33.504927836610726

>  <rmsd>  (26) 
0.0

>  <sdf_rank>  (26) 
0

$$$$
