
     RDKit          3D

 41 42  0  0  0  0  0  0  0  0999 V2000
   12.9153   51.0616  159.9910 N   0  0  0  0  0  0  0  0  0  0  0  0
   11.9567   51.6637  160.7692 C   0  0  0  0  0  0  0  0  0  0  0  0
   12.0858   51.5844  162.1152 N   0  0  0  0  0  0  0  0  0  0  0  0
   13.1560   50.8943  162.6367 C   0  0  0  0  0  0  0  0  0  0  0  0
   14.0605   50.1937  161.8484 C   0  0  0  0  0  0  0  0  0  0  0  0
   13.9344   50.3298  160.4975 C   0  0  0  0  0  0  0  0  0  0  0  0
   10.9985   52.3185  160.2694 O   0  0  0  0  0  0  0  0  0  0  0  0
   13.2347   50.9290  163.9876 N   0  0  0  0  0  0  0  0  0  0  0  0
   12.7630   51.1877  158.5462 C   0  0  1  0  0  0  0  0  0  0  0  0
   13.6853   52.2185  157.8573 C   0  0  2  0  0  0  0  0  0  0  0  0
   13.2489   53.5615  158.0562 O   0  0  0  0  0  0  0  0  0  0  0  0
   13.7501   51.6809  156.4275 C   0  0  1  0  0  0  0  0  0  0  0  0
   13.5866   50.1604  156.5511 C   0  0  2  0  0  0  0  0  0  0  0  0
   13.2036   49.9484  157.9124 O   0  0  0  0  0  0  0  0  0  0  0  0
   12.6367   52.1800  155.6668 O   0  0  0  0  0  0  0  0  0  0  0  0
   14.9272   49.4485  156.4193 C   0  0  0  0  0  0  0  0  0  0  0  0
   14.9836   48.9295  155.1126 O   0  0  0  0  0  0  0  0  0  0  0  0
   15.9326   49.5296  153.9840 P   0  0  2  0  0  0  0  0  0  0  0  0
   15.1053   49.9679  152.8731 O   0  0  0  0  0  0  0  0  0  0  0  0
   17.0228   48.5305  153.7145 O   0  0  0  0  0  0  0  0  0  0  0  0
   16.6048   50.8210  154.7599 O   0  0  0  0  0  0  0  0  0  0  0  0
   17.5846   51.9548  154.2336 P   0  0  1  0  0  0  0  0  0  0  0  0
   17.2761   52.3123  152.8020 O   0  0  0  0  0  0  0  0  0  0  0  0
   17.5243   53.0291  155.2878 O   0  0  0  0  0  0  0  0  0  0  0  0
   18.9534   51.1710  154.3705 O   0  0  0  0  0  0  0  0  0  0  0  0
   20.4665   51.5513  153.8531 P   0  0  2  0  0  0  0  0  0  0  0  0
   20.7970   50.5650  152.7574 O   0  0  0  0  0  0  0  0  0  0  0  0
   21.3121   51.4115  155.0986 O   0  0  0  0  0  0  0  0  0  0  0  0
   20.4062   52.9713  153.3721 O   0  0  0  0  0  0  0  0  0  0  0  0
   14.8414   49.5593  162.2930 H   0  0  0  0  0  0  0  0  0  0  0  0
   14.6573   49.8473  159.8232 H   0  0  0  0  0  0  0  0  0  0  0  0
   14.0021   50.4413  164.4715 H   0  0  0  0  0  0  0  0  0  0  0  0
   12.5272   51.4432  164.5316 H   0  0  0  0  0  0  0  0  0  0  0  0
   11.7064   51.4702  158.4294 H   0  0  0  0  0  0  0  0  0  0  0  0
   14.7009   52.3094  158.2701 H   0  0  0  0  0  0  0  0  0  0  0  0
   13.1881   53.7484  159.0265 H   0  0  0  0  0  0  0  0  0  0  0  0
   14.6871   51.9776  155.9336 H   0  0  0  0  0  0  0  0  0  0  0  0
   12.8862   49.7944  155.7860 H   0  0  0  0  0  0  0  0  0  0  0  0
   11.9306   52.4965  156.2842 H   0  0  0  0  0  0  0  0  0  0  0  0
   15.7512   50.1591  156.5808 H   0  0  0  0  0  0  0  0  0  0  0  0
   15.0248   48.6478  157.1672 H   0  0  0  0  0  0  0  0  0  0  0  0
  1  2  1  0
  1  6  1  0
  9  1  1  0
  2  3  1  0
  2  7  2  0
  3  4  2  0
  4  5  1  0
  4  8  1  0
  5  6  2  0
  9 10  1  0
  9 14  1  0
 10 11  1  0
 10 12  1  0
 12 13  1  0
 12 15  1  0
 13 14  1  0
 13 16  1  0
 16 17  1  0
 17 18  1  0
 18 19  2  0
 18 20  1  6
 18 21  1  0
 21 22  1  0
 22 23  2  0
 22 24  1  1
 22 25  1  0
 25 26  1  0
 26 27  2  0
 26 28  1  1
 26 29  1  0
  5 30  1  0
  6 31  1  0
  8 32  1  0
  8 33  1  0
  9 34  1  1
 10 35  1  1
 11 36  1  0
 12 37  1  6
 13 38  1  6
 15 39  1  0
 16 40  1  0
 16 41  1  0
M  CHG  4  20  -1  24  -1  28  -1  29  -1
M  END
>  <filename_input>  (1) 
7N7H_CTP_docked.sdf

>  <pdb_id>  (1) 
7N7H_CTP

>  <pose_rank>  (1) 
0

>  <num_atoms_heavy>  (1) 
29

>  <num_torsions>  (1) 
8

>  <pose>  (1) 
[12.763032034400172, 51.18766862918904, 158.54617210582757, -0.5534801718331595, 0.7353325594794778, -6.0908064127578525, -0.44806419247549567, -0.4560025244864216, -6.837886520041202, -4.848586164101516, -0.1634847464560115, -0.800279182279477, -0.03985686058732769, -0.28046616751786296]

>  <energy>  (1) 
-1082.0503283205194

>  <inter_energy>  (1) 
-1082.3774128892537

>  <intra_energy>  (1) 
3.353539464895684

>  <rmsd>  (1) 
0.694142

>  <sdf_rank>  (1) 
0

$$$$

     RDKit          3D

 41 42  0  0  0  0  0  0  0  0999 V2000
   12.6503   51.0785  159.8615 N   0  0  0  0  0  0  0  0  0  0  0  0
   13.7388   50.3753  160.3173 C   0  0  0  0  0  0  0  0  0  0  0  0
   13.8781   50.2122  161.6547 N   0  0  0  0  0  0  0  0  0  0  0  0
   12.9370   50.7695  162.4898 C   0  0  0  0  0  0  0  0  0  0  0  0
   11.9003   51.5728  162.0311 C   0  0  0  0  0  0  0  0  0  0  0  0
   11.7567   51.6808  160.6795 C   0  0  0  0  0  0  0  0  0  0  0  0
   14.5747   49.8458  159.5314 O   0  0  0  0  0  0  0  0  0  0  0  0
   13.1257   50.4947  163.8017 N   0  0  0  0  0  0  0  0  0  0  0  0
   12.5140   51.2136  158.4159 C   0  0  1  0  0  0  0  0  0  0  0  0
   13.6127   52.0380  157.7080 C   0  0  2  0  0  0  0  0  0  0  0  0
   13.4456   53.4424  157.8908 O   0  0  0  0  0  0  0  0  0  0  0  0
   13.5611   51.4803  156.2855 C   0  0  1  0  0  0  0  0  0  0  0  0
   13.1078   50.0217  156.4308 C   0  0  2  0  0  0  0  0  0  0  0  0
   12.7017   49.9048  157.7969 O   0  0  0  0  0  0  0  0  0  0  0  0
   12.5593   52.1757  155.5238 O   0  0  0  0  0  0  0  0  0  0  0  0
   14.2844   49.0624  156.3017 C   0  0  0  0  0  0  0  0  0  0  0  0
   15.4131   49.8447  155.9946 O   0  0  0  0  0  0  0  0  0  0  0  0
   16.2386   49.6787  154.6435 P   0  0  2  0  0  0  0  0  0  0  0  0
   15.4647   50.2568  153.5583 O   0  0  0  0  0  0  0  0  0  0  0  0
   16.6644   48.2414  154.5330 O   0  0  0  0  0  0  0  0  0  0  0  0
   17.5809   50.5858  154.9546 O   0  0  0  0  0  0  0  0  0  0  0  0
   18.6497   51.2309  153.9727 P   0  0  1  0  0  0  0  0  0  0  0  0
   19.3631   50.1670  153.1780 O   0  0  0  0  0  0  0  0  0  0  0  0
   17.8931   52.3093  153.2423 O   0  0  0  0  0  0  0  0  0  0  0  0
   19.5934   51.9012  155.0529 O   0  0  0  0  0  0  0  0  0  0  0  0
   20.3544   53.3582  155.0599 P   0  0  2  0  0  0  0  0  0  0  0  0
   21.1066   53.4339  156.3680 O   0  0  0  0  0  0  0  0  0  0  0  0
   19.2209   54.3502  154.9301 O   0  0  0  0  0  0  0  0  0  0  0  0
   21.2538   53.3731  153.8589 O   0  0  0  0  0  0  0  0  0  0  0  0
   11.2272   52.0969  162.7256 H   0  0  0  0  0  0  0  0  0  0  0  0
   10.9189   52.2545  160.2564 H   0  0  0  0  0  0  0  0  0  0  0  0
   12.4725   50.8679  164.5052 H   0  0  0  0  0  0  0  0  0  0  0  0
   13.9226   49.9124  164.0965 H   0  0  0  0  0  0  0  0  0  0  0  0
   11.5310   51.6936  158.3008 H   0  0  0  0  0  0  0  0  0  0  0  0
   14.6298   51.9360  158.1142 H   0  0  0  0  0  0  0  0  0  0  0  0
   13.4211   53.6486  158.8588 H   0  0  0  0  0  0  0  0  0  0  0  0
   14.5339   51.5840  155.7826 H   0  0  0  0  0  0  0  0  0  0  0  0
   12.3439   49.7885  155.6744 H   0  0  0  0  0  0  0  0  0  0  0  0
   11.9232   52.6172  156.1407 H   0  0  0  0  0  0  0  0  0  0  0  0
   14.4416   48.5259  157.2490 H   0  0  0  0  0  0  0  0  0  0  0  0
   14.0987   48.3120  155.5191 H   0  0  0  0  0  0  0  0  0  0  0  0
  1  2  1  0
  1  6  1  0
  9  1  1  0
  2  3  1  0
  2  7  2  0
  3  4  2  0
  4  5  1  0
  4  8  1  0
  5  6  2  0
  9 10  1  0
  9 14  1  0
 10 11  1  0
 10 12  1  0
 12 13  1  0
 12 15  1  0
 13 14  1  0
 13 16  1  0
 16 17  1  0
 17 18  1  0
 18 19  2  0
 18 20  1  6
 18 21  1  0
 21 22  1  0
 22 23  2  0
 22 24  1  6
 22 25  1  0
 25 26  1  0
 26 27  2  0
 26 28  1  6
 26 29  1  0
  5 30  1  0
  6 31  1  0
  8 32  1  0
  8 33  1  0
  9 34  1  1
 10 35  1  1
 11 36  1  0
 12 37  1  6
 13 38  1  6
 15 39  1  0
 16 40  1  0
 16 41  1  0
M  CHG  4  20  -1  24  -1  28  -1  29  -1
M  END
>  <filename_input>  (2) 
7N7H_CTP_docked.sdf

>  <pdb_id>  (2) 
7N7H_CTP

>  <pose_rank>  (2) 
1

>  <num_atoms_heavy>  (2) 
29

>  <num_torsions>  (2) 
8

>  <pose>  (2) 
[12.513970311665405, 51.21361584509803, 158.4158729390616, -0.003143522966257681, -0.008319208283241364, -0.07263871222747441, -3.384809111154494, 1.251126008911912, 1.771974946494138, 4.835322840619019, 0.09931289925590432, -2.485206813117565, 0.8220204286126924, -1.478886750106134]

>  <energy>  (2) 
-908.9774654994351

>  <inter_energy>  (2) 
-948.856645982323

>  <intra_energy>  (2) 
48.72254057407642

>  <rmsd>  (2) 
1.95584

>  <sdf_rank>  (2) 
0

$$$$

     RDKit          3D

 41 42  0  0  0  0  0  0  0  0999 V2000
   13.0351   51.2770  159.7411 N   0  0  0  0  0  0  0  0  0  0  0  0
   11.9353   51.6189  160.4897 C   0  0  0  0  0  0  0  0  0  0  0  0
   12.0316   51.5377  161.8383 N   0  0  0  0  0  0  0  0  0  0  0  0
   13.2144   51.1031  162.3913 C   0  0  0  0  0  0  0  0  0  0  0  0
   14.2850   50.6530  161.6286 C   0  0  0  0  0  0  0  0  0  0  0  0
   14.1786   50.7903  160.2762 C   0  0  0  0  0  0  0  0  0  0  0  0
   10.8688   52.0448  159.9625 O   0  0  0  0  0  0  0  0  0  0  0  0
   13.2349   51.1208  163.7446 N   0  0  0  0  0  0  0  0  0  0  0  0
   12.9089   51.4008  158.2935 C   0  0  1  0  0  0  0  0  0  0  0  0
   13.8804   52.3913  157.6132 C   0  0  2  0  0  0  0  0  0  0  0  0
   13.4936   53.7513  157.7990 O   0  0  0  0  0  0  0  0  0  0  0  0
   13.9450   51.8437  156.1872 C   0  0  1  0  0  0  0  0  0  0  0  0
   13.7209   50.3313  156.3160 C   0  0  2  0  0  0  0  0  0  0  0  0
   13.3101   50.1419  157.6726 O   0  0  0  0  0  0  0  0  0  0  0  0
   12.8631   52.3812  155.4077 O   0  0  0  0  0  0  0  0  0  0  0  0
   15.0346   49.5673  156.2075 C   0  0  0  0  0  0  0  0  0  0  0  0
   15.5695   49.8591  154.9391 O   0  0  0  0  0  0  0  0  0  0  0  0
   16.7240   48.9929  154.2674 P   0  0  2  0  0  0  0  0  0  0  0  0
   16.1214   48.1046  153.2883 O   0  0  0  0  0  0  0  0  0  0  0  0
   17.5520   48.3899  155.3675 O   0  0  0  0  0  0  0  0  0  0  0  0
   17.6298   50.1552  153.5257 O   0  0  0  0  0  0  0  0  0  0  0  0
   17.3063   51.0890  152.2825 P   0  0  1  0  0  0  0  0  0  0  0  0
   15.8923   51.6069  152.3505 O   0  0  0  0  0  0  0  0  0  0  0  0
   18.4468   52.0720  152.2382 O   0  0  0  0  0  0  0  0  0  0  0  0
   17.4958   50.0235  151.1269 O   0  0  0  0  0  0  0  0  0  0  0  0
   17.1736   50.1140  149.5175 P   0  0  2  0  0  0  0  0  0  0  0  0
   16.1894   49.0064  149.2224 O   0  0  0  0  0  0  0  0  0  0  0  0
   18.5301   49.9353  148.8743 O   0  0  0  0  0  0  0  0  0  0  0  0
   16.6126   51.4841  149.2734 O   0  0  0  0  0  0  0  0  0  0  0  0
   15.1764   50.2070  162.0939 H   0  0  0  0  0  0  0  0  0  0  0  0
   15.0177   50.5070  159.6238 H   0  0  0  0  0  0  0  0  0  0  0  0
   14.0774   50.8133  164.2509 H   0  0  0  0  0  0  0  0  0  0  0  0
   12.4079   51.4418  164.2680 H   0  0  0  0  0  0  0  0  0  0  0  0
   11.8658   51.7234  158.1598 H   0  0  0  0  0  0  0  0  0  0  0  0
   14.8926   52.4451  158.0405 H   0  0  0  0  0  0  0  0  0  0  0  0
   13.4373   53.9490  158.7674 H   0  0  0  0  0  0  0  0  0  0  0  0
   14.8999   52.1011  155.7057 H   0  0  0  0  0  0  0  0  0  0  0  0
   13.0180   49.9885  155.5424 H   0  0  0  0  0  0  0  0  0  0  0  0
   12.1615   52.7298  156.0130 H   0  0  0  0  0  0  0  0  0  0  0  0
   15.7289   49.8936  156.9958 H   0  0  0  0  0  0  0  0  0  0  0  0
   14.8742   48.4859  156.3297 H   0  0  0  0  0  0  0  0  0  0  0  0
  1  2  1  0
  1  6  1  0
  9  1  1  0
  2  3  1  0
  2  7  2  0
  3  4  2  0
  4  5  1  0
  4  8  1  0
  5  6  2  0
  9 10  1  0
  9 14  1  0
 10 11  1  0
 10 12  1  0
 12 13  1  0
 12 15  1  0
 13 14  1  0
 13 16  1  0
 16 17  1  0
 17 18  1  0
 18 19  2  0
 18 20  1  1
 18 21  1  0
 21 22  1  0
 22 23  2  0
 22 24  1  6
 22 25  1  0
 25 26  1  0
 26 27  2  0
 26 28  1  6
 26 29  1  0
  5 30  1  0
  6 31  1  0
  8 32  1  0
  8 33  1  0
  9 34  1  1
 10 35  1  1
 11 36  1  0
 12 37  1  6
 13 38  1  6
 15 39  1  0
 16 40  1  0
 16 41  1  0
M  CHG  4  20  -1  24  -1  28  -1  29  -1
M  END
>  <filename_input>  (3) 
7N7H_CTP_docked.sdf

>  <pdb_id>  (3) 
7N7H_CTP

>  <pose_rank>  (3) 
2

>  <num_atoms_heavy>  (3) 
29

>  <num_torsions>  (3) 
8

>  <pose>  (3) 
[12.908862791645717, 51.400815794616506, 158.29354849687425, -0.3245743363239865, 2.0500134894345625, -5.836865704660245, -0.17115292032111903, -6.018364383163175, -11.586461744130773, -7.266865674193096, -4.579700881082404, -13.250019992659013, -0.027951490143430013, -0.44726156681103174]

>  <energy>  (3) 
-719.410521478468

>  <inter_energy>  (3) 
-728.7777577135722

>  <intra_energy>  (3) 
4.910755429293607

>  <rmsd>  (3) 
2.39327

>  <sdf_rank>  (3) 
0

$$$$

     RDKit          3D

 41 42  0  0  0  0  0  0  0  0999 V2000
   13.1576   51.0694  159.5044 N   0  0  0  0  0  0  0  0  0  0  0  0
   12.0914   51.4288  160.2925 C   0  0  0  0  0  0  0  0  0  0  0  0
   12.2298   51.3298  161.6363 N   0  0  0  0  0  0  0  0  0  0  0  0
   13.4193   50.8609  162.1452 C   0  0  0  0  0  0  0  0  0  0  0  0
   14.4532   50.3943  161.3429 C   0  0  0  0  0  0  0  0  0  0  0  0
   14.3058   50.5496  159.9962 C   0  0  0  0  0  0  0  0  0  0  0  0
   11.0188   51.8859  159.8054 O   0  0  0  0  0  0  0  0  0  0  0  0
   13.4845   50.8626  163.4972 N   0  0  0  0  0  0  0  0  0  0  0  0
   12.9870   51.2128  158.0632 C   0  0  1  0  0  0  0  0  0  0  0  0
   13.2025   52.6338  157.4958 C   0  0  2  0  0  0  0  0  0  0  0  0
   12.0959   53.4970  157.7485 O   0  0  0  0  0  0  0  0  0  0  0  0
   13.5779   52.3418  156.0427 C   0  0  1  0  0  0  0  0  0  0  0  0
   14.2754   50.9755  156.0639 C   0  0  2  0  0  0  0  0  0  0  0  0
   14.0478   50.4748  157.3839 O   0  0  0  0  0  0  0  0  0  0  0  0
   12.3875   52.2127  155.2468 O   0  0  0  0  0  0  0  0  0  0  0  0
   15.7887   51.1266  155.9716 C   0  0  0  0  0  0  0  0  0  0  0  0
   16.0391   52.4452  155.5487 O   0  0  0  0  0  0  0  0  0  0  0  0
   17.3319   52.8551  154.7151 P   0  0  2  0  0  0  0  0  0  0  0  0
   18.1691   53.6988  155.5506 O   0  0  0  0  0  0  0  0  0  0  0  0
   16.8771   53.3898  153.3859 O   0  0  0  0  0  0  0  0  0  0  0  0
   18.0464   51.3905  154.4583 O   0  0  0  0  0  0  0  0  0  0  0  0
   19.4602   50.8295  154.9154 P   0  0  1  0  0  0  0  0  0  0  0  0
   20.3390   51.9393  155.4332 O   0  0  0  0  0  0  0  0  0  0  0  0
   19.1348   49.6687  155.8185 O   0  0  0  0  0  0  0  0  0  0  0  0
   19.9606   50.2751  153.5193 O   0  0  0  0  0  0  0  0  0  0  0  0
   20.1945   51.0365  152.0814 P   0  0  2  0  0  0  0  0  0  0  0  0
   18.8261   51.4623  151.6032 O   0  0  0  0  0  0  0  0  0  0  0  0
   20.8575   49.9811  151.2257 O   0  0  0  0  0  0  0  0  0  0  0  0
   21.1106   52.1924  152.3573 O   0  0  0  0  0  0  0  0  0  0  0  0
   15.3483   49.9219  161.7737 H   0  0  0  0  0  0  0  0  0  0  0  0
   15.1160   50.2538  159.3135 H   0  0  0  0  0  0  0  0  0  0  0  0
   14.3355   50.5294  163.9722 H   0  0  0  0  0  0  0  0  0  0  0  0
   12.6831   51.1972  164.0510 H   0  0  0  0  0  0  0  0  0  0  0  0
   11.9514   50.8801  157.8992 H   0  0  0  0  0  0  0  0  0  0  0  0
   13.9930   53.2301  157.9748 H   0  0  0  0  0  0  0  0  0  0  0  0
   11.9702   53.5950  158.7256 H   0  0  0  0  0  0  0  0  0  0  0  0
   14.2060   53.1429  155.6260 H   0  0  0  0  0  0  0  0  0  0  0  0
   13.9057   50.3520  155.2365 H   0  0  0  0  0  0  0  0  0  0  0  0
   11.6006   52.1274  155.8414 H   0  0  0  0  0  0  0  0  0  0  0  0
   16.2478   50.9507  156.9557 H   0  0  0  0  0  0  0  0  0  0  0  0
   16.2167   50.3977  155.2677 H   0  0  0  0  0  0  0  0  0  0  0  0
  1  2  1  0
  1  6  1  0
  9  1  1  0
  2  3  1  0
  2  7  2  0
  3  4  2  0
  4  5  1  0
  4  8  1  0
  5  6  2  0
  9 10  1  0
  9 14  1  0
 10 11  1  0
 10 12  1  0
 12 13  1  0
 12 15  1  0
 13 14  1  0
 13 16  1  0
 16 17  1  0
 17 18  1  0
 18 19  2  0
 18 20  1  6
 18 21  1  0
 21 22  1  0
 22 23  2  0
 22 24  1  1
 22 25  1  0
 25 26  1  0
 26 27  2  0
 26 28  1  6
 26 29  1  0
  5 30  1  0
  6 31  1  0
  8 32  1  0
  8 33  1  0
  9 34  1  6
 10 35  1  1
 11 36  1  0
 12 37  1  6
 13 38  1  6
 15 39  1  0
 16 40  1  0
 16 41  1  0
M  CHG  4  20  -1  24  -1  28  -1  29  -1
M  END
>  <filename_input>  (4) 
7N7H_CTP_docked.sdf

>  <pdb_id>  (4) 
7N7H_CTP

>  <pose_rank>  (4) 
3

>  <num_atoms_heavy>  (4) 
29

>  <num_torsions>  (4) 
8

>  <pose>  (4) 
[12.986994705913519, 51.212762844642995, 158.06322889440614, -0.7023719841435611, 0.4547064039401905, -5.509102193712057, -0.8220372670899523, 1.0579264544828701, 1.1909329923771559, 1.5780056113258347, -5.443233895655445, 10.932712809102634, 4.285271998066632, 0.504181554977121]

>  <energy>  (4) 
-932.2529751075915

>  <inter_energy>  (4) 
-948.6719836226799

>  <intra_energy>  (4) 
36.76296136938169

>  <rmsd>  (4) 
2.21607

>  <sdf_rank>  (4) 
0

$$$$

     RDKit          3D

 41 42  0  0  0  0  0  0  0  0999 V2000
   12.9649   51.0498  159.9543 N   0  0  0  0  0  0  0  0  0  0  0  0
   11.9785   51.5127  160.7908 C   0  0  0  0  0  0  0  0  0  0  0  0
   12.1630   51.3844  162.1265 N   0  0  0  0  0  0  0  0  0  0  0  0
   13.3157   50.7848  162.5797 C   0  0  0  0  0  0  0  0  0  0  0  0
   14.2580   50.2191  161.7297 C   0  0  0  0  0  0  0  0  0  0  0  0
   14.0706   50.4044  160.3919 C   0  0  0  0  0  0  0  0  0  0  0  0
   10.9414   52.0877  160.3541 O   0  0  0  0  0  0  0  0  0  0  0  0
   13.4387   50.7644  163.9275 N   0  0  0  0  0  0  0  0  0  0  0  0
   12.7491   51.2269  158.5230 C   0  0  1  0  0  0  0  0  0  0  0  0
   13.7418   52.1658  157.8013 C   0  0  2  0  0  0  0  0  0  0  0  0
   13.4696   53.5436  158.0489 O   0  0  0  0  0  0  0  0  0  0  0  0
   13.6680   51.6591  156.3608 C   0  0  1  0  0  0  0  0  0  0  0  0
   13.3427   50.1634  156.4661 C   0  0  2  0  0  0  0  0  0  0  0  0
   13.0132   49.9622  157.8430 O   0  0  0  0  0  0  0  0  0  0  0  0
   12.5775   52.2964  155.6737 O   0  0  0  0  0  0  0  0  0  0  0  0
   14.5861   49.3110  156.2455 C   0  0  0  0  0  0  0  0  0  0  0  0
   15.2906   49.8917  155.1747 O   0  0  0  0  0  0  0  0  0  0  0  0
   16.5393   49.1904  154.4796 P   0  0  2  0  0  0  0  0  0  0  0  0
   16.3346   49.2083  153.0413 O   0  0  0  0  0  0  0  0  0  0  0  0
   16.7633   47.8661  155.1545 O   0  0  0  0  0  0  0  0  0  0  0  0
   17.7738   50.1969  154.9089 O   0  0  0  0  0  0  0  0  0  0  0  0
   18.5743   51.2783  154.0649 P   0  0  1  0  0  0  0  0  0  0  0  0
   19.6990   50.6360  153.2936 O   0  0  0  0  0  0  0  0  0  0  0  0
   17.5116   52.0393  153.3163 O   0  0  0  0  0  0  0  0  0  0  0  0
   19.1049   52.1703  155.2605 O   0  0  0  0  0  0  0  0  0  0  0  0
   19.9700   53.5681  155.2576 P   0  0  2  0  0  0  0  0  0  0  0  0
   19.6964   54.2351  156.5853 O   0  0  0  0  0  0  0  0  0  0  0  0
   19.4322   54.3148  154.0581 O   0  0  0  0  0  0  0  0  0  0  0  0
   21.4074   53.1771  155.0774 O   0  0  0  0  0  0  0  0  0  0  0  0
   15.1147   49.6486  162.1177 H   0  0  0  0  0  0  0  0  0  0  0  0
   14.8142   50.0311  159.6723 H   0  0  0  0  0  0  0  0  0  0  0  0
   14.2685   50.3365  164.3625 H   0  0  0  0  0  0  0  0  0  0  0  0
   12.7025   51.1768  164.5181 H   0  0  0  0  0  0  0  0  0  0  0  0
   11.7258   51.6272  158.4716 H   0  0  0  0  0  0  0  0  0  0  0  0
   14.7821   52.1339  158.1573 H   0  0  0  0  0  0  0  0  0  0  0  0
   13.4381   53.7034  159.0254 H   0  0  0  0  0  0  0  0  0  0  0  0
   14.6039   51.8622  155.8198 H   0  0  0  0  0  0  0  0  0  0  0  0
   12.5650   49.8957  155.7356 H   0  0  0  0  0  0  0  0  0  0  0  0
   11.9422   52.6677  156.3359 H   0  0  0  0  0  0  0  0  0  0  0  0
   15.2093   49.3082  157.1519 H   0  0  0  0  0  0  0  0  0  0  0  0
   14.3161   48.2684  156.0220 H   0  0  0  0  0  0  0  0  0  0  0  0
  1  2  1  0
  1  6  1  0
  9  1  1  0
  2  3  1  0
  2  7  2  0
  3  4  2  0
  4  5  1  0
  4  8  1  0
  5  6  2  0
  9 10  1  0
  9 14  1  0
 10 11  1  0
 10 12  1  0
 12 13  1  0
 12 15  1  0
 13 14  1  0
 13 16  1  0
 16 17  1  0
 17 18  1  0
 18 19  2  0
 18 20  1  1
 18 21  1  0
 21 22  1  0
 22 23  2  0
 22 24  1  6
 22 25  1  0
 25 26  1  0
 26 27  2  0
 26 28  1  6
 26 29  1  0
  5 30  1  0
  6 31  1  0
  8 32  1  0
  8 33  1  0
  9 34  1  1
 10 35  1  1
 11 36  1  0
 12 37  1  6
 13 38  1  6
 15 39  1  0
 16 40  1  0
 16 41  1  0
M  CHG  4  20  -1  24  -1  28  -1  29  -1
M  END
>  <filename_input>  (5) 
7N7H_CTP_docked.sdf

>  <pdb_id>  (5) 
7N7H_CTP

>  <pose_rank>  (5) 
4

>  <num_atoms_heavy>  (5) 
29

>  <num_torsions>  (5) 
8

>  <pose>  (5) 
[12.749068812023527, 51.22688126068719, 158.5229567573211, -4.0593717703305865, -4.5811246317579455, -1.1604921601897598, 6.052181979123089, -5.693169128105543, 0.8582475464038642, -0.4697970215453784, 7.347061084329645, 3.399039572654781, 0.18088193323232526, -1.873125890631146]

>  <energy>  (5) 
-1041.638447773828

>  <inter_energy>  (5) 
-1050.4783042090876

>  <intra_energy>  (5) 
6.398864969129981

>  <rmsd>  (5) 
1.6357

>  <sdf_rank>  (5) 
0

$$$$

     RDKit          3D

 41 42  0  0  0  0  0  0  0  0999 V2000
   13.1210   50.5923  158.6552 N   0  0  0  0  0  0  0  0  0  0  0  0
   14.0209   50.0673  159.5504 C   0  0  0  0  0  0  0  0  0  0  0  0
   13.8949   50.4079  160.8553 N   0  0  0  0  0  0  0  0  0  0  0  0
   12.8873   51.2721  161.2182 C   0  0  0  0  0  0  0  0  0  0  0  0
   12.0499   51.8869  160.2956 C   0  0  0  0  0  0  0  0  0  0  0  0
   12.1680   51.4900  158.9964 C   0  0  0  0  0  0  0  0  0  0  0  0
   14.9200   49.2513  159.2002 O   0  0  0  0  0  0  0  0  0  0  0  0
   12.8014   51.4978  162.5500 N   0  0  0  0  0  0  0  0  0  0  0  0
   13.2664   50.1853  157.2624 C   0  0  1  0  0  0  0  0  0  0  0  0
   12.8719   51.2413  156.2055 C   0  0  2  0  0  0  0  0  0  0  0  0
   11.4590   51.3664  156.0585 O   0  0  0  0  0  0  0  0  0  0  0  0
   13.6911   50.7983  154.9930 C   0  0  1  0  0  0  0  0  0  0  0  0
   14.9500   50.1348  155.5663 C   0  0  2  0  0  0  0  0  0  0  0  0
   14.6846   50.0065  156.9656 O   0  0  0  0  0  0  0  0  0  0  0  0
   12.9684   49.7993  154.2534 O   0  0  0  0  0  0  0  0  0  0  0  0
   16.1499   51.0708  155.4924 C   0  0  0  0  0  0  0  0  0  0  0  0
   16.2215   51.5337  154.1654 O   0  0  0  0  0  0  0  0  0  0  0  0
   17.5361   52.1838  153.5461 P   0  0  2  0  0  0  0  0  0  0  0  0
   17.6565   53.5425  154.0466 O   0  0  0  0  0  0  0  0  0  0  0  0
   17.5041   51.9688  152.0588 O   0  0  0  0  0  0  0  0  0  0  0  0
   18.7179   51.2201  154.1754 O   0  0  0  0  0  0  0  0  0  0  0  0
   20.1797   50.8903  153.6493 P   0  0  1  0  0  0  0  0  0  0  0  0
   20.4338   49.4045  153.6589 O   0  0  0  0  0  0  0  0  0  0  0  0
   20.2967   51.6467  152.3519 O   0  0  0  0  0  0  0  0  0  0  0  0
   21.0118   51.6444  154.7654 O   0  0  0  0  0  0  0  0  0  0  0  0
   21.2136   53.2497  155.0555 P   0  0  2  0  0  0  0  0  0  0  0  0
   22.0262   53.3490  156.3253 O   0  0  0  0  0  0  0  0  0  0  0  0
   19.7985   53.7687  155.1743 O   0  0  0  0  0  0  0  0  0  0  0  0
   21.9190   53.8123  153.8566 O   0  0  0  0  0  0  0  0  0  0  0  0
   11.3259   52.6575  160.5989 H   0  0  0  0  0  0  0  0  0  0  0  0
   11.4922   51.8973  158.2301 H   0  0  0  0  0  0  0  0  0  0  0  0
   12.0779   52.1310  162.9195 H   0  0  0  0  0  0  0  0  0  0  0  0
   13.4596   51.0363  163.1940 H   0  0  0  0  0  0  0  0  0  0  0  0
   12.6170   49.3003  157.1909 H   0  0  0  0  0  0  0  0  0  0  0  0
   13.1075   52.2862  156.4558 H   0  0  0  0  0  0  0  0  0  0  0  0
   11.0362   51.4038  156.9530 H   0  0  0  0  0  0  0  0  0  0  0  0
   13.9122   51.6485  154.3309 H   0  0  0  0  0  0  0  0  0  0  0  0
   15.1631   49.2018  155.0240 H   0  0  0  0  0  0  0  0  0  0  0  0
   12.5212   49.1810  154.8841 H   0  0  0  0  0  0  0  0  0  0  0  0
   16.0136   51.9169  156.1820 H   0  0  0  0  0  0  0  0  0  0  0  0
   17.0755   50.5506  155.7800 H   0  0  0  0  0  0  0  0  0  0  0  0
  1  2  1  0
  1  6  1  0
  9  1  1  0
  2  3  1  0
  2  7  2  0
  3  4  2  0
  4  5  1  0
  4  8  1  0
  5  6  2  0
  9 10  1  0
  9 14  1  0
 10 11  1  0
 10 12  1  0
 12 13  1  0
 12 15  1  0
 13 14  1  0
 13 16  1  0
 16 17  1  0
 17 18  1  0
 18 19  2  0
 18 20  1  6
 18 21  1  0
 21 22  1  0
 22 23  2  0
 22 24  1  6
 22 25  1  0
 25 26  1  0
 26 27  2  0
 26 28  1  1
 26 29  1  0
  5 30  1  0
  6 31  1  0
  8 32  1  0
  8 33  1  0
  9 34  1  1
 10 35  1  1
 11 36  1  0
 12 37  1  6
 13 38  1  6
 15 39  1  0
 16 40  1  0
 16 41  1  0
M  CHG  4  20  -1  24  -1  28  -1  29  -1
M  END
>  <filename_input>  (6) 
7N7H_CTP_docked.sdf

>  <pdb_id>  (6) 
7N7H_CTP

>  <pose_rank>  (6) 
5

>  <num_atoms_heavy>  (6) 
29

>  <num_torsions>  (6) 
8

>  <pose>  (6) 
[13.266400646364986, 50.18528358375964, 157.26236571373292, 1.180512412022011, 0.2087756437670795, -4.811800479652694, -4.819125949578515, -24.709060039730108, -11.552513347667466, -16.64854340524019, -13.247175779772547, -47.6828226116311, -23.106877374276714, -14.119013121147157]

>  <energy>  (6) 
-788.8070062165509

>  <inter_energy>  (6) 
-875.2027119431626

>  <intra_energy>  (6) 
99.81243850966858

>  <rmsd>  (6) 
2.98441

>  <sdf_rank>  (6) 
0

$$$$

     RDKit          3D

 41 42  0  0  0  0  0  0  0  0999 V2000
   17.7547   51.7872  154.5815 N   0  0  0  0  0  0  0  0  0  0  0  0
   18.3626   52.3750  153.4990 C   0  0  0  0  0  0  0  0  0  0  0  0
   19.7116   52.4965  153.5135 N   0  0  0  0  0  0  0  0  0  0  0  0
   20.4040   52.0432  154.6129 C   0  0  0  0  0  0  0  0  0  0  0  0
   19.7772   51.5516  155.7512 C   0  0  0  0  0  0  0  0  0  0  0  0
   18.4238   51.3966  155.6907 C   0  0  0  0  0  0  0  0  0  0  0  0
   17.7102   52.7567  152.4864 O   0  0  0  0  0  0  0  0  0  0  0  0
   21.7492   52.1467  154.5040 N   0  0  0  0  0  0  0  0  0  0  0  0
   16.3043   51.6463  154.5241 C   0  0  1  0  0  0  0  0  0  0  0  0
   15.7772   50.3441  153.8804 C   0  0  2  0  0  0  0  0  0  0  0  0
   15.8674   50.3623  152.4574 O   0  0  0  0  0  0  0  0  0  0  0  0
   14.3940   50.2122  154.5182 C   0  0  1  0  0  0  0  0  0  0  0  0
   14.5139   50.8646  155.9016 C   0  0  2  0  0  0  0  0  0  0  0  0
   15.7856   51.5184  155.8828 O   0  0  0  0  0  0  0  0  0  0  0  0
   13.4325   50.9667  153.7608 O   0  0  0  0  0  0  0  0  0  0  0  0
   14.6439   49.8145  156.9979 C   0  0  0  0  0  0  0  0  0  0  0  0
   13.3449   49.3435  157.2637 O   0  0  0  0  0  0  0  0  0  0  0  0
   12.4197   49.9559  158.4054 P   0  0  2  0  0  0  0  0  0  0  0  0
   12.1732   48.9253  159.3993 O   0  0  0  0  0  0  0  0  0  0  0  0
   11.2390   50.6108  157.7448 O   0  0  0  0  0  0  0  0  0  0  0  0
   13.3845   51.1446  159.0201 O   0  0  0  0  0  0  0  0  0  0  0  0
   13.1111   52.2222  160.1543 P   0  0  1  0  0  0  0  0  0  0  0  0
   14.3378   53.0605  160.4088 O   0  0  0  0  0  0  0  0  0  0  0  0
   11.8329   52.9000  159.7349 O   0  0  0  0  0  0  0  0  0  0  0  0
   12.8045   51.2351  161.3536 O   0  0  0  0  0  0  0  0  0  0  0  0
   13.7392   50.7566  162.6182 P   0  0  2  0  0  0  0  0  0  0  0  0
   14.8080   49.8612  162.0364 O   0  0  0  0  0  0  0  0  0  0  0  0
   12.7629   50.0541  163.5343 O   0  0  0  0  0  0  0  0  0  0  0  0
   14.2888   52.0082  163.2372 O   0  0  0  0  0  0  0  0  0  0  0  0
   20.3458   51.2995  156.6584 H   0  0  0  0  0  0  0  0  0  0  0  0
   17.8791   50.9564  156.5389 H   0  0  0  0  0  0  0  0  0  0  0  0
   22.3541   51.8331  155.2764 H   0  0  0  0  0  0  0  0  0  0  0  0
   22.1680   52.5391  153.6487 H   0  0  0  0  0  0  0  0  0  0  0  0
   15.9902   52.5246  153.9410 H   0  0  0  0  0  0  0  0  0  0  0  0
   16.3677   49.4365  154.0742 H   0  0  0  0  0  0  0  0  0  0  0  0
   16.8014   50.5502  152.1883 H   0  0  0  0  0  0  0  0  0  0  0  0
   14.0750   49.1603  154.5610 H   0  0  0  0  0  0  0  0  0  0  0  0
   13.6402   51.5052  156.0919 H   0  0  0  0  0  0  0  0  0  0  0  0
   12.8251   51.4434  154.3803 H   0  0  0  0  0  0  0  0  0  0  0  0
   15.2844   48.9878  156.6567 H   0  0  0  0  0  0  0  0  0  0  0  0
   15.1023   50.2416  157.9020 H   0  0  0  0  0  0  0  0  0  0  0  0
  1  2  1  0
  1  6  1  0
  9  1  1  0
  2  3  1  0
  2  7  2  0
  3  4  2  0
  4  5  1  0
  4  8  1  0
  5  6  2  0
  9 10  1  0
  9 14  1  0
 10 11  1  0
 10 12  1  0
 12 13  1  0
 12 15  1  0
 13 14  1  0
 13 16  1  0
 16 17  1  0
 17 18  1  0
 18 19  2  0
 18 20  1  6
 18 21  1  0
 21 22  1  0
 22 23  2  0
 22 24  1  6
 22 25  1  0
 25 26  1  0
 26 27  2  0
 26 28  1  1
 26 29  1  0
  5 30  1  0
  6 31  1  0
  8 32  1  0
  8 33  1  0
  9 34  1  6
 10 35  1  1
 11 36  1  0
 12 37  1  1
 13 38  1  1
 15 39  1  0
 16 40  1  0
 16 41  1  0
M  CHG  4  20  -1  24  -1  28  -1  29  -1
M  END
>  <filename_input>  (7) 
7N7H_CTP_docked.sdf

>  <pdb_id>  (7) 
7N7H_CTP

>  <pose_rank>  (7) 
6

>  <num_atoms_heavy>  (7) 
29

>  <num_torsions>  (7) 
8

>  <pose>  (7) 
[16.30428296685296, 51.64634355369115, 154.52410888246757, 2.8605347115679693, -1.9459613211309972, 2.2874658044739475, -0.6907671439957922, -0.0834052764329096, 2.210550057748389, 1.5096904623623268, 5.992057821783681, 1.6836933782416525, -1.2439058344189118, 0.4351735888351565]

>  <energy>  (7) 
-808.040298923963

>  <inter_energy>  (7) 
-798.3180695374202

>  <intra_energy>  (7) 
19.498010388408662

>  <rmsd>  (7) 
8.18557

>  <sdf_rank>  (7) 
0

$$$$

     RDKit          3D

 41 42  0  0  0  0  0  0  0  0999 V2000
   18.8004   51.5322  154.1034 N   0  0  0  0  0  0  0  0  0  0  0  0
   18.7173   52.6643  154.8770 C   0  0  0  0  0  0  0  0  0  0  0  0
   19.8714   53.2400  155.2906 N   0  0  0  0  0  0  0  0  0  0  0  0
   21.0657   52.6578  154.9323 C   0  0  0  0  0  0  0  0  0  0  0  0
   21.1430   51.4530  154.2447 C   0  0  0  0  0  0  0  0  0  0  0  0
   19.9688   50.9210  153.8004 C   0  0  0  0  0  0  0  0  0  0  0  0
   17.6105   53.1997  155.1690 O   0  0  0  0  0  0  0  0  0  0  0  0
   22.1612   53.3431  155.3353 N   0  0  0  0  0  0  0  0  0  0  0  0
   17.5413   50.9516  153.6514 C   0  0  1  0  0  0  0  0  0  0  0  0
   17.1552   49.5973  154.2877 C   0  0  2  0  0  0  0  0  0  0  0  0
   17.8948   48.5066  153.7429 O   0  0  0  0  0  0  0  0  0  0  0  0
   15.6346   49.5941  154.1290 C   0  0  1  0  0  0  0  0  0  0  0  0
   15.2121   51.0683  154.1760 C   0  0  2  0  0  0  0  0  0  0  0  0
   16.4398   51.7978  154.1009 O   0  0  0  0  0  0  0  0  0  0  0  0
   15.2793   49.0786  152.8346 O   0  0  0  0  0  0  0  0  0  0  0  0
   14.6364   51.4345  155.5383 C   0  0  0  0  0  0  0  0  0  0  0  0
   14.4632   50.2285  156.2424 O   0  0  0  0  0  0  0  0  0  0  0  0
   13.3252   50.0215  157.3361 P   0  0  2  0  0  0  0  0  0  0  0  0
   13.1252   48.5952  157.5270 O   0  0  0  0  0  0  0  0  0  0  0  0
   12.1441   50.8639  156.9425 O   0  0  0  0  0  0  0  0  0  0  0  0
   14.0136   50.7012  158.6724 O   0  0  0  0  0  0  0  0  0  0  0  0
   13.3995   51.6469  159.7908 P   0  0  1  0  0  0  0  0  0  0  0  0
   13.8986   53.0607  159.6353 O   0  0  0  0  0  0  0  0  0  0  0  0
   11.9174   51.3819  159.7412 O   0  0  0  0  0  0  0  0  0  0  0  0
   14.0101   50.9363  161.0671 O   0  0  0  0  0  0  0  0  0  0  0  0
   13.4542   50.8352  162.6107 P   0  0  2  0  0  0  0  0  0  0  0  0
   13.7263   49.4201  163.0643 O   0  0  0  0  0  0  0  0  0  0  0  0
   11.9881   51.1816  162.4824 O   0  0  0  0  0  0  0  0  0  0  0  0
   14.2071   51.8647  163.4012 O   0  0  0  0  0  0  0  0  0  0  0  0
   22.1060   50.9520  154.0671 H   0  0  0  0  0  0  0  0  0  0  0  0
   19.9714   49.9999  153.1990 H   0  0  0  0  0  0  0  0  0  0  0  0
   23.1019   52.9866  155.1143 H   0  0  0  0  0  0  0  0  0  0  0  0
   22.0540   54.2212  155.8629 H   0  0  0  0  0  0  0  0  0  0  0  0
   17.6898   50.8447  152.5667 H   0  0  0  0  0  0  0  0  0  0  0  0
   17.4219   49.4682  155.3471 H   0  0  0  0  0  0  0  0  0  0  0  0
   18.2661   47.9591  154.4794 H   0  0  0  0  0  0  0  0  0  0  0  0
   15.1553   48.9807  154.9061 H   0  0  0  0  0  0  0  0  0  0  0  0
   14.4752   51.2734  153.3855 H   0  0  0  0  0  0  0  0  0  0  0  0
   14.7211   48.2684  152.9440 H   0  0  0  0  0  0  0  0  0  0  0  0
   15.3323   52.0926  156.0793 H   0  0  0  0  0  0  0  0  0  0  0  0
   13.6821   51.9713  155.4329 H   0  0  0  0  0  0  0  0  0  0  0  0
  1  2  1  0
  1  6  1  0
  9  1  1  0
  2  3  1  0
  2  7  2  0
  3  4  2  0
  4  5  1  0
  4  8  1  0
  5  6  2  0
  9 10  1  0
  9 14  1  0
 10 11  1  0
 10 12  1  0
 12 13  1  0
 12 15  1  0
 13 14  1  0
 13 16  1  0
 16 17  1  0
 17 18  1  0
 18 19  2  0
 18 20  1  6
 18 21  1  0
 21 22  1  0
 22 23  2  0
 22 24  1  1
 22 25  1  0
 25 26  1  0
 26 27  2  0
 26 28  1  6
 26 29  1  0
  5 30  1  0
  6 31  1  0
  8 32  1  0
  8 33  1  0
  9 34  1  6
 10 35  1  1
 11 36  1  0
 12 37  1  1
 13 38  1  6
 15 39  1  0
 16 40  1  0
 16 41  1  0
M  CHG  4  20  -1  24  -1  28  -1  29  -1
M  END
>  <filename_input>  (8) 
7N7H_CTP_docked.sdf

>  <pdb_id>  (8) 
7N7H_CTP

>  <pose_rank>  (8) 
7

>  <num_atoms_heavy>  (8) 
29

>  <num_torsions>  (8) 
8

>  <pose>  (8) 
[17.54130218352831, 50.95155707148982, 153.65140360777465, 2.3592266450532677, 0.15093223605424208, 2.7265797004526804, -4.16934185383223, 13.709376016780162, 20.067656788662955, 18.91062486568754, 5.305522241872021, 3.003930181200551, 0.6169819467282004, -2.187043499340215]

>  <energy>  (8) 
-705.3904917614617

>  <inter_energy>  (8) 
-778.2965092310603

>  <intra_energy>  (8) 
79.8655527450986

>  <rmsd>  (8) 
8.33082

>  <sdf_rank>  (8) 
0

$$$$

     RDKit          3D

 41 42  0  0  0  0  0  0  0  0999 V2000
   13.5595   50.6532  159.0746 N   0  0  0  0  0  0  0  0  0  0  0  0
   14.0387   50.4602  160.3474 C   0  0  0  0  0  0  0  0  0  0  0  0
   13.3747   51.0430  161.3740 N   0  0  0  0  0  0  0  0  0  0  0  0
   12.2672   51.8103  161.0937 C   0  0  0  0  0  0  0  0  0  0  0  0
   11.8519   52.0935  159.7985 C   0  0  0  0  0  0  0  0  0  0  0  0
   12.5090   51.4562  158.7878 C   0  0  0  0  0  0  0  0  0  0  0  0
   15.0398   49.7266  160.5851 O   0  0  0  0  0  0  0  0  0  0  0  0
   11.6342   52.2933  162.1883 N   0  0  0  0  0  0  0  0  0  0  0  0
   14.2802   49.9907  157.9937 C   0  0  1  0  0  0  0  0  0  0  0  0
   13.4463   49.0325  157.1138 C   0  0  2  0  0  0  0  0  0  0  0  0
   13.1898   47.7849  157.7552 O   0  0  0  0  0  0  0  0  0  0  0  0
   14.2420   49.0270  155.8083 C   0  0  1  0  0  0  0  0  0  0  0  0
   14.9065   50.4074  155.7248 C   0  0  2  0  0  0  0  0  0  0  0  0
   14.6879   50.9912  157.0118 O   0  0  0  0  0  0  0  0  0  0  0  0
   15.2872   48.0421  155.8770 O   0  0  0  0  0  0  0  0  0  0  0  0
   14.1599   51.3222  154.7620 C   0  0  0  0  0  0  0  0  0  0  0  0
   15.1355   52.0512  154.0570 O   0  0  0  0  0  0  0  0  0  0  0  0
   16.6285   51.5341  153.8623 P   0  0  2  0  0  0  0  0  0  0  0  0
   17.0736   51.9062  152.5303 O   0  0  0  0  0  0  0  0  0  0  0  0
   16.6719   50.0831  154.2525 O   0  0  0  0  0  0  0  0  0  0  0  0
   17.4371   52.3961  155.0131 O   0  0  0  0  0  0  0  0  0  0  0  0
   18.9736   52.7787  155.1366 P   0  0  1  0  0  0  0  0  0  0  0  0
   19.3037   53.9702  154.2743 O   0  0  0  0  0  0  0  0  0  0  0  0
   19.2292   52.8523  156.6193 O   0  0  0  0  0  0  0  0  0  0  0  0
   19.6001   51.4402  154.5689 O   0  0  0  0  0  0  0  0  0  0  0  0
   20.8075   51.1951  153.4807 P   0  0  2  0  0  0  0  0  0  0  0  0
   21.6874   52.4215  153.5451 O   0  0  0  0  0  0  0  0  0  0  0  0
   20.0732   51.0182  152.1710 O   0  0  0  0  0  0  0  0  0  0  0  0
   21.5116   49.9393  153.9037 O   0  0  0  0  0  0  0  0  0  0  0  0
   11.0317   52.7984  159.5978 H   0  0  0  0  0  0  0  0  0  0  0  0
   12.1869   51.5943  157.7451 H   0  0  0  0  0  0  0  0  0  0  0  0
   10.7939   52.8791  162.0807 H   0  0  0  0  0  0  0  0  0  0  0  0
   11.9928   52.0749  163.1289 H   0  0  0  0  0  0  0  0  0  0  0  0
   15.0752   49.4433  158.5214 H   0  0  0  0  0  0  0  0  0  0  0  0
   12.4076   49.3373  156.9186 H   0  0  0  0  0  0  0  0  0  0  0  0
   13.2150   47.9075  158.7373 H   0  0  0  0  0  0  0  0  0  0  0  0
   13.5928   48.8055  154.9483 H   0  0  0  0  0  0  0  0  0  0  0  0
   15.9552   50.3012  155.4105 H   0  0  0  0  0  0  0  0  0  0  0  0
   15.4946   47.8466  156.8250 H   0  0  0  0  0  0  0  0  0  0  0  0
   13.5551   50.7250  154.0638 H   0  0  0  0  0  0  0  0  0  0  0  0
   13.4786   51.9948  155.3037 H   0  0  0  0  0  0  0  0  0  0  0  0
  1  2  1  0
  1  6  1  0
  9  1  1  0
  2  3  1  0
  2  7  2  0
  3  4  2  0
  4  5  1  0
  4  8  1  0
  5  6  2  0
  9 10  1  0
  9 14  1  0
 10 11  1  0
 10 12  1  0
 12 13  1  0
 12 15  1  0
 13 14  1  0
 13 16  1  0
 16 17  1  0
 17 18  1  0
 18 19  2  0
 18 20  1  1
 18 21  1  0
 21 22  1  0
 22 23  2  0
 22 24  1  1
 22 25  1  0
 25 26  1  0
 26 27  2  0
 26 28  1  6
 26 29  1  0
  5 30  1  0
  6 31  1  0
  8 32  1  0
  8 33  1  0
  9 34  1  1
 10 35  1  6
 11 36  1  0
 12 37  1  6
 13 38  1  6
 15 39  1  0
 16 40  1  0
 16 41  1  0
M  CHG  4  20  -1  24  -1  28  -1  29  -1
M  END
>  <filename_input>  (9) 
7N7H_CTP_docked.sdf

>  <pdb_id>  (9) 
7N7H_CTP

>  <pose_rank>  (9) 
8

>  <num_atoms_heavy>  (9) 
29

>  <num_torsions>  (9) 
8

>  <pose>  (9) 
[14.280234159247174, 49.99065105888899, 157.99371744940768, -0.7235341280217985, 0.47574039184881456, 2.7879451348542585, -0.10590781473291806, -1.1329136701868587, -2.0244804371695686, -0.256973679991863, 0.1439912421387216, -0.0007862893295220164, -0.6757493494576703, 2.119681567226375]

>  <energy>  (9) 
-758.7105338494613

>  <inter_energy>  (9) 
-839.5498507195344

>  <intra_energy>  (9) 
75.83120939532205

>  <rmsd>  (9) 
2.75074

>  <sdf_rank>  (9) 
0

$$$$

     RDKit          3D

 41 42  0  0  0  0  0  0  0  0999 V2000
   18.0204   51.5142  153.9894 N   0  0  0  0  0  0  0  0  0  0  0  0
   18.5373   50.4822  154.7343 C   0  0  0  0  0  0  0  0  0  0  0  0
   19.8708   50.4727  154.9715 N   0  0  0  0  0  0  0  0  0  0  0  0
   20.6430   51.4825  154.4443 C   0  0  0  0  0  0  0  0  0  0  0  0
   20.1336   52.4614  153.6002 C   0  0  0  0  0  0  0  0  0  0  0  0
   18.7825   52.4745  153.4171 C   0  0  0  0  0  0  0  0  0  0  0  0
   17.8057   49.5816  155.2346 O   0  0  0  0  0  0  0  0  0  0  0  0
   21.9496   51.4226  154.7926 N   0  0  0  0  0  0  0  0  0  0  0  0
   16.5781   51.5108  153.7742 C   0  0  1  0  0  0  0  0  0  0  0  0
   15.9915   50.2254  153.1486 C   0  0  2  0  0  0  0  0  0  0  0  0
   16.2367   50.1387  151.7465 O   0  0  0  0  0  0  0  0  0  0  0  0
   14.5412   50.2713  153.6302 C   0  0  1  0  0  0  0  0  0  0  0  0
   14.5777   51.0008  154.9794 C   0  0  2  0  0  0  0  0  0  0  0  0
   15.9048   51.5257  155.0696 O   0  0  0  0  0  0  0  0  0  0  0  0
   13.7509   51.0625  152.7265 O   0  0  0  0  0  0  0  0  0  0  0  0
   14.4786   50.0194  156.1406 C   0  0  0  0  0  0  0  0  0  0  0  0
   14.6472   50.7686  157.3197 O   0  0  0  0  0  0  0  0  0  0  0  0
   13.5689   51.8184  157.8390 P   0  0  2  0  0  0  0  0  0  0  0  0
   12.4234   51.7801  156.9462 O   0  0  0  0  0  0  0  0  0  0  0  0
   14.2661   53.1327  158.0535 O   0  0  0  0  0  0  0  0  0  0  0  0
   13.1805   51.1996  159.3181 O   0  0  0  0  0  0  0  0  0  0  0  0
   12.2213   51.7528  160.4567 P   0  0  1  0  0  0  0  0  0  0  0  0
   12.2405   53.2596  160.4931 O   0  0  0  0  0  0  0  0  0  0  0  0
   10.9133   51.0405  160.2313 O   0  0  0  0  0  0  0  0  0  0  0  0
   12.9477   51.1170  161.7116 O   0  0  0  0  0  0  0  0  0  0  0  0
   12.6261   51.2440  163.3186 P   0  0  2  0  0  0  0  0  0  0  0  0
   12.8784   52.6877  163.6855 O   0  0  0  0  0  0  0  0  0  0  0  0
   13.5842   50.2597  163.9503 O   0  0  0  0  0  0  0  0  0  0  0  0
   11.1953   50.8294  163.4992 O   0  0  0  0  0  0  0  0  0  0  0  0
   20.7894   53.1913  153.1030 H   0  0  0  0  0  0  0  0  0  0  0  0
   18.3146   53.2616  152.8074 H   0  0  0  0  0  0  0  0  0  0  0  0
   22.6079   52.1354  154.4469 H   0  0  0  0  0  0  0  0  0  0  0  0
   22.2856   50.6642  155.4032 H   0  0  0  0  0  0  0  0  0  0  0  0
   16.4218   52.3741  153.1106 H   0  0  0  0  0  0  0  0  0  0  0  0
   16.4602   49.2800  153.4595 H   0  0  0  0  0  0  0  0  0  0  0  0
   17.1587   49.8127  151.5923 H   0  0  0  0  0  0  0  0  0  0  0  0
   14.1121   49.2605  153.6952 H   0  0  0  0  0  0  0  0  0  0  0  0
   13.7597   51.7344  155.0321 H   0  0  0  0  0  0  0  0  0  0  0  0
   13.1550   51.6592  153.2451 H   0  0  0  0  0  0  0  0  0  0  0  0
   13.4934   49.5301  156.1402 H   0  0  0  0  0  0  0  0  0  0  0  0
   15.2429   49.2325  156.0595 H   0  0  0  0  0  0  0  0  0  0  0  0
  1  2  1  0
  1  6  1  0
  9  1  1  0
  2  3  1  0
  2  7  2  0
  3  4  2  0
  4  5  1  0
  4  8  1  0
  5  6  2  0
  9 10  1  0
  9 14  1  0
 10 11  1  0
 10 12  1  0
 12 13  1  0
 12 15  1  0
 13 14  1  0
 13 16  1  0
 16 17  1  0
 17 18  1  0
 18 19  2  0
 18 20  1  1
 18 21  1  0
 21 22  1  0
 22 23  2  0
 22 24  1  6
 22 25  1  0
 25 26  1  0
 26 27  2  0
 26 28  1  1
 26 29  1  0
  5 30  1  0
  6 31  1  0
  8 32  1  0
  8 33  1  0
  9 34  1  6
 10 35  1  1
 11 36  1  0
 12 37  1  1
 13 38  1  6
 15 39  1  0
 16 40  1  0
 16 41  1  0
M  CHG  4  20  -1  24  -1  28  -1  29  -1
M  END
>  <filename_input>  (10) 
7N7H_CTP_docked.sdf

>  <pdb_id>  (10) 
7N7H_CTP

>  <pose_rank>  (10) 
9

>  <num_atoms_heavy>  (10) 
29

>  <num_torsions>  (10) 
8

>  <pose>  (10) 
[16.578058633038385, 51.51084858688508, 153.77424066469808, 2.6293661297974524, -1.8383464430183838, 2.550190091969826, 3.076898266990485, -1.9159337168445658, -1.2420878196063994, -2.6896247699200844, -0.3062564776058959, -1.9918894060881143, 0.07391844675657051, 0.517243303772722]

>  <energy>  (10) 
-757.0529576626147

>  <inter_energy>  (10) 
-777.9908079451857

>  <intra_energy>  (10) 
44.815298135946776

>  <rmsd>  (10) 
8.67357

>  <sdf_rank>  (10) 
0

$$$$

     RDKit          3D

 41 42  0  0  0  0  0  0  0  0999 V2000
   17.8007   51.1927  154.2822 N   0  0  0  0  0  0  0  0  0  0  0  0
   18.1954   51.8619  153.1493 C   0  0  0  0  0  0  0  0  0  0  0  0
   19.4384   52.3995  153.1269 N   0  0  0  0  0  0  0  0  0  0  0  0
   20.2366   52.2651  154.2398 C   0  0  0  0  0  0  0  0  0  0  0  0
   19.7938   51.6851  155.4221 C   0  0  0  0  0  0  0  0  0  0  0  0
   18.5571   51.1111  155.4010 C   0  0  0  0  0  0  0  0  0  0  0  0
   17.4576   51.9472  152.1270 O   0  0  0  0  0  0  0  0  0  0  0  0
   21.4819   52.7757  154.0955 N   0  0  0  0  0  0  0  0  0  0  0  0
   16.4674   50.6020  154.2653 C   0  0  1  0  0  0  0  0  0  0  0  0
   16.3418   49.1999  154.9026 C   0  0  2  0  0  0  0  0  0  0  0  0
   16.8484   48.1683  154.0583 O   0  0  0  0  0  0  0  0  0  0  0  0
   14.8638   49.1591  155.2912 C   0  0  1  0  0  0  0  0  0  0  0  0
   14.4746   50.6138  155.5852 C   0  0  2  0  0  0  0  0  0  0  0  0
   15.5906   51.3843  155.1317 O   0  0  0  0  0  0  0  0  0  0  0  0
   14.0766   48.7133  154.1736 O   0  0  0  0  0  0  0  0  0  0  0  0
   14.4164   50.8774  157.0847 C   0  0  0  0  0  0  0  0  0  0  0  0
   13.5611   51.9794  157.2695 O   0  0  0  0  0  0  0  0  0  0  0  0
   13.2518   52.6036  158.7009 P   0  0  2  0  0  0  0  0  0  0  0  0
   11.8326   52.4511  158.9718 O   0  0  0  0  0  0  0  0  0  0  0  0
   13.8446   53.9843  158.7434 O   0  0  0  0  0  0  0  0  0  0  0  0
   14.1456   51.6341  159.6922 O   0  0  0  0  0  0  0  0  0  0  0  0
   13.7814   50.2659  160.4119 P   0  0  1  0  0  0  0  0  0  0  0  0
   13.1398   49.3026  159.4462 O   0  0  0  0  0  0  0  0  0  0  0  0
   15.0470   49.8606  161.1212 O   0  0  0  0  0  0  0  0  0  0  0  0
   12.7476   50.8220  161.4744 O   0  0  0  0  0  0  0  0  0  0  0  0
   12.9170   51.1304  163.0800 P   0  0  2  0  0  0  0  0  0  0  0  0
   12.9599   49.7844  163.7649 O   0  0  0  0  0  0  0  0  0  0  0  0
   11.6997   51.9638  163.4108 O   0  0  0  0  0  0  0  0  0  0  0  0
   14.1896   51.9111  163.2303 O   0  0  0  0  0  0  0  0  0  0  0  0
   20.4116   51.6888  156.3321 H   0  0  0  0  0  0  0  0  0  0  0  0
   18.1765   50.5847  156.2887 H   0  0  0  0  0  0  0  0  0  0  0  0
   22.1536   52.7228  154.8746 H   0  0  0  0  0  0  0  0  0  0  0  0
   21.7578   53.2170  153.2067 H   0  0  0  0  0  0  0  0  0  0  0  0
   16.2227   50.5667  153.1934 H   0  0  0  0  0  0  0  0  0  0  0  0
   16.9677   49.0143  155.7880 H   0  0  0  0  0  0  0  0  0  0  0  0
   17.2091   47.4335  154.6152 H   0  0  0  0  0  0  0  0  0  0  0  0
   14.6956   48.4845  156.1435 H   0  0  0  0  0  0  0  0  0  0  0  0
   13.5039   50.8441  155.1220 H   0  0  0  0  0  0  0  0  0  0  0  0
   13.2647   48.2534  154.5044 H   0  0  0  0  0  0  0  0  0  0  0  0
   14.0181   49.9964  157.6092 H   0  0  0  0  0  0  0  0  0  0  0  0
   15.4186   51.0827  157.4892 H   0  0  0  0  0  0  0  0  0  0  0  0
  1  2  1  0
  1  6  1  0
  9  1  1  0
  2  3  1  0
  2  7  2  0
  3  4  2  0
  4  5  1  0
  4  8  1  0
  5  6  2  0
  9 10  1  0
  9 14  1  0
 10 11  1  0
 10 12  1  0
 12 13  1  0
 12 15  1  0
 13 14  1  0
 13 16  1  0
 16 17  1  0
 17 18  1  0
 18 19  2  0
 18 20  1  6
 18 21  1  0
 21 22  1  0
 22 23  2  0
 22 24  1  1
 22 25  1  0
 25 26  1  0
 26 27  2  0
 26 28  1  1
 26 29  1  0
  5 30  1  0
  6 31  1  0
  8 32  1  0
  8 33  1  0
  9 34  1  6
 10 35  1  1
 11 36  1  0
 12 37  1  1
 13 38  1  6
 15 39  1  0
 16 40  1  0
 16 41  1  0
M  CHG  4  20  -1  24  -1  28  -1  29  -1
M  END
>  <filename_input>  (11) 
7N7H_CTP_docked.sdf

>  <pdb_id>  (11) 
7N7H_CTP

>  <pose_rank>  (11) 
10

>  <num_atoms_heavy>  (11) 
29

>  <num_torsions>  (11) 
8

>  <pose>  (11) 
[16.467441472878598, 50.60200665690859, 154.26527057365857, 2.853981828699209, -0.07512012169570588, 2.312441174659179, 0.18632458599007776, -1.4082902467589202, 0.7199740441821004, -11.07445539746615, 1.3548671284589602, -0.5763675398470529, 1.475247116179129, 0.3888540493130163]

>  <energy>  (11) 
-790.1760332403487

>  <inter_energy>  (11) 
-791.0666960571822

>  <intra_energy>  (11) 
22.192812632039857

>  <rmsd>  (11) 
8.61249

>  <sdf_rank>  (11) 
0

$$$$

     RDKit          3D

 41 42  0  0  0  0  0  0  0  0999 V2000
   18.1930   53.1612  154.8505 N   0  0  0  0  0  0  0  0  0  0  0  0
   19.1931   52.3963  155.3996 C   0  0  0  0  0  0  0  0  0  0  0  0
   20.1667   53.0265  156.0993 N   0  0  0  0  0  0  0  0  0  0  0  0
   20.1174   54.3971  156.2125 C   0  0  0  0  0  0  0  0  0  0  0  0
   19.1672   55.1755  155.5632 C   0  0  0  0  0  0  0  0  0  0  0  0
   18.1731   54.5129  154.9058 C   0  0  0  0  0  0  0  0  0  0  0  0
   19.2025   51.1359  155.3093 O   0  0  0  0  0  0  0  0  0  0  0  0
   21.0942   54.9264  156.9856 N   0  0  0  0  0  0  0  0  0  0  0  0
   17.1451   52.4510  154.1263 C   0  0  1  0  0  0  0  0  0  0  0  0
   17.5784   51.1484  153.4169 C   0  0  2  0  0  0  0  0  0  0  0  0
   18.2947   51.3959  152.2090 O   0  0  0  0  0  0  0  0  0  0  0  0
   16.2600   50.3786  153.3339 C   0  0  1  0  0  0  0  0  0  0  0  0
   15.4431   50.8276  154.5526 C   0  0  2  0  0  0  0  0  0  0  0  0
   16.1697   51.9386  155.0842 O   0  0  0  0  0  0  0  0  0  0  0  0
   15.5378   50.7718  152.1545 O   0  0  0  0  0  0  0  0  0  0  0  0
   15.4845   49.7826  155.6605 C   0  0  0  0  0  0  0  0  0  0  0  0
   14.3538   50.0037  156.4684 O   0  0  0  0  0  0  0  0  0  0  0  0
   14.0536   49.1607  157.7851 P   0  0  2  0  0  0  0  0  0  0  0  0
   15.1977   48.3069  158.0549 O   0  0  0  0  0  0  0  0  0  0  0  0
   12.7030   48.5198  157.6282 O   0  0  0  0  0  0  0  0  0  0  0  0
   13.9259   50.3474  158.9238 O   0  0  0  0  0  0  0  0  0  0  0  0
   13.1438   51.7296  158.9012 P   0  0  1  0  0  0  0  0  0  0  0  0
   13.9112   52.7708  158.1270 O   0  0  0  0  0  0  0  0  0  0  0  0
   11.7482   51.3698  158.4634 O   0  0  0  0  0  0  0  0  0  0  0  0
   13.1383   52.0271  160.4562 O   0  0  0  0  0  0  0  0  0  0  0  0
   13.5266   51.0706  161.7354 P   0  0  2  0  0  0  0  0  0  0  0  0
   14.6907   51.7426  162.4253 O   0  0  0  0  0  0  0  0  0  0  0  0
   13.8591   49.7417  161.0957 O   0  0  0  0  0  0  0  0  0  0  0  0
   12.2980   50.9892  162.5929 O   0  0  0  0  0  0  0  0  0  0  0  0
   19.2146   56.2743  155.5787 H   0  0  0  0  0  0  0  0  0  0  0  0
   17.3595   55.0743  154.4232 H   0  0  0  0  0  0  0  0  0  0  0  0
   21.1409   55.9451  157.1308 H   0  0  0  0  0  0  0  0  0  0  0  0
   21.7909   54.3106  157.4287 H   0  0  0  0  0  0  0  0  0  0  0  0
   16.7967   53.1958  153.3957 H   0  0  0  0  0  0  0  0  0  0  0  0
   18.3340   50.5429  153.9388 H   0  0  0  0  0  0  0  0  0  0  0  0
   19.2077   51.7115  152.4255 H   0  0  0  0  0  0  0  0  0  0  0  0
   16.4350   49.2930  153.3053 H   0  0  0  0  0  0  0  0  0  0  0  0
   14.4024   51.0242  154.2555 H   0  0  0  0  0  0  0  0  0  0  0  0
   14.6996   51.2281  152.4176 H   0  0  0  0  0  0  0  0  0  0  0  0
   15.4501   48.7713  155.2291 H   0  0  0  0  0  0  0  0  0  0  0  0
   16.4116   49.8647  156.2469 H   0  0  0  0  0  0  0  0  0  0  0  0
  1  2  1  0
  1  6  1  0
  9  1  1  0
  2  3  1  0
  2  7  2  0
  3  4  2  0
  4  5  1  0
  4  8  1  0
  5  6  2  0
  9 10  1  0
  9 14  1  0
 10 11  1  0
 10 12  1  0
 12 13  1  0
 12 15  1  0
 13 14  1  0
 13 16  1  0
 16 17  1  0
 17 18  1  0
 18 19  2  0
 18 20  1  6
 18 21  1  0
 21 22  1  0
 22 23  2  0
 22 24  1  6
 22 25  1  0
 25 26  1  0
 26 27  2  0
 26 28  1  6
 26 29  1  0
  5 30  1  0
  6 31  1  0
  8 32  1  0
  8 33  1  0
  9 34  1  6
 10 35  1  1
 11 36  1  0
 12 37  1  1
 13 38  1  6
 15 39  1  0
 16 40  1  0
 16 41  1  0
M  CHG  4  20  -1  24  -1  28  -1  29  -1
M  END
>  <filename_input>  (12) 
7N7H_CTP_docked.sdf

>  <pdb_id>  (12) 
7N7H_CTP

>  <pose_rank>  (12) 
11

>  <num_atoms_heavy>  (12) 
29

>  <num_torsions>  (12) 
8

>  <pose>  (12) 
[17.145122344945978, 52.45104022045934, 154.12634916322068, -1.203178608656203, 0.32307536483422, -1.110698140641893, -2.7890348964734692, -7.714405179630898, -5.539265775910679, -2.6204778738433245, -2.580092451086153, -9.078233544129976, -3.223533736584478, 10.019462352056458]

>  <energy>  (12) 
-682.0871083240497

>  <inter_energy>  (12) 
-754.7411838310845

>  <intra_energy>  (12) 
87.86821441182914

>  <rmsd>  (12) 
7.82296

>  <sdf_rank>  (12) 
0

$$$$

     RDKit          3D

 41 42  0  0  0  0  0  0  0  0999 V2000
   12.8820   50.9934  160.0570 N   0  0  0  0  0  0  0  0  0  0  0  0
   11.9819   51.5999  160.8990 C   0  0  0  0  0  0  0  0  0  0  0  0
   12.1712   51.4717  162.2340 N   0  0  0  0  0  0  0  0  0  0  0  0
   13.2407   50.7302  162.6815 C   0  0  0  0  0  0  0  0  0  0  0  0
   14.0829   50.0275  161.8287 C   0  0  0  0  0  0  0  0  0  0  0  0
   13.8983   50.2125  160.4905 C   0  0  0  0  0  0  0  0  0  0  0  0
   11.0241   52.3017  160.4668 O   0  0  0  0  0  0  0  0  0  0  0  0
   13.3838   50.7174  164.0274 N   0  0  0  0  0  0  0  0  0  0  0  0
   12.6665   51.1725  158.6258 C   0  0  1  0  0  0  0  0  0  0  0  0
   13.6674   52.1021  157.9033 C   0  0  2  0  0  0  0  0  0  0  0  0
   13.4084   53.4823  158.1511 O   0  0  0  0  0  0  0  0  0  0  0  0
   13.5874   51.5960  156.4628 C   0  0  1  0  0  0  0  0  0  0  0  0
   13.2482   50.1035  156.5685 C   0  0  2  0  0  0  0  0  0  0  0  0
   12.9181   49.9054  157.9457 O   0  0  0  0  0  0  0  0  0  0  0  0
   12.5024   52.2436  155.7767 O   0  0  0  0  0  0  0  0  0  0  0  0
   14.4834   49.2395  156.3467 C   0  0  0  0  0  0  0  0  0  0  0  0
   14.8171   49.3518  154.9843 O   0  0  0  0  0  0  0  0  0  0  0  0
   16.3135   49.2556  154.4497 P   0  0  2  0  0  0  0  0  0  0  0  0
   16.2787   48.8374  153.0588 O   0  0  0  0  0  0  0  0  0  0  0  0
   17.1033   48.4297  155.4262 O   0  0  0  0  0  0  0  0  0  0  0  0
   16.8193   50.8205  154.5791 O   0  0  0  0  0  0  0  0  0  0  0  0
   18.0885   51.5561  153.9704 P   0  0  1  0  0  0  0  0  0  0  0  0
   19.1643   50.5644  153.6079 O   0  0  0  0  0  0  0  0  0  0  0  0
   17.5293   52.4566  152.9002 O   0  0  0  0  0  0  0  0  0  0  0  0
   18.4845   52.4314  155.2289 O   0  0  0  0  0  0  0  0  0  0  0  0
   19.8128   53.3543  155.5218 P   0  0  2  0  0  0  0  0  0  0  0  0
   19.7423   53.7426  156.9801 O   0  0  0  0  0  0  0  0  0  0  0  0
   19.6615   54.5088  154.5574 O   0  0  0  0  0  0  0  0  0  0  0  0
   21.0030   52.5012  155.1939 O   0  0  0  0  0  0  0  0  0  0  0  0
   14.8618   49.3536  162.2150 H   0  0  0  0  0  0  0  0  0  0  0  0
   14.5720   49.7296  159.7673 H   0  0  0  0  0  0  0  0  0  0  0  0
   14.1560   50.1892  164.4581 H   0  0  0  0  0  0  0  0  0  0  0  0
   12.7204   51.2357  164.6208 H   0  0  0  0  0  0  0  0  0  0  0  0
   11.6470   51.5824  158.5754 H   0  0  0  0  0  0  0  0  0  0  0  0
   14.7077   52.0604  158.2583 H   0  0  0  0  0  0  0  0  0  0  0  0
   13.3783   53.6423  159.1276 H   0  0  0  0  0  0  0  0  0  0  0  0
   14.5248   51.7904  155.9209 H   0  0  0  0  0  0  0  0  0  0  0  0
   12.4674   49.8430  155.8387 H   0  0  0  0  0  0  0  0  0  0  0  0
   11.8709   52.6204  156.4395 H   0  0  0  0  0  0  0  0  0  0  0  0
   15.3145   49.5990  156.9713 H   0  0  0  0  0  0  0  0  0  0  0  0
   14.2877   48.1923  156.6208 H   0  0  0  0  0  0  0  0  0  0  0  0
  1  2  1  0
  1  6  1  0
  9  1  1  0
  2  3  1  0
  2  7  2  0
  3  4  2  0
  4  5  1  0
  4  8  1  0
  5  6  2  0
  9 10  1  0
  9 14  1  0
 10 11  1  0
 10 12  1  0
 12 13  1  0
 12 15  1  0
 13 14  1  0
 13 16  1  0
 16 17  1  0
 17 18  1  0
 18 19  2  0
 18 20  1  1
 18 21  1  0
 21 22  1  0
 22 23  2  0
 22 24  1  6
 22 25  1  0
 25 26  1  0
 26 27  2  0
 26 28  1  6
 26 29  1  0
  5 30  1  0
  6 31  1  0
  8 32  1  0
  8 33  1  0
  9 34  1  1
 10 35  1  1
 11 36  1  0
 12 37  1  6
 13 38  1  6
 15 39  1  0
 16 40  1  0
 16 41  1  0
M  CHG  4  20  -1  24  -1  28  -1  29  -1
M  END
>  <filename_input>  (13) 
7N7H_CTP_docked.sdf

>  <pdb_id>  (13) 
7N7H_CTP

>  <pose_rank>  (13) 
12

>  <num_atoms_heavy>  (13) 
29

>  <num_torsions>  (13) 
8

>  <pose>  (13) 
[12.666529037099297, 51.17247298520778, 158.62583859107949, 4.1692540679328856, 4.7708486926290785, 0.0626840049176688, 5.923966586326562, -6.189707196325731, 0.15355344948696448, -0.026445444269551498, 6.2862928038734145, 4.501490005456252, -0.03831064239478369, -1.3003002059076376]

>  <energy>  (13) 
-1036.3301092387137

>  <inter_energy>  (13) 
-1035.4263815597797

>  <intra_energy>  (13) 
2.594873173192042

>  <rmsd>  (13) 
1.54066

>  <sdf_rank>  (13) 
0

$$$$

     RDKit          3D

 41 42  0  0  0  0  0  0  0  0999 V2000
   18.2146   52.2708  154.7499 N   0  0  0  0  0  0  0  0  0  0  0  0
   18.3770   53.6286  154.8806 C   0  0  0  0  0  0  0  0  0  0  0  0
   19.5334   54.0835  155.4194 N   0  0  0  0  0  0  0  0  0  0  0  0
   20.4789   53.1688  155.8234 C   0  0  0  0  0  0  0  0  0  0  0  0
   20.2649   51.7964  155.7919 C   0  0  0  0  0  0  0  0  0  0  0  0
   19.1134   51.3660  155.2018 C   0  0  0  0  0  0  0  0  0  0  0  0
   17.5085   54.4519  154.4750 O   0  0  0  0  0  0  0  0  0  0  0  0
   21.6250   53.7213  156.2852 N   0  0  0  0  0  0  0  0  0  0  0  0
   16.9707   51.8135  154.1415 C   0  0  1  0  0  0  0  0  0  0  0  0
   16.9714   50.3615  153.6126 C   0  0  2  0  0  0  0  0  0  0  0  0
   17.6664   50.2311  152.3743 O   0  0  0  0  0  0  0  0  0  0  0  0
   15.4841   50.0092  153.6505 C   0  0  1  0  0  0  0  0  0  0  0  0
   14.8953   50.8304  154.8050 C   0  0  2  0  0  0  0  0  0  0  0  0
   15.9386   51.7372  155.1713 O   0  0  0  0  0  0  0  0  0  0  0  0
   14.8479   50.4431  152.4364 O   0  0  0  0  0  0  0  0  0  0  0  0
   14.6884   49.9699  156.0453 C   0  0  0  0  0  0  0  0  0  0  0  0
   13.2986   49.8732  156.2440 O   0  0  0  0  0  0  0  0  0  0  0  0
   12.5915   50.2693  157.6143 P   0  0  2  0  0  0  0  0  0  0  0  0
   12.5993   49.1084  158.4877 O   0  0  0  0  0  0  0  0  0  0  0  0
   11.2719   50.9106  157.2874 O   0  0  0  0  0  0  0  0  0  0  0  0
   13.6002   51.4418  158.1881 O   0  0  0  0  0  0  0  0  0  0  0  0
   13.9339   51.8892  159.6750 P   0  0  1  0  0  0  0  0  0  0  0  0
   14.9182   50.9436  160.3147 O   0  0  0  0  0  0  0  0  0  0  0  0
   14.2854   53.3496  159.5629 O   0  0  0  0  0  0  0  0  0  0  0  0
   12.4846   51.7517  160.2974 O   0  0  0  0  0  0  0  0  0  0  0  0
   11.9751   51.8105  161.8591 P   0  0  2  0  0  0  0  0  0  0  0  0
   13.2028   51.5879  162.7110 O   0  0  0  0  0  0  0  0  0  0  0  0
   10.9478   50.7041  161.9383 O   0  0  0  0  0  0  0  0  0  0  0  0
   11.3581   53.1644  162.0535 O   0  0  0  0  0  0  0  0  0  0  0  0
   20.9901   51.0903  156.2226 H   0  0  0  0  0  0  0  0  0  0  0  0
   18.9163   50.2892  155.0937 H   0  0  0  0  0  0  0  0  0  0  0  0
   22.3931   53.1174  156.6110 H   0  0  0  0  0  0  0  0  0  0  0  0
   21.7291   54.7457  156.3107 H   0  0  0  0  0  0  0  0  0  0  0  0
   16.8163   52.5280  153.3196 H   0  0  0  0  0  0  0  0  0  0  0  0
   17.5447   49.6326  154.2042 H   0  0  0  0  0  0  0  0  0  0  0  0
   18.6239   50.0515  152.5506 H   0  0  0  0  0  0  0  0  0  0  0  0
   15.3354   48.9258  153.7690 H   0  0  0  0  0  0  0  0  0  0  0  0
   13.9424   51.2844  154.4954 H   0  0  0  0  0  0  0  0  0  0  0  0
   14.0507   50.9868  152.6576 H   0  0  0  0  0  0  0  0  0  0  0  0
   15.1193   48.9699  155.8889 H   0  0  0  0  0  0  0  0  0  0  0  0
   15.1831   50.4140  156.9216 H   0  0  0  0  0  0  0  0  0  0  0  0
  1  2  1  0
  1  6  1  0
  9  1  1  0
  2  3  1  0
  2  7  2  0
  3  4  2  0
  4  5  1  0
  4  8  1  0
  5  6  2  0
  9 10  1  0
  9 14  1  0
 10 11  1  0
 10 12  1  0
 12 13  1  0
 12 15  1  0
 13 14  1  0
 13 16  1  0
 16 17  1  0
 17 18  1  0
 18 19  2  0
 18 20  1  6
 18 21  1  0
 21 22  1  0
 22 23  2  0
 22 24  1  6
 22 25  1  0
 25 26  1  0
 26 27  2  0
 26 28  1  6
 26 29  1  0
  5 30  1  0
  6 31  1  0
  8 32  1  0
  8 33  1  0
  9 34  1  6
 10 35  1  1
 11 36  1  0
 12 37  1  1
 13 38  1  6
 15 39  1  0
 16 40  1  0
 16 41  1  0
M  CHG  4  20  -1  24  -1  28  -1  29  -1
M  END
>  <filename_input>  (14) 
7N7H_CTP_docked.sdf

>  <pdb_id>  (14) 
7N7H_CTP

>  <pose_rank>  (14) 
13

>  <num_atoms_heavy>  (14) 
29

>  <num_torsions>  (14) 
8

>  <pose>  (14) 
[16.970653727344025, 51.81346056037668, 154.14153423729368, 2.886115911456285, -1.022630818164363, 3.0332097961380575, 0.5854958263200377, -0.6464909663305439, 1.6512169993464756, -10.552659101938062, 0.2601236332689364, -0.029815600925705628, -0.06285796220707682, 1.3561021589080193]

>  <energy>  (14) 
-781.5370074474044

>  <inter_energy>  (14) 
-786.3977439063533

>  <intra_energy>  (14) 
8.21552953358615

>  <rmsd>  (14) 
8.13664

>  <sdf_rank>  (14) 
0

$$$$

     RDKit          3D

 41 42  0  0  0  0  0  0  0  0999 V2000
   17.6268   51.4189  154.2370 N   0  0  0  0  0  0  0  0  0  0  0  0
   18.0001   52.7112  153.9585 C   0  0  0  0  0  0  0  0  0  0  0  0
   19.3232   52.9986  153.9206 N   0  0  0  0  0  0  0  0  0  0  0  0
   20.2256   51.9920  154.1778 C   0  0  0  0  0  0  0  0  0  0  0  0
   19.8425   50.7147  154.5677 C   0  0  0  0  0  0  0  0  0  0  0  0
   18.5069   50.4405  154.5515 C   0  0  0  0  0  0  0  0  0  0  0  0
   17.1554   53.6134  153.6952 O   0  0  0  0  0  0  0  0  0  0  0  0
   21.5215   52.3613  154.0498 N   0  0  0  0  0  0  0  0  0  0  0  0
   16.1964   51.1353  154.2438 C   0  0  1  0  0  0  0  0  0  0  0  0
   15.8043   49.6411  154.2840 C   0  0  2  0  0  0  0  0  0  0  0  0
   15.9614   49.0004  153.0197 O   0  0  0  0  0  0  0  0  0  0  0  0
   14.4064   49.6962  154.9008 C   0  0  1  0  0  0  0  0  0  0  0  0
   14.4082   50.9273  155.8164 C   0  0  2  0  0  0  0  0  0  0  0  0
   15.6242   51.6100  155.5003 O   0  0  0  0  0  0  0  0  0  0  0  0
   13.4267   49.9178  153.8721 O   0  0  0  0  0  0  0  0  0  0  0  0
   14.5667   50.5280  157.2782 C   0  0  0  0  0  0  0  0  0  0  0  0
   13.2875   50.6034  157.8598 O   0  0  0  0  0  0  0  0  0  0  0  0
   12.9385   51.5945  159.0557 P   0  0  2  0  0  0  0  0  0  0  0  0
   11.6895   51.1635  159.6600 O   0  0  0  0  0  0  0  0  0  0  0  0
   13.0344   53.0016  158.5359 O   0  0  0  0  0  0  0  0  0  0  0  0
   14.2045   51.3428  160.0830 O   0  0  0  0  0  0  0  0  0  0  0  0
   14.2325   50.9231  161.6146 P   0  0  1  0  0  0  0  0  0  0  0  0
   14.6625   49.4870  161.7724 O   0  0  0  0  0  0  0  0  0  0  0  0
   15.0302   52.0069  162.2914 O   0  0  0  0  0  0  0  0  0  0  0  0
   12.6977   51.1256  161.9465 O   0  0  0  0  0  0  0  0  0  0  0  0
   11.8617   50.9042  163.3443 P   0  0  2  0  0  0  0  0  0  0  0  0
   12.5878   49.8170  164.1014 O   0  0  0  0  0  0  0  0  0  0  0  0
   10.4772   50.5221  162.8721 O   0  0  0  0  0  0  0  0  0  0  0  0
   11.8673   52.2252  164.0560 O   0  0  0  0  0  0  0  0  0  0  0  0
   20.5816   49.9603  154.8751 H   0  0  0  0  0  0  0  0  0  0  0  0
   18.1469   49.4295  154.7927 H   0  0  0  0  0  0  0  0  0  0  0  0
   22.2715   51.6767  154.2219 H   0  0  0  0  0  0  0  0  0  0  0  0
   21.7576   53.3270  153.7802 H   0  0  0  0  0  0  0  0  0  0  0  0
   15.8431   51.6064  153.3147 H   0  0  0  0  0  0  0  0  0  0  0  0
   16.4538   48.9876  154.8849 H   0  0  0  0  0  0  0  0  0  0  0  0
   16.1949   48.0485  153.1589 H   0  0  0  0  0  0  0  0  0  0  0  0
   14.1689   48.7620  155.4307 H   0  0  0  0  0  0  0  0  0  0  0  0
   13.4789   51.4995  155.6784 H   0  0  0  0  0  0  0  0  0  0  0  0
   12.5505   50.1159  154.2880 H   0  0  0  0  0  0  0  0  0  0  0  0
   14.9560   49.5017  157.3506 H   0  0  0  0  0  0  0  0  0  0  0  0
   15.2756   51.1918  157.7947 H   0  0  0  0  0  0  0  0  0  0  0  0
  1  2  1  0
  1  6  1  0
  9  1  1  0
  2  3  1  0
  2  7  2  0
  3  4  2  0
  4  5  1  0
  4  8  1  0
  5  6  2  0
  9 10  1  0
  9 14  1  0
 10 11  1  0
 10 12  1  0
 12 13  1  0
 12 15  1  0
 13 14  1  0
 13 16  1  0
 16 17  1  0
 17 18  1  0
 18 19  2  0
 18 20  1  6
 18 21  1  0
 21 22  1  0
 22 23  2  0
 22 24  1  1
 22 25  1  0
 25 26  1  0
 26 27  2  0
 26 28  1  6
 26 29  1  0
  5 30  1  0
  6 31  1  0
  8 32  1  0
  8 33  1  0
  9 34  1  6
 10 35  1  1
 11 36  1  0
 12 37  1  1
 13 38  1  1
 15 39  1  0
 16 40  1  0
 16 41  1  0
M  CHG  4  20  -1  24  -1  28  -1  29  -1
M  END
>  <filename_input>  (15) 
7N7H_CTP_docked.sdf

>  <pdb_id>  (15) 
7N7H_CTP

>  <pose_rank>  (15) 
14

>  <num_atoms_heavy>  (15) 
29

>  <num_torsions>  (15) 
8

>  <pose>  (15) 
[16.196361588646926, 51.13525616257186, 154.2438314758001, 2.932015128578174, -1.0211951469045122, 2.281139324128029, 0.6969218978901377, -0.4585457823534862, 1.776424660276211, -11.891014032166987, 0.7214638647540998, 0.4399785018166496, 0.11613507490490453, 1.160375248523934]

>  <energy>  (15) 
-739.3828936440202

>  <inter_energy>  (15) 
-756.8697797757114

>  <intra_energy>  (15) 
32.096983806982195

>  <rmsd>  (15) 
8.80381

>  <sdf_rank>  (15) 
0

$$$$

     RDKit          3D

 41 42  0  0  0  0  0  0  0  0999 V2000
   17.2252   51.1830  151.8895 N   0  0  0  0  0  0  0  0  0  0  0  0
   18.0787   51.1985  150.8132 C   0  0  0  0  0  0  0  0  0  0  0  0
   17.5410   51.1302  149.5720 N   0  0  0  0  0  0  0  0  0  0  0  0
   16.1739   51.0322  149.4486 C   0  0  0  0  0  0  0  0  0  0  0  0
   15.3237   50.9050  150.5401 C   0  0  0  0  0  0  0  0  0  0  0  0
   15.8864   51.0244  151.7763 C   0  0  0  0  0  0  0  0  0  0  0  0
   19.3293   51.3198  150.9482 O   0  0  0  0  0  0  0  0  0  0  0  0
   15.7294   51.0380  148.1702 N   0  0  0  0  0  0  0  0  0  0  0  0
   17.8328   51.2852  153.2113 C   0  0  1  0  0  0  0  0  0  0  0  0
   18.0573   52.7189  153.7423 C   0  0  2  0  0  0  0  0  0  0  0  0
   19.1805   53.3563  153.1376 O   0  0  0  0  0  0  0  0  0  0  0  0
   18.0759   52.4978  155.2550 C   0  0  1  0  0  0  0  0  0  0  0  0
   17.1642   51.2897  155.5062 C   0  0  2  0  0  0  0  0  0  0  0  0
   16.9002   50.7603  154.2043 O   0  0  0  0  0  0  0  0  0  0  0  0
   19.4021   52.1407  155.6805 O   0  0  0  0  0  0  0  0  0  0  0  0
   15.7986   51.7263  156.0218 C   0  0  0  0  0  0  0  0  0  0  0  0
   14.8580   50.8235  155.4923 O   0  0  0  0  0  0  0  0  0  0  0  0
   13.7790   50.0729  156.3905 P   0  0  2  0  0  0  0  0  0  0  0  0
   13.6755   48.6982  155.9320 O   0  0  0  0  0  0  0  0  0  0  0  0
   12.5333   50.9137  156.4198 O   0  0  0  0  0  0  0  0  0  0  0  0
   14.4762   50.1421  157.8840 O   0  0  0  0  0  0  0  0  0  0  0  0
   14.1715   51.0775  159.1309 P   0  0  1  0  0  0  0  0  0  0  0  0
   14.5233   50.3855  160.4230 O   0  0  0  0  0  0  0  0  0  0  0  0
   14.8355   52.3872  158.7951 O   0  0  0  0  0  0  0  0  0  0  0  0
   12.6067   51.2267  158.9416 O   0  0  0  0  0  0  0  0  0  0  0  0
   11.5084   52.1438  159.7507 P   0  0  2  0  0  0  0  0  0  0  0  0
   11.9832   53.5729  159.6305 O   0  0  0  0  0  0  0  0  0  0  0  0
   11.5475   51.5860  161.1554 O   0  0  0  0  0  0  0  0  0  0  0  0
   10.1839   51.9030  159.0878 O   0  0  0  0  0  0  0  0  0  0  0  0
   14.2474   50.7168  150.4128 H   0  0  0  0  0  0  0  0  0  0  0  0
   15.2552   50.9920  152.6767 H   0  0  0  0  0  0  0  0  0  0  0  0
   14.7203   50.9689  147.9755 H   0  0  0  0  0  0  0  0  0  0  0  0
   16.4002   51.1116  147.3920 H   0  0  0  0  0  0  0  0  0  0  0  0
   18.7916   50.7605  153.0875 H   0  0  0  0  0  0  0  0  0  0  0  0
   17.2848   53.4570  153.4807 H   0  0  0  0  0  0  0  0  0  0  0  0
   19.7847   53.6991  153.8430 H   0  0  0  0  0  0  0  0  0  0  0  0
   17.7552   53.4023  155.7926 H   0  0  0  0  0  0  0  0  0  0  0  0
   17.6385   50.6036  156.2234 H   0  0  0  0  0  0  0  0  0  0  0  0
   19.4397   52.1306  156.6697 H   0  0  0  0  0  0  0  0  0  0  0  0
   15.7798   51.6917  157.1211 H   0  0  0  0  0  0  0  0  0  0  0  0
   15.5718   52.7582  155.7157 H   0  0  0  0  0  0  0  0  0  0  0  0
  1  2  1  0
  1  6  1  0
  9  1  1  0
  2  3  1  0
  2  7  2  0
  3  4  2  0
  4  5  1  0
  4  8  1  0
  5  6  2  0
  9 10  1  0
  9 14  1  0
 10 11  1  0
 10 12  1  0
 12 13  1  0
 12 15  1  0
 13 14  1  0
 13 16  1  0
 16 17  1  0
 17 18  1  0
 18 19  2  0
 18 20  1  1
 18 21  1  0
 21 22  1  0
 22 23  2  0
 22 24  1  6
 22 25  1  0
 25 26  1  0
 26 27  2  0
 26 28  1  1
 26 29  1  0
  5 30  1  0
  6 31  1  0
  8 32  1  0
  8 33  1  0
  9 34  1  6
 10 35  1  1
 11 36  1  0
 12 37  1  1
 13 38  1  1
 15 39  1  0
 16 40  1  0
 16 41  1  0
M  CHG  4  20  -1  24  -1  28  -1  29  -1
M  END
>  <filename_input>  (16) 
7N7H_CTP_docked.sdf

>  <pdb_id>  (16) 
7N7H_CTP

>  <pose_rank>  (16) 
15

>  <num_atoms_heavy>  (16) 
29

>  <num_torsions>  (16) 
8

>  <pose>  (16) 
[17.832804705763287, 51.28520229584345, 153.2112637007173, 1.4242304193718869, 3.023717988721275, -0.3649784756068648, -0.709152628195959, -2.4217809061763274, -0.19299944542661807, 1.1106746268385217, -1.5933173138705004, -5.047870935609157, 0.21387639916340143, -3.6188226384555247]

>  <energy>  (16) 
-521.6821240773

>  <inter_energy>  (16) 
-580.7318579824579

>  <intra_energy>  (16) 
48.260278251873764

>  <rmsd>  (16) 
8.97586

>  <sdf_rank>  (16) 
0

$$$$

     RDKit          3D

 41 42  0  0  0  0  0  0  0  0999 V2000
   14.8950   50.8729  155.4338 N   0  0  0  0  0  0  0  0  0  0  0  0
   16.0654   51.1688  154.7784 C   0  0  0  0  0  0  0  0  0  0  0  0
   16.3800   50.4456  153.6772 N   0  0  0  0  0  0  0  0  0  0  0  0
   15.5255   49.4432  153.2789 C   0  0  0  0  0  0  0  0  0  0  0  0
   14.4012   49.0744  154.0071 C   0  0  0  0  0  0  0  0  0  0  0  0
   14.0832   49.8489  155.0833 C   0  0  0  0  0  0  0  0  0  0  0  0
   16.8205   52.1139  155.1437 O   0  0  0  0  0  0  0  0  0  0  0  0
   15.8913   48.8241  152.1321 N   0  0  0  0  0  0  0  0  0  0  0  0
   14.5710   51.6870  156.5996 C   0  0  1  0  0  0  0  0  0  0  0  0
   13.0681   51.8221  156.9324 C   0  0  2  0  0  0  0  0  0  0  0  0
   12.3958   52.7330  156.0652 O   0  0  0  0  0  0  0  0  0  0  0  0
   13.1012   52.1350  158.4286 C   0  0  1  0  0  0  0  0  0  0  0  0
   14.3578   51.4390  158.9675 C   0  0  2  0  0  0  0  0  0  0  0  0
   15.0655   51.0169  157.7988 O   0  0  0  0  0  0  0  0  0  0  0  0
   13.2648   53.5493  158.6287 O   0  0  0  0  0  0  0  0  0  0  0  0
   14.0056   50.1425  159.6861 C   0  0  0  0  0  0  0  0  0  0  0  0
   14.7480   50.1273  160.8815 O   0  0  0  0  0  0  0  0  0  0  0  0
   14.2107   49.4630  162.2248 P   0  0  2  0  0  0  0  0  0  0  0  0
   15.3512   49.0012  162.9972 O   0  0  0  0  0  0  0  0  0  0  0  0
   13.1449   48.4689  161.8572 O   0  0  0  0  0  0  0  0  0  0  0  0
   13.4803   50.7433  162.9656 O   0  0  0  0  0  0  0  0  0  0  0  0
   11.9472   51.1429  163.0777 P   0  0  1  0  0  0  0  0  0  0  0  0
   11.2037   50.1834  163.9714 O   0  0  0  0  0  0  0  0  0  0  0  0
   11.9606   52.6087  163.4245 O   0  0  0  0  0  0  0  0  0  0  0  0
   11.5439   50.9744  161.5560 O   0  0  0  0  0  0  0  0  0  0  0  0
   10.2295   51.5094  160.7264 P   0  0  2  0  0  0  0  0  0  0  0  0
   10.2573   50.8014  159.3921 O   0  0  0  0  0  0  0  0  0  0  0  0
   10.4445   53.0038  160.6480 O   0  0  0  0  0  0  0  0  0  0  0  0
    9.0309   51.1575  161.5577 O   0  0  0  0  0  0  0  0  0  0  0  0
   13.7961   48.1990  153.7286 H   0  0  0  0  0  0  0  0  0  0  0  0
   13.1716   49.6424  155.6633 H   0  0  0  0  0  0  0  0  0  0  0  0
   15.3145   48.0596  151.7529 H   0  0  0  0  0  0  0  0  0  0  0  0
   16.7465   49.1174  151.6387 H   0  0  0  0  0  0  0  0  0  0  0  0
   15.0048   52.6664  156.3496 H   0  0  0  0  0  0  0  0  0  0  0  0
   12.4510   50.9300  156.7493 H   0  0  0  0  0  0  0  0  0  0  0  0
   11.9032   53.4004  156.6055 H   0  0  0  0  0  0  0  0  0  0  0  0
   12.1763   51.8046  158.9240 H   0  0  0  0  0  0  0  0  0  0  0  0
   14.8990   52.1140  159.6468 H   0  0  0  0  0  0  0  0  0  0  0  0
   13.2874   53.7449  159.5989 H   0  0  0  0  0  0  0  0  0  0  0  0
   12.9287   50.1129  159.9085 H   0  0  0  0  0  0  0  0  0  0  0  0
   14.2425   49.2679  159.0625 H   0  0  0  0  0  0  0  0  0  0  0  0
  1  2  1  0
  1  6  1  0
  9  1  1  0
  2  3  1  0
  2  7  2  0
  3  4  2  0
  4  5  1  0
  4  8  1  0
  5  6  2  0
  9 10  1  0
  9 14  1  0
 10 11  1  0
 10 12  1  0
 12 13  1  0
 12 15  1  0
 13 14  1  0
 13 16  1  0
 16 17  1  0
 17 18  1  0
 18 19  2  0
 18 20  1  6
 18 21  1  0
 21 22  1  0
 22 23  2  0
 22 24  1  1
 22 25  1  0
 25 26  1  0
 26 27  2  0
 26 28  1  6
 26 29  1  0
  5 30  1  0
  6 31  1  0
  8 32  1  0
  8 33  1  0
  9 34  1  6
 10 35  1  1
 11 36  1  0
 12 37  1  1
 13 38  1  1
 15 39  1  0
 16 40  1  0
 16 41  1  0
M  CHG  4  20  -1  24  -1  28  -1  29  -1
M  END
>  <filename_input>  (17) 
7N7H_CTP_docked.sdf

>  <pdb_id>  (17) 
7N7H_CTP

>  <pose_rank>  (17) 
16

>  <num_atoms_heavy>  (17) 
29

>  <num_torsions>  (17) 
8

>  <pose>  (17) 
[14.571025464050205, 51.68699376907417, 156.59962015252304, 1.204277005269941, -2.8459388238477543, 0.8236349272090038, 0.4264002535706261, -1.0358347544904893, -18.72914942436213, -12.674459722746887, -14.180366138712355, -6.47549523983555, 0.3951750032938643, -1.2737612185824572]

>  <energy>  (17) 
-509.93944205199205

>  <inter_energy>  (17) 
-507.2181110174246

>  <intra_energy>  (17) 
16.923098252301987

>  <rmsd>  (17) 
8.65776

>  <sdf_rank>  (17) 
0

$$$$

     RDKit          3D

 41 42  0  0  0  0  0  0  0  0999 V2000
   10.9314   51.6889  158.9679 N   0  0  0  0  0  0  0  0  0  0  0  0
    9.8586   52.0991  159.7213 C   0  0  0  0  0  0  0  0  0  0  0  0
    8.6173   51.7510  159.3058 N   0  0  0  0  0  0  0  0  0  0  0  0
    8.4891   51.0211  158.1463 C   0  0  0  0  0  0  0  0  0  0  0  0
    9.5674   50.7041  157.3296 C   0  0  0  0  0  0  0  0  0  0  0  0
   10.8081   51.0252  157.7953 C   0  0  0  0  0  0  0  0  0  0  0  0
   10.0006   52.7428  160.7994 O   0  0  0  0  0  0  0  0  0  0  0  0
    7.2169   50.6650  157.8515 N   0  0  0  0  0  0  0  0  0  0  0  0
   12.2557   52.0562  159.4558 C   0  0  1  0  0  0  0  0  0  0  0  0
   13.1167   50.8985  160.0091 C   0  0  2  0  0  0  0  0  0  0  0  0
   12.7104   50.4900  161.3135 O   0  0  0  0  0  0  0  0  0  0  0  0
   14.5340   51.4422  159.8276 C   0  0  1  0  0  0  0  0  0  0  0  0
   14.4677   52.3659  158.6044 C   0  0  2  0  0  0  0  0  0  0  0  0
   13.0709   52.4992  158.3286 O   0  0  0  0  0  0  0  0  0  0  0  0
   14.8984   52.2457  160.9630 O   0  0  0  0  0  0  0  0  0  0  0  0
   15.0351   51.6836  157.3659 C   0  0  0  0  0  0  0  0  0  0  0  0
   13.9421   51.1383  156.6672 O   0  0  0  0  0  0  0  0  0  0  0  0
   13.9990   49.7221  155.9421 P   0  0  2  0  0  0  0  0  0  0  0  0
   13.3478   49.8416  154.6489 O   0  0  0  0  0  0  0  0  0  0  0  0
   13.4920   48.6862  156.9061 O   0  0  0  0  0  0  0  0  0  0  0  0
   15.6237   49.4999  155.7624 O   0  0  0  0  0  0  0  0  0  0  0  0
   16.5623   49.6742  154.4931 P   0  0  1  0  0  0  0  0  0  0  0  0
   17.1117   48.3449  154.0420 O   0  0  0  0  0  0  0  0  0  0  0  0
   15.7491   50.4977  153.5289 O   0  0  0  0  0  0  0  0  0  0  0  0
   17.6777   50.5901  155.1439 O   0  0  0  0  0  0  0  0  0  0  0  0
   18.8223   51.5461  154.4525 P   0  0  2  0  0  0  0  0  0  0  0  0
   18.0801   52.5126  153.5595 O   0  0  0  0  0  0  0  0  0  0  0  0
   19.7060   50.5646  153.7167 O   0  0  0  0  0  0  0  0  0  0  0  0
   19.5489   52.2205  155.5789 O   0  0  0  0  0  0  0  0  0  0  0  0
    9.4269   50.2170  156.3533 H   0  0  0  0  0  0  0  0  0  0  0  0
   11.7038   50.7462  157.2209 H   0  0  0  0  0  0  0  0  0  0  0  0
    7.0193   50.1163  157.0025 H   0  0  0  0  0  0  0  0  0  0  0  0
    6.4465   50.9427  158.4761 H   0  0  0  0  0  0  0  0  0  0  0  0
   12.0371   52.7912  160.2445 H   0  0  0  0  0  0  0  0  0  0  0  0
   13.0165   49.9327  159.4922 H   0  0  0  0  0  0  0  0  0  0  0  0
   13.2185   51.0008  161.9925 H   0  0  0  0  0  0  0  0  0  0  0  0
   15.2616   50.6250  159.7149 H   0  0  0  0  0  0  0  0  0  0  0  0
   15.0147   53.2984  158.8076 H   0  0  0  0  0  0  0  0  0  0  0  0
   14.6776   51.7588  161.7962 H   0  0  0  0  0  0  0  0  0  0  0  0
   15.5597   52.4171  156.7359 H   0  0  0  0  0  0  0  0  0  0  0  0
   15.7581   50.9017  157.6415 H   0  0  0  0  0  0  0  0  0  0  0  0
  1  2  1  0
  1  6  1  0
  9  1  1  0
  2  3  1  0
  2  7  2  0
  3  4  2  0
  4  5  1  0
  4  8  1  0
  5  6  2  0
  9 10  1  0
  9 14  1  0
 10 11  1  0
 10 12  1  0
 12 13  1  0
 12 15  1  0
 13 14  1  0
 13 16  1  0
 16 17  1  0
 17 18  1  0
 18 19  2  0
 18 20  1  1
 18 21  1  0
 21 22  1  0
 22 23  2  0
 22 24  1  6
 22 25  1  0
 25 26  1  0
 26 27  2  0
 26 28  1  6
 26 29  1  0
  5 30  1  0
  6 31  1  0
  8 32  1  0
  8 33  1  0
  9 34  1  1
 10 35  1  6
 11 36  1  0
 12 37  1  6
 13 38  1  1
 15 39  1  0
 16 40  1  0
 16 41  1  0
M  CHG  4  20  -1  24  -1  28  -1  29  -1
M  END
>  <filename_input>  (18) 
7N7H_CTP_docked.sdf

>  <pdb_id>  (18) 
7N7H_CTP

>  <pose_rank>  (18) 
17

>  <num_atoms_heavy>  (18) 
29

>  <num_torsions>  (18) 
8

>  <pose>  (18) 
[12.255675766474942, 52.056239495249436, 159.45579580211674, -2.977440849740056, 1.5319746471939988, 2.0954362772176243, 5.9465762044667905, 147.50729543708857, 202.43702115058912, 114.23674797195557, -118.26120168709328, -22.233359577699673, 0.42595253867092336, 2.6529302193343653]

>  <energy>  (18) 
-483.44486139274727

>  <inter_energy>  (18) 
-506.7907868792154

>  <intra_energy>  (18) 
21.886120840231975

>  <rmsd>  (18) 
3.76596

>  <sdf_rank>  (18) 
0

$$$$

     RDKit          3D

 41 42  0  0  0  0  0  0  0  0999 V2000
   14.4895   50.7376  155.7704 N   0  0  0  0  0  0  0  0  0  0  0  0
   15.4601   51.3305  155.0003 C   0  0  0  0  0  0  0  0  0  0  0  0
   15.9941   50.6126  153.9833 N   0  0  0  0  0  0  0  0  0  0  0  0
   15.5534   49.3248  153.7810 C   0  0  0  0  0  0  0  0  0  0  0  0
   14.6534   48.6918  154.6294 C   0  0  0  0  0  0  0  0  0  0  0  0
   14.0972   49.4520  155.6153 C   0  0  0  0  0  0  0  0  0  0  0  0
   15.8283   52.5252  155.1844 O   0  0  0  0  0  0  0  0  0  0  0  0
   16.0964   48.7146  152.7017 N   0  0  0  0  0  0  0  0  0  0  0  0
   13.9151   51.5454  156.8401 C   0  0  1  0  0  0  0  0  0  0  0  0
   12.5204   51.1085  157.3420 C   0  0  2  0  0  0  0  0  0  0  0  0
   11.4751   51.4850  156.4481 O   0  0  0  0  0  0  0  0  0  0  0  0
   12.5014   51.6768  158.7611 C   0  0  1  0  0  0  0  0  0  0  0  0
   13.9633   51.6722  159.2267 C   0  0  2  0  0  0  0  0  0  0  0  0
   14.7159   51.3717  158.0485 O   0  0  0  0  0  0  0  0  0  0  0  0
   12.0552   53.0434  158.7345 O   0  0  0  0  0  0  0  0  0  0  0  0
   14.2411   50.5024  160.1624 C   0  0  0  0  0  0  0  0  0  0  0  0
   12.9901   50.0116  160.5799 O   0  0  0  0  0  0  0  0  0  0  0  0
   12.5119   50.0424  162.0980 P   0  0  2  0  0  0  0  0  0  0  0  0
   13.1399   48.9364  162.8002 O   0  0  0  0  0  0  0  0  0  0  0  0
   11.0119   50.1392  162.1105 O   0  0  0  0  0  0  0  0  0  0  0  0
   13.1205   51.4862  162.6143 O   0  0  0  0  0  0  0  0  0  0  0  0
   13.0125   52.2162  164.0207 P   0  0  1  0  0  0  0  0  0  0  0  0
   12.2654   53.5195  163.8958 O   0  0  0  0  0  0  0  0  0  0  0  0
   12.4923   51.1589  164.9591 O   0  0  0  0  0  0  0  0  0  0  0  0
   14.5560   52.4379  164.2947 O   0  0  0  0  0  0  0  0  0  0  0  0
   15.6661   53.3600  163.5078 P   0  0  2  0  0  0  0  0  0  0  0  0
   16.8724   52.4758  163.2942 O   0  0  0  0  0  0  0  0  0  0  0  0
   15.8970   54.5185  164.4514 O   0  0  0  0  0  0  0  0  0  0  0  0
   15.0210   53.7997  162.2263 O   0  0  0  0  0  0  0  0  0  0  0  0
   14.4015   47.6275  154.5113 H   0  0  0  0  0  0  0  0  0  0  0  0
   13.3339   49.0225  156.2807 H   0  0  0  0  0  0  0  0  0  0  0  0
   15.8286   47.7480  152.4676 H   0  0  0  0  0  0  0  0  0  0  0  0
   16.7775   49.2169  152.1146 H   0  0  0  0  0  0  0  0  0  0  0  0
   13.8732   52.5521  156.3989 H   0  0  0  0  0  0  0  0  0  0  0  0
   12.3351   50.0245  157.3695 H   0  0  0  0  0  0  0  0  0  0  0  0
   10.6827   51.7704  156.9684 H   0  0  0  0  0  0  0  0  0  0  0  0
   11.8365   51.0924  159.4142 H   0  0  0  0  0  0  0  0  0  0  0  0
   14.2013   52.6226  159.7268 H   0  0  0  0  0  0  0  0  0  0  0  0
   11.9475   53.3735  159.6616 H   0  0  0  0  0  0  0  0  0  0  0  0
   14.7985   49.7166  159.6316 H   0  0  0  0  0  0  0  0  0  0  0  0
   14.8483   50.8200  161.0229 H   0  0  0  0  0  0  0  0  0  0  0  0
  1  2  1  0
  1  6  1  0
  9  1  1  0
  2  3  1  0
  2  7  2  0
  3  4  2  0
  4  5  1  0
  4  8  1  0
  5  6  2  0
  9 10  1  0
  9 14  1  0
 10 11  1  0
 10 12  1  0
 12 13  1  0
 12 15  1  0
 13 14  1  0
 13 16  1  0
 16 17  1  0
 17 18  1  0
 18 19  2  0
 18 20  1  6
 18 21  1  0
 21 22  1  0
 22 23  2  0
 22 24  1  1
 22 25  1  0
 25 26  1  0
 26 27  2  0
 26 28  1  1
 26 29  1  0
  5 30  1  0
  6 31  1  0
  8 32  1  0
  8 33  1  0
  9 34  1  6
 10 35  1  1
 11 36  1  0
 12 37  1  1
 13 38  1  1
 15 39  1  0
 16 40  1  0
 16 41  1  0
M  CHG  4  20  -1  24  -1  28  -1  29  -1
M  END
>  <filename_input>  (19) 
7N7H_CTP_docked.sdf

>  <pdb_id>  (19) 
7N7H_CTP

>  <pose_rank>  (19) 
18

>  <num_atoms_heavy>  (19) 
29

>  <num_torsions>  (19) 
8

>  <pose>  (19) 
[13.91510097690433, 51.545386838663255, 156.84014022870423, -1.7888084894995602, 2.382551511449767, -0.9396813694185676, 0.5146088927735664, -5.232287115687993, 1.8026597651432255, 2.152734812679669, -0.2723657269491698, 2.8407961599615272, -1.8816889769101182, -0.6434904629642064]

>  <energy>  (19) 
-503.8147301885872

>  <inter_energy>  (19) 
-520.7350441653215

>  <intra_energy>  (19) 
11.659898757551897

>  <rmsd>  (19) 
8.38732

>  <sdf_rank>  (19) 
0

$$$$

     RDKit          3D

 41 42  0  0  0  0  0  0  0  0999 V2000
   15.9059   50.4979  151.6799 N   0  0  0  0  0  0  0  0  0  0  0  0
   15.3802   49.9299  150.5450 C   0  0  0  0  0  0  0  0  0  0  0  0
   15.9822   50.1961  149.3612 N   0  0  0  0  0  0  0  0  0  0  0  0
   17.0757   51.0315  149.3492 C   0  0  0  0  0  0  0  0  0  0  0  0
   17.5356   51.6911  150.4822 C   0  0  0  0  0  0  0  0  0  0  0  0
   16.9416   51.3684  151.6664 C   0  0  0  0  0  0  0  0  0  0  0  0
   14.3937   49.1412  150.5826 O   0  0  0  0  0  0  0  0  0  0  0  0
   17.6470   51.1817  148.1313 N   0  0  0  0  0  0  0  0  0  0  0  0
   15.2521   50.1705  152.9417 C   0  0  1  0  0  0  0  0  0  0  0  0
   16.1234   49.4311  153.9819 C   0  0  2  0  0  0  0  0  0  0  0  0
   16.2928   48.0499  153.6704 O   0  0  0  0  0  0  0  0  0  0  0  0
   15.4315   49.7993  155.2946 C   0  0  1  0  0  0  0  0  0  0  0  0
   14.8161   51.1853  155.0616 C   0  0  2  0  0  0  0  0  0  0  0  0
   14.9512   51.4080  153.6555 O   0  0  0  0  0  0  0  0  0  0  0  0
   14.3558   48.8814  155.5544 O   0  0  0  0  0  0  0  0  0  0  0  0
   15.6615   52.2795  155.7015 C   0  0  0  0  0  0  0  0  0  0  0  0
   16.9967   52.0250  155.3372 O   0  0  0  0  0  0  0  0  0  0  0  0
   18.0433   53.1830  155.0240 P   0  0  2  0  0  0  0  0  0  0  0  0
   18.7516   53.5063  156.2506 O   0  0  0  0  0  0  0  0  0  0  0  0
   17.3157   54.2847  154.3055 O   0  0  0  0  0  0  0  0  0  0  0  0
   19.0485   52.4461  153.9432 O   0  0  0  0  0  0  0  0  0  0  0  0
   19.8175   51.0585  154.0182 P   0  0  1  0  0  0  0  0  0  0  0  0
   19.4255   50.2908  155.2547 O   0  0  0  0  0  0  0  0  0  0  0  0
   19.6029   50.4311  152.6657 O   0  0  0  0  0  0  0  0  0  0  0  0
   21.2991   51.6101  154.1039 O   0  0  0  0  0  0  0  0  0  0  0  0
   21.8730   53.1502  154.1334 P   0  0  2  0  0  0  0  0  0  0  0  0
   23.0341   53.1852  153.1674 O   0  0  0  0  0  0  0  0  0  0  0  0
   22.2554   53.3579  155.5813 O   0  0  0  0  0  0  0  0  0  0  0  0
   20.7339   54.0356  153.7210 O   0  0  0  0  0  0  0  0  0  0  0  0
   18.3408   52.4384  150.4266 H   0  0  0  0  0  0  0  0  0  0  0  0
   17.3024   51.8133  152.6054 H   0  0  0  0  0  0  0  0  0  0  0  0
   18.4721   51.7881  148.0207 H   0  0  0  0  0  0  0  0  0  0  0  0
   17.2565   50.6895  147.3150 H   0  0  0  0  0  0  0  0  0  0  0  0
   14.4029   49.5452  152.6289 H   0  0  0  0  0  0  0  0  0  0  0  0
   17.1826   49.7253  154.0209 H   0  0  0  0  0  0  0  0  0  0  0  0
   16.3568   47.5279  154.5091 H   0  0  0  0  0  0  0  0  0  0  0  0
   16.1386   49.7749  156.1368 H   0  0  0  0  0  0  0  0  0  0  0  0
   13.7922   51.2141  155.4626 H   0  0  0  0  0  0  0  0  0  0  0  0
   14.2372   48.7802  156.5321 H   0  0  0  0  0  0  0  0  0  0  0  0
   15.3488   53.2663  155.3296 H   0  0  0  0  0  0  0  0  0  0  0  0
   15.5437   52.2814  156.7952 H   0  0  0  0  0  0  0  0  0  0  0  0
  1  2  1  0
  1  6  1  0
  9  1  1  0
  2  3  1  0
  2  7  2  0
  3  4  2  0
  4  5  1  0
  4  8  1  0
  5  6  2  0
  9 10  1  0
  9 14  1  0
 10 11  1  0
 10 12  1  0
 12 13  1  0
 12 15  1  0
 13 14  1  0
 13 16  1  0
 16 17  1  0
 17 18  1  0
 18 19  2  0
 18 20  1  6
 18 21  1  0
 21 22  1  0
 22 23  2  0
 22 24  1  6
 22 25  1  0
 25 26  1  0
 26 27  2  0
 26 28  1  1
 26 29  1  0
  5 30  1  0
  6 31  1  0
  8 32  1  0
  8 33  1  0
  9 34  1  6
 10 35  1  1
 11 36  1  0
 12 37  1  1
 13 38  1  1
 15 39  1  0
 16 40  1  0
 16 41  1  0
M  CHG  4  20  -1  24  -1  28  -1  29  -1
M  END
>  <filename_input>  (20) 
7N7H_CTP_docked.sdf

>  <pdb_id>  (20) 
7N7H_CTP

>  <pose_rank>  (20) 
19

>  <num_atoms_heavy>  (20) 
29

>  <num_torsions>  (20) 
8

>  <pose>  (20) 
[15.252051733675547, 50.17052341366732, 152.9416924665697, 3.1272651603630086, 0.3777315527262319, 0.6367654427588646, -0.18482896689031175, 2.140206460191892, 0.06230266279127429, -1.1345935432576852, 1.9994882333150894, -1.309880335964293, -3.0072094094236537, -0.6826426162743008]

>  <energy>  (20) 
-389.0834396545962

>  <inter_energy>  (20) 
-475.06993257153636

>  <intra_energy>  (20) 
85.79253367584062

>  <rmsd>  (20) 
7.32204

>  <sdf_rank>  (20) 
0

$$$$

     RDKit          3D

 41 42  0  0  0  0  0  0  0  0999 V2000
   14.9000   50.6469  155.8183 N   0  0  0  0  0  0  0  0  0  0  0  0
   15.0492   51.0471  154.5127 C   0  0  0  0  0  0  0  0  0  0  0  0
   15.5534   50.1557  153.6263 N   0  0  0  0  0  0  0  0  0  0  0  0
   15.9060   48.9038  154.0761 C   0  0  0  0  0  0  0  0  0  0  0  0
   15.8575   48.5408  155.4163 C   0  0  0  0  0  0  0  0  0  0  0  0
   15.3023   49.4398  156.2782 C   0  0  0  0  0  0  0  0  0  0  0  0
   14.6905   52.1915  154.1148 O   0  0  0  0  0  0  0  0  0  0  0  0
   16.3353   48.0647  153.1047 N   0  0  0  0  0  0  0  0  0  0  0  0
   14.3294   51.6200  156.7426 C   0  0  1  0  0  0  0  0  0  0  0  0
   14.4530   51.2781  158.2445 C   0  0  2  0  0  0  0  0  0  0  0  0
   13.5176   50.2842  158.6576 O   0  0  0  0  0  0  0  0  0  0  0  0
   14.3760   52.6609  158.8922 C   0  0  1  0  0  0  0  0  0  0  0  0
   14.9706   53.6316  157.8635 C   0  0  2  0  0  0  0  0  0  0  0  0
   15.1052   52.8548  156.6705 O   0  0  0  0  0  0  0  0  0  0  0  0
   13.0012   53.0289  159.0968 O   0  0  0  0  0  0  0  0  0  0  0  0
   16.3990   54.0160  158.2286 C   0  0  0  0  0  0  0  0  0  0  0  0
   16.7804   55.0431  157.3455 O   0  0  0  0  0  0  0  0  0  0  0  0
   18.2883   55.5264  157.1809 P   0  0  2  0  0  0  0  0  0  0  0  0
   18.7391   56.0666  158.4520 O   0  0  0  0  0  0  0  0  0  0  0  0
   18.3644   56.4036  155.9626 O   0  0  0  0  0  0  0  0  0  0  0  0
   19.0613   54.1098  156.8385 O   0  0  0  0  0  0  0  0  0  0  0  0
   20.3175   53.8084  155.9146 P   0  0  1  0  0  0  0  0  0  0  0  0
   21.1157   55.0622  155.6637 O   0  0  0  0  0  0  0  0  0  0  0  0
   20.9910   52.6267  156.5620 O   0  0  0  0  0  0  0  0  0  0  0  0
   19.5501   53.3210  154.6184 O   0  0  0  0  0  0  0  0  0  0  0  0
   19.5676   51.8739  153.8389 P   0  0  2  0  0  0  0  0  0  0  0  0
   20.9794   51.6837  153.3359 O   0  0  0  0  0  0  0  0  0  0  0  0
   18.5320   52.0454  152.7507 O   0  0  0  0  0  0  0  0  0  0  0  0
   19.1556   50.8430  154.8484 O   0  0  0  0  0  0  0  0  0  0  0  0
   16.2486   47.5738  155.7656 H   0  0  0  0  0  0  0  0  0  0  0  0
   15.1821   49.1849  157.3415 H   0  0  0  0  0  0  0  0  0  0  0  0
   16.6219   47.1046  153.3431 H   0  0  0  0  0  0  0  0  0  0  0  0
   16.3755   48.3864  152.1270 H   0  0  0  0  0  0  0  0  0  0  0  0
   13.2733   51.6652  156.4384 H   0  0  0  0  0  0  0  0  0  0  0  0
   15.3809   50.7722  158.5496 H   0  0  0  0  0  0  0  0  0  0  0  0
   13.4865   50.2511  159.6466 H   0  0  0  0  0  0  0  0  0  0  0  0
   14.9019   52.6769  159.8581 H   0  0  0  0  0  0  0  0  0  0  0  0
   14.3429   54.5318  157.7897 H   0  0  0  0  0  0  0  0  0  0  0  0
   12.8140   53.0790  160.0677 H   0  0  0  0  0  0  0  0  0  0  0  0
   16.4412   54.3745  159.2676 H   0  0  0  0  0  0  0  0  0  0  0  0
   17.0746   53.1518  158.1452 H   0  0  0  0  0  0  0  0  0  0  0  0
  1  2  1  0
  1  6  1  0
  9  1  1  0
  2  3  1  0
  2  7  2  0
  3  4  2  0
  4  5  1  0
  4  8  1  0
  5  6  2  0
  9 10  1  0
  9 14  1  0
 10 11  1  0
 10 12  1  0
 12 13  1  0
 12 15  1  0
 13 14  1  0
 13 16  1  0
 16 17  1  0
 17 18  1  0
 18 19  2  0
 18 20  1  6
 18 21  1  0
 21 22  1  0
 22 23  2  0
 22 24  1  1
 22 25  1  0
 25 26  1  0
 26 27  2  0
 26 28  1  6
 26 29  1  0
  5 30  1  0
  6 31  1  0
  8 32  1  0
  8 33  1  0
  9 34  1  6
 10 35  1  6
 11 36  1  0
 12 37  1  1
 13 38  1  6
 15 39  1  0
 16 40  1  0
 16 41  1  0
M  CHG  4  20  -1  24  -1  28  -1  29  -1
M  END
>  <filename_input>  (21) 
7N7H_CTP_docked.sdf

>  <pdb_id>  (21) 
7N7H_CTP

>  <pose_rank>  (21) 
20

>  <num_atoms_heavy>  (21) 
29

>  <num_torsions>  (21) 
8

>  <pose>  (21) 
[14.329434787644367, 51.620041380763084, 156.74257896428935, 2.2945852611409667, -0.5865864096173595, 0.608806702474452, 1.1225947905376443, -1.6765857510006343, 0.9226166567916123, -10.122959143327066, -0.8256503465993537, -1.07106847338084, 1.198091753360549, 0.5584993294234752]

>  <energy>  (21) 
-416.76081796288685

>  <inter_energy>  (21) 
-436.87565253296896

>  <intra_energy>  (21) 
29.893023382502932

>  <rmsd>  (21) 
5.68866

>  <sdf_rank>  (21) 
0

$$$$

     RDKit          3D

 41 42  0  0  0  0  0  0  0  0999 V2000
   17.3836   51.0547  154.3362 N   0  0  0  0  0  0  0  0  0  0  0  0
   16.7883   50.7403  153.1388 C   0  0  0  0  0  0  0  0  0  0  0  0
   15.7003   49.9339  153.1601 N   0  0  0  0  0  0  0  0  0  0  0  0
   15.2549   49.4569  154.3716 C   0  0  0  0  0  0  0  0  0  0  0  0
   15.9248   49.6867  155.5669 C   0  0  0  0  0  0  0  0  0  0  0  0
   16.9881   50.5392  155.5230 C   0  0  0  0  0  0  0  0  0  0  0  0
   17.1955   51.2141  152.0404 O   0  0  0  0  0  0  0  0  0  0  0  0
   14.1244   48.7165  154.2958 N   0  0  0  0  0  0  0  0  0  0  0  0
   18.5363   51.9465  154.2827 C   0  0  1  0  0  0  0  0  0  0  0  0
   18.2213   53.4460  154.0824 C   0  0  2  0  0  0  0  0  0  0  0  0
   17.8737   53.7564  152.7347 O   0  0  0  0  0  0  0  0  0  0  0  0
   19.4579   54.1133  154.6849 C   0  0  1  0  0  0  0  0  0  0  0  0
   19.9468   53.1600  155.7832 C   0  0  2  0  0  0  0  0  0  0  0  0
   19.1818   51.9671  155.5920 O   0  0  0  0  0  0  0  0  0  0  0  0
   20.4950   54.2065  153.6934 O   0  0  0  0  0  0  0  0  0  0  0  0
   19.5387   53.6545  157.1653 C   0  0  0  0  0  0  0  0  0  0  0  0
   20.2824   54.8230  157.4135 O   0  0  0  0  0  0  0  0  0  0  0  0
   20.0970   55.7034  158.7268 P   0  0  2  0  0  0  0  0  0  0  0  0
   20.1253   54.8202  159.8800 O   0  0  0  0  0  0  0  0  0  0  0  0
   18.8955   56.5848  158.5292 O   0  0  0  0  0  0  0  0  0  0  0  0
   21.4419   56.6579  158.6860 O   0  0  0  0  0  0  0  0  0  0  0  0
   21.9972   57.7163  159.7319 P   0  0  1  0  0  0  0  0  0  0  0  0
   23.1695   58.4735  159.1621 O   0  0  0  0  0  0  0  0  0  0  0  0
   20.7797   58.4796  160.1835 O   0  0  0  0  0  0  0  0  0  0  0  0
   22.4347   56.7145  160.8771 O   0  0  0  0  0  0  0  0  0  0  0  0
   23.2800   56.9694  162.2637 P   0  0  2  0  0  0  0  0  0  0  0  0
   24.6982   57.2746  161.8419 O   0  0  0  0  0  0  0  0  0  0  0  0
   23.1167   55.6714  163.0215 O   0  0  0  0  0  0  0  0  0  0  0  0
   22.6114   58.1160  162.9636 O   0  0  0  0  0  0  0  0  0  0  0  0
   15.6122   49.2037  156.5044 H   0  0  0  0  0  0  0  0  0  0  0  0
   17.5213   50.8063  156.4473 H   0  0  0  0  0  0  0  0  0  0  0  0
   13.7131   48.3153  155.1507 H   0  0  0  0  0  0  0  0  0  0  0  0
   13.6753   48.5541  153.3831 H   0  0  0  0  0  0  0  0  0  0  0  0
   19.1179   51.5535  153.4357 H   0  0  0  0  0  0  0  0  0  0  0  0
   17.3139   53.8192  154.5797 H   0  0  0  0  0  0  0  0  0  0  0  0
   17.1353   54.4157  152.7278 H   0  0  0  0  0  0  0  0  0  0  0  0
   19.2234   55.1210  155.0582 H   0  0  0  0  0  0  0  0  0  0  0  0
   21.0400   53.0512  155.7271 H   0  0  0  0  0  0  0  0  0  0  0  0
   21.3741   54.2856  154.1418 H   0  0  0  0  0  0  0  0  0  0  0  0
   18.4620   53.8793  157.1847 H   0  0  0  0  0  0  0  0  0  0  0  0
   19.7347   52.8907  157.9323 H   0  0  0  0  0  0  0  0  0  0  0  0
  1  2  1  0
  1  6  1  0
  9  1  1  0
  2  3  1  0
  2  7  2  0
  3  4  2  0
  4  5  1  0
  4  8  1  0
  5  6  2  0
  9 10  1  0
  9 14  1  0
 10 11  1  0
 10 12  1  0
 12 13  1  0
 12 15  1  0
 13 14  1  0
 13 16  1  0
 16 17  1  0
 17 18  1  0
 18 19  2  0
 18 20  1  6
 18 21  1  0
 21 22  1  0
 22 23  2  0
 22 24  1  1
 22 25  1  0
 25 26  1  0
 26 27  2  0
 26 28  1  1
 26 29  1  0
  5 30  1  0
  6 31  1  0
  8 32  1  0
  8 33  1  0
  9 34  1  6
 10 35  1  1
 11 36  1  0
 12 37  1  1
 13 38  1  1
 15 39  1  0
 16 40  1  0
 16 41  1  0
M  CHG  4  20  -1  24  -1  28  -1  29  -1
M  END
>  <filename_input>  (22) 
7N7H_CTP_docked.sdf

>  <pdb_id>  (22) 
7N7H_CTP

>  <pose_rank>  (22) 
21

>  <num_atoms_heavy>  (22) 
29

>  <num_torsions>  (22) 
8

>  <pose>  (22) 
[18.536304702433085, 51.946460495687234, 154.28266095292486, 0.5580305133870869, 3.2540169795771248, -2.311115400258096, -0.8948989405174058, 0.12280231898347843, -5.646514334603029, -1.8965930742637194, -0.15213914134760378, 1.8637001705350607, -0.028579862359563477, 0.4516036006357105]

>  <energy>  (22) 
-408.8818464009404

>  <inter_energy>  (22) 
-425.9636038855078

>  <intra_energy>  (22) 
27.04435613661738

>  <rmsd>  (22) 
8.80806

>  <sdf_rank>  (22) 
0

$$$$

     RDKit          3D

 41 42  0  0  0  0  0  0  0  0999 V2000
   22.6441   57.4480  162.4264 N   0  0  0  0  0  0  0  0  0  0  0  0
   22.4773   57.9956  163.6751 C   0  0  0  0  0  0  0  0  0  0  0  0
   23.4159   57.7348  164.6162 N   0  0  0  0  0  0  0  0  0  0  0  0
   24.4775   56.9247  164.2839 C   0  0  0  0  0  0  0  0  0  0  0  0
   24.5840   56.2841  163.0556 C   0  0  0  0  0  0  0  0  0  0  0  0
   23.6518   56.6016  162.1125 C   0  0  0  0  0  0  0  0  0  0  0  0
   21.5107   58.7616  163.9500 O   0  0  0  0  0  0  0  0  0  0  0  0
   25.3949   56.7790  165.2684 N   0  0  0  0  0  0  0  0  0  0  0  0
   21.6312   57.7693  161.4276 C   0  0  1  0  0  0  0  0  0  0  0  0
   22.1530   58.3898  160.1120 C   0  0  2  0  0  0  0  0  0  0  0  0
   22.4985   59.7658  160.2559 O   0  0  0  0  0  0  0  0  0  0  0  0
   21.0456   58.0192  159.1252 C   0  0  1  0  0  0  0  0  0  0  0  0
   20.4594   56.6983  159.6405 C   0  0  2  0  0  0  0  0  0  0  0  0
   21.0376   56.5289  160.9374 O   0  0  0  0  0  0  0  0  0  0  0  0
   20.0017   59.0070  159.1683 O   0  0  0  0  0  0  0  0  0  0  0  0
   20.9786   55.5129  158.8363 C   0  0  0  0  0  0  0  0  0  0  0  0
   19.9073   55.0605  158.0440 O   0  0  0  0  0  0  0  0  0  0  0  0
   20.1131   54.3693  156.6247 P   0  0  2  0  0  0  0  0  0  0  0  0
   21.2484   53.4670  156.7132 O   0  0  0  0  0  0  0  0  0  0  0  0
   20.1375   55.4506  155.5808 O   0  0  0  0  0  0  0  0  0  0  0  0
   18.7057   53.5261  156.4527 O   0  0  0  0  0  0  0  0  0  0  0  0
   18.2969   52.3846  155.4268 P   0  0  1  0  0  0  0  0  0  0  0  0
   18.4195   51.0218  156.0592 O   0  0  0  0  0  0  0  0  0  0  0  0
   16.9631   52.8234  154.8814 O   0  0  0  0  0  0  0  0  0  0  0  0
   19.4123   52.6361  154.3317 O   0  0  0  0  0  0  0  0  0  0  0  0
   20.4720   51.6011  153.6189 P   0  0  2  0  0  0  0  0  0  0  0  0
   19.7354   50.9800  152.4552 O   0  0  0  0  0  0  0  0  0  0  0  0
   20.8225   50.6344  154.7272 O   0  0  0  0  0  0  0  0  0  0  0  0
   21.6531   52.4258  153.1989 O   0  0  0  0  0  0  0  0  0  0  0  0
   25.3827   55.5551  162.8536 H   0  0  0  0  0  0  0  0  0  0  0  0
   23.7187   56.1719  161.1021 H   0  0  0  0  0  0  0  0  0  0  0  0
   26.2265   56.1909  165.1145 H   0  0  0  0  0  0  0  0  0  0  0  0
   25.2615   57.2561  166.1714 H   0  0  0  0  0  0  0  0  0  0  0  0
   20.9722   58.4735  161.9566 H   0  0  0  0  0  0  0  0  0  0  0  0
   23.1201   58.0111  159.7499 H   0  0  0  0  0  0  0  0  0  0  0  0
   22.5556   59.9929  161.2179 H   0  0  0  0  0  0  0  0  0  0  0  0
   21.4350   57.9497  158.0988 H   0  0  0  0  0  0  0  0  0  0  0  0
   19.3608   56.7329  159.5983 H   0  0  0  0  0  0  0  0  0  0  0  0
   19.7825   59.2146  160.1111 H   0  0  0  0  0  0  0  0  0  0  0  0
   21.8168   55.8268  158.1969 H   0  0  0  0  0  0  0  0  0  0  0  0
   21.3444   54.7151  159.4995 H   0  0  0  0  0  0  0  0  0  0  0  0
  1  2  1  0
  1  6  1  0
  9  1  1  0
  2  3  1  0
  2  7  2  0
  3  4  2  0
  4  5  1  0
  4  8  1  0
  5  6  2  0
  9 10  1  0
  9 14  1  0
 10 11  1  0
 10 12  1  0
 12 13  1  0
 12 15  1  0
 13 14  1  0
 13 16  1  0
 16 17  1  0
 17 18  1  0
 18 19  2  0
 18 20  1  6
 18 21  1  0
 21 22  1  0
 22 23  2  0
 22 24  1  6
 22 25  1  0
 25 26  1  0
 26 27  2  0
 26 28  1  1
 26 29  1  0
  5 30  1  0
  6 31  1  0
  8 32  1  0
  8 33  1  0
  9 34  1  1
 10 35  1  6
 11 36  1  0
 12 37  1  6
 13 38  1  1
 15 39  1  0
 16 40  1  0
 16 41  1  0
M  CHG  4  20  -1  24  -1  28  -1  29  -1
M  END
>  <filename_input>  (23) 
7N7H_CTP_docked.sdf

>  <pdb_id>  (23) 
7N7H_CTP

>  <pose_rank>  (23) 
22

>  <num_atoms_heavy>  (23) 
29

>  <num_torsions>  (23) 
8

>  <pose>  (23) 
[21.63121855731179, 57.769330418811755, 161.42756161432445, -0.0102963014722431, 0.7237796233961877, -0.33239766947449123, -0.06694751781623043, -0.5628218592693544, 0.17111020858813952, -2.0302701720034504, -0.01246638209191353, 6.606268148862562, -0.7770329151602284, -3.1254471502103356]

>  <energy>  (23) 
-304.380134266656

>  <inter_energy>  (23) 
-300.8692963849829

>  <intra_energy>  (23) 
16.379790966255513

>  <rmsd>  (23) 
9.13151

>  <sdf_rank>  (23) 
0

$$$$

     RDKit          3D

 41 42  0  0  0  0  0  0  0  0999 V2000
   13.0826   50.9724  159.5867 N   0  0  0  0  0  0  0  0  0  0  0  0
   12.0772   51.5064  160.3555 C   0  0  0  0  0  0  0  0  0  0  0  0
   12.1984   51.4353  161.7026 N   0  0  0  0  0  0  0  0  0  0  0  0
   13.3086   50.8204  162.2346 C   0  0  0  0  0  0  0  0  0  0  0  0
   14.2668   50.1844  161.4551 C   0  0  0  0  0  0  0  0  0  0  0  0
   14.1448   50.3124  160.1031 C   0  0  0  0  0  0  0  0  0  0  0  0
   11.0810   52.0938  159.8464 O   0  0  0  0  0  0  0  0  0  0  0  0
   13.3716   50.8596  163.5862 N   0  0  0  0  0  0  0  0  0  0  0  0
   12.9360   51.0886  158.1404 C   0  0  1  0  0  0  0  0  0  0  0  0
   13.9699   51.9887  157.4270 C   0  0  2  0  0  0  0  0  0  0  0  0
   13.6984   53.3777  157.6019 O   0  0  0  0  0  0  0  0  0  0  0  0
   13.9596   51.4204  156.0077 C   0  0  1  0  0  0  0  0  0  0  0  0
   13.6166   49.9330  156.1617 C   0  0  2  0  0  0  0  0  0  0  0  0
   13.2208   49.7939  157.5288 O   0  0  0  0  0  0  0  0  0  0  0  0
   12.9084   52.0346  155.2429 O   0  0  0  0  0  0  0  0  0  0  0  0
   14.8615   49.0635  156.0373 C   0  0  0  0  0  0  0  0  0  0  0  0
   15.3454   49.2339  154.7270 O   0  0  0  0  0  0  0  0  0  0  0  0
   15.9505   50.6091  154.2007 P   0  0  2  0  0  0  0  0  0  0  0  0
   15.8693   51.5869  155.2722 O   0  0  0  0  0  0  0  0  0  0  0  0
   15.2967   50.9314  152.8861 O   0  0  0  0  0  0  0  0  0  0  0  0
   17.5193   50.1952  153.9021 O   0  0  0  0  0  0  0  0  0  0  0  0
   18.8750   50.9542  154.2315 P   0  0  1  0  0  0  0  0  0  0  0  0
   19.4363   50.5050  155.5564 O   0  0  0  0  0  0  0  0  0  0  0  0
   19.7111   50.7961  152.9885 O   0  0  0  0  0  0  0  0  0  0  0  0
   18.3129   52.4330  154.2929 O   0  0  0  0  0  0  0  0  0  0  0  0
   19.0929   53.8766  154.3897 P   0  0  2  0  0  0  0  0  0  0  0  0
   19.1324   54.2362  155.8566 O   0  0  0  0  0  0  0  0  0  0  0  0
   18.2434   54.7957  153.5415 O   0  0  0  0  0  0  0  0  0  0  0  0
   20.4546   53.6639  153.7962 O   0  0  0  0  0  0  0  0  0  0  0  0
   15.0853   49.6051  161.9073 H   0  0  0  0  0  0  0  0  0  0  0  0
   14.9058   49.8813  159.4359 H   0  0  0  0  0  0  0  0  0  0  0  0
   14.1661   50.4257  164.0775 H   0  0  0  0  0  0  0  0  0  0  0  0
   12.6250   51.3234  164.1233 H   0  0  0  0  0  0  0  0  0  0  0  0
   11.9199   51.4932  158.0233 H   0  0  0  0  0  0  0  0  0  0  0  0
   14.9919   51.9652  157.8330 H   0  0  0  0  0  0  0  0  0  0  0  0
   13.6576   53.5868  158.5687 H   0  0  0  0  0  0  0  0  0  0  0  0
   14.9217   51.5936  155.5035 H   0  0  0  0  0  0  0  0  0  0  0  0
   12.8719   49.6390  155.4074 H   0  0  0  0  0  0  0  0  0  0  0  0
   12.2384   52.4261  155.8577 H   0  0  0  0  0  0  0  0  0  0  0  0
   15.6210   49.3826  156.7662 H   0  0  0  0  0  0  0  0  0  0  0  0
   14.6279   48.0075  156.2382 H   0  0  0  0  0  0  0  0  0  0  0  0
  1  2  1  0
  1  6  1  0
  9  1  1  0
  2  3  1  0
  2  7  2  0
  3  4  2  0
  4  5  1  0
  4  8  1  0
  5  6  2  0
  9 10  1  0
  9 14  1  0
 10 11  1  0
 10 12  1  0
 12 13  1  0
 12 15  1  0
 13 14  1  0
 13 16  1  0
 16 17  1  0
 17 18  1  0
 18 19  2  0
 18 20  1  6
 18 21  1  0
 21 22  1  0
 22 23  2  0
 22 24  1  6
 22 25  1  0
 25 26  1  0
 26 27  2  0
 26 28  1  6
 26 29  1  0
  5 30  1  0
  6 31  1  0
  8 32  1  0
  8 33  1  0
  9 34  1  1
 10 35  1  1
 11 36  1  0
 12 37  1  6
 13 38  1  6
 15 39  1  0
 16 40  1  0
 16 41  1  0
M  CHG  4  20  -1  24  -1  28  -1  29  -1
M  END
>  <filename_input>  (24) 
7N7H_CTP_docked.sdf

>  <pdb_id>  (24) 
7N7H_CTP

>  <pose_rank>  (24) 
23

>  <num_atoms_heavy>  (24) 
29

>  <num_torsions>  (24) 
8

>  <pose>  (24) 
[12.936030888350693, 51.08862238587851, 158.14043085601327, 4.4990795772741725, 4.22256592347766, -1.1206778358440692, 6.025682067082951, -6.078883640757988, -1.2733238751917173, -2.7698155974285847, 6.804125113630584, 6.4934371060814104, 0.2791184380000572, 0.0020164795878529207]

>  <energy>  (24) 
-840.652639722349

>  <inter_energy>  (24) 
-1004.7904976374176

>  <intra_energy>  (24) 
165.92633737449574

>  <rmsd>  (24) 
1.9412

>  <sdf_rank>  (24) 
0

$$$$

     RDKit          3D

 41 42  0  0  0  0  0  0  0  0999 V2000
   20.6069   55.3527  158.0532 N   0  0  0  0  0  0  0  0  0  0  0  0
   21.4401   56.3979  158.3699 C   0  0  0  0  0  0  0  0  0  0  0  0
   21.6085   56.7052  159.6783 N   0  0  0  0  0  0  0  0  0  0  0  0
   20.9281   55.9706  160.6224 C   0  0  0  0  0  0  0  0  0  0  0  0
   20.0023   54.9885  160.2929 C   0  0  0  0  0  0  0  0  0  0  0  0
   19.8881   54.6679  158.9724 C   0  0  0  0  0  0  0  0  0  0  0  0
   22.0790   57.0397  157.4886 O   0  0  0  0  0  0  0  0  0  0  0  0
   21.2138   56.3088  161.9015 N   0  0  0  0  0  0  0  0  0  0  0  0
   20.4675   55.0293  156.6380 C   0  0  1  0  0  0  0  0  0  0  0  0
   21.2472   53.7880  156.1489 C   0  0  2  0  0  0  0  0  0  0  0  0
   22.6406   54.0455  155.9893 O   0  0  0  0  0  0  0  0  0  0  0  0
   20.4407   53.3711  154.9188 C   0  0  1  0  0  0  0  0  0  0  0  0
   18.9971   53.8039  155.2061 C   0  0  2  0  0  0  0  0  0  0  0  0
   19.0912   54.6172  156.3786 O   0  0  0  0  0  0  0  0  0  0  0  0
   20.8949   54.1010  153.7662 O   0  0  0  0  0  0  0  0  0  0  0  0
   18.1404   52.6191  155.6345 C   0  0  0  0  0  0  0  0  0  0  0  0
   16.8241   52.9018  155.2248 O   0  0  0  0  0  0  0  0  0  0  0  0
   15.7284   51.7702  154.9940 P   0  0  2  0  0  0  0  0  0  0  0  0
   15.0818   52.0107  153.7154 O   0  0  0  0  0  0  0  0  0  0  0  0
   14.8717   51.6950  156.2267 O   0  0  0  0  0  0  0  0  0  0  0  0
   16.6573   50.4082  154.9344 O   0  0  0  0  0  0  0  0  0  0  0  0
   16.6680   49.2020  153.9012 P   0  0  1  0  0  0  0  0  0  0  0  0
   16.5277   47.8808  154.6131 O   0  0  0  0  0  0  0  0  0  0  0  0
   15.6512   49.5856  152.8582 O   0  0  0  0  0  0  0  0  0  0  0  0
   18.1214   49.4078  153.3079 O   0  0  0  0  0  0  0  0  0  0  0  0
   19.0331   50.7656  153.1431 P   0  0  2  0  0  0  0  0  0  0  0  0
   18.1315   51.8048  152.5189 O   0  0  0  0  0  0  0  0  0  0  0  0
   20.1781   50.3186  152.2627 O   0  0  0  0  0  0  0  0  0  0  0  0
   19.4963   51.1357  154.5215 O   0  0  0  0  0  0  0  0  0  0  0  0
   19.3904   54.4928  161.0609 H   0  0  0  0  0  0  0  0  0  0  0  0
   19.2152   53.8572  158.6563 H   0  0  0  0  0  0  0  0  0  0  0  0
   20.7541   55.8149  162.6797 H   0  0  0  0  0  0  0  0  0  0  0  0
   21.8910   57.0599  162.0967 H   0  0  0  0  0  0  0  0  0  0  0  0
   20.8284   55.9393  156.1364 H   0  0  0  0  0  0  0  0  0  0  0  0
   21.3119   52.9487  156.8570 H   0  0  0  0  0  0  0  0  0  0  0  0
   23.0658   54.1241  156.8799 H   0  0  0  0  0  0  0  0  0  0  0  0
   20.5398   52.2928  154.7255 H   0  0  0  0  0  0  0  0  0  0  0  0
   18.5640   54.2826  154.3155 H   0  0  0  0  0  0  0  0  0  0  0  0
   21.3943   54.9038  154.0598 H   0  0  0  0  0  0  0  0  0  0  0  0
   18.4982   51.6982  155.1508 H   0  0  0  0  0  0  0  0  0  0  0  0
   18.1917   52.4670  156.7227 H   0  0  0  0  0  0  0  0  0  0  0  0
  1  2  1  0
  1  6  1  0
  9  1  1  0
  2  3  1  0
  2  7  2  0
  3  4  2  0
  4  5  1  0
  4  8  1  0
  5  6  2  0
  9 10  1  0
  9 14  1  0
 10 11  1  0
 10 12  1  0
 12 13  1  0
 12 15  1  0
 13 14  1  0
 13 16  1  0
 16 17  1  0
 17 18  1  0
 18 19  2  0
 18 20  1  1
 18 21  1  0
 21 22  1  0
 22 23  2  0
 22 24  1  6
 22 25  1  0
 25 26  1  0
 26 27  2  0
 26 28  1  6
 26 29  1  0
  5 30  1  0
  6 31  1  0
  8 32  1  0
  8 33  1  0
  9 34  1  6
 10 35  1  1
 11 36  1  0
 12 37  1  6
 13 38  1  6
 15 39  1  0
 16 40  1  0
 16 41  1  0
M  CHG  4  20  -1  24  -1  28  -1  29  -1
M  END
>  <filename_input>  (25) 
7N7H_CTP_docked.sdf

>  <pdb_id>  (25) 
7N7H_CTP

>  <pose_rank>  (25) 
24

>  <num_atoms_heavy>  (25) 
29

>  <num_torsions>  (25) 
8

>  <pose>  (25) 
[20.46751763239878, 55.02928364449974, 156.63804117017264, -0.40663682013319435, -0.11611437102449407, -1.5602896901842145, -0.44602640397340654, -1.3089299441746338, -18.54731803105247, 1.2321971613191718, 0.5947636175521098, -3.6190486046682175, 2.7626889462538218, 0.8289747078636498]

>  <energy>  (25) 
-230.6629007252167

>  <inter_energy>  (25) 
-398.86355354649726

>  <intra_energy>  (25) 
177.78823572413498

>  <rmsd>  (25) 
6.95313

>  <sdf_rank>  (25) 
0

$$$$

     RDKit          3D

 41 42  0  0  0  0  0  0  0  0999 V2000
   12.8310   51.2410  160.0700 N   0  0  0  0  0  0  0  0  0  0  0  0
   11.7170   51.4780  160.8380 C   0  0  0  0  0  0  0  0  0  0  0  0
   11.8400   51.3900  162.1840 N   0  0  0  0  0  0  0  0  0  0  0  0
   13.0640   51.0530  162.7150 C   0  0  0  0  0  0  0  0  0  0  0  0
   14.1580   50.7060  161.9320 C   0  0  0  0  0  0  0  0  0  0  0  0
   14.0200   50.8490  160.5830 C   0  0  0  0  0  0  0  0  0  0  0  0
   10.6100   51.8160  160.3310 O   0  0  0  0  0  0  0  0  0  0  0  0
   13.1030   51.0570  164.0680 N   0  0  0  0  0  0  0  0  0  0  0  0
   12.6730   51.3700  158.6260 C   0  0  1  0  0  0  0  0  0  0  0  0
   13.7030   52.2740  157.9120 C   0  0  2  0  0  0  0  0  0  0  0  0
   13.4360   53.6620  158.1010 O   0  0  0  0  0  0  0  0  0  0  0  0
   13.6800   51.7180  156.4880 C   0  0  1  0  0  0  0  0  0  0  0  0
   13.3350   50.2300  156.6320 C   0  0  2  0  0  0  0  0  0  0  0  0
   12.9500   50.0800  158.0010 O   0  0  0  0  0  0  0  0  0  0  0  0
   12.6240   52.3410  155.7370 O   0  0  0  0  0  0  0  0  0  0  0  0
   14.5770   49.3590  156.4900 C   0  0  0  0  0  0  0  0  0  0  0  0
   14.8920   49.3230  155.1190 O   0  0  0  0  0  0  0  0  0  0  0  0
   16.3860   49.3880  154.5730 P   0  0  2  0  0  0  0  0  0  0  0  0
   16.4150   48.8040  153.2430 O   0  0  0  0  0  0  0  0  0  0  0  0
   17.2910   48.8140  155.6270 O   0  0  0  0  0  0  0  0  0  0  0  0
   16.6500   51.0150  154.5050 O   0  0  0  0  0  0  0  0  0  0  0  0
   17.7960   51.8530  153.7930 P   0  0  1  0  0  0  0  0  0  0  0  0
   17.5050   52.0250  152.3240 O   0  0  0  0  0  0  0  0  0  0  0  0
   17.9650   53.0760  154.6560 O   0  0  0  0  0  0  0  0  0  0  0  0
   19.0080   50.8670  154.0490 O   0  0  0  0  0  0  0  0  0  0  0  0
   20.5590   50.9060  153.5060 P   0  0  2  0  0  0  0  0  0  0  0  0
   20.5980   50.0240  152.2800 O   0  0  0  0  0  0  0  0  0  0  0  0
   21.3580   50.3850  154.6790 O   0  0  0  0  0  0  0  0  0  0  0  0
   20.8690   52.3440  153.2100 O   0  0  0  0  0  0  0  0  0  0  0  0
   15.0914   50.3335  162.3792 H   0  0  0  0  0  0  0  0  0  0  0  0
   14.8706   50.6468  159.9155 H   0  0  0  0  0  0  0  0  0  0  0  0
   13.9764   50.8178  164.5587 H   0  0  0  0  0  0  0  0  0  0  0  0
   12.2593   51.2993  164.6068 H   0  0  0  0  0  0  0  0  0  0  0  0
   11.6568   51.7777  158.5206 H   0  0  0  0  0  0  0  0  0  0  0  0
   14.7283   52.2449  158.3095 H   0  0  0  0  0  0  0  0  0  0  0  0
   13.3976   53.8617  159.0699 H   0  0  0  0  0  0  0  0  0  0  0  0
   14.6384   51.8935  155.9775 H   0  0  0  0  0  0  0  0  0  0  0  0
   12.5837   49.9441  155.8812 H   0  0  0  0  0  0  0  0  0  0  0  0
   11.9617   52.7317  156.3606 H   0  0  0  0  0  0  0  0  0  0  0  0
   15.4118   49.7937  157.0593 H   0  0  0  0  0  0  0  0  0  0  0  0
   14.3968   48.3467  156.8809 H   0  0  0  0  0  0  0  0  0  0  0  0
  1  2  1  0
  1  6  1  0
  9  1  1  0
  2  3  1  0
  2  7  2  0
  3  4  2  0
  4  5  1  0
  4  8  1  0
  5  6  2  0
  9 10  1  0
  9 14  1  0
 10 11  1  0
 10 12  1  0
 12 13  1  0
 12 15  1  0
 13 14  1  0
 13 16  1  0
 16 17  1  0
 17 18  1  0
 18 19  2  0
 18 20  1  1
 18 21  1  0
 21 22  1  0
 22 23  2  0
 22 24  1  1
 22 25  1  0
 25 26  1  0
 26 27  2  0
 26 28  1  1
 26 29  1  0
  5 30  1  0
  6 31  1  0
  8 32  1  0
  8 33  1  0
  9 34  1  1
 10 35  1  1
 11 36  1  0
 12 37  1  6
 13 38  1  6
 15 39  1  0
 16 40  1  0
 16 41  1  0
M  CHG  4  20  -1  24  -1  28  -1  29  -1
M  END
>  <filename_input>  (26) 
7N7H_CTP_docked.sdf

>  <pdb_id>  (26) 
7N7H_CTP

>  <pose_rank>  (26) 
25

>  <num_atoms_heavy>  (26) 
29

>  <num_torsions>  (26) 
8

>  <pose>  (26) 
[12.673, 51.37, 158.626, 1e-06, 1e-06, 1e-06, 0.0, 0.0, 0.0, 0.0, 0.0, 0.0, 0.0, 0.0]

>  <energy>  (26) 
-1036.6691178333144

>  <inter_energy>  (26) 
-1028.2690644817703

>  <intra_energy>  (26) 
2.742623972150193

>  <rmsd>  (26) 
0.0

>  <sdf_rank>  (26) 
0

$$$$
