
     RDKit          3D

 66 69  0  0  0  0  0  0  0  0999 V2000
   11.8976   29.4216   41.9201 C   0  0  0  0  0  0  0  0  0  0  0  0
   12.7507   29.7985   40.9386 N   0  0  0  0  0  0  0  0  0  0  0  0
   13.3557   28.8558   40.1173 C   0  0  0  0  0  0  0  0  0  0  0  0
   13.0026   27.5506   40.3576 C   0  0  0  0  0  0  0  0  0  0  0  0
   12.1233   27.2246   41.4121 C   0  0  0  0  0  0  0  0  0  0  0  0
   11.5067   28.2045   42.1412 N   0  0  0  0  0  0  0  0  0  0  0  0
   13.4809   26.4779   39.5876 N   0  0  0  0  0  0  0  0  0  0  0  0
   13.4682   25.1990   40.1182 C   0  0  0  0  0  0  0  0  0  0  0  0
   12.6715   24.9191   41.2492 C   0  0  0  0  0  0  0  0  0  0  0  0
   11.8525   25.9182   41.7590 N   0  0  0  0  0  0  0  0  0  0  0  0
   14.2850   24.1806   39.5341 C   0  0  0  0  0  0  0  0  0  0  0  0
   14.2899   22.8995   40.1060 C   0  0  0  0  0  0  0  0  0  0  0  0
   13.4217   22.6075   41.1696 C   0  0  0  0  0  0  0  0  0  0  0  0
   12.6930   23.6277   41.7827 C   0  0  0  0  0  0  0  0  0  0  0  0
   13.7575   26.7293   38.1816 C   0  0  1  0  0  0  0  0  0  0  0  0
   14.2120   25.4925   37.4539 C   0  0  0  0  0  0  0  0  0  0  0  0
   15.1331   24.6410   38.3508 C   0  0  2  0  0  0  0  0  0  0  0  0
   11.4637   30.4417   42.6904 O   0  0  0  0  0  0  0  0  0  0  0  0
   13.3239   21.2182   41.7258 C   0  0  0  0  0  0  0  0  0  0  0  0
   15.1149   21.7474   39.5355 C   0  0  0  0  0  0  0  0  0  0  0  0
   12.7609   27.4236   37.5595 O   0  0  0  0  0  0  0  0  0  0  0  0
   15.7010   23.5629   37.4428 C   0  0  0  0  0  0  0  0  0  0  0  0
   16.3289   25.4546   38.8959 C   0  0  0  0  0  0  0  0  0  0  0  0
   10.7718   25.6264   42.6949 C   0  0  0  0  0  0  0  0  0  0  0  0
   14.2282   29.2660   39.3870 O   0  0  0  0  0  0  0  0  0  0  0  0
   11.1575   25.6604   44.1742 C   0  0  1  0  0  0  0  0  0  0  0  0
    9.9207   25.9903   45.0220 C   0  0  1  0  0  0  0  0  0  0  0  0
   10.0536   27.2820   45.8366 C   0  0  1  0  0  0  0  0  0  0  0  0
    9.2058   27.3116   47.0729 C   0  0  0  0  0  0  0  0  0  0  0  0
   11.7084   24.3923   44.6065 O   0  0  0  0  0  0  0  0  0  0  0  0
    8.7760   26.0919   44.1276 O   0  0  0  0  0  0  0  0  0  0  0  0
   11.4268   27.5009   46.1732 O   0  0  0  0  0  0  0  0  0  0  0  0
   10.1028   27.1805   48.2681 O   0  0  0  0  0  0  0  0  0  0  0  0
    9.8989   28.2302   49.4757 P   0  0  2  0  0  0  0  0  0  0  0  0
    9.6561   29.5521   48.6737 O   0  0  0  0  0  0  0  0  0  0  0  0
   11.1786   28.3130   50.1721 O   0  0  0  0  0  0  0  0  0  0  0  0
    8.7924   27.7688   50.3112 O   0  0  0  0  0  0  0  0  0  0  0  0
   12.9540   30.7985   40.7991 H   0  0  0  0  0  0  0  0  0  0  0  0
   12.1265   23.4118   42.7006 H   0  0  0  0  0  0  0  0  0  0  0  0
   14.6221   27.4083   38.1436 H   0  0  0  0  0  0  0  0  0  0  0  0
   13.3322   24.8962   37.1704 H   0  0  0  0  0  0  0  0  0  0  0  0
   14.7725   25.7952   36.5572 H   0  0  0  0  0  0  0  0  0  0  0  0
   10.8359   30.2670   43.4356 H   0  0  0  0  0  0  0  0  0  0  0  0
   13.3270   21.2622   42.8250 H   0  0  0  0  0  0  0  0  0  0  0  0
   12.3906   20.7497   41.3803 H   0  0  0  0  0  0  0  0  0  0  0  0
   14.1825   20.6236   41.3803 H   0  0  0  0  0  0  0  0  0  0  0  0
   15.5385   21.1559   40.3606 H   0  0  0  0  0  0  0  0  0  0  0  0
   14.4699   21.1054   38.9175 H   0  0  0  0  0  0  0  0  0  0  0  0
   15.9304   22.1513   38.9175 H   0  0  0  0  0  0  0  0  0  0  0  0
   12.1708   27.8347   38.2398 H   0  0  0  0  0  0  0  0  0  0  0  0
   16.1269   22.7546   38.0554 H   0  0  0  0  0  0  0  0  0  0  0  0
   14.8990   23.1583   36.8079 H   0  0  0  0  0  0  0  0  0  0  0  0
   16.4882   23.9956   36.8079 H   0  0  0  0  0  0  0  0  0  0  0  0
   16.3101   25.4419   39.9957 H   0  0  0  0  0  0  0  0  0  0  0  0
   17.2690   25.0079   38.5400 H   0  0  0  0  0  0  0  0  0  0  0  0
   16.2585   26.4930   38.5400 H   0  0  0  0  0  0  0  0  0  0  0  0
    9.9750   26.3676   42.5349 H   0  0  0  0  0  0  0  0  0  0  0  0
   10.4618   24.5917   42.4864 H   0  0  0  0  0  0  0  0  0  0  0  0
   11.9266   26.4356   44.3068 H   0  0  0  0  0  0  0  0  0  0  0  0
    9.7978   25.1819   45.7578 H   0  0  0  0  0  0  0  0  0  0  0  0
    9.6805   28.0944   45.1957 H   0  0  0  0  0  0  0  0  0  0  0  0
    8.6567   28.2635   47.1236 H   0  0  0  0  0  0  0  0  0  0  0  0
    8.4810   26.4844   47.0530 H   0  0  0  0  0  0  0  0  0  0  0  0
   11.7229   24.3589   45.5958 H   0  0  0  0  0  0  0  0  0  0  0  0
    7.9456   26.1657   44.6615 H   0  0  0  0  0  0  0  0  0  0  0  0
   11.5267   27.5168   47.1581 H   0  0  0  0  0  0  0  0  0  0  0  0
  1  2  1  0
  1  6  2  0
  1 18  1  0
  2  3  1  0
  3  4  1  0
  3 25  2  0
  4  5  2  0
  4  7  1  0
  5  6  1  0
  5 10  1  0
  7  8  1  0
  7 15  1  0
  8  9  2  0
  8 11  1  0
  9 10  1  0
  9 14  1  0
 10 24  1  0
 11 12  2  0
 11 17  1  0
 12 13  1  0
 12 20  1  0
 13 14  2  0
 13 19  1  0
 15 16  1  0
 15 21  1  0
 16 17  1  0
 17 22  1  6
 17 23  1  0
 24 26  1  0
 26 27  1  0
 26 30  1  0
 27 28  1  0
 27 31  1  0
 28 29  1  0
 28 32  1  0
 29 33  1  0
 33 34  1  0
 34 35  2  0
 34 36  1  1
 34 37  1  0
  2 38  1  0
 14 39  1  0
 15 40  1  1
 16 41  1  0
 16 42  1  0
 18 43  1  0
 19 44  1  0
 19 45  1  0
 19 46  1  0
 20 47  1  0
 20 48  1  0
 20 49  1  0
 21 50  1  0
 22 51  1  0
 22 52  1  0
 22 53  1  0
 23 54  1  0
 23 55  1  0
 23 56  1  0
 24 57  1  0
 24 58  1  0
 26 59  1  6
 27 60  1  1
 28 61  1  6
 29 62  1  0
 29 63  1  0
 30 64  1  0
 31 65  1  0
 32 66  1  0
M  CHG  2  36  -1  37  -1
M  END
>  <filename_input>  (1) 
7NF0_BYN_docked.sdf

>  <pdb_id>  (1) 
7NF0_BYN

>  <pose_rank>  (1) 
0

>  <num_atoms_heavy>  (1) 
37

>  <num_torsions>  (1) 
7

>  <pose>  (1) 
[11.897617066961827, 29.421626557976843, 41.920123099433866, -0.040749594992514564, 0.04748524682382555, 0.13199280627897483, 6.052721519056232, -0.4875457011214352, -5.114415561686313, -3.5957425716892875, 4.899245189240786, -1.8926942775765045, 2.2776098401300398]

>  <energy>  (1) 
-960.0579059773833

>  <inter_energy>  (1) 
-963.7557213732858

>  <intra_energy>  (1) 
16.499754336785024

>  <rmsd>  (1) 
0.822956

>  <sdf_rank>  (1) 
0

$$$$

     RDKit          3D

 66 69  0  0  0  0  0  0  0  0999 V2000
   12.4155   21.3311   42.1812 C   0  0  0  0  0  0  0  0  0  0  0  0
   12.8560   20.9656   40.9542 N   0  0  0  0  0  0  0  0  0  0  0  0
   13.2686   21.9174   40.0306 C   0  0  0  0  0  0  0  0  0  0  0  0
   13.2224   23.2195   40.4647 C   0  0  0  0  0  0  0  0  0  0  0  0
   12.7314   23.5335   41.7500 C   0  0  0  0  0  0  0  0  0  0  0  0
   12.4051   22.5452   42.6382 N   0  0  0  0  0  0  0  0  0  0  0  0
   13.6513   24.3006   39.6776 N   0  0  0  0  0  0  0  0  0  0  0  0
   13.1854   25.5743   39.9569 C   0  0  0  0  0  0  0  0  0  0  0  0
   12.5877   25.8415   41.2073 C   0  0  0  0  0  0  0  0  0  0  0  0
   12.5519   24.8358   42.1645 N   0  0  0  0  0  0  0  0  0  0  0  0
   13.2869   26.6000   38.9654 C   0  0  0  0  0  0  0  0  0  0  0  0
   12.7763   27.8755   39.2497 C   0  0  0  0  0  0  0  0  0  0  0  0
   12.2723   28.1553   40.5295 C   0  0  0  0  0  0  0  0  0  0  0  0
   12.1024   27.1278   41.4584 C   0  0  0  0  0  0  0  0  0  0  0  0
   14.7434   24.0635   38.7461 C   0  0  1  0  0  0  0  0  0  0  0  0
   15.1458   25.3082   38.0015 C   0  0  0  0  0  0  0  0  0  0  0  0
   13.9064   26.1529   37.6434 C   0  0  2  0  0  0  0  0  0  0  0  0
   11.9642   20.3027   42.9301 O   0  0  0  0  0  0  0  0  0  0  0  0
   11.8249   29.5390   40.8963 C   0  0  0  0  0  0  0  0  0  0  0  0
   12.8610   29.0347   38.2585 C   0  0  0  0  0  0  0  0  0  0  0  0
   15.7791   23.3732   39.3056 O   0  0  0  0  0  0  0  0  0  0  0  0
   14.4117   27.2408   36.7106 C   0  0  0  0  0  0  0  0  0  0  0  0
   12.8515   25.3365   36.8627 C   0  0  0  0  0  0  0  0  0  0  0  0
   12.2633   25.1164   43.5670 C   0  0  0  0  0  0  0  0  0  0  0  0
   13.4809   21.5162   38.9096 O   0  0  0  0  0  0  0  0  0  0  0  0
   10.8222   24.8538   44.0058 C   0  0  1  0  0  0  0  0  0  0  0  0
   10.3539   25.9799   44.9385 C   0  0  1  0  0  0  0  0  0  0  0  0
   10.3328   25.5892   46.4206 C   0  0  1  0  0  0  0  0  0  0  0  0
   11.0428   26.5600   47.3160 C   0  0  0  0  0  0  0  0  0  0  0  0
    9.9291   24.7738   42.8680 O   0  0  0  0  0  0  0  0  0  0  0  0
   11.2385   27.1207   44.7462 O   0  0  0  0  0  0  0  0  0  0  0  0
    8.9806   25.4144   46.8542 O   0  0  0  0  0  0  0  0  0  0  0  0
   10.5992   26.3168   48.7281 O   0  0  0  0  0  0  0  0  0  0  0  0
   10.0936   27.5875   49.5832 P   0  0  2  0  0  0  0  0  0  0  0  0
    9.1517   26.8856   50.6175 O   0  0  0  0  0  0  0  0  0  0  0  0
    9.2949   28.4052   48.6760 O   0  0  0  0  0  0  0  0  0  0  0  0
   11.2615   28.2721   50.1336 O   0  0  0  0  0  0  0  0  0  0  0  0
   12.8855   19.9674   40.7020 H   0  0  0  0  0  0  0  0  0  0  0  0
   11.5781   27.3336   42.4033 H   0  0  0  0  0  0  0  0  0  0  0  0
   14.3581   23.3867   37.9693 H   0  0  0  0  0  0  0  0  0  0  0  0
   15.8196   25.9054   38.6336 H   0  0  0  0  0  0  0  0  0  0  0  0
   15.6553   25.0154   37.0716 H   0  0  0  0  0  0  0  0  0  0  0  0
   11.6207   20.4690   43.8436 H   0  0  0  0  0  0  0  0  0  0  0  0
   11.7936   29.6360   41.9915 H   0  0  0  0  0  0  0  0  0  0  0  0
   12.5312   30.2743   40.4831 H   0  0  0  0  0  0  0  0  0  0  0  0
   10.8220   29.7217   40.4831 H   0  0  0  0  0  0  0  0  0  0  0  0
   12.9303   29.9841   38.8097 H   0  0  0  0  0  0  0  0  0  0  0  0
   13.7526   28.9120   37.6260 H   0  0  0  0  0  0  0  0  0  0  0  0
   11.9611   29.0428   37.6260 H   0  0  0  0  0  0  0  0  0  0  0  0
   15.7111   23.4185   40.2922 H   0  0  0  0  0  0  0  0  0  0  0  0
   14.8018   28.0807   37.3042 H   0  0  0  0  0  0  0  0  0  0  0  0
   15.2141   26.8363   36.0762 H   0  0  0  0  0  0  0  0  0  0  0  0
   13.5850   27.5930   36.0762 H   0  0  0  0  0  0  0  0  0  0  0  0
   12.1869   24.8222   37.5725 H   0  0  0  0  0  0  0  0  0  0  0  0
   12.2587   26.0134   36.2299 H   0  0  0  0  0  0  0  0  0  0  0  0
   13.3581   24.5928   36.2299 H   0  0  0  0  0  0  0  0  0  0  0  0
   12.9249   24.4884   44.1817 H   0  0  0  0  0  0  0  0  0  0  0  0
   12.4286   26.1957   43.7002 H   0  0  0  0  0  0  0  0  0  0  0  0
   10.7984   23.8889   44.5335 H   0  0  0  0  0  0  0  0  0  0  0  0
    9.3127   26.2174   44.6751 H   0  0  0  0  0  0  0  0  0  0  0  0
   10.8880   24.6430   46.5015 H   0  0  0  0  0  0  0  0  0  0  0  0
   12.1298   26.4105   47.2375 H   0  0  0  0  0  0  0  0  0  0  0  0
   10.8040   27.5916   47.0181 H   0  0  0  0  0  0  0  0  0  0  0  0
    8.9955   24.6902   43.1866 H   0  0  0  0  0  0  0  0  0  0  0  0
   11.5145   27.4765   45.6279 H   0  0  0  0  0  0  0  0  0  0  0  0
    8.9493   25.4103   47.8437 H   0  0  0  0  0  0  0  0  0  0  0  0
  1  2  1  0
  1  6  2  0
  1 18  1  0
  2  3  1  0
  3  4  1  0
  3 25  2  0
  4  5  2  0
  4  7  1  0
  5  6  1  0
  5 10  1  0
  7  8  1  0
  7 15  1  0
  8  9  2  0
  8 11  1  0
  9 10  1  0
  9 14  1  0
 10 24  1  0
 11 12  2  0
 11 17  1  0
 12 13  1  0
 12 20  1  0
 13 14  2  0
 13 19  1  0
 15 16  1  0
 15 21  1  0
 16 17  1  0
 17 22  1  6
 17 23  1  0
 24 26  1  0
 26 27  1  0
 26 30  1  0
 27 28  1  0
 27 31  1  0
 28 29  1  0
 28 32  1  0
 29 33  1  0
 33 34  1  0
 34 35  2  0
 34 36  1  6
 34 37  1  0
  2 38  1  0
 14 39  1  0
 15 40  1  6
 16 41  1  0
 16 42  1  0
 18 43  1  0
 19 44  1  0
 19 45  1  0
 19 46  1  0
 20 47  1  0
 20 48  1  0
 20 49  1  0
 21 50  1  0
 22 51  1  0
 22 52  1  0
 22 53  1  0
 23 54  1  0
 23 55  1  0
 23 56  1  0
 24 57  1  0
 24 58  1  0
 26 59  1  1
 27 60  1  6
 28 61  1  6
 29 62  1  0
 29 63  1  0
 30 64  1  0
 31 65  1  0
 32 66  1  0
M  CHG  2  36  -1  37  -1
M  END
>  <filename_input>  (2) 
7NF0_BYN_docked.sdf

>  <pdb_id>  (2) 
7NF0_BYN

>  <pose_rank>  (2) 
1

>  <num_atoms_heavy>  (2) 
37

>  <num_torsions>  (2) 
7

>  <pose>  (2) 
[12.415463787219837, 21.33114863344424, 42.18115268673875, -1.723691627215526, 0.03614713444640208, 2.7891353285173373, -0.06811733352944535, 0.6859649280314886, -4.838979284248072, 1.347263975359544, -0.43783673359002806, -0.1563513698412828, -0.5978810803857275]

>  <energy>  (2) 
-770.1564258957291

>  <inter_energy>  (2) 
-790.4186768045062

>  <intra_energy>  (2) 
19.735194506858832

>  <rmsd>  (2) 
4.49703

>  <sdf_rank>  (2) 
0

$$$$

     RDKit          3D

 66 69  0  0  0  0  0  0  0  0999 V2000
   12.2927   29.5016   42.2673 C   0  0  0  0  0  0  0  0  0  0  0  0
   13.1775   29.8698   41.3110 N   0  0  0  0  0  0  0  0  0  0  0  0
   13.7136   28.9342   40.4355 C   0  0  0  0  0  0  0  0  0  0  0  0
   13.2608   27.6478   40.5972 C   0  0  0  0  0  0  0  0  0  0  0  0
   12.3533   27.3278   41.6295 C   0  0  0  0  0  0  0  0  0  0  0  0
   11.8091   28.3069   42.4150 N   0  0  0  0  0  0  0  0  0  0  0  0
   13.6603   26.5894   39.7652 N   0  0  0  0  0  0  0  0  0  0  0  0
   13.5474   25.2859   40.2185 C   0  0  0  0  0  0  0  0  0  0  0  0
   12.7253   25.0010   41.3299 C   0  0  0  0  0  0  0  0  0  0  0  0
   11.9819   26.0277   41.8976 N   0  0  0  0  0  0  0  0  0  0  0  0
   14.2875   24.2446   39.5756 C   0  0  0  0  0  0  0  0  0  0  0  0
   14.1917   22.9351   40.0701 C   0  0  0  0  0  0  0  0  0  0  0  0
   13.2977   22.6477   41.1135 C   0  0  0  0  0  0  0  0  0  0  0  0
   12.6454   23.6823   41.7855 C   0  0  0  0  0  0  0  0  0  0  0  0
   13.9632   26.9019   38.3769 C   0  0  1  0  0  0  0  0  0  0  0  0
   14.3263   25.6794   37.5773 C   0  0  0  0  0  0  0  0  0  0  0  0
   15.1748   24.7083   38.4228 C   0  0  2  0  0  0  0  0  0  0  0  0
   11.9334   30.5043   43.0966 O   0  0  0  0  0  0  0  0  0  0  0  0
   13.0913   21.2393   41.5857 C   0  0  0  0  0  0  0  0  0  0  0  0
   14.9297   21.7594   39.4328 C   0  0  0  0  0  0  0  0  0  0  0  0
   13.0259   27.7059   37.7962 O   0  0  0  0  0  0  0  0  0  0  0  0
   15.6641   23.6459   37.4527 C   0  0  0  0  0  0  0  0  0  0  0  0
   16.4260   25.3945   39.0167 C   0  0  0  0  0  0  0  0  0  0  0  0
   10.8768   25.7641   42.8131 C   0  0  0  0  0  0  0  0  0  0  0  0
   14.6189   29.3192   39.7319 O   0  0  0  0  0  0  0  0  0  0  0  0
   11.2502   25.7136   44.2951 C   0  0  1  0  0  0  0  0  0  0  0  0
   10.3151   26.6327   45.0940 C   0  0  1  0  0  0  0  0  0  0  0  0
    9.1629   25.8954   45.7857 C   0  0  1  0  0  0  0  0  0  0  0  0
    8.2502   26.7911   46.5686 C   0  0  0  0  0  0  0  0  0  0  0  0
   11.1569   24.3661   44.8185 O   0  0  0  0  0  0  0  0  0  0  0  0
   11.1148   27.3331   46.0893 O   0  0  0  0  0  0  0  0  0  0  0  0
    8.4158   25.1521   44.8180 O   0  0  0  0  0  0  0  0  0  0  0  0
    6.8328   26.3872   46.2894 O   0  0  0  0  0  0  0  0  0  0  0  0
    5.9362   27.3780   45.3861 P   0  0  2  0  0  0  0  0  0  0  0  0
    5.3823   26.3765   44.3185 O   0  0  0  0  0  0  0  0  0  0  0  0
    6.8627   28.3063   44.7464 O   0  0  0  0  0  0  0  0  0  0  0  0
    4.9441   28.0206   46.2453 O   0  0  0  0  0  0  0  0  0  0  0  0
   13.4572   30.8580   41.2316 H   0  0  0  0  0  0  0  0  0  0  0  0
   12.0590   23.4561   42.6883 H   0  0  0  0  0  0  0  0  0  0  0  0
   14.8772   27.5140   38.3804 H   0  0  0  0  0  0  0  0  0  0  0  0
   13.4052   25.1700   37.2578 H   0  0  0  0  0  0  0  0  0  0  0  0
   14.9133   25.9912   36.7008 H   0  0  0  0  0  0  0  0  0  0  0  0
   11.2899   30.3340   43.8294 H   0  0  0  0  0  0  0  0  0  0  0  0
   13.0882   21.2181   42.6855 H   0  0  0  0  0  0  0  0  0  0  0  0
   12.1286   20.8636   41.2090 H   0  0  0  0  0  0  0  0  0  0  0  0
   13.9059   20.6032   41.2090 H   0  0  0  0  0  0  0  0  0  0  0  0
   15.3369   21.1107   40.2223 H   0  0  0  0  0  0  0  0  0  0  0  0
   14.2312   21.1829   38.8085 H   0  0  0  0  0  0  0  0  0  0  0  0
   15.7525   22.1379   38.8085 H   0  0  0  0  0  0  0  0  0  0  0  0
   12.4978   28.1590   38.5004 H   0  0  0  0  0  0  0  0  0  0  0  0
   16.0591   22.7882   38.0170 H   0  0  0  0  0  0  0  0  0  0  0  0
   14.8279   23.3145   36.8195 H   0  0  0  0  0  0  0  0  0  0  0  0
   16.4595   24.0659   36.8195 H   0  0  0  0  0  0  0  0  0  0  0  0
   16.3734   25.3656   40.1151 H   0  0  0  0  0  0  0  0  0  0  0  0
   17.3294   24.8656   38.6789 H   0  0  0  0  0  0  0  0  0  0  0  0
   16.4657   26.4406   38.6789 H   0  0  0  0  0  0  0  0  0  0  0  0
   10.1280   26.5586   42.6788 H   0  0  0  0  0  0  0  0  0  0  0  0
   10.5065   24.7598   42.5597 H   0  0  0  0  0  0  0  0  0  0  0  0
   12.2920   26.0526   44.3946 H   0  0  0  0  0  0  0  0  0  0  0  0
    9.8441   27.3264   44.3820 H   0  0  0  0  0  0  0  0  0  0  0  0
    9.6228   25.2176   46.5200 H   0  0  0  0  0  0  0  0  0  0  0  0
    8.4608   26.6876   47.6433 H   0  0  0  0  0  0  0  0  0  0  0  0
    8.4082   27.8395   46.2754 H   0  0  0  0  0  0  0  0  0  0  0  0
   11.1590   24.3956   45.8081 H   0  0  0  0  0  0  0  0  0  0  0  0
   10.8161   27.0715   46.9962 H   0  0  0  0  0  0  0  0  0  0  0  0
    7.7960   24.5354   45.2824 H   0  0  0  0  0  0  0  0  0  0  0  0
  1  2  1  0
  1  6  2  0
  1 18  1  0
  2  3  1  0
  3  4  1  0
  3 25  2  0
  4  5  2  0
  4  7  1  0
  5  6  1  0
  5 10  1  0
  7  8  1  0
  7 15  1  0
  8  9  2  0
  8 11  1  0
  9 10  1  0
  9 14  1  0
 10 24  1  0
 11 12  2  0
 11 17  1  0
 12 13  1  0
 12 20  1  0
 13 14  2  0
 13 19  1  0
 15 16  1  0
 15 21  1  0
 16 17  1  0
 17 22  1  6
 17 23  1  0
 24 26  1  0
 26 27  1  0
 26 30  1  0
 27 28  1  0
 27 31  1  0
 28 29  1  0
 28 32  1  0
 29 33  1  0
 33 34  1  0
 34 35  2  0
 34 36  1  6
 34 37  1  0
  2 38  1  0
 14 39  1  0
 15 40  1  1
 16 41  1  0
 16 42  1  0
 18 43  1  0
 19 44  1  0
 19 45  1  0
 19 46  1  0
 20 47  1  0
 20 48  1  0
 20 49  1  0
 21 50  1  0
 22 51  1  0
 22 52  1  0
 22 53  1  0
 23 54  1  0
 23 55  1  0
 23 56  1  0
 24 57  1  0
 24 58  1  0
 26 59  1  6
 27 60  1  6
 28 61  1  1
 29 62  1  0
 29 63  1  0
 30 64  1  0
 31 65  1  0
 32 66  1  0
M  CHG  2  36  -1  37  -1
M  END
>  <filename_input>  (3) 
7NF0_BYN_docked.sdf

>  <pdb_id>  (3) 
7NF0_BYN

>  <pose_rank>  (3) 
2

>  <num_atoms_heavy>  (3) 
37

>  <num_torsions>  (3) 
7

>  <pose>  (3) 
[12.292706404085088, 29.50161096796563, 42.26733882570658, -1.7205382648569691, -3.5232721073838333, -4.815306607587731, -0.20617956136766644, -0.9212335822293523, 4.974085750210315, -4.052502521275963, 5.387836008682316, 0.20613692322961982, -1.046082730196838]

>  <energy>  (3) 
-838.0957708557534

>  <inter_energy>  (3) 
-856.347162079246

>  <intra_energy>  (3) 
29.363953029278598

>  <rmsd>  (3) 
2.36531

>  <sdf_rank>  (3) 
0

$$$$

     RDKit          3D

 66 69  0  0  0  0  0  0  0  0999 V2000
   12.3571   29.7557   41.8097 C   0  0  0  0  0  0  0  0  0  0  0  0
   13.0989   30.0198   40.7083 N   0  0  0  0  0  0  0  0  0  0  0  0
   13.5503   28.9937   39.8883 C   0  0  0  0  0  0  0  0  0  0  0  0
   13.1668   27.7287   40.2609 C   0  0  0  0  0  0  0  0  0  0  0  0
   12.4106   27.5214   41.4343 C   0  0  0  0  0  0  0  0  0  0  0  0
   11.9380   28.5795   42.1616 N   0  0  0  0  0  0  0  0  0  0  0  0
   13.4928   26.5835   39.5163 N   0  0  0  0  0  0  0  0  0  0  0  0
   13.4840   25.3439   40.1333 C   0  0  0  0  0  0  0  0  0  0  0  0
   12.8214   25.1828   41.3691 C   0  0  0  0  0  0  0  0  0  0  0  0
   12.1218   26.2575   41.9025 N   0  0  0  0  0  0  0  0  0  0  0  0
   14.1712   24.2454   39.5281 C   0  0  0  0  0  0  0  0  0  0  0  0
   14.1848   23.0052   40.1840 C   0  0  0  0  0  0  0  0  0  0  0  0
   13.4424   22.8318   41.3626 C   0  0  0  0  0  0  0  0  0  0  0  0
   12.8462   23.9290   41.9859 C   0  0  0  0  0  0  0  0  0  0  0  0
   13.6042   26.7283   38.0729 C   0  0  1  0  0  0  0  0  0  0  0  0
   13.9040   25.4235   37.3847 C   0  0  0  0  0  0  0  0  0  0  0  0
   14.8869   24.5801   38.2215 C   0  0  2  0  0  0  0  0  0  0  0  0
   12.0725   30.8461   42.5530 O   0  0  0  0  0  0  0  0  0  0  0  0
   13.3470   21.4887   42.0231 C   0  0  0  0  0  0  0  0  0  0  0  0
   14.8753   21.7739   39.6006 C   0  0  0  0  0  0  0  0  0  0  0  0
   12.5731   27.4370   37.5284 O   0  0  0  0  0  0  0  0  0  0  0  0
   15.2843   23.4156   37.3298 C   0  0  0  0  0  0  0  0  0  0  0  0
   16.1794   25.3574   38.5595 C   0  0  0  0  0  0  0  0  0  0  0  0
   11.1529   26.0881   42.9803 C   0  0  0  0  0  0  0  0  0  0  0  0
   14.3442   29.3059   39.0309 O   0  0  0  0  0  0  0  0  0  0  0  0
    9.7543   25.6513   42.5428 C   0  0  1  0  0  0  0  0  0  0  0  0
    8.8947   25.3588   43.7809 C   0  0  1  0  0  0  0  0  0  0  0  0
    7.5999   26.1768   43.8443 C   0  0  1  0  0  0  0  0  0  0  0  0
    6.3775   25.4142   43.4290 C   0  0  0  0  0  0  0  0  0  0  0  0
    9.1078   26.6712   41.7427 O   0  0  0  0  0  0  0  0  0  0  0  0
    8.5759   23.9379   43.7820 O   0  0  0  0  0  0  0  0  0  0  0  0
    7.4281   26.7068   45.1621 O   0  0  0  0  0  0  0  0  0  0  0  0
    5.3837   25.4605   44.5517 O   0  0  0  0  0  0  0  0  0  0  0  0
    3.8381   25.7239   44.1728 P   0  0  2  0  0  0  0  0  0  0  0  0
    3.6954   27.2320   44.5663 O   0  0  0  0  0  0  0  0  0  0  0  0
    3.0438   24.9070   45.0845 O   0  0  0  0  0  0  0  0  0  0  0  0
    3.6445   25.4035   42.7602 O   0  0  0  0  0  0  0  0  0  0  0  0
   13.3317   30.9957   40.4751 H   0  0  0  0  0  0  0  0  0  0  0  0
   12.3884   23.8048   42.9783 H   0  0  0  0  0  0  0  0  0  0  0  0
   14.4894   27.3531   37.8831 H   0  0  0  0  0  0  0  0  0  0  0  0
   12.9678   24.8615   37.2523 H   0  0  0  0  0  0  0  0  0  0  0  0
   14.3627   25.6359   36.4077 H   0  0  0  0  0  0  0  0  0  0  0  0
   11.5345   30.7554   43.3790 H   0  0  0  0  0  0  0  0  0  0  0  0
   13.3561   21.6159   43.1157 H   0  0  0  0  0  0  0  0  0  0  0  0
   12.4116   20.9962   41.7190 H   0  0  0  0  0  0  0  0  0  0  0  0
   14.2034   20.8690   41.7190 H   0  0  0  0  0  0  0  0  0  0  0  0
   15.2348   21.1329   40.4190 H   0  0  0  0  0  0  0  0  0  0  0  0
   14.1608   21.2118   38.9813 H   0  0  0  0  0  0  0  0  0  0  0  0
   15.7276   22.0904   38.9813 H   0  0  0  0  0  0  0  0  0  0  0  0
   12.0168   27.8193   38.2526 H   0  0  0  0  0  0  0  0  0  0  0  0
   15.5768   22.5586   37.9544 H   0  0  0  0  0  0  0  0  0  0  0  0
   14.4319   23.1325   36.6948 H   0  0  0  0  0  0  0  0  0  0  0  0
   16.1319   23.7126   36.6948 H   0  0  0  0  0  0  0  0  0  0  0  0
   16.2916   25.4249   39.6517 H   0  0  0  0  0  0  0  0  0  0  0  0
   17.0461   24.8306   38.1337 H   0  0  0  0  0  0  0  0  0  0  0  0
   16.1203   26.3699   38.1337 H   0  0  0  0  0  0  0  0  0  0  0  0
   11.5447   25.3282   43.6724 H   0  0  0  0  0  0  0  0  0  0  0  0
   11.0311   27.0814   43.4369 H   0  0  0  0  0  0  0  0  0  0  0  0
    9.8582   24.7440   41.9296 H   0  0  0  0  0  0  0  0  0  0  0  0
    9.4785   25.6504   44.6664 H   0  0  0  0  0  0  0  0  0  0  0  0
    7.7097   26.9914   43.1134 H   0  0  0  0  0  0  0  0  0  0  0  0
    5.9421   25.8726   42.5288 H   0  0  0  0  0  0  0  0  0  0  0  0
    6.6427   24.3708   43.2031 H   0  0  0  0  0  0  0  0  0  0  0  0
    8.6845   27.3390   42.3385 H   0  0  0  0  0  0  0  0  0  0  0  0
    8.5038   23.6166   44.7157 H   0  0  0  0  0  0  0  0  0  0  0  0
    7.6535   26.0112   45.8295 H   0  0  0  0  0  0  0  0  0  0  0  0
  1  2  1  0
  1  6  2  0
  1 18  1  0
  2  3  1  0
  3  4  1  0
  3 25  2  0
  4  5  2  0
  4  7  1  0
  5  6  1  0
  5 10  1  0
  7  8  1  0
  7 15  1  0
  8  9  2  0
  8 11  1  0
  9 10  1  0
  9 14  1  0
 10 24  1  0
 11 12  2  0
 11 17  1  0
 12 13  1  0
 12 20  1  0
 13 14  2  0
 13 19  1  0
 15 16  1  0
 15 21  1  0
 16 17  1  0
 17 22  1  6
 17 23  1  0
 24 26  1  0
 26 27  1  0
 26 30  1  0
 27 28  1  0
 27 31  1  0
 28 29  1  0
 28 32  1  0
 29 33  1  0
 33 34  1  0
 34 35  2  0
 34 36  1  1
 34 37  1  0
  2 38  1  0
 14 39  1  0
 15 40  1  1
 16 41  1  0
 16 42  1  0
 18 43  1  0
 19 44  1  0
 19 45  1  0
 19 46  1  0
 20 47  1  0
 20 48  1  0
 20 49  1  0
 21 50  1  0
 22 51  1  0
 22 52  1  0
 22 53  1  0
 23 54  1  0
 23 55  1  0
 23 56  1  0
 24 57  1  0
 24 58  1  0
 26 59  1  6
 27 60  1  1
 28 61  1  6
 29 62  1  0
 29 63  1  0
 30 64  1  0
 31 65  1  0
 32 66  1  0
M  CHG  2  36  -1  37  -1
M  END
>  <filename_input>  (4) 
7NF0_BYN_docked.sdf

>  <pdb_id>  (4) 
7NF0_BYN

>  <pose_rank>  (4) 
3

>  <num_atoms_heavy>  (4) 
37

>  <num_torsions>  (4) 
7

>  <pose>  (4) 
[12.357120951357729, 29.755729492897412, 41.809739609026344, -0.09863902528082434, 0.1757717192529066, 0.07971835867993501, -3.2396619930972235, -0.14371369006299206, -0.8844833563518684, 0.8615569420288733, -1.1195277118273892, -1.790408550056489, 1.1925657678523522]

>  <energy>  (4) 
-771.5770691948729

>  <inter_energy>  (4) 
-764.9563570619575

>  <intra_energy>  (4) 
3.1813064865524985

>  <rmsd>  (4) 
3.51962

>  <sdf_rank>  (4) 
0

$$$$

     RDKit          3D

 66 69  0  0  0  0  0  0  0  0999 V2000
   14.4151   28.7647   38.3799 C   0  0  0  0  0  0  0  0  0  0  0  0
   15.3720   28.0348   37.7598 N   0  0  0  0  0  0  0  0  0  0  0  0
   15.4711   26.6648   37.9658 C   0  0  0  0  0  0  0  0  0  0  0  0
   14.5259   26.1243   38.8027 C   0  0  0  0  0  0  0  0  0  0  0  0
   13.5684   26.9462   39.4345 C   0  0  0  0  0  0  0  0  0  0  0  0
   13.4798   28.2786   39.1362 N   0  0  0  0  0  0  0  0  0  0  0  0
   14.4499   24.7494   39.0790 N   0  0  0  0  0  0  0  0  0  0  0  0
   13.8071   24.3194   40.2276 C   0  0  0  0  0  0  0  0  0  0  0  0
   12.9420   25.1975   40.9151 C   0  0  0  0  0  0  0  0  0  0  0  0
   12.6917   26.4533   40.3772 N   0  0  0  0  0  0  0  0  0  0  0  0
   14.0484   22.9999   40.7237 C   0  0  0  0  0  0  0  0  0  0  0  0
   13.4188   22.5919   41.9093 C   0  0  0  0  0  0  0  0  0  0  0  0
   12.4871   23.4382   42.5307 C   0  0  0  0  0  0  0  0  0  0  0  0
   12.3230   24.7506   42.0856 C   0  0  0  0  0  0  0  0  0  0  0  0
   14.8537   23.8283   38.0277 C   0  0  1  0  0  0  0  0  0  0  0  0
   14.6766   22.3873   38.4251 C   0  0  0  0  0  0  0  0  0  0  0  0
   15.0470   22.1823   39.9079 C   0  0  2  0  0  0  0  0  0  0  0  0
   14.5046   30.0922   38.1517 O   0  0  0  0  0  0  0  0  0  0  0  0
   11.7159   22.9841   43.7341 C   0  0  0  0  0  0  0  0  0  0  0  0
   13.6024   21.1949   42.4991 C   0  0  0  0  0  0  0  0  0  0  0  0
   14.3335   24.1521   36.8084 O   0  0  0  0  0  0  0  0  0  0  0  0
   15.0509   20.6778   40.1215 C   0  0  0  0  0  0  0  0  0  0  0  0
   16.4706   22.6920   40.2280 C   0  0  0  0  0  0  0  0  0  0  0  0
   11.5777   27.2786   40.8319 C   0  0  0  0  0  0  0  0  0  0  0  0
   16.4538   26.1265   37.5106 O   0  0  0  0  0  0  0  0  0  0  0  0
   11.5211   27.5321   42.3389 C   0  0  1  0  0  0  0  0  0  0  0  0
   12.2466   28.8444   42.6685 C   0  0  1  0  0  0  0  0  0  0  0  0
   11.9723   29.3663   44.0835 C   0  0  1  0  0  0  0  0  0  0  0  0
   12.0930   28.3210   45.1517 C   0  0  0  0  0  0  0  0  0  0  0  0
   10.1538   27.6107   42.8110 O   0  0  0  0  0  0  0  0  0  0  0  0
   13.6759   28.6237   42.4975 O   0  0  0  0  0  0  0  0  0  0  0  0
   12.8406   30.4671   44.3684 O   0  0  0  0  0  0  0  0  0  0  0  0
   10.7219   28.0213   45.6812 O   0  0  0  0  0  0  0  0  0  0  0  0
   10.5485   27.8923   47.2796 P   0  0  2  0  0  0  0  0  0  0  0  0
   11.5464   28.9938   47.7700 O   0  0  0  0  0  0  0  0  0  0  0  0
   11.0602   26.5757   47.6461 O   0  0  0  0  0  0  0  0  0  0  0  0
    9.1411   28.1007   47.6131 O   0  0  0  0  0  0  0  0  0  0  0  0
   16.0361   28.5022   37.1262 H   0  0  0  0  0  0  0  0  0  0  0  0
   11.6965   25.4444   42.6653 H   0  0  0  0  0  0  0  0  0  0  0  0
   15.9392   23.9499   37.8975 H   0  0  0  0  0  0  0  0  0  0  0  0
   13.6269   22.0966   38.2715 H   0  0  0  0  0  0  0  0  0  0  0  0
   15.3391   21.7652   37.8054 H   0  0  0  0  0  0  0  0  0  0  0  0
   13.8491   30.7103   38.5621 H   0  0  0  0  0  0  0  0  0  0  0  0
   12.2445   23.2953   44.6472 H   0  0  0  0  0  0  0  0  0  0  0  0
   10.7131   23.4359   43.7189 H   0  0  0  0  0  0  0  0  0  0  0  0
   11.6245   21.8880   43.7189 H   0  0  0  0  0  0  0  0  0  0  0  0
   13.5943   21.2566   43.5974 H   0  0  0  0  0  0  0  0  0  0  0  0
   12.7820   20.5440   42.1624 H   0  0  0  0  0  0  0  0  0  0  0  0
   14.5630   20.7780   42.1624 H   0  0  0  0  0  0  0  0  0  0  0  0
   13.4997   24.6711   36.9326 H   0  0  0  0  0  0  0  0  0  0  0  0
   15.0514   20.4605   41.1998 H   0  0  0  0  0  0  0  0  0  0  0  0
   14.1538   20.2395   39.6596 H   0  0  0  0  0  0  0  0  0  0  0  0
   15.9501   20.2442   39.6596 H   0  0  0  0  0  0  0  0  0  0  0  0
   16.6060   22.7405   41.3186 H   0  0  0  0  0  0  0  0  0  0  0  0
   17.2122   22.0035   39.7967 H   0  0  0  0  0  0  0  0  0  0  0  0
   16.6067   23.6947   39.7967 H   0  0  0  0  0  0  0  0  0  0  0  0
   11.6488   28.2530   40.3264 H   0  0  0  0  0  0  0  0  0  0  0  0
   10.6644   26.7176   40.5846 H   0  0  0  0  0  0  0  0  0  0  0  0
   12.0140   26.6883   42.8439 H   0  0  0  0  0  0  0  0  0  0  0  0
   11.8643   29.6158   41.9839 H   0  0  0  0  0  0  0  0  0  0  0  0
   10.9215   29.6915   44.0975 H   0  0  0  0  0  0  0  0  0  0  0  0
   12.5353   27.4071   44.7283 H   0  0  0  0  0  0  0  0  0  0  0  0
   12.7396   28.6848   45.9638 H   0  0  0  0  0  0  0  0  0  0  0  0
   10.1461   27.6112   43.8009 H   0  0  0  0  0  0  0  0  0  0  0  0
   14.1082   28.5570   43.3856 H   0  0  0  0  0  0  0  0  0  0  0  0
   12.9257   30.5751   45.3488 H   0  0  0  0  0  0  0  0  0  0  0  0
  1  2  1  0
  1  6  2  0
  1 18  1  0
  2  3  1  0
  3  4  1  0
  3 25  2  0
  4  5  2  0
  4  7  1  0
  5  6  1  0
  5 10  1  0
  7  8  1  0
  7 15  1  0
  8  9  2  0
  8 11  1  0
  9 10  1  0
  9 14  1  0
 10 24  1  0
 11 12  2  0
 11 17  1  0
 12 13  1  0
 12 20  1  0
 13 14  2  0
 13 19  1  0
 15 16  1  0
 15 21  1  0
 16 17  1  0
 17 22  1  1
 17 23  1  0
 24 26  1  0
 26 27  1  0
 26 30  1  0
 27 28  1  0
 27 31  1  0
 28 29  1  0
 28 32  1  0
 29 33  1  0
 33 34  1  0
 34 35  2  0
 34 36  1  1
 34 37  1  0
  2 38  1  0
 14 39  1  0
 15 40  1  6
 16 41  1  0
 16 42  1  0
 18 43  1  0
 19 44  1  0
 19 45  1  0
 19 46  1  0
 20 47  1  0
 20 48  1  0
 20 49  1  0
 21 50  1  0
 22 51  1  0
 22 52  1  0
 22 53  1  0
 23 54  1  0
 23 55  1  0
 23 56  1  0
 24 57  1  0
 24 58  1  0
 26 59  1  1
 27 60  1  6
 28 61  1  6
 29 62  1  0
 29 63  1  0
 30 64  1  0
 31 65  1  0
 32 66  1  0
M  CHG  2  36  -1  37  -1
M  END
>  <filename_input>  (5) 
7NF0_BYN_docked.sdf

>  <pdb_id>  (5) 
7NF0_BYN

>  <pose_rank>  (5) 
4

>  <num_atoms_heavy>  (5) 
37

>  <num_torsions>  (5) 
7

>  <pose>  (5) 
[14.415084174225806, 28.764728915729638, 38.37993548371374, 4.866948747394494, 0.7269845734798053, 2.226266813352435, 5.4282928687082626, -1.548606701242295, -0.1335314391240057, -0.08700384383311217, 1.0929188650851098, -0.27762147041440194, -2.658667620585202]

>  <energy>  (5) 
-724.8528915441192

>  <inter_energy>  (5) 
-759.9261568438553

>  <intra_energy>  (5) 
40.92909869060233

>  <rmsd>  (5) 
3.3703

>  <sdf_rank>  (5) 
0

$$$$

     RDKit          3D

 66 69  0  0  0  0  0  0  0  0999 V2000
   12.8721   30.9885   41.8085 C   0  0  0  0  0  0  0  0  0  0  0  0
   13.1247   31.5644   43.0076 N   0  0  0  0  0  0  0  0  0  0  0  0
   12.8074   30.9143   44.1932 C   0  0  0  0  0  0  0  0  0  0  0  0
   12.2602   29.6627   44.0515 C   0  0  0  0  0  0  0  0  0  0  0  0
   12.0028   29.1297   42.7704 C   0  0  0  0  0  0  0  0  0  0  0  0
   12.4022   29.7910   41.6411 N   0  0  0  0  0  0  0  0  0  0  0  0
   11.9286   28.8479   45.1462 N   0  0  0  0  0  0  0  0  0  0  0  0
   11.0011   27.8326   44.9841 C   0  0  0  0  0  0  0  0  0  0  0  0
   10.6666   27.3921   43.6855 C   0  0  0  0  0  0  0  0  0  0  0  0
   11.3375   27.9349   42.5973 N   0  0  0  0  0  0  0  0  0  0  0  0
   10.3683   27.2598   46.1316 C   0  0  0  0  0  0  0  0  0  0  0  0
    9.4032   26.2580   45.9489 C   0  0  0  0  0  0  0  0  0  0  0  0
    9.1495   25.7612   44.6608 C   0  0  0  0  0  0  0  0  0  0  0  0
    9.7100   26.3831   43.5443 C   0  0  0  0  0  0  0  0  0  0  0  0
   12.7453   28.9652   46.3445 C   0  0  1  0  0  0  0  0  0  0  0  0
   12.3244   28.0051   47.4247 C   0  0  0  0  0  0  0  0  0  0  0  0
   10.7888   27.8715   47.4660 C   0  0  2  0  0  0  0  0  0  0  0  0
   13.1508   31.7799   40.7511 O   0  0  0  0  0  0  0  0  0  0  0  0
    8.2070   24.6140   44.4489 C   0  0  0  0  0  0  0  0  0  0  0  0
    8.6936   25.5769   47.1175 C   0  0  0  0  0  0  0  0  0  0  0  0
   14.0834   28.9727   46.0773 O   0  0  0  0  0  0  0  0  0  0  0  0
   10.4840   27.0728   48.7223 C   0  0  0  0  0  0  0  0  0  0  0  0
   10.0892   29.2416   47.6157 C   0  0  0  0  0  0  0  0  0  0  0  0
   11.2958   27.3135   41.2778 C   0  0  0  0  0  0  0  0  0  0  0  0
   12.9082   31.5698   45.2046 O   0  0  0  0  0  0  0  0  0  0  0  0
   12.5398   26.5136   40.8895 C   0  0  1  0  0  0  0  0  0  0  0  0
   12.1289   25.0986   40.4579 C   0  0  1  0  0  0  0  0  0  0  0  0
   12.8792   24.5840   39.2241 C   0  0  1  0  0  0  0  0  0  0  0  0
   13.0827   23.0985   39.2115 C   0  0  0  0  0  0  0  0  0  0  0  0
   13.2628   27.1515   39.8084 O   0  0  0  0  0  0  0  0  0  0  0  0
   12.3604   24.2005   41.5806 O   0  0  0  0  0  0  0  0  0  0  0  0
   12.1977   24.9999   38.0369 O   0  0  0  0  0  0  0  0  0  0  0  0
   14.5202   22.8126   39.5307 O   0  0  0  0  0  0  0  0  0  0  0  0
   15.6425   23.4443   38.5595 P   0  0  2  0  0  0  0  0  0  0  0  0
   14.8852   23.4260   37.1900 O   0  0  0  0  0  0  0  0  0  0  0  0
   16.7419   22.4855   38.5194 O   0  0  0  0  0  0  0  0  0  0  0  0
   16.0154   24.7602   39.0741 O   0  0  0  0  0  0  0  0  0  0  0  0
   13.5585   32.4980   43.0409 H   0  0  0  0  0  0  0  0  0  0  0  0
    9.3937   26.0743   42.5370 H   0  0  0  0  0  0  0  0  0  0  0  0
   12.5500   29.9621   46.7665 H   0  0  0  0  0  0  0  0  0  0  0  0
   12.7675   27.0185   47.2238 H   0  0  0  0  0  0  0  0  0  0  0  0
   12.6726   28.3890   48.3949 H   0  0  0  0  0  0  0  0  0  0  0  0
   12.9993   31.4479   39.8308 H   0  0  0  0  0  0  0  0  0  0  0  0
    7.8835   24.2203   45.4238 H   0  0  0  0  0  0  0  0  0  0  0  0
    7.3291   24.9603   43.8837 H   0  0  0  0  0  0  0  0  0  0  0  0
    8.7170   23.8200   43.8837 H   0  0  0  0  0  0  0  0  0  0  0  0
    9.0956   25.9628   48.0659 H   0  0  0  0  0  0  0  0  0  0  0  0
    7.6151   25.7866   47.0641 H   0  0  0  0  0  0  0  0  0  0  0  0
    8.8589   24.4907   47.0641 H   0  0  0  0  0  0  0  0  0  0  0  0
   14.5898   28.9756   46.9280 H   0  0  0  0  0  0  0  0  0  0  0  0
   10.7161   27.6812   49.6089 H   0  0  0  0  0  0  0  0  0  0  0  0
    9.4184   26.7998   48.7338 H   0  0  0  0  0  0  0  0  0  0  0  0
   11.0966   26.1594   48.7338 H   0  0  0  0  0  0  0  0  0  0  0  0
    9.9689   29.4772   48.6834 H   0  0  0  0  0  0  0  0  0  0  0  0
   10.7002   30.0198   47.1351 H   0  0  0  0  0  0  0  0  0  0  0  0
    9.1005   29.2029   47.1351 H   0  0  0  0  0  0  0  0  0  0  0  0
   10.4324   26.6326   41.2505 H   0  0  0  0  0  0  0  0  0  0  0  0
   11.2299   28.1406   40.5555 H   0  0  0  0  0  0  0  0  0  0  0  0
   13.2006   26.4659   41.7676 H   0  0  0  0  0  0  0  0  0  0  0  0
   11.0675   25.1343   40.1713 H   0  0  0  0  0  0  0  0  0  0  0  0
   13.8857   25.0258   39.2647 H   0  0  0  0  0  0  0  0  0  0  0  0
   12.4345   22.6287   39.9660 H   0  0  0  0  0  0  0  0  0  0  0  0
   12.8280   22.6914   38.2218 H   0  0  0  0  0  0  0  0  0  0  0  0
   13.9498   27.7577   40.1834 H   0  0  0  0  0  0  0  0  0  0  0  0
   12.2332   24.6938   42.4295 H   0  0  0  0  0  0  0  0  0  0  0  0
   11.3794   25.4994   38.2838 H   0  0  0  0  0  0  0  0  0  0  0  0
  1  2  1  0
  1  6  2  0
  1 18  1  0
  2  3  1  0
  3  4  1  0
  3 25  2  0
  4  5  2  0
  4  7  1  0
  5  6  1  0
  5 10  1  0
  7  8  1  0
  7 15  1  0
  8  9  2  0
  8 11  1  0
  9 10  1  0
  9 14  1  0
 10 24  1  0
 11 12  2  0
 11 17  1  0
 12 13  1  0
 12 20  1  0
 13 14  2  0
 13 19  1  0
 15 16  1  0
 15 21  1  0
 16 17  1  0
 17 22  1  1
 17 23  1  0
 24 26  1  0
 26 27  1  0
 26 30  1  0
 27 28  1  0
 27 31  1  0
 28 29  1  0
 28 32  1  0
 29 33  1  0
 33 34  1  0
 34 35  2  0
 34 36  1  6
 34 37  1  0
  2 38  1  0
 14 39  1  0
 15 40  1  1
 16 41  1  0
 16 42  1  0
 18 43  1  0
 19 44  1  0
 19 45  1  0
 19 46  1  0
 20 47  1  0
 20 48  1  0
 20 49  1  0
 21 50  1  0
 22 51  1  0
 22 52  1  0
 22 53  1  0
 23 54  1  0
 23 55  1  0
 23 56  1  0
 24 57  1  0
 24 58  1  0
 26 59  1  1
 27 60  1  6
 28 61  1  6
 29 62  1  0
 29 63  1  0
 30 64  1  0
 31 65  1  0
 32 66  1  0
M  CHG  2  36  -1  37  -1
M  END
>  <filename_input>  (6) 
7NF0_BYN_docked.sdf

>  <pdb_id>  (6) 
7NF0_BYN

>  <pose_rank>  (6) 
5

>  <num_atoms_heavy>  (6) 
37

>  <num_torsions>  (6) 
7

>  <pose>  (6) 
[12.87206507620243, 30.988539770720863, 41.80854935980878, 1.3754722968547415, 3.6148937393327976, -0.027582628395650535, 2.7056405928583143, -0.9589057105721087, -0.6235412709748211, 1.6880792660858703, 1.1650939152758848, 1.0732511903628623, -3.8651734403213376]

>  <energy>  (6) 
-637.0339184123802

>  <inter_energy>  (6) 
-661.9349024713566

>  <intra_energy>  (6) 
24.992323445307253

>  <rmsd>  (6) 
8.01023

>  <sdf_rank>  (6) 
0

$$$$

     RDKit          3D

 66 69  0  0  0  0  0  0  0  0999 V2000
    9.3820   26.6300   43.4298 C   0  0  0  0  0  0  0  0  0  0  0  0
    9.2630   25.2995   43.6506 N   0  0  0  0  0  0  0  0  0  0  0  0
   10.1754   24.4017   43.1116 C   0  0  0  0  0  0  0  0  0  0  0  0
   11.1953   24.9629   42.3831 C   0  0  0  0  0  0  0  0  0  0  0  0
   11.2481   26.3575   42.1731 C   0  0  0  0  0  0  0  0  0  0  0  0
   10.3582   27.1948   42.7887 N   0  0  0  0  0  0  0  0  0  0  0  0
   12.2305   24.2049   41.8122 N   0  0  0  0  0  0  0  0  0  0  0  0
   12.9522   24.7260   40.7516 C   0  0  0  0  0  0  0  0  0  0  0  0
   12.8988   26.1107   40.4830 C   0  0  0  0  0  0  0  0  0  0  0  0
   12.1831   26.9354   41.3413 N   0  0  0  0  0  0  0  0  0  0  0  0
   13.7212   23.8531   39.9197 C   0  0  0  0  0  0  0  0  0  0  0  0
   14.4168   24.3912   38.8265 C   0  0  0  0  0  0  0  0  0  0  0  0
   14.4344   25.7805   38.6268 C   0  0  0  0  0  0  0  0  0  0  0  0
   13.6155   26.6113   39.3927 C   0  0  0  0  0  0  0  0  0  0  0  0
   12.6451   22.9979   42.5109 C   0  0  1  0  0  0  0  0  0  0  0  0
   13.7944   22.3042   41.8300 C   0  0  0  0  0  0  0  0  0  0  0  0
   13.6423   22.3758   40.2972 C   0  0  2  0  0  0  0  0  0  0  0  0
    8.3702   27.3629   43.9412 O   0  0  0  0  0  0  0  0  0  0  0  0
   15.2608   26.3919   37.5348 C   0  0  0  0  0  0  0  0  0  0  0  0
   15.2790   23.5367   37.8993 C   0  0  0  0  0  0  0  0  0  0  0  0
   12.8078   23.1893   43.8521 O   0  0  0  0  0  0  0  0  0  0  0  0
   14.7174   21.4584   39.7388 C   0  0  0  0  0  0  0  0  0  0  0  0
   12.2794   21.8236   39.8212 C   0  0  0  0  0  0  0  0  0  0  0  0
   12.3471   28.3852   41.3323 C   0  0  0  0  0  0  0  0  0  0  0  0
    9.8957   23.2296   43.2155 O   0  0  0  0  0  0  0  0  0  0  0  0
   11.2943   29.1598   40.5386 C   0  0  1  0  0  0  0  0  0  0  0  0
   11.9875   30.1554   39.5976 C   0  0  1  0  0  0  0  0  0  0  0  0
   11.1477   30.5408   38.3746 C   0  0  1  0  0  0  0  0  0  0  0  0
   10.8736   32.0108   38.2633 C   0  0  0  0  0  0  0  0  0  0  0  0
   10.4582   28.2695   39.7598 O   0  0  0  0  0  0  0  0  0  0  0  0
   12.3103   31.3502   40.3651 O   0  0  0  0  0  0  0  0  0  0  0  0
   11.7824   30.0646   37.1840 O   0  0  0  0  0  0  0  0  0  0  0  0
   10.7283   32.3590   36.8115 O   0  0  0  0  0  0  0  0  0  0  0  0
   10.8018   33.9181   36.4048 P   0  0  2  0  0  0  0  0  0  0  0  0
   12.0324   33.9085   35.4379 O   0  0  0  0  0  0  0  0  0  0  0  0
   11.1458   34.6471   37.6213 O   0  0  0  0  0  0  0  0  0  0  0  0
    9.5214   34.3063   35.8172 O   0  0  0  0  0  0  0  0  0  0  0  0
    8.4847   24.9481   44.2264 H   0  0  0  0  0  0  0  0  0  0  0  0
   13.5327   27.6773   39.1340 H   0  0  0  0  0  0  0  0  0  0  0  0
   11.8092   22.2863   42.4405 H   0  0  0  0  0  0  0  0  0  0  0  0
   14.7356   22.7925   42.1227 H   0  0  0  0  0  0  0  0  0  0  0  0
   13.8017   21.2477   42.1361 H   0  0  0  0  0  0  0  0  0  0  0  0
    8.3670   28.3468   43.8315 H   0  0  0  0  0  0  0  0  0  0  0  0
   16.0699   26.9905   37.9787 H   0  0  0  0  0  0  0  0  0  0  0  0
   15.6935   25.5948   36.9124 H   0  0  0  0  0  0  0  0  0  0  0  0
   14.6251   27.0388   36.9124 H   0  0  0  0  0  0  0  0  0  0  0  0
   15.9331   22.8884   38.5008 H   0  0  0  0  0  0  0  0  0  0  0  0
   14.6301   22.9152   37.2646 H   0  0  0  0  0  0  0  0  0  0  0  0
   15.8946   24.1911   37.2646 H   0  0  0  0  0  0  0  0  0  0  0  0
   12.2529   22.5366   44.3483 H   0  0  0  0  0  0  0  0  0  0  0  0
   15.2666   20.9897   40.5687 H   0  0  0  0  0  0  0  0  0  0  0  0
   14.2488   20.6775   39.1218 H   0  0  0  0  0  0  0  0  0  0  0  0
   15.4148   22.0439   39.1218 H   0  0  0  0  0  0  0  0  0  0  0  0
   11.6600   21.5727   40.6949 H   0  0  0  0  0  0  0  0  0  0  0  0
   11.7668   22.5851   39.2149 H   0  0  0  0  0  0  0  0  0  0  0  0
   12.4413   20.9202   39.2149 H   0  0  0  0  0  0  0  0  0  0  0  0
   12.3133   28.7369   42.3741 H   0  0  0  0  0  0  0  0  0  0  0  0
   13.3070   28.5784   40.8312 H   0  0  0  0  0  0  0  0  0  0  0  0
   10.6555   29.6965   41.2555 H   0  0  0  0  0  0  0  0  0  0  0  0
   12.8888   29.6648   39.2013 H   0  0  0  0  0  0  0  0  0  0  0  0
   10.1669   30.0604   38.5061 H   0  0  0  0  0  0  0  0  0  0  0  0
    9.9446   32.2566   38.7987 H   0  0  0  0  0  0  0  0  0  0  0  0
   11.7012   32.5833   38.7074 H   0  0  0  0  0  0  0  0  0  0  0  0
    9.9241   27.7009   40.3693 H   0  0  0  0  0  0  0  0  0  0  0  0
   12.2551   31.1461   41.3323 H   0  0  0  0  0  0  0  0  0  0  0  0
   12.5501   29.4887   37.4271 H   0  0  0  0  0  0  0  0  0  0  0  0
  1  2  1  0
  1  6  2  0
  1 18  1  0
  2  3  1  0
  3  4  1  0
  3 25  2  0
  4  5  2  0
  4  7  1  0
  5  6  1  0
  5 10  1  0
  7  8  1  0
  7 15  1  0
  8  9  2  0
  8 11  1  0
  9 10  1  0
  9 14  1  0
 10 24  1  0
 11 12  2  0
 11 17  1  0
 12 13  1  0
 12 20  1  0
 13 14  2  0
 13 19  1  0
 15 16  1  0
 15 21  1  0
 16 17  1  0
 17 22  1  6
 17 23  1  0
 24 26  1  0
 26 27  1  0
 26 30  1  0
 27 28  1  0
 27 31  1  0
 28 29  1  0
 28 32  1  0
 29 33  1  0
 33 34  1  0
 34 35  2  0
 34 36  1  1
 34 37  1  0
  2 38  1  0
 14 39  1  0
 15 40  1  1
 16 41  1  0
 16 42  1  0
 18 43  1  0
 19 44  1  0
 19 45  1  0
 19 46  1  0
 20 47  1  0
 20 48  1  0
 20 49  1  0
 21 50  1  0
 22 51  1  0
 22 52  1  0
 22 53  1  0
 23 54  1  0
 23 55  1  0
 23 56  1  0
 24 57  1  0
 24 58  1  0
 26 59  1  1
 27 60  1  6
 28 61  1  1
 29 62  1  0
 29 63  1  0
 30 64  1  0
 31 65  1  0
 32 66  1  0
M  CHG  2  36  -1  37  -1
M  END
>  <filename_input>  (7) 
7NF0_BYN_docked.sdf

>  <pdb_id>  (7) 
7NF0_BYN

>  <pose_rank>  (7) 
6

>  <num_atoms_heavy>  (7) 
37

>  <num_torsions>  (7) 
7

>  <pose>  (7) 
[9.381976498042672, 26.63003363230953, 43.42984221736041, 1.6102137997689245, -2.135992557977707, -1.5416176928232257, 43.898785568796484, 19.678852694638977, -38.02375809825213, 7.491717885128798, -19.496569708083367, -7.061326446726946, -1.2040905207309835]

>  <energy>  (7) 
-670.9220620605558

>  <inter_energy>  (7) 
-686.0910506691137

>  <intra_energy>  (7) 
20.392904845642136

>  <rmsd>  (7) 
7.36428

>  <sdf_rank>  (7) 
0

$$$$

     RDKit          3D

 66 69  0  0  0  0  0  0  0  0999 V2000
   16.7506   26.2070   37.4124 C   0  0  0  0  0  0  0  0  0  0  0  0
   17.0025   24.8767   37.4142 N   0  0  0  0  0  0  0  0  0  0  0  0
   16.1824   23.9955   38.1071 C   0  0  0  0  0  0  0  0  0  0  0  0
   15.1093   24.5666   38.7460 C   0  0  0  0  0  0  0  0  0  0  0  0
   14.9170   25.9645   38.7220 C   0  0  0  0  0  0  0  0  0  0  0  0
   15.7208   26.7714   37.9639 N   0  0  0  0  0  0  0  0  0  0  0  0
   14.1531   23.8156   39.4488 N   0  0  0  0  0  0  0  0  0  0  0  0
   13.3796   24.4323   40.4177 C   0  0  0  0  0  0  0  0  0  0  0  0
   13.2937   25.8408   40.4517 C   0  0  0  0  0  0  0  0  0  0  0  0
   13.9262   26.5775   39.4587 N   0  0  0  0  0  0  0  0  0  0  0  0
   12.6988   23.6385   41.3932 C   0  0  0  0  0  0  0  0  0  0  0  0
   11.9495   24.2797   42.3911 C   0  0  0  0  0  0  0  0  0  0  0  0
   11.7927   25.6742   42.3575 C   0  0  0  0  0  0  0  0  0  0  0  0
   12.5271   26.4427   41.4532 C   0  0  0  0  0  0  0  0  0  0  0  0
   13.8633   22.4741   38.9660 C   0  0  1  0  0  0  0  0  0  0  0  0
   12.7867   21.7934   39.7681 C   0  0  0  0  0  0  0  0  0  0  0  0
   12.9260   22.1341   41.2655 C   0  0  2  0  0  0  0  0  0  0  0  0
   17.6858   26.9408   36.7729 O   0  0  0  0  0  0  0  0  0  0  0  0
   10.9059   26.3743   43.3437 C   0  0  0  0  0  0  0  0  0  0  0  0
   11.1739   23.5107   43.4590 C   0  0  0  0  0  0  0  0  0  0  0  0
   13.6866   22.4222   37.6139 O   0  0  0  0  0  0  0  0  0  0  0  0
   11.9460   21.2208   41.9829 C   0  0  0  0  0  0  0  0  0  0  0  0
   14.3357   21.8066   41.8082 C   0  0  0  0  0  0  0  0  0  0  0  0
   13.6184   27.9851   39.2289 C   0  0  0  0  0  0  0  0  0  0  0  0
   16.5781   22.8560   38.1956 O   0  0  0  0  0  0  0  0  0  0  0  0
   12.1471   28.2990   38.9551 C   0  0  1  0  0  0  0  0  0  0  0  0
   12.0417   29.5653   38.0933 C   0  0  1  0  0  0  0  0  0  0  0  0
   11.1703   30.6650   38.7107 C   0  0  1  0  0  0  0  0  0  0  0  0
   10.4388   31.4995   37.7023 C   0  0  0  0  0  0  0  0  0  0  0  0
   11.4901   27.2020   38.2744 O   0  0  0  0  0  0  0  0  0  0  0  0
   13.3886   30.0740   37.8743 O   0  0  0  0  0  0  0  0  0  0  0  0
   10.2464   30.0855   39.6367 O   0  0  0  0  0  0  0  0  0  0  0  0
   11.0611   32.8641   37.6730 O   0  0  0  0  0  0  0  0  0  0  0  0
   10.3576   33.9880   36.7545 P   0  0  2  0  0  0  0  0  0  0  0  0
    9.0301   33.2559   36.3654 O   0  0  0  0  0  0  0  0  0  0  0  0
   11.1953   34.1371   35.5690 O   0  0  0  0  0  0  0  0  0  0  0  0
   10.2144   35.2101   37.5429 O   0  0  0  0  0  0  0  0  0  0  0  0
   17.8138   24.5130   36.8943 H   0  0  0  0  0  0  0  0  0  0  0  0
   12.5022   27.5397   41.5300 H   0  0  0  0  0  0  0  0  0  0  0  0
   14.7657   21.8704   39.1423 H   0  0  0  0  0  0  0  0  0  0  0  0
   11.8024   22.1305   39.4110 H   0  0  0  0  0  0  0  0  0  0  0  0
   12.8858   20.7052   39.6419 H   0  0  0  0  0  0  0  0  0  0  0  0
   17.5905   27.9247   36.7175 H   0  0  0  0  0  0  0  0  0  0  0  0
   11.2244   26.1229   44.3661 H   0  0  0  0  0  0  0  0  0  0  0  0
   10.9779   27.4617   43.1942 H   0  0  0  0  0  0  0  0  0  0  0  0
    9.8649   26.0518   43.1942 H   0  0  0  0  0  0  0  0  0  0  0  0
   11.5026   23.8366   44.4569 H   0  0  0  0  0  0  0  0  0  0  0  0
   10.0979   23.7086   43.3446 H   0  0  0  0  0  0  0  0  0  0  0  0
   11.3627   22.4331   43.3446 H   0  0  0  0  0  0  0  0  0  0  0  0
   12.7565   22.1491   37.4128 H   0  0  0  0  0  0  0  0  0  0  0  0
   12.0678   21.3342   43.0703 H   0  0  0  0  0  0  0  0  0  0  0  0
   10.9181   21.4905   41.6989 H   0  0  0  0  0  0  0  0  0  0  0  0
   12.1428   20.1764   41.6989 H   0  0  0  0  0  0  0  0  0  0  0  0
   14.3153   21.8113   42.9080 H   0  0  0  0  0  0  0  0  0  0  0  0
   14.6442   20.8128   41.4515 H   0  0  0  0  0  0  0  0  0  0  0  0
   15.0507   22.5625   41.4515 H   0  0  0  0  0  0  0  0  0  0  0  0
   13.9254   28.5497   40.1217 H   0  0  0  0  0  0  0  0  0  0  0  0
   14.1636   28.2694   38.3167 H   0  0  0  0  0  0  0  0  0  0  0  0
   11.6475   28.4553   39.9226 H   0  0  0  0  0  0  0  0  0  0  0  0
   11.5492   29.2848   37.1506 H   0  0  0  0  0  0  0  0  0  0  0  0
   11.8557   31.3512   39.2296 H   0  0  0  0  0  0  0  0  0  0  0  0
   10.5173   31.0344   36.7086 H   0  0  0  0  0  0  0  0  0  0  0  0
    9.3760   31.5756   37.9756 H   0  0  0  0  0  0  0  0  0  0  0  0
   11.1150   26.5758   38.9432 H   0  0  0  0  0  0  0  0  0  0  0  0
   13.8251   30.2389   38.7474 H   0  0  0  0  0  0  0  0  0  0  0  0
   10.5451   30.2728   40.5618 H   0  0  0  0  0  0  0  0  0  0  0  0
  1  2  1  0
  1  6  2  0
  1 18  1  0
  2  3  1  0
  3  4  1  0
  3 25  2  0
  4  5  2  0
  4  7  1  0
  5  6  1  0
  5 10  1  0
  7  8  1  0
  7 15  1  0
  8  9  2  0
  8 11  1  0
  9 10  1  0
  9 14  1  0
 10 24  1  0
 11 12  2  0
 11 17  1  0
 12 13  1  0
 12 20  1  0
 13 14  2  0
 13 19  1  0
 15 16  1  0
 15 21  1  0
 16 17  1  0
 17 22  1  1
 17 23  1  0
 24 26  1  0
 26 27  1  0
 26 30  1  0
 27 28  1  0
 27 31  1  0
 28 29  1  0
 28 32  1  0
 29 33  1  0
 33 34  1  0
 34 35  2  0
 34 36  1  6
 34 37  1  0
  2 38  1  0
 14 39  1  0
 15 40  1  6
 16 41  1  0
 16 42  1  0
 18 43  1  0
 19 44  1  0
 19 45  1  0
 19 46  1  0
 20 47  1  0
 20 48  1  0
 20 49  1  0
 21 50  1  0
 22 51  1  0
 22 52  1  0
 22 53  1  0
 23 54  1  0
 23 55  1  0
 23 56  1  0
 24 57  1  0
 24 58  1  0
 26 59  1  1
 27 60  1  6
 28 61  1  1
 29 62  1  0
 29 63  1  0
 30 64  1  0
 31 65  1  0
 32 66  1  0
M  CHG  2  36  -1  37  -1
M  END
>  <filename_input>  (8) 
7NF0_BYN_docked.sdf

>  <pdb_id>  (8) 
7NF0_BYN

>  <pose_rank>  (8) 
7

>  <num_atoms_heavy>  (8) 
37

>  <num_torsions>  (8) 
7

>  <pose>  (8) 
[16.750579657348975, 26.20700578788807, 37.41242302990588, -1.2547943572941465, -0.0894787869387692, -1.0927932663107462, -21.623687965807637, -5.833954929727217, -11.489640642000147, -9.768403949962515, -11.458230928318144, -0.9486867991640394, 3.1508083377433067]

>  <energy>  (8) 
-652.8855224641146

>  <inter_energy>  (8) 
-671.21037977659

>  <intra_energy>  (8) 
20.533348319632147

>  <rmsd>  (8) 
7.55086

>  <sdf_rank>  (8) 
0

$$$$

     RDKit          3D

 66 69  0  0  0  0  0  0  0  0999 V2000
   12.6957   30.8629   41.5632 C   0  0  0  0  0  0  0  0  0  0  0  0
   12.9768   31.5229   42.7115 N   0  0  0  0  0  0  0  0  0  0  0  0
   12.7137   30.9484   43.9483 C   0  0  0  0  0  0  0  0  0  0  0  0
   12.1883   29.6802   43.9099 C   0  0  0  0  0  0  0  0  0  0  0  0
   11.8988   29.0573   42.6770 C   0  0  0  0  0  0  0  0  0  0  0  0
   12.2457   29.6483   41.4928 N   0  0  0  0  0  0  0  0  0  0  0  0
   11.9112   28.9349   45.0675 N   0  0  0  0  0  0  0  0  0  0  0  0
   11.0003   27.8938   45.0063 C   0  0  0  0  0  0  0  0  0  0  0  0
   10.6312   27.3607   43.7526 C   0  0  0  0  0  0  0  0  0  0  0  0
   11.2532   27.8413   42.6076 N   0  0  0  0  0  0  0  0  0  0  0  0
   10.4190   27.3881   46.2111 C   0  0  0  0  0  0  0  0  0  0  0  0
    9.4695   26.3584   46.1298 C   0  0  0  0  0  0  0  0  0  0  0  0
    9.1826   25.7713   44.8875 C   0  0  0  0  0  0  0  0  0  0  0  0
    9.6917   26.3269   43.7129 C   0  0  0  0  0  0  0  0  0  0  0  0
   12.7656   29.1480   46.2257 C   0  0  1  0  0  0  0  0  0  0  0  0
   12.4018   28.2551   47.3817 C   0  0  0  0  0  0  0  0  0  0  0  0
   10.8716   28.0960   47.4860 C   0  0  2  0  0  0  0  0  0  0  0  0
   12.9217   31.5863   40.4461 O   0  0  0  0  0  0  0  0  0  0  0  0
    8.2577   24.5951   44.7860 C   0  0  0  0  0  0  0  0  0  0  0  0
    8.8144   25.7445   47.3656 C   0  0  0  0  0  0  0  0  0  0  0  0
   14.0934   29.1624   45.9115 O   0  0  0  0  0  0  0  0  0  0  0  0
   10.6265   27.3783   48.8028 C   0  0  0  0  0  0  0  0  0  0  0  0
   10.1489   29.4598   47.5685 C   0  0  0  0  0  0  0  0  0  0  0  0
   11.1798   27.1318   41.3348 C   0  0  0  0  0  0  0  0  0  0  0  0
   12.8351   31.6723   44.9096 O   0  0  0  0  0  0  0  0  0  0  0  0
   12.2741   26.0897   41.1002 C   0  0  1  0  0  0  0  0  0  0  0  0
   13.0464   26.4328   39.8185 C   0  0  1  0  0  0  0  0  0  0  0  0
   13.8997   25.2785   39.2807 C   0  0  1  0  0  0  0  0  0  0  0  0
   13.9424   24.0817   40.1830 C   0  0  0  0  0  0  0  0  0  0  0  0
   13.1984   26.0335   42.2141 O   0  0  0  0  0  0  0  0  0  0  0  0
   12.0814   26.8400   38.8067 O   0  0  0  0  0  0  0  0  0  0  0  0
   13.4367   24.9014   37.9805 O   0  0  0  0  0  0  0  0  0  0  0  0
   13.0013   23.0455   39.6437 O   0  0  0  0  0  0  0  0  0  0  0  0
   13.3220   21.4994   39.9726 P   0  0  2  0  0  0  0  0  0  0  0  0
   13.9410   21.0353   38.6121 O   0  0  0  0  0  0  0  0  0  0  0  0
   12.0337   20.8426   40.1690 O   0  0  0  0  0  0  0  0  0  0  0  0
   14.2044   21.4448   41.1361 O   0  0  0  0  0  0  0  0  0  0  0  0
   13.3918   32.4646   42.6671 H   0  0  0  0  0  0  0  0  0  0  0  0
    9.3479   25.9450   42.7403 H   0  0  0  0  0  0  0  0  0  0  0  0
   12.5639   30.1672   46.5869 H   0  0  0  0  0  0  0  0  0  0  0  0
   12.8585   27.2657   47.2316 H   0  0  0  0  0  0  0  0  0  0  0  0
   12.7746   28.7100   48.3113 H   0  0  0  0  0  0  0  0  0  0  0  0
   12.7461   31.1902   39.5560 H   0  0  0  0  0  0  0  0  0  0  0  0
    7.9882   24.2523   45.7959 H   0  0  0  0  0  0  0  0  0  0  0  0
    7.3473   24.8902   44.2438 H   0  0  0  0  0  0  0  0  0  0  0  0
    8.7593   23.7799   44.2438 H   0  0  0  0  0  0  0  0  0  0  0  0
    9.2693   26.1709   48.2718 H   0  0  0  0  0  0  0  0  0  0  0  0
    7.7369   25.9656   47.3574 H   0  0  0  0  0  0  0  0  0  0  0  0
    8.9652   24.6549   47.3574 H   0  0  0  0  0  0  0  0  0  0  0  0
   14.6294   29.1682   46.7439 H   0  0  0  0  0  0  0  0  0  0  0  0
   10.8578   28.0556   49.6381 H   0  0  0  0  0  0  0  0  0  0  0  0
    9.5722   27.0702   48.8618 H   0  0  0  0  0  0  0  0  0  0  0  0
   11.2720   26.4896   48.8618 H   0  0  0  0  0  0  0  0  0  0  0  0
   10.0034   29.7344   48.6237 H   0  0  0  0  0  0  0  0  0  0  0  0
   10.7581   30.2284   47.0703 H   0  0  0  0  0  0  0  0  0  0  0  0
    9.1709   29.3873   47.0703 H   0  0  0  0  0  0  0  0  0  0  0  0
   10.2076   26.6194   41.2876 H   0  0  0  0  0  0  0  0  0  0  0  0
   11.3159   27.8949   40.5543 H   0  0  0  0  0  0  0  0  0  0  0  0
   11.7909   25.1065   41.0008 H   0  0  0  0  0  0  0  0  0  0  0  0
   13.7523   27.2404   40.0626 H   0  0  0  0  0  0  0  0  0  0  0  0
   14.9327   25.6529   39.2275 H   0  0  0  0  0  0  0  0  0  0  0  0
   14.9643   23.6754   40.2124 H   0  0  0  0  0  0  0  0  0  0  0  0
   13.6446   24.3674   41.2026 H   0  0  0  0  0  0  0  0  0  0  0  0
   12.6925   26.0643   43.0646 H   0  0  0  0  0  0  0  0  0  0  0  0
   11.2652   27.1843   39.2488 H   0  0  0  0  0  0  0  0  0  0  0  0
   12.6723   24.2787   38.0702 H   0  0  0  0  0  0  0  0  0  0  0  0
  1  2  1  0
  1  6  2  0
  1 18  1  0
  2  3  1  0
  3  4  1  0
  3 25  2  0
  4  5  2  0
  4  7  1  0
  5  6  1  0
  5 10  1  0
  7  8  1  0
  7 15  1  0
  8  9  2  0
  8 11  1  0
  9 10  1  0
  9 14  1  0
 10 24  1  0
 11 12  2  0
 11 17  1  0
 12 13  1  0
 12 20  1  0
 13 14  2  0
 13 19  1  0
 15 16  1  0
 15 21  1  0
 16 17  1  0
 17 22  1  1
 17 23  1  0
 24 26  1  0
 26 27  1  0
 26 30  1  0
 27 28  1  0
 27 31  1  0
 28 29  1  0
 28 32  1  0
 29 33  1  0
 33 34  1  0
 34 35  2  0
 34 36  1  1
 34 37  1  0
  2 38  1  0
 14 39  1  0
 15 40  1  1
 16 41  1  0
 16 42  1  0
 18 43  1  0
 19 44  1  0
 19 45  1  0
 19 46  1  0
 20 47  1  0
 20 48  1  0
 20 49  1  0
 21 50  1  0
 22 51  1  0
 22 52  1  0
 22 53  1  0
 23 54  1  0
 23 55  1  0
 23 56  1  0
 24 57  1  0
 24 58  1  0
 26 59  1  6
 27 60  1  1
 28 61  1  6
 29 62  1  0
 29 63  1  0
 30 64  1  0
 31 65  1  0
 32 66  1  0
M  CHG  2  36  -1  37  -1
M  END
>  <filename_input>  (9) 
7NF0_BYN_docked.sdf

>  <pdb_id>  (9) 
7NF0_BYN

>  <pose_rank>  (9) 
8

>  <num_atoms_heavy>  (9) 
37

>  <num_torsions>  (9) 
7

>  <pose>  (9) 
[12.69573490939714, 30.862937364026674, 41.5632199097206, -0.8649041119716881, -2.24378177663879, 0.11673828459771643, 2.9371611410245277, 0.9819776587477642, 0.3789002488640762, -1.0202999372685428, -1.5087558811125064, -1.519702267985742, 1.2033476434165096]

>  <energy>  (9) 
-692.0655847591829

>  <inter_energy>  (9) 
-710.5786471146215

>  <intra_energy>  (9) 
21.12565485387475

>  <rmsd>  (9) 
7.79829

>  <sdf_rank>  (9) 
0

$$$$

     RDKit          3D

 66 69  0  0  0  0  0  0  0  0999 V2000
   10.2158   24.4131   43.1747 C   0  0  0  0  0  0  0  0  0  0  0  0
   10.5205   23.1403   42.8277 N   0  0  0  0  0  0  0  0  0  0  0  0
   11.5851   22.8669   41.9785 C   0  0  0  0  0  0  0  0  0  0  0  0
   12.2998   23.9613   41.5573 C   0  0  0  0  0  0  0  0  0  0  0  0
   11.9147   25.2641   41.9396 C   0  0  0  0  0  0  0  0  0  0  0  0
   10.8986   25.4623   42.8341 N   0  0  0  0  0  0  0  0  0  0  0  0
   13.4359   23.8600   40.7379 N   0  0  0  0  0  0  0  0  0  0  0  0
   13.8398   24.9558   39.9940 C   0  0  0  0  0  0  0  0  0  0  0  0
   13.3499   26.2394   40.3175 C   0  0  0  0  0  0  0  0  0  0  0  0
   12.5318   26.3865   41.4302 N   0  0  0  0  0  0  0  0  0  0  0  0
   14.7259   24.7736   38.8863 C   0  0  0  0  0  0  0  0  0  0  0  0
   15.0963   25.8885   38.1193 C   0  0  0  0  0  0  0  0  0  0  0  0
   14.6806   27.1715   38.5084 C   0  0  0  0  0  0  0  0  0  0  0  0
   13.7516   27.3276   39.5381 C   0  0  0  0  0  0  0  0  0  0  0  0
   14.2676   22.6752   40.8839 C   0  0  1  0  0  0  0  0  0  0  0  0
   15.4797   22.7090   39.9921 C   0  0  0  0  0  0  0  0  0  0  0  0
   15.1306   23.3252   38.6223 C   0  0  2  0  0  0  0  0  0  0  0  0
    9.1022   24.5234   43.9297 O   0  0  0  0  0  0  0  0  0  0  0  0
   15.1536   28.3907   37.7742 C   0  0  0  0  0  0  0  0  0  0  0  0
   16.0538   25.7892   36.9333 C   0  0  0  0  0  0  0  0  0  0  0  0
   14.5264   22.3646   42.1872 O   0  0  0  0  0  0  0  0  0  0  0  0
   16.3528   23.0942   37.7494 C   0  0  0  0  0  0  0  0  0  0  0  0
   13.9434   22.6036   37.9450 C   0  0  0  0  0  0  0  0  0  0  0  0
   12.2600   27.6932   42.0198 C   0  0  0  0  0  0  0  0  0  0  0  0
   11.6768   21.7259   41.5882 O   0  0  0  0  0  0  0  0  0  0  0  0
   13.3418   28.7510   41.7984 C   0  0  1  0  0  0  0  0  0  0  0  0
   13.1345   29.9136   42.7794 C   0  0  1  0  0  0  0  0  0  0  0  0
   13.4747   31.2884   42.1928 C   0  0  1  0  0  0  0  0  0  0  0  0
   13.3635   31.3570   40.6991 C   0  0  0  0  0  0  0  0  0  0  0  0
   14.6678   28.1987   41.9859 O   0  0  0  0  0  0  0  0  0  0  0  0
   11.7434   29.8966   43.2101 O   0  0  0  0  0  0  0  0  0  0  0  0
   12.6486   32.2884   42.7966 O   0  0  0  0  0  0  0  0  0  0  0  0
   11.9635   30.9855   40.3087 O   0  0  0  0  0  0  0  0  0  0  0  0
   11.5521   31.1442   38.7572 P   0  0  2  0  0  0  0  0  0  0  0  0
   10.2254   30.3145   38.7222 O   0  0  0  0  0  0  0  0  0  0  0  0
   12.5782   30.4519   37.9844 O   0  0  0  0  0  0  0  0  0  0  0  0
   11.4319   32.5680   38.4512 O   0  0  0  0  0  0  0  0  0  0  0  0
    9.9548   22.3637   43.1988 H   0  0  0  0  0  0  0  0  0  0  0  0
   13.3288   28.3229   39.7393 H   0  0  0  0  0  0  0  0  0  0  0  0
   13.6757   21.8236   40.5172 H   0  0  0  0  0  0  0  0  0  0  0  0
   16.2638   23.3138   40.4710 H   0  0  0  0  0  0  0  0  0  0  0  0
   15.8339   21.6792   39.8370 H   0  0  0  0  0  0  0  0  0  0  0  0
    8.7968   25.4146   44.2340 H   0  0  0  0  0  0  0  0  0  0  0  0
   15.4528   29.1622   38.4991 H   0  0  0  0  0  0  0  0  0  0  0  0
   16.0148   28.1274   37.1426 H   0  0  0  0  0  0  0  0  0  0  0  0
   14.3401   28.7770   37.1426 H   0  0  0  0  0  0  0  0  0  0  0  0
   17.0846   25.6824   37.3022 H   0  0  0  0  0  0  0  0  0  0  0  0
   15.7906   24.9136   36.3218 H   0  0  0  0  0  0  0  0  0  0  0  0
   15.9758   26.7003   36.3218 H   0  0  0  0  0  0  0  0  0  0  0  0
   14.0184   22.9743   42.7789 H   0  0  0  0  0  0  0  0  0  0  0  0
   17.2331   22.9278   38.3876 H   0  0  0  0  0  0  0  0  0  0  0  0
   16.1882   22.2112   37.1143 H   0  0  0  0  0  0  0  0  0  0  0  0
   16.5218   23.9763   37.1143 H   0  0  0  0  0  0  0  0  0  0  0  0
   13.2734   22.1963   38.7165 H   0  0  0  0  0  0  0  0  0  0  0  0
   13.3894   23.3179   37.3182 H   0  0  0  0  0  0  0  0  0  0  0  0
   14.3225   21.7829   37.3182 H   0  0  0  0  0  0  0  0  0  0  0  0
   11.3218   28.0718   41.5879 H   0  0  0  0  0  0  0  0  0  0  0  0
   12.2128   27.5311   43.1068 H   0  0  0  0  0  0  0  0  0  0  0  0
   13.2591   29.1094   40.7617 H   0  0  0  0  0  0  0  0  0  0  0  0
   13.8277   29.7655   43.6206 H   0  0  0  0  0  0  0  0  0  0  0  0
   14.5339   31.4729   42.4250 H   0  0  0  0  0  0  0  0  0  0  0  0
   13.5855   32.3786   40.3569 H   0  0  0  0  0  0  0  0  0  0  0  0
   14.0807   30.6637   40.2354 H   0  0  0  0  0  0  0  0  0  0  0  0
   14.8584   28.1193   42.9541 H   0  0  0  0  0  0  0  0  0  0  0  0
   11.7043   29.8961   44.1994 H   0  0  0  0  0  0  0  0  0  0  0  0
   12.7089   32.2153   43.7821 H   0  0  0  0  0  0  0  0  0  0  0  0
  1  2  1  0
  1  6  2  0
  1 18  1  0
  2  3  1  0
  3  4  1  0
  3 25  2  0
  4  5  2  0
  4  7  1  0
  5  6  1  0
  5 10  1  0
  7  8  1  0
  7 15  1  0
  8  9  2  0
  8 11  1  0
  9 10  1  0
  9 14  1  0
 10 24  1  0
 11 12  2  0
 11 17  1  0
 12 13  1  0
 12 20  1  0
 13 14  2  0
 13 19  1  0
 15 16  1  0
 15 21  1  0
 16 17  1  0
 17 22  1  6
 17 23  1  0
 24 26  1  0
 26 27  1  0
 26 30  1  0
 27 28  1  0
 27 31  1  0
 28 29  1  0
 28 32  1  0
 29 33  1  0
 33 34  1  0
 34 35  2  0
 34 36  1  6
 34 37  1  0
  2 38  1  0
 14 39  1  0
 15 40  1  6
 16 41  1  0
 16 42  1  0
 18 43  1  0
 19 44  1  0
 19 45  1  0
 19 46  1  0
 20 47  1  0
 20 48  1  0
 20 49  1  0
 21 50  1  0
 22 51  1  0
 22 52  1  0
 22 53  1  0
 23 54  1  0
 23 55  1  0
 23 56  1  0
 24 57  1  0
 24 58  1  0
 26 59  1  6
 27 60  1  1
 28 61  1  6
 29 62  1  0
 29 63  1  0
 30 64  1  0
 31 65  1  0
 32 66  1  0
M  CHG  2  36  -1  37  -1
M  END
>  <filename_input>  (10) 
7NF0_BYN_docked.sdf

>  <pdb_id>  (10) 
7NF0_BYN

>  <pose_rank>  (10) 
9

>  <num_atoms_heavy>  (10) 
37

>  <num_torsions>  (10) 
7

>  <pose>  (10) 
[10.215781844231607, 24.41305607362519, 43.174661563620205, 1.8792378847684097, -1.4924294552415458, -1.9779050851027875, -190.75392627744736, 19.099199847722314, 94.98175601232188, -94.7164523393298, 4.021927123840427, 80.52316539424069, 5.871360412356055]

>  <energy>  (10) 
-524.8418694056469

>  <inter_energy>  (10) 
-615.5580456544293

>  <intra_energy>  (10) 
87.95270401688445

>  <rmsd>  (10) 
6.34807

>  <sdf_rank>  (10) 
0

$$$$

     RDKit          3D

 66 69  0  0  0  0  0  0  0  0999 V2000
   11.9704   24.9195   41.5582 C   0  0  0  0  0  0  0  0  0  0  0  0
   11.0572   24.1220   42.1609 N   0  0  0  0  0  0  0  0  0  0  0  0
   10.4145   24.5247   43.3245 C   0  0  0  0  0  0  0  0  0  0  0  0
   10.7508   25.7753   43.7816 C   0  0  0  0  0  0  0  0  0  0  0  0
   11.7279   26.5467   43.1168 C   0  0  0  0  0  0  0  0  0  0  0  0
   12.2741   26.1227   41.9362 N   0  0  0  0  0  0  0  0  0  0  0  0
   10.1585   26.3572   44.9142 N   0  0  0  0  0  0  0  0  0  0  0  0
   10.8173   27.3770   45.5801 C   0  0  0  0  0  0  0  0  0  0  0  0
   11.8742   28.0605   44.9414 C   0  0  0  0  0  0  0  0  0  0  0  0
   12.1789   27.7468   43.6232 N   0  0  0  0  0  0  0  0  0  0  0  0
   10.4410   27.7087   46.9194 C   0  0  0  0  0  0  0  0  0  0  0  0
   11.1429   28.7189   47.5941 C   0  0  0  0  0  0  0  0  0  0  0  0
   12.1265   29.4563   46.9165 C   0  0  0  0  0  0  0  0  0  0  0  0
   12.5412   29.0697   45.6413 C   0  0  0  0  0  0  0  0  0  0  0  0
    8.7740   26.0142   45.2010 C   0  0  1  0  0  0  0  0  0  0  0  0
    8.2382   26.7407   46.4055 C   0  0  0  0  0  0  0  0  0  0  0  0
    9.3190   26.8510   47.4998 C   0  0  2  0  0  0  0  0  0  0  0  0
   12.5737   24.3528   40.4919 O   0  0  0  0  0  0  0  0  0  0  0  0
   12.8127   30.6150   47.5765 C   0  0  0  0  0  0  0  0  0  0  0  0
   10.7952   29.1522   49.0170 C   0  0  0  0  0  0  0  0  0  0  0  0
    7.9729   26.0701   44.0977 O   0  0  0  0  0  0  0  0  0  0  0  0
    8.6010   27.3856   48.7277 C   0  0  0  0  0  0  0  0  0  0  0  0
    9.9062   25.4725   47.8790 C   0  0  0  0  0  0  0  0  0  0  0  0
   13.0122   28.6142   42.7973 C   0  0  0  0  0  0  0  0  0  0  0  0
    9.7481   23.6847   43.8841 O   0  0  0  0  0  0  0  0  0  0  0  0
   12.3240   29.2089   41.5681 C   0  0  1  0  0  0  0  0  0  0  0  0
   12.7619   28.4436   40.3112 C   0  0  1  0  0  0  0  0  0  0  0  0
   11.6148   28.1329   39.3431 C   0  0  1  0  0  0  0  0  0  0  0  0
   11.9798   27.1645   38.2580 C   0  0  0  0  0  0  0  0  0  0  0  0
   10.8817   29.1460   41.6872 O   0  0  0  0  0  0  0  0  0  0  0  0
   13.7746   29.2383   39.6303 O   0  0  0  0  0  0  0  0  0  0  0  0
   10.4829   27.6523   40.0745 O   0  0  0  0  0  0  0  0  0  0  0  0
   13.4356   26.8281   38.3906 O   0  0  0  0  0  0  0  0  0  0  0  0
   14.0439   25.7256   37.3826 P   0  0  2  0  0  0  0  0  0  0  0  0
   15.3530   26.4470   36.9186 O   0  0  0  0  0  0  0  0  0  0  0  0
   13.1157   25.6347   36.2602 O   0  0  0  0  0  0  0  0  0  0  0  0
   14.2209   24.4734   38.1148 O   0  0  0  0  0  0  0  0  0  0  0  0
   10.8359   23.2035   41.7507 H   0  0  0  0  0  0  0  0  0  0  0  0
   13.4068   29.5672   45.1796 H   0  0  0  0  0  0  0  0  0  0  0  0
    8.7620   24.9524   45.4881 H   0  0  0  0  0  0  0  0  0  0  0  0
    7.9221   27.7511   46.1069 H   0  0  0  0  0  0  0  0  0  0  0  0
    7.3835   26.1771   46.8077 H   0  0  0  0  0  0  0  0  0  0  0  0
   13.2574   24.8574   39.9840 H   0  0  0  0  0  0  0  0  0  0  0  0
   12.7479   30.5055   48.6692 H   0  0  0  0  0  0  0  0  0  0  0  0
   13.8696   30.6370   47.2723 H   0  0  0  0  0  0  0  0  0  0  0  0
   12.3240   31.5523   47.2723 H   0  0  0  0  0  0  0  0  0  0  0  0
   11.3164   28.5028   49.7358 H   0  0  0  0  0  0  0  0  0  0  0  0
   11.1098   30.1951   49.1700 H   0  0  0  0  0  0  0  0  0  0  0  0
    9.7089   29.0707   49.1700 H   0  0  0  0  0  0  0  0  0  0  0  0
    7.0263   26.1362   44.3802 H   0  0  0  0  0  0  0  0  0  0  0  0
    9.0999   27.0141   49.6349 H   0  0  0  0  0  0  0  0  0  0  0  0
    8.6280   28.4853   48.7185 H   0  0  0  0  0  0  0  0  0  0  0  0
    7.5553   27.0445   48.7185 H   0  0  0  0  0  0  0  0  0  0  0  0
    9.9457   25.3795   48.9744 H   0  0  0  0  0  0  0  0  0  0  0  0
    9.2690   24.6764   47.4663 H   0  0  0  0  0  0  0  0  0  0  0  0
   10.9216   25.3803   47.4663 H   0  0  0  0  0  0  0  0  0  0  0  0
   13.3630   29.4462   43.4255 H   0  0  0  0  0  0  0  0  0  0  0  0
   13.8231   27.9782   42.4124 H   0  0  0  0  0  0  0  0  0  0  0  0
   12.6196   30.2657   41.4915 H   0  0  0  0  0  0  0  0  0  0  0  0
   13.1537   27.4685   40.6363 H   0  0  0  0  0  0  0  0  0  0  0  0
   11.3714   29.0775   38.8347 H   0  0  0  0  0  0  0  0  0  0  0  0
   11.3769   26.2500   38.3584 H   0  0  0  0  0  0  0  0  0  0  0  0
   11.7845   27.6118   37.2721 H   0  0  0  0  0  0  0  0  0  0  0  0
   10.6298   29.1350   42.6446 H   0  0  0  0  0  0  0  0  0  0  0  0
   14.3474   29.6878   40.3010 H   0  0  0  0  0  0  0  0  0  0  0  0
   10.6611   27.7280   41.0454 H   0  0  0  0  0  0  0  0  0  0  0  0
  1  2  1  0
  1  6  2  0
  1 18  1  0
  2  3  1  0
  3  4  1  0
  3 25  2  0
  4  5  2  0
  4  7  1  0
  5  6  1  0
  5 10  1  0
  7  8  1  0
  7 15  1  0
  8  9  2  0
  8 11  1  0
  9 10  1  0
  9 14  1  0
 10 24  1  0
 11 12  2  0
 11 17  1  0
 12 13  1  0
 12 20  1  0
 13 14  2  0
 13 19  1  0
 15 16  1  0
 15 21  1  0
 16 17  1  0
 17 22  1  1
 17 23  1  0
 24 26  1  0
 26 27  1  0
 26 30  1  0
 27 28  1  0
 27 31  1  0
 28 29  1  0
 28 32  1  0
 29 33  1  0
 33 34  1  0
 34 35  2  0
 34 36  1  6
 34 37  1  0
  2 38  1  0
 14 39  1  0
 15 40  1  1
 16 41  1  0
 16 42  1  0
 18 43  1  0
 19 44  1  0
 19 45  1  0
 19 46  1  0
 20 47  1  0
 20 48  1  0
 20 49  1  0
 21 50  1  0
 22 51  1  0
 22 52  1  0
 22 53  1  0
 23 54  1  0
 23 55  1  0
 23 56  1  0
 24 57  1  0
 24 58  1  0
 26 59  1  6
 27 60  1  1
 28 61  1  6
 29 62  1  0
 29 63  1  0
 30 64  1  0
 31 65  1  0
 32 66  1  0
M  CHG  2  36  -1  37  -1
M  END
>  <filename_input>  (11) 
7NF0_BYN_docked.sdf

>  <pdb_id>  (11) 
7NF0_BYN

>  <pose_rank>  (11) 
10

>  <num_atoms_heavy>  (11) 
37

>  <num_torsions>  (11) 
7

>  <pose>  (11) 
[11.970367178815854, 24.91946265797433, 41.55823312400314, -1.9081555511271948, 0.8585496010876319, -1.7033661344091098, 2.4434303270652538, 1.3193399416203677, -0.6450633802239796, -3.853108997776054, 2.9500029994024297, -1.1076519199119392, -0.9721531188534193]

>  <energy>  (11) 
-518.183579561403

>  <inter_energy>  (11) 
-640.3962908657384

>  <intra_energy>  (11) 
116.30470465330325

>  <rmsd>  (11) 
8.68377

>  <sdf_rank>  (11) 
0

$$$$

     RDKit          3D

 66 69  0  0  0  0  0  0  0  0999 V2000
   10.2440   27.9007   47.9351 C   0  0  0  0  0  0  0  0  0  0  0  0
    9.7133   26.7651   47.4233 N   0  0  0  0  0  0  0  0  0  0  0  0
    9.9927   26.3696   46.1215 C   0  0  0  0  0  0  0  0  0  0  0  0
   10.8511   27.1871   45.4280 C   0  0  0  0  0  0  0  0  0  0  0  0
   11.3518   28.3691   46.0143 C   0  0  0  0  0  0  0  0  0  0  0  0
   11.0943   28.6671   47.3246 N   0  0  0  0  0  0  0  0  0  0  0  0
   11.2790   26.9078   44.1199 N   0  0  0  0  0  0  0  0  0  0  0  0
   11.7555   27.9361   43.3243 C   0  0  0  0  0  0  0  0  0  0  0  0
   12.1413   29.1575   43.9173 C   0  0  0  0  0  0  0  0  0  0  0  0
   12.1092   29.2733   45.3010 N   0  0  0  0  0  0  0  0  0  0  0  0
   11.8244   27.7624   41.9064 C   0  0  0  0  0  0  0  0  0  0  0  0
   12.2739   28.8268   41.1105 C   0  0  0  0  0  0  0  0  0  0  0  0
   12.7454   30.0010   41.7182 C   0  0  0  0  0  0  0  0  0  0  0  0
   12.5960   30.1902   43.0928 C   0  0  0  0  0  0  0  0  0  0  0  0
   11.4134   25.5099   43.7397 C   0  0  1  0  0  0  0  0  0  0  0  0
   11.9288   25.3420   42.3354 C   0  0  0  0  0  0  0  0  0  0  0  0
   11.3244   26.4106   41.4025 C   0  0  2  0  0  0  0  0  0  0  0  0
    9.8075   28.1980   49.1774 O   0  0  0  0  0  0  0  0  0  0  0  0
   13.3364   31.1093   40.8987 C   0  0  0  0  0  0  0  0  0  0  0  0
   12.3994   28.7220   39.5918 C   0  0  0  0  0  0  0  0  0  0  0  0
   12.0633   24.7635   44.6792 O   0  0  0  0  0  0  0  0  0  0  0  0
   11.7312   26.0002   39.9970 C   0  0  0  0  0  0  0  0  0  0  0  0
    9.7794   26.4154   41.4469 C   0  0  0  0  0  0  0  0  0  0  0  0
   12.7926   30.3566   45.9999 C   0  0  0  0  0  0  0  0  0  0  0  0
    9.3439   25.4424   45.6947 O   0  0  0  0  0  0  0  0  0  0  0  0
   14.0949   29.9670   46.7004 C   0  0  1  0  0  0  0  0  0  0  0  0
   15.2363   30.8658   46.2037 C   0  0  1  0  0  0  0  0  0  0  0  0
   16.6096   30.1848   46.2102 C   0  0  1  0  0  0  0  0  0  0  0  0
   17.7635   31.1423   46.2105 C   0  0  0  0  0  0  0  0  0  0  0  0
   13.9797   30.0925   48.1389 O   0  0  0  0  0  0  0  0  0  0  0  0
   14.9120   31.2994   44.8518 O   0  0  0  0  0  0  0  0  0  0  0  0
   16.7029   29.2976   47.3287 O   0  0  0  0  0  0  0  0  0  0  0  0
   19.0363   30.3534   46.2984 O   0  0  0  0  0  0  0  0  0  0  0  0
   20.3570   30.9854   45.6218 P   0  0  2  0  0  0  0  0  0  0  0  0
   20.0127   32.5110   45.6822 O   0  0  0  0  0  0  0  0  0  0  0  0
   20.3611   30.5433   44.2311 O   0  0  0  0  0  0  0  0  0  0  0  0
   21.5239   30.5555   46.3891 O   0  0  0  0  0  0  0  0  0  0  0  0
    9.0936   26.1861   48.0078 H   0  0  0  0  0  0  0  0  0  0  0  0
   12.8399   31.1677   43.5342 H   0  0  0  0  0  0  0  0  0  0  0  0
   10.3981   25.0874   43.7161 H   0  0  0  0  0  0  0  0  0  0  0  0
   13.0242   25.4427   42.3382 H   0  0  0  0  0  0  0  0  0  0  0  0
   11.6383   24.3465   41.9684 H   0  0  0  0  0  0  0  0  0  0  0  0
   10.1383   29.0100   49.6371 H   0  0  0  0  0  0  0  0  0  0  0  0
   13.7475   31.8803   41.5669 H   0  0  0  0  0  0  0  0  0  0  0  0
   14.1401   30.7077   40.2641 H   0  0  0  0  0  0  0  0  0  0  0  0
   12.5550   31.5528   40.2641 H   0  0  0  0  0  0  0  0  0  0  0  0
   13.2209   28.0359   39.3382 H   0  0  0  0  0  0  0  0  0  0  0  0
   11.4581   28.3379   39.1717 H   0  0  0  0  0  0  0  0  0  0  0  0
   12.6095   29.7167   39.1717 H   0  0  0  0  0  0  0  0  0  0  0  0
   11.7985   25.0676   45.5833 H   0  0  0  0  0  0  0  0  0  0  0  0
   12.5046   25.2200   40.0523 H   0  0  0  0  0  0  0  0  0  0  0  0
   10.8539   25.6095   39.4607 H   0  0  0  0  0  0  0  0  0  0  0  0
   12.1296   26.8741   39.4607 H   0  0  0  0  0  0  0  0  0  0  0  0
    9.4427   26.4165   42.4940 H   0  0  0  0  0  0  0  0  0  0  0  0
    9.4008   27.3148   40.9391 H   0  0  0  0  0  0  0  0  0  0  0  0
    9.3952   25.5185   40.9391 H   0  0  0  0  0  0  0  0  0  0  0  0
   13.0244   31.1415   45.2650 H   0  0  0  0  0  0  0  0  0  0  0  0
   12.1070   30.6839   46.7953 H   0  0  0  0  0  0  0  0  0  0  0  0
   14.3080   28.9149   46.4603 H   0  0  0  0  0  0  0  0  0  0  0  0
   15.3176   31.7137   46.8997 H   0  0  0  0  0  0  0  0  0  0  0  0
   16.6838   29.6238   45.2670 H   0  0  0  0  0  0  0  0  0  0  0  0
   17.7562   31.7326   45.2824 H   0  0  0  0  0  0  0  0  0  0  0  0
   17.6847   31.8275   47.0675 H   0  0  0  0  0  0  0  0  0  0  0  0
   14.5801   29.4382   48.5764 H   0  0  0  0  0  0  0  0  0  0  0  0
   14.3197   32.0916   44.8925 H   0  0  0  0  0  0  0  0  0  0  0  0
   16.6481   29.8187   48.1687 H   0  0  0  0  0  0  0  0  0  0  0  0
  1  2  1  0
  1  6  2  0
  1 18  1  0
  2  3  1  0
  3  4  1  0
  3 25  2  0
  4  5  2  0
  4  7  1  0
  5  6  1  0
  5 10  1  0
  7  8  1  0
  7 15  1  0
  8  9  2  0
  8 11  1  0
  9 10  1  0
  9 14  1  0
 10 24  1  0
 11 12  2  0
 11 17  1  0
 12 13  1  0
 12 20  1  0
 13 14  2  0
 13 19  1  0
 15 16  1  0
 15 21  1  0
 16 17  1  0
 17 22  1  6
 17 23  1  0
 24 26  1  0
 26 27  1  0
 26 30  1  0
 27 28  1  0
 27 31  1  0
 28 29  1  0
 28 32  1  0
 29 33  1  0
 33 34  1  0
 34 35  2  0
 34 36  1  6
 34 37  1  0
  2 38  1  0
 14 39  1  0
 15 40  1  6
 16 41  1  0
 16 42  1  0
 18 43  1  0
 19 44  1  0
 19 45  1  0
 19 46  1  0
 20 47  1  0
 20 48  1  0
 20 49  1  0
 21 50  1  0
 22 51  1  0
 22 52  1  0
 22 53  1  0
 23 54  1  0
 23 55  1  0
 23 56  1  0
 24 57  1  0
 24 58  1  0
 26 59  1  1
 27 60  1  1
 28 61  1  6
 29 62  1  0
 29 63  1  0
 30 64  1  0
 31 65  1  0
 32 66  1  0
M  CHG  2  36  -1  37  -1
M  END
>  <filename_input>  (12) 
7NF0_BYN_docked.sdf

>  <pdb_id>  (12) 
7NF0_BYN

>  <pose_rank>  (12) 
11

>  <num_atoms_heavy>  (12) 
37

>  <num_torsions>  (12) 
7

>  <pose>  (12) 
[10.243999749670024, 27.900693882352748, 47.935075373520746, -0.8627022638752734, 1.5898365573626028, 2.435019277869091, -3.6150954061185376, -0.9972731282462877, 0.6380558964214104, -3.688550749998876, -0.19064854256007158, -1.5529481729643342, -2.8457400275884788]

>  <energy>  (12) 
-543.11295327788

>  <inter_energy>  (12) 
-558.054328198765

>  <intra_energy>  (12) 
18.296579741209243

>  <rmsd>  (12) 
7.44197

>  <sdf_rank>  (12) 
0

$$$$

     RDKit          3D

 66 69  0  0  0  0  0  0  0  0999 V2000
   14.7171   23.0700   37.7772 C   0  0  0  0  0  0  0  0  0  0  0  0
   14.9028   24.3005   37.2438 N   0  0  0  0  0  0  0  0  0  0  0  0
   14.5872   25.4459   37.9633 C   0  0  0  0  0  0  0  0  0  0  0  0
   14.1139   25.2322   39.2346 C   0  0  0  0  0  0  0  0  0  0  0  0
   13.9236   23.9214   39.7218 C   0  0  0  0  0  0  0  0  0  0  0  0
   14.3188   22.8354   38.9893 N   0  0  0  0  0  0  0  0  0  0  0  0
   13.7958   26.2790   40.1151 N   0  0  0  0  0  0  0  0  0  0  0  0
   12.9306   26.0433   41.1702 C   0  0  0  0  0  0  0  0  0  0  0  0
   12.6588   24.7167   41.5683 C   0  0  0  0  0  0  0  0  0  0  0  0
   13.3303   23.6751   40.9414 N   0  0  0  0  0  0  0  0  0  0  0  0
   12.2971   27.1441   41.8276 C   0  0  0  0  0  0  0  0  0  0  0  0
   11.3942   26.8871   42.8703 C   0  0  0  0  0  0  0  0  0  0  0  0
   11.2057   25.5712   43.3208 C   0  0  0  0  0  0  0  0  0  0  0  0
   11.7635   24.5012   42.6196 C   0  0  0  0  0  0  0  0  0  0  0  0
   14.5696   27.5065   40.0088 C   0  0  1  0  0  0  0  0  0  0  0  0
   14.1708   28.5297   41.0383 C   0  0  0  0  0  0  0  0  0  0  0  0
   12.6442   28.5166   41.2557 C   0  0  2  0  0  0  0  0  0  0  0  0
   14.9827   22.0576   36.9247 O   0  0  0  0  0  0  0  0  0  0  0  0
   10.3342   25.2795   44.5060 C   0  0  0  0  0  0  0  0  0  0  0  0
   10.6893   28.0018   43.6410 C   0  0  0  0  0  0  0  0  0  0  0  0
   15.9125   27.2823   39.9175 O   0  0  0  0  0  0  0  0  0  0  0  0
   12.3473   29.7264   42.1259 C   0  0  0  0  0  0  0  0  0  0  0  0
   11.8664   28.7041   39.9333 C   0  0  0  0  0  0  0  0  0  0  0  0
   13.3612   22.3289   41.5033 C   0  0  0  0  0  0  0  0  0  0  0  0
   14.6224   26.4878   37.3501 O   0  0  0  0  0  0  0  0  0  0  0  0
   14.6765   21.9269   42.1718 C   0  0  1  0  0  0  0  0  0  0  0  0
   14.7785   20.3961   42.2297 C   0  0  1  0  0  0  0  0  0  0  0  0
   14.7046   19.8227   43.6494 C   0  0  1  0  0  0  0  0  0  0  0  0
   15.9233   20.0942   44.4795 C   0  0  0  0  0  0  0  0  0  0  0  0
   15.8181   22.4548   41.4532 O   0  0  0  0  0  0  0  0  0  0  0  0
   13.7007   19.8422   41.4220 O   0  0  0  0  0  0  0  0  0  0  0  0
   13.5360   20.3183   44.3095 O   0  0  0  0  0  0  0  0  0  0  0  0
   15.9964   19.0648   45.5682 O   0  0  0  0  0  0  0  0  0  0  0  0
   17.2229   19.1639   46.6110 P   0  0  2  0  0  0  0  0  0  0  0  0
   16.7954   20.4181   47.4439 O   0  0  0  0  0  0  0  0  0  0  0  0
   18.4095   19.4848   45.8245 O   0  0  0  0  0  0  0  0  0  0  0  0
   17.3141   17.9024   47.3430 O   0  0  0  0  0  0  0  0  0  0  0  0
   15.2834   24.3885   36.2908 H   0  0  0  0  0  0  0  0  0  0  0  0
   11.4942   23.4719   42.8987 H   0  0  0  0  0  0  0  0  0  0  0  0
   14.3076   27.9655   39.0441 H   0  0  0  0  0  0  0  0  0  0  0  0
   14.6731   28.2998   41.9896 H   0  0  0  0  0  0  0  0  0  0  0  0
   14.4689   29.5263   40.6809 H   0  0  0  0  0  0  0  0  0  0  0  0
   14.8765   21.1193   37.2221 H   0  0  0  0  0  0  0  0  0  0  0  0
   10.8983   25.4683   45.4313 H   0  0  0  0  0  0  0  0  0  0  0  0
    9.4475   25.9298   44.4780 H   0  0  0  0  0  0  0  0  0  0  0  0
   10.0177   24.2264   44.4780 H   0  0  0  0  0  0  0  0  0  0  0  0
   10.7997   27.8271   44.7214 H   0  0  0  0  0  0  0  0  0  0  0  0
   11.1393   28.9705   43.3783 H   0  0  0  0  0  0  0  0  0  0  0  0
    9.6211   28.0104   43.3783 H   0  0  0  0  0  0  0  0  0  0  0  0
   16.2989   27.2177   40.8267 H   0  0  0  0  0  0  0  0  0  0  0  0
   12.4172   29.4416   43.1861 H   0  0  0  0  0  0  0  0  0  0  0  0
   13.0771   30.5208   41.9108 H   0  0  0  0  0  0  0  0  0  0  0  0
   11.3326   30.0926   41.9108 H   0  0  0  0  0  0  0  0  0  0  0  0
   10.8193   28.9565   40.1565 H   0  0  0  0  0  0  0  0  0  0  0  0
   12.3236   29.5178   39.3511 H   0  0  0  0  0  0  0  0  0  0  0  0
   11.9027   27.7715   39.3511 H   0  0  0  0  0  0  0  0  0  0  0  0
   12.5622   22.2570   42.2559 H   0  0  0  0  0  0  0  0  0  0  0  0
   13.2314   21.6428   40.6534 H   0  0  0  0  0  0  0  0  0  0  0  0
   14.6827   22.3467   43.1886 H   0  0  0  0  0  0  0  0  0  0  0  0
   15.7691   20.1149   41.8428 H   0  0  0  0  0  0  0  0  0  0  0  0
   14.6508   18.7293   43.5415 H   0  0  0  0  0  0  0  0  0  0  0  0
   16.8229   20.0325   43.8494 H   0  0  0  0  0  0  0  0  0  0  0  0
   15.8648   21.1019   44.9168 H   0  0  0  0  0  0  0  0  0  0  0  0
   16.4984   22.7694   42.0999 H   0  0  0  0  0  0  0  0  0  0  0  0
   12.9960   19.4802   42.0157 H   0  0  0  0  0  0  0  0  0  0  0  0
   13.6630   20.2645   45.2899 H   0  0  0  0  0  0  0  0  0  0  0  0
  1  2  1  0
  1  6  2  0
  1 18  1  0
  2  3  1  0
  3  4  1  0
  3 25  2  0
  4  5  2  0
  4  7  1  0
  5  6  1  0
  5 10  1  0
  7  8  1  0
  7 15  1  0
  8  9  2  0
  8 11  1  0
  9 10  1  0
  9 14  1  0
 10 24  1  0
 11 12  2  0
 11 17  1  0
 12 13  1  0
 12 20  1  0
 13 14  2  0
 13 19  1  0
 15 16  1  0
 15 21  1  0
 16 17  1  0
 17 22  1  1
 17 23  1  0
 24 26  1  0
 26 27  1  0
 26 30  1  0
 27 28  1  0
 27 31  1  0
 28 29  1  0
 28 32  1  0
 29 33  1  0
 33 34  1  0
 34 35  2  0
 34 36  1  6
 34 37  1  0
  2 38  1  0
 14 39  1  0
 15 40  1  6
 16 41  1  0
 16 42  1  0
 18 43  1  0
 19 44  1  0
 19 45  1  0
 19 46  1  0
 20 47  1  0
 20 48  1  0
 20 49  1  0
 21 50  1  0
 22 51  1  0
 22 52  1  0
 22 53  1  0
 23 54  1  0
 23 55  1  0
 23 56  1  0
 24 57  1  0
 24 58  1  0
 26 59  1  1
 27 60  1  6
 28 61  1  6
 29 62  1  0
 29 63  1  0
 30 64  1  0
 31 65  1  0
 32 66  1  0
M  CHG  2  36  -1  37  -1
M  END
>  <filename_input>  (13) 
7NF0_BYN_docked.sdf

>  <pdb_id>  (13) 
7NF0_BYN

>  <pose_rank>  (13) 
12

>  <num_atoms_heavy>  (13) 
37

>  <num_torsions>  (13) 
7

>  <pose>  (13) 
[14.717146947317312, 23.06999808444121, 37.77716953564072, 1.4751818461488688, 2.0346020580835247, -1.9969260664721855, -3.615308792699963, 0.34352282816423885, 1.288580689499122, -2.1509105240401407, 0.2682886855487978, -1.0283871516048455, -2.0335110526435245]

>  <energy>  (13) 
-555.0039623366654

>  <inter_energy>  (13) 
-585.6565129302213

>  <intra_energy>  (13) 
27.665162111657697

>  <rmsd>  (13) 
7.06778

>  <sdf_rank>  (13) 
0

$$$$

     RDKit          3D

 66 69  0  0  0  0  0  0  0  0999 V2000
   10.6425   25.0764   44.3192 C   0  0  0  0  0  0  0  0  0  0  0  0
   10.0116   26.2649   44.1687 N   0  0  0  0  0  0  0  0  0  0  0  0
   10.2402   27.0584   43.0519 C   0  0  0  0  0  0  0  0  0  0  0  0
   11.1108   26.5376   42.1263 C   0  0  0  0  0  0  0  0  0  0  0  0
   11.7517   25.3013   42.3557 C   0  0  0  0  0  0  0  0  0  0  0  0
   11.4313   24.5350   43.4430 N   0  0  0  0  0  0  0  0  0  0  0  0
   11.4141   27.1844   40.9172 N   0  0  0  0  0  0  0  0  0  0  0  0
   12.5864   26.8697   40.2510 C   0  0  0  0  0  0  0  0  0  0  0  0
   13.2796   25.6843   40.5779 C   0  0  0  0  0  0  0  0  0  0  0  0
   12.7253   24.8159   41.5093 N   0  0  0  0  0  0  0  0  0  0  0  0
   13.1004   27.7626   39.2592 C   0  0  0  0  0  0  0  0  0  0  0  0
   14.3090   27.4482   38.6197 C   0  0  0  0  0  0  0  0  0  0  0  0
   14.9384   26.2215   38.8830 C   0  0  0  0  0  0  0  0  0  0  0  0
   14.4736   25.3989   39.9101 C   0  0  0  0  0  0  0  0  0  0  0  0
   10.3699   27.9921   40.3056 C   0  0  1  0  0  0  0  0  0  0  0  0
   10.7981   28.5879   38.9913 C   0  0  0  0  0  0  0  0  0  0  0  0
   12.2744   29.0295   39.0492 C   0  0  2  0  0  0  0  0  0  0  0  0
   10.3878   24.4661   45.4960 O   0  0  0  0  0  0  0  0  0  0  0  0
   16.1693   25.8097   38.1317 C   0  0  0  0  0  0  0  0  0  0  0  0
   14.9195   28.3329   37.5344 C   0  0  0  0  0  0  0  0  0  0  0  0
    9.1585   27.3643   40.2799 O   0  0  0  0  0  0  0  0  0  0  0  0
   12.5154   29.8109   37.7684 C   0  0  0  0  0  0  0  0  0  0  0  0
   12.5486   29.9906   40.2282 C   0  0  0  0  0  0  0  0  0  0  0  0
   13.1932   23.4417   41.6559 C   0  0  0  0  0  0  0  0  0  0  0  0
    9.7699   28.1723   43.0835 O   0  0  0  0  0  0  0  0  0  0  0  0
   12.3252   22.3776   40.9832 C   0  0  1  0  0  0  0  0  0  0  0  0
   13.1771   21.1389   40.6715 C   0  0  1  0  0  0  0  0  0  0  0  0
   14.6796   21.4274   40.5757 C   0  0  1  0  0  0  0  0  0  0  0  0
   15.3435   20.8067   39.3831 C   0  0  0  0  0  0  0  0  0  0  0  0
   11.2125   21.9919   41.8266 O   0  0  0  0  0  0  0  0  0  0  0  0
   12.9345   20.1517   41.7144 O   0  0  0  0  0  0  0  0  0  0  0  0
   14.9009   22.8409   40.5850 O   0  0  0  0  0  0  0  0  0  0  0  0
   14.4364   20.9631   38.1986 O   0  0  0  0  0  0  0  0  0  0  0  0
   14.7910   22.1199   37.1320 P   0  0  2  0  0  0  0  0  0  0  0  0
   15.5435   21.2880   36.0406 O   0  0  0  0  0  0  0  0  0  0  0  0
   15.7325   23.0176   37.7932 O   0  0  0  0  0  0  0  0  0  0  0  0
   13.5474   22.7620   36.7116 O   0  0  0  0  0  0  0  0  0  0  0  0
    9.3527   26.5851   44.8927 H   0  0  0  0  0  0  0  0  0  0  0  0
   15.0563   24.5117   40.1987 H   0  0  0  0  0  0  0  0  0  0  0  0
   10.2098   28.8579   40.9649 H   0  0  0  0  0  0  0  0  0  0  0  0
   10.6767   27.8364   38.1973 H   0  0  0  0  0  0  0  0  0  0  0  0
   10.1732   29.4686   38.7815 H   0  0  0  0  0  0  0  0  0  0  0  0
   10.8033   23.5910   45.6999 H   0  0  0  0  0  0  0  0  0  0  0  0
   16.9629   25.5441   38.8456 H   0  0  0  0  0  0  0  0  0  0  0  0
   15.9389   24.9397   37.4992 H   0  0  0  0  0  0  0  0  0  0  0  0
   16.5088   26.6431   37.4992 H   0  0  0  0  0  0  0  0  0  0  0  0
   15.4845   29.1517   38.0037 H   0  0  0  0  0  0  0  0  0  0  0  0
   15.5960   27.7319   36.9090 H   0  0  0  0  0  0  0  0  0  0  0  0
   14.1176   28.7521   36.9090 H   0  0  0  0  0  0  0  0  0  0  0  0
    8.8500   27.2044   41.2069 H   0  0  0  0  0  0  0  0  0  0  0  0
   12.8313   30.8347   38.0175 H   0  0  0  0  0  0  0  0  0  0  0  0
   13.3030   29.3171   37.1803 H   0  0  0  0  0  0  0  0  0  0  0  0
   11.5865   29.8465   37.1803 H   0  0  0  0  0  0  0  0  0  0  0  0
   12.3966   29.4579   41.1785 H   0  0  0  0  0  0  0  0  0  0  0  0
   13.5859   30.3526   40.1726 H   0  0  0  0  0  0  0  0  0  0  0  0
   11.8585   30.8454   40.1726 H   0  0  0  0  0  0  0  0  0  0  0  0
   14.2028   23.3791   41.2236 H   0  0  0  0  0  0  0  0  0  0  0  0
   13.1592   23.2235   42.7335 H   0  0  0  0  0  0  0  0  0  0  0  0
   11.9230   22.8057   40.0531 H   0  0  0  0  0  0  0  0  0  0  0  0
   12.8774   20.7713   39.6790 H   0  0  0  0  0  0  0  0  0  0  0  0
   15.1436   20.9597   41.4565 H   0  0  0  0  0  0  0  0  0  0  0  0
   16.3008   21.3116   39.1866 H   0  0  0  0  0  0  0  0  0  0  0  0
   15.5368   19.7404   39.5717 H   0  0  0  0  0  0  0  0  0  0  0  0
   11.4725   22.0821   42.7776 H   0  0  0  0  0  0  0  0  0  0  0  0
   13.0391   20.5771   42.6022 H   0  0  0  0  0  0  0  0  0  0  0  0
   14.9510   23.1609   41.5205 H   0  0  0  0  0  0  0  0  0  0  0  0
  1  2  1  0
  1  6  2  0
  1 18  1  0
  2  3  1  0
  3  4  1  0
  3 25  2  0
  4  5  2  0
  4  7  1  0
  5  6  1  0
  5 10  1  0
  7  8  1  0
  7 15  1  0
  8  9  2  0
  8 11  1  0
  9 10  1  0
  9 14  1  0
 10 24  1  0
 11 12  2  0
 11 17  1  0
 12 13  1  0
 12 20  1  0
 13 14  2  0
 13 19  1  0
 15 16  1  0
 15 21  1  0
 16 17  1  0
 17 22  1  6
 17 23  1  0
 24 26  1  0
 26 27  1  0
 26 30  1  0
 27 28  1  0
 27 31  1  0
 28 29  1  0
 28 32  1  0
 29 33  1  0
 33 34  1  0
 34 35  2  0
 34 36  1  1
 34 37  1  0
  2 38  1  0
 14 39  1  0
 15 40  1  1
 16 41  1  0
 16 42  1  0
 18 43  1  0
 19 44  1  0
 19 45  1  0
 19 46  1  0
 20 47  1  0
 20 48  1  0
 20 49  1  0
 21 50  1  0
 22 51  1  0
 22 52  1  0
 22 53  1  0
 23 54  1  0
 23 55  1  0
 23 56  1  0
 24 57  1  0
 24 58  1  0
 26 59  1  6
 27 60  1  6
 28 61  1  1
 29 62  1  0
 29 63  1  0
 30 64  1  0
 31 65  1  0
 32 66  1  0
M  CHG  2  36  -1  37  -1
M  END
>  <filename_input>  (14) 
7NF0_BYN_docked.sdf

>  <pdb_id>  (14) 
7NF0_BYN

>  <pose_rank>  (14) 
13

>  <num_atoms_heavy>  (14) 
37

>  <num_torsions>  (14) 
7

>  <pose>  (14) 
[10.64251734947447, 25.07643843326134, 44.319233657960076, -2.4413656408500093, -1.0024830675152954, -3.807746323251701, 2.7333732871753087, -0.46130593472902565, 2.85431382454599, -3.2415154176954504, 3.727019773882931, -2.398542952524646, -1.5900848910291052]

>  <energy>  (14) 
-384.0176827349791

>  <inter_energy>  (14) 
-527.3286389740124

>  <intra_energy>  (14) 
141.20574807350388

>  <rmsd>  (14) 
7.54373

>  <sdf_rank>  (14) 
0

$$$$

     RDKit          3D

 66 69  0  0  0  0  0  0  0  0999 V2000
   12.8898   29.0564   38.3040 C   0  0  0  0  0  0  0  0  0  0  0  0
   12.8352   29.7822   37.1624 N   0  0  0  0  0  0  0  0  0  0  0  0
   11.9552   30.8494   37.0359 C   0  0  0  0  0  0  0  0  0  0  0  0
   11.1897   31.1173   38.1441 C   0  0  0  0  0  0  0  0  0  0  0  0
   11.2807   30.3068   39.2958 C   0  0  0  0  0  0  0  0  0  0  0  0
   12.2169   29.3128   39.3831 N   0  0  0  0  0  0  0  0  0  0  0  0
   10.2867   32.1911   38.2047 N   0  0  0  0  0  0  0  0  0  0  0  0
    9.2493   32.1586   39.1214 C   0  0  0  0  0  0  0  0  0  0  0  0
    9.3017   31.2553   40.2046 C   0  0  0  0  0  0  0  0  0  0  0  0
   10.4355   30.4708   40.3723 N   0  0  0  0  0  0  0  0  0  0  0  0
    8.1206   33.0192   38.9461 C   0  0  0  0  0  0  0  0  0  0  0  0
    7.0605   32.9479   39.8624 C   0  0  0  0  0  0  0  0  0  0  0  0
    7.1667   32.1160   40.9880 C   0  0  0  0  0  0  0  0  0  0  0  0
    8.2324   31.2224   41.1038 C   0  0  0  0  0  0  0  0  0  0  0  0
   10.6183   33.3926   37.4543 C   0  0  1  0  0  0  0  0  0  0  0  0
    9.6026   34.4876   37.6420 C   0  0  0  0  0  0  0  0  0  0  0  0
    8.1770   33.9031   37.7024 C   0  0  2  0  0  0  0  0  0  0  0  0
   13.7259   27.9985   38.2412 O   0  0  0  0  0  0  0  0  0  0  0  0
    6.0995   32.1045   42.0416 C   0  0  0  0  0  0  0  0  0  0  0  0
    5.8270   33.8435   39.7640 C   0  0  0  0  0  0  0  0  0  0  0  0
   11.9153   33.7826   37.6208 O   0  0  0  0  0  0  0  0  0  0  0  0
    7.2441   35.1019   37.6600 C   0  0  0  0  0  0  0  0  0  0  0  0
    7.8533   33.0296   36.4690 C   0  0  0  0  0  0  0  0  0  0  0  0
   10.7106   29.7708   41.6226 C   0  0  0  0  0  0  0  0  0  0  0  0
   11.8528   31.3282   35.9300 O   0  0  0  0  0  0  0  0  0  0  0  0
   11.6803   30.4774   42.5707 C   0  0  1  0  0  0  0  0  0  0  0  0
   12.4530   29.4337   43.3896 C   0  0  1  0  0  0  0  0  0  0  0  0
   12.1841   29.5050   44.8971 C   0  0  1  0  0  0  0  0  0  0  0  0
   11.8886   28.1763   45.5260 C   0  0  0  0  0  0  0  0  0  0  0  0
   12.6205   31.3062   41.8445 O   0  0  0  0  0  0  0  0  0  0  0  0
   12.0931   28.1136   42.8908 O   0  0  0  0  0  0  0  0  0  0  0  0
   13.2907   30.1286   45.5555 O   0  0  0  0  0  0  0  0  0  0  0  0
   11.5627   28.3971   46.9735 O   0  0  0  0  0  0  0  0  0  0  0  0
   10.1217   27.8999   47.5005 P   0  0  2  0  0  0  0  0  0  0  0  0
    9.5724   29.2214   48.1343 O   0  0  0  0  0  0  0  0  0  0  0  0
   10.3808   26.9263   48.5562 O   0  0  0  0  0  0  0  0  0  0  0  0
    9.3704   27.3663   46.3664 O   0  0  0  0  0  0  0  0  0  0  0  0
   13.4551   29.5395   36.3765 H   0  0  0  0  0  0  0  0  0  0  0  0
    8.2306   30.4803   41.9158 H   0  0  0  0  0  0  0  0  0  0  0  0
   10.5514   33.1306   36.3880 H   0  0  0  0  0  0  0  0  0  0  0  0
    9.8148   35.0200   38.5809 H   0  0  0  0  0  0  0  0  0  0  0  0
    9.6658   35.1791   36.7889 H   0  0  0  0  0  0  0  0  0  0  0  0
   13.8345   27.4061   39.0269 H   0  0  0  0  0  0  0  0  0  0  0  0
    6.5671   32.1095   43.0372 H   0  0  0  0  0  0  0  0  0  0  0  0
    5.4646   32.9959   41.9301 H   0  0  0  0  0  0  0  0  0  0  0  0
    5.4839   31.1997   41.9301 H   0  0  0  0  0  0  0  0  0  0  0  0
    5.4769   34.0977   40.7754 H   0  0  0  0  0  0  0  0  0  0  0  0
    6.0856   34.7656   39.2230 H   0  0  0  0  0  0  0  0  0  0  0  0
    5.0302   33.3121   39.2230 H   0  0  0  0  0  0  0  0  0  0  0  0
   12.1198   33.8441   38.5875 H   0  0  0  0  0  0  0  0  0  0  0  0
    7.0012   35.4140   38.6864 H   0  0  0  0  0  0  0  0  0  0  0  0
    7.7367   35.9313   37.1314 H   0  0  0  0  0  0  0  0  0  0  0  0
    6.3191   34.8281   37.1314 H   0  0  0  0  0  0  0  0  0  0  0  0
    7.4891   32.0463   36.8015 H   0  0  0  0  0  0  0  0  0  0  0  0
    7.0781   33.5224   35.8639 H   0  0  0  0  0  0  0  0  0  0  0  0
    8.7625   32.8983   35.8639 H   0  0  0  0  0  0  0  0  0  0  0  0
    9.7563   29.6351   42.1525 H   0  0  0  0  0  0  0  0  0  0  0  0
   11.1978   28.8260   41.3399 H   0  0  0  0  0  0  0  0  0  0  0  0
   11.0918   31.1241   43.2381 H   0  0  0  0  0  0  0  0  0  0  0  0
   13.5258   29.6424   43.2651 H   0  0  0  0  0  0  0  0  0  0  0  0
   11.2724   30.1075   45.0229 H   0  0  0  0  0  0  0  0  0  0  0  0
   11.0314   27.7085   45.0197 H   0  0  0  0  0  0  0  0  0  0  0  0
   12.7610   27.5127   45.4329 H   0  0  0  0  0  0  0  0  0  0  0  0
   13.1858   31.8044   42.4867 H   0  0  0  0  0  0  0  0  0  0  0  0
   11.9275   27.5061   43.6547 H   0  0  0  0  0  0  0  0  0  0  0  0
   13.1717   30.0616   46.5361 H   0  0  0  0  0  0  0  0  0  0  0  0
  1  2  1  0
  1  6  2  0
  1 18  1  0
  2  3  1  0
  3  4  1  0
  3 25  2  0
  4  5  2  0
  4  7  1  0
  5  6  1  0
  5 10  1  0
  7  8  1  0
  7 15  1  0
  8  9  2  0
  8 11  1  0
  9 10  1  0
  9 14  1  0
 10 24  1  0
 11 12  2  0
 11 17  1  0
 12 13  1  0
 12 20  1  0
 13 14  2  0
 13 19  1  0
 15 16  1  0
 15 21  1  0
 16 17  1  0
 17 22  1  1
 17 23  1  0
 24 26  1  0
 26 27  1  0
 26 30  1  0
 27 28  1  0
 27 31  1  0
 28 29  1  0
 28 32  1  0
 29 33  1  0
 33 34  1  0
 34 35  2  0
 34 36  1  1
 34 37  1  0
  2 38  1  0
 14 39  1  0
 15 40  1  6
 16 41  1  0
 16 42  1  0
 18 43  1  0
 19 44  1  0
 19 45  1  0
 19 46  1  0
 20 47  1  0
 20 48  1  0
 20 49  1  0
 21 50  1  0
 22 51  1  0
 22 52  1  0
 22 53  1  0
 23 54  1  0
 23 55  1  0
 23 56  1  0
 24 57  1  0
 24 58  1  0
 26 59  1  1
 27 60  1  1
 28 61  1  6
 29 62  1  0
 29 63  1  0
 30 64  1  0
 31 65  1  0
 32 66  1  0
M  CHG  2  36  -1  37  -1
M  END
>  <filename_input>  (15) 
7NF0_BYN_docked.sdf

>  <pdb_id>  (15) 
7NF0_BYN

>  <pose_rank>  (15) 
14

>  <num_atoms_heavy>  (15) 
37

>  <num_torsions>  (15) 
7

>  <pose>  (15) 
[12.8897781567147, 29.056416641643963, 38.3040426820044, 0.9869343052783861, 1.3314103744233334, -1.9094412529055271, -3.5034874964260596, 0.4988382945030583, 1.214307188753214, 1.400561483840011, -0.07287709091125054, 4.219608018231158, 0.7960673469615057]

>  <energy>  (15) 
-412.1147142343561

>  <inter_energy>  (15) 
-425.1272402100311

>  <intra_energy>  (15) 
14.068105425374597

>  <rmsd>  (15) 
7.44998

>  <sdf_rank>  (15) 
0

$$$$

     RDKit          3D

 66 69  0  0  0  0  0  0  0  0999 V2000
    9.9527   26.8881   47.4379 C   0  0  0  0  0  0  0  0  0  0  0  0
   11.2567   27.2523   47.4348 N   0  0  0  0  0  0  0  0  0  0  0  0
   11.8882   27.6362   46.2588 C   0  0  0  0  0  0  0  0  0  0  0  0
   11.0942   27.6441   45.1383 C   0  0  0  0  0  0  0  0  0  0  0  0
    9.7464   27.2314   45.2073 C   0  0  0  0  0  0  0  0  0  0  0  0
    9.1643   26.9310   46.4086 N   0  0  0  0  0  0  0  0  0  0  0  0
   11.5589   28.0547   43.8782 N   0  0  0  0  0  0  0  0  0  0  0  0
   10.8963   27.6347   42.7372 C   0  0  0  0  0  0  0  0  0  0  0  0
    9.5891   27.1124   42.8402 C   0  0  0  0  0  0  0  0  0  0  0  0
    8.9632   27.1053   44.0801 N   0  0  0  0  0  0  0  0  0  0  0  0
   11.5530   27.7059   41.4687 C   0  0  0  0  0  0  0  0  0  0  0  0
   10.8825   27.2416   40.3272 C   0  0  0  0  0  0  0  0  0  0  0  0
    9.5490   26.8147   40.4273 C   0  0  0  0  0  0  0  0  0  0  0  0
    8.9486   26.6717   41.6789 C   0  0  0  0  0  0  0  0  0  0  0  0
   12.5819   29.0886   43.8422 C   0  0  1  0  0  0  0  0  0  0  0  0
   12.9571   29.4788   42.4376 C   0  0  0  0  0  0  0  0  0  0  0  0
   12.9819   28.2418   41.5173 C   0  0  2  0  0  0  0  0  0  0  0  0
    9.5079   26.4543   48.6364 O   0  0  0  0  0  0  0  0  0  0  0  0
    8.7721   26.4205   39.2065 C   0  0  0  0  0  0  0  0  0  0  0  0
   11.4992   27.2992   38.9309 C   0  0  0  0  0  0  0  0  0  0  0  0
   12.3080   30.1368   44.6718 O   0  0  0  0  0  0  0  0  0  0  0  0
   13.5884   28.7208   40.2089 C   0  0  0  0  0  0  0  0  0  0  0  0
   13.9018   27.1271   42.0652 C   0  0  0  0  0  0  0  0  0  0  0  0
    7.5251   26.9002   44.2164 C   0  0  0  0  0  0  0  0  0  0  0  0
   13.0879   27.7776   46.3190 O   0  0  0  0  0  0  0  0  0  0  0  0
    7.0873   25.4532   44.4460 C   0  0  1  0  0  0  0  0  0  0  0  0
    5.8946   25.1250   43.5366 C   0  0  1  0  0  0  0  0  0  0  0  0
    4.6394   24.6805   44.2960 C   0  0  1  0  0  0  0  0  0  0  0  0
    4.8270   23.4306   45.1028 C   0  0  0  0  0  0  0  0  0  0  0  0
    8.1654   24.5249   44.1733 O   0  0  0  0  0  0  0  0  0  0  0  0
    5.5930   26.3093   42.7446 O   0  0  0  0  0  0  0  0  0  0  0  0
    4.1799   25.7455   45.1336 O   0  0  0  0  0  0  0  0  0  0  0  0
    3.5305   22.6763   45.1198 O   0  0  0  0  0  0  0  0  0  0  0  0
    3.5468   21.1729   45.7039 P   0  0  2  0  0  0  0  0  0  0  0  0
    2.7780   21.3765   47.0518 O   0  0  0  0  0  0  0  0  0  0  0  0
    4.9428   20.8535   45.9846 O   0  0  0  0  0  0  0  0  0  0  0  0
    2.9157   20.2877   44.7274 O   0  0  0  0  0  0  0  0  0  0  0  0
   11.7880   27.2447   48.3171 H   0  0  0  0  0  0  0  0  0  0  0  0
    7.9554   26.2047   41.7526 H   0  0  0  0  0  0  0  0  0  0  0  0
   13.4971   28.6457   44.2620 H   0  0  0  0  0  0  0  0  0  0  0  0
   12.2202   30.1998   42.0539 H   0  0  0  0  0  0  0  0  0  0  0  0
   13.9603   29.9298   42.4515 H   0  0  0  0  0  0  0  0  0  0  0  0
    8.5668   26.1652   48.7400 H   0  0  0  0  0  0  0  0  0  0  0  0
    7.8293   25.9422   39.5106 H   0  0  0  0  0  0  0  0  0  0  0  0
    8.5521   27.3161   38.6069 H   0  0  0  0  0  0  0  0  0  0  0  0
    9.3649   25.7142   38.6069 H   0  0  0  0  0  0  0  0  0  0  0  0
   12.5912   27.4011   39.0163 H   0  0  0  0  0  0  0  0  0  0  0  0
   11.2588   26.3747   38.3854 H   0  0  0  0  0  0  0  0  0  0  0  0
   11.0918   28.1632   38.3854 H   0  0  0  0  0  0  0  0  0  0  0  0
   12.3852   29.8412   45.6135 H   0  0  0  0  0  0  0  0  0  0  0  0
   14.4354   29.3898   40.4206 H   0  0  0  0  0  0  0  0  0  0  0  0
   13.9410   27.8548   39.6295 H   0  0  0  0  0  0  0  0  0  0  0  0
   12.8276   29.2644   39.6295 H   0  0  0  0  0  0  0  0  0  0  0  0
   13.8860   27.1462   43.1649 H   0  0  0  0  0  0  0  0  0  0  0  0
   13.5443   26.1492   41.7103 H   0  0  0  0  0  0  0  0  0  0  0  0
   14.9297   27.2925   41.7103 H   0  0  0  0  0  0  0  0  0  0  0  0
    7.1763   27.4997   45.0703 H   0  0  0  0  0  0  0  0  0  0  0  0
    7.0836   27.2014   43.2549 H   0  0  0  0  0  0  0  0  0  0  0  0
    6.7993   25.3491   45.5025 H   0  0  0  0  0  0  0  0  0  0  0  0
    6.1832   24.2709   42.9063 H   0  0  0  0  0  0  0  0  0  0  0  0
    3.8841   24.4370   43.5343 H   0  0  0  0  0  0  0  0  0  0  0  0
    5.6120   22.8091   44.6472 H   0  0  0  0  0  0  0  0  0  0  0  0
    5.1280   23.6862   46.1295 H   0  0  0  0  0  0  0  0  0  0  0  0
    8.5441   24.1987   45.0279 H   0  0  0  0  0  0  0  0  0  0  0  0
    5.3995   27.0696   43.3485 H   0  0  0  0  0  0  0  0  0  0  0  0
    4.2904   25.4894   46.0835 H   0  0  0  0  0  0  0  0  0  0  0  0
  1  2  1  0
  1  6  2  0
  1 18  1  0
  2  3  1  0
  3  4  1  0
  3 25  2  0
  4  5  2  0
  4  7  1  0
  5  6  1  0
  5 10  1  0
  7  8  1  0
  7 15  1  0
  8  9  2  0
  8 11  1  0
  9 10  1  0
  9 14  1  0
 10 24  1  0
 11 12  2  0
 11 17  1  0
 12 13  1  0
 12 20  1  0
 13 14  2  0
 13 19  1  0
 15 16  1  0
 15 21  1  0
 16 17  1  0
 17 22  1  6
 17 23  1  0
 24 26  1  0
 26 27  1  0
 26 30  1  0
 27 28  1  0
 27 31  1  0
 28 29  1  0
 28 32  1  0
 29 33  1  0
 33 34  1  0
 34 35  2  0
 34 36  1  1
 34 37  1  0
  2 38  1  0
 14 39  1  0
 15 40  1  1
 16 41  1  0
 16 42  1  0
 18 43  1  0
 19 44  1  0
 19 45  1  0
 19 46  1  0
 20 47  1  0
 20 48  1  0
 20 49  1  0
 21 50  1  0
 22 51  1  0
 22 52  1  0
 22 53  1  0
 23 54  1  0
 23 55  1  0
 23 56  1  0
 24 57  1  0
 24 58  1  0
 26 59  1  1
 27 60  1  6
 28 61  1  6
 29 62  1  0
 29 63  1  0
 30 64  1  0
 31 65  1  0
 32 66  1  0
M  CHG  2  36  -1  37  -1
M  END
>  <filename_input>  (16) 
7NF0_BYN_docked.sdf

>  <pdb_id>  (16) 
7NF0_BYN

>  <pose_rank>  (16) 
15

>  <num_atoms_heavy>  (16) 
37

>  <num_torsions>  (16) 
7

>  <pose>  (16) 
[9.952713810354123, 26.88805169397583, 47.43794992745538, -4.403405326239584, 0.7859975897953542, 1.6669536054198442, -0.1711979184949133, -5.520210948160475, 1.1305149373217578, -1.9780435430478298, 0.4350792343475056, -1.2268019347872656, -1.395540706419557]

>  <energy>  (16) 
-403.8812142258234

>  <inter_energy>  (16) 
-415.9651917190638

>  <intra_energy>  (16) 
17.092311504011416

>  <rmsd>  (16) 
6.33144

>  <sdf_rank>  (16) 
0

$$$$

     RDKit          3D

 66 69  0  0  0  0  0  0  0  0999 V2000
   13.0882   24.7557   37.0903 C   0  0  0  0  0  0  0  0  0  0  0  0
   11.7530   24.9389   37.2201 N   0  0  0  0  0  0  0  0  0  0  0  0
   11.2461   26.0181   37.9325 C   0  0  0  0  0  0  0  0  0  0  0  0
   12.1848   26.8748   38.4527 C   0  0  0  0  0  0  0  0  0  0  0  0
   13.5631   26.6130   38.2989 C   0  0  0  0  0  0  0  0  0  0  0  0
   13.9983   25.5706   37.5269 N   0  0  0  0  0  0  0  0  0  0  0  0
   11.8446   28.0421   39.1554 N   0  0  0  0  0  0  0  0  0  0  0  0
   12.7656   28.6111   40.0187 C   0  0  0  0  0  0  0  0  0  0  0  0
   14.1263   28.2470   39.9283 C   0  0  0  0  0  0  0  0  0  0  0  0
   14.5254   27.3815   38.9181 N   0  0  0  0  0  0  0  0  0  0  0  0
   12.3260   29.5398   41.0135 C   0  0  0  0  0  0  0  0  0  0  0  0
   13.2655   30.0791   41.9051 C   0  0  0  0  0  0  0  0  0  0  0  0
   14.6284   29.7843   41.7441 C   0  0  0  0  0  0  0  0  0  0  0  0
   15.0345   28.8152   40.8257 C   0  0  0  0  0  0  0  0  0  0  0  0
   10.6198   28.7266   38.7705 C   0  0  1  0  0  0  0  0  0  0  0  0
   10.3934   29.9889   39.5586 C   0  0  0  0  0  0  0  0  0  0  0  0
   10.8210   29.7975   41.0277 C   0  0  2  0  0  0  0  0  0  0  0  0
   13.4251   23.6157   36.4506 O   0  0  0  0  0  0  0  0  0  0  0  0
   15.6654   30.4349   42.6106 C   0  0  0  0  0  0  0  0  0  0  0  0
   12.8881   31.0927   42.9837 C   0  0  0  0  0  0  0  0  0  0  0  0
   10.4911   28.8666   37.4192 O   0  0  0  0  0  0  0  0  0  0  0  0
   10.3363   31.0392   41.7572 C   0  0  0  0  0  0  0  0  0  0  0  0
   10.1251   28.5828   41.6829 C   0  0  0  0  0  0  0  0  0  0  0  0
   15.9284   27.2194   38.5515 C   0  0  0  0  0  0  0  0  0  0  0  0
   10.0548   26.0073   38.1413 O   0  0  0  0  0  0  0  0  0  0  0  0
   16.5908   25.9321   39.0437 C   0  0  1  0  0  0  0  0  0  0  0  0
   15.5426   25.0409   39.7251 C   0  0  1  0  0  0  0  0  0  0  0  0
   15.9081   23.5523   39.7378 C   0  0  1  0  0  0  0  0  0  0  0  0
   15.1546   22.7494   40.7557 C   0  0  0  0  0  0  0  0  0  0  0  0
   17.2024   25.2014   37.9527 O   0  0  0  0  0  0  0  0  0  0  0  0
   15.3697   25.5135   41.0917 O   0  0  0  0  0  0  0  0  0  0  0  0
   15.7195   22.9980   38.4324 O   0  0  0  0  0  0  0  0  0  0  0  0
   13.7218   22.6552   40.3214 O   0  0  0  0  0  0  0  0  0  0  0  0
   12.6652   22.0185   41.3604 P   0  0  2  0  0  0  0  0  0  0  0  0
   13.5907   21.0329   42.1488 O   0  0  0  0  0  0  0  0  0  0  0  0
   11.7102   21.2553   40.5635 O   0  0  0  0  0  0  0  0  0  0  0  0
   12.0653   23.1018   42.1363 O   0  0  0  0  0  0  0  0  0  0  0  0
   11.1039   24.2683   36.7843 H   0  0  0  0  0  0  0  0  0  0  0  0
   16.0862   28.4933   40.8080 H   0  0  0  0  0  0  0  0  0  0  0  0
    9.7849   28.0684   39.0531 H   0  0  0  0  0  0  0  0  0  0  0  0
   10.9839   30.8034   39.1137 H   0  0  0  0  0  0  0  0  0  0  0  0
    9.3218   30.2360   39.5312 H   0  0  0  0  0  0  0  0  0  0  0  0
   14.3788   23.3923   36.3065 H   0  0  0  0  0  0  0  0  0  0  0  0
   15.4113   30.2755   43.6689 H   0  0  0  0  0  0  0  0  0  0  0  0
   16.6500   29.9923   42.3991 H   0  0  0  0  0  0  0  0  0  0  0  0
   15.6954   31.5139   42.3991 H   0  0  0  0  0  0  0  0  0  0  0  0
   13.0530   30.6498   43.9770 H   0  0  0  0  0  0  0  0  0  0  0  0
   13.5114   31.9926   42.8754 H   0  0  0  0  0  0  0  0  0  0  0  0
   11.8280   31.3658   42.8754 H   0  0  0  0  0  0  0  0  0  0  0  0
    9.8345   29.5810   37.2225 H   0  0  0  0  0  0  0  0  0  0  0  0
   10.4004   30.8750   42.8430 H   0  0  0  0  0  0  0  0  0  0  0  0
   10.9655   31.8974   41.4783 H   0  0  0  0  0  0  0  0  0  0  0  0
    9.2922   31.2442   41.4783 H   0  0  0  0  0  0  0  0  0  0  0  0
   10.1786   28.6761   42.7776 H   0  0  0  0  0  0  0  0  0  0  0  0
    9.0714   28.5504   41.3687 H   0  0  0  0  0  0  0  0  0  0  0  0
   10.6300   27.6574   41.3687 H   0  0  0  0  0  0  0  0  0  0  0  0
   15.9965   27.2377   37.4537 H   0  0  0  0  0  0  0  0  0  0  0  0
   16.4668   28.0438   39.0418 H   0  0  0  0  0  0  0  0  0  0  0  0
   17.3783   26.2081   39.7604 H   0  0  0  0  0  0  0  0  0  0  0  0
   14.6128   25.1175   39.1423 H   0  0  0  0  0  0  0  0  0  0  0  0
   16.9666   23.4937   40.0313 H   0  0  0  0  0  0  0  0  0  0  0  0
   15.5877   21.7408   40.8274 H   0  0  0  0  0  0  0  0  0  0  0  0
   15.2188   23.2342   41.7410 H   0  0  0  0  0  0  0  0  0  0  0  0
   17.7929   24.4958   38.3182 H   0  0  0  0  0  0  0  0  0  0  0  0
   15.6315   24.7981   41.7239 H   0  0  0  0  0  0  0  0  0  0  0  0
   15.4015   22.0639   38.5133 H   0  0  0  0  0  0  0  0  0  0  0  0
  1  2  1  0
  1  6  2  0
  1 18  1  0
  2  3  1  0
  3  4  1  0
  3 25  2  0
  4  5  2  0
  4  7  1  0
  5  6  1  0
  5 10  1  0
  7  8  1  0
  7 15  1  0
  8  9  2  0
  8 11  1  0
  9 10  1  0
  9 14  1  0
 10 24  1  0
 11 12  2  0
 11 17  1  0
 12 13  1  0
 12 20  1  0
 13 14  2  0
 13 19  1  0
 15 16  1  0
 15 21  1  0
 16 17  1  0
 17 22  1  1
 17 23  1  0
 24 26  1  0
 26 27  1  0
 26 30  1  0
 27 28  1  0
 27 31  1  0
 28 29  1  0
 28 32  1  0
 29 33  1  0
 33 34  1  0
 34 35  2  0
 34 36  1  6
 34 37  1  0
  2 38  1  0
 14 39  1  0
 15 40  1  1
 16 41  1  0
 16 42  1  0
 18 43  1  0
 19 44  1  0
 19 45  1  0
 19 46  1  0
 20 47  1  0
 20 48  1  0
 20 49  1  0
 21 50  1  0
 22 51  1  0
 22 52  1  0
 22 53  1  0
 23 54  1  0
 23 55  1  0
 23 56  1  0
 24 57  1  0
 24 58  1  0
 26 59  1  1
 27 60  1  6
 28 61  1  1
 29 62  1  0
 29 63  1  0
 30 64  1  0
 31 65  1  0
 32 66  1  0
M  CHG  2  36  -1  37  -1
M  END
>  <filename_input>  (17) 
7NF0_BYN_docked.sdf

>  <pdb_id>  (17) 
7NF0_BYN

>  <pose_rank>  (17) 
16

>  <num_atoms_heavy>  (17) 
37

>  <num_torsions>  (17) 
7

>  <pose>  (17) 
[13.088183410738656, 24.75566420485087, 37.090279820811816, 1.2323911305864743, -1.2804257234476775, 2.52355685026558, -50.242418936509985, -34.50186958626711, -38.01019921568246, -16.945987773445054, -33.47091657958688, -32.309133868654975, 2.470393441945785]

>  <energy>  (17) 
-294.58566968995626

>  <inter_energy>  (17) 
-401.96520398567617

>  <intra_energy>  (17) 
107.07403209789263

>  <rmsd>  (17) 
7.63188

>  <sdf_rank>  (17) 
0

$$$$

     RDKit          3D

 66 69  0  0  0  0  0  0  0  0999 V2000
   14.2160   23.8680   37.9216 C   0  0  0  0  0  0  0  0  0  0  0  0
   15.1151   24.3459   38.8139 N   0  0  0  0  0  0  0  0  0  0  0  0
   14.8500   25.4934   39.5502 C   0  0  0  0  0  0  0  0  0  0  0  0
   13.6230   26.0680   39.3257 C   0  0  0  0  0  0  0  0  0  0  0  0
   12.7407   25.5304   38.3643 C   0  0  0  0  0  0  0  0  0  0  0  0
   13.0316   24.3580   37.7217 N   0  0  0  0  0  0  0  0  0  0  0  0
   13.1739   27.2019   40.0219 N   0  0  0  0  0  0  0  0  0  0  0  0
   12.1739   27.9870   39.4733 C   0  0  0  0  0  0  0  0  0  0  0  0
   11.3763   27.4737   38.4280 C   0  0  0  0  0  0  0  0  0  0  0  0
   11.5610   26.1574   38.0251 N   0  0  0  0  0  0  0  0  0  0  0  0
   11.9775   29.3211   39.9499 C   0  0  0  0  0  0  0  0  0  0  0  0
   10.9850   30.1169   39.3583 C   0  0  0  0  0  0  0  0  0  0  0  0
   10.1351   29.5643   38.3874 C   0  0  0  0  0  0  0  0  0  0  0  0
   10.3891   28.2922   37.8726 C   0  0  0  0  0  0  0  0  0  0  0  0
   13.6240   27.3707   41.3951 C   0  0  1  0  0  0  0  0  0  0  0  0
   13.0336   28.5913   42.0488 C   0  0  0  0  0  0  0  0  0  0  0  0
   12.9475   29.7585   41.0449 C   0  0  2  0  0  0  0  0  0  0  0  0
   14.6546   22.8018   37.2195 O   0  0  0  0  0  0  0  0  0  0  0  0
    8.9947   30.3562   37.8203 C   0  0  0  0  0  0  0  0  0  0  0  0
   10.6927   31.5439   39.8183 C   0  0  0  0  0  0  0  0  0  0  0  0
   13.5268   26.2257   42.1310 O   0  0  0  0  0  0  0  0  0  0  0  0
   12.5611   30.9755   41.8688 C   0  0  0  0  0  0  0  0  0  0  0  0
   14.3138   30.0657   40.3909 C   0  0  0  0  0  0  0  0  0  0  0  0
   10.5788   25.4577   37.2037 C   0  0  0  0  0  0  0  0  0  0  0  0
   15.7727   25.9411   40.1913 O   0  0  0  0  0  0  0  0  0  0  0  0
    9.6743   24.4788   37.9532 C   0  0  1  0  0  0  0  0  0  0  0  0
    8.2675   25.0783   38.0902 C   0  0  1  0  0  0  0  0  0  0  0  0
    7.1418   24.0399   38.0261 C   0  0  1  0  0  0  0  0  0  0  0  0
    5.7964   24.5762   38.4144 C   0  0  0  0  0  0  0  0  0  0  0  0
    9.5865   23.2070   37.2653 O   0  0  0  0  0  0  0  0  0  0  0  0
    8.2035   25.7910   39.3586 O   0  0  0  0  0  0  0  0  0  0  0  0
    7.0869   23.4683   36.7156 O   0  0  0  0  0  0  0  0  0  0  0  0
    4.7634   23.5300   38.1168 O   0  0  0  0  0  0  0  0  0  0  0  0
    3.2573   24.0274   37.8233 P   0  0  2  0  0  0  0  0  0  0  0  0
    2.8904   24.6718   39.2016 O   0  0  0  0  0  0  0  0  0  0  0  0
    2.4565   22.8243   37.6212 O   0  0  0  0  0  0  0  0  0  0  0  0
    3.2812   24.9296   36.6741 O   0  0  0  0  0  0  0  0  0  0  0  0
   16.0086   23.8515   38.9487 H   0  0  0  0  0  0  0  0  0  0  0  0
    9.8029   27.9280   37.0161 H   0  0  0  0  0  0  0  0  0  0  0  0
   14.7046   27.5723   41.3534 H   0  0  0  0  0  0  0  0  0  0  0  0
   12.0234   28.3529   42.4132 H   0  0  0  0  0  0  0  0  0  0  0  0
   13.6800   28.8918   42.8866 H   0  0  0  0  0  0  0  0  0  0  0  0
   14.0688   22.3804   36.5417 H   0  0  0  0  0  0  0  0  0  0  0  0
    8.3938   30.7734   38.6418 H   0  0  0  0  0  0  0  0  0  0  0  0
    9.3892   31.1757   37.2016 H   0  0  0  0  0  0  0  0  0  0  0  0
    8.3647   29.7002   37.2016 H   0  0  0  0  0  0  0  0  0  0  0  0
   10.6852   31.5805   40.9176 H   0  0  0  0  0  0  0  0  0  0  0  0
   11.4710   32.2196   39.4342 H   0  0  0  0  0  0  0  0  0  0  0  0
    9.7113   31.8592   39.4342 H   0  0  0  0  0  0  0  0  0  0  0  0
   13.5459   26.4504   43.0950 H   0  0  0  0  0  0  0  0  0  0  0  0
   12.6380   30.7332   42.9390 H   0  0  0  0  0  0  0  0  0  0  0  0
   13.2388   31.8089   41.6319 H   0  0  0  0  0  0  0  0  0  0  0  0
   11.5267   31.2653   41.6319 H   0  0  0  0  0  0  0  0  0  0  0  0
   15.0661   30.2348   41.1755 H   0  0  0  0  0  0  0  0  0  0  0  0
   14.6209   29.2142   39.7659 H   0  0  0  0  0  0  0  0  0  0  0  0
   14.2269   30.9667   39.7659 H   0  0  0  0  0  0  0  0  0  0  0  0
    9.9382   26.2125   36.7241 H   0  0  0  0  0  0  0  0  0  0  0  0
   11.1570   24.8510   36.4912 H   0  0  0  0  0  0  0  0  0  0  0  0
   10.1118   24.3055   38.9475 H   0  0  0  0  0  0  0  0  0  0  0  0
    8.1077   25.7487   37.2329 H   0  0  0  0  0  0  0  0  0  0  0  0
    7.3858   23.2692   38.7720 H   0  0  0  0  0  0  0  0  0  0  0  0
    5.7869   24.8121   39.4887 H   0  0  0  0  0  0  0  0  0  0  0  0
    5.5782   25.4934   37.8476 H   0  0  0  0  0  0  0  0  0  0  0  0
    9.5359   22.4751   37.9301 H   0  0  0  0  0  0  0  0  0  0  0  0
    8.2617   25.1428   40.1047 H   0  0  0  0  0  0  0  0  0  0  0  0
    6.9925   22.4854   36.7880 H   0  0  0  0  0  0  0  0  0  0  0  0
  1  2  1  0
  1  6  2  0
  1 18  1  0
  2  3  1  0
  3  4  1  0
  3 25  2  0
  4  5  2  0
  4  7  1  0
  5  6  1  0
  5 10  1  0
  7  8  1  0
  7 15  1  0
  8  9  2  0
  8 11  1  0
  9 10  1  0
  9 14  1  0
 10 24  1  0
 11 12  2  0
 11 17  1  0
 12 13  1  0
 12 20  1  0
 13 14  2  0
 13 19  1  0
 15 16  1  0
 15 21  1  0
 16 17  1  0
 17 22  1  1
 17 23  1  0
 24 26  1  0
 26 27  1  0
 26 30  1  0
 27 28  1  0
 27 31  1  0
 28 29  1  0
 28 32  1  0
 29 33  1  0
 33 34  1  0
 34 35  2  0
 34 36  1  6
 34 37  1  0
  2 38  1  0
 14 39  1  0
 15 40  1  6
 16 41  1  0
 16 42  1  0
 18 43  1  0
 19 44  1  0
 19 45  1  0
 19 46  1  0
 20 47  1  0
 20 48  1  0
 20 49  1  0
 21 50  1  0
 22 51  1  0
 22 52  1  0
 22 53  1  0
 23 54  1  0
 23 55  1  0
 23 56  1  0
 24 57  1  0
 24 58  1  0
 26 59  1  1
 27 60  1  6
 28 61  1  1
 29 62  1  0
 29 63  1  0
 30 64  1  0
 31 65  1  0
 32 66  1  0
M  CHG  2  36  -1  37  -1
M  END
>  <filename_input>  (18) 
7NF0_BYN_docked.sdf

>  <pdb_id>  (18) 
7NF0_BYN

>  <pose_rank>  (18) 
17

>  <num_atoms_heavy>  (18) 
37

>  <num_torsions>  (18) 
7

>  <pose>  (18) 
[14.216021430346949, 23.867989023915033, 37.92158568940207, 2.861903355627848, 1.0788776434321807, -0.03827511980520116, 2.707840623061687, -1.3220080293501086, 5.7904869998702315, -10.524189437301676, -12.843679831605202, -6.868607646526551, 1.8752707155152726]

>  <energy>  (18) 
-316.4369833242272

>  <inter_energy>  (18) 
-340.0164256494931

>  <intra_energy>  (18) 
23.85513000903848

>  <rmsd>  (18) 
8.14932

>  <sdf_rank>  (18) 
0

$$$$

     RDKit          3D

 66 69  0  0  0  0  0  0  0  0999 V2000
   18.4687   31.1024   50.8132 C   0  0  0  0  0  0  0  0  0  0  0  0
   18.6669   32.4394   50.8915 N   0  0  0  0  0  0  0  0  0  0  0  0
   19.0315   33.1742   49.7706 C   0  0  0  0  0  0  0  0  0  0  0  0
   19.1411   32.4566   48.6048 C   0  0  0  0  0  0  0  0  0  0  0  0
   18.9420   31.0595   48.5973 C   0  0  0  0  0  0  0  0  0  0  0  0
   18.5166   30.4045   49.7207 N   0  0  0  0  0  0  0  0  0  0  0  0
   19.4506   33.0510   47.3707 N   0  0  0  0  0  0  0  0  0  0  0  0
   19.9788   32.2742   46.3533 C   0  0  0  0  0  0  0  0  0  0  0  0
   19.8748   30.8682   46.4212 C   0  0  0  0  0  0  0  0  0  0  0  0
   19.1711   30.2958   47.4729 N   0  0  0  0  0  0  0  0  0  0  0  0
   20.6512   32.9015   45.2580 C   0  0  0  0  0  0  0  0  0  0  0  0
   21.2140   32.0991   44.2541 C   0  0  0  0  0  0  0  0  0  0  0  0
   21.0205   30.7091   44.2824 C   0  0  0  0  0  0  0  0  0  0  0  0
   20.4366   30.1030   45.3957 C   0  0  0  0  0  0  0  0  0  0  0  0
   18.9890   34.4121   47.1445 C   0  0  1  0  0  0  0  0  0  0  0  0
   19.3355   34.9167   45.7693 C   0  0  0  0  0  0  0  0  0  0  0  0
   20.7336   34.4237   45.3450 C   0  0  2  0  0  0  0  0  0  0  0  0
   18.2098   30.5165   52.0015 O   0  0  0  0  0  0  0  0  0  0  0  0
   21.5130   29.8393   43.1644 C   0  0  0  0  0  0  0  0  0  0  0  0
   21.9306   32.6845   43.0387 C   0  0  0  0  0  0  0  0  0  0  0  0
   17.6878   34.6000   47.5102 O   0  0  0  0  0  0  0  0  0  0  0  0
   21.0585   35.1755   44.0650 C   0  0  0  0  0  0  0  0  0  0  0  0
   21.8203   34.7943   46.3798 C   0  0  0  0  0  0  0  0  0  0  0  0
   18.7369   28.9031   47.4423 C   0  0  0  0  0  0  0  0  0  0  0  0
   19.3530   34.3234   49.9674 O   0  0  0  0  0  0  0  0  0  0  0  0
   19.7405   27.8904   47.9950 C   0  0  1  0  0  0  0  0  0  0  0  0
   20.0045   26.8010   46.9458 C   0  0  1  0  0  0  0  0  0  0  0  0
   20.1452   25.3931   47.5355 C   0  0  1  0  0  0  0  0  0  0  0  0
   19.7808   24.2948   46.5818 C   0  0  0  0  0  0  0  0  0  0  0  0
   20.9931   28.5262   48.3488 O   0  0  0  0  0  0  0  0  0  0  0  0
   18.9073   26.8227   45.9885 O   0  0  0  0  0  0  0  0  0  0  0  0
   21.4777   25.2044   48.0212 O   0  0  0  0  0  0  0  0  0  0  0  0
   18.7600   23.4136   47.2389 O   0  0  0  0  0  0  0  0  0  0  0  0
   19.2351   21.9502   47.7230 P   0  0  2  0  0  0  0  0  0  0  0  0
   19.3132   22.1675   49.2710 O   0  0  0  0  0  0  0  0  0  0  0  0
   20.5802   21.7553   47.1917 O   0  0  0  0  0  0  0  0  0  0  0  0
   18.2599   20.9668   47.2570 O   0  0  0  0  0  0  0  0  0  0  0  0
   18.5455   32.9186   51.7951 H   0  0  0  0  0  0  0  0  0  0  0  0
   20.4184   29.0055   45.4671 H   0  0  0  0  0  0  0  0  0  0  0  0
   19.5567   35.0588   47.8297 H   0  0  0  0  0  0  0  0  0  0  0  0
   18.5890   34.5481   45.0505 H   0  0  0  0  0  0  0  0  0  0  0  0
   19.3380   36.0166   45.7861 H   0  0  0  0  0  0  0  0  0  0  0  0
   18.0506   29.5405   52.0478 H   0  0  0  0  0  0  0  0  0  0  0  0
   22.0144   28.9538   43.5822 H   0  0  0  0  0  0  0  0  0  0  0  0
   20.6614   29.5205   42.5454 H   0  0  0  0  0  0  0  0  0  0  0  0
   22.2245   30.4056   42.5454 H   0  0  0  0  0  0  0  0  0  0  0  0
   22.7417   33.3470   43.3753 H   0  0  0  0  0  0  0  0  0  0  0  0
   22.3513   31.8684   42.4329 H   0  0  0  0  0  0  0  0  0  0  0  0
   21.2150   33.2596   42.4329 H   0  0  0  0  0  0  0  0  0  0  0  0
   17.6208   34.6096   48.4979 H   0  0  0  0  0  0  0  0  0  0  0  0
   21.4834   36.1588   44.3150 H   0  0  0  0  0  0  0  0  0  0  0  0
   21.7881   34.5996   43.4766 H   0  0  0  0  0  0  0  0  0  0  0  0
   20.1391   35.3122   43.4766 H   0  0  0  0  0  0  0  0  0  0  0  0
   21.4210   34.6581   47.3956 H   0  0  0  0  0  0  0  0  0  0  0  0
   22.6966   34.1442   46.2401 H   0  0  0  0  0  0  0  0  0  0  0  0
   22.1168   35.8443   46.2401 H   0  0  0  0  0  0  0  0  0  0  0  0
   17.8130   28.8227   48.0339 H   0  0  0  0  0  0  0  0  0  0  0  0
   18.6052   28.6502   46.3799 H   0  0  0  0  0  0  0  0  0  0  0  0
   19.3087   27.4458   48.9038 H   0  0  0  0  0  0  0  0  0  0  0  0
   20.9705   27.0259   46.4700 H   0  0  0  0  0  0  0  0  0  0  0  0
   19.4218   25.3274   48.3615 H   0  0  0  0  0  0  0  0  0  0  0  0
   19.3609   24.7267   45.6614 H   0  0  0  0  0  0  0  0  0  0  0  0
   20.6746   23.7083   46.3230 H   0  0  0  0  0  0  0  0  0  0  0  0
   21.0752   28.5679   49.3345 H   0  0  0  0  0  0  0  0  0  0  0  0
   18.0452   26.8397   46.4749 H   0  0  0  0  0  0  0  0  0  0  0  0
   21.4712   25.2053   49.0112 H   0  0  0  0  0  0  0  0  0  0  0  0
  1  2  1  0
  1  6  2  0
  1 18  1  0
  2  3  1  0
  3  4  1  0
  3 25  2  0
  4  5  2  0
  4  7  1  0
  5  6  1  0
  5 10  1  0
  7  8  1  0
  7 15  1  0
  8  9  2  0
  8 11  1  0
  9 10  1  0
  9 14  1  0
 10 24  1  0
 11 12  2  0
 11 17  1  0
 12 13  1  0
 12 20  1  0
 13 14  2  0
 13 19  1  0
 15 16  1  0
 15 21  1  0
 16 17  1  0
 17 22  1  6
 17 23  1  0
 24 26  1  0
 26 27  1  0
 26 30  1  0
 27 28  1  0
 27 31  1  0
 28 29  1  0
 28 32  1  0
 29 33  1  0
 33 34  1  0
 34 35  2  0
 34 36  1  6
 34 37  1  0
  2 38  1  0
 14 39  1  0
 15 40  1  1
 16 41  1  0
 16 42  1  0
 18 43  1  0
 19 44  1  0
 19 45  1  0
 19 46  1  0
 20 47  1  0
 20 48  1  0
 20 49  1  0
 21 50  1  0
 22 51  1  0
 22 52  1  0
 22 53  1  0
 23 54  1  0
 23 55  1  0
 23 56  1  0
 24 57  1  0
 24 58  1  0
 26 59  1  1
 27 60  1  6
 28 61  1  1
 29 62  1  0
 29 63  1  0
 30 64  1  0
 31 65  1  0
 32 66  1  0
M  CHG  2  36  -1  37  -1
M  END
>  <filename_input>  (19) 
7NF0_BYN_docked.sdf

>  <pdb_id>  (19) 
7NF0_BYN

>  <pose_rank>  (19) 
18

>  <num_atoms_heavy>  (19) 
37

>  <num_torsions>  (19) 
7

>  <pose>  (19) 
[18.468743882580235, 31.10237463514407, 50.81324885222923, -4.247001646042456, -0.7700150214271992, -2.3551057854410558, -12.807591414604149, 0.9167176340145152, -5.500931409023633, 1.7710564578112853, -5.484778508283997, -6.063385987554738, 4.826051981498084]

>  <energy>  (19) 
-331.2651521142526

>  <inter_energy>  (19) 
-339.8577403309765

>  <intra_energy>  (19) 
17.5739679311709

>  <rmsd>  (19) 
11.5698

>  <sdf_rank>  (19) 
0

$$$$

     RDKit          3D

 66 69  0  0  0  0  0  0  0  0999 V2000
   17.3355   33.7606   46.4441 C   0  0  0  0  0  0  0  0  0  0  0  0
   18.5419   33.9361   45.8551 N   0  0  0  0  0  0  0  0  0  0  0  0
   19.4082   32.8665   45.6691 C   0  0  0  0  0  0  0  0  0  0  0  0
   18.9395   31.6471   46.0925 C   0  0  0  0  0  0  0  0  0  0  0  0
   17.6796   31.5375   46.7190 C   0  0  0  0  0  0  0  0  0  0  0  0
   16.8441   32.6171   46.8102 N   0  0  0  0  0  0  0  0  0  0  0  0
   19.6647   30.4551   45.9335 N   0  0  0  0  0  0  0  0  0  0  0  0
   19.3782   29.3694   46.7438 C   0  0  0  0  0  0  0  0  0  0  0  0
   18.1615   29.3322   47.4582 C   0  0  0  0  0  0  0  0  0  0  0  0
   17.2389   30.3531   47.2694 N   0  0  0  0  0  0  0  0  0  0  0  0
   20.3302   28.3100   46.8732 C   0  0  0  0  0  0  0  0  0  0  0  0
   20.0415   27.2350   47.7272 C   0  0  0  0  0  0  0  0  0  0  0  0
   18.7890   27.1615   48.3566 C   0  0  0  0  0  0  0  0  0  0  0  0
   17.9039   28.2384   48.2891 C   0  0  0  0  0  0  0  0  0  0  0  0
   20.5307   30.3443   44.7696 C   0  0  1  0  0  0  0  0  0  0  0  0
   21.2105   29.0040   44.6831 C   0  0  0  0  0  0  0  0  0  0  0  0
   21.6222   28.5111   46.0849 C   0  0  2  0  0  0  0  0  0  0  0  0
   16.6481   34.9062   46.6369 O   0  0  0  0  0  0  0  0  0  0  0  0
   18.4107   25.9692   49.1840 C   0  0  0  0  0  0  0  0  0  0  0  0
   20.9902   26.0517   47.9092 C   0  0  0  0  0  0  0  0  0  0  0  0
   19.9266   30.7533   43.6165 O   0  0  0  0  0  0  0  0  0  0  0  0
   22.4878   27.2851   45.8466 C   0  0  0  0  0  0  0  0  0  0  0  0
   22.4932   29.5457   46.8331 C   0  0  0  0  0  0  0  0  0  0  0  0
   15.8502   30.2262   47.6987 C   0  0  0  0  0  0  0  0  0  0  0  0
   20.5247   33.1430   45.2953 O   0  0  0  0  0  0  0  0  0  0  0  0
   14.9125   29.5517   46.6966 C   0  0  1  0  0  0  0  0  0  0  0  0
   13.6520   30.4086   46.5126 C   0  0  1  0  0  0  0  0  0  0  0  0
   12.6540   29.8346   45.5005 C   0  0  1  0  0  0  0  0  0  0  0  0
   12.9390   30.2193   44.0796 C   0  0  0  0  0  0  0  0  0  0  0  0
   15.5559   29.3666   45.4120 O   0  0  0  0  0  0  0  0  0  0  0  0
   13.0072   30.5456   47.8112 O   0  0  0  0  0  0  0  0  0  0  0  0
   12.6043   28.4103   45.6268 O   0  0  0  0  0  0  0  0  0  0  0  0
   12.6412   29.0419   43.1991 O   0  0  0  0  0  0  0  0  0  0  0  0
   12.3016   29.3330   41.6494 P   0  0  2  0  0  0  0  0  0  0  0  0
   13.3386   28.3969   40.9439 O   0  0  0  0  0  0  0  0  0  0  0  0
   12.6586   30.7263   41.4025 O   0  0  0  0  0  0  0  0  0  0  0  0
   10.8918   29.0270   41.4168 O   0  0  0  0  0  0  0  0  0  0  0  0
   18.8212   34.8762   45.5406 H   0  0  0  0  0  0  0  0  0  0  0  0
   16.9890   28.2262   48.8997 H   0  0  0  0  0  0  0  0  0  0  0  0
   21.3505   31.0635   44.9131 H   0  0  0  0  0  0  0  0  0  0  0  0
   20.5189   28.2766   44.2330 H   0  0  0  0  0  0  0  0  0  0  0  0
   22.1140   29.1047   44.0637 H   0  0  0  0  0  0  0  0  0  0  0  0
   15.7540   34.8816   47.0613 H   0  0  0  0  0  0  0  0  0  0  0  0
   18.4912   26.2230   50.2513 H   0  0  0  0  0  0  0  0  0  0  0  0
   17.3756   25.6766   48.9537 H   0  0  0  0  0  0  0  0  0  0  0  0
   19.0878   25.1334   48.9537 H   0  0  0  0  0  0  0  0  0  0  0  0
   21.1406   25.8640   48.9826 H   0  0  0  0  0  0  0  0  0  0  0  0
   20.5558   25.1576   47.4381 H   0  0  0  0  0  0  0  0  0  0  0  0
   21.9573   26.2812   47.4381 H   0  0  0  0  0  0  0  0  0  0  0  0
   19.1273   31.2944   43.8366 H   0  0  0  0  0  0  0  0  0  0  0  0
   22.7905   26.8563   46.8133 H   0  0  0  0  0  0  0  0  0  0  0  0
   21.9160   26.5377   45.2769 H   0  0  0  0  0  0  0  0  0  0  0  0
   23.3835   27.5737   45.2769 H   0  0  0  0  0  0  0  0  0  0  0  0
   22.3765   29.4071   47.9181 H   0  0  0  0  0  0  0  0  0  0  0  0
   23.5486   29.4048   46.5569 H   0  0  0  0  0  0  0  0  0  0  0  0
   22.1744   30.5616   46.5569 H   0  0  0  0  0  0  0  0  0  0  0  0
   15.8346   29.6371   48.6275 H   0  0  0  0  0  0  0  0  0  0  0  0
   15.4756   31.2533   47.8200 H   0  0  0  0  0  0  0  0  0  0  0  0
   14.6443   28.5623   47.0955 H   0  0  0  0  0  0  0  0  0  0  0  0
   13.9681   31.3804   46.1054 H   0  0  0  0  0  0  0  0  0  0  0  0
   11.6761   30.2765   45.7421 H   0  0  0  0  0  0  0  0  0  0  0  0
   12.3031   31.0691   43.7905 H   0  0  0  0  0  0  0  0  0  0  0  0
   13.9937   30.5128   43.9728 H   0  0  0  0  0  0  0  0  0  0  0  0
   16.4980   29.0957   45.5507 H   0  0  0  0  0  0  0  0  0  0  0  0
   13.6753   30.4037   48.5279 H   0  0  0  0  0  0  0  0  0  0  0  0
   12.5957   28.1641   46.5856 H   0  0  0  0  0  0  0  0  0  0  0  0
  1  2  1  0
  1  6  2  0
  1 18  1  0
  2  3  1  0
  3  4  1  0
  3 25  2  0
  4  5  2  0
  4  7  1  0
  5  6  1  0
  5 10  1  0
  7  8  1  0
  7 15  1  0
  8  9  2  0
  8 11  1  0
  9 10  1  0
  9 14  1  0
 10 24  1  0
 11 12  2  0
 11 17  1  0
 12 13  1  0
 12 20  1  0
 13 14  2  0
 13 19  1  0
 15 16  1  0
 15 21  1  0
 16 17  1  0
 17 22  1  6
 17 23  1  0
 24 26  1  0
 26 27  1  0
 26 30  1  0
 27 28  1  0
 27 31  1  0
 28 29  1  0
 28 32  1  0
 29 33  1  0
 33 34  1  0
 34 35  2  0
 34 36  1  6
 34 37  1  0
  2 38  1  0
 14 39  1  0
 15 40  1  1
 16 41  1  0
 16 42  1  0
 18 43  1  0
 19 44  1  0
 19 45  1  0
 19 46  1  0
 20 47  1  0
 20 48  1  0
 20 49  1  0
 21 50  1  0
 22 51  1  0
 22 52  1  0
 22 53  1  0
 23 54  1  0
 23 55  1  0
 23 56  1  0
 24 57  1  0
 24 58  1  0
 26 59  1  1
 27 60  1  6
 28 61  1  1
 29 62  1  0
 29 63  1  0
 30 64  1  0
 31 65  1  0
 32 66  1  0
M  CHG  2  36  -1  37  -1
M  END
>  <filename_input>  (20) 
7NF0_BYN_docked.sdf

>  <pdb_id>  (20) 
7NF0_BYN

>  <pose_rank>  (20) 
19

>  <num_atoms_heavy>  (20) 
37

>  <num_torsions>  (20) 
7

>  <pose>  (20) 
[17.335459202019784, 33.76056973056478, 46.44407275063197, 3.7776701381810485, 4.055304749428878, -1.4949329062922354, 2.9880485680147015, 0.8311472457157205, 6.36739249953515, -2.4037173662208056, 5.484601429046755, -1.4553006203236103, -1.091187472469747]

>  <energy>  (20) 
-325.52585556921497

>  <inter_energy>  (20) 
-333.502232535477

>  <intra_energy>  (20) 
17.385492191959393

>  <rmsd>  (20) 
8.77822

>  <sdf_rank>  (20) 
0

$$$$

     RDKit          3D

 66 69  0  0  0  0  0  0  0  0999 V2000
   19.9187   31.1496   44.3680 C   0  0  0  0  0  0  0  0  0  0  0  0
   20.1439   32.4629   44.6078 N   0  0  0  0  0  0  0  0  0  0  0  0
   20.1439   32.9625   45.9038 C   0  0  0  0  0  0  0  0  0  0  0  0
   19.9329   32.0344   46.8938 C   0  0  0  0  0  0  0  0  0  0  0  0
   19.6826   30.6831   46.5731 C   0  0  0  0  0  0  0  0  0  0  0  0
   19.7647   30.2409   45.2809 N   0  0  0  0  0  0  0  0  0  0  0  0
   19.9523   32.3598   48.2598 N   0  0  0  0  0  0  0  0  0  0  0  0
   19.3125   31.5322   49.1670 C   0  0  0  0  0  0  0  0  0  0  0  0
   18.9621   30.2184   48.7883 C   0  0  0  0  0  0  0  0  0  0  0  0
   19.3400   29.7563   47.5343 N   0  0  0  0  0  0  0  0  0  0  0  0
   18.9856   32.0252   50.4691 C   0  0  0  0  0  0  0  0  0  0  0  0
   18.3038   31.1869   51.3639 C   0  0  0  0  0  0  0  0  0  0  0  0
   18.0468   29.8528   51.0112 C   0  0  0  0  0  0  0  0  0  0  0  0
   18.2949   29.4088   49.7116 C   0  0  0  0  0  0  0  0  0  0  0  0
   20.8385   33.4331   48.6835 C   0  0  1  0  0  0  0  0  0  0  0  0
   20.8091   33.6502   50.1727 C   0  0  0  0  0  0  0  0  0  0  0  0
   19.3773   33.4796   50.7194 C   0  0  2  0  0  0  0  0  0  0  0  0
   19.8589   30.8345   43.0567 O   0  0  0  0  0  0  0  0  0  0  0  0
   17.4216   28.9034   51.9895 C   0  0  0  0  0  0  0  0  0  0  0  0
   17.9341   31.6232   52.7803 C   0  0  0  0  0  0  0  0  0  0  0  0
   22.0888   33.3337   48.1460 O   0  0  0  0  0  0  0  0  0  0  0  0
   19.4363   33.9435   52.1652 C   0  0  0  0  0  0  0  0  0  0  0  0
   18.3633   34.3896   49.9895 C   0  0  0  0  0  0  0  0  0  0  0  0
   19.3155   28.3372   47.1961 C   0  0  0  0  0  0  0  0  0  0  0  0
   20.1817   34.1666   46.0115 O   0  0  0  0  0  0  0  0  0  0  0  0
   20.6303   27.5876   47.4142 C   0  0  1  0  0  0  0  0  0  0  0  0
   20.4575   26.5610   48.5426 C   0  0  1  0  0  0  0  0  0  0  0  0
   20.3384   25.1138   48.0517 C   0  0  1  0  0  0  0  0  0  0  0  0
   21.5718   24.2913   48.2770 C   0  0  0  0  0  0  0  0  0  0  0  0
   21.0565   26.9056   46.2093 O   0  0  0  0  0  0  0  0  0  0  0  0
   21.5991   26.6808   49.4389 O   0  0  0  0  0  0  0  0  0  0  0  0
   19.2076   24.4877   48.6652 O   0  0  0  0  0  0  0  0  0  0  0  0
   21.1557   22.8796   48.5670 O   0  0  0  0  0  0  0  0  0  0  0  0
   21.2799   21.8024   47.3730 P   0  0  2  0  0  0  0  0  0  0  0  0
   22.0290   22.6515   46.2925 O   0  0  0  0  0  0  0  0  0  0  0  0
   19.9201   21.5295   46.9191 O   0  0  0  0  0  0  0  0  0  0  0  0
   21.9887   20.6283   47.8776 O   0  0  0  0  0  0  0  0  0  0  0  0
   20.3177   33.1007   43.8180 H   0  0  0  0  0  0  0  0  0  0  0  0
   17.9601   28.4056   49.4092 H   0  0  0  0  0  0  0  0  0  0  0  0
   20.4366   34.3645   48.2583 H   0  0  0  0  0  0  0  0  0  0  0  0
   21.4706   32.9175   50.6578 H   0  0  0  0  0  0  0  0  0  0  0  0
   21.1506   34.6735   50.3881 H   0  0  0  0  0  0  0  0  0  0  0  0
   19.6978   29.8979   42.7795 H   0  0  0  0  0  0  0  0  0  0  0  0
   17.6409   29.2364   53.0147 H   0  0  0  0  0  0  0  0  0  0  0  0
   16.3327   28.8828   51.8357 H   0  0  0  0  0  0  0  0  0  0  0  0
   17.8329   27.8949   51.8357 H   0  0  0  0  0  0  0  0  0  0  0  0
   18.4670   30.9942   53.5086 H   0  0  0  0  0  0  0  0  0  0  0  0
   18.2199   32.6754   52.9262 H   0  0  0  0  0  0  0  0  0  0  0  0
   16.8493   31.5143   52.9262 H   0  0  0  0  0  0  0  0  0  0  0  0
   22.7577   33.2805   48.8739 H   0  0  0  0  0  0  0  0  0  0  0  0
   19.3261   33.0766   52.8332 H   0  0  0  0  0  0  0  0  0  0  0  0
   20.4038   34.4316   52.3545 H   0  0  0  0  0  0  0  0  0  0  0  0
   18.6219   34.6583   52.3545 H   0  0  0  0  0  0  0  0  0  0  0  0
   17.7583   34.9326   50.7305 H   0  0  0  0  0  0  0  0  0  0  0  0
   18.9049   35.1104   49.3593 H   0  0  0  0  0  0  0  0  0  0  0  0
   17.7051   33.7735   49.3593 H   0  0  0  0  0  0  0  0  0  0  0  0
   18.5434   27.8546   47.8133 H   0  0  0  0  0  0  0  0  0  0  0  0
   19.1136   28.2867   46.1159 H   0  0  0  0  0  0  0  0  0  0  0  0
   21.4003   28.3247   47.6859 H   0  0  0  0  0  0  0  0  0  0  0  0
   19.5088   26.7849   49.0523 H   0  0  0  0  0  0  0  0  0  0  0  0
   20.2052   25.1646   46.9610 H   0  0  0  0  0  0  0  0  0  0  0  0
   22.2030   24.3146   47.3765 H   0  0  0  0  0  0  0  0  0  0  0  0
   22.1457   24.6966   49.1234 H   0  0  0  0  0  0  0  0  0  0  0  0
   21.5650   26.0919   46.4530 H   0  0  0  0  0  0  0  0  0  0  0  0
   21.2865   26.6480   50.3777 H   0  0  0  0  0  0  0  0  0  0  0  0
   19.2970   24.5372   49.6499 H   0  0  0  0  0  0  0  0  0  0  0  0
  1  2  1  0
  1  6  2  0
  1 18  1  0
  2  3  1  0
  3  4  1  0
  3 25  2  0
  4  5  2  0
  4  7  1  0
  5  6  1  0
  5 10  1  0
  7  8  1  0
  7 15  1  0
  8  9  2  0
  8 11  1  0
  9 10  1  0
  9 14  1  0
 10 24  1  0
 11 12  2  0
 11 17  1  0
 12 13  1  0
 12 20  1  0
 13 14  2  0
 13 19  1  0
 15 16  1  0
 15 21  1  0
 16 17  1  0
 17 22  1  1
 17 23  1  0
 24 26  1  0
 26 27  1  0
 26 30  1  0
 27 28  1  0
 27 31  1  0
 28 29  1  0
 28 32  1  0
 29 33  1  0
 33 34  1  0
 34 35  2  0
 34 36  1  6
 34 37  1  0
  2 38  1  0
 14 39  1  0
 15 40  1  6
 16 41  1  0
 16 42  1  0
 18 43  1  0
 19 44  1  0
 19 45  1  0
 19 46  1  0
 20 47  1  0
 20 48  1  0
 20 49  1  0
 21 50  1  0
 22 51  1  0
 22 52  1  0
 22 53  1  0
 23 54  1  0
 23 55  1  0
 23 56  1  0
 24 57  1  0
 24 58  1  0
 26 59  1  1
 27 60  1  1
 28 61  1  6
 29 62  1  0
 29 63  1  0
 30 64  1  0
 31 65  1  0
 32 66  1  0
M  CHG  2  36  -1  37  -1
M  END
>  <filename_input>  (21) 
7NF0_BYN_docked.sdf

>  <pdb_id>  (21) 
7NF0_BYN

>  <pose_rank>  (21) 
20

>  <num_atoms_heavy>  (21) 
37

>  <num_torsions>  (21) 
7

>  <pose>  (21) 
[19.91870958410804, 31.149580787459847, 44.367951060530636, -0.9810905922632809, -2.07726599717967, 1.2077846541096224, 2.862559161287638, -1.1937978084746248, -1.2135021948412754, 0.9287874013000061, -0.7249701984369888, 3.8748928539995706, 3.117342657487067]

>  <energy>  (21) 
-301.2255749836952

>  <inter_energy>  (21) 
-304.79351584961717

>  <intra_energy>  (21) 
4.128999833286228

>  <rmsd>  (21) 
12.3722

>  <sdf_rank>  (21) 
0

$$$$

     RDKit          3D

 66 69  0  0  0  0  0  0  0  0999 V2000
   19.4098   31.2334   44.6701 C   0  0  0  0  0  0  0  0  0  0  0  0
   18.9904   32.4105   45.1913 N   0  0  0  0  0  0  0  0  0  0  0  0
   19.1389   32.6859   46.5445 C   0  0  0  0  0  0  0  0  0  0  0  0
   19.7561   31.7053   47.2818 C   0  0  0  0  0  0  0  0  0  0  0  0
   20.1498   30.4912   46.6795 C   0  0  0  0  0  0  0  0  0  0  0  0
   20.0386   30.3089   45.3281 N   0  0  0  0  0  0  0  0  0  0  0  0
   20.0314   31.8419   48.6521 N   0  0  0  0  0  0  0  0  0  0  0  0
   20.2285   30.7094   49.4241 C   0  0  0  0  0  0  0  0  0  0  0  0
   20.5048   29.4754   48.7971 C   0  0  0  0  0  0  0  0  0  0  0  0
   20.6523   29.4403   47.4165 N   0  0  0  0  0  0  0  0  0  0  0  0
   20.1211   30.7937   50.8477 C   0  0  0  0  0  0  0  0  0  0  0  0
   20.2863   29.6300   51.6137 C   0  0  0  0  0  0  0  0  0  0  0  0
   20.6557   28.4295   50.9871 C   0  0  0  0  0  0  0  0  0  0  0  0
   20.6759   28.3405   49.5945 C   0  0  0  0  0  0  0  0  0  0  0  0
   20.3210   33.1777   49.1506 C   0  0  1  0  0  0  0  0  0  0  0  0
   20.6513   33.1854   50.6191 C   0  0  0  0  0  0  0  0  0  0  0  0
   19.7655   32.1794   51.3814 C   0  0  2  0  0  0  0  0  0  0  0  0
   19.1140   31.0769   43.3624 O   0  0  0  0  0  0  0  0  0  0  0  0
   20.9493   27.1985   51.7918 C   0  0  0  0  0  0  0  0  0  0  0  0
   20.2094   29.6320   53.1393 C   0  0  0  0  0  0  0  0  0  0  0  0
   21.2032   33.8592   48.3636 O   0  0  0  0  0  0  0  0  0  0  0  0
   20.0263   32.4435   52.8550 C   0  0  0  0  0  0  0  0  0  0  0  0
   18.2598   32.4252   51.1336 C   0  0  0  0  0  0  0  0  0  0  0  0
   21.2556   28.3003   46.7344 C   0  0  0  0  0  0  0  0  0  0  0  0
   18.5844   33.6811   46.9505 O   0  0  0  0  0  0  0  0  0  0  0  0
   20.3566   27.0720   46.5883 C   0  0  1  0  0  0  0  0  0  0  0  0
   21.0599   25.8445   47.1848 C   0  0  1  0  0  0  0  0  0  0  0  0
   20.1593   24.6096   47.3019 C   0  0  1  0  0  0  0  0  0  0  0  0
   19.5528   24.4255   48.6608 C   0  0  0  0  0  0  0  0  0  0  0  0
   19.0851   27.2648   47.2549 O   0  0  0  0  0  0  0  0  0  0  0  0
   22.2098   25.5332   46.3472 O   0  0  0  0  0  0  0  0  0  0  0  0
   19.1336   24.6643   46.3059 O   0  0  0  0  0  0  0  0  0  0  0  0
   18.5186   23.3420   48.5774 O   0  0  0  0  0  0  0  0  0  0  0  0
   18.8748   21.9148   49.2390 P   0  0  2  0  0  0  0  0  0  0  0  0
   18.9085   21.0048   47.9662 O   0  0  0  0  0  0  0  0  0  0  0  0
   17.7321   21.5469   50.0687 O   0  0  0  0  0  0  0  0  0  0  0  0
   20.1309   22.0437   49.9747 O   0  0  0  0  0  0  0  0  0  0  0  0
   18.5549   33.1119   44.5754 H   0  0  0  0  0  0  0  0  0  0  0  0
   20.8289   27.3615   49.1169 H   0  0  0  0  0  0  0  0  0  0  0  0
   19.3886   33.7560   49.0718 H   0  0  0  0  0  0  0  0  0  0  0  0
   21.7079   32.9104   50.7532 H   0  0  0  0  0  0  0  0  0  0  0  0
   20.4661   34.1935   51.0183 H   0  0  0  0  0  0  0  0  0  0  0  0
   19.3796   30.2480   42.8906 H   0  0  0  0  0  0  0  0  0  0  0  0
   20.8920   27.4388   52.8637 H   0  0  0  0  0  0  0  0  0  0  0  0
   20.2120   26.4185   51.5509 H   0  0  0  0  0  0  0  0  0  0  0  0
   21.9593   26.8352   51.5509 H   0  0  0  0  0  0  0  0  0  0  0  0
   21.2264   29.6057   53.5577 H   0  0  0  0  0  0  0  0  0  0  0  0
   19.6964   30.5437   53.4794 H   0  0  0  0  0  0  0  0  0  0  0  0
   19.6501   28.7480   53.4794 H   0  0  0  0  0  0  0  0  0  0  0  0
   21.8426   34.3531   48.9359 H   0  0  0  0  0  0  0  0  0  0  0  0
   19.3826   31.7916   53.4638 H   0  0  0  0  0  0  0  0  0  0  0  0
   21.0816   32.2339   53.0839 H   0  0  0  0  0  0  0  0  0  0  0  0
   19.8035   33.4961   53.0839 H   0  0  0  0  0  0  0  0  0  0  0  0
   17.7385   32.5103   52.0985 H   0  0  0  0  0  0  0  0  0  0  0  0
   18.1294   33.3565   50.5630 H   0  0  0  0  0  0  0  0  0  0  0  0
   17.8400   31.5837   50.5630 H   0  0  0  0  0  0  0  0  0  0  0  0
   21.5517   28.6259   45.7263 H   0  0  0  0  0  0  0  0  0  0  0  0
   22.1010   27.9839   47.3631 H   0  0  0  0  0  0  0  0  0  0  0  0
   20.1657   26.9166   45.5161 H   0  0  0  0  0  0  0  0  0  0  0  0
   21.3565   26.0992   48.2130 H   0  0  0  0  0  0  0  0  0  0  0  0
   20.8066   23.7352   47.1398 H   0  0  0  0  0  0  0  0  0  0  0  0
   20.3339   24.1383   49.3801 H   0  0  0  0  0  0  0  0  0  0  0  0
   19.0888   25.3645   48.9970 H   0  0  0  0  0  0  0  0  0  0  0  0
   19.2202   27.2443   48.2355 H   0  0  0  0  0  0  0  0  0  0  0  0
   22.9886   25.3223   46.9210 H   0  0  0  0  0  0  0  0  0  0  0  0
   18.2482   24.7115   46.7462 H   0  0  0  0  0  0  0  0  0  0  0  0
  1  2  1  0
  1  6  2  0
  1 18  1  0
  2  3  1  0
  3  4  1  0
  3 25  2  0
  4  5  2  0
  4  7  1  0
  5  6  1  0
  5 10  1  0
  7  8  1  0
  7 15  1  0
  8  9  2  0
  8 11  1  0
  9 10  1  0
  9 14  1  0
 10 24  1  0
 11 12  2  0
 11 17  1  0
 12 13  1  0
 12 20  1  0
 13 14  2  0
 13 19  1  0
 15 16  1  0
 15 21  1  0
 16 17  1  0
 17 22  1  1
 17 23  1  0
 24 26  1  0
 26 27  1  0
 26 30  1  0
 27 28  1  0
 27 31  1  0
 28 29  1  0
 28 32  1  0
 29 33  1  0
 33 34  1  0
 34 35  2  0
 34 36  1  1
 34 37  1  0
  2 38  1  0
 14 39  1  0
 15 40  1  1
 16 41  1  0
 16 42  1  0
 18 43  1  0
 19 44  1  0
 19 45  1  0
 19 46  1  0
 20 47  1  0
 20 48  1  0
 20 49  1  0
 21 50  1  0
 22 51  1  0
 22 52  1  0
 22 53  1  0
 23 54  1  0
 23 55  1  0
 23 56  1  0
 24 57  1  0
 24 58  1  0
 26 59  1  6
 27 60  1  1
 28 61  1  6
 29 62  1  0
 29 63  1  0
 30 64  1  0
 31 65  1  0
 32 66  1  0
M  CHG  2  36  -1  37  -1
M  END
>  <filename_input>  (22) 
7NF0_BYN_docked.sdf

>  <pdb_id>  (22) 
7NF0_BYN

>  <pose_rank>  (22) 
21

>  <num_atoms_heavy>  (22) 
37

>  <num_torsions>  (22) 
7

>  <pose>  (22) 
[19.40980789098271, 31.233446132937548, 44.670143401984895, 0.1376192464617846, 3.1984651837271474, -1.8168678873533053, 12.112853944803744, 70.0432288017921, 69.05332149221219, 3.68256279819185, -25.43855315943169, -14.88531967713247, 0.9834874887518479]

>  <energy>  (22) 
-257.9025752855913

>  <inter_energy>  (22) 
-310.75415327108624

>  <intra_energy>  (22) 
48.8348530795287

>  <rmsd>  (22) 
12.0839

>  <sdf_rank>  (22) 
0

$$$$

     RDKit          3D

 66 69  0  0  0  0  0  0  0  0999 V2000
   13.6542   19.8056   43.3617 C   0  0  0  0  0  0  0  0  0  0  0  0
   12.4800   20.0289   42.7257 N   0  0  0  0  0  0  0  0  0  0  0  0
   12.3983   20.9306   41.6725 C   0  0  0  0  0  0  0  0  0  0  0  0
   13.5799   21.5358   41.3211 C   0  0  0  0  0  0  0  0  0  0  0  0
   14.7654   21.2741   42.0407 C   0  0  0  0  0  0  0  0  0  0  0  0
   14.7949   20.3231   43.0239 N   0  0  0  0  0  0  0  0  0  0  0  0
   13.6858   22.4341   40.2468 N   0  0  0  0  0  0  0  0  0  0  0  0
   14.7395   23.3318   40.2099 C   0  0  0  0  0  0  0  0  0  0  0  0
   15.8699   23.1168   41.0274 C   0  0  0  0  0  0  0  0  0  0  0  0
   15.9348   21.9614   41.7954 N   0  0  0  0  0  0  0  0  0  0  0  0
   14.6605   24.4841   39.3667 C   0  0  0  0  0  0  0  0  0  0  0  0
   15.7199   25.4039   39.3686 C   0  0  0  0  0  0  0  0  0  0  0  0
   16.8791   25.1305   40.1115 C   0  0  0  0  0  0  0  0  0  0  0  0
   16.9108   24.0486   40.9924 C   0  0  0  0  0  0  0  0  0  0  0  0
   12.8070   22.2257   39.1061 C   0  0  1  0  0  0  0  0  0  0  0  0
   13.0527   23.2179   38.0010 C   0  0  0  0  0  0  0  0  0  0  0  0
   13.3578   24.6138   38.5808 C   0  0  2  0  0  0  0  0  0  0  0  0
   13.5545   18.9741   44.4203 O   0  0  0  0  0  0  0  0  0  0  0  0
   18.0706   26.0388   40.0432 C   0  0  0  0  0  0  0  0  0  0  0  0
   15.7290   26.6496   38.4846 C   0  0  0  0  0  0  0  0  0  0  0  0
   12.7588   20.9229   38.7030 O   0  0  0  0  0  0  0  0  0  0  0  0
   13.3567   25.5576   37.3899 C   0  0  0  0  0  0  0  0  0  0  0  0
   12.2523   25.0972   39.5468 C   0  0  0  0  0  0  0  0  0  0  0  0
   17.1832   21.5048   42.3970 C   0  0  0  0  0  0  0  0  0  0  0  0
   11.2848   21.1933   41.2801 O   0  0  0  0  0  0  0  0  0  0  0  0
   17.3280   21.7769   43.8947 C   0  0  1  0  0  0  0  0  0  0  0  0
   17.9485   20.5530   44.5834 C   0  0  1  0  0  0  0  0  0  0  0  0
   18.9791   20.9045   45.6624 C   0  0  1  0  0  0  0  0  0  0  0  0
   18.3755   21.2499   46.9908 C   0  0  0  0  0  0  0  0  0  0  0  0
   18.1587   22.9372   44.1437 O   0  0  0  0  0  0  0  0  0  0  0  0
   16.8693   19.7733   45.1737 O   0  0  0  0  0  0  0  0  0  0  0  0
   19.9115   19.8291   45.8074 O   0  0  0  0  0  0  0  0  0  0  0  0
   19.0981   22.4414   47.5462 O   0  0  0  0  0  0  0  0  0  0  0  0
   20.0479   22.2097   48.8292 P   0  0  2  0  0  0  0  0  0  0  0  0
   20.2049   23.6794   49.3437 O   0  0  0  0  0  0  0  0  0  0  0  0
   21.3288   21.7357   48.3152 O   0  0  0  0  0  0  0  0  0  0  0  0
   19.3848   21.2750   49.7359 O   0  0  0  0  0  0  0  0  0  0  0  0
   11.6351   19.5228   43.0273 H   0  0  0  0  0  0  0  0  0  0  0  0
   17.7688   23.9272   41.6699 H   0  0  0  0  0  0  0  0  0  0  0  0
   11.7839   22.4388   39.4493 H   0  0  0  0  0  0  0  0  0  0  0  0
   13.9091   22.8821   37.3979 H   0  0  0  0  0  0  0  0  0  0  0  0
   12.1492   23.2836   37.3770 H   0  0  0  0  0  0  0  0  0  0  0  0
   14.3596   18.7490   44.9506 H   0  0  0  0  0  0  0  0  0  0  0  0
   18.3995   26.2894   41.0625 H   0  0  0  0  0  0  0  0  0  0  0  0
   18.8876   25.5322   39.5085 H   0  0  0  0  0  0  0  0  0  0  0  0
   17.7986   26.9608   39.5085 H   0  0  0  0  0  0  0  0  0  0  0  0
   15.7356   27.5488   39.1181 H   0  0  0  0  0  0  0  0  0  0  0  0
   16.6271   26.6420   37.8495 H   0  0  0  0  0  0  0  0  0  0  0  0
   14.8309   26.6551   37.8495 H   0  0  0  0  0  0  0  0  0  0  0  0
   12.7370   20.3324   39.4973 H   0  0  0  0  0  0  0  0  0  0  0  0
   13.3555   26.5981   37.7467 H   0  0  0  0  0  0  0  0  0  0  0  0
   14.2550   25.3800   36.7804 H   0  0  0  0  0  0  0  0  0  0  0  0
   12.4588   25.3779   36.7804 H   0  0  0  0  0  0  0  0  0  0  0  0
   12.5840   24.9522   40.5856 H   0  0  0  0  0  0  0  0  0  0  0  0
   12.0530   26.1646   39.3712 H   0  0  0  0  0  0  0  0  0  0  0  0
   11.3333   24.5188   39.3712 H   0  0  0  0  0  0  0  0  0  0  0  0
   17.2578   20.4185   42.2407 H   0  0  0  0  0  0  0  0  0  0  0  0
   17.9834   22.0782   41.9062 H   0  0  0  0  0  0  0  0  0  0  0  0
   16.3256   21.9745   44.3024 H   0  0  0  0  0  0  0  0  0  0  0  0
   18.4964   19.9840   43.8180 H   0  0  0  0  0  0  0  0  0  0  0  0
   19.4921   21.8148   45.3186 H   0  0  0  0  0  0  0  0  0  0  0  0
   17.3094   21.4888   46.8632 H   0  0  0  0  0  0  0  0  0  0  0  0
   18.4683   20.3977   47.6801 H   0  0  0  0  0  0  0  0  0  0  0  0
   18.2546   23.0711   45.1199 H   0  0  0  0  0  0  0  0  0  0  0  0
   16.9315   19.8182   46.1607 H   0  0  0  0  0  0  0  0  0  0  0  0
   20.0646   19.6526   46.7695 H   0  0  0  0  0  0  0  0  0  0  0  0
  1  2  1  0
  1  6  2  0
  1 18  1  0
  2  3  1  0
  3  4  1  0
  3 25  2  0
  4  5  2  0
  4  7  1  0
  5  6  1  0
  5 10  1  0
  7  8  1  0
  7 15  1  0
  8  9  2  0
  8 11  1  0
  9 10  1  0
  9 14  1  0
 10 24  1  0
 11 12  2  0
 11 17  1  0
 12 13  1  0
 12 20  1  0
 13 14  2  0
 13 19  1  0
 15 16  1  0
 15 21  1  0
 16 17  1  0
 17 22  1  6
 17 23  1  0
 24 26  1  0
 26 27  1  0
 26 30  1  0
 27 28  1  0
 27 31  1  0
 28 29  1  0
 28 32  1  0
 29 33  1  0
 33 34  1  0
 34 35  2  0
 34 36  1  6
 34 37  1  0
  2 38  1  0
 14 39  1  0
 15 40  1  1
 16 41  1  0
 16 42  1  0
 18 43  1  0
 19 44  1  0
 19 45  1  0
 19 46  1  0
 20 47  1  0
 20 48  1  0
 20 49  1  0
 21 50  1  0
 22 51  1  0
 22 52  1  0
 22 53  1  0
 23 54  1  0
 23 55  1  0
 23 56  1  0
 24 57  1  0
 24 58  1  0
 26 59  1  1
 27 60  1  6
 28 61  1  6
 29 62  1  0
 29 63  1  0
 30 64  1  0
 31 65  1  0
 32 66  1  0
M  CHG  2  36  -1  37  -1
M  END
>  <filename_input>  (23) 
7NF0_BYN_docked.sdf

>  <pdb_id>  (23) 
7NF0_BYN

>  <pose_rank>  (23) 
22

>  <num_atoms_heavy>  (23) 
37

>  <num_torsions>  (23) 
7

>  <pose>  (23) 
[13.654201002622903, 19.805637808158185, 43.36166910788765, -0.4907498258896178, -0.5916368708316954, -3.745406550262712, 0.0003976329233704168, -0.757537681319179, -0.5957596534172066, 0.5261581371191204, 0.610312410505161, 0.17883611489980203, 0.15119021826508938]

>  <energy>  (23) 
-240.4975826228691

>  <inter_energy>  (23) 
-276.226863055522

>  <intra_energy>  (23) 
22.780312894495502

>  <rmsd>  (23) 
8.07088

>  <sdf_rank>  (23) 
0

$$$$

     RDKit          3D

 66 69  0  0  0  0  0  0  0  0999 V2000
   15.3187   30.2179   45.9275 C   0  0  0  0  0  0  0  0  0  0  0  0
   15.5038   31.2404   45.0595 N   0  0  0  0  0  0  0  0  0  0  0  0
   16.6225   32.0588   45.1482 C   0  0  0  0  0  0  0  0  0  0  0  0
   17.5135   31.7344   46.1416 C   0  0  0  0  0  0  0  0  0  0  0  0
   17.2486   30.6679   47.0270 C   0  0  0  0  0  0  0  0  0  0  0  0
   16.1627   29.8559   46.8438 N   0  0  0  0  0  0  0  0  0  0  0  0
   18.7203   32.4254   46.3380 N   0  0  0  0  0  0  0  0  0  0  0  0
   19.3450   32.3690   47.5725 C   0  0  0  0  0  0  0  0  0  0  0  0
   18.9818   31.3639   48.4946 C   0  0  0  0  0  0  0  0  0  0  0  0
   18.0577   30.4008   48.1106 N   0  0  0  0  0  0  0  0  0  0  0  0
   20.3311   33.3470   47.9139 C   0  0  0  0  0  0  0  0  0  0  0  0
   20.9279   33.2989   49.1827 C   0  0  0  0  0  0  0  0  0  0  0  0
   20.6296   32.2393   50.0537 C   0  0  0  0  0  0  0  0  0  0  0  0
   19.6077   31.3409   49.7438 C   0  0  0  0  0  0  0  0  0  0  0  0
   19.3747   32.9841   45.1648 C   0  0  1  0  0  0  0  0  0  0  0  0
   20.6820   33.6519   45.4978 C   0  0  0  0  0  0  0  0  0  0  0  0
   20.5827   34.4034   46.8406 C   0  0  2  0  0  0  0  0  0  0  0  0
   14.1431   29.5730   45.7716 O   0  0  0  0  0  0  0  0  0  0  0  0
   21.3364   32.1004   51.3691 C   0  0  0  0  0  0  0  0  0  0  0  0
   22.0042   34.2893   49.6232 C   0  0  0  0  0  0  0  0  0  0  0  0
   19.4310   32.1084   44.1198 O   0  0  0  0  0  0  0  0  0  0  0  0
   21.8648   35.2119   46.9495 C   0  0  0  0  0  0  0  0  0  0  0  0
   19.4076   35.4073   46.8603 C   0  0  0  0  0  0  0  0  0  0  0  0
   17.8794   29.1616   48.8599 C   0  0  0  0  0  0  0  0  0  0  0  0
   16.6196   33.0443   44.4470 O   0  0  0  0  0  0  0  0  0  0  0  0
   18.9789   28.1159   48.6701 C   0  0  1  0  0  0  0  0  0  0  0  0
   18.8210   27.0057   49.7188 C   0  0  1  0  0  0  0  0  0  0  0  0
   20.0628   26.1212   49.8775 C   0  0  1  0  0  0  0  0  0  0  0  0
   19.9223   24.7596   49.2654 C   0  0  0  0  0  0  0  0  0  0  0  0
   18.9303   27.5318   47.3454 O   0  0  0  0  0  0  0  0  0  0  0  0
   18.5014   27.6329   50.9937 O   0  0  0  0  0  0  0  0  0  0  0  0
   21.2049   26.7915   49.3359 O   0  0  0  0  0  0  0  0  0  0  0  0
   20.8460   24.6703   48.0868 O   0  0  0  0  0  0  0  0  0  0  0  0
   20.9229   23.2638   47.3010 P   0  0  2  0  0  0  0  0  0  0  0  0
   22.4608   23.1681   47.0266 O   0  0  0  0  0  0  0  0  0  0  0  0
   20.2156   23.4560   46.0391 O   0  0  0  0  0  0  0  0  0  0  0  0
   20.3526   22.2230   48.1535 O   0  0  0  0  0  0  0  0  0  0  0  0
   14.8051   31.4138   44.3229 H   0  0  0  0  0  0  0  0  0  0  0  0
   19.2899   30.6027   50.4949 H   0  0  0  0  0  0  0  0  0  0  0  0
   18.7315   33.7980   44.7989 H   0  0  0  0  0  0  0  0  0  0  0  0
   21.4701   32.8878   45.5689 H   0  0  0  0  0  0  0  0  0  0  0  0
   20.9223   34.3748   44.7044 H   0  0  0  0  0  0  0  0  0  0  0  0
   13.9153   28.8099   46.3598 H   0  0  0  0  0  0  0  0  0  0  0  0
   20.6167   32.2419   52.1888 H   0  0  0  0  0  0  0  0  0  0  0  0
   21.7824   31.0975   51.4417 H   0  0  0  0  0  0  0  0  0  0  0  0
   22.1287   32.8601   51.4417 H   0  0  0  0  0  0  0  0  0  0  0  0
   22.0425   34.3245   50.7219 H   0  0  0  0  0  0  0  0  0  0  0  0
   22.9808   33.9674   49.2324 H   0  0  0  0  0  0  0  0  0  0  0  0
   21.7644   35.2892   49.2324 H   0  0  0  0  0  0  0  0  0  0  0  0
   19.4906   31.1833   44.4674 H   0  0  0  0  0  0  0  0  0  0  0  0
   22.1112   35.3672   48.0103 H   0  0  0  0  0  0  0  0  0  0  0  0
   22.6847   34.6670   46.4586 H   0  0  0  0  0  0  0  0  0  0  0  0
   21.7266   36.1865   46.4586 H   0  0  0  0  0  0  0  0  0  0  0  0
   19.1389   35.6368   47.9019 H   0  0  0  0  0  0  0  0  0  0  0  0
   19.7072   36.3326   46.3464 H   0  0  0  0  0  0  0  0  0  0  0  0
   18.5404   34.9668   46.3464 H   0  0  0  0  0  0  0  0  0  0  0  0
   17.8334   29.4153   49.9292 H   0  0  0  0  0  0  0  0  0  0  0  0
   16.9565   28.7043   48.4737 H   0  0  0  0  0  0  0  0  0  0  0  0
   19.9498   28.6182   48.7920 H   0  0  0  0  0  0  0  0  0  0  0  0
   18.0174   26.3374   49.3760 H   0  0  0  0  0  0  0  0  0  0  0  0
   20.1909   25.9545   50.9573 H   0  0  0  0  0  0  0  0  0  0  0  0
   20.1895   23.9907   50.0053 H   0  0  0  0  0  0  0  0  0  0  0  0
   18.8833   24.5964   48.9433 H   0  0  0  0  0  0  0  0  0  0  0  0
   18.8487   26.5481   47.4213 H   0  0  0  0  0  0  0  0  0  0  0  0
   18.7999   27.0470   51.7338 H   0  0  0  0  0  0  0  0  0  0  0  0
   21.7731   27.1249   50.0749 H   0  0  0  0  0  0  0  0  0  0  0  0
  1  2  1  0
  1  6  2  0
  1 18  1  0
  2  3  1  0
  3  4  1  0
  3 25  2  0
  4  5  2  0
  4  7  1  0
  5  6  1  0
  5 10  1  0
  7  8  1  0
  7 15  1  0
  8  9  2  0
  8 11  1  0
  9 10  1  0
  9 14  1  0
 10 24  1  0
 11 12  2  0
 11 17  1  0
 12 13  1  0
 12 20  1  0
 13 14  2  0
 13 19  1  0
 15 16  1  0
 15 21  1  0
 16 17  1  0
 17 22  1  1
 17 23  1  0
 24 26  1  0
 26 27  1  0
 26 30  1  0
 27 28  1  0
 27 31  1  0
 28 29  1  0
 28 32  1  0
 29 33  1  0
 33 34  1  0
 34 35  2  0
 34 36  1  6
 34 37  1  0
  2 38  1  0
 14 39  1  0
 15 40  1  6
 16 41  1  0
 16 42  1  0
 18 43  1  0
 19 44  1  0
 19 45  1  0
 19 46  1  0
 20 47  1  0
 20 48  1  0
 20 49  1  0
 21 50  1  0
 22 51  1  0
 22 52  1  0
 22 53  1  0
 23 54  1  0
 23 55  1  0
 23 56  1  0
 24 57  1  0
 24 58  1  0
 26 59  1  1
 27 60  1  6
 28 61  1  1
 29 62  1  0
 29 63  1  0
 30 64  1  0
 31 65  1  0
 32 66  1  0
M  CHG  2  36  -1  37  -1
M  END
>  <filename_input>  (24) 
7NF0_BYN_docked.sdf

>  <pdb_id>  (24) 
7NF0_BYN

>  <pose_rank>  (24) 
23

>  <num_atoms_heavy>  (24) 
37

>  <num_torsions>  (24) 
7

>  <pose>  (24) 
[15.318675580977315, 30.21789095217585, 45.92748846515853, -0.5400750853170377, -0.6992074171360846, 1.7173755023583859, -9.390330640718966, 12.332467498027578, 0.383472282744846, -2.7500125934769564, -1.3221671628581455, -1.0917525156600032, 0.5540814319627164]

>  <energy>  (24) 
-269.0297608143047

>  <inter_energy>  (24) 
-279.4136643873515

>  <intra_energy>  (24) 
6.265544921036981

>  <rmsd>  (24) 
11.4546

>  <sdf_rank>  (24) 
0

$$$$

     RDKit          3D

 66 69  0  0  0  0  0  0  0  0999 V2000
   18.8437   24.3604   45.7128 C   0  0  0  0  0  0  0  0  0  0  0  0
   18.5756   25.5607   45.1468 N   0  0  0  0  0  0  0  0  0  0  0  0
   18.8794   26.7450   45.8058 C   0  0  0  0  0  0  0  0  0  0  0  0
   19.4844   26.6003   47.0301 C   0  0  0  0  0  0  0  0  0  0  0  0
   19.7159   25.3181   47.5724 C   0  0  0  0  0  0  0  0  0  0  0  0
   19.4569   24.1897   46.8432 N   0  0  0  0  0  0  0  0  0  0  0  0
   19.9044   27.6928   47.8063 N   0  0  0  0  0  0  0  0  0  0  0  0
   20.0837   27.5316   49.1698 C   0  0  0  0  0  0  0  0  0  0  0  0
   20.1946   26.2329   49.7116 C   0  0  0  0  0  0  0  0  0  0  0  0
   20.2013   25.1431   48.8506 N   0  0  0  0  0  0  0  0  0  0  0  0
   20.1250   28.6804   50.0206 C   0  0  0  0  0  0  0  0  0  0  0  0
   20.2697   28.4988   51.4043 C   0  0  0  0  0  0  0  0  0  0  0  0
   20.4758   27.2098   51.9204 C   0  0  0  0  0  0  0  0  0  0  0  0
   20.3505   26.0929   51.0933 C   0  0  0  0  0  0  0  0  0  0  0  0
   20.3501   28.8861   47.1033 C   0  0  1  0  0  0  0  0  0  0  0  0
   20.8238   29.9639   48.0413 C   0  0  0  0  0  0  0  0  0  0  0  0
   19.9386   30.0151   49.3028 C   0  0  2  0  0  0  0  0  0  0  0  0
   18.4080   23.3053   44.9922 O   0  0  0  0  0  0  0  0  0  0  0  0
   20.7460   26.9982   53.3804 C   0  0  0  0  0  0  0  0  0  0  0  0
   20.3447   29.6686   52.3837 C   0  0  0  0  0  0  0  0  0  0  0  0
   21.2029   28.6097   46.0744 O   0  0  0  0  0  0  0  0  0  0  0  0
   20.3648   31.2691   50.0477 C   0  0  0  0  0  0  0  0  0  0  0  0
   18.4409   30.1770   48.9569 C   0  0  0  0  0  0  0  0  0  0  0  0
   20.6388   23.8206   49.2846 C   0  0  0  0  0  0  0  0  0  0  0  0
   18.4511   27.7593   45.3051 O   0  0  0  0  0  0  0  0  0  0  0  0
   19.5215   22.8020   49.5136 C   0  0  1  0  0  0  0  0  0  0  0  0
   20.0534   21.3857   49.2518 C   0  0  1  0  0  0  0  0  0  0  0  0
   19.0271   20.4471   48.6072 C   0  0  1  0  0  0  0  0  0  0  0  0
   18.3780   19.5005   49.5721 C   0  0  0  0  0  0  0  0  0  0  0  0
   19.0069   22.8765   50.8657 O   0  0  0  0  0  0  0  0  0  0  0  0
   21.2231   21.4961   48.3914 O   0  0  0  0  0  0  0  0  0  0  0  0
   18.0327   21.2158   47.9238 O   0  0  0  0  0  0  0  0  0  0  0  0
   16.9475   19.9135   49.7541 O   0  0  0  0  0  0  0  0  0  0  0  0
   16.2380   19.5560   51.1579 P   0  0  2  0  0  0  0  0  0  0  0  0
   14.9258   18.8682   50.6533 O   0  0  0  0  0  0  0  0  0  0  0  0
   15.9069   20.8290   51.7899 O   0  0  0  0  0  0  0  0  0  0  0  0
   17.1470   18.7195   51.9386 O   0  0  0  0  0  0  0  0  0  0  0  0
   18.1401   25.5962   44.2140 H   0  0  0  0  0  0  0  0  0  0  0  0
   20.3749   25.0861   51.5359 H   0  0  0  0  0  0  0  0  0  0  0  0
   19.4649   29.3148   46.6108 H   0  0  0  0  0  0  0  0  0  0  0  0
   21.8624   29.7546   48.3370 H   0  0  0  0  0  0  0  0  0  0  0  0
   20.7622   30.9338   47.5260 H   0  0  0  0  0  0  0  0  0  0  0  0
   18.5569   22.3843   45.3235 H   0  0  0  0  0  0  0  0  0  0  0  0
   20.0172   27.5690   53.9747 H   0  0  0  0  0  0  0  0  0  0  0  0
   20.6557   25.9281   53.6186 H   0  0  0  0  0  0  0  0  0  0  0  0
   21.7632   27.3423   53.6186 H   0  0  0  0  0  0  0  0  0  0  0  0
   20.3202   29.2858   53.4146 H   0  0  0  0  0  0  0  0  0  0  0  0
   21.2803   30.2237   52.2209 H   0  0  0  0  0  0  0  0  0  0  0  0
   19.4877   30.3387   52.2209 H   0  0  0  0  0  0  0  0  0  0  0  0
   22.0785   28.3259   46.4387 H   0  0  0  0  0  0  0  0  0  0  0  0
   20.3041   31.0904   51.1314 H   0  0  0  0  0  0  0  0  0  0  0  0
   21.3998   31.5234   49.7755 H   0  0  0  0  0  0  0  0  0  0  0  0
   19.6991   32.1014   49.7755 H   0  0  0  0  0  0  0  0  0  0  0  0
   17.8549   30.2403   49.8856 H   0  0  0  0  0  0  0  0  0  0  0  0
   18.2976   31.0959   48.3694 H   0  0  0  0  0  0  0  0  0  0  0  0
   18.1045   29.3100   48.3694 H   0  0  0  0  0  0  0  0  0  0  0  0
   21.3134   23.4169   48.5151 H   0  0  0  0  0  0  0  0  0  0  0  0
   21.1206   23.9667   50.2626 H   0  0  0  0  0  0  0  0  0  0  0  0
   18.7021   23.0346   48.8177 H   0  0  0  0  0  0  0  0  0  0  0  0
   20.2998   20.9386   50.2262 H   0  0  0  0  0  0  0  0  0  0  0  0
   19.5832   19.8184   47.8962 H   0  0  0  0  0  0  0  0  0  0  0  0
   18.4207   18.4764   49.1728 H   0  0  0  0  0  0  0  0  0  0  0  0
   18.9039   19.5270   50.5379 H   0  0  0  0  0  0  0  0  0  0  0  0
   19.7519   22.7687   51.5087 H   0  0  0  0  0  0  0  0  0  0  0  0
   22.0372   21.5729   48.9494 H   0  0  0  0  0  0  0  0  0  0  0  0
   17.4506   21.6658   48.5862 H   0  0  0  0  0  0  0  0  0  0  0  0
  1  2  1  0
  1  6  2  0
  1 18  1  0
  2  3  1  0
  3  4  1  0
  3 25  2  0
  4  5  2  0
  4  7  1  0
  5  6  1  0
  5 10  1  0
  7  8  1  0
  7 15  1  0
  8  9  2  0
  8 11  1  0
  9 10  1  0
  9 14  1  0
 10 24  1  0
 11 12  2  0
 11 17  1  0
 12 13  1  0
 12 20  1  0
 13 14  2  0
 13 19  1  0
 15 16  1  0
 15 21  1  0
 16 17  1  0
 17 22  1  1
 17 23  1  0
 24 26  1  0
 26 27  1  0
 26 30  1  0
 27 28  1  0
 27 31  1  0
 28 29  1  0
 28 32  1  0
 29 33  1  0
 33 34  1  0
 34 35  2  0
 34 36  1  1
 34 37  1  0
  2 38  1  0
 14 39  1  0
 15 40  1  6
 16 41  1  0
 16 42  1  0
 18 43  1  0
 19 44  1  0
 19 45  1  0
 19 46  1  0
 20 47  1  0
 20 48  1  0
 20 49  1  0
 21 50  1  0
 22 51  1  0
 22 52  1  0
 22 53  1  0
 23 54  1  0
 23 55  1  0
 23 56  1  0
 24 57  1  0
 24 58  1  0
 26 59  1  6
 27 60  1  1
 28 61  1  6
 29 62  1  0
 29 63  1  0
 30 64  1  0
 31 65  1  0
 32 66  1  0
M  CHG  2  36  -1  37  -1
M  END
>  <filename_input>  (25) 
7NF0_BYN_docked.sdf

>  <pdb_id>  (25) 
7NF0_BYN

>  <pose_rank>  (25) 
24

>  <num_atoms_heavy>  (25) 
37

>  <num_torsions>  (25) 
7

>  <pose>  (25) 
[18.843650248222083, 24.36039164618396, 45.71280428072045, 0.695145434034544, 2.1090690364467783, -2.962247586765243, 0.038515014508444724, -0.5347603353394772, 0.7314300380107069, -2.670403862631392, -1.3629162591778354, -0.5577583771127561, 0.7263168553958648]

>  <energy>  (25) 
-275.20687905599164

>  <inter_energy>  (25) 
-284.1427649722321

>  <intra_energy>  (25) 
14.742422011290973

>  <rmsd>  (25) 
11.5279

>  <sdf_rank>  (25) 
0

$$$$

     RDKit          3D

 66 69  0  0  0  0  0  0  0  0999 V2000
   12.2640   29.6260   42.1790 C   0  0  0  0  0  0  0  0  0  0  0  0
   13.2070   29.9230   41.2540 N   0  0  0  0  0  0  0  0  0  0  0  0
   13.7240   28.9400   40.4200 C   0  0  0  0  0  0  0  0  0  0  0  0
   13.1920   27.6850   40.5870 C   0  0  0  0  0  0  0  0  0  0  0  0
   12.2260   27.4390   41.5860 C   0  0  0  0  0  0  0  0  0  0  0  0
   11.7070   28.4640   42.3290 N   0  0  0  0  0  0  0  0  0  0  0  0
   13.5640   26.5880   39.7930 N   0  0  0  0  0  0  0  0  0  0  0  0
   13.3580   25.3030   40.2660 C   0  0  0  0  0  0  0  0  0  0  0  0
   12.4760   25.0890   41.3470 C   0  0  0  0  0  0  0  0  0  0  0  0
   11.7700   26.1680   41.8630 N   0  0  0  0  0  0  0  0  0  0  0  0
   14.0630   24.2080   39.6750 C   0  0  0  0  0  0  0  0  0  0  0  0
   13.8720   22.9170   40.1900 C   0  0  0  0  0  0  0  0  0  0  0  0
   12.9210   22.7030   41.2000 C   0  0  0  0  0  0  0  0  0  0  0  0
   12.3020   23.7870   41.8240 C   0  0  0  0  0  0  0  0  0  0  0  0
   13.9410   26.8530   38.4130 C   0  0  1  0  0  0  0  0  0  0  0  0
   14.2660   25.5950   37.6530 C   0  0  0  0  0  0  0  0  0  0  0  0
   15.0220   24.5960   38.5520 C   0  0  2  0  0  0  0  0  0  0  0  0
   11.9290   30.6650   42.9730 O   0  0  0  0  0  0  0  0  0  0  0  0
   12.6150   21.3190   41.6900 C   0  0  0  0  0  0  0  0  0  0  0  0
   14.5670   21.6880   39.6070 C   0  0  0  0  0  0  0  0  0  0  0  0
   13.0760   27.6960   37.7780 O   0  0  0  0  0  0  0  0  0  0  0  0
   15.4890   23.4870   37.6240 C   0  0  0  0  0  0  0  0  0  0  0  0
   16.2850   25.2230   39.1850 C   0  0  0  0  0  0  0  0  0  0  0  0
   10.6150   25.9870   42.7360 C   0  0  0  0  0  0  0  0  0  0  0  0
   14.6780   29.2580   39.7480 O   0  0  0  0  0  0  0  0  0  0  0  0
   10.8730   26.2270   44.2240 C   0  0  1  0  0  0  0  0  0  0  0  0
    9.5880   25.9580   45.0200 C   0  0  1  0  0  0  0  0  0  0  0  0
    9.7740   26.0270   46.5400 C   0  0  1  0  0  0  0  0  0  0  0  0
   10.4310   27.2880   47.0160 C   0  0  0  0  0  0  0  0  0  0  0  0
   11.9310   25.3720   44.7220 O   0  0  0  0  0  0  0  0  0  0  0  0
    8.5890   26.9330   44.6050 O   0  0  0  0  0  0  0  0  0  0  0  0
    8.5110   25.8520   47.1890 O   0  0  0  0  0  0  0  0  0  0  0  0
   10.7220   27.1490   48.4810 O   0  0  0  0  0  0  0  0  0  0  0  0
   10.0460   28.2170   49.4830 P   0  0  2  0  0  0  0  0  0  0  0  0
   10.7800   27.8660   50.8200 O   0  0  0  0  0  0  0  0  0  0  0  0
    8.6380   27.8490   49.5910 O   0  0  0  0  0  0  0  0  0  0  0  0
   10.2740   29.5600   48.9540 O   0  0  0  0  0  0  0  0  0  0  0  0
   13.5459   30.8918   41.1675 H   0  0  0  0  0  0  0  0  0  0  0  0
   11.6670   23.6138   42.7054 H   0  0  0  0  0  0  0  0  0  0  0  0
   14.8877   27.4124   38.4434 H   0  0  0  0  0  0  0  0  0  0  0  0
   13.3311   25.1317   37.3047 H   0  0  0  0  0  0  0  0  0  0  0  0
   14.9053   25.8542   36.7962 H   0  0  0  0  0  0  0  0  0  0  0  0
   11.2473   30.5472   43.6811 H   0  0  0  0  0  0  0  0  0  0  0  0
   12.6133   21.3115   42.7900 H   0  0  0  0  0  0  0  0  0  0  0  0
   11.6267   21.0091   41.3197 H   0  0  0  0  0  0  0  0  0  0  0  0
   13.3806   20.6213   41.3197 H   0  0  0  0  0  0  0  0  0  0  0  0
   14.9287   21.0485   40.4256 H   0  0  0  0  0  0  0  0  0  0  0  0
   13.8546   21.1232   38.9878 H   0  0  0  0  0  0  0  0  0  0  0  0
   15.4182   22.0074   38.9878 H   0  0  0  0  0  0  0  0  0  0  0  0
   12.5558   28.2030   38.4506 H   0  0  0  0  0  0  0  0  0  0  0  0
   15.8475   22.6357   38.2213 H   0  0  0  0  0  0  0  0  0  0  0  0
   14.6510   23.1627   36.9894 H   0  0  0  0  0  0  0  0  0  0  0  0
   16.3065   23.8598   36.9894 H   0  0  0  0  0  0  0  0  0  0  0  0
   16.2042   25.1829   40.2813 H   0  0  0  0  0  0  0  0  0  0  0  0
   17.1742   24.6617   38.8621 H   0  0  0  0  0  0  0  0  0  0  0  0
   16.3755   26.2706   38.8621 H   0  0  0  0  0  0  0  0  0  0  0  0
    9.8308   26.6863   42.4105 H   0  0  0  0  0  0  0  0  0  0  0  0
   10.3294   24.9286   42.6449 H   0  0  0  0  0  0  0  0  0  0  0  0
   11.1855   27.2741   44.3498 H   0  0  0  0  0  0  0  0  0  0  0  0
    9.2725   24.9270   44.8020 H   0  0  0  0  0  0  0  0  0  0  0  0
   10.4603   25.2100   46.8074 H   0  0  0  0  0  0  0  0  0  0  0  0
   11.3693   27.4484   46.4648 H   0  0  0  0  0  0  0  0  0  0  0  0
    9.7667   28.1476   46.8435 H   0  0  0  0  0  0  0  0  0  0  0  0
   11.9225   25.3789   45.7119 H   0  0  0  0  0  0  0  0  0  0  0  0
    8.1723   27.3397   45.4056 H   0  0  0  0  0  0  0  0  0  0  0  0
    8.6391   25.8697   48.1705 H   0  0  0  0  0  0  0  0  0  0  0  0
  1  2  1  0
  1  6  2  0
  1 18  1  0
  2  3  1  0
  3  4  1  0
  3 25  2  0
  4  5  2  0
  4  7  1  0
  5  6  1  0
  5 10  1  0
  7  8  1  0
  7 15  1  0
  8  9  2  0
  8 11  1  0
  9 10  1  0
  9 14  1  0
 10 24  1  0
 11 12  2  0
 11 17  1  0
 12 13  1  0
 12 20  1  0
 13 14  2  0
 13 19  1  0
 15 16  1  0
 15 21  1  0
 16 17  1  0
 17 22  1  6
 17 23  1  0
 24 26  1  0
 26 27  1  0
 26 30  1  0
 27 28  1  0
 27 31  1  0
 28 29  1  0
 28 32  1  0
 29 33  1  0
 33 34  1  0
 34 35  2  0
 34 36  1  1
 34 37  1  0
  2 38  1  0
 14 39  1  0
 15 40  1  1
 16 41  1  0
 16 42  1  0
 18 43  1  0
 19 44  1  0
 19 45  1  0
 19 46  1  0
 20 47  1  0
 20 48  1  0
 20 49  1  0
 21 50  1  0
 22 51  1  0
 22 52  1  0
 22 53  1  0
 23 54  1  0
 23 55  1  0
 23 56  1  0
 24 57  1  0
 24 58  1  0
 26 59  1  6
 27 60  1  1
 28 61  1  1
 29 62  1  0
 29 63  1  0
 30 64  1  0
 31 65  1  0
 32 66  1  0
M  CHG  2  36  -1  37  -1
M  END
>  <filename_input>  (26) 
7NF0_BYN_docked.sdf

>  <pdb_id>  (26) 
7NF0_BYN

>  <pose_rank>  (26) 
25

>  <num_atoms_heavy>  (26) 
37

>  <num_torsions>  (26) 
7

>  <pose>  (26) 
[12.264, 29.626, 42.179, 1e-06, 1e-06, 1e-06, 0.0, 0.0, 0.0, 0.0, 0.0, 0.0, 0.0]

>  <energy>  (26) 
-901.0506744620506

>  <inter_energy>  (26) 
-918.3029930261054

>  <intra_energy>  (26) 
21.17865473163421

>  <rmsd>  (26) 
0.0

>  <sdf_rank>  (26) 
0

$$$$
