
     RDKit          3D

 64 67  0  0  0  0  0  0  0  0999 V2000
   21.4380    9.0876   21.2466 C   0  0  0  0  0  0  0  0  0  0  0  0
   21.1093    9.3601   19.9201 C   0  0  0  0  0  0  0  0  0  0  0  0
   20.5945   10.6033   19.5551 C   0  0  0  0  0  0  0  0  0  0  0  0
   21.5420   10.7069   24.5321 C   0  0  0  0  0  0  0  0  0  0  0  0
   20.3913   11.5647   20.5721 C   0  0  0  0  0  0  0  0  0  0  0  0
   21.8926   12.6705   26.2944 N   0  0  0  0  0  0  0  0  0  0  0  0
   22.2114   11.4005   26.6635 C   0  0  0  0  0  0  0  0  0  0  0  0
   19.1704   13.3688   19.0599 C   0  0  0  0  0  0  0  0  0  0  0  0
   19.9090   13.0168   20.3476 C   0  0  1  0  0  0  0  0  0  0  0  0
   19.6170   13.2104   22.7817 C   0  0  0  0  0  0  0  0  0  0  0  0
   22.8021   11.2385   27.7228 O   0  0  0  0  0  0  0  0  0  0  0  0
   22.0251   10.4156   25.7491 N   0  0  0  0  0  0  0  0  0  0  0  0
   21.2864   13.0153   25.1137 C   0  0  0  0  0  0  0  0  0  0  0  0
   21.1093   14.2407   24.8951 O   0  0  0  0  0  0  0  0  0  0  0  0
   21.1313   11.9884   24.1858 C   0  0  0  0  0  0  0  0  0  0  0  0
   20.5317   12.1949   22.9220 N   0  0  0  0  0  0  0  0  0  0  0  0
   18.9195   13.2986   21.4759 C   0  0  0  0  0  0  0  0  0  0  0  0
   21.0987   13.9512   20.4811 C   0  0  0  0  0  0  0  0  0  0  0  0
   20.7158   11.2345   21.9070 C   0  0  0  0  0  0  0  0  0  0  0  0
   20.3317   10.8501   18.0860 C   0  0  0  0  0  0  0  0  0  0  0  0
   21.2403    8.2571   18.8974 C   0  0  0  0  0  0  0  0  0  0  0  0
   21.2428   10.0318   22.2538 C   0  0  0  0  0  0  0  0  0  0  0  0
   21.5244    9.7126   23.6099 N   0  0  0  0  0  0  0  0  0  0  0  0
   21.7635    8.3298   24.0654 C   0  0  0  0  0  0  0  0  0  0  0  0
   23.1924    7.9105   24.2143 C   0  0  2  0  0  0  0  0  0  0  0  0
   23.7653    7.5964   22.9545 O   0  0  0  0  0  0  0  0  0  0  0  0
   23.3054    6.7051   25.1216 C   0  0  2  0  0  0  0  0  0  0  0  0
   21.9505    6.3777   25.5431 O   0  0  0  0  0  0  0  0  0  0  0  0
   24.1617    6.9535   26.3529 C   0  0  2  0  0  0  0  0  0  0  0  0
   24.8579    8.1994   26.1548 O   0  0  0  0  0  0  0  0  0  0  0  0
   25.1508    5.8647   26.6481 C   0  0  0  0  0  0  0  0  0  0  0  0
   26.5041    6.3657   26.3743 O   0  0  0  0  0  0  0  0  0  0  0  0
   27.6171    6.3447   27.5324 P   0  0  1  0  0  0  0  0  0  0  0  0
   26.7762    6.1296   28.7878 O   0  0  0  0  0  0  0  0  0  0  0  0
   28.5769    5.2608   27.2255 O   0  0  0  0  0  0  0  0  0  0  0  0
   28.2491    7.7231   27.5299 O   0  0  0  0  0  0  0  0  0  0  0  0
   21.8610    8.1055   21.5048 H   0  0  0  0  0  0  0  0  0  0  0  0
   22.1239   13.4297   26.9508 H   0  0  0  0  0  0  0  0  0  0  0  0
   18.2027   13.8300   19.3066 H   0  0  0  0  0  0  0  0  0  0  0  0
   19.7744   14.0759   18.4723 H   0  0  0  0  0  0  0  0  0  0  0  0
   19.0016   12.4544   18.4723 H   0  0  0  0  0  0  0  0  0  0  0  0
   19.4126   13.9213   23.5959 H   0  0  0  0  0  0  0  0  0  0  0  0
   22.2553    9.4411   25.9902 H   0  0  0  0  0  0  0  0  0  0  0  0
   18.5004   14.3081   21.3520 H   0  0  0  0  0  0  0  0  0  0  0  0
   18.1077   12.5570   21.4441 H   0  0  0  0  0  0  0  0  0  0  0  0
   21.3142   14.1204   21.5464 H   0  0  0  0  0  0  0  0  0  0  0  0
   21.9766   13.4986   19.9968 H   0  0  0  0  0  0  0  0  0  0  0  0
   20.8671   14.9113   19.9968 H   0  0  0  0  0  0  0  0  0  0  0  0
   19.5337   11.5993   17.9771 H   0  0  0  0  0  0  0  0  0  0  0  0
   21.2499   11.2199   17.6063 H   0  0  0  0  0  0  0  0  0  0  0  0
   20.0203    9.9104   17.6063 H   0  0  0  0  0  0  0  0  0  0  0  0
   21.3549    7.2916   19.4119 H   0  0  0  0  0  0  0  0  0  0  0  0
   20.3388    8.2321   18.2675 H   0  0  0  0  0  0  0  0  0  0  0  0
   22.1225    8.4440   18.2675 H   0  0  0  0  0  0  0  0  0  0  0  0
   21.2776    8.2125   25.0452 H   0  0  0  0  0  0  0  0  0  0  0  0
   21.3546    7.6881   23.2710 H   0  0  0  0  0  0  0  0  0  0  0  0
   23.7382    8.7559   24.6585 H   0  0  0  0  0  0  0  0  0  0  0  0
   24.6251    7.1251   23.0913 H   0  0  0  0  0  0  0  0  0  0  0  0
   23.7949    5.8904   24.5678 H   0  0  0  0  0  0  0  0  0  0  0  0
   21.9061    6.3670   26.5320 H   0  0  0  0  0  0  0  0  0  0  0  0
   23.4900    6.9818   27.2235 H   0  0  0  0  0  0  0  0  0  0  0  0
   25.0800    8.5967   27.0340 H   0  0  0  0  0  0  0  0  0  0  0  0
   25.0724    5.5711   27.7053 H   0  0  0  0  0  0  0  0  0  0  0  0
   24.9419    4.9892   26.0157 H   0  0  0  0  0  0  0  0  0  0  0  0
  1  2  2  0
  1 22  1  0
  2  3  1  0
  2 21  1  0
  3  5  2  0
  3 20  1  0
  4 12  1  0
  4 15  2  0
  4 23  1  0
  5  9  1  0
  5 19  1  0
  6  7  1  0
  6 13  1  0
  7 11  2  0
  7 12  1  0
  9  8  1  6
  9 17  1  0
  9 18  1  0
 10 16  2  0
 10 17  1  0
 13 14  2  0
 13 15  1  0
 15 16  1  0
 16 19  1  0
 19 22  2  0
 22 23  1  0
 23 24  1  0
 24 25  1  0
 25 26  1  0
 25 27  1  0
 27 28  1  0
 27 29  1  0
 29 30  1  0
 29 31  1  0
 31 32  1  0
 32 33  1  0
 33 34  2  0
 33 35  1  6
 33 36  1  0
  1 37  1  0
  6 38  1  0
  8 39  1  0
  8 40  1  0
  8 41  1  0
 10 42  1  0
 12 43  1  0
 17 44  1  0
 17 45  1  0
 18 46  1  0
 18 47  1  0
 18 48  1  0
 20 49  1  0
 20 50  1  0
 20 51  1  0
 21 52  1  0
 21 53  1  0
 21 54  1  0
 24 55  1  0
 24 56  1  0
 25 57  1  1
 26 58  1  0
 27 59  1  6
 28 60  1  0
 29 61  1  1
 30 62  1  0
 31 63  1  0
 31 64  1  0
M  CHG  3  16   1  35  -1  36  -1
M  END
>  <filename_input>  (1) 
7NF3_4LU_docked.sdf

>  <pdb_id>  (1) 
7NF3_4LU

>  <pose_rank>  (1) 
0

>  <num_atoms_heavy>  (1) 
36

>  <num_torsions>  (1) 
7

>  <pose>  (1) 
[21.43800491758676, 9.087570244902128, 21.246572017506868, -4.0806147507912796, 0.9573837477310123, -4.592034924608365, -6.364491865500616, -6.663168406154336, -5.137348554263711, 3.0749440968744075, -1.3386327142661751, 4.191356313473174, 2.659445571082877]

>  <energy>  (1) 
-935.9706914681566

>  <inter_energy>  (1) 
-938.379939558947

>  <intra_energy>  (1) 
14.373280574924934

>  <rmsd>  (1) 
0.898608

>  <sdf_rank>  (1) 
0

$$$$

     RDKit          3D

 64 67  0  0  0  0  0  0  0  0999 V2000
   21.3181   10.6527   24.4836 C   0  0  0  0  0  0  0  0  0  0  0  0
   20.6929   11.6565   25.2206 C   0  0  0  0  0  0  0  0  0  0  0  0
   19.9531   12.6519   24.5836 C   0  0  0  0  0  0  0  0  0  0  0  0
   21.6835    9.4790   21.0315 C   0  0  0  0  0  0  0  0  0  0  0  0
   19.8804   12.6271   23.1716 C   0  0  0  0  0  0  0  0  0  0  0  0
   20.9628    8.9622   18.5220 N   0  0  0  0  0  0  0  0  0  0  0  0
   21.8317    8.1151   19.1369 C   0  0  0  0  0  0  0  0  0  0  0  0
   18.6105   14.9370   22.8814 C   0  0  0  0  0  0  0  0  0  0  0  0
   19.0447   13.5945   22.3012 C   0  0  1  0  0  0  0  0  0  0  0  0
   20.2122   12.7008   20.3299 C   0  0  0  0  0  0  0  0  0  0  0  0
   22.1106    7.0653   18.5733 O   0  0  0  0  0  0  0  0  0  0  0  0
   22.1848    8.3977   20.4161 N   0  0  0  0  0  0  0  0  0  0  0  0
   20.5101   10.1427   19.0529 C   0  0  0  0  0  0  0  0  0  0  0  0
   19.6636   10.7869   18.3828 O   0  0  0  0  0  0  0  0  0  0  0  0
   20.8683   10.3931   20.3752 C   0  0  0  0  0  0  0  0  0  0  0  0
   20.4682   11.5645   21.0586 N   0  0  0  0  0  0  0  0  0  0  0  0
   19.9281   13.9341   21.1029 C   0  0  0  0  0  0  0  0  0  0  0  0
   17.8040   12.8650   21.8166 C   0  0  0  0  0  0  0  0  0  0  0  0
   20.5517   11.6041   22.4651 C   0  0  0  0  0  0  0  0  0  0  0  0
   19.2422   13.6639   25.4546 C   0  0  0  0  0  0  0  0  0  0  0  0
   20.9003   11.6971   26.7156 C   0  0  0  0  0  0  0  0  0  0  0  0
   21.2484   10.6208   23.0913 C   0  0  0  0  0  0  0  0  0  0  0  0
   21.9457    9.6257   22.3541 N   0  0  0  0  0  0  0  0  0  0  0  0
   22.9769    8.7645   22.9640 C   0  0  0  0  0  0  0  0  0  0  0  0
   22.5146    7.4519   23.5145 C   0  0  2  0  0  0  0  0  0  0  0  0
   21.0982    7.3988   23.5836 O   0  0  0  0  0  0  0  0  0  0  0  0
   23.0847    7.2197   24.8964 C   0  0  2  0  0  0  0  0  0  0  0  0
   23.3489    8.5361   25.4601 O   0  0  0  0  0  0  0  0  0  0  0  0
   24.3741    6.4144   24.8909 C   0  0  2  0  0  0  0  0  0  0  0  0
   24.1047    5.1569   25.5406 O   0  0  0  0  0  0  0  0  0  0  0  0
   25.5299    7.0929   25.5653 C   0  0  0  0  0  0  0  0  0  0  0  0
   26.0092    6.2383   26.6595 O   0  0  0  0  0  0  0  0  0  0  0  0
   27.5580    6.2719   27.0843 P   0  0  1  0  0  0  0  0  0  0  0  0
   27.8672    4.7936   27.3040 O   0  0  0  0  0  0  0  0  0  0  0  0
   28.3188    6.9174   25.9912 O   0  0  0  0  0  0  0  0  0  0  0  0
   27.6168    7.0404   28.3902 O   0  0  0  0  0  0  0  0  0  0  0  0
   21.8793    9.8679   25.0119 H   0  0  0  0  0  0  0  0  0  0  0  0
   20.6193    8.6970   17.5879 H   0  0  0  0  0  0  0  0  0  0  0  0
   18.6275   14.8843   23.9801 H   0  0  0  0  0  0  0  0  0  0  0  0
   19.3000   15.7237   22.5413 H   0  0  0  0  0  0  0  0  0  0  0  0
   17.5909   15.1709   22.5413 H   0  0  0  0  0  0  0  0  0  0  0  0
   20.2177   12.6959   19.2299 H   0  0  0  0  0  0  0  0  0  0  0  0
   22.8399    7.7799   20.9162 H   0  0  0  0  0  0  0  0  0  0  0  0
   19.4087   14.6587   20.4586 H   0  0  0  0  0  0  0  0  0  0  0  0
   20.8740   14.3694   21.4576 H   0  0  0  0  0  0  0  0  0  0  0  0
   17.2192   12.5212   22.6825 H   0  0  0  0  0  0  0  0  0  0  0  0
   17.1918   13.5470   21.2082 H   0  0  0  0  0  0  0  0  0  0  0  0
   18.1023   11.9985   21.2082 H   0  0  0  0  0  0  0  0  0  0  0  0
   19.4131   13.4205   26.5137 H   0  0  0  0  0  0  0  0  0  0  0  0
   19.6332   14.6698   25.2418 H   0  0  0  0  0  0  0  0  0  0  0  0
   18.1633   13.6373   25.2418 H   0  0  0  0  0  0  0  0  0  0  0  0
   19.9429   11.5097   27.2238 H   0  0  0  0  0  0  0  0  0  0  0  0
   21.6270   10.9242   27.0061 H   0  0  0  0  0  0  0  0  0  0  0  0
   21.2820   12.6871   27.0061 H   0  0  0  0  0  0  0  0  0  0  0  0
   23.7346    8.5553   22.1946 H   0  0  0  0  0  0  0  0  0  0  0  0
   23.3486    9.3282   23.8324 H   0  0  0  0  0  0  0  0  0  0  0  0
   22.8726    6.6658   22.8335 H   0  0  0  0  0  0  0  0  0  0  0  0
   20.8142    7.3881   24.5319 H   0  0  0  0  0  0  0  0  0  0  0  0
   22.3614    6.6349   25.4836 H   0  0  0  0  0  0  0  0  0  0  0  0
   23.3376    8.4801   26.4485 H   0  0  0  0  0  0  0  0  0  0  0  0
   24.6813    6.2878   23.8423 H   0  0  0  0  0  0  0  0  0  0  0  0
   24.1312    5.2804   26.5225 H   0  0  0  0  0  0  0  0  0  0  0  0
   26.3402    7.2519   24.8386 H   0  0  0  0  0  0  0  0  0  0  0  0
   25.2096    8.0664   25.9650 H   0  0  0  0  0  0  0  0  0  0  0  0
  1  2  2  0
  1 22  1  0
  2  3  1  0
  2 21  1  0
  3  5  2  0
  3 20  1  0
  4 12  1  0
  4 15  2  0
  4 23  1  0
  5  9  1  0
  5 19  1  0
  6  7  1  0
  6 13  1  0
  7 11  2  0
  7 12  1  0
  9  8  1  1
  9 17  1  0
  9 18  1  0
 10 16  2  0
 10 17  1  0
 13 14  2  0
 13 15  1  0
 15 16  1  0
 16 19  1  0
 19 22  2  0
 22 23  1  0
 23 24  1  0
 24 25  1  0
 25 26  1  0
 25 27  1  0
 27 28  1  0
 27 29  1  0
 29 30  1  0
 29 31  1  0
 31 32  1  0
 32 33  1  0
 33 34  2  0
 33 35  1  6
 33 36  1  0
  1 37  1  0
  6 38  1  0
  8 39  1  0
  8 40  1  0
  8 41  1  0
 10 42  1  0
 12 43  1  0
 17 44  1  0
 17 45  1  0
 18 46  1  0
 18 47  1  0
 18 48  1  0
 20 49  1  0
 20 50  1  0
 20 51  1  0
 21 52  1  0
 21 53  1  0
 21 54  1  0
 24 55  1  0
 24 56  1  0
 25 57  1  6
 26 58  1  0
 27 59  1  1
 28 60  1  0
 29 61  1  6
 30 62  1  0
 31 63  1  0
 31 64  1  0
M  CHG  3  16   1  35  -1  36  -1
M  END
>  <filename_input>  (2) 
7NF3_4LU_docked.sdf

>  <pdb_id>  (2) 
7NF3_4LU

>  <pose_rank>  (2) 
1

>  <num_atoms_heavy>  (2) 
36

>  <num_torsions>  (2) 
7

>  <pose>  (2) 
[21.31811725391888, 10.652730186320287, 24.483555021943655, -1.3035998259521286, 2.383694988677561, -1.075327721249069, -0.18169736321417926, 0.7878628607460948, 1.6027423171551167, 1.296283323355964, -1.134427421398566, -1.6218036879594797, 0.519459698477907]

>  <energy>  (2) 
-808.0008247861665

>  <inter_energy>  (2) 
-833.3593877417014

>  <intra_energy>  (2) 
22.293904326390162

>  <rmsd>  (2) 
4.47589

>  <sdf_rank>  (2) 
0

$$$$

     RDKit          3D

 64 67  0  0  0  0  0  0  0  0999 V2000
   21.4667    9.0141   21.2574 C   0  0  0  0  0  0  0  0  0  0  0  0
   21.0901    9.2390   19.9348 C   0  0  0  0  0  0  0  0  0  0  0  0
   20.5398   10.4605   19.5490 C   0  0  0  0  0  0  0  0  0  0  0  0
   21.6451   10.7367   24.4868 C   0  0  0  0  0  0  0  0  0  0  0  0
   20.3508   11.4492   20.5423 C   0  0  0  0  0  0  0  0  0  0  0  0
   22.0142   12.7604   26.1757 N   0  0  0  0  0  0  0  0  0  0  0  0
   22.3693   11.5086   26.5728 C   0  0  0  0  0  0  0  0  0  0  0  0
   19.0468   13.1825   19.0166 C   0  0  0  0  0  0  0  0  0  0  0  0
   19.8333   12.8845   20.2895 C   0  0  1  0  0  0  0  0  0  0  0  0
   19.6163   13.1484   22.7249 C   0  0  0  0  0  0  0  0  0  0  0  0
   22.9969   11.3907   27.6166 O   0  0  0  0  0  0  0  0  0  0  0  0
   22.1728   10.4924   25.6955 N   0  0  0  0  0  0  0  0  0  0  0  0
   21.3635   13.0570   25.0056 C   0  0  0  0  0  0  0  0  0  0  0  0
   21.1557   14.2714   24.7556 O   0  0  0  0  0  0  0  0  0  0  0  0
   21.1986   11.9990   24.1151 C   0  0  0  0  0  0  0  0  0  0  0  0
   20.5546   12.1548   22.8660 N   0  0  0  0  0  0  0  0  0  0  0  0
   18.8754   13.1830   21.4406 C   0  0  0  0  0  0  0  0  0  0  0  0
   21.0083   13.8444   20.3553 C   0  0  0  0  0  0  0  0  0  0  0  0
   20.7245   11.1668   21.8753 C   0  0  0  0  0  0  0  0  0  0  0  0
   20.2249   10.6565   18.0825 C   0  0  0  0  0  0  0  0  0  0  0  0
   21.2095    8.1073   18.9424 C   0  0  0  0  0  0  0  0  0  0  0  0
   21.2858    9.9854   22.2412 C   0  0  0  0  0  0  0  0  0  0  0  0
   21.6172    9.7139   23.5964 N   0  0  0  0  0  0  0  0  0  0  0  0
   21.8978    8.3506   24.0858 C   0  0  0  0  0  0  0  0  0  0  0  0
   23.3371    7.9478   24.1599 C   0  0  2  0  0  0  0  0  0  0  0  0
   23.9719    8.0910   22.8988 O   0  0  0  0  0  0  0  0  0  0  0  0
   23.4689    6.5120   24.6180 C   0  0  2  0  0  0  0  0  0  0  0  0
   22.1155    5.9828   24.7106 O   0  0  0  0  0  0  0  0  0  0  0  0
   24.1512    6.3688   25.9690 C   0  0  2  0  0  0  0  0  0  0  0  0
   25.5639    6.5674   25.7664 O   0  0  0  0  0  0  0  0  0  0  0  0
   23.9192    5.0481   26.6420 C   0  0  0  0  0  0  0  0  0  0  0  0
   23.1794    5.2751   27.8904 O   0  0  0  0  0  0  0  0  0  0  0  0
   21.8933    4.3766   28.2356 P   0  0  1  0  0  0  0  0  0  0  0  0
   20.9102    5.4105   28.7777 O   0  0  0  0  0  0  0  0  0  0  0  0
   21.4657    3.6929   26.9946 O   0  0  0  0  0  0  0  0  0  0  0  0
   22.3328    3.4190   29.3262 O   0  0  0  0  0  0  0  0  0  0  0  0
   21.9169    8.0486   21.5315 H   0  0  0  0  0  0  0  0  0  0  0  0
   22.2517   13.5439   26.8007 H   0  0  0  0  0  0  0  0  0  0  0  0
   18.0487   13.5607   19.2824 H   0  0  0  0  0  0  0  0  0  0  0  0
   19.5806   13.9407   18.4248 H   0  0  0  0  0  0  0  0  0  0  0  0
   18.9442   12.2609   18.4248 H   0  0  0  0  0  0  0  0  0  0  0  0
   19.4244   13.8804   23.5232 H   0  0  0  0  0  0  0  0  0  0  0  0
   22.4297    9.5303   25.9586 H   0  0  0  0  0  0  0  0  0  0  0  0
   18.4330   14.1802   21.2997 H   0  0  0  0  0  0  0  0  0  0  0  0
   18.0776   12.4259   21.4582 H   0  0  0  0  0  0  0  0  0  0  0  0
   21.2572   14.0477   21.4073 H   0  0  0  0  0  0  0  0  0  0  0  0
   21.8776   13.3948   19.8531 H   0  0  0  0  0  0  0  0  0  0  0  0
   20.7411   14.7859   19.8531 H   0  0  0  0  0  0  0  0  0  0  0  0
   19.2950   11.2353   17.9813 H   0  0  0  0  0  0  0  0  0  0  0  0
   21.0500   11.2008   17.5999 H   0  0  0  0  0  0  0  0  0  0  0  0
   20.1007    9.6758   17.5999 H   0  0  0  0  0  0  0  0  0  0  0  0
   21.3100    7.1546   19.4831 H   0  0  0  0  0  0  0  0  0  0  0  0
   20.3096    8.0771   18.3106 H   0  0  0  0  0  0  0  0  0  0  0  0
   22.0959    8.2656   18.3106 H   0  0  0  0  0  0  0  0  0  0  0  0
   21.4751    8.2659   25.0978 H   0  0  0  0  0  0  0  0  0  0  0  0
   21.4463    7.6772   23.3424 H   0  0  0  0  0  0  0  0  0  0  0  0
   23.8269    8.6112   24.8879 H   0  0  0  0  0  0  0  0  0  0  0  0
   24.9287    8.3068   23.0335 H   0  0  0  0  0  0  0  0  0  0  0  0
   24.0980    5.9675   23.8984 H   0  0  0  0  0  0  0  0  0  0  0  0
   21.8640    5.8845   25.6631 H   0  0  0  0  0  0  0  0  0  0  0  0
   23.7139    7.1206   26.6425 H   0  0  0  0  0  0  0  0  0  0  0  0
   26.0173    6.6312   26.6442 H   0  0  0  0  0  0  0  0  0  0  0  0
   23.3339    4.3935   25.9795 H   0  0  0  0  0  0  0  0  0  0  0  0
   24.8836    4.5668   26.8620 H   0  0  0  0  0  0  0  0  0  0  0  0
  1  2  2  0
  1 22  1  0
  2  3  1  0
  2 21  1  0
  3  5  2  0
  3 20  1  0
  4 12  1  0
  4 15  2  0
  4 23  1  0
  5  9  1  0
  5 19  1  0
  6  7  1  0
  6 13  1  0
  7 11  2  0
  7 12  1  0
  9  8  1  6
  9 17  1  0
  9 18  1  0
 10 16  2  0
 10 17  1  0
 13 14  2  0
 13 15  1  0
 15 16  1  0
 16 19  1  0
 19 22  2  0
 22 23  1  0
 23 24  1  0
 24 25  1  0
 25 26  1  0
 25 27  1  0
 27 28  1  0
 27 29  1  0
 29 30  1  0
 29 31  1  0
 31 32  1  0
 32 33  1  0
 33 34  2  0
 33 35  1  6
 33 36  1  0
  1 37  1  0
  6 38  1  0
  8 39  1  0
  8 40  1  0
  8 41  1  0
 10 42  1  0
 12 43  1  0
 17 44  1  0
 17 45  1  0
 18 46  1  0
 18 47  1  0
 18 48  1  0
 20 49  1  0
 20 50  1  0
 20 51  1  0
 21 52  1  0
 21 53  1  0
 21 54  1  0
 24 55  1  0
 24 56  1  0
 25 57  1  1
 26 58  1  0
 27 59  1  6
 28 60  1  0
 29 61  1  1
 30 62  1  0
 31 63  1  0
 31 64  1  0
M  CHG  3  16   1  35  -1  36  -1
M  END
>  <filename_input>  (3) 
7NF3_4LU_docked.sdf

>  <pdb_id>  (3) 
7NF3_4LU

>  <pose_rank>  (3) 
2

>  <num_atoms_heavy>  (3) 
36

>  <num_torsions>  (3) 
7

>  <pose>  (3) 
[21.466749658226824, 9.014082214400391, 21.257393827329132, -1.1388995546002145, -2.0246853440445776, -5.760063626410085, -0.11365067544880016, 0.013923491284460106, 1.240034558197642, 1.9548777289732764, 1.0009708681492244, -1.9308897886344143, 0.5298403940306325]

>  <energy>  (3) 
-829.652605026648

>  <inter_energy>  (3) 
-837.4710196212302

>  <intra_energy>  (3) 
17.445521649101032

>  <rmsd>  (3) 
2.3761

>  <sdf_rank>  (3) 
0

$$$$

     RDKit          3D

 64 67  0  0  0  0  0  0  0  0999 V2000
   21.6629   10.1915   23.4294 C   0  0  0  0  0  0  0  0  0  0  0  0
   22.1061    8.8920   23.1913 C   0  0  0  0  0  0  0  0  0  0  0  0
   21.9297    8.2971   21.9428 C   0  0  0  0  0  0  0  0  0  0  0  0
   20.0829   13.0099   21.7008 C   0  0  0  0  0  0  0  0  0  0  0  0
   21.2655    9.0396   20.9391 C   0  0  0  0  0  0  0  0  0  0  0  0
   19.5408   14.6690   19.6914 N   0  0  0  0  0  0  0  0  0  0  0  0
   19.5481   15.1629   20.9590 C   0  0  0  0  0  0  0  0  0  0  0  0
   21.1328    7.0926   19.1435 C   0  0  0  0  0  0  0  0  0  0  0  0
   21.0523    8.5789   19.4782 C   0  0  1  0  0  0  0  0  0  0  0  0
   19.5185   10.4791   19.1881 C   0  0  0  0  0  0  0  0  0  0  0  0
   19.4742   16.3754   21.1062 O   0  0  0  0  0  0  0  0  0  0  0  0
   19.8275   14.2993   21.9675 N   0  0  0  0  0  0  0  0  0  0  0  0
   19.6757   13.3439   19.3652 C   0  0  0  0  0  0  0  0  0  0  0  0
   19.7055   13.0533   18.1424 O   0  0  0  0  0  0  0  0  0  0  0  0
   19.9865   12.4860   20.4173 C   0  0  0  0  0  0  0  0  0  0  0  0
   20.1641   11.0955   20.2325 N   0  0  0  0  0  0  0  0  0  0  0  0
   19.6297    9.0019   19.1190 C   0  0  0  0  0  0  0  0  0  0  0  0
   22.0340    9.3185   18.5863 C   0  0  0  0  0  0  0  0  0  0  0  0
   20.8112   10.3444   21.2344 C   0  0  0  0  0  0  0  0  0  0  0  0
   22.5033    6.9125   21.7379 C   0  0  0  0  0  0  0  0  0  0  0  0
   22.7052    8.1074   24.3338 C   0  0  0  0  0  0  0  0  0  0  0  0
   21.0097   10.9301   22.4436 C   0  0  0  0  0  0  0  0  0  0  0  0
   20.5085   12.2299   22.7255 N   0  0  0  0  0  0  0  0  0  0  0  0
   20.3968   12.7554   24.0996 C   0  0  0  0  0  0  0  0  0  0  0  0
   19.9032   11.8034   25.1435 C   0  0  2  0  0  0  0  0  0  0  0  0
   18.6046   11.3272   24.8258 O   0  0  0  0  0  0  0  0  0  0  0  0
   19.8655   12.4694   26.5013 C   0  0  2  0  0  0  0  0  0  0  0  0
   19.4324   13.8413   26.2759 O   0  0  0  0  0  0  0  0  0  0  0  0
   21.2129   12.4838   27.2052 C   0  0  2  0  0  0  0  0  0  0  0  0
   21.8889   13.6986   26.8266 O   0  0  0  0  0  0  0  0  0  0  0  0
   22.0855   11.3035   26.8946 C   0  0  0  0  0  0  0  0  0  0  0  0
   23.4352   11.7834   26.5701 O   0  0  0  0  0  0  0  0  0  0  0  0
   24.6992   11.2482   27.4045 P   0  0  1  0  0  0  0  0  0  0  0  0
   24.4143   11.7830   28.8053 O   0  0  0  0  0  0  0  0  0  0  0  0
   24.7325    9.7731   27.2897 O   0  0  0  0  0  0  0  0  0  0  0  0
   25.9151   11.9238   26.8007 O   0  0  0  0  0  0  0  0  0  0  0  0
   21.8321   10.6447   24.4173 H   0  0  0  0  0  0  0  0  0  0  0  0
   19.4253   15.3405   18.9190 H   0  0  0  0  0  0  0  0  0  0  0  0
   21.1645    6.5082   20.0749 H   0  0  0  0  0  0  0  0  0  0  0  0
   20.2492    6.8004   18.5572 H   0  0  0  0  0  0  0  0  0  0  0  0
   22.0429    6.8976   18.5572 H   0  0  0  0  0  0  0  0  0  0  0  0
   18.9484   11.0517   18.4417 H   0  0  0  0  0  0  0  0  0  0  0  0
   19.8434   14.6351   22.9411 H   0  0  0  0  0  0  0  0  0  0  0  0
   19.3937    8.6641   18.0991 H   0  0  0  0  0  0  0  0  0  0  0  0
   18.9230    8.5483   19.8295 H   0  0  0  0  0  0  0  0  0  0  0  0
   22.7575    9.8636   19.2103 H   0  0  0  0  0  0  0  0  0  0  0  0
   22.5682    8.5965   17.9512 H   0  0  0  0  0  0  0  0  0  0  0  0
   21.4873   10.0312   17.9512 H   0  0  0  0  0  0  0  0  0  0  0  0
   22.6961    6.4470   22.7157 H   0  0  0  0  0  0  0  0  0  0  0  0
   21.7857    6.2980   21.1744 H   0  0  0  0  0  0  0  0  0  0  0  0
   23.4452    6.9855   21.1744 H   0  0  0  0  0  0  0  0  0  0  0  0
   22.3744    8.5406   25.2893 H   0  0  0  0  0  0  0  0  0  0  0  0
   22.3749    7.0599   24.2722 H   0  0  0  0  0  0  0  0  0  0  0  0
   23.8026    8.1500   24.2722 H   0  0  0  0  0  0  0  0  0  0  0  0
   21.3951   13.0997   24.4074 H   0  0  0  0  0  0  0  0  0  0  0  0
   19.6350   13.5471   24.0460 H   0  0  0  0  0  0  0  0  0  0  0  0
   20.6023   10.9546   25.1709 H   0  0  0  0  0  0  0  0  0  0  0  0
   18.1065   11.1445   25.6615 H   0  0  0  0  0  0  0  0  0  0  0  0
   19.1853   11.9029   27.1543 H   0  0  0  0  0  0  0  0  0  0  0  0
   19.2908   14.2900   27.1469 H   0  0  0  0  0  0  0  0  0  0  0  0
   21.0222   12.4293   28.2872 H   0  0  0  0  0  0  0  0  0  0  0  0
   22.1629   14.1912   27.6404 H   0  0  0  0  0  0  0  0  0  0  0  0
   22.1305   10.6371   27.7686 H   0  0  0  0  0  0  0  0  0  0  0  0
   21.6715   10.7479   26.0402 H   0  0  0  0  0  0  0  0  0  0  0  0
  1  2  2  0
  1 22  1  0
  2  3  1  0
  2 21  1  0
  3  5  2  0
  3 20  1  0
  4 12  1  0
  4 15  2  0
  4 23  1  0
  5  9  1  0
  5 19  1  0
  6  7  1  0
  6 13  1  0
  7 11  2  0
  7 12  1  0
  9  8  1  1
  9 17  1  0
  9 18  1  0
 10 16  2  0
 10 17  1  0
 13 14  2  0
 13 15  1  0
 15 16  1  0
 16 19  1  0
 19 22  2  0
 22 23  1  0
 23 24  1  0
 24 25  1  0
 25 26  1  0
 25 27  1  0
 27 28  1  0
 27 29  1  0
 29 30  1  0
 29 31  1  0
 31 32  1  0
 32 33  1  0
 33 34  2  0
 33 35  1  1
 33 36  1  0
  1 37  1  0
  6 38  1  0
  8 39  1  0
  8 40  1  0
  8 41  1  0
 10 42  1  0
 12 43  1  0
 17 44  1  0
 17 45  1  0
 18 46  1  0
 18 47  1  0
 18 48  1  0
 20 49  1  0
 20 50  1  0
 20 51  1  0
 21 52  1  0
 21 53  1  0
 21 54  1  0
 24 55  1  0
 24 56  1  0
 25 57  1  1
 26 58  1  0
 27 59  1  1
 28 60  1  0
 29 61  1  1
 30 62  1  0
 31 63  1  0
 31 64  1  0
M  CHG  3  16   1  35  -1  36  -1
M  END
>  <filename_input>  (4) 
7NF3_4LU_docked.sdf

>  <pdb_id>  (4) 
7NF3_4LU

>  <pose_rank>  (4) 
3

>  <num_atoms_heavy>  (4) 
36

>  <num_torsions>  (4) 
7

>  <pose>  (4) 
[21.66290508571229, 10.191458121521068, 23.429434329077985, -1.5189973907744925, -0.43920141335354584, 0.45838289946710675, 3.771217990768114, 12.517794152119354, -4.4740990799846285, 4.8602142696707515, -0.9412167817676955, -2.0859550961937874, 1.8072933127865225]

>  <energy>  (4) 
-737.5027129846936

>  <inter_energy>  (4) 
-773.4056631703701

>  <intra_energy>  (4) 
29.284378123133113

>  <rmsd>  (4) 
5.74605

>  <sdf_rank>  (4) 
0

$$$$

     RDKit          3D

 64 67  0  0  0  0  0  0  0  0999 V2000
   21.7115    9.6472   23.4554 C   0  0  0  0  0  0  0  0  0  0  0  0
   22.4129    8.7257   22.6803 C   0  0  0  0  0  0  0  0  0  0  0  0
   22.3730    8.7896   21.2882 C   0  0  0  0  0  0  0  0  0  0  0  0
   19.6047   12.6250   23.1062 C   0  0  0  0  0  0  0  0  0  0  0  0
   21.5802    9.7963   20.6900 C   0  0  0  0  0  0  0  0  0  0  0  0
   18.7531   14.9260   22.0744 N   0  0  0  0  0  0  0  0  0  0  0  0
   18.6480   14.7368   23.4175 C   0  0  0  0  0  0  0  0  0  0  0  0
   21.8641    8.9735   18.1851 C   0  0  0  0  0  0  0  0  0  0  0  0
   21.4787   10.0716   19.1716 C   0  0  1  0  0  0  0  0  0  0  0  0
   19.5917   11.5737   19.6520 C   0  0  0  0  0  0  0  0  0  0  0  0
   18.3266   15.6922   24.1114 O   0  0  0  0  0  0  0  0  0  0  0  0
   19.0888   13.5568   23.9216 N   0  0  0  0  0  0  0  0  0  0  0  0
   19.1588   13.9714   21.1773 C   0  0  0  0  0  0  0  0  0  0  0  0
   19.2583   14.3197   19.9734 O   0  0  0  0  0  0  0  0  0  0  0  0
   19.6288   12.7806   21.7256 C   0  0  0  0  0  0  0  0  0  0  0  0
   20.0884   11.7090   20.9258 N   0  0  0  0  0  0  0  0  0  0  0  0
   20.0030   10.3600   18.9055 C   0  0  0  0  0  0  0  0  0  0  0  0
   22.2965   11.3090   18.8454 C   0  0  0  0  0  0  0  0  0  0  0  0
   20.8662   10.6928   21.5165 C   0  0  0  0  0  0  0  0  0  0  0  0
   23.2191    7.8018   20.5158 C   0  0  0  0  0  0  0  0  0  0  0  0
   23.1493    7.6043   23.3730 C   0  0  0  0  0  0  0  0  0  0  0  0
   20.9300   10.6439   22.8723 C   0  0  0  0  0  0  0  0  0  0  0  0
   20.1714   11.5343   23.6796 N   0  0  0  0  0  0  0  0  0  0  0  0
   19.9423   11.2998   25.1181 C   0  0  0  0  0  0  0  0  0  0  0  0
   20.9122   11.9357   26.0639 C   0  0  2  0  0  0  0  0  0  0  0  0
   21.9903   12.5348   25.3620 O   0  0  0  0  0  0  0  0  0  0  0  0
   21.4628   10.9139   27.0342 C   0  0  2  0  0  0  0  0  0  0  0  0
   21.9409   11.6589   28.1905 O   0  0  0  0  0  0  0  0  0  0  0  0
   22.6090   10.0945   26.4634 C   0  0  2  0  0  0  0  0  0  0  0  0
   22.1398    8.7415   26.3042 O   0  0  0  0  0  0  0  0  0  0  0  0
   23.8523   10.1014   27.3030 C   0  0  0  0  0  0  0  0  0  0  0  0
   24.4152    8.7450   27.3289 O   0  0  0  0  0  0  0  0  0  0  0  0
   25.9867    8.5235   27.0805 P   0  0  1  0  0  0  0  0  0  0  0  0
   26.3106    7.3840   28.0427 O   0  0  0  0  0  0  0  0  0  0  0  0
   26.1843    8.2113   25.6474 O   0  0  0  0  0  0  0  0  0  0  0  0
   26.6636    9.8098   27.5124 O   0  0  0  0  0  0  0  0  0  0  0  0
   21.7757    9.5868   24.5518 H   0  0  0  0  0  0  0  0  0  0  0  0
   18.5099   15.8556   21.7036 H   0  0  0  0  0  0  0  0  0  0  0  0
   22.1788    8.0769   18.7391 H   0  0  0  0  0  0  0  0  0  0  0  0
   20.9982    8.7285   17.5525 H   0  0  0  0  0  0  0  0  0  0  0  0
   22.6931    9.3234   17.5525 H   0  0  0  0  0  0  0  0  0  0  0  0
   18.9234   12.3266   19.2088 H   0  0  0  0  0  0  0  0  0  0  0  0
   19.0271   13.3759   24.9337 H   0  0  0  0  0  0  0  0  0  0  0  0
   19.8501   10.5232   17.8285 H   0  0  0  0  0  0  0  0  0  0  0  0
   19.3974    9.5038   19.2374 H   0  0  0  0  0  0  0  0  0  0  0  0
   22.6168   11.7935   19.7795 H   0  0  0  0  0  0  0  0  0  0  0  0
   23.1818   11.0196   18.2602 H   0  0  0  0  0  0  0  0  0  0  0  0
   21.6833   12.0101   18.2602 H   0  0  0  0  0  0  0  0  0  0  0  0
   23.7687    7.1602   21.2203 H   0  0  0  0  0  0  0  0  0  0  0  0
   22.5699    7.1791   19.8827 H   0  0  0  0  0  0  0  0  0  0  0  0
   23.9341    8.3477   19.8827 H   0  0  0  0  0  0  0  0  0  0  0  0
   23.0670    7.7297   24.4627 H   0  0  0  0  0  0  0  0  0  0  0  0
   22.7080    6.6401   23.0804 H   0  0  0  0  0  0  0  0  0  0  0  0
   24.2095    7.6261   23.0804 H   0  0  0  0  0  0  0  0  0  0  0  0
   18.9396   11.6804   25.3626 H   0  0  0  0  0  0  0  0  0  0  0  0
   20.0684   10.2162   25.2588 H   0  0  0  0  0  0  0  0  0  0  0  0
   20.3673   12.7128   26.6200 H   0  0  0  0  0  0  0  0  0  0  0  0
   22.6445   12.8984   26.0099 H   0  0  0  0  0  0  0  0  0  0  0  0
   20.6668   10.1959   27.2811 H   0  0  0  0  0  0  0  0  0  0  0  0
   21.6489   11.2040   29.0199 H   0  0  0  0  0  0  0  0  0  0  0  0
   22.9000   10.5531   25.5068 H   0  0  0  0  0  0  0  0  0  0  0  0
   21.9986    8.3342   27.1954 H   0  0  0  0  0  0  0  0  0  0  0  0
   24.5861   10.7977   26.8708 H   0  0  0  0  0  0  0  0  0  0  0  0
   23.6099   10.4244   28.3262 H   0  0  0  0  0  0  0  0  0  0  0  0
  1  2  2  0
  1 22  1  0
  2  3  1  0
  2 21  1  0
  3  5  2  0
  3 20  1  0
  4 12  1  0
  4 15  2  0
  4 23  1  0
  5  9  1  0
  5 19  1  0
  6  7  1  0
  6 13  1  0
  7 11  2  0
  7 12  1  0
  9  8  1  6
  9 17  1  0
  9 18  1  0
 10 16  2  0
 10 17  1  0
 13 14  2  0
 13 15  1  0
 15 16  1  0
 16 19  1  0
 19 22  2  0
 22 23  1  0
 23 24  1  0
 24 25  1  0
 25 26  1  0
 25 27  1  0
 27 28  1  0
 27 29  1  0
 29 30  1  0
 29 31  1  0
 31 32  1  0
 32 33  1  0
 33 34  2  0
 33 35  1  6
 33 36  1  0
  1 37  1  0
  6 38  1  0
  8 39  1  0
  8 40  1  0
  8 41  1  0
 10 42  1  0
 12 43  1  0
 17 44  1  0
 17 45  1  0
 18 46  1  0
 18 47  1  0
 18 48  1  0
 20 49  1  0
 20 50  1  0
 20 51  1  0
 21 52  1  0
 21 53  1  0
 21 54  1  0
 24 55  1  0
 24 56  1  0
 25 57  1  1
 26 58  1  0
 27 59  1  1
 28 60  1  0
 29 61  1  6
 30 62  1  0
 31 63  1  0
 31 64  1  0
M  CHG  3  16   1  35  -1  36  -1
M  END
>  <filename_input>  (5) 
7NF3_4LU_docked.sdf

>  <pdb_id>  (5) 
7NF3_4LU

>  <pose_rank>  (5) 
4

>  <num_atoms_heavy>  (5) 
36

>  <num_torsions>  (5) 
7

>  <pose>  (5) 
[21.71146257233786, 9.64717626348244, 23.455368086821064, 3.877711585680128, 2.6914342466424155, -1.606502272812371, -0.17171308235776367, 0.8737381060390895, -1.6070235269614637, 1.3342341015613308, -0.8338760362364147, -1.9126007667426286, -0.8576923668707329]

>  <energy>  (5) 
-668.9378777389861

>  <inter_energy>  (5) 
-708.039396203675

>  <intra_energy>  (5) 
39.00920381079779

>  <rmsd>  (5) 
4.15757

>  <sdf_rank>  (5) 
0

$$$$

     RDKit          3D

 64 67  0  0  0  0  0  0  0  0999 V2000
   21.6465    7.3551   25.3933 C   0  0  0  0  0  0  0  0  0  0  0  0
   22.1593    6.0594   25.3910 C   0  0  0  0  0  0  0  0  0  0  0  0
   23.4662    5.8102   25.8075 C   0  0  0  0  0  0  0  0  0  0  0  0
   22.5875   10.7753   26.3126 C   0  0  0  0  0  0  0  0  0  0  0  0
   24.2603    6.9111   26.2039 C   0  0  0  0  0  0  0  0  0  0  0  0
   23.7424   12.7099   27.7294 N   0  0  0  0  0  0  0  0  0  0  0  0
   22.5399   12.9609   27.1449 C   0  0  0  0  0  0  0  0  0  0  0  0
   26.5295    5.5714   26.5009 C   0  0  0  0  0  0  0  0  0  0  0  0
   25.6967    6.8210   26.7700 C   0  0  1  0  0  0  0  0  0  0  0  0
   25.8591    9.2628   26.5270 C   0  0  0  0  0  0  0  0  0  0  0  0
   21.9633   14.0006   27.4345 O   0  0  0  0  0  0  0  0  0  0  0  0
   21.9694   11.9601   26.4280 N   0  0  0  0  0  0  0  0  0  0  0  0
   24.4776   11.5662   27.5513 C   0  0  0  0  0  0  0  0  0  0  0  0
   25.5447   11.4610   28.2075 O   0  0  0  0  0  0  0  0  0  0  0  0
   23.8560   10.5481   26.8325 C   0  0  0  0  0  0  0  0  0  0  0  0
   24.4868    9.3089   26.5762 N   0  0  0  0  0  0  0  0  0  0  0  0
   26.4649    7.9709   26.1226 C   0  0  0  0  0  0  0  0  0  0  0  0
   25.6426    7.0390   28.2720 C   0  0  0  0  0  0  0  0  0  0  0  0
   23.7055    8.2100   26.1656 C   0  0  0  0  0  0  0  0  0  0  0  0
   23.9273    4.3701   25.8478 C   0  0  0  0  0  0  0  0  0  0  0  0
   21.3032    4.9398   24.8493 C   0  0  0  0  0  0  0  0  0  0  0  0
   22.4230    8.4448   25.7854 C   0  0  0  0  0  0  0  0  0  0  0  0
   21.9025    9.7657   25.7200 N   0  0  0  0  0  0  0  0  0  0  0  0
   20.6583   10.0924   24.9974 C   0  0  0  0  0  0  0  0  0  0  0  0
   20.7270   10.0763   23.5026 C   0  0  2  0  0  0  0  0  0  0  0  0
   21.8950    9.4070   23.0533 O   0  0  0  0  0  0  0  0  0  0  0  0
   20.7228   11.4849   22.9507 C   0  0  2  0  0  0  0  0  0  0  0  0
   22.1093   11.9301   22.9461 O   0  0  0  0  0  0  0  0  0  0  0  0
   19.8929   12.4550   23.7760 C   0  0  2  0  0  0  0  0  0  0  0  0
   18.5684   11.9009   23.8974 O   0  0  0  0  0  0  0  0  0  0  0  0
   19.8097   13.8395   23.2041 C   0  0  0  0  0  0  0  0  0  0  0  0
   20.2641   13.8043   21.8078 O   0  0  0  0  0  0  0  0  0  0  0  0
   19.1960   13.6314   20.6205 P   0  0  1  0  0  0  0  0  0  0  0  0
   19.6208   12.3075   19.9911 O   0  0  0  0  0  0  0  0  0  0  0  0
   17.8421   13.6375   21.2180 O   0  0  0  0  0  0  0  0  0  0  0  0
   19.4367   14.7881   19.6699 O   0  0  0  0  0  0  0  0  0  0  0  0
   20.6057    7.5220   25.0787 H   0  0  0  0  0  0  0  0  0  0  0  0
   24.1296   13.4331   28.3523 H   0  0  0  0  0  0  0  0  0  0  0  0
   26.8311    5.1188   27.4570 H   0  0  0  0  0  0  0  0  0  0  0  0
   25.9316    4.8491   25.9258 H   0  0  0  0  0  0  0  0  0  0  0  0
   27.4263    5.8453   25.9258 H   0  0  0  0  0  0  0  0  0  0  0  0
   26.4765   10.1388   26.7748 H   0  0  0  0  0  0  0  0  0  0  0  0
   21.0588   12.1107   25.9709 H   0  0  0  0  0  0  0  0  0  0  0  0
   27.5146    7.9403   26.4499 H   0  0  0  0  0  0  0  0  0  0  0  0
   26.4179    7.8717   25.0281 H   0  0  0  0  0  0  0  0  0  0  0  0
   25.8767    6.0962   28.7880 H   0  0  0  0  0  0  0  0  0  0  0  0
   26.3776    7.8058   28.5579 H   0  0  0  0  0  0  0  0  0  0  0  0
   24.6342    7.3729   28.5579 H   0  0  0  0  0  0  0  0  0  0  0  0
   24.0306    4.0473   26.8943 H   0  0  0  0  0  0  0  0  0  0  0  0
   23.1879    3.7339   25.3393 H   0  0  0  0  0  0  0  0  0  0  0  0
   24.8986    4.2817   25.3393 H   0  0  0  0  0  0  0  0  0  0  0  0
   20.8694    4.3723   25.6859 H   0  0  0  0  0  0  0  0  0  0  0  0
   20.4948    5.3612   24.2338 H   0  0  0  0  0  0  0  0  0  0  0  0
   21.9218    4.2702   24.2338 H   0  0  0  0  0  0  0  0  0  0  0  0
   19.8933    9.3639   25.3041 H   0  0  0  0  0  0  0  0  0  0  0  0
   20.4324   11.1350   25.2659 H   0  0  0  0  0  0  0  0  0  0  0  0
   19.8397    9.5375   23.1387 H   0  0  0  0  0  0  0  0  0  0  0  0
   22.4229    9.1045   23.8343 H   0  0  0  0  0  0  0  0  0  0  0  0
   20.2697   11.4707   21.9485 H   0  0  0  0  0  0  0  0  0  0  0  0
   22.4263   12.0319   23.8784 H   0  0  0  0  0  0  0  0  0  0  0  0
   20.3903   12.5710   24.7503 H   0  0  0  0  0  0  0  0  0  0  0  0
   18.3376   11.8043   24.8552 H   0  0  0  0  0  0  0  0  0  0  0  0
   18.7693   14.1944   23.2452 H   0  0  0  0  0  0  0  0  0  0  0  0
   20.4455   14.5227   23.7863 H   0  0  0  0  0  0  0  0  0  0  0  0
  1  2  2  0
  1 22  1  0
  2  3  1  0
  2 21  1  0
  3  5  2  0
  3 20  1  0
  4 12  1  0
  4 15  2  0
  4 23  1  0
  5  9  1  0
  5 19  1  0
  6  7  1  0
  6 13  1  0
  7 11  2  0
  7 12  1  0
  9  8  1  1
  9 17  1  0
  9 18  1  0
 10 16  2  0
 10 17  1  0
 13 14  2  0
 13 15  1  0
 15 16  1  0
 16 19  1  0
 19 22  2  0
 22 23  1  0
 23 24  1  0
 24 25  1  0
 25 26  1  0
 25 27  1  0
 27 28  1  0
 27 29  1  0
 29 30  1  0
 29 31  1  0
 31 32  1  0
 32 33  1  0
 33 34  2  0
 33 35  1  1
 33 36  1  0
  1 37  1  0
  6 38  1  0
  8 39  1  0
  8 40  1  0
  8 41  1  0
 10 42  1  0
 12 43  1  0
 17 44  1  0
 17 45  1  0
 18 46  1  0
 18 47  1  0
 18 48  1  0
 20 49  1  0
 20 50  1  0
 20 51  1  0
 21 52  1  0
 21 53  1  0
 21 54  1  0
 24 55  1  0
 24 56  1  0
 25 57  1  6
 26 58  1  0
 27 59  1  6
 28 60  1  0
 29 61  1  1
 30 62  1  0
 31 63  1  0
 31 64  1  0
M  CHG  3  16   1  35  -1  36  -1
M  END
>  <filename_input>  (6) 
7NF3_4LU_docked.sdf

>  <pdb_id>  (6) 
7NF3_4LU

>  <pose_rank>  (6) 
5

>  <num_atoms_heavy>  (6) 
36

>  <num_torsions>  (6) 
7

>  <pose>  (6) 
[21.646458717510466, 7.355135097332113, 25.39327575233912, -0.7802600381765953, -1.767338386749126, -1.5322997924742365, 3.2169187338260055, 1.2643549439243964, 2.658416806261249, -3.9511233795610936, -2.9942481922149877, -2.59744881469763, 0.8776682567302423]

>  <energy>  (6) 
-662.7850634240838

>  <inter_energy>  (6) 
-722.4951094166822

>  <intra_energy>  (6) 
57.90917452789606

>  <rmsd>  (6) 
8.00692

>  <sdf_rank>  (6) 
0

$$$$

     RDKit          3D

 64 67  0  0  0  0  0  0  0  0999 V2000
   21.5426    9.3006   21.2852 C   0  0  0  0  0  0  0  0  0  0  0  0
   21.0268    9.6436   20.0370 C   0  0  0  0  0  0  0  0  0  0  0  0
   20.4178   10.8811   19.8338 C   0  0  0  0  0  0  0  0  0  0  0  0
   22.0244   10.7021   24.6365 C   0  0  0  0  0  0  0  0  0  0  0  0
   20.3153   11.7619   20.9355 C   0  0  0  0  0  0  0  0  0  0  0  0
   22.5306   12.5598   26.4742 N   0  0  0  0  0  0  0  0  0  0  0  0
   22.9472   11.2856   26.7053 C   0  0  0  0  0  0  0  0  0  0  0  0
   18.8295   13.5993   19.7320 C   0  0  0  0  0  0  0  0  0  0  0  0
   19.7489   13.2000   20.8821 C   0  0  1  0  0  0  0  0  0  0  0  0
   19.7811   13.2173   23.3410 C   0  0  0  0  0  0  0  0  0  0  0  0
   23.6818   11.0833   27.6629 O   0  0  0  0  0  0  0  0  0  0  0  0
   22.6789   10.3553   25.7548 N   0  0  0  0  0  0  0  0  0  0  0  0
   21.7569   12.9515   25.4119 C   0  0  0  0  0  0  0  0  0  0  0  0
   21.5026   14.1783   25.3077 O   0  0  0  0  0  0  0  0  0  0  0  0
   21.5193   11.9818   24.4409 C   0  0  0  0  0  0  0  0  0  0  0  0
   20.7466   12.2414   23.2856 N   0  0  0  0  0  0  0  0  0  0  0  0
   18.9105   13.3570   22.1486 C   0  0  0  0  0  0  0  0  0  0  0  0
   20.9071   14.1813   20.9245 C   0  0  0  0  0  0  0  0  0  0  0  0
   20.8303   11.3606   22.1885 C   0  0  0  0  0  0  0  0  0  0  0  0
   19.9490   11.2112   18.4340 C   0  0  0  0  0  0  0  0  0  0  0  0
   21.0627    8.6185   18.9289 C   0  0  0  0  0  0  0  0  0  0  0  0
   21.4474   10.1652   22.3749 C   0  0  0  0  0  0  0  0  0  0  0  0
   21.9224    9.7714   23.6553 N   0  0  0  0  0  0  0  0  0  0  0  0
   22.2765    8.3750   23.9742 C   0  0  0  0  0  0  0  0  0  0  0  0
   21.2045    7.5369   24.5972 C   0  0  2  0  0  0  0  0  0  0  0  0
   20.2252    8.3480   25.2273 O   0  0  0  0  0  0  0  0  0  0  0  0
   21.7917    6.5890   25.6196 C   0  0  2  0  0  0  0  0  0  0  0  0
   23.1826    6.9824   25.7958 O   0  0  0  0  0  0  0  0  0  0  0  0
   21.7388    5.1309   25.1925 C   0  0  2  0  0  0  0  0  0  0  0  0
   21.1516    5.0835   23.8775 O   0  0  0  0  0  0  0  0  0  0  0  0
   20.9662    4.2419   26.1219 C   0  0  0  0  0  0  0  0  0  0  0  0
   20.8389    4.9117   27.4229 O   0  0  0  0  0  0  0  0  0  0  0  0
   21.2996    4.1556   28.7632 P   0  0  1  0  0  0  0  0  0  0  0  0
   22.8144    4.3406   28.7366 O   0  0  0  0  0  0  0  0  0  0  0  0
   20.6089    4.7904   29.9077 O   0  0  0  0  0  0  0  0  0  0  0  0
   20.9257    2.6986   28.5708 O   0  0  0  0  0  0  0  0  0  0  0  0
   22.0359    8.3258   21.4137 H   0  0  0  0  0  0  0  0  0  0  0  0
   22.8177   13.2845   27.1475 H   0  0  0  0  0  0  0  0  0  0  0  0
   17.8914   14.0068   20.1370 H   0  0  0  0  0  0  0  0  0  0  0  0
   19.3248   14.3634   19.1149 H   0  0  0  0  0  0  0  0  0  0  0  0
   18.6092   12.7158   19.1149 H   0  0  0  0  0  0  0  0  0  0  0  0
   19.6601   13.8618   24.2242 H   0  0  0  0  0  0  0  0  0  0  0  0
   22.9787    9.3796   25.8924 H   0  0  0  0  0  0  0  0  0  0  0  0
   18.4382   14.3505   22.1543 H   0  0  0  0  0  0  0  0  0  0  0  0
   18.1324   12.5798   22.1708 H   0  0  0  0  0  0  0  0  0  0  0  0
   21.1647   14.3996   21.9714 H   0  0  0  0  0  0  0  0  0  0  0  0
   21.7784   13.7424   20.4163 H   0  0  0  0  0  0  0  0  0  0  0  0
   20.6172   15.1129   20.4163 H   0  0  0  0  0  0  0  0  0  0  0  0
   19.0507   11.8438   18.4878 H   0  0  0  0  0  0  0  0  0  0  0  0
   20.7449   11.7493   17.8981 H   0  0  0  0  0  0  0  0  0  0  0  0
   19.7106   10.2806   17.8981 H   0  0  0  0  0  0  0  0  0  0  0  0
   21.0981    7.6090   19.3643 H   0  0  0  0  0  0  0  0  0  0  0  0
   20.1605    8.7185   18.3076 H   0  0  0  0  0  0  0  0  0  0  0  0
   21.9557    8.7814   18.3076 H   0  0  0  0  0  0  0  0  0  0  0  0
   22.5803    7.8855   23.0371 H   0  0  0  0  0  0  0  0  0  0  0  0
   23.0691    8.4433   24.7338 H   0  0  0  0  0  0  0  0  0  0  0  0
   20.7298    6.9584   23.7911 H   0  0  0  0  0  0  0  0  0  0  0  0
   20.3167    8.2723   26.2102 H   0  0  0  0  0  0  0  0  0  0  0  0
   21.2019    6.6580   26.5456 H   0  0  0  0  0  0  0  0  0  0  0  0
   23.3891    7.0408   26.7623 H   0  0  0  0  0  0  0  0  0  0  0  0
   22.7683    4.7439   25.2066 H   0  0  0  0  0  0  0  0  0  0  0  0
   20.1680    5.0042   23.9580 H   0  0  0  0  0  0  0  0  0  0  0  0
   19.9663    4.0514   25.7050 H   0  0  0  0  0  0  0  0  0  0  0  0
   21.4925    3.2839   26.2453 H   0  0  0  0  0  0  0  0  0  0  0  0
  1  2  2  0
  1 22  1  0
  2  3  1  0
  2 21  1  0
  3  5  2  0
  3 20  1  0
  4 12  1  0
  4 15  2  0
  4 23  1  0
  5  9  1  0
  5 19  1  0
  6  7  1  0
  6 13  1  0
  7 11  2  0
  7 12  1  0
  9  8  1  6
  9 17  1  0
  9 18  1  0
 10 16  2  0
 10 17  1  0
 13 14  2  0
 13 15  1  0
 15 16  1  0
 16 19  1  0
 19 22  2  0
 22 23  1  0
 23 24  1  0
 24 25  1  0
 25 26  1  0
 25 27  1  0
 27 28  1  0
 27 29  1  0
 29 30  1  0
 29 31  1  0
 31 32  1  0
 32 33  1  0
 33 34  2  0
 33 35  1  1
 33 36  1  0
  1 37  1  0
  6 38  1  0
  8 39  1  0
  8 40  1  0
  8 41  1  0
 10 42  1  0
 12 43  1  0
 17 44  1  0
 17 45  1  0
 18 46  1  0
 18 47  1  0
 18 48  1  0
 20 49  1  0
 20 50  1  0
 20 51  1  0
 21 52  1  0
 21 53  1  0
 21 54  1  0
 24 55  1  0
 24 56  1  0
 25 57  1  6
 26 58  1  0
 27 59  1  1
 28 60  1  0
 29 61  1  6
 30 62  1  0
 31 63  1  0
 31 64  1  0
M  CHG  3  16   1  35  -1  36  -1
M  END
>  <filename_input>  (7) 
7NF3_4LU_docked.sdf

>  <pdb_id>  (7) 
7NF3_4LU

>  <pose_rank>  (7) 
6

>  <num_atoms_heavy>  (7) 
36

>  <num_torsions>  (7) 
7

>  <pose>  (7) 
[21.542577658564586, 9.300565658669774, 21.285212678791556, -3.6833831339913945, -3.9114638668193114, -2.8696904720206593, -3.4309921434813093, 0.6043383733163673, 1.3107594336821826, -2.9738612654278436, 2.7025472450425325, -0.16213078242438744, -1.963105899896262]

>  <energy>  (7) 
-734.8140641187073

>  <inter_energy>  (7) 
-749.8623162191064

>  <intra_energy>  (7) 
16.196828290090103

>  <rmsd>  (7) 
2.89096

>  <sdf_rank>  (7) 
0

$$$$

     RDKit          3D

 64 67  0  0  0  0  0  0  0  0999 V2000
   20.8260    9.8561   24.7248 C   0  0  0  0  0  0  0  0  0  0  0  0
   20.3024   10.8038   25.6020 C   0  0  0  0  0  0  0  0  0  0  0  0
   19.8051   12.0163   25.1262 C   0  0  0  0  0  0  0  0  0  0  0  0
   21.3435    9.2895   21.1416 C   0  0  0  0  0  0  0  0  0  0  0  0
   19.8736   12.2647   23.7358 C   0  0  0  0  0  0  0  0  0  0  0  0
   20.8072    9.3812   18.5362 N   0  0  0  0  0  0  0  0  0  0  0  0
   21.4578    8.2926   19.0286 C   0  0  0  0  0  0  0  0  0  0  0  0
   19.0369   14.7795   23.8239 C   0  0  0  0  0  0  0  0  0  0  0  0
   19.3014   13.5104   23.0197 C   0  0  1  0  0  0  0  0  0  0  0  0
   20.5009   12.7974   20.9947 C   0  0  0  0  0  0  0  0  0  0  0  0
   21.6163    7.3313   18.2881 O   0  0  0  0  0  0  0  0  0  0  0  0
   21.7203    8.2670   20.3595 N   0  0  0  0  0  0  0  0  0  0  0  0
   20.5029   10.5063   19.2587 C   0  0  0  0  0  0  0  0  0  0  0  0
   19.8465   11.4049   18.6736 O   0  0  0  0  0  0  0  0  0  0  0  0
   20.7607   10.4407   20.6258 C   0  0  0  0  0  0  0  0  0  0  0  0
   20.4911   11.5195   21.4991 N   0  0  0  0  0  0  0  0  0  0  0  0
   20.3461   13.8986   21.9759 C   0  0  0  0  0  0  0  0  0  0  0  0
   18.0136   13.1189   22.3164 C   0  0  0  0  0  0  0  0  0  0  0  0
   20.4361   11.2845   22.8878 C   0  0  0  0  0  0  0  0  0  0  0  0
   19.1851   12.9629   26.1302 C   0  0  0  0  0  0  0  0  0  0  0  0
   20.3601   10.5311   27.0859 C   0  0  0  0  0  0  0  0  0  0  0  0
   20.8942   10.0934   23.3525 C   0  0  0  0  0  0  0  0  0  0  0  0
   21.4899    9.1410   22.4818 N   0  0  0  0  0  0  0  0  0  0  0  0
   22.2980    8.0105   22.9776 C   0  0  0  0  0  0  0  0  0  0  0  0
   23.4719    8.3527   23.8402 C   0  0  2  0  0  0  0  0  0  0  0  0
   24.6926    8.0461   23.1845 O   0  0  0  0  0  0  0  0  0  0  0  0
   23.4127    7.5979   25.1499 C   0  0  2  0  0  0  0  0  0  0  0  0
   24.7451    7.0544   25.3733 O   0  0  0  0  0  0  0  0  0  0  0  0
   22.4063    6.4585   25.1460 C   0  0  2  0  0  0  0  0  0  0  0  0
   21.0895    7.0410   25.0932 O   0  0  0  0  0  0  0  0  0  0  0  0
   22.5050    5.5421   26.3299 C   0  0  0  0  0  0  0  0  0  0  0  0
   21.1493    5.1904   26.7722 O   0  0  0  0  0  0  0  0  0  0  0  0
   20.5588    3.7286   26.4642 P   0  0  1  0  0  0  0  0  0  0  0  0
   21.1401    2.8963   27.6038 O   0  0  0  0  0  0  0  0  0  0  0  0
   19.0822    3.8255   26.4465 O   0  0  0  0  0  0  0  0  0  0  0  0
   21.1480    3.3122   25.1304 O   0  0  0  0  0  0  0  0  0  0  0  0
   21.1937    8.8993   25.1239 H   0  0  0  0  0  0  0  0  0  0  0  0
   20.5218    9.3586   17.5468 H   0  0  0  0  0  0  0  0  0  0  0  0
   19.0848   14.5494   24.8985 H   0  0  0  0  0  0  0  0  0  0  0  0
   19.7968   15.5354   23.5765 H   0  0  0  0  0  0  0  0  0  0  0  0
   18.0383   15.1689   23.5765 H   0  0  0  0  0  0  0  0  0  0  0  0
   20.6176   12.9937   19.9187 H   0  0  0  0  0  0  0  0  0  0  0  0
   22.2104    7.4598   20.7706 H   0  0  0  0  0  0  0  0  0  0  0  0
   20.0212   14.8110   21.4543 H   0  0  0  0  0  0  0  0  0  0  0  0
   21.3095   14.0829   22.4738 H   0  0  0  0  0  0  0  0  0  0  0  0
   17.2431   12.8847   23.0657 H   0  0  0  0  0  0  0  0  0  0  0  0
   17.6712   13.9536   21.6870 H   0  0  0  0  0  0  0  0  0  0  0  0
   18.1936   12.2349   21.6870 H   0  0  0  0  0  0  0  0  0  0  0  0
   19.4120   12.6165   27.1493 H   0  0  0  0  0  0  0  0  0  0  0  0
   19.5977   13.9723   25.9857 H   0  0  0  0  0  0  0  0  0  0  0  0
   18.0950   12.9881   25.9857 H   0  0  0  0  0  0  0  0  0  0  0  0
   20.1630   11.4621   27.6377 H   0  0  0  0  0  0  0  0  0  0  0  0
   19.6010    9.7803   27.3505 H   0  0  0  0  0  0  0  0  0  0  0  0
   21.3584   10.1524   27.3505 H   0  0  0  0  0  0  0  0  0  0  0  0
   21.6338    7.3567   23.5620 H   0  0  0  0  0  0  0  0  0  0  0  0
   22.7256    7.5435   22.0781 H   0  0  0  0  0  0  0  0  0  0  0  0
   23.4301    9.4339   24.0381 H   0  0  0  0  0  0  0  0  0  0  0  0
   25.3947    7.8698   23.8599 H   0  0  0  0  0  0  0  0  0  0  0  0
   23.0891    8.2891   25.9421 H   0  0  0  0  0  0  0  0  0  0  0  0
   24.9144    6.9853   26.3463 H   0  0  0  0  0  0  0  0  0  0  0  0
   22.6221    5.8287   24.2704 H   0  0  0  0  0  0  0  0  0  0  0  0
   20.7566    7.1883   26.0138 H   0  0  0  0  0  0  0  0  0  0  0  0
   23.0495    4.6294   26.0462 H   0  0  0  0  0  0  0  0  0  0  0  0
   23.0455    6.0438   27.1461 H   0  0  0  0  0  0  0  0  0  0  0  0
  1  2  2  0
  1 22  1  0
  2  3  1  0
  2 21  1  0
  3  5  2  0
  3 20  1  0
  4 12  1  0
  4 15  2  0
  4 23  1  0
  5  9  1  0
  5 19  1  0
  6  7  1  0
  6 13  1  0
  7 11  2  0
  7 12  1  0
  9  8  1  1
  9 17  1  0
  9 18  1  0
 10 16  2  0
 10 17  1  0
 13 14  2  0
 13 15  1  0
 15 16  1  0
 16 19  1  0
 19 22  2  0
 22 23  1  0
 23 24  1  0
 24 25  1  0
 25 26  1  0
 25 27  1  0
 27 28  1  0
 27 29  1  0
 29 30  1  0
 29 31  1  0
 31 32  1  0
 32 33  1  0
 33 34  2  0
 33 35  1  6
 33 36  1  0
  1 37  1  0
  6 38  1  0
  8 39  1  0
  8 40  1  0
  8 41  1  0
 10 42  1  0
 12 43  1  0
 17 44  1  0
 17 45  1  0
 18 46  1  0
 18 47  1  0
 18 48  1  0
 20 49  1  0
 20 50  1  0
 20 51  1  0
 21 52  1  0
 21 53  1  0
 21 54  1  0
 24 55  1  0
 24 56  1  0
 25 57  1  1
 26 58  1  0
 27 59  1  1
 28 60  1  0
 29 61  1  6
 30 62  1  0
 31 63  1  0
 31 64  1  0
M  CHG  3  16   1  35  -1  36  -1
M  END
>  <filename_input>  (8) 
7NF3_4LU_docked.sdf

>  <pdb_id>  (8) 
7NF3_4LU

>  <pose_rank>  (8) 
7

>  <num_atoms_heavy>  (8) 
36

>  <num_torsions>  (8) 
7

>  <pose>  (8) 
[20.825957961606196, 9.856092239181176, 24.724768474324414, 1.195866650239198, -3.0477105078004074, 1.0926017322899118, -2.7765668220897677, -0.9697525139127402, -2.7973882555987624, 2.0864814523762663, -0.8166856680417023, -2.3977948665035536, -1.903246397566796]

>  <energy>  (8) 
-641.8684161283486

>  <inter_energy>  (8) 
-703.0838936628892

>  <intra_energy>  (8) 
63.864459172580894

>  <rmsd>  (8) 
5.32199

>  <sdf_rank>  (8) 
0

$$$$

     RDKit          3D

 64 67  0  0  0  0  0  0  0  0999 V2000
   21.8459    9.1926   22.0986 C   0  0  0  0  0  0  0  0  0  0  0  0
   21.5757    9.1041   20.7345 C   0  0  0  0  0  0  0  0  0  0  0  0
   20.8915   10.1252   20.0765 C   0  0  0  0  0  0  0  0  0  0  0  0
   21.4383   11.4866   24.9269 C   0  0  0  0  0  0  0  0  0  0  0  0
   20.4580   11.2350   20.8382 C   0  0  0  0  0  0  0  0  0  0  0  0
   21.3291   13.8198   26.2030 N   0  0  0  0  0  0  0  0  0  0  0  0
   21.8247   12.7392   26.8643 C   0  0  0  0  0  0  0  0  0  0  0  0
   19.0716   12.4168   18.9112 C   0  0  0  0  0  0  0  0  0  0  0  0
   19.7608   12.4931   20.2701 C   0  0  1  0  0  0  0  0  0  0  0  0
   19.2617   13.1621   22.5834 C   0  0  0  0  0  0  0  0  0  0  0  0
   22.3541   12.9214   27.9525 O   0  0  0  0  0  0  0  0  0  0  0  0
   21.8714   11.5603   26.1942 N   0  0  0  0  0  0  0  0  0  0  0  0
   20.7633   13.7836   24.9544 C   0  0  0  0  0  0  0  0  0  0  0  0
   20.4033   14.8796   24.4547 O   0  0  0  0  0  0  0  0  0  0  0  0
   20.8487   12.5670   24.2819 C   0  0  0  0  0  0  0  0  0  0  0  0
   20.3184   12.3810   22.9845 N   0  0  0  0  0  0  0  0  0  0  0  0
   18.6577   12.8360   21.2687 C   0  0  0  0  0  0  0  0  0  0  0  0
   20.7670   13.6298   20.2270 C   0  0  0  0  0  0  0  0  0  0  0  0
   20.7328   11.2692   22.2237 C   0  0  0  0  0  0  0  0  0  0  0  0
   20.7010    9.9924   18.5817 C   0  0  0  0  0  0  0  0  0  0  0  0
   21.9620    7.8444   19.9971 C   0  0  0  0  0  0  0  0  0  0  0  0
   21.4238   10.2851   22.8552 C   0  0  0  0  0  0  0  0  0  0  0  0
   21.6531   10.3269   24.2572 N   0  0  0  0  0  0  0  0  0  0  0  0
   22.0826    9.1429   25.0257 C   0  0  0  0  0  0  0  0  0  0  0  0
   21.3993    7.8509   24.7043 C   0  0  2  0  0  0  0  0  0  0  0  0
   20.1635    7.7428   25.3936 O   0  0  0  0  0  0  0  0  0  0  0  0
   22.2753    6.6746   25.0753 C   0  0  2  0  0  0  0  0  0  0  0  0
   21.8960    6.2881   26.4271 O   0  0  0  0  0  0  0  0  0  0  0  0
   23.7611    6.9955   25.0495 C   0  0  2  0  0  0  0  0  0  0  0  0
   24.3720    6.1491   24.0562 O   0  0  0  0  0  0  0  0  0  0  0  0
   24.4566    6.8108   26.3660 C   0  0  0  0  0  0  0  0  0  0  0  0
   25.8921    7.0631   26.1838 O   0  0  0  0  0  0  0  0  0  0  0  0
   26.9537    6.4388   27.2152 P   0  0  1  0  0  0  0  0  0  0  0  0
   27.2408    5.0724   26.5992 O   0  0  0  0  0  0  0  0  0  0  0  0
   28.1153    7.3530   27.2861 O   0  0  0  0  0  0  0  0  0  0  0  0
   26.2208    6.2977   28.5353 O   0  0  0  0  0  0  0  0  0  0  0  0
   22.4048    8.3823   22.5897 H   0  0  0  0  0  0  0  0  0  0  0  0
   21.3829   14.7335   26.6755 H   0  0  0  0  0  0  0  0  0  0  0  0
   17.9878   12.2968   19.0559 H   0  0  0  0  0  0  0  0  0  0  0  0
   19.2661   13.3420   18.3489 H   0  0  0  0  0  0  0  0  0  0  0  0
   19.4639   11.5566   18.3489 H   0  0  0  0  0  0  0  0  0  0  0  0
   18.8832   13.9868   23.2052 H   0  0  0  0  0  0  0  0  0  0  0  0
   22.2407   10.7193   26.6602 H   0  0  0  0  0  0  0  0  0  0  0  0
   18.0883   13.7029   20.9022 H   0  0  0  0  0  0  0  0  0  0  0  0
   17.9839   11.9736   21.3797 H   0  0  0  0  0  0  0  0  0  0  0  0
   21.0294   13.9262   21.2533 H   0  0  0  0  0  0  0  0  0  0  0  0
   21.6727   13.2979   19.6983 H   0  0  0  0  0  0  0  0  0  0  0  0
   20.3277   14.4885   19.6983 H   0  0  0  0  0  0  0  0  0  0  0  0
   19.8139    9.3744   18.3786 H   0  0  0  0  0  0  0  0  0  0  0  0
   20.5617   10.9901   18.1398 H   0  0  0  0  0  0  0  0  0  0  0  0
   21.5886    9.5162   18.1398 H   0  0  0  0  0  0  0  0  0  0  0  0
   22.2044    7.0543   20.7230 H   0  0  0  0  0  0  0  0  0  0  0  0
   21.1229    7.5173   19.3655 H   0  0  0  0  0  0  0  0  0  0  0  0
   22.8403    8.0440   19.3655 H   0  0  0  0  0  0  0  0  0  0  0  0
   23.1595    9.0036   24.8497 H   0  0  0  0  0  0  0  0  0  0  0  0
   21.8130    9.3615   26.0695 H   0  0  0  0  0  0  0  0  0  0  0  0
   21.2105    7.8398   23.6207 H   0  0  0  0  0  0  0  0  0  0  0  0
   20.3278    7.7572   26.3697 H   0  0  0  0  0  0  0  0  0  0  0  0
   22.1226    5.8733   24.3374 H   0  0  0  0  0  0  0  0  0  0  0  0
   22.4169    6.8189   27.0805 H   0  0  0  0  0  0  0  0  0  0  0  0
   23.8652    8.0644   24.8116 H   0  0  0  0  0  0  0  0  0  0  0  0
   24.8885    5.4336   24.5049 H   0  0  0  0  0  0  0  0  0  0  0  0
   24.0477    7.5183   27.1023 H   0  0  0  0  0  0  0  0  0  0  0  0
   24.3013    5.7843   26.7293 H   0  0  0  0  0  0  0  0  0  0  0  0
  1  2  2  0
  1 22  1  0
  2  3  1  0
  2 21  1  0
  3  5  2  0
  3 20  1  0
  4 12  1  0
  4 15  2  0
  4 23  1  0
  5  9  1  0
  5 19  1  0
  6  7  1  0
  6 13  1  0
  7 11  2  0
  7 12  1  0
  9  8  1  6
  9 17  1  0
  9 18  1  0
 10 16  2  0
 10 17  1  0
 13 14  2  0
 13 15  1  0
 15 16  1  0
 16 19  1  0
 19 22  2  0
 22 23  1  0
 23 24  1  0
 24 25  1  0
 25 26  1  0
 25 27  1  0
 27 28  1  0
 27 29  1  0
 29 30  1  0
 29 31  1  0
 31 32  1  0
 32 33  1  0
 33 34  2  0
 33 35  1  1
 33 36  1  0
  1 37  1  0
  6 38  1  0
  8 39  1  0
  8 40  1  0
  8 41  1  0
 10 42  1  0
 12 43  1  0
 17 44  1  0
 17 45  1  0
 18 46  1  0
 18 47  1  0
 18 48  1  0
 20 49  1  0
 20 50  1  0
 20 51  1  0
 21 52  1  0
 21 53  1  0
 21 54  1  0
 24 55  1  0
 24 56  1  0
 25 57  1  6
 26 58  1  0
 27 59  1  6
 28 60  1  0
 29 61  1  6
 30 62  1  0
 31 63  1  0
 31 64  1  0
M  CHG  3  16   1  35  -1  36  -1
M  END
>  <filename_input>  (9) 
7NF3_4LU_docked.sdf

>  <pdb_id>  (9) 
7NF3_4LU

>  <pose_rank>  (9) 
8

>  <num_atoms_heavy>  (9) 
36

>  <num_torsions>  (9) 
7

>  <pose>  (9) 
[21.845916908608686, 9.192566037165639, 22.09864560441682, 3.745264016382622, 1.1295485539597196, -4.5324195455042835, 3.739245978298588, -0.45507784660699685, -3.507459769911648, 1.222824373123381, -0.17809047699879027, -0.7006815570755712, -1.8128292510918498]

>  <energy>  (9) 
-836.884392464663

>  <inter_energy>  (9) 
-856.4267052426511

>  <intra_energy>  (9) 
22.28803129898721

>  <rmsd>  (9) 
1.29335

>  <sdf_rank>  (9) 
0

$$$$

     RDKit          3D

 64 67  0  0  0  0  0  0  0  0999 V2000
   22.2350   11.5157   25.3658 C   0  0  0  0  0  0  0  0  0  0  0  0
   22.8715   10.9068   26.4456 C   0  0  0  0  0  0  0  0  0  0  0  0
   23.2344    9.5618   26.3919 C   0  0  0  0  0  0  0  0  0  0  0  0
   21.1144   10.7841   21.9545 C   0  0  0  0  0  0  0  0  0  0  0  0
   22.9133    8.8312   25.2245 C   0  0  0  0  0  0  0  0  0  0  0  0
   21.1796    9.6960   19.5264 N   0  0  0  0  0  0  0  0  0  0  0  0
   20.6644   10.9474   19.6649 C   0  0  0  0  0  0  0  0  0  0  0  0
   23.6639    6.4527   26.1253 C   0  0  0  0  0  0  0  0  0  0  0  0
   23.3064    7.3604   24.9524 C   0  0  1  0  0  0  0  0  0  0  0  0
   21.7945    7.3997   23.0132 C   0  0  0  0  0  0  0  0  0  0  0  0
   20.4117   11.5830   18.6502 O   0  0  0  0  0  0  0  0  0  0  0  0
   20.6417   11.4825   20.9115 N   0  0  0  0  0  0  0  0  0  0  0  0
   21.5669    8.8880   20.5644 C   0  0  0  0  0  0  0  0  0  0  0  0
   22.0780    7.7780   20.2688 O   0  0  0  0  0  0  0  0  0  0  0  0
   21.5564    9.4727   21.8284 C   0  0  0  0  0  0  0  0  0  0  0  0
   21.9378    8.7660   22.9921 N   0  0  0  0  0  0  0  0  0  0  0  0
   22.0811    6.7229   24.3012 C   0  0  0  0  0  0  0  0  0  0  0  0
   24.4630    7.3397   23.9684 C   0  0  0  0  0  0  0  0  0  0  0  0
   22.2448    9.4848   24.1650 C   0  0  0  0  0  0  0  0  0  0  0  0
   23.9881    8.9906   27.5727 C   0  0  0  0  0  0  0  0  0  0  0  0
   23.0857   11.7063   27.7084 C   0  0  0  0  0  0  0  0  0  0  0  0
   21.9178   10.8021   24.2107 C   0  0  0  0  0  0  0  0  0  0  0  0
   21.2116   11.4248   23.1460 N   0  0  0  0  0  0  0  0  0  0  0  0
   20.5437   12.7319   23.2955 C   0  0  0  0  0  0  0  0  0  0  0  0
   19.2592   12.9176   22.5505 C   0  0  2  0  0  0  0  0  0  0  0  0
   19.4284   13.8056   21.4565 O   0  0  0  0  0  0  0  0  0  0  0  0
   18.1832   13.4610   23.4646 C   0  0  2  0  0  0  0  0  0  0  0  0
   17.4571   12.3079   23.9779 O   0  0  0  0  0  0  0  0  0  0  0  0
   17.2062   14.3904   22.7626 C   0  0  2  0  0  0  0  0  0  0  0  0
   16.3346   14.9449   23.7670 O   0  0  0  0  0  0  0  0  0  0  0  0
   16.3869   13.7319   21.6920 C   0  0  0  0  0  0  0  0  0  0  0  0
   16.2647   14.6526   20.5541 O   0  0  0  0  0  0  0  0  0  0  0  0
   14.9213   15.5111   20.3573 P   0  0  1  0  0  0  0  0  0  0  0  0
   15.3203   16.4920   19.2582 O   0  0  0  0  0  0  0  0  0  0  0  0
   13.8295   14.5778   20.0008 O   0  0  0  0  0  0  0  0  0  0  0  0
   14.6890   16.2311   21.6715 O   0  0  0  0  0  0  0  0  0  0  0  0
   21.9771   12.5834   25.4261 H   0  0  0  0  0  0  0  0  0  0  0  0
   21.2868    9.3280   18.5704 H   0  0  0  0  0  0  0  0  0  0  0  0
   23.4577    6.9764   27.0704 H   0  0  0  0  0  0  0  0  0  0  0  0
   23.0603    5.5345   26.0756 H   0  0  0  0  0  0  0  0  0  0  0  0
   24.7316    6.1927   26.0756 H   0  0  0  0  0  0  0  0  0  0  0  0
   21.4832    6.8370   22.1208 H   0  0  0  0  0  0  0  0  0  0  0  0
   20.2602   12.4280   21.0574 H   0  0  0  0  0  0  0  0  0  0  0  0
   22.2769    5.6559   24.1187 H   0  0  0  0  0  0  0  0  0  0  0  0
   21.2147    6.8286   24.9706 H   0  0  0  0  0  0  0  0  0  0  0  0
   25.4141    7.3227   24.5208 H   0  0  0  0  0  0  0  0  0  0  0  0
   24.3903    6.4427   23.3359 H   0  0  0  0  0  0  0  0  0  0  0  0
   24.4224    8.2387   23.3359 H   0  0  0  0  0  0  0  0  0  0  0  0
   23.5256    9.3411   28.5072 H   0  0  0  0  0  0  0  0  0  0  0  0
   23.9509    7.8919   27.5347 H   0  0  0  0  0  0  0  0  0  0  0  0
   25.0358    9.3236   27.5347 H   0  0  0  0  0  0  0  0  0  0  0  0
   22.9133   11.0626   28.5836 H   0  0  0  0  0  0  0  0  0  0  0  0
   24.1176   12.0869   27.7308 H   0  0  0  0  0  0  0  0  0  0  0  0
   22.3825   12.5518   27.7308 H   0  0  0  0  0  0  0  0  0  0  0  0
   20.3332   12.8786   24.3651 H   0  0  0  0  0  0  0  0  0  0  0  0
   21.2396   13.4644   22.8604 H   0  0  0  0  0  0  0  0  0  0  0  0
   18.9540   11.9313   22.1710 H   0  0  0  0  0  0  0  0  0  0  0  0
   19.6024   14.7189   21.7966 H   0  0  0  0  0  0  0  0  0  0  0  0
   18.6598   14.0591   24.2553 H   0  0  0  0  0  0  0  0  0  0  0  0
   17.4678   12.3250   24.9677 H   0  0  0  0  0  0  0  0  0  0  0  0
   17.7958   15.1621   22.2460 H   0  0  0  0  0  0  0  0  0  0  0  0
   16.6840   14.7226   24.6663 H   0  0  0  0  0  0  0  0  0  0  0  0
   16.8814   12.8050   21.3659 H   0  0  0  0  0  0  0  0  0  0  0  0
   15.3883   13.4878   22.0834 H   0  0  0  0  0  0  0  0  0  0  0  0
  1  2  2  0
  1 22  1  0
  2  3  1  0
  2 21  1  0
  3  5  2  0
  3 20  1  0
  4 12  1  0
  4 15  2  0
  4 23  1  0
  5  9  1  0
  5 19  1  0
  6  7  1  0
  6 13  1  0
  7 11  2  0
  7 12  1  0
  9  8  1  1
  9 17  1  0
  9 18  1  0
 10 16  2  0
 10 17  1  0
 13 14  2  0
 13 15  1  0
 15 16  1  0
 16 19  1  0
 19 22  2  0
 22 23  1  0
 23 24  1  0
 24 25  1  0
 25 26  1  0
 25 27  1  0
 27 28  1  0
 27 29  1  0
 29 30  1  0
 29 31  1  0
 31 32  1  0
 32 33  1  0
 33 34  2  0
 33 35  1  6
 33 36  1  0
  1 37  1  0
  6 38  1  0
  8 39  1  0
  8 40  1  0
  8 41  1  0
 10 42  1  0
 12 43  1  0
 17 44  1  0
 17 45  1  0
 18 46  1  0
 18 47  1  0
 18 48  1  0
 20 49  1  0
 20 50  1  0
 20 51  1  0
 21 52  1  0
 21 53  1  0
 21 54  1  0
 24 55  1  0
 24 56  1  0
 25 57  1  6
 26 58  1  0
 27 59  1  1
 28 60  1  0
 29 61  1  6
 30 62  1  0
 31 63  1  0
 31 64  1  0
M  CHG  3  16   1  35  -1  36  -1
M  END
>  <filename_input>  (10) 
7NF3_4LU_docked.sdf

>  <pdb_id>  (10) 
7NF3_4LU

>  <pose_rank>  (10) 
9

>  <num_atoms_heavy>  (10) 
36

>  <num_torsions>  (10) 
7

>  <pose>  (10) 
[22.23503675154887, 11.515744917917305, 25.36580639481586, 3.2310387324939995, 0.885257374290065, -0.9856436406753537, 20.81891005851093, -0.894113710482057, -13.046463746594405, 0.25180902341834976, 0.5853475024587244, 0.2917311651898628, -0.392188572009938]

>  <energy>  (10) 
-366.49831603864783

>  <inter_energy>  (10) 
-435.66217059156986

>  <intra_energy>  (10) 
75.94088106985471

>  <rmsd>  (10) 
9.59362

>  <sdf_rank>  (10) 
0

$$$$

     RDKit          3D

 64 67  0  0  0  0  0  0  0  0999 V2000
   20.2950   12.5897   23.1115 C   0  0  0  0  0  0  0  0  0  0  0  0
   19.7826   13.2454   21.9938 C   0  0  0  0  0  0  0  0  0  0  0  0
   19.8134   12.6415   20.7376 C   0  0  0  0  0  0  0  0  0  0  0  0
   21.8017    9.3929   24.0801 C   0  0  0  0  0  0  0  0  0  0  0  0
   20.4032   11.3608   20.6286 C   0  0  0  0  0  0  0  0  0  0  0  0
   22.2057    6.7621   24.0673 N   0  0  0  0  0  0  0  0  0  0  0  0
   22.3410    7.4354   25.2416 C   0  0  0  0  0  0  0  0  0  0  0  0
   20.2866   11.1849   17.9851 C   0  0  0  0  0  0  0  0  0  0  0  0
   20.4549   10.5058   19.3409 C   0  0  1  0  0  0  0  0  0  0  0  0
   22.0226    9.0048   20.4972 C   0  0  0  0  0  0  0  0  0  0  0  0
   22.4742    6.7834   26.2686 O   0  0  0  0  0  0  0  0  0  0  0  0
   22.1300    8.7755   25.2248 N   0  0  0  0  0  0  0  0  0  0  0  0
   21.9902    7.3493   22.8469 C   0  0  0  0  0  0  0  0  0  0  0  0
   21.8299    6.5849   21.8618 O   0  0  0  0  0  0  0  0  0  0  0  0
   21.7523    8.7214   22.8645 C   0  0  0  0  0  0  0  0  0  0  0  0
   21.5058    9.4617   21.6854 N   0  0  0  0  0  0  0  0  0  0  0  0
   21.8501    9.8859   19.3168 C   0  0  0  0  0  0  0  0  0  0  0  0
   19.4187    9.4008   19.4483 C   0  0  0  0  0  0  0  0  0  0  0  0
   20.9325   10.7455   21.7850 C   0  0  0  0  0  0  0  0  0  0  0  0
   19.1714   13.3834   19.5863 C   0  0  0  0  0  0  0  0  0  0  0  0
   19.2696   14.6568   22.1507 C   0  0  0  0  0  0  0  0  0  0  0  0
   20.8755   11.3258   23.0116 C   0  0  0  0  0  0  0  0  0  0  0  0
   21.4499   10.7008   24.1515 N   0  0  0  0  0  0  0  0  0  0  0  0
   21.7154   11.4306   25.4060 C   0  0  0  0  0  0  0  0  0  0  0  0
   20.8206   11.1200   26.5647 C   0  0  2  0  0  0  0  0  0  0  0  0
   19.4942   10.8639   26.1298 O   0  0  0  0  0  0  0  0  0  0  0  0
   20.8033   12.2669   27.5510 C   0  0  2  0  0  0  0  0  0  0  0  0
   21.4291   11.7726   28.7694 O   0  0  0  0  0  0  0  0  0  0  0  0
   19.4036   12.7621   27.8778 C   0  0  2  0  0  0  0  0  0  0  0  0
   19.1384   13.9029   27.0386 O   0  0  0  0  0  0  0  0  0  0  0  0
   19.2002   13.1363   29.3164 C   0  0  0  0  0  0  0  0  0  0  0  0
   18.6068   14.4784   29.3784 O   0  0  0  0  0  0  0  0  0  0  0  0
   17.7298   14.9099   30.6532 P   0  0  1  0  0  0  0  0  0  0  0  0
   18.7423   15.6754   31.5006 O   0  0  0  0  0  0  0  0  0  0  0  0
   16.5821   15.7096   30.1701 O   0  0  0  0  0  0  0  0  0  0  0  0
   17.3166   13.6187   31.3328 O   0  0  0  0  0  0  0  0  0  0  0  0
   20.2405   13.0801   24.0946 H   0  0  0  0  0  0  0  0  0  0  0  0
   22.2698    5.7345   24.0970 H   0  0  0  0  0  0  0  0  0  0  0  0
   20.0246   12.2427   18.1349 H   0  0  0  0  0  0  0  0  0  0  0  0
   21.2288   11.1168   17.4215 H   0  0  0  0  0  0  0  0  0  0  0  0
   19.4852   10.6848   17.4215 H   0  0  0  0  0  0  0  0  0  0  0  0
   22.5376    8.0355   20.4251 H   0  0  0  0  0  0  0  0  0  0  0  0
   22.2220    9.3206   26.0939 H   0  0  0  0  0  0  0  0  0  0  0  0
   21.9723    9.2945   18.3973 H   0  0  0  0  0  0  0  0  0  0  0  0
   22.6058   10.6848   19.3433 H   0  0  0  0  0  0  0  0  0  0  0  0
   19.2187    9.1875   20.5087 H   0  0  0  0  0  0  0  0  0  0  0  0
   18.4883    9.7215   18.9570 H   0  0  0  0  0  0  0  0  0  0  0  0
   19.7986    8.4929   18.9570 H   0  0  0  0  0  0  0  0  0  0  0  0
   18.4992   14.1601   19.9799 H   0  0  0  0  0  0  0  0  0  0  0  0
   19.9531   13.8526   18.9709 H   0  0  0  0  0  0  0  0  0  0  0  0
   18.5948   12.6771   18.9709 H   0  0  0  0  0  0  0  0  0  0  0  0
   19.1819   14.8982   23.2203 H   0  0  0  0  0  0  0  0  0  0  0  0
   19.9708   15.3570   21.6731 H   0  0  0  0  0  0  0  0  0  0  0  0
   18.2825   14.7434   21.6731 H   0  0  0  0  0  0  0  0  0  0  0  0
   22.7475   11.2043   25.7116 H   0  0  0  0  0  0  0  0  0  0  0  0
   21.5283   12.4887   25.1709 H   0  0  0  0  0  0  0  0  0  0  0  0
   21.2195   10.2202   27.0558 H   0  0  0  0  0  0  0  0  0  0  0  0
   18.9050   10.7501   26.9172 H   0  0  0  0  0  0  0  0  0  0  0  0
   21.3346   13.1222   27.1081 H   0  0  0  0  0  0  0  0  0  0  0  0
   20.9581   12.1446   29.5566 H   0  0  0  0  0  0  0  0  0  0  0  0
   18.7063   11.9321   27.6906 H   0  0  0  0  0  0  0  0  0  0  0  0
   18.9546   14.6937   27.6052 H   0  0  0  0  0  0  0  0  0  0  0  0
   18.5252   12.4114   29.7949 H   0  0  0  0  0  0  0  0  0  0  0  0
   20.1656   13.1304   29.8436 H   0  0  0  0  0  0  0  0  0  0  0  0
  1  2  2  0
  1 22  1  0
  2  3  1  0
  2 21  1  0
  3  5  2  0
  3 20  1  0
  4 12  1  0
  4 15  2  0
  4 23  1  0
  5  9  1  0
  5 19  1  0
  6  7  1  0
  6 13  1  0
  7 11  2  0
  7 12  1  0
  9  8  1  6
  9 17  1  0
  9 18  1  0
 10 16  2  0
 10 17  1  0
 13 14  2  0
 13 15  1  0
 15 16  1  0
 16 19  1  0
 19 22  2  0
 22 23  1  0
 23 24  1  0
 24 25  1  0
 25 26  1  0
 25 27  1  0
 27 28  1  0
 27 29  1  0
 29 30  1  0
 29 31  1  0
 31 32  1  0
 32 33  1  0
 33 34  2  0
 33 35  1  6
 33 36  1  0
  1 37  1  0
  6 38  1  0
  8 39  1  0
  8 40  1  0
  8 41  1  0
 10 42  1  0
 12 43  1  0
 17 44  1  0
 17 45  1  0
 18 46  1  0
 18 47  1  0
 18 48  1  0
 20 49  1  0
 20 50  1  0
 20 51  1  0
 21 52  1  0
 21 53  1  0
 21 54  1  0
 24 55  1  0
 24 56  1  0
 25 57  1  1
 26 58  1  0
 27 59  1  6
 28 60  1  0
 29 61  1  6
 30 62  1  0
 31 63  1  0
 31 64  1  0
M  CHG  3  16   1  35  -1  36  -1
M  END
>  <filename_input>  (11) 
7NF3_4LU_docked.sdf

>  <pdb_id>  (11) 
7NF3_4LU

>  <pose_rank>  (11) 
10

>  <num_atoms_heavy>  (11) 
36

>  <num_torsions>  (11) 
7

>  <pose>  (11) 
[20.29504805379565, 12.58966547511888, 23.111453781745176, 0.9707496620660091, -1.0731843717162588, 2.925955409245322, 12.653254240677386, 0.3747245284931675, 5.449121233040303, -4.6860906130121265, 5.285859338147301, -1.5408014738916116, -1.6547242128710336]

>  <energy>  (11) 
-636.079269648691

>  <inter_energy>  (11) 
-651.1261966664762

>  <intra_energy>  (11) 
17.733785173208464

>  <rmsd>  (11) 
7.09178

>  <sdf_rank>  (11) 
0

$$$$

     RDKit          3D

 64 67  0  0  0  0  0  0  0  0999 V2000
   21.6722    9.2684   21.7558 C   0  0  0  0  0  0  0  0  0  0  0  0
   21.4784    9.5205   20.3991 C   0  0  0  0  0  0  0  0  0  0  0  0
   20.9654   10.7431   19.9682 C   0  0  0  0  0  0  0  0  0  0  0  0
   21.3712   10.9132   25.0165 C   0  0  0  0  0  0  0  0  0  0  0  0
   20.6234   11.7042   20.9475 C   0  0  0  0  0  0  0  0  0  0  0  0
   21.4671   12.8997   26.7854 N   0  0  0  0  0  0  0  0  0  0  0  0
   21.7858   11.6437   27.1997 C   0  0  0  0  0  0  0  0  0  0  0  0
   19.5130   13.4558   19.2948 C   0  0  0  0  0  0  0  0  0  0  0  0
   20.1207   13.1378   20.6575 C   0  0  1  0  0  0  0  0  0  0  0  0
   19.5639   13.3384   23.0445 C   0  0  0  0  0  0  0  0  0  0  0  0
   22.2648   11.5090   28.3176 O   0  0  0  0  0  0  0  0  0  0  0  0
   21.7306   10.6468   26.2810 N   0  0  0  0  0  0  0  0  0  0  0  0
   20.9797   13.2157   25.5432 C   0  0  0  0  0  0  0  0  0  0  0  0
   20.7872   14.4329   25.2941 O   0  0  0  0  0  0  0  0  0  0  0  0
   20.9584   12.1778   24.6148 C   0  0  0  0  0  0  0  0  0  0  0  0
   20.4910   12.3552   23.2923 N   0  0  0  0  0  0  0  0  0  0  0  0
   19.0075   13.3941   21.6709 C   0  0  0  0  0  0  0  0  0  0  0  0
   21.2582   14.1124   20.9074 C   0  0  0  0  0  0  0  0  0  0  0  0
   20.8138   11.3944   22.3128 C   0  0  0  0  0  0  0  0  0  0  0  0
   20.8533   10.9707   18.4769 C   0  0  0  0  0  0  0  0  0  0  0  0
   21.7540    8.4154   19.4078 C   0  0  0  0  0  0  0  0  0  0  0  0
   21.3396   10.2125   22.7265 C   0  0  0  0  0  0  0  0  0  0  0  0
   21.4849    9.9124   24.1081 N   0  0  0  0  0  0  0  0  0  0  0  0
   21.7189    8.5416   24.6011 C   0  0  0  0  0  0  0  0  0  0  0  0
   20.7269    7.5011   24.1854 C   0  0  2  0  0  0  0  0  0  0  0  0
   19.4544    7.7510   24.7618 O   0  0  0  0  0  0  0  0  0  0  0  0
   21.1925    6.1219   24.5975 C   0  0  2  0  0  0  0  0  0  0  0  0
   20.5853    5.8516   25.8931 O   0  0  0  0  0  0  0  0  0  0  0  0
   22.7031    6.0065   24.7237 C   0  0  2  0  0  0  0  0  0  0  0  0
   23.0437    4.6107   24.6141 O   0  0  0  0  0  0  0  0  0  0  0  0
   23.2613    6.5629   26.0003 C   0  0  0  0  0  0  0  0  0  0  0  0
   24.7062    6.7696   25.8363 O   0  0  0  0  0  0  0  0  0  0  0  0
   25.7284    6.1988   26.9361 P   0  0  1  0  0  0  0  0  0  0  0  0
   26.9103    5.7513   26.0805 O   0  0  0  0  0  0  0  0  0  0  0  0
   26.0231    7.2864   27.8955 O   0  0  0  0  0  0  0  0  0  0  0  0
   25.0360    5.0094   27.5729 O   0  0  0  0  0  0  0  0  0  0  0  0
   22.0969    8.3030   22.0680 H   0  0  0  0  0  0  0  0  0  0  0  0
   21.6020   13.6708   27.4547 H   0  0  0  0  0  0  0  0  0  0  0  0
   18.5462   13.9618   19.4335 H   0  0  0  0  0  0  0  0  0  0  0  0
   20.1938   14.1132   18.7342 H   0  0  0  0  0  0  0  0  0  0  0  0
   19.3609   12.5217   18.7342 H   0  0  0  0  0  0  0  0  0  0  0  0
   19.2505   14.0477   23.8247 H   0  0  0  0  0  0  0  0  0  0  0  0
   21.9654    9.6822   26.5555 H   0  0  0  0  0  0  0  0  0  0  0  0
   18.5714   14.3880   21.4924 H   0  0  0  0  0  0  0  0  0  0  0  0
   18.2284   12.6254   21.5605 H   0  0  0  0  0  0  0  0  0  0  0  0
   21.4033   14.2367   21.9907 H   0  0  0  0  0  0  0  0  0  0  0  0
   22.1820   13.7213   20.4563 H   0  0  0  0  0  0  0  0  0  0  0  0
   21.0132   15.0853   20.4563 H   0  0  0  0  0  0  0  0  0  0  0  0
   20.3744   11.9430   18.2894 H   0  0  0  0  0  0  0  0  0  0  0  0
   21.8577   10.9641   18.0285 H   0  0  0  0  0  0  0  0  0  0  0  0
   20.2463   10.1704   18.0285 H   0  0  0  0  0  0  0  0  0  0  0  0
   21.9857    7.4864   19.9493 H   0  0  0  0  0  0  0  0  0  0  0  0
   20.8671    8.2601   18.7759 H   0  0  0  0  0  0  0  0  0  0  0  0
   22.6100    8.6947   18.7759 H   0  0  0  0  0  0  0  0  0  0  0  0
   22.7081    8.2221   24.2414 H   0  0  0  0  0  0  0  0  0  0  0  0
   21.6282    8.6077   25.6953 H   0  0  0  0  0  0  0  0  0  0  0  0
   20.6422    7.5471   23.0897 H   0  0  0  0  0  0  0  0  0  0  0  0
   19.5305    7.7361   25.7488 H   0  0  0  0  0  0  0  0  0  0  0  0
   20.8945    5.4015   23.8214 H   0  0  0  0  0  0  0  0  0  0  0  0
   21.2064    6.1281   26.6127 H   0  0  0  0  0  0  0  0  0  0  0  0
   23.1499    6.6118   23.9213 H   0  0  0  0  0  0  0  0  0  0  0  0
   23.1385    4.2221   25.5197 H   0  0  0  0  0  0  0  0  0  0  0  0
   22.7744    7.5224   26.2292 H   0  0  0  0  0  0  0  0  0  0  0  0
   23.0762    5.8602   26.8261 H   0  0  0  0  0  0  0  0  0  0  0  0
  1  2  2  0
  1 22  1  0
  2  3  1  0
  2 21  1  0
  3  5  2  0
  3 20  1  0
  4 12  1  0
  4 15  2  0
  4 23  1  0
  5  9  1  0
  5 19  1  0
  6  7  1  0
  6 13  1  0
  7 11  2  0
  7 12  1  0
  9  8  1  6
  9 17  1  0
  9 18  1  0
 10 16  2  0
 10 17  1  0
 13 14  2  0
 13 15  1  0
 15 16  1  0
 16 19  1  0
 19 22  2  0
 22 23  1  0
 23 24  1  0
 24 25  1  0
 25 26  1  0
 25 27  1  0
 27 28  1  0
 27 29  1  0
 29 30  1  0
 29 31  1  0
 31 32  1  0
 32 33  1  0
 33 34  2  0
 33 35  1  1
 33 36  1  0
  1 37  1  0
  6 38  1  0
  8 39  1  0
  8 40  1  0
  8 41  1  0
 10 42  1  0
 12 43  1  0
 17 44  1  0
 17 45  1  0
 18 46  1  0
 18 47  1  0
 18 48  1  0
 20 49  1  0
 20 50  1  0
 20 51  1  0
 21 52  1  0
 21 53  1  0
 21 54  1  0
 24 55  1  0
 24 56  1  0
 25 57  1  6
 26 58  1  0
 27 59  1  6
 28 60  1  0
 29 61  1  6
 30 62  1  0
 31 63  1  0
 31 64  1  0
M  CHG  3  16   1  35  -1  36  -1
M  END
>  <filename_input>  (12) 
7NF3_4LU_docked.sdf

>  <pdb_id>  (12) 
7NF3_4LU

>  <pose_rank>  (12) 
11

>  <num_atoms_heavy>  (12) 
36

>  <num_torsions>  (12) 
7

>  <pose>  (12) 
[21.672152182244456, 9.268406855494028, 21.75581656079071, 1.3999807890295264, -5.083789303810541, 3.680021801246463, 3.5281423442707895, -0.16756047989268452, -3.4967487028968973, 0.5153077647387341, 0.1860728027232222, -0.22337432749439823, -0.8553118574712564]

>  <energy>  (12) 
-758.3786861660689

>  <inter_energy>  (12) 
-790.2637864842125

>  <intra_energy>  (12) 
38.49006913370119

>  <rmsd>  (12) 
1.44472

>  <sdf_rank>  (12) 
0

$$$$

     RDKit          3D

 64 67  0  0  0  0  0  0  0  0999 V2000
   25.4001   10.2001   27.2294 C   0  0  0  0  0  0  0  0  0  0  0  0
   26.4692    9.5073   27.7940 C   0  0  0  0  0  0  0  0  0  0  0  0
   26.6295    8.1405   27.5706 C   0  0  0  0  0  0  0  0  0  0  0  0
   22.5414    9.6733   24.9981 C   0  0  0  0  0  0  0  0  0  0  0  0
   25.6628    7.4770   26.7800 C   0  0  0  0  0  0  0  0  0  0  0  0
   21.1782    8.6656   22.9463 N   0  0  0  0  0  0  0  0  0  0  0  0
   20.9295    9.9482   23.3254 C   0  0  0  0  0  0  0  0  0  0  0  0
   26.5807    5.0180   27.1587 C   0  0  0  0  0  0  0  0  0  0  0  0
   25.7183    5.9898   26.3591 C   0  0  1  0  0  0  0  0  0  0  0  0
   23.4024    6.2125   25.5625 C   0  0  0  0  0  0  0  0  0  0  0  0
   20.2180   10.6353   22.6049 O   0  0  0  0  0  0  0  0  0  0  0  0
   21.6364   10.4412   24.3733 N   0  0  0  0  0  0  0  0  0  0  0  0
   22.0001    7.7953   23.6153 C   0  0  0  0  0  0  0  0  0  0  0  0
   22.1714    6.6592   23.1048 O   0  0  0  0  0  0  0  0  0  0  0  0
   22.7308    8.3363   24.6702 C   0  0  0  0  0  0  0  0  0  0  0  0
   23.6250    7.5633   25.4461 N   0  0  0  0  0  0  0  0  0  0  0  0
   24.2880    5.4725   26.4938 C   0  0  0  0  0  0  0  0  0  0  0  0
   26.1431    5.9115   24.9031 C   0  0  0  0  0  0  0  0  0  0  0  0
   24.5819    8.2160   26.2492 C   0  0  0  0  0  0  0  0  0  0  0  0
   27.8545    7.4728   28.1551 C   0  0  0  0  0  0  0  0  0  0  0  0
   27.4046   10.2447   28.7219 C   0  0  0  0  0  0  0  0  0  0  0  0
   24.4449    9.5527   26.4467 C   0  0  0  0  0  0  0  0  0  0  0  0
   23.3271   10.2642   25.9326 N   0  0  0  0  0  0  0  0  0  0  0  0
   22.9618   11.6139   26.4037 C   0  0  0  0  0  0  0  0  0  0  0  0
   21.9196   12.3407   25.6131 C   0  0  2  0  0  0  0  0  0  0  0  0
   22.1787   13.7358   25.5897 O   0  0  0  0  0  0  0  0  0  0  0  0
   20.5435   12.1046   26.1956 C   0  0  2  0  0  0  0  0  0  0  0  0
   20.2637   10.6851   26.0301 O   0  0  0  0  0  0  0  0  0  0  0  0
   19.4507   12.9089   25.5100 C   0  0  2  0  0  0  0  0  0  0  0  0
   18.4526   11.9794   25.0453 O   0  0  0  0  0  0  0  0  0  0  0  0
   19.9289   13.7501   24.3634 C   0  0  0  0  0  0  0  0  0  0  0  0
   18.9163   13.7225   23.2998 O   0  0  0  0  0  0  0  0  0  0  0  0
   19.3550   13.9318   21.7687 P   0  0  1  0  0  0  0  0  0  0  0  0
   18.2241   13.2434   21.0094 O   0  0  0  0  0  0  0  0  0  0  0  0
   19.4828   15.3856   21.5235 O   0  0  0  0  0  0  0  0  0  0  0  0
   20.6605   13.1788   21.6012 O   0  0  0  0  0  0  0  0  0  0  0  0
   25.3077   11.2821   27.4051 H   0  0  0  0  0  0  0  0  0  0  0  0
   20.7145    8.3225   22.0930 H   0  0  0  0  0  0  0  0  0  0  0  0
   26.4272    5.1911   28.2341 H   0  0  0  0  0  0  0  0  0  0  0  0
   26.2966    3.9850   26.9093 H   0  0  0  0  0  0  0  0  0  0  0  0
   27.6402    5.1773   26.9093 H   0  0  0  0  0  0  0  0  0  0  0  0
   22.6083    5.7061   24.9942 H   0  0  0  0  0  0  0  0  0  0  0  0
   21.4775   11.4084   24.6901 H   0  0  0  0  0  0  0  0  0  0  0  0
   24.2619    4.4002   26.2498 H   0  0  0  0  0  0  0  0  0  0  0  0
   23.9404    5.6233   27.5265 H   0  0  0  0  0  0  0  0  0  0  0  0
   27.2235    5.7123   24.8466 H   0  0  0  0  0  0  0  0  0  0  0  0
   25.5939    5.0995   24.4041 H   0  0  0  0  0  0  0  0  0  0  0  0
   25.9197    6.8660   24.4041 H   0  0  0  0  0  0  0  0  0  0  0  0
   27.7996    7.5027   29.2533 H   0  0  0  0  0  0  0  0  0  0  0  0
   27.8976    6.4264   27.8185 H   0  0  0  0  0  0  0  0  0  0  0  0
   28.7572    8.0037   27.8185 H   0  0  0  0  0  0  0  0  0  0  0  0
   27.1313   10.0292   29.7654 H   0  0  0  0  0  0  0  0  0  0  0  0
   28.4381    9.9158   28.5381 H   0  0  0  0  0  0  0  0  0  0  0  0
   27.3260   11.3264   28.5381 H   0  0  0  0  0  0  0  0  0  0  0  0
   22.5918   11.5184   27.4352 H   0  0  0  0  0  0  0  0  0  0  0  0
   23.8769   12.2150   26.2985 H   0  0  0  0  0  0  0  0  0  0  0  0
   21.9547   11.9497   24.5855 H   0  0  0  0  0  0  0  0  0  0  0  0
   22.2417   14.0754   26.5175 H   0  0  0  0  0  0  0  0  0  0  0  0
   20.5450   12.4254   27.2477 H   0  0  0  0  0  0  0  0  0  0  0  0
   20.1798   10.2594   26.9200 H   0  0  0  0  0  0  0  0  0  0  0  0
   19.0508   13.6205   26.2473 H   0  0  0  0  0  0  0  0  0  0  0  0
   18.0037   11.5614   25.8224 H   0  0  0  0  0  0  0  0  0  0  0  0
   20.0802   14.7855   24.7026 H   0  0  0  0  0  0  0  0  0  0  0  0
   20.8817   13.3542   23.9819 H   0  0  0  0  0  0  0  0  0  0  0  0
  1  2  2  0
  1 22  1  0
  2  3  1  0
  2 21  1  0
  3  5  2  0
  3 20  1  0
  4 12  1  0
  4 15  2  0
  4 23  1  0
  5  9  1  0
  5 19  1  0
  6  7  1  0
  6 13  1  0
  7 11  2  0
  7 12  1  0
  9  8  1  1
  9 17  1  0
  9 18  1  0
 10 16  2  0
 10 17  1  0
 13 14  2  0
 13 15  1  0
 15 16  1  0
 16 19  1  0
 19 22  2  0
 22 23  1  0
 23 24  1  0
 24 25  1  0
 25 26  1  0
 25 27  1  0
 27 28  1  0
 27 29  1  0
 29 30  1  0
 29 31  1  0
 31 32  1  0
 32 33  1  0
 33 34  2  0
 33 35  1  6
 33 36  1  0
  1 37  1  0
  6 38  1  0
  8 39  1  0
  8 40  1  0
  8 41  1  0
 10 42  1  0
 12 43  1  0
 17 44  1  0
 17 45  1  0
 18 46  1  0
 18 47  1  0
 18 48  1  0
 20 49  1  0
 20 50  1  0
 20 51  1  0
 21 52  1  0
 21 53  1  0
 21 54  1  0
 24 55  1  0
 24 56  1  0
 25 57  1  6
 26 58  1  0
 27 59  1  1
 28 60  1  0
 29 61  1  1
 30 62  1  0
 31 63  1  0
 31 64  1  0
M  CHG  3  16   1  35  -1  36  -1
M  END
>  <filename_input>  (13) 
7NF3_4LU_docked.sdf

>  <pdb_id>  (13) 
7NF3_4LU

>  <pose_rank>  (13) 
12

>  <num_atoms_heavy>  (13) 
36

>  <num_torsions>  (13) 
7

>  <pose>  (13) 
[25.400110988754648, 10.200115387265932, 27.22938091526623, -2.180507078568687, -0.4127899913560729, 1.4059464874389387, 1.1634546841901579, -7.827952142271227, -12.548759846814054, -38.53620155429949, -32.19151829586945, -13.18343968439904, -0.6302016138416856]

>  <energy>  (13) 
-421.21407214182045

>  <inter_energy>  (13) 
-660.5108192080448

>  <intra_energy>  (13) 
247.09854829529755

>  <rmsd>  (13) 
8.67675

>  <sdf_rank>  (13) 
0

$$$$

     RDKit          3D

 64 67  0  0  0  0  0  0  0  0999 V2000
   20.7241   10.1508   21.6055 C   0  0  0  0  0  0  0  0  0  0  0  0
   21.3563    8.9112   21.5315 C   0  0  0  0  0  0  0  0  0  0  0  0
   21.9016    8.3209   22.6708 C   0  0  0  0  0  0  0  0  0  0  0  0
   19.7682   12.7045   24.0537 C   0  0  0  0  0  0  0  0  0  0  0  0
   21.8181    9.0283   23.8924 C   0  0  0  0  0  0  0  0  0  0  0  0
   18.9322   13.6861   26.3821 N   0  0  0  0  0  0  0  0  0  0  0  0
   18.5769   14.3318   25.2387 C   0  0  0  0  0  0  0  0  0  0  0  0
   23.3079    7.3642   25.3219 C   0  0  0  0  0  0  0  0  0  0  0  0
   22.2906    8.4998   25.2669 C   0  0  1  0  0  0  0  0  0  0  0  0
   21.9746   10.7701   26.1578 C   0  0  0  0  0  0  0  0  0  0  0  0
   17.7520   15.2323   25.3170 O   0  0  0  0  0  0  0  0  0  0  0  0
   19.0138   13.8134   24.0634 N   0  0  0  0  0  0  0  0  0  0  0  0
   19.7954   12.6225   26.4463 C   0  0  0  0  0  0  0  0  0  0  0  0
   19.9784   12.0982   27.5743 O   0  0  0  0  0  0  0  0  0  0  0  0
   20.2068   12.0969   25.2240 C   0  0  0  0  0  0  0  0  0  0  0  0
   21.0885   10.9955   25.1323 N   0  0  0  0  0  0  0  0  0  0  0  0
   22.9655    9.6862   25.9517 C   0  0  0  0  0  0  0  0  0  0  0  0
   21.0729    8.0837   26.0733 C   0  0  0  0  0  0  0  0  0  0  0  0
   21.1900   10.2937   23.9141 C   0  0  0  0  0  0  0  0  0  0  0  0
   22.5055    6.9416   22.5258 C   0  0  0  0  0  0  0  0  0  0  0  0
   21.5160    8.2562   20.1805 C   0  0  0  0  0  0  0  0  0  0  0  0
   20.6359   10.8526   22.8072 C   0  0  0  0  0  0  0  0  0  0  0  0
   20.0438   12.1439   22.8497 N   0  0  0  0  0  0  0  0  0  0  0  0
   19.7484   12.9209   21.6307 C   0  0  0  0  0  0  0  0  0  0  0  0
   20.5829   14.1404   21.3943 C   0  0  2  0  0  0  0  0  0  0  0  0
   19.8674   15.3199   21.7273 O   0  0  0  0  0  0  0  0  0  0  0  0
   21.0181   14.2198   19.9476 C   0  0  2  0  0  0  0  0  0  0  0  0
   21.2849   15.6248   19.6736 O   0  0  0  0  0  0  0  0  0  0  0  0
   19.9675   13.7147   18.9717 C   0  0  2  0  0  0  0  0  0  0  0  0
   19.0249   14.7828   18.7557 O   0  0  0  0  0  0  0  0  0  0  0  0
   19.2399   12.4847   19.4283 C   0  0  0  0  0  0  0  0  0  0  0  0
   19.8468   11.3096   18.7895 O   0  0  0  0  0  0  0  0  0  0  0  0
   19.1305   10.6237   17.5258 P   0  0  1  0  0  0  0  0  0  0  0  0
   18.4181    9.4334   18.1622 O   0  0  0  0  0  0  0  0  0  0  0  0
   18.2409   11.6287   16.9024 O   0  0  0  0  0  0  0  0  0  0  0  0
   20.2485   10.1632   16.6106 O   0  0  0  0  0  0  0  0  0  0  0  0
   20.2848   10.5855   20.6956 H   0  0  0  0  0  0  0  0  0  0  0  0
   18.5223   14.0211   27.2656 H   0  0  0  0  0  0  0  0  0  0  0  0
   23.5274    7.1192   26.3716 H   0  0  0  0  0  0  0  0  0  0  0  0
   22.8959    6.4781   24.8170 H   0  0  0  0  0  0  0  0  0  0  0  0
   24.2338    7.6766   24.8170 H   0  0  0  0  0  0  0  0  0  0  0  0
   21.9502   11.3631   27.0840 H   0  0  0  0  0  0  0  0  0  0  0  0
   18.7652   14.2730   23.1757 H   0  0  0  0  0  0  0  0  0  0  0  0
   23.3673    9.3673   26.9248 H   0  0  0  0  0  0  0  0  0  0  0  0
   23.7855   10.0559   25.3185 H   0  0  0  0  0  0  0  0  0  0  0  0
   21.3000    8.1613   27.1468 H   0  0  0  0  0  0  0  0  0  0  0  0
   20.2279    8.7441   25.8286 H   0  0  0  0  0  0  0  0  0  0  0  0
   20.8088    7.0443   25.8286 H   0  0  0  0  0  0  0  0  0  0  0  0
   22.6917    6.5162   23.5229 H   0  0  0  0  0  0  0  0  0  0  0  0
   21.8092    6.2925   21.9745 H   0  0  0  0  0  0  0  0  0  0  0  0
   23.4546    7.0130   21.9745 H   0  0  0  0  0  0  0  0  0  0  0  0
   21.7746    7.1955   20.3156 H   0  0  0  0  0  0  0  0  0  0  0  0
   20.5723    8.3351   19.6209 H   0  0  0  0  0  0  0  0  0  0  0  0
   22.3175    8.7606   19.6209 H   0  0  0  0  0  0  0  0  0  0  0  0
   19.8832   12.2520   20.7679 H   0  0  0  0  0  0  0  0  0  0  0  0
   18.7224   13.2936   21.7662 H   0  0  0  0  0  0  0  0  0  0  0  0
   21.4699   14.0618   22.0401 H   0  0  0  0  0  0  0  0  0  0  0  0
   19.8146   15.4069   22.7121 H   0  0  0  0  0  0  0  0  0  0  0  0
   21.8996   13.5768   19.8078 H   0  0  0  0  0  0  0  0  0  0  0  0
   21.3781   16.1158   20.5282 H   0  0  0  0  0  0  0  0  0  0  0  0
   20.4874   13.4205   18.0480 H   0  0  0  0  0  0  0  0  0  0  0  0
   18.7164   15.1323   19.6290 H   0  0  0  0  0  0  0  0  0  0  0  0
   19.3190   12.3930   20.5216 H   0  0  0  0  0  0  0  0  0  0  0  0
   18.1780   12.5542   19.1495 H   0  0  0  0  0  0  0  0  0  0  0  0
  1  2  2  0
  1 22  1  0
  2  3  1  0
  2 21  1  0
  3  5  2  0
  3 20  1  0
  4 12  1  0
  4 15  2  0
  4 23  1  0
  5  9  1  0
  5 19  1  0
  6  7  1  0
  6 13  1  0
  7 11  2  0
  7 12  1  0
  9  8  1  6
  9 17  1  0
  9 18  1  0
 10 16  2  0
 10 17  1  0
 13 14  2  0
 13 15  1  0
 15 16  1  0
 16 19  1  0
 19 22  2  0
 22 23  1  0
 23 24  1  0
 24 25  1  0
 25 26  1  0
 25 27  1  0
 27 28  1  0
 27 29  1  0
 29 30  1  0
 29 31  1  0
 31 32  1  0
 32 33  1  0
 33 34  2  0
 33 35  1  6
 33 36  1  0
  1 37  1  0
  6 38  1  0
  8 39  1  0
  8 40  1  0
  8 41  1  0
 10 42  1  0
 12 43  1  0
 17 44  1  0
 17 45  1  0
 18 46  1  0
 18 47  1  0
 18 48  1  0
 20 49  1  0
 20 50  1  0
 20 51  1  0
 21 52  1  0
 21 53  1  0
 21 54  1  0
 24 55  1  0
 24 56  1  0
 25 57  1  1
 26 58  1  0
 27 59  1  1
 28 60  1  0
 29 61  1  6
 30 62  1  0
 31 63  1  0
 31 64  1  0
M  CHG  3  16   1  35  -1  36  -1
M  END
>  <filename_input>  (14) 
7NF3_4LU_docked.sdf

>  <pdb_id>  (14) 
7NF3_4LU

>  <pose_rank>  (14) 
13

>  <num_atoms_heavy>  (14) 
36

>  <num_torsions>  (14) 
7

>  <pose>  (14) 
[20.724116396836884, 10.150844366816017, 21.605543617634858, -0.3019406888420146, 2.0141489342091283, 2.581455535899477, 2.5628678219274534, 5.485464599913543, -2.4135073213921565, -1.571672840914888, -4.970796797958618, 6.553316584393873, 1.1897207692499232]

>  <energy>  (14) 
-445.88295190828126

>  <inter_energy>  (14) 
-552.7768603582797

>  <intra_energy>  (14) 
104.03855783510528

>  <rmsd>  (14) 
7.91679

>  <sdf_rank>  (14) 
0

$$$$

     RDKit          3D

 64 67  0  0  0  0  0  0  0  0999 V2000
   21.7647   12.2751   23.8903 C   0  0  0  0  0  0  0  0  0  0  0  0
   22.0816   12.3571   25.2448 C   0  0  0  0  0  0  0  0  0  0  0  0
   22.1850   11.2049   26.0229 C   0  0  0  0  0  0  0  0  0  0  0  0
   21.1176    9.7911   21.2751 C   0  0  0  0  0  0  0  0  0  0  0  0
   21.9322    9.9586   25.4043 C   0  0  0  0  0  0  0  0  0  0  0  0
   21.3832    7.5066   19.9355 N   0  0  0  0  0  0  0  0  0  0  0  0
   21.1003    8.6403   19.2387 C   0  0  0  0  0  0  0  0  0  0  0  0
   22.0521    8.4848   27.6057 C   0  0  0  0  0  0  0  0  0  0  0  0
   22.0777    8.5765   26.0830 C   0  0  1  0  0  0  0  0  0  0  0  0
   20.9507    7.5901   24.1325 C   0  0  0  0  0  0  0  0  0  0  0  0
   21.1486    8.5938   18.0168 O   0  0  0  0  0  0  0  0  0  0  0  0
   20.9699    9.7932   19.9420 N   0  0  0  0  0  0  0  0  0  0  0  0
   21.4281    7.4173   21.3031 C   0  0  0  0  0  0  0  0  0  0  0  0
   21.7605    6.3095   21.7960 O   0  0  0  0  0  0  0  0  0  0  0  0
   21.3161    8.6200   21.9963 C   0  0  0  0  0  0  0  0  0  0  0  0
   21.3535    8.6858   23.4082 N   0  0  0  0  0  0  0  0  0  0  0  0
   20.8812    7.7573   25.6044 C   0  0  0  0  0  0  0  0  0  0  0  0
   23.3584    7.9250   25.5913 C   0  0  0  0  0  0  0  0  0  0  0  0
   21.5894    9.9266   24.0340 C   0  0  0  0  0  0  0  0  0  0  0  0
   22.6053   11.3685   27.4668 C   0  0  0  0  0  0  0  0  0  0  0  0
   22.2280   13.7209   25.8759 C   0  0  0  0  0  0  0  0  0  0  0  0
   21.5169   11.0494   23.2734 C   0  0  0  0  0  0  0  0  0  0  0  0
   21.1326   10.9915   21.9063 N   0  0  0  0  0  0  0  0  0  0  0  0
   20.7109   12.1863   21.1503 C   0  0  0  0  0  0  0  0  0  0  0  0
   19.2974   12.6380   21.3440 C   0  0  2  0  0  0  0  0  0  0  0  0
   18.4123   11.9184   20.4998 O   0  0  0  0  0  0  0  0  0  0  0  0
   19.1627   14.1165   21.0537 C   0  0  2  0  0  0  0  0  0  0  0  0
   20.4985   14.5964   20.7286 O   0  0  0  0  0  0  0  0  0  0  0  0
   18.6203   14.9161   22.2274 C   0  0  2  0  0  0  0  0  0  0  0  0
   19.2070   16.2307   22.1669 O   0  0  0  0  0  0  0  0  0  0  0  0
   18.8913   14.3044   23.5703 C   0  0  0  0  0  0  0  0  0  0  0  0
   17.6764   13.6222   24.0351 O   0  0  0  0  0  0  0  0  0  0  0  0
   16.9666   14.0879   25.3988 P   0  0  1  0  0  0  0  0  0  0  0  0
   16.0356   15.1977   24.9184 O   0  0  0  0  0  0  0  0  0  0  0  0
   16.2900   12.9109   25.9880 O   0  0  0  0  0  0  0  0  0  0  0  0
   18.0710   14.6453   26.2757 O   0  0  0  0  0  0  0  0  0  0  0  0
   21.7088   13.1980   23.2944 H   0  0  0  0  0  0  0  0  0  0  0  0
   21.5781    6.6515   19.3954 H   0  0  0  0  0  0  0  0  0  0  0  0
   22.3240    9.4598   28.0364 H   0  0  0  0  0  0  0  0  0  0  0  0
   21.0418    8.2054   27.9393 H   0  0  0  0  0  0  0  0  0  0  0  0
   22.7721    7.7230   27.9393 H   0  0  0  0  0  0  0  0  0  0  0  0
   20.6931    6.6378   23.6458 H   0  0  0  0  0  0  0  0  0  0  0  0
   20.7567   10.6730   19.4505 H   0  0  0  0  0  0  0  0  0  0  0  0
   20.8978    6.7688   26.0866 H   0  0  0  0  0  0  0  0  0  0  0  0
   19.9505    8.2803   25.8695 H   0  0  0  0  0  0  0  0  0  0  0  0
   23.9669    7.6155   26.4538 H   0  0  0  0  0  0  0  0  0  0  0  0
   23.1107    7.0434   24.9819 H   0  0  0  0  0  0  0  0  0  0  0  0
   23.9251    8.6444   24.9819 H   0  0  0  0  0  0  0  0  0  0  0  0
   21.7847   11.0491   28.1260 H   0  0  0  0  0  0  0  0  0  0  0  0
   23.4943   10.7507   27.6621 H   0  0  0  0  0  0  0  0  0  0  0  0
   22.8426   12.4247   27.6621 H   0  0  0  0  0  0  0  0  0  0  0  0
   22.2173   13.6212   26.9713 H   0  0  0  0  0  0  0  0  0  0  0  0
   23.1797   14.1717   25.5580 H   0  0  0  0  0  0  0  0  0  0  0  0
   21.3937   14.3635   25.5580 H   0  0  0  0  0  0  0  0  0  0  0  0
   21.3697   13.0167   21.4441 H   0  0  0  0  0  0  0  0  0  0  0  0
   20.7805   11.8984   20.0909 H   0  0  0  0  0  0  0  0  0  0  0  0
   19.0318   12.4449   22.3938 H   0  0  0  0  0  0  0  0  0  0  0  0
   17.7756   11.4008   21.0537 H   0  0  0  0  0  0  0  0  0  0  0  0
   18.4429   14.2516   20.2329 H   0  0  0  0  0  0  0  0  0  0  0  0
   20.9974   14.7756   21.5647 H   0  0  0  0  0  0  0  0  0  0  0  0
   17.5246   14.9407   22.1335 H   0  0  0  0  0  0  0  0  0  0  0  0
   19.3573   16.5676   23.0855 H   0  0  0  0  0  0  0  0  0  0  0  0
   19.7135   13.5785   23.4865 H   0  0  0  0  0  0  0  0  0  0  0  0
   19.1762   15.0887   24.2870 H   0  0  0  0  0  0  0  0  0  0  0  0
  1  2  2  0
  1 22  1  0
  2  3  1  0
  2 21  1  0
  3  5  2  0
  3 20  1  0
  4 12  1  0
  4 15  2  0
  4 23  1  0
  5  9  1  0
  5 19  1  0
  6  7  1  0
  6 13  1  0
  7 11  2  0
  7 12  1  0
  9  8  1  1
  9 17  1  0
  9 18  1  0
 10 16  2  0
 10 17  1  0
 13 14  2  0
 13 15  1  0
 15 16  1  0
 16 19  1  0
 19 22  2  0
 22 23  1  0
 23 24  1  0
 24 25  1  0
 25 26  1  0
 25 27  1  0
 27 28  1  0
 27 29  1  0
 29 30  1  0
 29 31  1  0
 31 32  1  0
 32 33  1  0
 33 34  2  0
 33 35  1  1
 33 36  1  0
  1 37  1  0
  6 38  1  0
  8 39  1  0
  8 40  1  0
  8 41  1  0
 10 42  1  0
 12 43  1  0
 17 44  1  0
 17 45  1  0
 18 46  1  0
 18 47  1  0
 18 48  1  0
 20 49  1  0
 20 50  1  0
 20 51  1  0
 21 52  1  0
 21 53  1  0
 21 54  1  0
 24 55  1  0
 24 56  1  0
 25 57  1  1
 26 58  1  0
 27 59  1  6
 28 60  1  0
 29 61  1  6
 30 62  1  0
 31 63  1  0
 31 64  1  0
M  CHG  3  16   1  35  -1  36  -1
M  END
>  <filename_input>  (15) 
7NF3_4LU_docked.sdf

>  <pdb_id>  (15) 
7NF3_4LU

>  <pose_rank>  (15) 
14

>  <num_atoms_heavy>  (15) 
36

>  <num_torsions>  (15) 
7

>  <pose>  (15) 
[21.764669825579347, 12.275066520592766, 23.890313834390177, -3.2570954380126387, -0.38278759979278576, 0.7625041990197103, 3.081385029951298, -0.46940616693408943, -5.168627333684417, -0.41114034402520855, 1.2703212995695683, -0.03689727938314333, -1.8280832000176646]

>  <energy>  (15) 
-531.8293295026232

>  <inter_energy>  (15) 
-536.2882721055281

>  <intra_energy>  (15) 
8.036512808410778

>  <rmsd>  (15) 
8.69581

>  <sdf_rank>  (15) 
0

$$$$

     RDKit          3D

 64 67  0  0  0  0  0  0  0  0999 V2000
   21.8361   11.5133   25.1601 C   0  0  0  0  0  0  0  0  0  0  0  0
   22.6289   10.8007   26.0576 C   0  0  0  0  0  0  0  0  0  0  0  0
   23.0888    9.5229   25.7423 C   0  0  0  0  0  0  0  0  0  0  0  0
   20.4223   11.2409   21.7904 C   0  0  0  0  0  0  0  0  0  0  0  0
   22.7045    8.9641   24.5014 C   0  0  0  0  0  0  0  0  0  0  0  0
   20.3160   10.5721   19.2164 N   0  0  0  0  0  0  0  0  0  0  0  0
   19.7215   11.7297   19.6129 C   0  0  0  0  0  0  0  0  0  0  0  0
   23.7308    6.5534   24.9107 C   0  0  0  0  0  0  0  0  0  0  0  0
   23.1811    7.6010   23.9475 C   0  0  1  0  0  0  0  0  0  0  0  0
   21.4744    7.8101   22.1893 C   0  0  0  0  0  0  0  0  0  0  0  0
   19.3138   12.4944   18.7489 O   0  0  0  0  0  0  0  0  0  0  0  0
   19.7886   12.0510   20.9294 N   0  0  0  0  0  0  0  0  0  0  0  0
   20.8731    9.6470   20.0616 C   0  0  0  0  0  0  0  0  0  0  0  0
   21.4357    8.6535   19.5356 O   0  0  0  0  0  0  0  0  0  0  0  0
   20.9502   10.0155   21.4025 C   0  0  0  0  0  0  0  0  0  0  0  0
   21.5068    9.1690   22.3888 N   0  0  0  0  0  0  0  0  0  0  0  0
   21.9479    6.9638   23.3114 C   0  0  0  0  0  0  0  0  0  0  0  0
   24.2253    7.8502   22.8733 C   0  0  0  0  0  0  0  0  0  0  0  0
   21.8786    9.7140   23.6344 C   0  0  0  0  0  0  0  0  0  0  0  0
   24.0055    8.8423   26.7346 C   0  0  0  0  0  0  0  0  0  0  0  0
   22.9119   11.4016   27.4135 C   0  0  0  0  0  0  0  0  0  0  0  0
   21.4557   10.9694   23.9339 C   0  0  0  0  0  0  0  0  0  0  0  0
   20.5942   11.6864   23.0599 N   0  0  0  0  0  0  0  0  0  0  0  0
   19.8451   12.8824   23.4905 C   0  0  0  0  0  0  0  0  0  0  0  0
   19.1277   12.7886   24.8005 C   0  0  2  0  0  0  0  0  0  0  0  0
   17.7293   12.6442   24.6064 O   0  0  0  0  0  0  0  0  0  0  0  0
   19.3842   14.0197   25.6414 C   0  0  2  0  0  0  0  0  0  0  0  0
   20.7089   14.5007   25.2750 O   0  0  0  0  0  0  0  0  0  0  0  0
   19.3510   13.7481   27.1368 C   0  0  2  0  0  0  0  0  0  0  0  0
   19.1351   12.3350   27.3178 O   0  0  0  0  0  0  0  0  0  0  0  0
   18.3009   14.5180   27.8820 C   0  0  0  0  0  0  0  0  0  0  0  0
   18.5007   14.3201   29.3236 O   0  0  0  0  0  0  0  0  0  0  0  0
   17.6383   15.1720   30.3776 P   0  0  1  0  0  0  0  0  0  0  0  0
   16.8500   14.0867   31.1056 O   0  0  0  0  0  0  0  0  0  0  0  0
   18.5784   15.9405   31.2237 O   0  0  0  0  0  0  0  0  0  0  0  0
   16.7193   16.0514   29.5521 O   0  0  0  0  0  0  0  0  0  0  0  0
   21.5028   12.5275   25.4251 H   0  0  0  0  0  0  0  0  0  0  0  0
   20.3502   10.3758   18.2059 H   0  0  0  0  0  0  0  0  0  0  0  0
   23.5587    6.8814   25.9465 H   0  0  0  0  0  0  0  0  0  0  0  0
   23.2197    5.5944   24.7401 H   0  0  0  0  0  0  0  0  0  0  0  0
   24.8103    6.4290   24.7401 H   0  0  0  0  0  0  0  0  0  0  0  0
   21.1158    7.3724   21.2460 H   0  0  0  0  0  0  0  0  0  0  0  0
   19.3515   12.9197   21.2687 H   0  0  0  0  0  0  0  0  0  0  0  0
   22.2065    5.9641   22.9323 H   0  0  0  0  0  0  0  0  0  0  0  0
   21.1514    6.8766   24.0650 H   0  0  0  0  0  0  0  0  0  0  0  0
   25.1910    8.0807   23.3471 H   0  0  0  0  0  0  0  0  0  0  0  0
   24.3292    6.9517   22.2474 H   0  0  0  0  0  0  0  0  0  0  0  0
   23.9122    8.6989   22.2474 H   0  0  0  0  0  0  0  0  0  0  0  0
   23.6815    9.0828   27.7579 H   0  0  0  0  0  0  0  0  0  0  0  0
   23.9654    7.7534   26.5837 H   0  0  0  0  0  0  0  0  0  0  0  0
   25.0362    9.1957   26.5837 H   0  0  0  0  0  0  0  0  0  0  0  0
   22.5839   10.7049   28.1990 H   0  0  0  0  0  0  0  0  0  0  0  0
   23.9915   11.5863   27.5147 H   0  0  0  0  0  0  0  0  0  0  0  0
   22.3663   12.3515   27.5147 H   0  0  0  0  0  0  0  0  0  0  0  0
   20.5592   13.7161   23.5602 H   0  0  0  0  0  0  0  0  0  0  0  0
   19.0555   13.0167   22.7366 H   0  0  0  0  0  0  0  0  0  0  0  0
   19.5131   11.9008   25.3233 H   0  0  0  0  0  0  0  0  0  0  0  0
   17.2772   12.5975   25.4859 H   0  0  0  0  0  0  0  0  0  0  0  0
   18.5883   14.7535   25.4461 H   0  0  0  0  0  0  0  0  0  0  0  0
   21.2299   14.6898   26.0954 H   0  0  0  0  0  0  0  0  0  0  0  0
   20.3113   14.0831   27.5559 H   0  0  0  0  0  0  0  0  0  0  0  0
   19.1034   12.1273   28.2853 H   0  0  0  0  0  0  0  0  0  0  0  0
   18.3861   15.5878   27.6406 H   0  0  0  0  0  0  0  0  0  0  0  0
   17.3011   14.1627   27.5916 H   0  0  0  0  0  0  0  0  0  0  0  0
  1  2  2  0
  1 22  1  0
  2  3  1  0
  2 21  1  0
  3  5  2  0
  3 20  1  0
  4 12  1  0
  4 15  2  0
  4 23  1  0
  5  9  1  0
  5 19  1  0
  6  7  1  0
  6 13  1  0
  7 11  2  0
  7 12  1  0
  9  8  1  1
  9 17  1  0
  9 18  1  0
 10 16  2  0
 10 17  1  0
 13 14  2  0
 13 15  1  0
 15 16  1  0
 16 19  1  0
 19 22  2  0
 22 23  1  0
 23 24  1  0
 24 25  1  0
 25 26  1  0
 25 27  1  0
 27 28  1  0
 27 29  1  0
 29 30  1  0
 29 31  1  0
 31 32  1  0
 32 33  1  0
 33 34  2  0
 33 35  1  1
 33 36  1  0
  1 37  1  0
  6 38  1  0
  8 39  1  0
  8 40  1  0
  8 41  1  0
 10 42  1  0
 12 43  1  0
 17 44  1  0
 17 45  1  0
 18 46  1  0
 18 47  1  0
 18 48  1  0
 20 49  1  0
 20 50  1  0
 20 51  1  0
 21 52  1  0
 21 53  1  0
 21 54  1  0
 24 55  1  0
 24 56  1  0
 25 57  1  1
 26 58  1  0
 27 59  1  1
 28 60  1  0
 29 61  1  1
 30 62  1  0
 31 63  1  0
 31 64  1  0
M  CHG  3  16   1  35  -1  36  -1
M  END
>  <filename_input>  (16) 
7NF3_4LU_docked.sdf

>  <pdb_id>  (16) 
7NF3_4LU

>  <pose_rank>  (16) 
15

>  <num_atoms_heavy>  (16) 
36

>  <num_torsions>  (16) 
7

>  <pose>  (16) 
[21.83606622833478, 11.513250991806116, 25.16014689329567, -2.359812712533462, -0.8240966477594844, 0.83900834135347, -2.60354225172157, 43.143634457921216, -18.220691087145756, 34.74607176498554, -12.534457545519608, 5.051381084763356, -1.3066023761432057]

>  <energy>  (16) 
-555.1262759475802

>  <inter_energy>  (16) 
-589.6269106242385

>  <intra_energy>  (16) 
28.776015678373053

>  <rmsd>  (16) 
8.36036

>  <sdf_rank>  (16) 
0

$$$$

     RDKit          3D

 64 67  0  0  0  0  0  0  0  0999 V2000
   19.7838   12.3859   20.7092 C   0  0  0  0  0  0  0  0  0  0  0  0
   19.5876   12.0814   19.3636 C   0  0  0  0  0  0  0  0  0  0  0  0
   20.0184   10.8637   18.8391 C   0  0  0  0  0  0  0  0  0  0  0  0
   21.1094   10.9045   23.7875 C   0  0  0  0  0  0  0  0  0  0  0  0
   20.6823    9.9633   19.7042 C   0  0  0  0  0  0  0  0  0  0  0  0
   21.6403    8.9976   25.5669 N   0  0  0  0  0  0  0  0  0  0  0  0
   21.3885   10.2562   26.0177 C   0  0  0  0  0  0  0  0  0  0  0  0
   21.3568    8.1881   17.8532 C   0  0  0  0  0  0  0  0  0  0  0  0
   21.1558    8.5410   19.3238 C   0  0  1  0  0  0  0  0  0  0  0  0
   22.3932    8.4724   21.4479 C   0  0  0  0  0  0  0  0  0  0  0  0
   21.2490   10.4206   27.2222 O   0  0  0  0  0  0  0  0  0  0  0  0
   21.1198   11.2121   25.0930 N   0  0  0  0  0  0  0  0  0  0  0  0
   21.7615    8.6470   24.2467 C   0  0  0  0  0  0  0  0  0  0  0  0
   21.9389    7.4292   23.9896 O   0  0  0  0  0  0  0  0  0  0  0  0
   21.4554    9.6419   23.3215 C   0  0  0  0  0  0  0  0  0  0  0  0
   21.5265    9.4252   21.9261 N   0  0  0  0  0  0  0  0  0  0  0  0
   22.5279    8.3787   19.9739 C   0  0  0  0  0  0  0  0  0  0  0  0
   20.1948    7.5307   19.9257 C   0  0  0  0  0  0  0  0  0  0  0  0
   20.8810   10.3260   21.0552 C   0  0  0  0  0  0  0  0  0  0  0  0
   19.7038   10.5740   17.3881 C   0  0  0  0  0  0  0  0  0  0  0  0
   18.9760   13.1277   18.4632 C   0  0  0  0  0  0  0  0  0  0  0  0
   20.4351   11.5017   21.5684 C   0  0  0  0  0  0  0  0  0  0  0  0
   20.6823   11.8574   22.9220 N   0  0  0  0  0  0  0  0  0  0  0  0
   20.5279   13.2378   23.4197 C   0  0  0  0  0  0  0  0  0  0  0  0
   19.2350   13.9229   23.1062 C   0  0  2  0  0  0  0  0  0  0  0  0
   19.4584   15.1388   22.4092 O   0  0  0  0  0  0  0  0  0  0  0  0
   18.4627   14.2160   24.3736 C   0  0  2  0  0  0  0  0  0  0  0  0
   17.3485   15.0711   23.9892 O   0  0  0  0  0  0  0  0  0  0  0  0
   19.2890   14.9247   25.4348 C   0  0  2  0  0  0  0  0  0  0  0  0
   20.6646   14.5410   25.2435 O   0  0  0  0  0  0  0  0  0  0  0  0
   18.8733   14.6246   26.8448 C   0  0  0  0  0  0  0  0  0  0  0  0
   19.6232   13.4553   27.3220 O   0  0  0  0  0  0  0  0  0  0  0  0
   19.0925   12.6247   28.5904 P   0  0  1  0  0  0  0  0  0  0  0  0
   20.3861   12.3060   29.3349 O   0  0  0  0  0  0  0  0  0  0  0  0
   18.1360   13.4787   29.3294 O   0  0  0  0  0  0  0  0  0  0  0  0
   18.4618   11.3644   28.0306 O   0  0  0  0  0  0  0  0  0  0  0  0
   19.4166   13.3454   21.1024 H   0  0  0  0  0  0  0  0  0  0  0  0
   21.7481    8.2524   26.2697 H   0  0  0  0  0  0  0  0  0  0  0  0
   21.8999    7.2346   17.7759 H   0  0  0  0  0  0  0  0  0  0  0  0
   20.3773    8.0931   17.3617 H   0  0  0  0  0  0  0  0  0  0  0  0
   21.9381    8.9821   17.3617 H   0  0  0  0  0  0  0  0  0  0  0  0
   22.9581    7.8132   22.1234 H   0  0  0  0  0  0  0  0  0  0  0  0
   20.9231   12.1771   25.3946 H   0  0  0  0  0  0  0  0  0  0  0  0
   22.9463    7.3973   19.7060 H   0  0  0  0  0  0  0  0  0  0  0  0
   23.1982    9.1743   19.6166 H   0  0  0  0  0  0  0  0  0  0  0  0
   20.2461    7.5846   21.0231 H   0  0  0  0  0  0  0  0  0  0  0  0
   19.1704    7.7569   19.5949 H   0  0  0  0  0  0  0  0  0  0  0  0
   20.4719    6.5189   19.5949 H   0  0  0  0  0  0  0  0  0  0  0  0
   18.8957    9.8300   17.3296 H   0  0  0  0  0  0  0  0  0  0  0  0
   19.3851   11.5014   16.8897 H   0  0  0  0  0  0  0  0  0  0  0  0
   20.6018   10.1799   16.8897 H   0  0  0  0  0  0  0  0  0  0  0  0
   18.5153   13.9158   19.0770 H   0  0  0  0  0  0  0  0  0  0  0  0
   19.7589   13.5681   17.8283 H   0  0  0  0  0  0  0  0  0  0  0  0
   18.2081   12.6616   17.8283 H   0  0  0  0  0  0  0  0  0  0  0  0
   20.6349   13.2118   24.5141 H   0  0  0  0  0  0  0  0  0  0  0  0
   21.2997   13.8221   22.8972 H   0  0  0  0  0  0  0  0  0  0  0  0
   18.6494   13.2439   22.4689 H   0  0  0  0  0  0  0  0  0  0  0  0
   19.5933   15.8723   23.0602 H   0  0  0  0  0  0  0  0  0  0  0  0
   18.1426   13.2634   24.8209 H   0  0  0  0  0  0  0  0  0  0  0  0
   16.9005   15.4149   24.8024 H   0  0  0  0  0  0  0  0  0  0  0  0
   19.1334   16.0063   25.3083 H   0  0  0  0  0  0  0  0  0  0  0  0
   21.0990   14.4199   26.1248 H   0  0  0  0  0  0  0  0  0  0  0  0
   19.0918   15.4908   27.4866 H   0  0  0  0  0  0  0  0  0  0  0  0
   17.7940   14.4151   26.8791 H   0  0  0  0  0  0  0  0  0  0  0  0
  1  2  2  0
  1 22  1  0
  2  3  1  0
  2 21  1  0
  3  5  2  0
  3 20  1  0
  4 12  1  0
  4 15  2  0
  4 23  1  0
  5  9  1  0
  5 19  1  0
  6  7  1  0
  6 13  1  0
  7 11  2  0
  7 12  1  0
  9  8  1  6
  9 17  1  0
  9 18  1  0
 10 16  2  0
 10 17  1  0
 13 14  2  0
 13 15  1  0
 15 16  1  0
 16 19  1  0
 19 22  2  0
 22 23  1  0
 23 24  1  0
 24 25  1  0
 25 26  1  0
 25 27  1  0
 27 28  1  0
 27 29  1  0
 29 30  1  0
 29 31  1  0
 31 32  1  0
 32 33  1  0
 33 34  2  0
 33 35  1  1
 33 36  1  0
  1 37  1  0
  6 38  1  0
  8 39  1  0
  8 40  1  0
  8 41  1  0
 10 42  1  0
 12 43  1  0
 17 44  1  0
 17 45  1  0
 18 46  1  0
 18 47  1  0
 18 48  1  0
 20 49  1  0
 20 50  1  0
 20 51  1  0
 21 52  1  0
 21 53  1  0
 21 54  1  0
 24 55  1  0
 24 56  1  0
 25 57  1  6
 26 58  1  0
 27 59  1  1
 28 60  1  0
 29 61  1  6
 30 62  1  0
 31 63  1  0
 31 64  1  0
M  CHG  3  16   1  35  -1  36  -1
M  END
>  <filename_input>  (17) 
7NF3_4LU_docked.sdf

>  <pdb_id>  (17) 
7NF3_4LU

>  <pose_rank>  (17) 
16

>  <num_atoms_heavy>  (17) 
36

>  <num_torsions>  (17) 
7

>  <pose>  (17) 
[19.783798040025022, 12.385922618241453, 20.709214121049936, 0.6735022656133963, 0.09898068164723951, 3.2047517872562303, -0.9058403934246406, -1.1573948557880482, -2.1539875445324315, 2.791922494271779, -1.6822953275935062, -0.7674415465092859, 0.4822032084408401]

>  <energy>  (17) 
-464.38202335770615

>  <inter_energy>  (17) 
-566.6981628470372

>  <intra_energy>  (17) 
100.48756261165427

>  <rmsd>  (17) 
6.7329

>  <sdf_rank>  (17) 
0

$$$$

     RDKit          3D

 64 67  0  0  0  0  0  0  0  0999 V2000
   21.4664    9.7165   22.6698 C   0  0  0  0  0  0  0  0  0  0  0  0
   20.4370   10.4275   22.0562 C   0  0  0  0  0  0  0  0  0  0  0  0
   19.8517   11.5227   22.6900 C   0  0  0  0  0  0  0  0  0  0  0  0
   23.5233    9.7547   25.7023 C   0  0  0  0  0  0  0  0  0  0  0  0
   20.3140   11.8708   23.9803 C   0  0  0  0  0  0  0  0  0  0  0  0
   24.9059   10.8018   27.7211 N   0  0  0  0  0  0  0  0  0  0  0  0
   25.3334    9.6298   27.1786 C   0  0  0  0  0  0  0  0  0  0  0  0
   18.5078   13.7509   24.4650 C   0  0  0  0  0  0  0  0  0  0  0  0
   19.8446   13.0960   24.7990 C   0  0  1  0  0  0  0  0  0  0  0  0
   21.0320   12.1551   26.7361 C   0  0  0  0  0  0  0  0  0  0  0  0
   26.4241    9.1971   27.5258 O   0  0  0  0  0  0  0  0  0  0  0  0
   24.6136    9.1147   26.1503 N   0  0  0  0  0  0  0  0  0  0  0  0
   23.7386   11.4402   27.3890 C   0  0  0  0  0  0  0  0  0  0  0  0
   23.5123   12.5473   27.9400 O   0  0  0  0  0  0  0  0  0  0  0  0
   23.0348   10.9028   26.3141 C   0  0  0  0  0  0  0  0  0  0  0  0
   21.8195   11.4582   25.8519 N   0  0  0  0  0  0  0  0  0  0  0  0
   19.7083   12.6000   26.2367 C   0  0  0  0  0  0  0  0  0  0  0  0
   20.9227   14.1639   24.7387 C   0  0  0  0  0  0  0  0  0  0  0  0
   21.3428   11.1051   24.5733 C   0  0  0  0  0  0  0  0  0  0  0  0
   18.7918   12.2893   21.9304 C   0  0  0  0  0  0  0  0  0  0  0  0
   19.9075    9.9401   20.7288 C   0  0  0  0  0  0  0  0  0  0  0  0
   21.9289   10.0559   23.9406 C   0  0  0  0  0  0  0  0  0  0  0  0
   22.9356    9.2795   24.5760 N   0  0  0  0  0  0  0  0  0  0  0  0
   23.3446    7.9520   24.0786 C   0  0  0  0  0  0  0  0  0  0  0  0
   23.3852    6.8430   25.0826 C   0  0  2  0  0  0  0  0  0  0  0  0
   24.0697    5.7125   24.5657 O   0  0  0  0  0  0  0  0  0  0  0  0
   21.9856    6.4314   25.4833 C   0  0  2  0  0  0  0  0  0  0  0  0
   21.9813    6.3453   26.9369 O   0  0  0  0  0  0  0  0  0  0  0  0
   21.5612    5.0908   24.9056 C   0  0  2  0  0  0  0  0  0  0  0  0
   21.4802    5.2394   23.4747 O   0  0  0  0  0  0  0  0  0  0  0  0
   20.2548    4.5756   25.4336 C   0  0  0  0  0  0  0  0  0  0  0  0
   20.5247    3.5403   26.4399 O   0  0  0  0  0  0  0  0  0  0  0  0
   19.4876    3.3009   27.6430 P   0  0  1  0  0  0  0  0  0  0  0  0
   18.2612    4.0795   27.1750 O   0  0  0  0  0  0  0  0  0  0  0  0
   19.2871    1.8422   27.7915 O   0  0  0  0  0  0  0  0  0  0  0  0
   20.1092    3.9478   28.8656 O   0  0  0  0  0  0  0  0  0  0  0  0
   21.9245    8.8685   22.1396 H   0  0  0  0  0  0  0  0  0  0  0  0
   25.5038   11.2427   28.4347 H   0  0  0  0  0  0  0  0  0  0  0  0
   17.9825   14.0082   25.3966 H   0  0  0  0  0  0  0  0  0  0  0  0
   18.6835   14.6649   23.8787 H   0  0  0  0  0  0  0  0  0  0  0  0
   17.8933   13.0518   23.8787 H   0  0  0  0  0  0  0  0  0  0  0  0
   21.3660   12.3718   27.7615 H   0  0  0  0  0  0  0  0  0  0  0  0
   24.9054    8.2294   25.7122 H   0  0  0  0  0  0  0  0  0  0  0  0
   19.3327   13.4159   26.8717 H   0  0  0  0  0  0  0  0  0  0  0  0
   19.0035   11.7560   26.2671 H   0  0  0  0  0  0  0  0  0  0  0  0
   21.2122   14.4507   25.7605 H   0  0  0  0  0  0  0  0  0  0  0  0
   21.8004   13.7692   24.2060 H   0  0  0  0  0  0  0  0  0  0  0  0
   20.5363   15.0454   24.2060 H   0  0  0  0  0  0  0  0  0  0  0  0
   18.1129   12.7803   22.6431 H   0  0  0  0  0  0  0  0  0  0  0  0
   19.2722   13.0502   21.2978 H   0  0  0  0  0  0  0  0  0  0  0  0
   18.2195   11.5947   21.2978 H   0  0  0  0  0  0  0  0  0  0  0  0
   19.1082    9.2042   20.9008 H   0  0  0  0  0  0  0  0  0  0  0  0
   19.5060   10.7912   20.1593 H   0  0  0  0  0  0  0  0  0  0  0  0
   20.7226    9.4697   20.1593 H   0  0  0  0  0  0  0  0  0  0  0  0
   22.6384    7.6601   23.2874 H   0  0  0  0  0  0  0  0  0  0  0  0
   24.3845    8.0764   23.7421 H   0  0  0  0  0  0  0  0  0  0  0  0
   23.9236    7.2186   25.9653 H   0  0  0  0  0  0  0  0  0  0  0  0
   24.4049    5.1588   25.3148 H   0  0  0  0  0  0  0  0  0  0  0  0
   21.2733    7.1725   25.0917 H   0  0  0  0  0  0  0  0  0  0  0  0
   22.0275    7.2564   27.3215 H   0  0  0  0  0  0  0  0  0  0  0  0
   22.3125    4.3466   25.2085 H   0  0  0  0  0  0  0  0  0  0  0  0
   21.0183    6.0874   23.2566 H   0  0  0  0  0  0  0  0  0  0  0  0
   19.6913    5.4005   25.8942 H   0  0  0  0  0  0  0  0  0  0  0  0
   19.6612    4.1505   24.6108 H   0  0  0  0  0  0  0  0  0  0  0  0
  1  2  2  0
  1 22  1  0
  2  3  1  0
  2 21  1  0
  3  5  2  0
  3 20  1  0
  4 12  1  0
  4 15  2  0
  4 23  1  0
  5  9  1  0
  5 19  1  0
  6  7  1  0
  6 13  1  0
  7 11  2  0
  7 12  1  0
  9  8  1  6
  9 17  1  0
  9 18  1  0
 10 16  2  0
 10 17  1  0
 13 14  2  0
 13 15  1  0
 15 16  1  0
 16 19  1  0
 19 22  2  0
 22 23  1  0
 23 24  1  0
 24 25  1  0
 25 26  1  0
 25 27  1  0
 27 28  1  0
 27 29  1  0
 29 30  1  0
 29 31  1  0
 31 32  1  0
 32 33  1  0
 33 34  2  0
 33 35  1  1
 33 36  1  0
  1 37  1  0
  6 38  1  0
  8 39  1  0
  8 40  1  0
  8 41  1  0
 10 42  1  0
 12 43  1  0
 17 44  1  0
 17 45  1  0
 18 46  1  0
 18 47  1  0
 18 48  1  0
 20 49  1  0
 20 50  1  0
 20 51  1  0
 21 52  1  0
 21 53  1  0
 21 54  1  0
 24 55  1  0
 24 56  1  0
 25 57  1  1
 26 58  1  0
 27 59  1  1
 28 60  1  0
 29 61  1  6
 30 62  1  0
 31 63  1  0
 31 64  1  0
M  CHG  3  16   1  35  -1  36  -1
M  END
>  <filename_input>  (18) 
7NF3_4LU_docked.sdf

>  <pdb_id>  (18) 
7NF3_4LU

>  <pose_rank>  (18) 
17

>  <num_atoms_heavy>  (18) 
36

>  <num_torsions>  (18) 
7

>  <pose>  (18) 
[21.466433446979032, 9.716514559457199, 22.6697642599269, 0.5736253635030755, 0.5986738798870205, 0.1580903617903507, -4.060064192753638, -1.9163015052783428, -1.172603158171611, -4.145376542230524, 1.2528295234807625, -1.6072970687050403, -3.120927756739444]

>  <energy>  (18) 
-567.0579263031236

>  <inter_energy>  (18) 
-603.4849683149968

>  <intra_energy>  (18) 
37.341188696785196

>  <rmsd>  (18) 
4.38874

>  <sdf_rank>  (18) 
0

$$$$

     RDKit          3D

 64 67  0  0  0  0  0  0  0  0999 V2000
   20.2539   10.8589   24.6810 C   0  0  0  0  0  0  0  0  0  0  0  0
   20.8055    9.7337   25.2905 C   0  0  0  0  0  0  0  0  0  0  0  0
   21.3469    8.7024   24.5243 C   0  0  0  0  0  0  0  0  0  0  0  0
   19.7358   12.3172   21.3594 C   0  0  0  0  0  0  0  0  0  0  0  0
   21.2942    8.8204   23.1161 C   0  0  0  0  0  0  0  0  0  0  0  0
   20.2885   12.9206   18.8267 N   0  0  0  0  0  0  0  0  0  0  0  0
   19.5980   13.8230   19.5747 C   0  0  0  0  0  0  0  0  0  0  0  0
   22.2171    6.3968   22.5625 C   0  0  0  0  0  0  0  0  0  0  0  0
   21.9130    7.8217   22.1103 C   0  0  1  0  0  0  0  0  0  0  0  0
   20.7000    8.9959   20.3221 C   0  0  0  0  0  0  0  0  0  0  0  0
   19.4101   14.9377   19.1060 O   0  0  0  0  0  0  0  0  0  0  0  0
   19.3279   13.4947   20.8632 N   0  0  0  0  0  0  0  0  0  0  0  0
   20.6278   11.6572   19.2378 C   0  0  0  0  0  0  0  0  0  0  0  0
   21.3179   10.9623   18.4495 O   0  0  0  0  0  0  0  0  0  0  0  0
   20.3607   11.3581   20.5716 C   0  0  0  0  0  0  0  0  0  0  0  0
   20.6630   10.0992   21.1399 N   0  0  0  0  0  0  0  0  0  0  0  0
   20.8878    7.6837   20.9871 C   0  0  0  0  0  0  0  0  0  0  0  0
   23.1901    8.4231   21.5503 C   0  0  0  0  0  0  0  0  0  0  0  0
   20.7026    9.9682   22.5427 C   0  0  0  0  0  0  0  0  0  0  0  0
   21.9940    7.5485   25.2579 C   0  0  0  0  0  0  0  0  0  0  0  0
   20.7306    9.6108   26.7935 C   0  0  0  0  0  0  0  0  0  0  0  0
   20.2011   10.9831   23.2932 C   0  0  0  0  0  0  0  0  0  0  0  0
   19.5773   12.1087   22.6902 N   0  0  0  0  0  0  0  0  0  0  0  0
   18.7280   13.0458   23.4502 C   0  0  0  0  0  0  0  0  0  0  0  0
   19.4237   14.1895   24.1192 C   0  0  2  0  0  0  0  0  0  0  0  0
   20.6675   14.4654   23.4941 O   0  0  0  0  0  0  0  0  0  0  0  0
   19.6632   13.8892   25.5824 C   0  0  2  0  0  0  0  0  0  0  0  0
   18.7976   14.7866   26.3347 O   0  0  0  0  0  0  0  0  0  0  0  0
   21.1034   14.1090   26.0168 C   0  0  2  0  0  0  0  0  0  0  0  0
   21.9540   13.4816   25.0375 O   0  0  0  0  0  0  0  0  0  0  0  0
   21.4262   13.5750   27.3812 C   0  0  0  0  0  0  0  0  0  0  0  0
   22.8856   13.5005   27.5286 O   0  0  0  0  0  0  0  0  0  0  0  0
   23.5376   12.4195   28.5221 P   0  0  1  0  0  0  0  0  0  0  0  0
   22.3456   12.0068   29.3812 O   0  0  0  0  0  0  0  0  0  0  0  0
   24.1246   11.3377   27.7003 O   0  0  0  0  0  0  0  0  0  0  0  0
   24.5657   13.1732   29.3434 O   0  0  0  0  0  0  0  0  0  0  0  0
   19.8512   11.6674   25.3088 H   0  0  0  0  0  0  0  0  0  0  0  0
   20.5781   13.2078   17.8809 H   0  0  0  0  0  0  0  0  0  0  0  0
   22.2261    6.3549   23.6617 H   0  0  0  0  0  0  0  0  0  0  0  0
   21.4440    5.7165   22.1760 H   0  0  0  0  0  0  0  0  0  0  0  0
   23.2007    6.0915   22.1760 H   0  0  0  0  0  0  0  0  0  0  0  0
   20.5958    9.0813   19.2303 H   0  0  0  0  0  0  0  0  0  0  0  0
   18.8079   14.1517   21.4622 H   0  0  0  0  0  0  0  0  0  0  0  0
   21.2468    6.9485   20.2519 H   0  0  0  0  0  0  0  0  0  0  0  0
   19.9287    7.3459   21.4069 H   0  0  0  0  0  0  0  0  0  0  0  0
   23.8445    8.7312   22.3790 H   0  0  0  0  0  0  0  0  0  0  0  0
   23.7081    7.6743   20.9330 H   0  0  0  0  0  0  0  0  0  0  0  0
   22.9428    9.2994   20.9330 H   0  0  0  0  0  0  0  0  0  0  0  0
   21.9049    7.7075   26.3427 H   0  0  0  0  0  0  0  0  0  0  0  0
   21.4905    6.6102   24.9822 H   0  0  0  0  0  0  0  0  0  0  0  0
   23.0573    7.4888   24.9822 H   0  0  0  0  0  0  0  0  0  0  0  0
   21.2496   10.4625   27.2573 H   0  0  0  0  0  0  0  0  0  0  0  0
   19.6768    9.6075   27.1091 H   0  0  0  0  0  0  0  0  0  0  0  0
   21.2108    8.6728   27.1091 H   0  0  0  0  0  0  0  0  0  0  0  0
   17.9889   13.4668   22.7528 H   0  0  0  0  0  0  0  0  0  0  0  0
   18.2985   12.4492   24.2685 H   0  0  0  0  0  0  0  0  0  0  0  0
   18.7706   15.0700   24.0279 H   0  0  0  0  0  0  0  0  0  0  0  0
   21.3581   14.6186   24.1867 H   0  0  0  0  0  0  0  0  0  0  0  0
   19.4475   12.8261   25.7651 H   0  0  0  0  0  0  0  0  0  0  0  0
   18.9362   14.6429   27.3043 H   0  0  0  0  0  0  0  0  0  0  0  0
   21.2679   15.1947   26.0817 H   0  0  0  0  0  0  0  0  0  0  0  0
   22.6593   12.9613   25.4980 H   0  0  0  0  0  0  0  0  0  0  0  0
   21.0111   14.2454   28.1481 H   0  0  0  0  0  0  0  0  0  0  0  0
   20.9871   12.5738   27.5035 H   0  0  0  0  0  0  0  0  0  0  0  0
  1  2  2  0
  1 22  1  0
  2  3  1  0
  2 21  1  0
  3  5  2  0
  3 20  1  0
  4 12  1  0
  4 15  2  0
  4 23  1  0
  5  9  1  0
  5 19  1  0
  6  7  1  0
  6 13  1  0
  7 11  2  0
  7 12  1  0
  9  8  1  1
  9 17  1  0
  9 18  1  0
 10 16  2  0
 10 17  1  0
 13 14  2  0
 13 15  1  0
 15 16  1  0
 16 19  1  0
 19 22  2  0
 22 23  1  0
 23 24  1  0
 24 25  1  0
 25 26  1  0
 25 27  1  0
 27 28  1  0
 27 29  1  0
 29 30  1  0
 29 31  1  0
 31 32  1  0
 32 33  1  0
 33 34  2  0
 33 35  1  6
 33 36  1  0
  1 37  1  0
  6 38  1  0
  8 39  1  0
  8 40  1  0
  8 41  1  0
 10 42  1  0
 12 43  1  0
 17 44  1  0
 17 45  1  0
 18 46  1  0
 18 47  1  0
 18 48  1  0
 20 49  1  0
 20 50  1  0
 20 51  1  0
 21 52  1  0
 21 53  1  0
 21 54  1  0
 24 55  1  0
 24 56  1  0
 25 57  1  1
 26 58  1  0
 27 59  1  6
 28 60  1  0
 29 61  1  1
 30 62  1  0
 31 63  1  0
 31 64  1  0
M  CHG  3  16   1  35  -1  36  -1
M  END
>  <filename_input>  (19) 
7NF3_4LU_docked.sdf

>  <pdb_id>  (19) 
7NF3_4LU

>  <pose_rank>  (19) 
18

>  <num_atoms_heavy>  (19) 
36

>  <num_torsions>  (19) 
7

>  <pose>  (19) 
[20.253939188017505, 10.858919649481551, 24.681010839593963, 3.6162920368941647, 1.6588560178078375, -0.4826665494498534, -0.2614708523933065, -4.888858849452542, -0.7910642380104362, 2.4667239663898686, -0.3879394969426024, -0.6190962615872729, 2.645684732534403]

>  <energy>  (19) 
-572.1592425239766

>  <inter_energy>  (19) 
-646.4009547937034

>  <intra_energy>  (19) 
75.92407991041947

>  <rmsd>  (19) 
6.78536

>  <sdf_rank>  (19) 
0

$$$$

     RDKit          3D

 64 67  0  0  0  0  0  0  0  0999 V2000
   20.0800    4.8604   26.2395 C   0  0  0  0  0  0  0  0  0  0  0  0
   19.2823    4.0698   27.0644 C   0  0  0  0  0  0  0  0  0  0  0  0
   19.7995    3.5120   28.2327 C   0  0  0  0  0  0  0  0  0  0  0  0
   23.4603    6.2643   26.0642 C   0  0  0  0  0  0  0  0  0  0  0  0
   21.1596    3.7493   28.5388 C   0  0  0  0  0  0  0  0  0  0  0  0
   25.7246    7.3393   26.9595 N   0  0  0  0  0  0  0  0  0  0  0  0
   25.2648    7.7161   25.7358 C   0  0  0  0  0  0  0  0  0  0  0  0
   21.2970    2.1318   30.6357 C   0  0  0  0  0  0  0  0  0  0  0  0
   21.8823    3.2836   29.8243 C   0  0  1  0  0  0  0  0  0  0  0  0
   24.0060    3.9370   28.7703 C   0  0  0  0  0  0  0  0  0  0  0  0
   25.8166    8.6537   25.1756 O   0  0  0  0  0  0  0  0  0  0  0  0
   24.1086    7.1557   25.2999 N   0  0  0  0  0  0  0  0  0  0  0  0
   25.1746    6.3499   27.7334 C   0  0  0  0  0  0  0  0  0  0  0  0
   25.6819    6.1588   28.8678 O   0  0  0  0  0  0  0  0  0  0  0  0
   23.9757    5.8115   27.2727 C   0  0  0  0  0  0  0  0  0  0  0  0
   23.2878    4.7908   27.9685 N   0  0  0  0  0  0  0  0  0  0  0  0
   23.2590    2.8045   29.3694 C   0  0  0  0  0  0  0  0  0  0  0  0
   22.0487    4.4770   30.7488 C   0  0  0  0  0  0  0  0  0  0  0  0
   21.9363    4.5365   27.6594 C   0  0  0  0  0  0  0  0  0  0  0  0
   18.8532    2.7276   29.1145 C   0  0  0  0  0  0  0  0  0  0  0  0
   17.8711    3.7572   26.6280 C   0  0  0  0  0  0  0  0  0  0  0  0
   21.4210    5.1007   26.5366 C   0  0  0  0  0  0  0  0  0  0  0  0
   22.2348    5.8567   25.6500 N   0  0  0  0  0  0  0  0  0  0  0  0
   21.8139    6.1872   24.2750 C   0  0  0  0  0  0  0  0  0  0  0  0
   21.6924    7.6412   23.9422 C   0  0  2  0  0  0  0  0  0  0  0  0
   20.4739    8.1766   24.4347 O   0  0  0  0  0  0  0  0  0  0  0  0
   21.7560    7.8556   22.4460 C   0  0  2  0  0  0  0  0  0  0  0  0
   22.9480    7.1608   21.9801 O   0  0  0  0  0  0  0  0  0  0  0  0
   21.8481    9.3200   22.0485 C   0  0  2  0  0  0  0  0  0  0  0  0
   21.7013   10.1064   23.2470 O   0  0  0  0  0  0  0  0  0  0  0  0
   20.8294    9.7510   21.0349 C   0  0  0  0  0  0  0  0  0  0  0  0
   21.1387   11.1205   20.6037 O   0  0  0  0  0  0  0  0  0  0  0  0
   20.0754   12.2990   20.8508 P   0  0  1  0  0  0  0  0  0  0  0  0
   19.2364   11.7446   21.9988 O   0  0  0  0  0  0  0  0  0  0  0  0
   20.8265   13.5358   21.1614 O   0  0  0  0  0  0  0  0  0  0  0  0
   19.2579   12.3982   19.5775 O   0  0  0  0  0  0  0  0  0  0  0  0
   19.6420    5.3050   25.3337 H   0  0  0  0  0  0  0  0  0  0  0  0
   26.5473    7.8342   27.3325 H   0  0  0  0  0  0  0  0  0  0  0  0
   21.4062    2.3467   31.7090 H   0  0  0  0  0  0  0  0  0  0  0  0
   20.2307    2.0160   30.3916 H   0  0  0  0  0  0  0  0  0  0  0  0
   21.8321    1.2023   30.3916 H   0  0  0  0  0  0  0  0  0  0  0  0
   25.0796    4.0857   28.9582 H   0  0  0  0  0  0  0  0  0  0  0  0
   23.7274    7.4157   24.3790 H   0  0  0  0  0  0  0  0  0  0  0  0
   23.8157    2.4154   30.2346 H   0  0  0  0  0  0  0  0  0  0  0  0
   23.1398    2.0079   28.6203 H   0  0  0  0  0  0  0  0  0  0  0  0
   22.0017    4.1398   31.7948 H   0  0  0  0  0  0  0  0  0  0  0  0
   23.0220    4.9537   30.5606 H   0  0  0  0  0  0  0  0  0  0  0  0
   21.2429    5.2017   30.5606 H   0  0  0  0  0  0  0  0  0  0  0  0
   19.0893    2.9233   30.1709 H   0  0  0  0  0  0  0  0  0  0  0  0
   17.8180    3.0361   28.9069 H   0  0  0  0  0  0  0  0  0  0  0  0
   18.9643    1.6531   28.9069 H   0  0  0  0  0  0  0  0  0  0  0  0
   17.2357    3.6164   27.5149 H   0  0  0  0  0  0  0  0  0  0  0  0
   17.4804    4.5905   26.0256 H   0  0  0  0  0  0  0  0  0  0  0  0
   17.8690    2.8368   26.0256 H   0  0  0  0  0  0  0  0  0  0  0  0
   22.5501    5.7476   23.5860 H   0  0  0  0  0  0  0  0  0  0  0  0
   20.7960    5.7817   24.1782 H   0  0  0  0  0  0  0  0  0  0  0  0
   22.5350    8.1598   24.4229 H   0  0  0  0  0  0  0  0  0  0  0  0
   20.4871    8.1708   25.4246 H   0  0  0  0  0  0  0  0  0  0  0  0
   20.8285    7.4738   21.9943 H   0  0  0  0  0  0  0  0  0  0  0  0
   23.4761    6.8530   22.7589 H   0  0  0  0  0  0  0  0  0  0  0  0
   22.8241    9.4713   21.5642 H   0  0  0  0  0  0  0  0  0  0  0  0
   21.8101    9.5233   24.0396 H   0  0  0  0  0  0  0  0  0  0  0  0
   20.8616    9.0745   20.1680 H   0  0  0  0  0  0  0  0  0  0  0  0
   19.8236    9.7178   21.4792 H   0  0  0  0  0  0  0  0  0  0  0  0
  1  2  2  0
  1 22  1  0
  2  3  1  0
  2 21  1  0
  3  5  2  0
  3 20  1  0
  4 12  1  0
  4 15  2  0
  4 23  1  0
  5  9  1  0
  5 19  1  0
  6  7  1  0
  6 13  1  0
  7 11  2  0
  7 12  1  0
  9  8  1  1
  9 17  1  0
  9 18  1  0
 10 16  2  0
 10 17  1  0
 13 14  2  0
 13 15  1  0
 15 16  1  0
 16 19  1  0
 19 22  2  0
 22 23  1  0
 23 24  1  0
 24 25  1  0
 25 26  1  0
 25 27  1  0
 27 28  1  0
 27 29  1  0
 29 30  1  0
 29 31  1  0
 31 32  1  0
 32 33  1  0
 33 34  2  0
 33 35  1  1
 33 36  1  0
  1 37  1  0
  6 38  1  0
  8 39  1  0
  8 40  1  0
  8 41  1  0
 10 42  1  0
 12 43  1  0
 17 44  1  0
 17 45  1  0
 18 46  1  0
 18 47  1  0
 18 48  1  0
 20 49  1  0
 20 50  1  0
 20 51  1  0
 21 52  1  0
 21 53  1  0
 21 54  1  0
 24 55  1  0
 24 56  1  0
 25 57  1  1
 26 58  1  0
 27 59  1  6
 28 60  1  0
 29 61  1  6
 30 62  1  0
 31 63  1  0
 31 64  1  0
M  CHG  3  16   1  35  -1  36  -1
M  END
>  <filename_input>  (20) 
7NF3_4LU_docked.sdf

>  <pdb_id>  (20) 
7NF3_4LU

>  <pose_rank>  (20) 
19

>  <num_atoms_heavy>  (20) 
36

>  <num_torsions>  (20) 
7

>  <pose>  (20) 
[20.080036139810268, 4.860439176763156, 26.23954886619266, -1.997475584686769, -2.485923777456062, -1.6091442622205674, 0.28752133381923056, -0.3888730266442507, 0.2532889463417917, 3.1784061420877894, 0.02193638891425656, -0.02901855522084437, -2.9592175197984334]

>  <energy>  (20) 
-478.49212846644326

>  <inter_energy>  (20) 
-516.6786628714434

>  <intra_energy>  (20) 
45.821825012662714

>  <rmsd>  (20) 
9.19776

>  <sdf_rank>  (20) 
0

$$$$

     RDKit          3D

 64 67  0  0  0  0  0  0  0  0999 V2000
   22.7304    8.1416   25.6563 C   0  0  0  0  0  0  0  0  0  0  0  0
   22.2975    9.4503   25.4517 C   0  0  0  0  0  0  0  0  0  0  0  0
   23.0556   10.5298   25.9030 C   0  0  0  0  0  0  0  0  0  0  0  0
   25.5608    6.2763   27.0482 C   0  0  0  0  0  0  0  0  0  0  0  0
   24.2577   10.2562   26.5958 C   0  0  0  0  0  0  0  0  0  0  0  0
   28.1005    5.7435   27.6401 N   0  0  0  0  0  0  0  0  0  0  0  0
   27.2648    4.7056   27.3661 C   0  0  0  0  0  0  0  0  0  0  0  0
   24.7984   12.7584   27.2878 C   0  0  0  0  0  0  0  0  0  0  0  0
   25.2644   11.3184   27.0957 C   0  0  1  0  0  0  0  0  0  0  0  0
   26.3946    9.5361   28.3581 C   0  0  0  0  0  0  0  0  0  0  0  0
   27.7525    3.5908   27.2367 O   0  0  0  0  0  0  0  0  0  0  0  0
   25.9748    5.0006   27.0665 N   0  0  0  0  0  0  0  0  0  0  0  0
   27.7125    7.0538   27.7540 C   0  0  0  0  0  0  0  0  0  0  0  0
   28.6155    7.9051   27.9549 O   0  0  0  0  0  0  0  0  0  0  0  0
   26.3897    7.3292   27.4162 C   0  0  0  0  0  0  0  0  0  0  0  0
   25.8495    8.6344   27.4763 N   0  0  0  0  0  0  0  0  0  0  0  0
   25.7069   10.8445   28.4782 C   0  0  0  0  0  0  0  0  0  0  0  0
   26.4634   11.3296   26.1636 C   0  0  0  0  0  0  0  0  0  0  0  0
   24.6436    8.9127   26.8017 C   0  0  0  0  0  0  0  0  0  0  0  0
   22.5583   11.9210   25.5784 C   0  0  0  0  0  0  0  0  0  0  0  0
   20.9511    9.6783   24.8075 C   0  0  0  0  0  0  0  0  0  0  0  0
   23.9158    7.8647   26.3363 C   0  0  0  0  0  0  0  0  0  0  0  0
   24.3079    6.5226   26.5908 N   0  0  0  0  0  0  0  0  0  0  0  0
   23.3901    5.3813   26.4122 C   0  0  0  0  0  0  0  0  0  0  0  0
   21.9872    5.5664   26.8992 C   0  0  2  0  0  0  0  0  0  0  0  0
   21.9634    5.8446   28.2906 O   0  0  0  0  0  0  0  0  0  0  0  0
   21.1586    4.3297   26.6294 C   0  0  2  0  0  0  0  0  0  0  0  0
   20.2210    4.6839   25.5731 O   0  0  0  0  0  0  0  0  0  0  0  0
   20.3801    3.8472   27.8427 C   0  0  2  0  0  0  0  0  0  0  0  0
   21.2868    3.0919   28.6696 O   0  0  0  0  0  0  0  0  0  0  0  0
   19.1801    3.0087   27.5141 C   0  0  0  0  0  0  0  0  0  0  0  0
   18.0585    3.4320   28.3627 O   0  0  0  0  0  0  0  0  0  0  0  0
   17.6394    2.5496   29.6379 P   0  0  1  0  0  0  0  0  0  0  0  0
   18.1706    3.3845   30.7998 O   0  0  0  0  0  0  0  0  0  0  0  0
   16.1703    2.3738   29.6103 O   0  0  0  0  0  0  0  0  0  0  0  0
   18.4016    1.2447   29.5120 O   0  0  0  0  0  0  0  0  0  0  0  0
   22.1233    7.3083   25.2729 H   0  0  0  0  0  0  0  0  0  0  0  0
   29.0992    5.5291   27.7719 H   0  0  0  0  0  0  0  0  0  0  0  0
   24.7266   12.9802   28.3628 H   0  0  0  0  0  0  0  0  0  0  0  0
   25.5208   13.4431   26.8196 H   0  0  0  0  0  0  0  0  0  0  0  0
   23.8118   12.8900   26.8196 H   0  0  0  0  0  0  0  0  0  0  0  0
   27.2946    9.2997   28.9446 H   0  0  0  0  0  0  0  0  0  0  0  0
   25.3113    4.2425   26.8523 H   0  0  0  0  0  0  0  0  0  0  0  0
   26.3966   11.5820   28.9147 H   0  0  0  0  0  0  0  0  0  0  0  0
   24.8254   10.7361   29.1271 H   0  0  0  0  0  0  0  0  0  0  0  0
   27.3893   11.3382   26.7574 H   0  0  0  0  0  0  0  0  0  0  0  0
   26.4430   10.4312   25.5292 H   0  0  0  0  0  0  0  0  0  0  0  0
   26.4263   12.2274   25.5292 H   0  0  0  0  0  0  0  0  0  0  0  0
   22.3628   12.4678   26.5127 H   0  0  0  0  0  0  0  0  0  0  0  0
   23.3209   12.4558   24.9933 H   0  0  0  0  0  0  0  0  0  0  0  0
   21.6295   11.8512   24.9933 H   0  0  0  0  0  0  0  0  0  0  0  0
   20.1879    9.8075   25.5891 H   0  0  0  0  0  0  0  0  0  0  0  0
   20.9922   10.5822   24.1821 H   0  0  0  0  0  0  0  0  0  0  0  0
   20.6923    8.8112   24.1821 H   0  0  0  0  0  0  0  0  0  0  0  0
   23.3428    5.1563   25.3364 H   0  0  0  0  0  0  0  0  0  0  0  0
   23.8077    4.5738   27.0315 H   0  0  0  0  0  0  0  0  0  0  0  0
   21.5598    6.4202   26.3530 H   0  0  0  0  0  0  0  0  0  0  0  0
   22.0359    4.9974   28.7978 H   0  0  0  0  0  0  0  0  0  0  0  0
   21.8327    3.5062   26.3512 H   0  0  0  0  0  0  0  0  0  0  0  0
   19.3751    5.0034   25.9762 H   0  0  0  0  0  0  0  0  0  0  0  0
   19.9839    4.7352   28.3569 H   0  0  0  0  0  0  0  0  0  0  0  0
   21.0829    3.2618   29.6233 H   0  0  0  0  0  0  0  0  0  0  0  0
   18.9139    3.1435   26.4554 H   0  0  0  0  0  0  0  0  0  0  0  0
   19.4055    1.9474   27.6955 H   0  0  0  0  0  0  0  0  0  0  0  0
  1  2  2  0
  1 22  1  0
  2  3  1  0
  2 21  1  0
  3  5  2  0
  3 20  1  0
  4 12  1  0
  4 15  2  0
  4 23  1  0
  5  9  1  0
  5 19  1  0
  6  7  1  0
  6 13  1  0
  7 11  2  0
  7 12  1  0
  9  8  1  1
  9 17  1  0
  9 18  1  0
 10 16  2  0
 10 17  1  0
 13 14  2  0
 13 15  1  0
 15 16  1  0
 16 19  1  0
 19 22  2  0
 22 23  1  0
 23 24  1  0
 24 25  1  0
 25 26  1  0
 25 27  1  0
 27 28  1  0
 27 29  1  0
 29 30  1  0
 29 31  1  0
 31 32  1  0
 32 33  1  0
 33 34  2  0
 33 35  1  1
 33 36  1  0
  1 37  1  0
  6 38  1  0
  8 39  1  0
  8 40  1  0
  8 41  1  0
 10 42  1  0
 12 43  1  0
 17 44  1  0
 17 45  1  0
 18 46  1  0
 18 47  1  0
 18 48  1  0
 20 49  1  0
 20 50  1  0
 20 51  1  0
 21 52  1  0
 21 53  1  0
 21 54  1  0
 24 55  1  0
 24 56  1  0
 25 57  1  6
 26 58  1  0
 27 59  1  6
 28 60  1  0
 29 61  1  1
 30 62  1  0
 31 63  1  0
 31 64  1  0
M  CHG  3  16   1  35  -1  36  -1
M  END
>  <filename_input>  (21) 
7NF3_4LU_docked.sdf

>  <pdb_id>  (21) 
7NF3_4LU

>  <pose_rank>  (21) 
20

>  <num_atoms_heavy>  (21) 
36

>  <num_torsions>  (21) 
7

>  <pose>  (21) 
[22.730367682859164, 8.141618304098415, 25.65634441493005, 0.7282355449869211, 0.9466734746569284, -0.8369961614031081, 3.751508805007433, -6.330166078125368, 5.525404074099071, -10.69260068669039, -5.638902505648803, 0.2516267269499588, -1.5123689983269888]

>  <energy>  (21) 
-511.43750639900554

>  <inter_energy>  (21) 
-552.6140960386956

>  <intra_energy>  (21) 
31.164767682905

>  <rmsd>  (21) 
7.64453

>  <sdf_rank>  (21) 
0

$$$$

     RDKit          3D

 64 67  0  0  0  0  0  0  0  0999 V2000
   25.1991    8.7928   26.5490 C   0  0  0  0  0  0  0  0  0  0  0  0
   25.4817    7.4578   26.2666 C   0  0  0  0  0  0  0  0  0  0  0  0
   24.5165    6.6317   25.6925 C   0  0  0  0  0  0  0  0  0  0  0  0
   22.5139   11.2601   26.1884 C   0  0  0  0  0  0  0  0  0  0  0  0
   23.2393    7.1804   25.4327 C   0  0  0  0  0  0  0  0  0  0  0  0
   20.4534   12.5014   25.0492 N   0  0  0  0  0  0  0  0  0  0  0  0
   21.3344   13.2381   25.7784 C   0  0  0  0  0  0  0  0  0  0  0  0
   22.0714    4.9194   24.6870 C   0  0  0  0  0  0  0  0  0  0  0  0
   22.0751    6.4444   24.7293 C   0  0  1  0  0  0  0  0  0  0  0  0
   20.6051    8.2986   25.3992 C   0  0  0  0  0  0  0  0  0  0  0  0
   21.2388   14.4574   25.7386 O   0  0  0  0  0  0  0  0  0  0  0  0
   22.3774   12.5847   26.3496 N   0  0  0  0  0  0  0  0  0  0  0  0
   20.4710   11.1341   24.9462 C   0  0  0  0  0  0  0  0  0  0  0  0
   19.6215   10.6041   24.1860 O   0  0  0  0  0  0  0  0  0  0  0  0
   21.5663   10.4938   25.5208 C   0  0  0  0  0  0  0  0  0  0  0  0
   21.7253    9.0893   25.4864 N   0  0  0  0  0  0  0  0  0  0  0  0
   20.8174    6.8345   25.5025 C   0  0  0  0  0  0  0  0  0  0  0  0
   21.9650    6.9575   23.3042 C   0  0  0  0  0  0  0  0  0  0  0  0
   22.9910    8.5324   25.7593 C   0  0  0  0  0  0  0  0  0  0  0  0
   24.9206    5.2155   25.3467 C   0  0  0  0  0  0  0  0  0  0  0  0
   26.8243    6.8977   26.6708 C   0  0  0  0  0  0  0  0  0  0  0  0
   23.9428    9.3410   26.2929 C   0  0  0  0  0  0  0  0  0  0  0  0
   23.6544   10.6869   26.6469 N   0  0  0  0  0  0  0  0  0  0  0  0
   24.5319   11.4799   27.5290 C   0  0  0  0  0  0  0  0  0  0  0  0
   25.9998   11.4207   27.2435 C   0  0  2  0  0  0  0  0  0  0  0  0
   26.5986   10.3039   27.8823 O   0  0  0  0  0  0  0  0  0  0  0  0
   26.6881   12.6840   27.7114 C   0  0  2  0  0  0  0  0  0  0  0  0
   25.6862   13.4568   28.4321 O   0  0  0  0  0  0  0  0  0  0  0  0
   27.2418   13.5275   26.5743 C   0  0  2  0  0  0  0  0  0  0  0  0
   28.2563   12.7497   25.9094 O   0  0  0  0  0  0  0  0  0  0  0  0
   27.8175   14.8444   27.0047 C   0  0  0  0  0  0  0  0  0  0  0  0
   29.2635   14.8372   26.7469 O   0  0  0  0  0  0  0  0  0  0  0  0
   30.1319   16.1628   27.0096 P   0  0  1  0  0  0  0  0  0  0  0  0
   29.5162   16.7052   28.2965 O   0  0  0  0  0  0  0  0  0  0  0  0
   31.5540   15.7659   27.1119 O   0  0  0  0  0  0  0  0  0  0  0  0
   29.8501   17.0859   25.8400 O   0  0  0  0  0  0  0  0  0  0  0  0
   25.9846    9.4284   26.9836 H   0  0  0  0  0  0  0  0  0  0  0  0
   19.7182   13.0085   24.5362 H   0  0  0  0  0  0  0  0  0  0  0  0
   22.0704    4.5241   25.7135 H   0  0  0  0  0  0  0  0  0  0  0  0
   21.1724    4.5694   24.1584 H   0  0  0  0  0  0  0  0  0  0  0  0
   22.9687    4.5651   24.1584 H   0  0  0  0  0  0  0  0  0  0  0  0
   19.6025    8.7293   25.2600 H   0  0  0  0  0  0  0  0  0  0  0  0
   23.0665   13.1076   26.9087 H   0  0  0  0  0  0  0  0  0  0  0  0
   19.9493    6.3078   25.0795 H   0  0  0  0  0  0  0  0  0  0  0  0
   20.9372    6.5560   26.5599 H   0  0  0  0  0  0  0  0  0  0  0  0
   21.7343    8.0329   23.3185 H   0  0  0  0  0  0  0  0  0  0  0  0
   22.9186    6.7940   22.7809 H   0  0  0  0  0  0  0  0  0  0  0  0
   21.1623    6.4172   22.7809 H   0  0  0  0  0  0  0  0  0  0  0  0
   25.0836    4.6443   26.2725 H   0  0  0  0  0  0  0  0  0  0  0  0
   24.1224    4.7398   24.7580 H   0  0  0  0  0  0  0  0  0  0  0  0
   25.8497    5.2328   24.7580 H   0  0  0  0  0  0  0  0  0  0  0  0
   26.8941    6.8686   27.7682 H   0  0  0  0  0  0  0  0  0  0  0  0
   26.9328    5.8794   26.2694 H   0  0  0  0  0  0  0  0  0  0  0  0
   27.6243    7.5372   26.2694 H   0  0  0  0  0  0  0  0  0  0  0  0
   24.2193   12.5317   27.4524 H   0  0  0  0  0  0  0  0  0  0  0  0
   24.4132   11.0378   28.5292 H   0  0  0  0  0  0  0  0  0  0  0  0
   26.1188   11.3203   26.1545 H   0  0  0  0  0  0  0  0  0  0  0  0
   26.5392   10.4146   28.8644 H   0  0  0  0  0  0  0  0  0  0  0  0
   27.5510   12.4065   28.3346 H   0  0  0  0  0  0  0  0  0  0  0  0
   25.8249   13.3498   29.4065 H   0  0  0  0  0  0  0  0  0  0  0  0
   26.4026   13.7790   25.9092 H   0  0  0  0  0  0  0  0  0  0  0  0
   28.8304   12.3095   26.5852 H   0  0  0  0  0  0  0  0  0  0  0  0
   27.3447   15.6581   26.4352 H   0  0  0  0  0  0  0  0  0  0  0  0
   27.6305   15.0008   28.0773 H   0  0  0  0  0  0  0  0  0  0  0  0
  1  2  2  0
  1 22  1  0
  2  3  1  0
  2 21  1  0
  3  5  2  0
  3 20  1  0
  4 12  1  0
  4 15  2  0
  4 23  1  0
  5  9  1  0
  5 19  1  0
  6  7  1  0
  6 13  1  0
  7 11  2  0
  7 12  1  0
  9  8  1  6
  9 17  1  0
  9 18  1  0
 10 16  2  0
 10 17  1  0
 13 14  2  0
 13 15  1  0
 15 16  1  0
 16 19  1  0
 19 22  2  0
 22 23  1  0
 23 24  1  0
 24 25  1  0
 25 26  1  0
 25 27  1  0
 27 28  1  0
 27 29  1  0
 29 30  1  0
 29 31  1  0
 31 32  1  0
 32 33  1  0
 33 34  2  0
 33 35  1  1
 33 36  1  0
  1 37  1  0
  6 38  1  0
  8 39  1  0
  8 40  1  0
  8 41  1  0
 10 42  1  0
 12 43  1  0
 17 44  1  0
 17 45  1  0
 18 46  1  0
 18 47  1  0
 18 48  1  0
 20 49  1  0
 20 50  1  0
 20 51  1  0
 21 52  1  0
 21 53  1  0
 21 54  1  0
 24 55  1  0
 24 56  1  0
 25 57  1  6
 26 58  1  0
 27 59  1  1
 28 60  1  0
 29 61  1  6
 30 62  1  0
 31 63  1  0
 31 64  1  0
M  CHG  3  16   1  35  -1  36  -1
M  END
>  <filename_input>  (22) 
7NF3_4LU_docked.sdf

>  <pdb_id>  (22) 
7NF3_4LU

>  <pose_rank>  (22) 
21

>  <num_atoms_heavy>  (22) 
36

>  <num_torsions>  (22) 
7

>  <pose>  (22) 
[25.19905046651227, 8.792768332250935, 26.548971385911024, 3.3914273754048323, -0.6066036082348536, -2.8791838564830834, -0.9924049030782942, -0.4990711966101411, -5.013827741525729, 2.1809772236472535, -1.2592636608572751, -1.176007874083131, -2.663562032338779]

>  <energy>  (22) 
-441.9875515373632

>  <inter_energy>  (22) 
-500.316596312752

>  <intra_energy>  (22) 
71.90279706914362

>  <rmsd>  (22) 
7.14562

>  <sdf_rank>  (22) 
0

$$$$

     RDKit          3D

 64 67  0  0  0  0  0  0  0  0999 V2000
   24.3456    6.1568   26.1617 C   0  0  0  0  0  0  0  0  0  0  0  0
   25.6321    5.8929   26.6275 C   0  0  0  0  0  0  0  0  0  0  0  0
   26.4774    6.9328   27.0120 C   0  0  0  0  0  0  0  0  0  0  0  0
   22.0512    8.9591   25.6040 C   0  0  0  0  0  0  0  0  0  0  0  0
   26.0009    8.2586   26.8890 C   0  0  0  0  0  0  0  0  0  0  0  0
   20.8734   11.3007   26.0665 N   0  0  0  0  0  0  0  0  0  0  0  0
   20.1348   10.2978   25.5194 C   0  0  0  0  0  0  0  0  0  0  0  0
   28.2743    9.4696   27.5192 C   0  0  0  0  0  0  0  0  0  0  0  0
   26.7605    9.5282   27.3396 C   0  0  1  0  0  0  0  0  0  0  0  0
   25.0698   10.8627   26.1528 C   0  0  0  0  0  0  0  0  0  0  0  0
   18.9257   10.4587   25.4219 O   0  0  0  0  0  0  0  0  0  0  0  0
   20.7556    9.1127   25.2929 N   0  0  0  0  0  0  0  0  0  0  0  0
   22.2243   11.2448   26.2954 C   0  0  0  0  0  0  0  0  0  0  0  0
   22.7527   12.2352   26.8614 O   0  0  0  0  0  0  0  0  0  0  0  0
   22.8286   10.0090   26.0776 C   0  0  0  0  0  0  0  0  0  0  0  0
   24.2119    9.7971   26.2796 N   0  0  0  0  0  0  0  0  0  0  0  0
   26.5192   10.5611   26.2411 C   0  0  0  0  0  0  0  0  0  0  0  0
   26.1490   10.0265   28.6373 C   0  0  0  0  0  0  0  0  0  0  0  0
   24.6983    8.4787   26.3879 C   0  0  0  0  0  0  0  0  0  0  0  0
   27.8313    6.5642   27.5770 C   0  0  0  0  0  0  0  0  0  0  0  0
   26.1264    4.4662   26.6289 C   0  0  0  0  0  0  0  0  0  0  0  0
   23.8684    7.4613   26.0405 C   0  0  0  0  0  0  0  0  0  0  0  0
   22.5768    7.7128   25.5033 N   0  0  0  0  0  0  0  0  0  0  0  0
   21.7942    6.6765   24.8030 C   0  0  0  0  0  0  0  0  0  0  0  0
   20.9140    5.8133   25.6513 C   0  0  2  0  0  0  0  0  0  0  0  0
   21.0201    6.1680   27.0213 O   0  0  0  0  0  0  0  0  0  0  0  0
   21.2787    4.3540   25.4902 C   0  0  2  0  0  0  0  0  0  0  0  0
   20.6240    3.8973   24.2723 O   0  0  0  0  0  0  0  0  0  0  0  0
   20.8252    3.4857   26.6527 C   0  0  2  0  0  0  0  0  0  0  0  0
   19.7422    2.6597   26.1827 O   0  0  0  0  0  0  0  0  0  0  0  0
   20.3843    4.2542   27.8635 C   0  0  0  0  0  0  0  0  0  0  0  0
   21.0072    3.6619   29.0545 O   0  0  0  0  0  0  0  0  0  0  0  0
   20.0933    2.9543   30.1700 P   0  0  1  0  0  0  0  0  0  0  0  0
   18.6829    3.2158   29.6488 O   0  0  0  0  0  0  0  0  0  0  0  0
   20.4820    1.5282   30.2433 O   0  0  0  0  0  0  0  0  0  0  0  0
   20.3463    3.7112   31.4594 O   0  0  0  0  0  0  0  0  0  0  0  0
   23.6917    5.3171   25.8835 H   0  0  0  0  0  0  0  0  0  0  0  0
   20.3812   12.1668   26.3283 H   0  0  0  0  0  0  0  0  0  0  0  0
   28.5162    9.4603   28.5922 H   0  0  0  0  0  0  0  0  0  0  0  0
   28.6645    8.5557   27.0474 H   0  0  0  0  0  0  0  0  0  0  0  0
   28.7339   10.3507   27.0474 H   0  0  0  0  0  0  0  0  0  0  0  0
   24.7008   11.8867   25.9939 H   0  0  0  0  0  0  0  0  0  0  0  0
   20.2301    8.3286   24.8807 H   0  0  0  0  0  0  0  0  0  0  0  0
   27.0714   11.4826   26.4773 H   0  0  0  0  0  0  0  0  0  0  0  0
   26.8685   10.1595   25.2785 H   0  0  0  0  0  0  0  0  0  0  0  0
   26.6884    9.5869   29.4893 H   0  0  0  0  0  0  0  0  0  0  0  0
   26.2254   11.1230   28.6813 H   0  0  0  0  0  0  0  0  0  0  0  0
   25.0905    9.7306   28.6813 H   0  0  0  0  0  0  0  0  0  0  0  0
   27.7857    6.5766   28.6760 H   0  0  0  0  0  0  0  0  0  0  0  0
   28.1104    5.5574   27.2330 H   0  0  0  0  0  0  0  0  0  0  0  0
   28.5823    7.2906   27.2330 H   0  0  0  0  0  0  0  0  0  0  0  0
   26.2461    4.1207   27.6664 H   0  0  0  0  0  0  0  0  0  0  0  0
   25.3979    3.8253   26.1107 H   0  0  0  0  0  0  0  0  0  0  0  0
   27.0952    4.4133   26.1107 H   0  0  0  0  0  0  0  0  0  0  0  0
   21.1540    7.1832   24.0658 H   0  0  0  0  0  0  0  0  0  0  0  0
   22.5398    5.9933   24.3702 H   0  0  0  0  0  0  0  0  0  0  0  0
   19.8781    5.9713   25.3167 H   0  0  0  0  0  0  0  0  0  0  0  0
   20.7865    5.3873   27.5833 H   0  0  0  0  0  0  0  0  0  0  0  0
   22.3744    4.2655   25.4516 H   0  0  0  0  0  0  0  0  0  0  0  0
   19.8353    3.3472   24.5079 H   0  0  0  0  0  0  0  0  0  0  0  0
   21.6920    2.8939   26.9822 H   0  0  0  0  0  0  0  0  0  0  0  0
   19.2520    2.2859   26.9573 H   0  0  0  0  0  0  0  0  0  0  0  0
   20.6955    5.3049   27.7677 H   0  0  0  0  0  0  0  0  0  0  0  0
   19.2889    4.2108   27.9546 H   0  0  0  0  0  0  0  0  0  0  0  0
  1  2  2  0
  1 22  1  0
  2  3  1  0
  2 21  1  0
  3  5  2  0
  3 20  1  0
  4 12  1  0
  4 15  2  0
  4 23  1  0
  5  9  1  0
  5 19  1  0
  6  7  1  0
  6 13  1  0
  7 11  2  0
  7 12  1  0
  9  8  1  1
  9 17  1  0
  9 18  1  0
 10 16  2  0
 10 17  1  0
 13 14  2  0
 13 15  1  0
 15 16  1  0
 16 19  1  0
 19 22  2  0
 22 23  1  0
 23 24  1  0
 24 25  1  0
 25 26  1  0
 25 27  1  0
 27 28  1  0
 27 29  1  0
 29 30  1  0
 29 31  1  0
 31 32  1  0
 32 33  1  0
 33 34  2  0
 33 35  1  1
 33 36  1  0
  1 37  1  0
  6 38  1  0
  8 39  1  0
  8 40  1  0
  8 41  1  0
 10 42  1  0
 12 43  1  0
 17 44  1  0
 17 45  1  0
 18 46  1  0
 18 47  1  0
 18 48  1  0
 20 49  1  0
 20 50  1  0
 20 51  1  0
 21 52  1  0
 21 53  1  0
 21 54  1  0
 24 55  1  0
 24 56  1  0
 25 57  1  6
 26 58  1  0
 27 59  1  6
 28 60  1  0
 29 61  1  1
 30 62  1  0
 31 63  1  0
 31 64  1  0
M  CHG  3  16   1  35  -1  36  -1
M  END
>  <filename_input>  (23) 
7NF3_4LU_docked.sdf

>  <pdb_id>  (23) 
7NF3_4LU

>  <pose_rank>  (23) 
22

>  <num_atoms_heavy>  (23) 
36

>  <num_torsions>  (23) 
7

>  <pose>  (23) 
[24.34557182649988, 6.156786794207972, 26.161715133810794, -0.06327008665353016, 3.923575365940302, 1.135657350495711, -0.25271387995563754, 0.9847594849541651, -0.2754311444731865, -1.093423630897059, 0.7045016725147653, 6.328269660743078, -3.4219101805385246]

>  <energy>  (23) 
-405.40999902054557

>  <inter_energy>  (23) 
-478.750249776867

>  <intra_energy>  (23) 
75.98709486191947

>  <rmsd>  (23) 
6.85791

>  <sdf_rank>  (23) 
0

$$$$

     RDKit          3D

 64 67  0  0  0  0  0  0  0  0999 V2000
   21.0078    3.7855   29.7323 C   0  0  0  0  0  0  0  0  0  0  0  0
   20.5843    3.9438   31.0504 C   0  0  0  0  0  0  0  0  0  0  0  0
   19.3786    3.3926   31.4820 C   0  0  0  0  0  0  0  0  0  0  0  0
   20.0102    2.1447   26.6114 C   0  0  0  0  0  0  0  0  0  0  0  0
   18.5895    2.6952   30.5383 C   0  0  0  0  0  0  0  0  0  0  0  0
   18.9750    0.2532   25.0510 N   0  0  0  0  0  0  0  0  0  0  0  0
   20.0509    0.9524   24.5993 C   0  0  0  0  0  0  0  0  0  0  0  0
   16.4859    2.3143   32.1074 C   0  0  0  0  0  0  0  0  0  0  0  0
   17.2701    1.9511   30.8502 C   0  0  1  0  0  0  0  0  0  0  0  0
   16.9168    1.7290   28.4266 C   0  0  0  0  0  0  0  0  0  0  0  0
   20.5993    0.5693   23.5745 O   0  0  0  0  0  0  0  0  0  0  0  0
   20.5624    1.9114   25.4115 N   0  0  0  0  0  0  0  0  0  0  0  0
   18.2948    0.5232   26.2107 C   0  0  0  0  0  0  0  0  0  0  0  0
   17.3544   -0.2522   26.5191 O   0  0  0  0  0  0  0  0  0  0  0  0
   18.8574    1.4945   27.0350 C   0  0  0  0  0  0  0  0  0  0  0  0
   18.2737    1.8728   28.2660 N   0  0  0  0  0  0  0  0  0  0  0  0
   16.3374    2.2645   29.6824 C   0  0  0  0  0  0  0  0  0  0  0  0
   17.5484    0.4585   30.8809 C   0  0  0  0  0  0  0  0  0  0  0  0
   19.0478    2.5818   29.2066 C   0  0  0  0  0  0  0  0  0  0  0  0
   19.0220    3.5427   32.9444 C   0  0  0  0  0  0  0  0  0  0  0  0
   21.4125    4.7950   31.9828 C   0  0  0  0  0  0  0  0  0  0  0  0
   20.2360    3.0968   28.7973 C   0  0  0  0  0  0  0  0  0  0  0  0
   20.6548    3.0010   27.4426 N   0  0  0  0  0  0  0  0  0  0  0  0
   21.7450    3.8272   26.8897 C   0  0  0  0  0  0  0  0  0  0  0  0
   21.3704    5.1901   26.3983 C   0  0  2  0  0  0  0  0  0  0  0  0
   20.0835    5.1803   25.8002 O   0  0  0  0  0  0  0  0  0  0  0  0
   22.3794    5.6919   25.3889 C   0  0  2  0  0  0  0  0  0  0  0  0
   23.5513    4.8372   25.5173 O   0  0  0  0  0  0  0  0  0  0  0  0
   22.7925    7.1375   25.6144 C   0  0  2  0  0  0  0  0  0  0  0  0
   22.0765    7.9484   24.6626 O   0  0  0  0  0  0  0  0  0  0  0  0
   24.2659    7.3874   25.4822 C   0  0  0  0  0  0  0  0  0  0  0  0
   24.8627    7.4280   26.8237 O   0  0  0  0  0  0  0  0  0  0  0  0
   26.1234    6.4946   27.1697 P   0  0  1  0  0  0  0  0  0  0  0  0
   25.4548    5.2223   27.6831 O   0  0  0  0  0  0  0  0  0  0  0  0
   26.9237    6.3300   25.9357 O   0  0  0  0  0  0  0  0  0  0  0  0
   26.8745    7.2015   28.2812 O   0  0  0  0  0  0  0  0  0  0  0  0
   21.9726    4.2135   29.4225 H   0  0  0  0  0  0  0  0  0  0  0  0
   18.6468   -0.5382   24.4793 H   0  0  0  0  0  0  0  0  0  0  0  0
   17.0730    2.0424   32.9970 H   0  0  0  0  0  0  0  0  0  0  0  0
   16.2872    3.3962   32.1158 H   0  0  0  0  0  0  0  0  0  0  0  0
   15.5322    1.7662   32.1158 H   0  0  0  0  0  0  0  0  0  0  0  0
   16.2924    1.2420   27.6631 H   0  0  0  0  0  0  0  0  0  0  0  0
   21.3774    2.4620   25.1056 H   0  0  0  0  0  0  0  0  0  0  0  0
   15.3572    1.7985   29.8613 H   0  0  0  0  0  0  0  0  0  0  0  0
   16.2160    3.3541   29.5936 H   0  0  0  0  0  0  0  0  0  0  0  0
   17.6118    0.1187   31.9252 H   0  0  0  0  0  0  0  0  0  0  0  0
   16.7346   -0.0769   30.3699 H   0  0  0  0  0  0  0  0  0  0  0  0
   18.5005    0.2524   30.3699 H   0  0  0  0  0  0  0  0  0  0  0  0
   19.8597    3.1902   33.5641 H   0  0  0  0  0  0  0  0  0  0  0  0
   18.8218    4.6013   33.1662 H   0  0  0  0  0  0  0  0  0  0  0  0
   18.1252    2.9456   33.1662 H   0  0  0  0  0  0  0  0  0  0  0  0
   21.1670    4.5427   33.0250 H   0  0  0  0  0  0  0  0  0  0  0  0
   22.4806    4.6049   31.8014 H   0  0  0  0  0  0  0  0  0  0  0  0
   21.1932    5.8576   31.8014 H   0  0  0  0  0  0  0  0  0  0  0  0
   22.5011    3.9531   27.6786 H   0  0  0  0  0  0  0  0  0  0  0  0
   22.0969    3.2848   25.9997 H   0  0  0  0  0  0  0  0  0  0  0  0
   21.3585    5.8616   27.2694 H   0  0  0  0  0  0  0  0  0  0  0  0
   19.3909    5.1750   26.5075 H   0  0  0  0  0  0  0  0  0  0  0  0
   21.9255    5.6562   24.3875 H   0  0  0  0  0  0  0  0  0  0  0  0
   23.7504    4.6920   26.4761 H   0  0  0  0  0  0  0  0  0  0  0  0
   22.5449    7.3944   26.6549 H   0  0  0  0  0  0  0  0  0  0  0  0
   21.5044    8.5963   25.1453 H   0  0  0  0  0  0  0  0  0  0  0  0
   24.7269    6.5780   24.8971 H   0  0  0  0  0  0  0  0  0  0  0  0
   24.4374    8.3448   24.9684 H   0  0  0  0  0  0  0  0  0  0  0  0
  1  2  2  0
  1 22  1  0
  2  3  1  0
  2 21  1  0
  3  5  2  0
  3 20  1  0
  4 12  1  0
  4 15  2  0
  4 23  1  0
  5  9  1  0
  5 19  1  0
  6  7  1  0
  6 13  1  0
  7 11  2  0
  7 12  1  0
  9  8  1  1
  9 17  1  0
  9 18  1  0
 10 16  2  0
 10 17  1  0
 13 14  2  0
 13 15  1  0
 15 16  1  0
 16 19  1  0
 19 22  2  0
 22 23  1  0
 23 24  1  0
 24 25  1  0
 25 26  1  0
 25 27  1  0
 27 28  1  0
 27 29  1  0
 29 30  1  0
 29 31  1  0
 31 32  1  0
 32 33  1  0
 33 34  2  0
 33 35  1  6
 33 36  1  0
  1 37  1  0
  6 38  1  0
  8 39  1  0
  8 40  1  0
  8 41  1  0
 10 42  1  0
 12 43  1  0
 17 44  1  0
 17 45  1  0
 18 46  1  0
 18 47  1  0
 18 48  1  0
 20 49  1  0
 20 50  1  0
 20 51  1  0
 21 52  1  0
 21 53  1  0
 21 54  1  0
 24 55  1  0
 24 56  1  0
 25 57  1  1
 26 58  1  0
 27 59  1  6
 28 60  1  0
 29 61  1  1
 30 62  1  0
 31 63  1  0
 31 64  1  0
M  CHG  3  16   1  35  -1  36  -1
M  END
>  <filename_input>  (24) 
7NF3_4LU_docked.sdf

>  <pdb_id>  (24) 
7NF3_4LU

>  <pose_rank>  (24) 
23

>  <num_atoms_heavy>  (24) 
36

>  <num_torsions>  (24) 
7

>  <pose>  (24) 
[21.00777880531327, 3.785530148082651, 29.73232901967607, 2.8572677481066795, -1.1535492196592347, 0.06912220545780245, -3.2810519752459357, 0.3708344838003904, 0.8849920687886466, -4.771066396714076, 1.2973700246544448, -2.022133134673849, 1.3600606820038719]

>  <energy>  (24) 
-355.86226460916674

>  <inter_energy>  (24) 
-376.82549218266536

>  <intra_energy>  (24) 
20.716588064938662

>  <rmsd>  (24) 
10.3682

>  <sdf_rank>  (24) 
0

$$$$

     RDKit          3D

 64 67  0  0  0  0  0  0  0  0999 V2000
   21.5591    9.2583   22.0827 C   0  0  0  0  0  0  0  0  0  0  0  0
   21.1164    9.5201   20.7876 C   0  0  0  0  0  0  0  0  0  0  0  0
   20.6137   10.7750   20.4470 C   0  0  0  0  0  0  0  0  0  0  0  0
   22.0299   10.9286   25.3101 C   0  0  0  0  0  0  0  0  0  0  0  0
   20.5415   11.7606   21.4586 C   0  0  0  0  0  0  0  0  0  0  0  0
   22.6145   12.9077   26.9911 N   0  0  0  0  0  0  0  0  0  0  0  0
   22.9217   11.6332   27.3546 C   0  0  0  0  0  0  0  0  0  0  0  0
   19.2477   13.5826   20.0308 C   0  0  0  0  0  0  0  0  0  0  0  0
   20.0916   13.2256   21.2505 C   0  0  1  0  0  0  0  0  0  0  0  0
   20.0378   13.4714   23.6969 C   0  0  0  0  0  0  0  0  0  0  0  0
   23.6037   11.4676   28.3570 O   0  0  0  0  0  0  0  0  0  0  0  0
   22.6152   10.6404   26.4821 N   0  0  0  0  0  0  0  0  0  0  0  0
   21.9120   13.2545   25.8656 C   0  0  0  0  0  0  0  0  0  0  0  0
   21.7585   14.4816   25.6395 O   0  0  0  0  0  0  0  0  0  0  0  0
   21.6339   12.2184   24.9775 C   0  0  0  0  0  0  0  0  0  0  0  0
   20.9253   12.4253   23.7716 N   0  0  0  0  0  0  0  0  0  0  0  0
   19.2237   13.5631   22.4607 C   0  0  0  0  0  0  0  0  0  0  0  0
   21.3209   14.1173   21.2528 C   0  0  0  0  0  0  0  0  0  0  0  0
   20.9787   11.4414   22.7637 C   0  0  0  0  0  0  0  0  0  0  0  0
   20.2221   11.0063   19.0042 C   0  0  0  0  0  0  0  0  0  0  0  0
   21.1112    8.3956   19.7799 C   0  0  0  0  0  0  0  0  0  0  0  0
   21.4933   10.2261   23.0842 C   0  0  0  0  0  0  0  0  0  0  0  0
   21.8903    9.9200   24.4141 N   0  0  0  0  0  0  0  0  0  0  0  0
   22.1224    8.5372   24.8735 C   0  0  0  0  0  0  0  0  0  0  0  0
   21.1800    7.4935   24.3616 C   0  0  2  0  0  0  0  0  0  0  0  0
   19.8964    7.6330   24.9506 O   0  0  0  0  0  0  0  0  0  0  0  0
   21.7077    6.1059   24.6526 C   0  0  2  0  0  0  0  0  0  0  0  0
   20.9755    5.6214   25.8143 O   0  0  0  0  0  0  0  0  0  0  0  0
   23.1969    6.0771   24.9573 C   0  0  2  0  0  0  0  0  0  0  0  0
   23.5407    4.7260   25.3213 O   0  0  0  0  0  0  0  0  0  0  0  0
   23.6235    7.0167   26.0464 C   0  0  0  0  0  0  0  0  0  0  0  0
   25.0818    7.1820   25.9863 O   0  0  0  0  0  0  0  0  0  0  0  0
   26.0019    6.6289   27.1812 P   0  0  1  0  0  0  0  0  0  0  0  0
   26.3869    7.9104   27.9152 O   0  0  0  0  0  0  0  0  0  0  0  0
   25.1986    5.6692   27.9712 O   0  0  0  0  0  0  0  0  0  0  0  0
   27.2108    5.9963   26.5195 O   0  0  0  0  0  0  0  0  0  0  0  0
   21.9697    8.2658   22.3202 H   0  0  0  0  0  0  0  0  0  0  0  0
   22.9334   13.6689   27.6072 H   0  0  0  0  0  0  0  0  0  0  0  0
   18.2812   13.9915   20.3606 H   0  0  0  0  0  0  0  0  0  0  0  0
   19.7766   14.3341   19.4262 H   0  0  0  0  0  0  0  0  0  0  0  0
   19.0767   12.6797   19.4262 H   0  0  0  0  0  0  0  0  0  0  0  0
   19.9364   14.2032   24.5118 H   0  0  0  0  0  0  0  0  0  0  0  0
   22.8326    9.6623   26.7205 H   0  0  0  0  0  0  0  0  0  0  0  0
   18.8307   14.5851   22.3559 H   0  0  0  0  0  0  0  0  0  0  0  0
   18.3869   12.8516   22.5203 H   0  0  0  0  0  0  0  0  0  0  0  0
   21.6164   14.3317   22.2904 H   0  0  0  0  0  0  0  0  0  0  0  0
   22.1457   13.6061   20.7348 H   0  0  0  0  0  0  0  0  0  0  0  0
   21.0909   15.0601   20.7348 H   0  0  0  0  0  0  0  0  0  0  0  0
   19.2756   11.5653   18.9663 H   0  0  0  0  0  0  0  0  0  0  0  0
   21.0098   11.5842   18.4987 H   0  0  0  0  0  0  0  0  0  0  0  0
   20.0964   10.0375   18.4987 H   0  0  0  0  0  0  0  0  0  0  0  0
   21.1067    7.4305   20.3075 H   0  0  0  0  0  0  0  0  0  0  0  0
   20.2134    8.4728   19.1490 H   0  0  0  0  0  0  0  0  0  0  0  0
   22.0097    8.4645   19.1490 H   0  0  0  0  0  0  0  0  0  0  0  0
   23.1383    8.2494   24.5653 H   0  0  0  0  0  0  0  0  0  0  0  0
   21.9633    8.5628   25.9616 H   0  0  0  0  0  0  0  0  0  0  0  0
   21.0951    7.6326   23.2738 H   0  0  0  0  0  0  0  0  0  0  0  0
   19.9830    7.6236   25.9368 H   0  0  0  0  0  0  0  0  0  0  0  0
   21.5661    5.4792   23.7597 H   0  0  0  0  0  0  0  0  0  0  0  0
   21.4305    5.9225   26.6404 H   0  0  0  0  0  0  0  0  0  0  0  0
   23.7264    6.4164   24.0548 H   0  0  0  0  0  0  0  0  0  0  0  0
   23.5613    4.6451   26.3078 H   0  0  0  0  0  0  0  0  0  0  0  0
   23.1350    7.9921   25.9052 H   0  0  0  0  0  0  0  0  0  0  0  0
   23.3343    6.6085   27.0260 H   0  0  0  0  0  0  0  0  0  0  0  0
  1  2  2  0
  1 22  1  0
  2  3  1  0
  2 21  1  0
  3  5  2  0
  3 20  1  0
  4 12  1  0
  4 15  2  0
  4 23  1  0
  5  9  1  0
  5 19  1  0
  6  7  1  0
  6 13  1  0
  7 11  2  0
  7 12  1  0
  9  8  1  6
  9 17  1  0
  9 18  1  0
 10 16  2  0
 10 17  1  0
 13 14  2  0
 13 15  1  0
 15 16  1  0
 16 19  1  0
 19 22  2  0
 22 23  1  0
 23 24  1  0
 24 25  1  0
 25 26  1  0
 25 27  1  0
 27 28  1  0
 27 29  1  0
 29 30  1  0
 29 31  1  0
 31 32  1  0
 32 33  1  0
 33 34  2  0
 33 35  1  1
 33 36  1  0
  1 37  1  0
  6 38  1  0
  8 39  1  0
  8 40  1  0
  8 41  1  0
 10 42  1  0
 12 43  1  0
 17 44  1  0
 17 45  1  0
 18 46  1  0
 18 47  1  0
 18 48  1  0
 20 49  1  0
 20 50  1  0
 20 51  1  0
 21 52  1  0
 21 53  1  0
 21 54  1  0
 24 55  1  0
 24 56  1  0
 25 57  1  6
 26 58  1  0
 27 59  1  6
 28 60  1  0
 29 61  1  6
 30 62  1  0
 31 63  1  0
 31 64  1  0
M  CHG  3  16   1  35  -1  36  -1
M  END
>  <filename_input>  (25) 
7NF3_4LU_docked.sdf

>  <pdb_id>  (25) 
7NF3_4LU

>  <pose_rank>  (25) 
24

>  <num_atoms_heavy>  (25) 
36

>  <num_torsions>  (25) 
7

>  <pose>  (25) 
[21.559075112068427, 9.258277171375317, 22.082654091038837, -1.8545109346780833, -5.865200666322538, -0.7315019682171539, 3.8095962546651307, -0.25093036255620027, -3.364452807935869, 0.06233480180526084, 0.1671641388211878, 0.06477638568297171, 1.0983069875541926]

>  <energy>  (25) 
-717.4512033769387

>  <inter_energy>  (25) 
-804.9091058960006

>  <intra_energy>  (25) 
81.8705890433419

>  <rmsd>  (25) 
1.32467

>  <sdf_rank>  (25) 
0

$$$$

     RDKit          3D

 64 67  0  0  0  0  0  0  0  0999 V2000
   21.4120    9.0560   21.6890 C   0  0  0  0  0  0  0  0  0  0  0  0
   21.0820    9.2870   20.3550 C   0  0  0  0  0  0  0  0  0  0  0  0
   20.6240   10.5370   19.9410 C   0  0  0  0  0  0  0  0  0  0  0  0
   21.6310   10.8080   24.9000 C   0  0  0  0  0  0  0  0  0  0  0  0
   20.4790   11.5500   20.9170 C   0  0  0  0  0  0  0  0  0  0  0  0
   22.0960   12.8260   26.5720 N   0  0  0  0  0  0  0  0  0  0  0  0
   22.3570   11.5590   26.9930 C   0  0  0  0  0  0  0  0  0  0  0  0
   19.3300   13.3450   19.3390 C   0  0  0  0  0  0  0  0  0  0  0  0
   20.0650   13.0130   20.6340 C   0  0  1  0  0  0  0  0  0  0  0  0
   19.8100   13.3250   23.0600 C   0  0  0  0  0  0  0  0  0  0  0  0
   22.9510   11.4140   28.0530 O   0  0  0  0  0  0  0  0  0  0  0  0
   22.1130   10.5460   26.1240 N   0  0  0  0  0  0  0  0  0  0  0  0
   21.4940   13.1490   25.3830 C   0  0  0  0  0  0  0  0  0  0  0  0
   21.3740   14.3710   25.1130 O   0  0  0  0  0  0  0  0  0  0  0  0
   21.2790   12.0920   24.5020 C   0  0  0  0  0  0  0  0  0  0  0  0
   20.6760   12.2730   23.2360 N   0  0  0  0  0  0  0  0  0  0  0  0
   19.1030   13.3910   21.7580 C   0  0  0  0  0  0  0  0  0  0  0  0
   21.3000   13.8930   20.7160 C   0  0  0  0  0  0  0  0  0  0  0  0
   20.8020   11.2620   22.2620 C   0  0  0  0  0  0  0  0  0  0  0  0
   20.3570   10.7330   18.4650 C   0  0  0  0  0  0  0  0  0  0  0  0
   21.1480    8.1360   19.3800 C   0  0  0  0  0  0  0  0  0  0  0  0
   21.2740   10.0510   22.6560 C   0  0  0  0  0  0  0  0  0  0  0  0
   21.5550    9.7770   24.0220 N   0  0  0  0  0  0  0  0  0  0  0  0
   21.7320    8.4050   24.5350 C   0  0  0  0  0  0  0  0  0  0  0  0
   23.1380    7.9610   24.7910 C   0  0  2  0  0  0  0  0  0  0  0  0
   23.9290    8.0720   23.6180 O   0  0  0  0  0  0  0  0  0  0  0  0
   23.1680    6.5270   25.2720 C   0  0  2  0  0  0  0  0  0  0  0  0
   22.5160    6.5150   26.5740 O   0  0  0  0  0  0  0  0  0  0  0  0
   24.5740    5.9670   25.4160 C   0  0  2  0  0  0  0  0  0  0  0  0
   24.4670    4.6820   26.0590 O   0  0  0  0  0  0  0  0  0  0  0  0
   25.5120    6.8430   26.1930 C   0  0  0  0  0  0  0  0  0  0  0  0
   26.8620    6.2680   26.1280 O   0  0  0  0  0  0  0  0  0  0  0  0
   27.5880    5.7710   27.4720 P   0  0  1  0  0  0  0  0  0  0  0  0
   29.0250    5.5560   27.0050 O   0  0  0  0  0  0  0  0  0  0  0  0
   27.4120    6.8190   28.5020 O   0  0  0  0  0  0  0  0  0  0  0  0
   26.9320    4.4540   27.8390 O   0  0  0  0  0  0  0  0  0  0  0  0
   21.7898    8.0665   21.9858 H   0  0  0  0  0  0  0  0  0  0  0  0
   22.3711   13.6006   27.1927 H   0  0  0  0  0  0  0  0  0  0  0  0
   18.3511   13.7872   19.5760 H   0  0  0  0  0  0  0  0  0  0  0  0
   19.9242   14.0621   18.7536 H   0  0  0  0  0  0  0  0  0  0  0  0
   19.1848   12.4251   18.7536 H   0  0  0  0  0  0  0  0  0  0  0  0
   19.6493   14.0794   23.8443 H   0  0  0  0  0  0  0  0  0  0  0  0
   22.2985    9.5726   26.4051 H   0  0  0  0  0  0  0  0  0  0  0  0
   18.7320   14.4135   21.5941 H   0  0  0  0  0  0  0  0  0  0  0  0
   18.2560   12.6892   21.7659 H   0  0  0  0  0  0  0  0  0  0  0  0
   21.5526   14.0730   21.7714 H   0  0  0  0  0  0  0  0  0  0  0  0
   22.1422   13.3903   20.2180 H   0  0  0  0  0  0  0  0  0  0  0  0
   21.0998   14.8532   20.2180 H   0  0  0  0  0  0  0  0  0  0  0  0
   19.4765   11.3793   18.3343 H   0  0  0  0  0  0  0  0  0  0  0  0
   21.2316   11.2051   17.9937 H   0  0  0  0  0  0  0  0  0  0  0  0
   20.1687    9.7571   17.9937 H   0  0  0  0  0  0  0  0  0  0  0  0
   21.2024    7.1879   19.9351 H   0  0  0  0  0  0  0  0  0  0  0  0
   20.2482    8.1394   18.7473 H   0  0  0  0  0  0  0  0  0  0  0  0
   22.0415    8.2422   18.7473 H   0  0  0  0  0  0  0  0  0  0  0  0
   21.1804    8.3298   25.4837 H   0  0  0  0  0  0  0  0  0  0  0  0
   21.3612    7.7466   23.7356 H   0  0  0  0  0  0  0  0  0  0  0  0
   23.5532    8.6176   25.5698 H   0  0  0  0  0  0  0  0  0  0  0  0
   24.8770    8.2050   23.8706 H   0  0  0  0  0  0  0  0  0  0  0  0
   22.6613    5.8940   24.5286 H   0  0  0  0  0  0  0  0  0  0  0  0
   23.2027    6.5276   27.2870 H   0  0  0  0  0  0  0  0  0  0  0  0
   25.0077    5.8969   24.4075 H   0  0  0  0  0  0  0  0  0  0  0  0
   24.4771    4.8028   27.0415 H   0  0  0  0  0  0  0  0  0  0  0  0
   25.5195    7.8534   25.7582 H   0  0  0  0  0  0  0  0  0  0  0  0
   25.1829    6.9052   27.2408 H   0  0  0  0  0  0  0  0  0  0  0  0
  1  2  2  0
  1 22  1  0
  2  3  1  0
  2 21  1  0
  3  5  2  0
  3 20  1  0
  4 12  1  0
  4 15  2  0
  4 23  1  0
  5  9  1  0
  5 19  1  0
  6  7  1  0
  6 13  1  0
  7 11  2  0
  7 12  1  0
  9  8  1  6
  9 17  1  0
  9 18  1  0
 10 16  2  0
 10 17  1  0
 13 14  2  0
 13 15  1  0
 15 16  1  0
 16 19  1  0
 19 22  2  0
 22 23  1  0
 23 24  1  0
 24 25  1  0
 25 26  1  0
 25 27  1  0
 27 28  1  0
 27 29  1  0
 29 30  1  0
 29 31  1  0
 31 32  1  0
 32 33  1  0
 33 34  2  0
 33 35  1  1
 33 36  1  0
  1 37  1  0
  6 38  1  0
  8 39  1  0
  8 40  1  0
  8 41  1  0
 10 42  1  0
 12 43  1  0
 17 44  1  0
 17 45  1  0
 18 46  1  0
 18 47  1  0
 18 48  1  0
 20 49  1  0
 20 50  1  0
 20 51  1  0
 21 52  1  0
 21 53  1  0
 21 54  1  0
 24 55  1  0
 24 56  1  0
 25 57  1  1
 26 58  1  0
 27 59  1  6
 28 60  1  0
 29 61  1  6
 30 62  1  0
 31 63  1  0
 31 64  1  0
M  CHG  3  16   1  35  -1  36  -1
M  END
>  <filename_input>  (26) 
7NF3_4LU_docked.sdf

>  <pdb_id>  (26) 
7NF3_4LU

>  <pose_rank>  (26) 
25

>  <num_atoms_heavy>  (26) 
36

>  <num_torsions>  (26) 
7

>  <pose>  (26) 
[21.412, 9.056, 21.689, 1e-06, 1e-06, 1e-06, 0.0, 0.0, 0.0, 0.0, 0.0, 0.0, 0.0]

>  <energy>  (26) 
-885.6657694936227

>  <inter_energy>  (26) 
-904.5473621364142

>  <intra_energy>  (26) 
23.01082181431509

>  <rmsd>  (26) 
0.0

>  <sdf_rank>  (26) 
0

$$$$
