
     RDKit          3D

 30 32  0  0  0  0  0  0  0  0999 V2000
   18.8458   -4.2486   33.4775 C   0  0  0  0  0  0  0  0  0  0  0  0
   19.4929   -3.7137   32.3709 C   0  0  0  0  0  0  0  0  0  0  0  0
   20.8507   -3.9122   32.2492 O   0  0  0  0  0  0  0  0  0  0  0  0
   18.8201   -2.9772   31.4066 C   0  0  0  0  0  0  0  0  0  0  0  0
   17.4537   -2.7861   31.5575 C   0  0  0  0  0  0  0  0  0  0  0  0
   16.8110   -2.0736   30.6229 O   0  0  0  0  0  0  0  0  0  0  0  0
   16.7479   -3.3038   32.6458 C   0  0  0  0  0  0  0  0  0  0  0  0
   15.3087   -3.0671   32.8076 C   0  0  0  0  0  0  0  0  0  0  0  0
   14.6899   -2.4103   32.0118 O   0  0  0  0  0  0  0  0  0  0  0  0
   14.7222   -3.6504   34.0176 C   0  0  0  0  0  0  0  0  0  0  0  0
   15.4996   -4.4304   34.7807 C   0  0  0  0  0  0  0  0  0  0  0  0
   16.8647   -4.5539   34.6786 O   0  0  0  0  0  0  0  0  0  0  0  0
   17.4646   -4.0165   33.5821 C   0  0  0  0  0  0  0  0  0  0  0  0
   13.2782   -3.6322   34.3335 C   0  0  0  0  0  0  0  0  0  0  0  0
   12.8899   -3.9418   35.6416 C   0  0  0  0  0  0  0  0  0  0  0  0
   11.5472   -3.9753   35.9873 C   0  0  0  0  0  0  0  0  0  0  0  0
   10.6007   -3.6976   35.0290 C   0  0  0  0  0  0  0  0  0  0  0  0
    9.2709   -3.7335   35.3865 O   0  0  0  0  0  0  0  0  0  0  0  0
   10.9539   -3.3773   33.7223 C   0  0  0  0  0  0  0  0  0  0  0  0
   12.3027   -3.3501   33.3708 C   0  0  0  0  0  0  0  0  0  0  0  0
   19.3906   -4.8278   34.2376 H   0  0  0  0  0  0  0  0  0  0  0  0
   21.3373   -3.5421   31.4705 H   0  0  0  0  0  0  0  0  0  0  0  0
   19.3563   -2.5552   30.5438 H   0  0  0  0  0  0  0  0  0  0  0  0
   15.8362   -1.9192   30.7015 H   0  0  0  0  0  0  0  0  0  0  0  0
   15.0002   -5.0258   35.5592 H   0  0  0  0  0  0  0  0  0  0  0  0
   13.6550   -4.1602   36.4012 H   0  0  0  0  0  0  0  0  0  0  0  0
   11.2430   -4.2209   37.0154 H   0  0  0  0  0  0  0  0  0  0  0  0
    8.5720   -3.5371   34.7135 H   0  0  0  0  0  0  0  0  0  0  0  0
   10.1790   -3.1483   32.9759 H   0  0  0  0  0  0  0  0  0  0  0  0
   12.5992   -3.1076   32.3397 H   0  0  0  0  0  0  0  0  0  0  0  0
  1  2  2  0
  1 13  1  0
  2  3  1  0
  2  4  1  0
  4  5  2  0
  5  6  1  0
  5  7  1  0
  7  8  1  0
  7 13  2  0
  8  9  2  0
  8 10  1  0
 10 11  2  0
 10 14  1  0
 11 12  1  0
 12 13  1  0
 14 15  2  0
 14 20  1  0
 15 16  1  0
 16 17  2  0
 17 18  1  0
 17 19  1  0
 19 20  2  0
  1 21  1  0
  3 22  1  0
  4 23  1  0
  6 24  1  0
 11 25  1  0
 15 26  1  0
 16 27  1  0
 18 28  1  0
 19 29  1  0
 20 30  1  0
M  END
>  <filename_input>  (1) 
7NFB_GEN_docked.sdf

>  <pdb_id>  (1) 
7NFB_GEN

>  <pose_rank>  (1) 
0

>  <num_atoms_heavy>  (1) 
20

>  <num_torsions>  (1) 
1

>  <pose>  (1) 
[18.84583343722494, -4.248578325926983, 33.47747483944669, -0.032082047605395604, 0.004992897010417388, 0.037973564811118535, -6.442819717356985]

>  <energy>  (1) 
-1235.4936188051945

>  <inter_energy>  (1) 
-1226.669449974411

>  <intra_energy>  (1) 
14.560393395419533

>  <rmsd>  (1) 
0.283378

>  <sdf_rank>  (1) 
0

$$$$

     RDKit          3D

 30 32  0  0  0  0  0  0  0  0999 V2000
   11.6720   -4.0140   35.4558 C   0  0  0  0  0  0  0  0  0  0  0  0
   10.5473   -3.4990   34.8240 C   0  0  0  0  0  0  0  0  0  0  0  0
    9.3480   -3.5264   35.5013 O   0  0  0  0  0  0  0  0  0  0  0  0
   10.5948   -2.9820   33.5375 C   0  0  0  0  0  0  0  0  0  0  0  0
   11.8145   -2.9733   32.8751 C   0  0  0  0  0  0  0  0  0  0  0  0
   11.8524   -2.4731   31.6331 O   0  0  0  0  0  0  0  0  0  0  0  0
   12.9802   -3.4723   33.4605 C   0  0  0  0  0  0  0  0  0  0  0  0
   14.2561   -3.4845   32.7359 C   0  0  0  0  0  0  0  0  0  0  0  0
   14.3385   -3.0731   31.6082 O   0  0  0  0  0  0  0  0  0  0  0  0
   15.3778   -4.0693   33.4763 C   0  0  0  0  0  0  0  0  0  0  0  0
   15.1759   -4.4148   34.7549 C   0  0  0  0  0  0  0  0  0  0  0  0
   13.9567   -4.4999   35.3838 O   0  0  0  0  0  0  0  0  0  0  0  0
   12.8769   -3.9865   34.7346 C   0  0  0  0  0  0  0  0  0  0  0  0
   16.7738   -4.0906   32.9905 C   0  0  0  0  0  0  0  0  0  0  0  0
   17.7573   -4.5994   33.8458 C   0  0  0  0  0  0  0  0  0  0  0  0
   19.0887   -4.6118   33.4578 C   0  0  0  0  0  0  0  0  0  0  0  0
   19.4313   -4.1200   32.2200 C   0  0  0  0  0  0  0  0  0  0  0  0
   20.7572   -4.1394   31.8472 O   0  0  0  0  0  0  0  0  0  0  0  0
   18.4768   -3.6160   31.3427 C   0  0  0  0  0  0  0  0  0  0  0  0
   17.1388   -3.5959   31.7335 C   0  0  0  0  0  0  0  0  0  0  0  0
   11.6214   -4.4247   36.4750 H   0  0  0  0  0  0  0  0  0  0  0  0
    8.5304   -3.1661   35.0749 H   0  0  0  0  0  0  0  0  0  0  0  0
    9.6882   -2.5886   33.0543 H   0  0  0  0  0  0  0  0  0  0  0  0
   12.7070   -2.4526   31.1337 H   0  0  0  0  0  0  0  0  0  0  0  0
   16.0663   -4.6519   35.3557 H   0  0  0  0  0  0  0  0  0  0  0  0
   17.4724   -4.9925   34.8329 H   0  0  0  0  0  0  0  0  0  0  0  0
   19.8614   -5.0100   34.1319 H   0  0  0  0  0  0  0  0  0  0  0  0
   21.0273   -3.7907   30.9609 H   0  0  0  0  0  0  0  0  0  0  0  0
   18.7739   -3.2380   30.3533 H   0  0  0  0  0  0  0  0  0  0  0  0
   16.3721   -3.1924   31.0557 H   0  0  0  0  0  0  0  0  0  0  0  0
  1  2  2  0
  1 13  1  0
  2  3  1  0
  2  4  1  0
  4  5  2  0
  5  6  1  0
  5  7  1  0
  7  8  1  0
  7 13  2  0
  8  9  2  0
  8 10  1  0
 10 11  2  0
 10 14  1  0
 11 12  1  0
 12 13  1  0
 14 15  2  0
 14 20  1  0
 15 16  1  0
 16 17  2  0
 17 18  1  0
 17 19  1  0
 19 20  2  0
  1 21  1  0
  3 22  1  0
  4 23  1  0
  6 24  1  0
 11 25  1  0
 15 26  1  0
 16 27  1  0
 18 28  1  0
 19 29  1  0
 20 30  1  0
M  END
>  <filename_input>  (2) 
7NFB_GEN_docked.sdf

>  <pdb_id>  (2) 
7NFB_GEN

>  <pose_rank>  (2) 
1

>  <num_atoms_heavy>  (2) 
20

>  <num_torsions>  (2) 
1

>  <pose>  (2) 
[11.672043001413531, -4.013971160272932, 35.455799347804614, 0.6836849040639571, -1.5463979516450936, 2.6036857168452343, -0.48814980110971995]

>  <energy>  (2) 
-1047.3985568576352

>  <inter_energy>  (2) 
-1055.7811623263863

>  <intra_energy>  (2) 
16.811316518099478

>  <rmsd>  (2) 
6.69994

>  <sdf_rank>  (2) 
0

$$$$

     RDKit          3D

 30 32  0  0  0  0  0  0  0  0999 V2000
   18.5536   -3.0742   32.4074 C   0  0  0  0  0  0  0  0  0  0  0  0
   19.4545   -4.1289   32.4799 C   0  0  0  0  0  0  0  0  0  0  0  0
   20.7491   -3.9118   32.0619 O   0  0  0  0  0  0  0  0  0  0  0  0
   19.0852   -5.3853   32.9381 C   0  0  0  0  0  0  0  0  0  0  0  0
   17.7728   -5.5787   33.3461 C   0  0  0  0  0  0  0  0  0  0  0  0
   17.4235   -6.7945   33.7866 O   0  0  0  0  0  0  0  0  0  0  0  0
   16.8235   -4.5552   33.3013 C   0  0  0  0  0  0  0  0  0  0  0  0
   15.4319   -4.7835   33.7071 C   0  0  0  0  0  0  0  0  0  0  0  0
   15.0598   -5.8640   34.0835 O   0  0  0  0  0  0  0  0  0  0  0  0
   14.5533   -3.6181   33.5717 C   0  0  0  0  0  0  0  0  0  0  0  0
   15.1072   -2.4498   33.2206 C   0  0  0  0  0  0  0  0  0  0  0  0
   16.3830   -2.2750   32.7400 O   0  0  0  0  0  0  0  0  0  0  0  0
   17.2376   -3.3301   32.8259 C   0  0  0  0  0  0  0  0  0  0  0  0
   13.1446   -3.5826   34.0185 C   0  0  0  0  0  0  0  0  0  0  0  0
   12.8589   -4.0126   35.3190 C   0  0  0  0  0  0  0  0  0  0  0  0
   11.5513   -4.0350   35.7808 C   0  0  0  0  0  0  0  0  0  0  0  0
   10.5378   -3.6267   34.9458 C   0  0  0  0  0  0  0  0  0  0  0  0
    9.2441   -3.6532   35.4179 O   0  0  0  0  0  0  0  0  0  0  0  0
   10.7893   -3.1850   33.6509 C   0  0  0  0  0  0  0  0  0  0  0  0
   12.1021   -3.1684   33.1821 C   0  0  0  0  0  0  0  0  0  0  0  0
   18.8571   -2.0832   32.0389 H   0  0  0  0  0  0  0  0  0  0  0  0
   21.4121   -4.6459   32.1025 H   0  0  0  0  0  0  0  0  0  0  0  0
   19.8145   -6.2079   32.9770 H   0  0  0  0  0  0  0  0  0  0  0  0
   16.4950   -6.9650   34.0849 H   0  0  0  0  0  0  0  0  0  0  0  0
   14.4847   -1.5491   33.3266 H   0  0  0  0  0  0  0  0  0  0  0  0
   13.6771   -4.3350   35.9797 H   0  0  0  0  0  0  0  0  0  0  0  0
   11.3276   -4.3753   36.8027 H   0  0  0  0  0  0  0  0  0  0  0  0
    8.4983   -3.3639   34.8346 H   0  0  0  0  0  0  0  0  0  0  0  0
    9.9629   -2.8531   33.0052 H   0  0  0  0  0  0  0  0  0  0  0  0
   12.3177   -2.8307   32.1577 H   0  0  0  0  0  0  0  0  0  0  0  0
  1  2  2  0
  1 13  1  0
  2  3  1  0
  2  4  1  0
  4  5  2  0
  5  6  1  0
  5  7  1  0
  7  8  1  0
  7 13  2  0
  8  9  2  0
  8 10  1  0
 10 11  2  0
 10 14  1  0
 11 12  1  0
 12 13  1  0
 14 15  2  0
 14 20  1  0
 15 16  1  0
 16 17  2  0
 17 18  1  0
 17 19  1  0
 19 20  2  0
  1 21  1  0
  3 22  1  0
  4 23  1  0
  6 24  1  0
 11 25  1  0
 15 26  1  0
 16 27  1  0
 18 28  1  0
 19 29  1  0
 20 30  1  0
M  END
>  <filename_input>  (3) 
7NFB_GEN_docked.sdf

>  <pdb_id>  (3) 
7NFB_GEN

>  <pose_rank>  (3) 
2

>  <num_atoms_heavy>  (3) 
20

>  <num_torsions>  (3) 
1

>  <pose>  (3) 
[18.553596082244866, -3.074201809061951, 32.40743931401249, -2.370401467368421, 0.12379597495407316, 0.6372724106036427, -2.6829001259672025]

>  <energy>  (3) 
-1050.137296091136

>  <inter_energy>  (3) 
-1070.674762235583

>  <intra_energy>  (3) 
6.622393265646877

>  <rmsd>  (3) 
2.17847

>  <sdf_rank>  (3) 
0

$$$$

     RDKit          3D

 30 32  0  0  0  0  0  0  0  0999 V2000
   10.9904   -3.1429   33.2072 C   0  0  0  0  0  0  0  0  0  0  0  0
   10.3231   -3.2068   34.4237 C   0  0  0  0  0  0  0  0  0  0  0  0
    8.9547   -3.0475   34.4269 O   0  0  0  0  0  0  0  0  0  0  0  0
   10.9916   -3.4047   35.6232 C   0  0  0  0  0  0  0  0  0  0  0  0
   12.3710   -3.5547   35.5921 C   0  0  0  0  0  0  0  0  0  0  0  0
   13.0096   -3.7449   36.7541 O   0  0  0  0  0  0  0  0  0  0  0  0
   13.0960   -3.5051   34.3993 C   0  0  0  0  0  0  0  0  0  0  0  0
   14.5576   -3.6346   34.3859 C   0  0  0  0  0  0  0  0  0  0  0  0
   15.1818   -3.7786   35.4044 O   0  0  0  0  0  0  0  0  0  0  0  0
   15.1716   -3.5297   33.0591 C   0  0  0  0  0  0  0  0  0  0  0  0
   14.3613   -3.4538   31.9949 C   0  0  0  0  0  0  0  0  0  0  0  0
   13.0066   -3.2241   32.0284 O   0  0  0  0  0  0  0  0  0  0  0  0
   12.3865   -3.2933   33.2374 C   0  0  0  0  0  0  0  0  0  0  0  0
   16.6106   -3.7355   32.7903 C   0  0  0  0  0  0  0  0  0  0  0  0
   17.2581   -4.7820   33.4561 C   0  0  0  0  0  0  0  0  0  0  0  0
   18.6151   -5.0006   33.2705 C   0  0  0  0  0  0  0  0  0  0  0  0
   19.3172   -4.1777   32.4214 C   0  0  0  0  0  0  0  0  0  0  0  0
   20.6640   -4.4069   32.2457 O   0  0  0  0  0  0  0  0  0  0  0  0
   18.7014   -3.1346   31.7375 C   0  0  0  0  0  0  0  0  0  0  0  0
   17.3390   -2.9085   31.9281 C   0  0  0  0  0  0  0  0  0  0  0  0
   10.4499   -2.9818   32.2628 H   0  0  0  0  0  0  0  0  0  0  0  0
    8.4536   -3.0884   35.2798 H   0  0  0  0  0  0  0  0  0  0  0  0
   10.4419   -3.4417   36.5753 H   0  0  0  0  0  0  0  0  0  0  0  0
   13.9934   -3.8554   36.7659 H   0  0  0  0  0  0  0  0  0  0  0  0
   14.8218   -3.5873   31.0049 H   0  0  0  0  0  0  0  0  0  0  0  0
   16.6870   -5.4360   34.1315 H   0  0  0  0  0  0  0  0  0  0  0  0
   19.1236   -5.8223   33.7961 H   0  0  0  0  0  0  0  0  0  0  0  0
   21.1897   -3.8273   31.6393 H   0  0  0  0  0  0  0  0  0  0  0  0
   19.2819   -2.4963   31.0552 H   0  0  0  0  0  0  0  0  0  0  0  0
   16.8381   -2.0823   31.4022 H   0  0  0  0  0  0  0  0  0  0  0  0
  1  2  2  0
  1 13  1  0
  2  3  1  0
  2  4  1  0
  4  5  2  0
  5  6  1  0
  5  7  1  0
  7  8  1  0
  7 13  2  0
  8  9  2  0
  8 10  1  0
 10 11  2  0
 10 14  1  0
 11 12  1  0
 12 13  1  0
 14 15  2  0
 14 20  1  0
 15 16  1  0
 16 17  2  0
 17 18  1  0
 17 19  1  0
 19 20  2  0
  1 21  1  0
  3 22  1  0
  4 23  1  0
  6 24  1  0
 11 25  1  0
 15 26  1  0
 16 27  1  0
 18 28  1  0
 19 29  1  0
 20 30  1  0
M  END
>  <filename_input>  (4) 
7NFB_GEN_docked.sdf

>  <pdb_id>  (4) 
7NFB_GEN

>  <pose_rank>  (4) 
3

>  <num_atoms_heavy>  (4) 
20

>  <num_torsions>  (4) 
1

>  <pose>  (4) 
[10.990436347428163, -3.142911490550301, 33.207193309413924, 0.4746294277990911, 2.86420129721062, 1.0336985626120254, 3.4409544310794833]

>  <energy>  (4) 
-848.9047260260329

>  <inter_energy>  (4) 
-852.3353262039337

>  <intra_energy>  (4) 
10.129736897789135

>  <rmsd>  (4) 
7.02893

>  <sdf_rank>  (4) 
0

$$$$

     RDKit          3D

 30 32  0  0  0  0  0  0  0  0999 V2000
   10.8769   -3.3349   33.9577 C   0  0  0  0  0  0  0  0  0  0  0  0
   10.4224   -3.8501   35.1649 C   0  0  0  0  0  0  0  0  0  0  0  0
    9.0638   -3.8824   35.3910 O   0  0  0  0  0  0  0  0  0  0  0  0
   11.2901   -4.3093   36.1453 C   0  0  0  0  0  0  0  0  0  0  0  0
   12.6543   -4.2584   35.8945 C   0  0  0  0  0  0  0  0  0  0  0  0
   13.4859   -4.7030   36.8459 O   0  0  0  0  0  0  0  0  0  0  0  0
   13.1705   -3.7562   34.6979 C   0  0  0  0  0  0  0  0  0  0  0  0
   14.6165   -3.6803   34.4600 C   0  0  0  0  0  0  0  0  0  0  0  0
   15.4067   -4.0401   35.2929 O   0  0  0  0  0  0  0  0  0  0  0  0
   14.9972   -3.1002   33.1689 C   0  0  0  0  0  0  0  0  0  0  0  0
   14.0224   -2.8158   32.2948 C   0  0  0  0  0  0  0  0  0  0  0  0
   12.6760   -2.7889   32.5699 O   0  0  0  0  0  0  0  0  0  0  0  0
   12.2673   -3.3006   33.7625 C   0  0  0  0  0  0  0  0  0  0  0  0
   16.3864   -3.0226   32.6696 C   0  0  0  0  0  0  0  0  0  0  0  0
   16.5850   -3.0112   31.2846 C   0  0  0  0  0  0  0  0  0  0  0  0
   17.8677   -2.9753   30.7584 C   0  0  0  0  0  0  0  0  0  0  0  0
   18.9435   -2.9483   31.6146 C   0  0  0  0  0  0  0  0  0  0  0  0
   20.2117   -2.9118   31.0784 O   0  0  0  0  0  0  0  0  0  0  0  0
   18.7799   -2.9494   32.9960 C   0  0  0  0  0  0  0  0  0  0  0  0
   17.4917   -2.9927   33.5271 C   0  0  0  0  0  0  0  0  0  0  0  0
   10.1794   -2.9702   33.1893 H   0  0  0  0  0  0  0  0  0  0  0  0
    8.7122   -4.2443   36.2427 H   0  0  0  0  0  0  0  0  0  0  0  0
   10.9064   -4.7039   37.0977 H   0  0  0  0  0  0  0  0  0  0  0  0
   14.4645   -4.6803   36.6980 H   0  0  0  0  0  0  0  0  0  0  0  0
   14.3272   -2.5827   31.2639 H   0  0  0  0  0  0  0  0  0  0  0  0
   15.7176   -3.0308   30.6083 H   0  0  0  0  0  0  0  0  0  0  0  0
   18.0227   -2.9686   29.6694 H   0  0  0  0  0  0  0  0  0  0  0  0
   21.0012   -2.8919   31.6754 H   0  0  0  0  0  0  0  0  0  0  0  0
   19.6558   -2.9165   33.6607 H   0  0  0  0  0  0  0  0  0  0  0  0
   17.3446   -3.0033   34.6172 H   0  0  0  0  0  0  0  0  0  0  0  0
  1  2  2  0
  1 13  1  0
  2  3  1  0
  2  4  1  0
  4  5  2  0
  5  6  1  0
  5  7  1  0
  7  8  1  0
  7 13  2  0
  8  9  2  0
  8 10  1  0
 10 11  2  0
 10 14  1  0
 11 12  1  0
 12 13  1  0
 14 15  2  0
 14 20  1  0
 15 16  1  0
 16 17  2  0
 17 18  1  0
 17 19  1  0
 19 20  2  0
  1 21  1  0
  3 22  1  0
  4 23  1  0
  6 24  1  0
 11 25  1  0
 15 26  1  0
 16 27  1  0
 18 28  1  0
 19 29  1  0
 20 30  1  0
M  END
>  <filename_input>  (5) 
7NFB_GEN_docked.sdf

>  <pdb_id>  (5) 
7NFB_GEN

>  <pose_rank>  (5) 
4

>  <num_atoms_heavy>  (5) 
20

>  <num_torsions>  (5) 
1

>  <pose>  (5) 
[10.876920808699255, -3.3348840364979178, 33.95771694550697, -0.3845053835317198, -2.6045660318696386, -1.3931709008389501, -0.8896893313811225]

>  <energy>  (5) 
-832.6202901809125

>  <inter_energy>  (5) 
-843.8425410182007

>  <intra_energy>  (5) 
13.625026590944286

>  <rmsd>  (5) 
7.0364

>  <sdf_rank>  (5) 
0

$$$$

     RDKit          3D

 30 32  0  0  0  0  0  0  0  0999 V2000
   10.8141   -3.1407   33.3650 C   0  0  0  0  0  0  0  0  0  0  0  0
   10.1017   -3.3488   34.5391 C   0  0  0  0  0  0  0  0  0  0  0  0
    8.7442   -3.1142   34.5296 O   0  0  0  0  0  0  0  0  0  0  0  0
   10.7162   -3.7627   35.7122 C   0  0  0  0  0  0  0  0  0  0  0  0
   12.0862   -3.9847   35.6958 C   0  0  0  0  0  0  0  0  0  0  0  0
   12.6725   -4.3836   36.8322 O   0  0  0  0  0  0  0  0  0  0  0  0
   12.8544   -3.7975   34.5446 C   0  0  0  0  0  0  0  0  0  0  0  0
   14.3068   -4.0065   34.5511 C   0  0  0  0  0  0  0  0  0  0  0  0
   14.8863   -4.3374   35.5523 O   0  0  0  0  0  0  0  0  0  0  0  0
   14.9720   -3.7382   33.2728 C   0  0  0  0  0  0  0  0  0  0  0  0
   14.2048   -3.4570   32.2110 C   0  0  0  0  0  0  0  0  0  0  0  0
   12.8636   -3.1582   32.2425 O   0  0  0  0  0  0  0  0  0  0  0  0
   12.1985   -3.3732   33.4097 C   0  0  0  0  0  0  0  0  0  0  0  0
   16.4069   -3.9829   33.0148 C   0  0  0  0  0  0  0  0  0  0  0  0
   17.1711   -2.9254   32.5095 C   0  0  0  0  0  0  0  0  0  0  0  0
   18.5142   -3.1065   32.2147 C   0  0  0  0  0  0  0  0  0  0  0  0
   19.0876   -4.3382   32.4278 C   0  0  0  0  0  0  0  0  0  0  0  0
   20.4226   -4.5036   32.1316 O   0  0  0  0  0  0  0  0  0  0  0  0
   18.3579   -5.4071   32.9376 C   0  0  0  0  0  0  0  0  0  0  0  0
   17.0060   -5.2293   33.2278 C   0  0  0  0  0  0  0  0  0  0  0  0
   10.3164   -2.8089   32.4419 H   0  0  0  0  0  0  0  0  0  0  0  0
    8.2119   -3.2544   35.3524 H   0  0  0  0  0  0  0  0  0  0  0  0
   10.1321   -3.9113   36.6324 H   0  0  0  0  0  0  0  0  0  0  0  0
   13.6481   -4.5504   36.8537 H   0  0  0  0  0  0  0  0  0  0  0  0
   14.6924   -3.4661   31.2250 H   0  0  0  0  0  0  0  0  0  0  0  0
   16.7034   -1.9435   32.3448 H   0  0  0  0  0  0  0  0  0  0  0  0
   19.1136   -2.2750   31.8154 H   0  0  0  0  0  0  0  0  0  0  0  0
   20.8567   -5.3814   32.2768 H   0  0  0  0  0  0  0  0  0  0  0  0
   18.8414   -6.3801   33.1096 H   0  0  0  0  0  0  0  0  0  0  0  0
   16.4120   -6.0665   33.6230 H   0  0  0  0  0  0  0  0  0  0  0  0
  1  2  2  0
  1 13  1  0
  2  3  1  0
  2  4  1  0
  4  5  2  0
  5  6  1  0
  5  7  1  0
  7  8  1  0
  7 13  2  0
  8  9  2  0
  8 10  1  0
 10 11  2  0
 10 14  1  0
 11 12  1  0
 12 13  1  0
 14 15  2  0
 14 20  1  0
 15 16  1  0
 16 17  2  0
 17 18  1  0
 17 19  1  0
 19 20  2  0
  1 21  1  0
  3 22  1  0
  4 23  1  0
  6 24  1  0
 11 25  1  0
 15 26  1  0
 16 27  1  0
 18 28  1  0
 19 29  1  0
 20 30  1  0
M  END
>  <filename_input>  (6) 
7NFB_GEN_docked.sdf

>  <pdb_id>  (6) 
7NFB_GEN

>  <pose_rank>  (6) 
5

>  <num_atoms_heavy>  (6) 
20

>  <num_torsions>  (6) 
1

>  <pose>  (6) 
[10.814069720306366, -3.1407493960296367, 33.36500809830482, -0.5677320627556264, -2.8913691157389585, -1.3114221818662162, 0.5165849803878775]

>  <energy>  (6) 
-765.2509433191964

>  <inter_energy>  (6) 
-765.4793599254697

>  <intra_energy>  (6) 
3.2700541767881295

>  <rmsd>  (6) 
7.0982

>  <sdf_rank>  (6) 
0

$$$$

     RDKit          3D

 30 32  0  0  0  0  0  0  0  0999 V2000
   14.3544   -0.6751   32.1468 C   0  0  0  0  0  0  0  0  0  0  0  0
   14.9415    0.1175   31.1688 C   0  0  0  0  0  0  0  0  0  0  0  0
   14.2631    1.2381   30.7424 O   0  0  0  0  0  0  0  0  0  0  0  0
   16.1688   -0.1959   30.6028 C   0  0  0  0  0  0  0  0  0  0  0  0
   16.8273   -1.3346   31.0455 C   0  0  0  0  0  0  0  0  0  0  0  0
   18.0115   -1.6311   30.4941 O   0  0  0  0  0  0  0  0  0  0  0  0
   16.2896   -2.1673   32.0294 C   0  0  0  0  0  0  0  0  0  0  0  0
   16.9836   -3.3847   32.4651 C   0  0  0  0  0  0  0  0  0  0  0  0
   18.0359   -3.7113   31.9817 O   0  0  0  0  0  0  0  0  0  0  0  0
   16.2737   -4.1662   33.4818 C   0  0  0  0  0  0  0  0  0  0  0  0
   15.1500   -3.6522   33.9996 C   0  0  0  0  0  0  0  0  0  0  0  0
   14.4570   -2.5718   33.5081 O   0  0  0  0  0  0  0  0  0  0  0  0
   15.0624   -1.8191   32.5500 C   0  0  0  0  0  0  0  0  0  0  0  0
   16.8272   -5.3662   34.1444 C   0  0  0  0  0  0  0  0  0  0  0  0
   18.0858   -5.2602   34.7463 C   0  0  0  0  0  0  0  0  0  0  0  0
   18.6708   -6.3623   35.3519 C   0  0  0  0  0  0  0  0  0  0  0  0
   17.9974   -7.5614   35.3564 C   0  0  0  0  0  0  0  0  0  0  0  0
   18.5897   -8.6474   35.9622 O   0  0  0  0  0  0  0  0  0  0  0  0
   16.7411   -7.6977   34.7750 C   0  0  0  0  0  0  0  0  0  0  0  0
   16.1544   -6.5930   34.1594 C   0  0  0  0  0  0  0  0  0  0  0  0
   13.3789   -0.4184   32.5857 H   0  0  0  0  0  0  0  0  0  0  0  0
   14.6581    1.8210   30.0465 H   0  0  0  0  0  0  0  0  0  0  0  0
   16.6090    0.4423   29.8225 H   0  0  0  0  0  0  0  0  0  0  0  0
   18.5066   -2.4365   30.7879 H   0  0  0  0  0  0  0  0  0  0  0  0
   14.7455   -4.1388   34.8993 H   0  0  0  0  0  0  0  0  0  0  0  0
   18.6152   -4.2959   34.7392 H   0  0  0  0  0  0  0  0  0  0  0  0
   19.6613   -6.2784   35.8229 H   0  0  0  0  0  0  0  0  0  0  0  0
   18.1236   -9.5207   35.9776 H   0  0  0  0  0  0  0  0  0  0  0  0
   16.2172   -8.6646   34.8007 H   0  0  0  0  0  0  0  0  0  0  0  0
   15.1653   -6.6855   33.6869 H   0  0  0  0  0  0  0  0  0  0  0  0
  1  2  2  0
  1 13  1  0
  2  3  1  0
  2  4  1  0
  4  5  2  0
  5  6  1  0
  5  7  1  0
  7  8  1  0
  7 13  2  0
  8  9  2  0
  8 10  1  0
 10 11  2  0
 10 14  1  0
 11 12  1  0
 12 13  1  0
 14 15  2  0
 14 20  1  0
 15 16  1  0
 16 17  2  0
 17 18  1  0
 17 19  1  0
 19 20  2  0
  1 21  1  0
  3 22  1  0
  4 23  1  0
  6 24  1  0
 11 25  1  0
 15 26  1  0
 16 27  1  0
 18 28  1  0
 19 29  1  0
 20 30  1  0
M  END
>  <filename_input>  (7) 
7NFB_GEN_docked.sdf

>  <pdb_id>  (7) 
7NFB_GEN

>  <pose_rank>  (7) 
6

>  <num_atoms_heavy>  (7) 
20

>  <num_torsions>  (7) 
1

>  <pose>  (7) 
[14.354389073627424, -0.6751198468785627, 32.146811255064534, -1.209238213866037, -1.3299382056229532, 2.0868028781383847, -2.630159481146049]

>  <energy>  (7) 
-433.566293904429

>  <inter_energy>  (7) 
-438.5658941783486

>  <intra_energy>  (7) 
5.564270513169657

>  <rmsd>  (7) 
5.35446

>  <sdf_rank>  (7) 
0

$$$$

     RDKit          3D

 30 32  0  0  0  0  0  0  0  0999 V2000
   16.9681   -7.4169   35.3362 C   0  0  0  0  0  0  0  0  0  0  0  0
   18.3560   -7.4343   35.3888 C   0  0  0  0  0  0  0  0  0  0  0  0
   18.9703   -8.4503   36.0876 O   0  0  0  0  0  0  0  0  0  0  0  0
   19.1303   -6.4570   34.7804 C   0  0  0  0  0  0  0  0  0  0  0  0
   18.4856   -5.4408   34.0891 C   0  0  0  0  0  0  0  0  0  0  0  0
   19.2397   -4.5005   33.5048 O   0  0  0  0  0  0  0  0  0  0  0  0
   17.0936   -5.3732   33.9972 C   0  0  0  0  0  0  0  0  0  0  0  0
   16.4255   -4.2754   33.2888 C   0  0  0  0  0  0  0  0  0  0  0  0
   17.0554   -3.3906   32.7710 O   0  0  0  0  0  0  0  0  0  0  0  0
   14.9610   -4.3318   33.3095 C   0  0  0  0  0  0  0  0  0  0  0  0
   14.3805   -5.4129   33.8473 C   0  0  0  0  0  0  0  0  0  0  0  0
   15.0101   -6.3751   34.6003 O   0  0  0  0  0  0  0  0  0  0  0  0
   16.3702   -6.3605   34.6298 C   0  0  0  0  0  0  0  0  0  0  0  0
   14.0825   -3.3970   32.5750 C   0  0  0  0  0  0  0  0  0  0  0  0
   12.7082   -3.6592   32.5667 C   0  0  0  0  0  0  0  0  0  0  0  0
   11.8396   -2.8369   31.8647 C   0  0  0  0  0  0  0  0  0  0  0  0
   12.3450   -1.7578   31.1782 C   0  0  0  0  0  0  0  0  0  0  0  0
   11.4708   -0.9489   30.4861 O   0  0  0  0  0  0  0  0  0  0  0  0
   13.7047   -1.4642   31.1740 C   0  0  0  0  0  0  0  0  0  0  0  0
   14.5804   -2.2936   31.8730 C   0  0  0  0  0  0  0  0  0  0  0  0
   16.3645   -8.1954   35.8257 H   0  0  0  0  0  0  0  0  0  0  0  0
   19.9581   -8.4872   36.1415 H   0  0  0  0  0  0  0  0  0  0  0  0
   20.2281   -6.4868   34.8443 H   0  0  0  0  0  0  0  0  0  0  0  0
   18.8103   -3.7621   33.0042 H   0  0  0  0  0  0  0  0  0  0  0  0
   13.3026   -5.5421   33.6703 H   0  0  0  0  0  0  0  0  0  0  0  0
   12.3138   -4.5237   33.1209 H   0  0  0  0  0  0  0  0  0  0  0  0
   10.7595   -3.0453   31.8571 H   0  0  0  0  0  0  0  0  0  0  0  0
   11.8119   -0.1664   29.9847 H   0  0  0  0  0  0  0  0  0  0  0  0
   14.0840   -0.5890   30.6262 H   0  0  0  0  0  0  0  0  0  0  0  0
   15.6598   -2.0813   31.8727 H   0  0  0  0  0  0  0  0  0  0  0  0
  1  2  2  0
  1 13  1  0
  2  3  1  0
  2  4  1  0
  4  5  2  0
  5  6  1  0
  5  7  1  0
  7  8  1  0
  7 13  2  0
  8  9  2  0
  8 10  1  0
 10 11  2  0
 10 14  1  0
 11 12  1  0
 12 13  1  0
 14 15  2  0
 14 20  1  0
 15 16  1  0
 16 17  2  0
 17 18  1  0
 17 19  1  0
 19 20  2  0
  1 21  1  0
  3 22  1  0
  4 23  1  0
  6 24  1  0
 11 25  1  0
 15 26  1  0
 16 27  1  0
 18 28  1  0
 19 29  1  0
 20 30  1  0
M  END
>  <filename_input>  (8) 
7NFB_GEN_docked.sdf

>  <pdb_id>  (8) 
7NFB_GEN

>  <pose_rank>  (8) 
7

>  <num_atoms_heavy>  (8) 
20

>  <num_torsions>  (8) 
1

>  <pose>  (8) 
[16.968114356247344, -7.4169182447313755, 35.33623243468057, -1.2071480398373702, 4.143035202856618, 2.80436942764353, -0.5330117910523255]

>  <energy>  (8) 
-401.6006968480499

>  <inter_energy>  (8) 
-402.60715769593713

>  <intra_energy>  (8) 
16.773056340003627

>  <rmsd>  (8) 
3.7265

>  <sdf_rank>  (8) 
0

$$$$

     RDKit          3D

 30 32  0  0  0  0  0  0  0  0999 V2000
   18.8195   -3.2995   32.7040 C   0  0  0  0  0  0  0  0  0  0  0  0
   19.5868   -4.4312   32.4589 C   0  0  0  0  0  0  0  0  0  0  0  0
   20.8955   -4.2598   32.0641 O   0  0  0  0  0  0  0  0  0  0  0  0
   19.0713   -5.7134   32.5806 C   0  0  0  0  0  0  0  0  0  0  0  0
   17.7477   -5.8573   32.9728 C   0  0  0  0  0  0  0  0  0  0  0  0
   17.2568   -7.0983   33.0875 O   0  0  0  0  0  0  0  0  0  0  0  0
   16.9288   -4.7575   33.2381 C   0  0  0  0  0  0  0  0  0  0  0  0
   15.5224   -4.9251   33.6219 C   0  0  0  0  0  0  0  0  0  0  0  0
   15.0248   -6.0168   33.7117 O   0  0  0  0  0  0  0  0  0  0  0  0
   14.7902   -3.6733   33.8350 C   0  0  0  0  0  0  0  0  0  0  0  0
   15.4790   -2.5252   33.7859 C   0  0  0  0  0  0  0  0  0  0  0  0
   16.7635   -2.3754   33.3203 O   0  0  0  0  0  0  0  0  0  0  0  0
   17.4849   -3.5057   33.0898 C   0  0  0  0  0  0  0  0  0  0  0  0
   13.3990   -3.5977   34.3290 C   0  0  0  0  0  0  0  0  0  0  0  0
   12.7623   -4.7934   34.6792 C   0  0  0  0  0  0  0  0  0  0  0  0
   11.4457   -4.7875   35.1151 C   0  0  0  0  0  0  0  0  0  0  0  0
   10.7732   -3.5912   35.2020 C   0  0  0  0  0  0  0  0  0  0  0  0
    9.4665   -3.6000   35.6375 O   0  0  0  0  0  0  0  0  0  0  0  0
   11.3803   -2.3843   34.8705 C   0  0  0  0  0  0  0  0  0  0  0  0
   12.7013   -2.3886   34.4252 C   0  0  0  0  0  0  0  0  0  0  0  0
   19.2383   -2.2876   32.6007 H   0  0  0  0  0  0  0  0  0  0  0  0
   21.4652   -5.0489   31.8827 H   0  0  0  0  0  0  0  0  0  0  0  0
   19.6961   -6.5943   32.3714 H   0  0  0  0  0  0  0  0  0  0  0  0
   16.3164   -7.2349   33.3653 H   0  0  0  0  0  0  0  0  0  0  0  0
   14.9706   -1.6208   34.1513 H   0  0  0  0  0  0  0  0  0  0  0  0
   13.3099   -5.7448   34.6081 H   0  0  0  0  0  0  0  0  0  0  0  0
   10.9455   -5.7284   35.3880 H   0  0  0  0  0  0  0  0  0  0  0  0
    8.9625   -2.7508   35.7080 H   0  0  0  0  0  0  0  0  0  0  0  0
   10.8251   -1.4388   34.9585 H   0  0  0  0  0  0  0  0  0  0  0  0
   13.1937   -1.4442   34.1501 H   0  0  0  0  0  0  0  0  0  0  0  0
  1  2  2  0
  1 13  1  0
  2  3  1  0
  2  4  1  0
  4  5  2  0
  5  6  1  0
  5  7  1  0
  7  8  1  0
  7 13  2  0
  8  9  2  0
  8 10  1  0
 10 11  2  0
 10 14  1  0
 11 12  1  0
 12 13  1  0
 14 15  2  0
 14 20  1  0
 15 16  1  0
 16 17  2  0
 17 18  1  0
 17 19  1  0
 19 20  2  0
  1 21  1  0
  3 22  1  0
  4 23  1  0
  6 24  1  0
 11 25  1  0
 15 26  1  0
 16 27  1  0
 18 28  1  0
 19 29  1  0
 20 30  1  0
M  END
>  <filename_input>  (9) 
7NFB_GEN_docked.sdf

>  <pdb_id>  (9) 
7NFB_GEN

>  <pose_rank>  (9) 
8

>  <num_atoms_heavy>  (9) 
20

>  <num_torsions>  (9) 
1

>  <pose>  (9) 
[18.819514673600448, -3.299536664308003, 32.704032017461124, -2.0790206202656316, 0.1762207812187745, 0.5844601152550967, 2.788224357824179]

>  <energy>  (9) 
-873.6837193488093

>  <inter_energy>  (9) 
-891.7251187057436

>  <intra_energy>  (9) 
21.778313139297776

>  <rmsd>  (9) 
2.19148

>  <sdf_rank>  (9) 
0

$$$$

     RDKit          3D

 30 32  0  0  0  0  0  0  0  0999 V2000
   11.9575   -4.0157   35.3581 C   0  0  0  0  0  0  0  0  0  0  0  0
   10.8929   -3.4310   34.6841 C   0  0  0  0  0  0  0  0  0  0  0  0
    9.6288   -3.5712   35.2135 O   0  0  0  0  0  0  0  0  0  0  0  0
   11.0638   -2.7348   33.4963 C   0  0  0  0  0  0  0  0  0  0  0  0
   12.3471   -2.6150   32.9812 C   0  0  0  0  0  0  0  0  0  0  0  0
   12.5042   -1.9419   31.8338 O   0  0  0  0  0  0  0  0  0  0  0  0
   13.4569   -3.1767   33.6164 C   0  0  0  0  0  0  0  0  0  0  0  0
   14.8034   -3.0679   33.0433 C   0  0  0  0  0  0  0  0  0  0  0  0
   14.9949   -2.4984   32.0008 O   0  0  0  0  0  0  0  0  0  0  0  0
   15.8552   -3.7372   33.8140 C   0  0  0  0  0  0  0  0  0  0  0  0
   15.5267   -4.2647   35.0009 C   0  0  0  0  0  0  0  0  0  0  0  0
   14.2498   -4.4554   35.4724 O   0  0  0  0  0  0  0  0  0  0  0  0
   13.2318   -3.8692   34.7860 C   0  0  0  0  0  0  0  0  0  0  0  0
   17.2955   -3.6700   33.4879 C   0  0  0  0  0  0  0  0  0  0  0  0
   17.7191   -2.6807   32.5936 C   0  0  0  0  0  0  0  0  0  0  0  0
   19.0527   -2.5921   32.2231 C   0  0  0  0  0  0  0  0  0  0  0  0
   19.9555   -3.4871   32.7476 C   0  0  0  0  0  0  0  0  0  0  0  0
   21.2768   -3.3869   32.3718 O   0  0  0  0  0  0  0  0  0  0  0  0
   19.5684   -4.4762   33.6459 C   0  0  0  0  0  0  0  0  0  0  0  0
   18.2272   -4.5716   34.0141 C   0  0  0  0  0  0  0  0  0  0  0  0
   11.8092   -4.5686   36.2974 H   0  0  0  0  0  0  0  0  0  0  0  0
    8.8518   -3.1648   34.7540 H   0  0  0  0  0  0  0  0  0  0  0  0
   10.2036   -2.2888   32.9757 H   0  0  0  0  0  0  0  0  0  0  0  0
   13.4067   -1.8386   31.4402 H   0  0  0  0  0  0  0  0  0  0  0  0
   16.3537   -4.5732   35.6574 H   0  0  0  0  0  0  0  0  0  0  0  0
   16.9893   -1.9683   32.1815 H   0  0  0  0  0  0  0  0  0  0  0  0
   19.3842   -1.8154   31.5183 H   0  0  0  0  0  0  0  0  0  0  0  0
   21.9446   -4.0203   32.7365 H   0  0  0  0  0  0  0  0  0  0  0  0
   20.3109   -5.1740   34.0603 H   0  0  0  0  0  0  0  0  0  0  0  0
   17.9023   -5.3535   34.7163 H   0  0  0  0  0  0  0  0  0  0  0  0
  1  2  2  0
  1 13  1  0
  2  3  1  0
  2  4  1  0
  4  5  2  0
  5  6  1  0
  5  7  1  0
  7  8  1  0
  7 13  2  0
  8  9  2  0
  8 10  1  0
 10 11  2  0
 10 14  1  0
 11 12  1  0
 12 13  1  0
 14 15  2  0
 14 20  1  0
 15 16  1  0
 16 17  2  0
 17 18  1  0
 17 19  1  0
 19 20  2  0
  1 21  1  0
  3 22  1  0
  4 23  1  0
  6 24  1  0
 11 25  1  0
 15 26  1  0
 16 27  1  0
 18 28  1  0
 19 29  1  0
 20 30  1  0
M  END
>  <filename_input>  (10) 
7NFB_GEN_docked.sdf

>  <pdb_id>  (10) 
7NFB_GEN

>  <pose_rank>  (10) 
9

>  <num_atoms_heavy>  (10) 
20

>  <num_torsions>  (10) 
1

>  <pose>  (10) 
[11.957495416673284, -4.015745483367503, 35.358068538562065, 0.5775202911859794, -1.7796896290101214, 2.6067632651624946, -3.287049652856293]

>  <energy>  (10) 
-909.2010899280941

>  <inter_energy>  (10) 
-928.4950254028944

>  <intra_energy>  (10) 
19.493136128137266

>  <rmsd>  (10) 
6.65052

>  <sdf_rank>  (10) 
0

$$$$

     RDKit          3D

 30 32  0  0  0  0  0  0  0  0999 V2000
   12.1039   -2.7139   35.1784 C   0  0  0  0  0  0  0  0  0  0  0  0
   11.3252   -3.7512   35.6753 C   0  0  0  0  0  0  0  0  0  0  0  0
   10.1870   -3.4321   36.3828 O   0  0  0  0  0  0  0  0  0  0  0  0
   11.6691   -5.0834   35.4974 C   0  0  0  0  0  0  0  0  0  0  0  0
   12.8249   -5.3767   34.7871 C   0  0  0  0  0  0  0  0  0  0  0  0
   13.1508   -6.6651   34.6197 O   0  0  0  0  0  0  0  0  0  0  0  0
   13.6450   -4.3770   34.2591 C   0  0  0  0  0  0  0  0  0  0  0  0
   14.8803   -4.7022   33.5370 C   0  0  0  0  0  0  0  0  0  0  0  0
   15.2331   -5.8422   33.3836 O   0  0  0  0  0  0  0  0  0  0  0  0
   15.6449   -3.5409   33.0731 C   0  0  0  0  0  0  0  0  0  0  0  0
   15.1030   -2.3260   33.2331 C   0  0  0  0  0  0  0  0  0  0  0  0
   14.0045   -2.0288   34.0039 O   0  0  0  0  0  0  0  0  0  0  0  0
   13.2662   -3.0700   34.4749 C   0  0  0  0  0  0  0  0  0  0  0  0
   16.8595   -3.6260   32.2349 C   0  0  0  0  0  0  0  0  0  0  0  0
   17.8768   -4.4959   32.6423 C   0  0  0  0  0  0  0  0  0  0  0  0
   19.0539   -4.5910   31.9149 C   0  0  0  0  0  0  0  0  0  0  0  0
   19.2087   -3.8215   30.7858 C   0  0  0  0  0  0  0  0  0  0  0  0
   20.3824   -3.9268   30.0725 O   0  0  0  0  0  0  0  0  0  0  0  0
   18.2130   -2.9540   30.3488 C   0  0  0  0  0  0  0  0  0  0  0  0
   17.0320   -2.8514   31.0824 C   0  0  0  0  0  0  0  0  0  0  0  0
   11.8230   -1.6611   35.3290 H   0  0  0  0  0  0  0  0  0  0  0  0
    9.6135   -4.1515   36.7484 H   0  0  0  0  0  0  0  0  0  0  0  0
   11.0413   -5.8874   35.9090 H   0  0  0  0  0  0  0  0  0  0  0  0
   13.9690   -6.9076   34.1179 H   0  0  0  0  0  0  0  0  0  0  0  0
   15.5804   -1.4910   32.6994 H   0  0  0  0  0  0  0  0  0  0  0  0
   17.7421   -5.1088   33.5458 H   0  0  0  0  0  0  0  0  0  0  0  0
   19.8539   -5.2737   32.2373 H   0  0  0  0  0  0  0  0  0  0  0  0
   20.5161   -3.3826   29.2563 H   0  0  0  0  0  0  0  0  0  0  0  0
   18.3557   -2.3565   29.4363 H   0  0  0  0  0  0  0  0  0  0  0  0
   16.2380   -2.1636   30.7562 H   0  0  0  0  0  0  0  0  0  0  0  0
  1  2  2  0
  1 13  1  0
  2  3  1  0
  2  4  1  0
  4  5  2  0
  5  6  1  0
  5  7  1  0
  7  8  1  0
  7 13  2  0
  8  9  2  0
  8 10  1  0
 10 11  2  0
 10 14  1  0
 11 12  1  0
 12 13  1  0
 14 15  2  0
 14 20  1  0
 15 16  1  0
 16 17  2  0
 17 18  1  0
 17 19  1  0
 19 20  2  0
  1 21  1  0
  3 22  1  0
  4 23  1  0
  6 24  1  0
 11 25  1  0
 15 26  1  0
 16 27  1  0
 18 28  1  0
 19 29  1  0
 20 30  1  0
M  END
>  <filename_input>  (11) 
7NFB_GEN_docked.sdf

>  <pdb_id>  (11) 
7NFB_GEN

>  <pose_rank>  (11) 
10

>  <num_atoms_heavy>  (11) 
20

>  <num_torsions>  (11) 
1

>  <pose>  (11) 
[12.103947936162541, -2.7139052789007714, 35.17836817241354, 12.958615356512757, 16.055890942360154, 27.93345893707176, 1.855796776554565]

>  <energy>  (11) 
-649.7149809247446

>  <inter_energy>  (11) 
-644.5525230550454

>  <intra_energy>  (11) 
8.81197478577242

>  <rmsd>  (11) 
6.927

>  <sdf_rank>  (11) 
0

$$$$

     RDKit          3D

 30 32  0  0  0  0  0  0  0  0999 V2000
   15.6622   -7.0269   34.4616 C   0  0  0  0  0  0  0  0  0  0  0  0
   16.8693   -7.6350   34.7819 C   0  0  0  0  0  0  0  0  0  0  0  0
   16.8414   -8.9183   35.2823 O   0  0  0  0  0  0  0  0  0  0  0  0
   18.0861   -6.9856   34.6316 C   0  0  0  0  0  0  0  0  0  0  0  0
   18.0849   -5.6906   34.1324 C   0  0  0  0  0  0  0  0  0  0  0  0
   19.2633   -5.0698   33.9906 O   0  0  0  0  0  0  0  0  0  0  0  0
   16.9039   -5.0293   33.7880 C   0  0  0  0  0  0  0  0  0  0  0  0
   16.9165   -3.6489   33.2904 C   0  0  0  0  0  0  0  0  0  0  0  0
   17.9455   -3.0368   33.1713 O   0  0  0  0  0  0  0  0  0  0  0  0
   15.5935   -3.0869   33.0036 C   0  0  0  0  0  0  0  0  0  0  0  0
   14.5314   -3.8982   33.0974 C   0  0  0  0  0  0  0  0  0  0  0  0
   14.5207   -5.1492   33.6665 O   0  0  0  0  0  0  0  0  0  0  0  0
   15.7215   -5.7132   33.9684 C   0  0  0  0  0  0  0  0  0  0  0  0
   15.3686   -1.7587   32.3948 C   0  0  0  0  0  0  0  0  0  0  0  0
   16.3451   -0.7756   32.5886 C   0  0  0  0  0  0  0  0  0  0  0  0
   16.1716    0.4995   32.0711 C   0  0  0  0  0  0  0  0  0  0  0  0
   15.0285    0.7859   31.3622 C   0  0  0  0  0  0  0  0  0  0  0  0
   14.8697    2.0559   30.8532 O   0  0  0  0  0  0  0  0  0  0  0  0
   14.0432   -0.1715   31.1440 C   0  0  0  0  0  0  0  0  0  0  0  0
   14.2122   -1.4517   31.6693 C   0  0  0  0  0  0  0  0  0  0  0  0
   14.7032   -7.5506   34.5884 H   0  0  0  0  0  0  0  0  0  0  0  0
   17.6869   -9.3758   35.5190 H   0  0  0  0  0  0  0  0  0  0  0  0
   19.0284   -7.4847   34.9016 H   0  0  0  0  0  0  0  0  0  0  0  0
   19.2966   -4.1457   33.6371 H   0  0  0  0  0  0  0  0  0  0  0  0
   13.5822   -3.5297   32.6812 H   0  0  0  0  0  0  0  0  0  0  0  0
   17.2569   -1.0155   33.1553 H   0  0  0  0  0  0  0  0  0  0  0  0
   16.9389    1.2723   32.2259 H   0  0  0  0  0  0  0  0  0  0  0  0
   14.0550    2.2850   30.3395 H   0  0  0  0  0  0  0  0  0  0  0  0
   13.1423    0.0784   30.5643 H   0  0  0  0  0  0  0  0  0  0  0  0
   13.4387   -2.2182   31.5139 H   0  0  0  0  0  0  0  0  0  0  0  0
  1  2  2  0
  1 13  1  0
  2  3  1  0
  2  4  1  0
  4  5  2  0
  5  6  1  0
  5  7  1  0
  7  8  1  0
  7 13  2  0
  8  9  2  0
  8 10  1  0
 10 11  2  0
 10 14  1  0
 11 12  1  0
 12 13  1  0
 14 15  2  0
 14 20  1  0
 15 16  1  0
 16 17  2  0
 17 18  1  0
 17 19  1  0
 19 20  2  0
  1 21  1  0
  3 22  1  0
  4 23  1  0
  6 24  1  0
 11 25  1  0
 15 26  1  0
 16 27  1  0
 18 28  1  0
 19 29  1  0
 20 30  1  0
M  END
>  <filename_input>  (12) 
7NFB_GEN_docked.sdf

>  <pdb_id>  (12) 
7NFB_GEN

>  <pose_rank>  (12) 
11

>  <num_atoms_heavy>  (12) 
20

>  <num_torsions>  (12) 
1

>  <pose>  (12) 
[15.662237866545418, -7.026919612305554, 34.46157005425118, -1.0729248777463851, 3.287121364943098, 3.1027783222110203, 2.2583262056101256]

>  <energy>  (12) 
-383.1682057991511

>  <inter_energy>  (12) 
-399.1401762450555

>  <intra_energy>  (12) 
17.74535843406155

>  <rmsd>  (12) 
4.80223

>  <sdf_rank>  (12) 
0

$$$$

     RDKit          3D

 30 32  0  0  0  0  0  0  0  0999 V2000
   20.7826    3.5709   39.8114 C   0  0  0  0  0  0  0  0  0  0  0  0
   21.7735    3.9847   38.9304 C   0  0  0  0  0  0  0  0  0  0  0  0
   23.0460    3.4837   39.0968 O   0  0  0  0  0  0  0  0  0  0  0  0
   21.5237    4.8930   37.9118 C   0  0  0  0  0  0  0  0  0  0  0  0
   20.2346    5.3876   37.7713 C   0  0  0  0  0  0  0  0  0  0  0  0
   20.0010    6.2646   36.7860 O   0  0  0  0  0  0  0  0  0  0  0  0
   19.1960    5.0048   38.6230 C   0  0  0  0  0  0  0  0  0  0  0  0
   17.8452    5.5601   38.4810 C   0  0  0  0  0  0  0  0  0  0  0  0
   17.5894    6.3720   37.6306 O   0  0  0  0  0  0  0  0  0  0  0  0
   16.8766    5.0813   39.4714 C   0  0  0  0  0  0  0  0  0  0  0  0
   17.2640    4.1144   40.3140 C   0  0  0  0  0  0  0  0  0  0  0  0
   18.5548    3.6839   40.5079 O   0  0  0  0  0  0  0  0  0  0  0  0
   19.4992    4.1106   39.6264 C   0  0  0  0  0  0  0  0  0  0  0  0
   15.4376    5.4193   39.4578 C   0  0  0  0  0  0  0  0  0  0  0  0
   14.6379    4.8397   38.4667 C   0  0  0  0  0  0  0  0  0  0  0  0
   13.2881    5.1476   38.3831 C   0  0  0  0  0  0  0  0  0  0  0  0
   12.7435    6.0281   39.2883 C   0  0  0  0  0  0  0  0  0  0  0  0
   11.4016    6.3240   39.1941 O   0  0  0  0  0  0  0  0  0  0  0  0
   13.5091    6.6142   40.2910 C   0  0  0  0  0  0  0  0  0  0  0  0
   14.8675    6.3117   40.3725 C   0  0  0  0  0  0  0  0  0  0  0  0
   20.9935    2.8529   40.6177 H   0  0  0  0  0  0  0  0  0  0  0  0
   23.7716    3.7616   38.4833 H   0  0  0  0  0  0  0  0  0  0  0  0
   22.3274    5.2131   37.2325 H   0  0  0  0  0  0  0  0  0  0  0  0
   19.0922    6.6361   36.6591 H   0  0  0  0  0  0  0  0  0  0  0  0
   16.4779    3.6204   40.9040 H   0  0  0  0  0  0  0  0  0  0  0  0
   15.0828    4.1349   37.7489 H   0  0  0  0  0  0  0  0  0  0  0  0
   12.6608    4.6930   37.6021 H   0  0  0  0  0  0  0  0  0  0  0  0
   10.9877    6.9551   39.8348 H   0  0  0  0  0  0  0  0  0  0  0  0
   13.0485    7.3073   41.0103 H   0  0  0  0  0  0  0  0  0  0  0  0
   15.4894    6.7733   41.1537 H   0  0  0  0  0  0  0  0  0  0  0  0
  1  2  2  0
  1 13  1  0
  2  3  1  0
  2  4  1  0
  4  5  2  0
  5  6  1  0
  5  7  1  0
  7  8  1  0
  7 13  2  0
  8  9  2  0
  8 10  1  0
 10 11  2  0
 10 14  1  0
 11 12  1  0
 12 13  1  0
 14 15  2  0
 14 20  1  0
 15 16  1  0
 16 17  2  0
 17 18  1  0
 17 19  1  0
 19 20  2  0
  1 21  1  0
  3 22  1  0
  4 23  1  0
  6 24  1  0
 11 25  1  0
 15 26  1  0
 16 27  1  0
 18 28  1  0
 19 29  1  0
 20 30  1  0
M  END
>  <filename_input>  (13) 
7NFB_GEN_docked.sdf

>  <pdb_id>  (13) 
7NFB_GEN

>  <pose_rank>  (13) 
12

>  <num_atoms_heavy>  (13) 
20

>  <num_torsions>  (13) 
1

>  <pose>  (13) 
[20.782615119102495, 3.570875634437357, 39.81143627777562, -0.6090221125675943, 4.540012989088404, 3.8504252611321985, 3.982194727440817]

>  <energy>  (13) 
-194.80203395364808

>  <inter_energy>  (13) 
-174.25688942290873

>  <intra_energy>  (13) 
0.8767087091987835

>  <rmsd>  (13) 
10.4868

>  <sdf_rank>  (13) 
0

$$$$

     RDKit          3D

 30 32  0  0  0  0  0  0  0  0999 V2000
    9.1689    6.1395   38.3291 C   0  0  0  0  0  0  0  0  0  0  0  0
   10.3328    6.4005   39.0408 C   0  0  0  0  0  0  0  0  0  0  0  0
   10.2370    6.5920   40.4017 O   0  0  0  0  0  0  0  0  0  0  0  0
   11.5715    6.4920   38.4226 C   0  0  0  0  0  0  0  0  0  0  0  0
   11.6385    6.3022   37.0494 C   0  0  0  0  0  0  0  0  0  0  0  0
   12.8377    6.3926   36.4595 O   0  0  0  0  0  0  0  0  0  0  0  0
   10.5036    6.0318   36.2815 C   0  0  0  0  0  0  0  0  0  0  0  0
   10.5861    5.8642   34.8261 C   0  0  0  0  0  0  0  0  0  0  0  0
   11.6343    5.9636   34.2438 O   0  0  0  0  0  0  0  0  0  0  0  0
    9.3030    5.6167   34.1623 C   0  0  0  0  0  0  0  0  0  0  0  0
    8.2194    5.4449   34.9313 C   0  0  0  0  0  0  0  0  0  0  0  0
    8.1359    5.7116   36.2771 O   0  0  0  0  0  0  0  0  0  0  0  0
    9.2960    5.9644   36.9414 C   0  0  0  0  0  0  0  0  0  0  0  0
    9.1565    5.3117   32.7232 C   0  0  0  0  0  0  0  0  0  0  0  0
    9.0103    3.9714   32.3493 C   0  0  0  0  0  0  0  0  0  0  0  0
    8.9045    3.6222   31.0112 C   0  0  0  0  0  0  0  0  0  0  0  0
    8.9424    4.6099   30.0552 C   0  0  0  0  0  0  0  0  0  0  0  0
    8.8353    4.2489   28.7302 O   0  0  0  0  0  0  0  0  0  0  0  0
    9.0774    5.9522   30.3942 C   0  0  0  0  0  0  0  0  0  0  0  0
    9.1911    6.3049   31.7381 C   0  0  0  0  0  0  0  0  0  0  0  0
    8.1917    6.0729   38.8298 H   0  0  0  0  0  0  0  0  0  0  0  0
   11.0505    6.7796   40.9337 H   0  0  0  0  0  0  0  0  0  0  0  0
   12.4780    6.7096   39.0064 H   0  0  0  0  0  0  0  0  0  0  0  0
   12.9193    6.2624   35.4815 H   0  0  0  0  0  0  0  0  0  0  0  0
    7.3149    5.0551   34.4415 H   0  0  0  0  0  0  0  0  0  0  0  0
    8.9789    3.1891   33.1220 H   0  0  0  0  0  0  0  0  0  0  0  0
    8.7918    2.5679   30.7183 H   0  0  0  0  0  0  0  0  0  0  0  0
    8.8600    4.9428   28.0245 H   0  0  0  0  0  0  0  0  0  0  0  0
    9.0943    6.7254   29.6120 H   0  0  0  0  0  0  0  0  0  0  0  0
    9.3077    7.3608   32.0233 H   0  0  0  0  0  0  0  0  0  0  0  0
  1  2  2  0
  1 13  1  0
  2  3  1  0
  2  4  1  0
  4  5  2  0
  5  6  1  0
  5  7  1  0
  7  8  1  0
  7 13  2  0
  8  9  2  0
  8 10  1  0
 10 11  2  0
 10 14  1  0
 11 12  1  0
 12 13  1  0
 14 15  2  0
 14 20  1  0
 15 16  1  0
 16 17  2  0
 17 18  1  0
 17 19  1  0
 19 20  2  0
  1 21  1  0
  3 22  1  0
  4 23  1  0
  6 24  1  0
 11 25  1  0
 15 26  1  0
 16 27  1  0
 18 28  1  0
 19 29  1  0
 20 30  1  0
M  END
>  <filename_input>  (14) 
7NFB_GEN_docked.sdf

>  <pdb_id>  (14) 
7NFB_GEN

>  <pose_rank>  (14) 
13

>  <num_atoms_heavy>  (14) 
20

>  <num_torsions>  (14) 
1

>  <pose>  (14) 
[9.168852249213266, 6.139500285908646, 38.32911816768264, 1.53234089332268, 4.222480737765062, 0.24851333272830836, -1.8297957784778052]

>  <energy>  (14) 
-185.0499003359328

>  <inter_energy>  (14) 
-154.79346265389577

>  <intra_energy>  (14) 
0.21034169530057822

>  <rmsd>  (14) 
12.0424

>  <sdf_rank>  (14) 
0

$$$$

     RDKit          3D

 30 32  0  0  0  0  0  0  0  0999 V2000
   14.0740   -1.2774   43.1787 C   0  0  0  0  0  0  0  0  0  0  0  0
   12.7189   -1.1681   43.4633 C   0  0  0  0  0  0  0  0  0  0  0  0
   11.9697   -2.3225   43.5265 O   0  0  0  0  0  0  0  0  0  0  0  0
   12.1031    0.0589   43.6639 C   0  0  0  0  0  0  0  0  0  0  0  0
   12.8798    1.2066   43.5873 C   0  0  0  0  0  0  0  0  0  0  0  0
   12.2783    2.3875   43.7815 O   0  0  0  0  0  0  0  0  0  0  0  0
   14.2478    1.1595   43.3097 C   0  0  0  0  0  0  0  0  0  0  0  0
   15.0496    2.3837   43.2014 C   0  0  0  0  0  0  0  0  0  0  0  0
   14.5525    3.4707   43.3390 O   0  0  0  0  0  0  0  0  0  0  0  0
   16.4618    2.1665   42.8745 C   0  0  0  0  0  0  0  0  0  0  0  0
   16.9103    0.9048   42.8293 C   0  0  0  0  0  0  0  0  0  0  0  0
   16.1315   -0.2277   42.8239 O   0  0  0  0  0  0  0  0  0  0  0  0
   14.8083   -0.0824   43.1055 C   0  0  0  0  0  0  0  0  0  0  0  0
   17.4773    3.2394   42.8207 C   0  0  0  0  0  0  0  0  0  0  0  0
   18.7555    2.9567   43.3146 C   0  0  0  0  0  0  0  0  0  0  0  0
   19.7385    3.9351   43.3226 C   0  0  0  0  0  0  0  0  0  0  0  0
   19.4428    5.1871   42.8365 C   0  0  0  0  0  0  0  0  0  0  0  0
   20.4287    6.1488   42.8496 O   0  0  0  0  0  0  0  0  0  0  0  0
   18.1849    5.4976   42.3302 C   0  0  0  0  0  0  0  0  0  0  0  0
   17.1932    4.5177   42.3278 C   0  0  0  0  0  0  0  0  0  0  0  0
   14.5505   -2.2557   43.0179 H   0  0  0  0  0  0  0  0  0  0  0  0
   11.0016   -2.2739   43.7275 H   0  0  0  0  0  0  0  0  0  0  0  0
   11.0260    0.1206   43.8784 H   0  0  0  0  0  0  0  0  0  0  0  0
   12.8043    3.2248   43.7335 H   0  0  0  0  0  0  0  0  0  0  0  0
   18.0005    0.7624   42.7932 H   0  0  0  0  0  0  0  0  0  0  0  0
   18.9825    1.9514   43.6991 H   0  0  0  0  0  0  0  0  0  0  0  0
   20.7424    3.7124   43.7131 H   0  0  0  0  0  0  0  0  0  0  0  0
   20.2388    7.0572   42.5047 H   0  0  0  0  0  0  0  0  0  0  0  0
   17.9754    6.5032   41.9368 H   0  0  0  0  0  0  0  0  0  0  0  0
   16.1904    4.7489   41.9394 H   0  0  0  0  0  0  0  0  0  0  0  0
  1  2  2  0
  1 13  1  0
  2  3  1  0
  2  4  1  0
  4  5  2  0
  5  6  1  0
  5  7  1  0
  7  8  1  0
  7 13  2  0
  8  9  2  0
  8 10  1  0
 10 11  2  0
 10 14  1  0
 11 12  1  0
 12 13  1  0
 14 15  2  0
 14 20  1  0
 15 16  1  0
 16 17  2  0
 17 18  1  0
 17 19  1  0
 19 20  2  0
  1 21  1  0
  3 22  1  0
  4 23  1  0
  6 24  1  0
 11 25  1  0
 15 26  1  0
 16 27  1  0
 18 28  1  0
 19 29  1  0
 20 30  1  0
M  END
>  <filename_input>  (15) 
7NFB_GEN_docked.sdf

>  <pdb_id>  (15) 
7NFB_GEN

>  <pose_rank>  (15) 
14

>  <num_atoms_heavy>  (15) 
20

>  <num_torsions>  (15) 
1

>  <pose>  (15) 
[14.074004349987634, -1.2773850887107097, 43.178707985092444, -1.0706511868343382, 2.3001593729150973, -0.853107654163935, -1.091483892503762]

>  <energy>  (15) 
-112.34460589348251

>  <inter_energy>  (15) 
-117.92530606429989

>  <intra_energy>  (15) 
10.253205646310917

>  <rmsd>  (15) 
12.7041

>  <sdf_rank>  (15) 
0

$$$$

     RDKit          3D

 30 32  0  0  0  0  0  0  0  0999 V2000
   16.3597  -13.1798   28.5592 C   0  0  0  0  0  0  0  0  0  0  0  0
   17.3533  -13.1418   27.5893 C   0  0  0  0  0  0  0  0  0  0  0  0
   18.6613  -13.3105   27.9874 O   0  0  0  0  0  0  0  0  0  0  0  0
   17.0690  -12.9217   26.2493 C   0  0  0  0  0  0  0  0  0  0  0  0
   15.7435  -12.7475   25.8766 C   0  0  0  0  0  0  0  0  0  0  0  0
   15.4768  -12.5349   24.5812 O   0  0  0  0  0  0  0  0  0  0  0  0
   14.7011  -12.7806   26.8056 C   0  0  0  0  0  0  0  0  0  0  0  0
   13.3074  -12.5639   26.4005 C   0  0  0  0  0  0  0  0  0  0  0  0
   13.0170  -12.3410   25.2544 O   0  0  0  0  0  0  0  0  0  0  0  0
   12.3361  -12.5985   27.4977 C   0  0  0  0  0  0  0  0  0  0  0  0
   12.7756  -12.9393   28.7166 C   0  0  0  0  0  0  0  0  0  0  0  0
   14.0916  -13.0316   29.1021 O   0  0  0  0  0  0  0  0  0  0  0  0
   15.0376  -12.9892   28.1252 C   0  0  0  0  0  0  0  0  0  0  0  0
   10.8718  -12.5132   27.3146 C   0  0  0  0  0  0  0  0  0  0  0  0
   10.2329  -13.5632   26.6460 C   0  0  0  0  0  0  0  0  0  0  0  0
    8.8662  -13.5209   26.4138 C   0  0  0  0  0  0  0  0  0  0  0  0
    8.1448  -12.4350   26.8514 C   0  0  0  0  0  0  0  0  0  0  0  0
    6.7881  -12.4066   26.6150 O   0  0  0  0  0  0  0  0  0  0  0  0
    8.7480  -11.3794   27.5272 C   0  0  0  0  0  0  0  0  0  0  0  0
   10.1228  -11.4164   27.7553 C   0  0  0  0  0  0  0  0  0  0  0  0
   16.5976  -13.3515   29.6194 H   0  0  0  0  0  0  0  0  0  0  0  0
   19.3895  -13.2880   27.3172 H   0  0  0  0  0  0  0  0  0  0  0  0
   17.8743  -12.8861   25.5008 H   0  0  0  0  0  0  0  0  0  0  0  0
   14.5415  -12.4069   24.2829 H   0  0  0  0  0  0  0  0  0  0  0  0
   12.0143  -13.1658   29.4776 H   0  0  0  0  0  0  0  0  0  0  0  0
   10.8188  -14.4283   26.3020 H   0  0  0  0  0  0  0  0  0  0  0  0
    8.3654  -14.3459   25.8861 H   0  0  0  0  0  0  0  0  0  0  0  0
    6.2484  -11.6351   26.9208 H   0  0  0  0  0  0  0  0  0  0  0  0
    8.1480  -10.5264   27.8772 H   0  0  0  0  0  0  0  0  0  0  0  0
   10.6175  -10.5858   28.2801 H   0  0  0  0  0  0  0  0  0  0  0  0
  1  2  2  0
  1 13  1  0
  2  3  1  0
  2  4  1  0
  4  5  2  0
  5  6  1  0
  5  7  1  0
  7  8  1  0
  7 13  2  0
  8  9  2  0
  8 10  1  0
 10 11  2  0
 10 14  1  0
 11 12  1  0
 12 13  1  0
 14 15  2  0
 14 20  1  0
 15 16  1  0
 16 17  2  0
 17 18  1  0
 17 19  1  0
 19 20  2  0
  1 21  1  0
  3 22  1  0
  4 23  1  0
  6 24  1  0
 11 25  1  0
 15 26  1  0
 16 27  1  0
 18 28  1  0
 19 29  1  0
 20 30  1  0
M  END
>  <filename_input>  (16) 
7NFB_GEN_docked.sdf

>  <pdb_id>  (16) 
7NFB_GEN

>  <pose_rank>  (16) 
15

>  <num_atoms_heavy>  (16) 
20

>  <num_torsions>  (16) 
1

>  <pose>  (16) 
[16.359723791174982, -13.179832749964058, 28.55921731245354, 4.832904302819868, 3.041169767090857, -0.06202464106822971, -2.406580656194125]

>  <energy>  (16) 
-157.2084673955013

>  <inter_energy>  (16) 
-135.1532967571581

>  <intra_energy>  (16) 
1.9677849326351156

>  <rmsd>  (16) 
11.6029

>  <sdf_rank>  (16) 
0

$$$$

     RDKit          3D

 30 32  0  0  0  0  0  0  0  0999 V2000
   22.3854   -9.0481   41.5787 C   0  0  0  0  0  0  0  0  0  0  0  0
   23.2854   -9.6823   40.7319 C   0  0  0  0  0  0  0  0  0  0  0  0
   24.5476   -9.1460   40.6006 O   0  0  0  0  0  0  0  0  0  0  0  0
   22.9453  -10.8163   40.0084 C   0  0  0  0  0  0  0  0  0  0  0  0
   21.6647  -11.3313   40.1536 C   0  0  0  0  0  0  0  0  0  0  0  0
   21.3434  -12.4259   39.4516 O   0  0  0  0  0  0  0  0  0  0  0  0
   20.7183  -10.7406   40.9939 C   0  0  0  0  0  0  0  0  0  0  0  0
   19.3585  -11.2790   41.1133 C   0  0  0  0  0  0  0  0  0  0  0  0
   19.0103  -12.2432   40.4832 O   0  0  0  0  0  0  0  0  0  0  0  0
   18.4766  -10.5275   42.0110 C   0  0  0  0  0  0  0  0  0  0  0  0
   19.0082   -9.5216   42.7185 C   0  0  0  0  0  0  0  0  0  0  0  0
   20.2469   -8.9612   42.5170 O   0  0  0  0  0  0  0  0  0  0  0  0
   21.1017   -9.6090   41.6799 C   0  0  0  0  0  0  0  0  0  0  0  0
   17.1036  -10.9433   42.3677 C   0  0  0  0  0  0  0  0  0  0  0  0
   16.4664  -10.2690   43.4151 C   0  0  0  0  0  0  0  0  0  0  0  0
   15.1917  -10.6393   43.8173 C   0  0  0  0  0  0  0  0  0  0  0  0
   14.5594  -11.6761   43.1721 C   0  0  0  0  0  0  0  0  0  0  0  0
   13.2933  -12.0325   43.5812 O   0  0  0  0  0  0  0  0  0  0  0  0
   15.1615  -12.3605   42.1214 C   0  0  0  0  0  0  0  0  0  0  0  0
   16.4456  -11.9948   41.7202 C   0  0  0  0  0  0  0  0  0  0  0  0
   22.6653   -8.1473   42.1445 H   0  0  0  0  0  0  0  0  0  0  0  0
   25.2091   -9.5775   40.0038 H   0  0  0  0  0  0  0  0  0  0  0  0
   23.6726  -11.2952   39.3363 H   0  0  0  0  0  0  0  0  0  0  0  0
   20.4380  -12.8181   39.5329 H   0  0  0  0  0  0  0  0  0  0  0  0
   18.3980   -9.1067   43.5343 H   0  0  0  0  0  0  0  0  0  0  0  0
   16.9800   -9.4395   43.9232 H   0  0  0  0  0  0  0  0  0  0  0  0
   14.6925  -10.1099   44.6423 H   0  0  0  0  0  0  0  0  0  0  0  0
   12.8187  -12.7759   43.1315 H   0  0  0  0  0  0  0  0  0  0  0  0
   14.6313  -13.1797   41.6136 H   0  0  0  0  0  0  0  0  0  0  0  0
   16.9401  -12.5314   40.8971 H   0  0  0  0  0  0  0  0  0  0  0  0
  1  2  2  0
  1 13  1  0
  2  3  1  0
  2  4  1  0
  4  5  2  0
  5  6  1  0
  5  7  1  0
  7  8  1  0
  7 13  2  0
  8  9  2  0
  8 10  1  0
 10 11  2  0
 10 14  1  0
 11 12  1  0
 12 13  1  0
 14 15  2  0
 14 20  1  0
 15 16  1  0
 16 17  2  0
 17 18  1  0
 17 19  1  0
 19 20  2  0
  1 21  1  0
  3 22  1  0
  4 23  1  0
  6 24  1  0
 11 25  1  0
 15 26  1  0
 16 27  1  0
 18 28  1  0
 19 29  1  0
 20 30  1  0
M  END
>  <filename_input>  (17) 
7NFB_GEN_docked.sdf

>  <pdb_id>  (17) 
7NFB_GEN

>  <pose_rank>  (17) 
16

>  <num_atoms_heavy>  (17) 
20

>  <num_torsions>  (17) 
1

>  <pose>  (17) 
[22.385374685685807, -9.048143742379025, 41.5786940403221, 4.3141743999311695, 0.46302094586711945, -1.812076449111567, -0.6102790541980652]

>  <energy>  (17) 
-149.26538065261653

>  <inter_energy>  (17) 
-136.82225747341835

>  <intra_energy>  (17) 
16.504953445118264

>  <rmsd>  (17) 
11.5684

>  <sdf_rank>  (17) 
0

$$$$

     RDKit          3D

 30 32  0  0  0  0  0  0  0  0999 V2000
   13.9066    5.6718   25.9726 C   0  0  0  0  0  0  0  0  0  0  0  0
   13.8921    5.3536   24.6206 C   0  0  0  0  0  0  0  0  0  0  0  0
   15.0788    5.4117   23.9233 O   0  0  0  0  0  0  0  0  0  0  0  0
   12.7254    5.0021   23.9572 C   0  0  0  0  0  0  0  0  0  0  0  0
   11.5426    4.9586   24.6820 C   0  0  0  0  0  0  0  0  0  0  0  0
   10.4201    4.6189   24.0347 O   0  0  0  0  0  0  0  0  0  0  0  0
   11.4955    5.2628   26.0443 C   0  0  0  0  0  0  0  0  0  0  0  0
   10.2320    5.2423   26.7901 C   0  0  0  0  0  0  0  0  0  0  0  0
    9.1916    4.9715   26.2499 O   0  0  0  0  0  0  0  0  0  0  0  0
   10.3462    5.6159   28.2029 C   0  0  0  0  0  0  0  0  0  0  0  0
   11.5727    5.8143   28.7041 C   0  0  0  0  0  0  0  0  0  0  0  0
   12.7312    5.9374   27.9747 O   0  0  0  0  0  0  0  0  0  0  0  0
   12.6792    5.6187   26.6531 C   0  0  0  0  0  0  0  0  0  0  0  0
    9.2294    5.5624   29.1699 C   0  0  0  0  0  0  0  0  0  0  0  0
    9.2492    4.5525   30.1382 C   0  0  0  0  0  0  0  0  0  0  0  0
    8.2105    4.4314   31.0492 C   0  0  0  0  0  0  0  0  0  0  0  0
    7.1609    5.3180   30.9916 C   0  0  0  0  0  0  0  0  0  0  0  0
    6.1366    5.1866   31.9031 O   0  0  0  0  0  0  0  0  0  0  0  0
    7.1155    6.3385   30.0474 C   0  0  0  0  0  0  0  0  0  0  0  0
    8.1550    6.4577   29.1261 C   0  0  0  0  0  0  0  0  0  0  0  0
   14.8374    5.9527   26.4871 H   0  0  0  0  0  0  0  0  0  0  0  0
   15.0975    5.1901   22.9586 H   0  0  0  0  0  0  0  0  0  0  0  0
   12.7375    4.7638   22.8834 H   0  0  0  0  0  0  0  0  0  0  0  0
    9.5599    4.5786   24.5231 H   0  0  0  0  0  0  0  0  0  0  0  0
   11.6606    5.8850   29.7984 H   0  0  0  0  0  0  0  0  0  0  0  0
   10.0946    3.8498   30.1772 H   0  0  0  0  0  0  0  0  0  0  0  0
    8.2261    3.6358   31.8086 H   0  0  0  0  0  0  0  0  0  0  0  0
    5.3706    5.8134   31.8807 H   0  0  0  0  0  0  0  0  0  0  0  0
    6.2704    7.0423   30.0280 H   0  0  0  0  0  0  0  0  0  0  0  0
    8.1306    7.2533   28.3669 H   0  0  0  0  0  0  0  0  0  0  0  0
  1  2  2  0
  1 13  1  0
  2  3  1  0
  2  4  1  0
  4  5  2  0
  5  6  1  0
  5  7  1  0
  7  8  1  0
  7 13  2  0
  8  9  2  0
  8 10  1  0
 10 11  2  0
 10 14  1  0
 11 12  1  0
 12 13  1  0
 14 15  2  0
 14 20  1  0
 15 16  1  0
 16 17  2  0
 17 18  1  0
 17 19  1  0
 19 20  2  0
  1 21  1  0
  3 22  1  0
  4 23  1  0
  6 24  1  0
 11 25  1  0
 15 26  1  0
 16 27  1  0
 18 28  1  0
 19 29  1  0
 20 30  1  0
M  END
>  <filename_input>  (18) 
7NFB_GEN_docked.sdf

>  <pdb_id>  (18) 
7NFB_GEN

>  <pose_rank>  (18) 
17

>  <num_atoms_heavy>  (18) 
20

>  <num_torsions>  (18) 
1

>  <pose>  (18) 
[13.906629500863952, 5.671782832274294, 25.972583711555103, -0.7722563049258546, 0.4708457086647353, 0.4681149599007103, -1.675225548572131]

>  <energy>  (18) 
-142.85699294348464

>  <inter_energy>  (18) 
-121.50427011374767

>  <intra_energy>  (18) 
1.2077957183610863

>  <rmsd>  (18) 
12.031

>  <sdf_rank>  (18) 
0

$$$$

     RDKit          3D

 30 32  0  0  0  0  0  0  0  0999 V2000
   21.1597   -8.9280   41.9000 C   0  0  0  0  0  0  0  0  0  0  0  0
   22.1871   -9.4110   42.7004 C   0  0  0  0  0  0  0  0  0  0  0  0
   23.3305   -8.6525   42.8237 O   0  0  0  0  0  0  0  0  0  0  0  0
   22.1016  -10.6310   43.3555 C   0  0  0  0  0  0  0  0  0  0  0  0
   20.9413  -11.3784   43.2082 C   0  0  0  0  0  0  0  0  0  0  0  0
   20.8663  -12.5554   43.8431 O   0  0  0  0  0  0  0  0  0  0  0  0
   19.8730  -10.9426   42.4211 C   0  0  0  0  0  0  0  0  0  0  0  0
   18.6653  -11.7584   42.2502 C   0  0  0  0  0  0  0  0  0  0  0  0
   18.5590  -12.8355   42.7758 O   0  0  0  0  0  0  0  0  0  0  0  0
   17.6496  -11.1754   41.3689 C   0  0  0  0  0  0  0  0  0  0  0  0
   17.8516   -9.9323   40.9118 C   0  0  0  0  0  0  0  0  0  0  0  0
   19.0286   -9.2267   40.9889 O   0  0  0  0  0  0  0  0  0  0  0  0
   20.0132   -9.7305   41.7812 C   0  0  0  0  0  0  0  0  0  0  0  0
   16.3140  -11.7646   41.1357 C   0  0  0  0  0  0  0  0  0  0  0  0
   16.0652  -12.3509   39.8898 C   0  0  0  0  0  0  0  0  0  0  0  0
   14.8194  -12.8878   39.6016 C   0  0  0  0  0  0  0  0  0  0  0  0
   13.8310  -12.8398   40.5565 C   0  0  0  0  0  0  0  0  0  0  0  0
   12.5988  -13.3777   40.2571 O   0  0  0  0  0  0  0  0  0  0  0  0
   14.0488  -12.2725   41.8078 C   0  0  0  0  0  0  0  0  0  0  0  0
   15.2981  -11.7257   42.0971 C   0  0  0  0  0  0  0  0  0  0  0  0
   21.2405   -7.9607   41.3825 H   0  0  0  0  0  0  0  0  0  0  0  0
   24.0784   -8.9726   43.3878 H   0  0  0  0  0  0  0  0  0  0  0  0
   22.9327  -10.9969   43.9762 H   0  0  0  0  0  0  0  0  0  0  0  0
   20.0522  -13.1125   43.7584 H   0  0  0  0  0  0  0  0  0  0  0  0
   16.9984   -9.4311   40.4314 H   0  0  0  0  0  0  0  0  0  0  0  0
   16.8634  -12.3862   39.1337 H   0  0  0  0  0  0  0  0  0  0  0  0
   14.6242  -13.3465   38.6210 H   0  0  0  0  0  0  0  0  0  0  0  0
   11.8720  -13.3546   40.9290 H   0  0  0  0  0  0  0  0  0  0  0  0
   13.2457  -12.2555   42.5592 H   0  0  0  0  0  0  0  0  0  0  0  0
   15.4847  -11.2650   43.0784 H   0  0  0  0  0  0  0  0  0  0  0  0
  1  2  2  0
  1 13  1  0
  2  3  1  0
  2  4  1  0
  4  5  2  0
  5  6  1  0
  5  7  1  0
  7  8  1  0
  7 13  2  0
  8  9  2  0
  8 10  1  0
 10 11  2  0
 10 14  1  0
 11 12  1  0
 12 13  1  0
 14 15  2  0
 14 20  1  0
 15 16  1  0
 16 17  2  0
 17 18  1  0
 17 19  1  0
 19 20  2  0
  1 21  1  0
  3 22  1  0
  4 23  1  0
  6 24  1  0
 11 25  1  0
 15 26  1  0
 16 27  1  0
 18 28  1  0
 19 29  1  0
 20 30  1  0
M  END
>  <filename_input>  (19) 
7NFB_GEN_docked.sdf

>  <pdb_id>  (19) 
7NFB_GEN

>  <pose_rank>  (19) 
18

>  <num_atoms_heavy>  (19) 
20

>  <num_torsions>  (19) 
1

>  <pose>  (19) 
[21.159733025446283, -8.928039737712986, 41.89998554396616, 3.3749859314096162, 0.7492206018947064, -0.22564823472865597, 0.8408538880724576]

>  <energy>  (19) 
-131.76454970461413

>  <inter_energy>  (19) 
-115.03622467944784

>  <intra_energy>  (19) 
0.23881579764250305

>  <rmsd>  (19) 
11.9564

>  <sdf_rank>  (19) 
0

$$$$

     RDKit          3D

 30 32  0  0  0  0  0  0  0  0999 V2000
   22.5113  -12.4718   43.0983 C   0  0  0  0  0  0  0  0  0  0  0  0
   23.4068  -12.0116   42.1414 C   0  0  0  0  0  0  0  0  0  0  0  0
   24.7504  -12.2423   42.3401 O   0  0  0  0  0  0  0  0  0  0  0  0
   22.9913  -11.3173   41.0144 C   0  0  0  0  0  0  0  0  0  0  0  0
   21.6326  -11.0922   40.8426 C   0  0  0  0  0  0  0  0  0  0  0  0
   21.2389  -10.4207   39.7525 O   0  0  0  0  0  0  0  0  0  0  0  0
   20.6844  -11.5351   41.7675 C   0  0  0  0  0  0  0  0  0  0  0  0
   19.2538  -11.2625   41.5876 C   0  0  0  0  0  0  0  0  0  0  0  0
   18.8505  -10.6393   40.6406 O   0  0  0  0  0  0  0  0  0  0  0  0
   18.3924  -11.7664   42.6610 C   0  0  0  0  0  0  0  0  0  0  0  0
   18.9537  -12.5173   43.6181 C   0  0  0  0  0  0  0  0  0  0  0  0
   20.3023  -12.6722   43.8338 O   0  0  0  0  0  0  0  0  0  0  0  0
   21.1498  -12.2081   42.8760 C   0  0  0  0  0  0  0  0  0  0  0  0
   16.9156  -11.7033   42.6408 C   0  0  0  0  0  0  0  0  0  0  0  0
   16.2878  -10.7819   43.4861 C   0  0  0  0  0  0  0  0  0  0  0  0
   14.9040  -10.7026   43.5359 C   0  0  0  0  0  0  0  0  0  0  0  0
   14.1552  -11.5392   42.7418 C   0  0  0  0  0  0  0  0  0  0  0  0
   12.7820  -11.4490   42.8006 O   0  0  0  0  0  0  0  0  0  0  0  0
   14.7486  -12.4595   41.8839 C   0  0  0  0  0  0  0  0  0  0  0  0
   16.1392  -12.5459   41.8376 C   0  0  0  0  0  0  0  0  0  0  0  0
   22.8529  -13.0180   43.9898 H   0  0  0  0  0  0  0  0  0  0  0  0
   25.4109  -11.9253   41.6742 H   0  0  0  0  0  0  0  0  0  0  0  0
   23.7206  -10.9541   40.2754 H   0  0  0  0  0  0  0  0  0  0  0  0
   20.2768  -10.2437   39.6007 H   0  0  0  0  0  0  0  0  0  0  0  0
   18.2738  -13.0589   44.2922 H   0  0  0  0  0  0  0  0  0  0  0  0
   16.8959  -10.1157   44.1157 H   0  0  0  0  0  0  0  0  0  0  0  0
   14.4114   -9.9794   44.2025 H   0  0  0  0  0  0  0  0  0  0  0  0
   12.2225  -12.0411   42.2380 H   0  0  0  0  0  0  0  0  0  0  0  0
   14.1285  -13.1107   41.2503 H   0  0  0  0  0  0  0  0  0  0  0  0
   16.6247  -13.2744   41.1716 H   0  0  0  0  0  0  0  0  0  0  0  0
  1  2  2  0
  1 13  1  0
  2  3  1  0
  2  4  1  0
  4  5  2  0
  5  6  1  0
  5  7  1  0
  7  8  1  0
  7 13  2  0
  8  9  2  0
  8 10  1  0
 10 11  2  0
 10 14  1  0
 11 12  1  0
 12 13  1  0
 14 15  2  0
 14 20  1  0
 15 16  1  0
 16 17  2  0
 17 18  1  0
 17 19  1  0
 19 20  2  0
  1 21  1  0
  3 22  1  0
  4 23  1  0
  6 24  1  0
 11 25  1  0
 15 26  1  0
 16 27  1  0
 18 28  1  0
 19 29  1  0
 20 30  1  0
M  END
>  <filename_input>  (20) 
7NFB_GEN_docked.sdf

>  <pdb_id>  (20) 
7NFB_GEN

>  <pose_rank>  (20) 
19

>  <num_atoms_heavy>  (20) 
20

>  <num_torsions>  (20) 
1

>  <pose>  (20) 
[22.511270289939294, -12.471769807973574, 43.098251257157905, 2.2639175426641738, 5.60004471020975, -0.22240112860572542, 0.8583560868357939]

>  <energy>  (20) 
-103.25386428230897

>  <inter_energy>  (20) 
-104.87467374754551

>  <intra_energy>  (20) 
0.17286001421190741

>  <rmsd>  (20) 
12.3999

>  <sdf_rank>  (20) 
0

$$$$

     RDKit          3D

 30 32  0  0  0  0  0  0  0  0999 V2000
   17.1387  -13.1833   43.4370 C   0  0  0  0  0  0  0  0  0  0  0  0
   18.1897  -13.0730   42.5356 C   0  0  0  0  0  0  0  0  0  0  0  0
   19.4761  -13.1841   43.0157 O   0  0  0  0  0  0  0  0  0  0  0  0
   17.9818  -12.8373   41.1842 C   0  0  0  0  0  0  0  0  0  0  0  0
   16.6759  -12.7222   40.7285 C   0  0  0  0  0  0  0  0  0  0  0  0
   16.4830  -12.4941   39.4227 O   0  0  0  0  0  0  0  0  0  0  0  0
   15.5787  -12.8291   41.5859 C   0  0  0  0  0  0  0  0  0  0  0  0
   14.2048  -12.6742   41.0942 C   0  0  0  0  0  0  0  0  0  0  0  0
   13.9781  -12.4404   39.9359 O   0  0  0  0  0  0  0  0  0  0  0  0
   13.1676  -12.7829   42.1241 C   0  0  0  0  0  0  0  0  0  0  0  0
   13.5442  -13.1284   43.3626 C   0  0  0  0  0  0  0  0  0  0  0  0
   14.8356  -13.1626   43.8321 O   0  0  0  0  0  0  0  0  0  0  0  0
   15.8394  -13.0501   42.9206 C   0  0  0  0  0  0  0  0  0  0  0  0
   11.7157  -12.7678   41.8467 C   0  0  0  0  0  0  0  0  0  0  0  0
   11.2410  -13.5622   40.7972 C   0  0  0  0  0  0  0  0  0  0  0  0
    9.8937  -13.5609   40.4681 C   0  0  0  0  0  0  0  0  0  0  0  0
    9.0281  -12.7711   41.1878 C   0  0  0  0  0  0  0  0  0  0  0  0
    7.6926  -12.7804   40.8507 O   0  0  0  0  0  0  0  0  0  0  0  0
    9.4664  -11.9772   42.2425 C   0  0  0  0  0  0  0  0  0  0  0  0
   10.8214  -11.9713   42.5705 C   0  0  0  0  0  0  0  0  0  0  0  0
   17.3160  -13.3666   44.5071 H   0  0  0  0  0  0  0  0  0  0  0  0
   20.2441  -13.1095   42.3954 H   0  0  0  0  0  0  0  0  0  0  0  0
   18.8309  -12.7440   40.4912 H   0  0  0  0  0  0  0  0  0  0  0  0
   15.5636  -12.4070   39.0659 H   0  0  0  0  0  0  0  0  0  0  0  0
   12.7480  -13.4103   44.0673 H   0  0  0  0  0  0  0  0  0  0  0  0
   11.9414  -14.1921   40.2292 H   0  0  0  0  0  0  0  0  0  0  0  0
    9.5221  -14.1842   39.6414 H   0  0  0  0  0  0  0  0  0  0  0  0
    7.0509  -12.2198   41.3548 H   0  0  0  0  0  0  0  0  0  0  0  0
    8.7531  -11.3619   42.8105 H   0  0  0  0  0  0  0  0  0  0  0  0
   11.1864  -11.3424   43.3958 H   0  0  0  0  0  0  0  0  0  0  0  0
  1  2  2  0
  1 13  1  0
  2  3  1  0
  2  4  1  0
  4  5  2  0
  5  6  1  0
  5  7  1  0
  7  8  1  0
  7 13  2  0
  8  9  2  0
  8 10  1  0
 10 11  2  0
 10 14  1  0
 11 12  1  0
 12 13  1  0
 14 15  2  0
 14 20  1  0
 15 16  1  0
 16 17  2  0
 17 18  1  0
 17 19  1  0
 19 20  2  0
  1 21  1  0
  3 22  1  0
  4 23  1  0
  6 24  1  0
 11 25  1  0
 15 26  1  0
 16 27  1  0
 18 28  1  0
 19 29  1  0
 20 30  1  0
M  END
>  <filename_input>  (21) 
7NFB_GEN_docked.sdf

>  <pdb_id>  (21) 
7NFB_GEN

>  <pose_rank>  (21) 
20

>  <num_atoms_heavy>  (21) 
20

>  <num_torsions>  (21) 
1

>  <pose>  (21) 
[17.138698924990116, -13.18325893225752, 43.43703380436522, 4.357257629687306, 3.6373685658060118, -0.3552477207437111, -2.7515473492080575]

>  <energy>  (21) 
-117.58370921094642

>  <inter_energy>  (21) 
-116.26919063970777

>  <intra_energy>  (21) 
8.08701354165668

>  <rmsd>  (21) 
12.5486

>  <sdf_rank>  (21) 
0

$$$$

     RDKit          3D

 30 32  0  0  0  0  0  0  0  0999 V2000
    7.3872  -13.2551   41.4252 C   0  0  0  0  0  0  0  0  0  0  0  0
    7.0807  -12.7222   42.6708 C   0  0  0  0  0  0  0  0  0  0  0  0
    7.2894  -13.5048   43.7851 O   0  0  0  0  0  0  0  0  0  0  0  0
    6.5580  -11.4456   42.8194 C   0  0  0  0  0  0  0  0  0  0  0  0
    6.3506  -10.6814   41.6796 C   0  0  0  0  0  0  0  0  0  0  0  0
    5.8452   -9.4502   41.8309 O   0  0  0  0  0  0  0  0  0  0  0  0
    6.6444  -11.1609   40.4012 C   0  0  0  0  0  0  0  0  0  0  0  0
    6.3907  -10.3524   39.2032 C   0  0  0  0  0  0  0  0  0  0  0  0
    5.9118   -9.2515   39.2820 O   0  0  0  0  0  0  0  0  0  0  0  0
    6.7234  -11.0100   37.9362 C   0  0  0  0  0  0  0  0  0  0  0  0
    7.3284  -12.2043   37.9870 C   0  0  0  0  0  0  0  0  0  0  0  0
    7.4597  -12.9943   39.1041 O   0  0  0  0  0  0  0  0  0  0  0  0
    7.1491  -12.4395   40.3069 C   0  0  0  0  0  0  0  0  0  0  0  0
    6.6529  -10.3520   36.6144 C   0  0  0  0  0  0  0  0  0  0  0  0
    7.8566  -10.0291   35.9784 C   0  0  0  0  0  0  0  0  0  0  0  0
    7.8523   -9.3789   34.7533 C   0  0  0  0  0  0  0  0  0  0  0  0
    6.6498   -9.0573   34.1688 C   0  0  0  0  0  0  0  0  0  0  0  0
    6.6603   -8.4127   32.9516 O   0  0  0  0  0  0  0  0  0  0  0  0
    5.4358   -9.3726   34.7703 C   0  0  0  0  0  0  0  0  0  0  0  0
    5.4378  -10.0196   36.0052 C   0  0  0  0  0  0  0  0  0  0  0  0
    7.7978  -14.2701   41.3195 H   0  0  0  0  0  0  0  0  0  0  0  0
    7.0797  -13.1502   44.6854 H   0  0  0  0  0  0  0  0  0  0  0  0
    6.3139  -11.0491   43.8160 H   0  0  0  0  0  0  0  0  0  0  0  0
    5.6855   -8.8797   41.0377 H   0  0  0  0  0  0  0  0  0  0  0  0
    7.7589  -12.5873   37.0500 H   0  0  0  0  0  0  0  0  0  0  0  0
    8.8131  -10.2927   36.4534 H   0  0  0  0  0  0  0  0  0  0  0  0
    8.7993   -9.1236   34.2552 H   0  0  0  0  0  0  0  0  0  0  0  0
    5.8068   -8.1713   32.5119 H   0  0  0  0  0  0  0  0  0  0  0  0
    4.4866   -9.1146   34.2781 H   0  0  0  0  0  0  0  0  0  0  0  0
    4.4870  -10.2682   36.4992 H   0  0  0  0  0  0  0  0  0  0  0  0
  1  2  2  0
  1 13  1  0
  2  3  1  0
  2  4  1  0
  4  5  2  0
  5  6  1  0
  5  7  1  0
  7  8  1  0
  7 13  2  0
  8  9  2  0
  8 10  1  0
 10 11  2  0
 10 14  1  0
 11 12  1  0
 12 13  1  0
 14 15  2  0
 14 20  1  0
 15 16  1  0
 16 17  2  0
 17 18  1  0
 17 19  1  0
 19 20  2  0
  1 21  1  0
  3 22  1  0
  4 23  1  0
  6 24  1  0
 11 25  1  0
 15 26  1  0
 16 27  1  0
 18 28  1  0
 19 29  1  0
 20 30  1  0
M  END
>  <filename_input>  (22) 
7NFB_GEN_docked.sdf

>  <pdb_id>  (22) 
7NFB_GEN

>  <pose_rank>  (22) 
21

>  <num_atoms_heavy>  (22) 
20

>  <num_torsions>  (22) 
1

>  <pose>  (22) 
[7.387154593879369, -13.255080520185826, 41.425196104998946, -2.4509782016573354, 2.8746193323983182, -1.0147615184265806, -1.6745528456420506]

>  <energy>  (22) 
100.55624657665098

>  <inter_energy>  (22) 
112.2883389636732

>  <intra_energy>  (22) 
1.2138678538517105

>  <rmsd>  (22) 
13.5863

>  <sdf_rank>  (22) 
0

$$$$

     RDKit          3D

 30 32  0  0  0  0  0  0  0  0999 V2000
    7.1652   -3.3326   39.3945 C   0  0  0  0  0  0  0  0  0  0  0  0
    6.8880   -4.5468   40.0096 C   0  0  0  0  0  0  0  0  0  0  0  0
    7.0457   -5.7018   39.2754 O   0  0  0  0  0  0  0  0  0  0  0  0
    6.4433   -4.6254   41.3214 C   0  0  0  0  0  0  0  0  0  0  0  0
    6.2860   -3.4460   42.0360 C   0  0  0  0  0  0  0  0  0  0  0  0
    5.8557   -3.5298   43.3017 O   0  0  0  0  0  0  0  0  0  0  0  0
    6.5538   -2.1962   41.4731 C   0  0  0  0  0  0  0  0  0  0  0  0
    6.3530   -0.9561   42.2314 C   0  0  0  0  0  0  0  0  0  0  0  0
    5.9416   -0.9744   43.3619 O   0  0  0  0  0  0  0  0  0  0  0  0
    6.6489    0.2728   41.4894 C   0  0  0  0  0  0  0  0  0  0  0  0
    7.1801    0.1561   40.2650 C   0  0  0  0  0  0  0  0  0  0  0  0
    7.2601   -1.0015   39.5282 O   0  0  0  0  0  0  0  0  0  0  0  0
    6.9802   -2.1718   40.1632 C   0  0  0  0  0  0  0  0  0  0  0  0
    6.6222    1.6276   42.0801 C   0  0  0  0  0  0  0  0  0  0  0  0
    7.8372    2.1873   42.4903 C   0  0  0  0  0  0  0  0  0  0  0  0
    7.8692    3.4405   43.0838 C   0  0  0  0  0  0  0  0  0  0  0  0
    6.6920    4.1286   43.2622 C   0  0  0  0  0  0  0  0  0  0  0  0
    6.7387    5.3724   43.8521 O   0  0  0  0  0  0  0  0  0  0  0  0
    5.4689    3.6042   42.8572 C   0  0  0  0  0  0  0  0  0  0  0  0
    5.4335    2.3417   42.2670 C   0  0  0  0  0  0  0  0  0  0  0  0
    7.5138   -3.2825   38.3524 H   0  0  0  0  0  0  0  0  0  0  0  0
    6.8553   -6.5810   39.6888 H   0  0  0  0  0  0  0  0  0  0  0  0
    6.2209   -5.5985   41.7838 H   0  0  0  0  0  0  0  0  0  0  0  0
    5.7332   -2.7069   43.8383 H   0  0  0  0  0  0  0  0  0  0  0  0
    7.5893    1.0692   39.8080 H   0  0  0  0  0  0  0  0  0  0  0  0
    8.7735    1.6296   42.3410 H   0  0  0  0  0  0  0  0  0  0  0  0
    8.8247    3.8786   43.4079 H   0  0  0  0  0  0  0  0  0  0  0  0
    5.9039    5.8862   43.9907 H   0  0  0  0  0  0  0  0  0  0  0  0
    4.5417    4.1783   43.0008 H   0  0  0  0  0  0  0  0  0  0  0  0
    4.4738    1.9082   41.9491 H   0  0  0  0  0  0  0  0  0  0  0  0
  1  2  2  0
  1 13  1  0
  2  3  1  0
  2  4  1  0
  4  5  2  0
  5  6  1  0
  5  7  1  0
  7  8  1  0
  7 13  2  0
  8  9  2  0
  8 10  1  0
 10 11  2  0
 10 14  1  0
 11 12  1  0
 12 13  1  0
 14 15  2  0
 14 20  1  0
 15 16  1  0
 16 17  2  0
 17 18  1  0
 17 19  1  0
 19 20  2  0
  1 21  1  0
  3 22  1  0
  4 23  1  0
  6 24  1  0
 11 25  1  0
 15 26  1  0
 16 27  1  0
 18 28  1  0
 19 29  1  0
 20 30  1  0
M  END
>  <filename_input>  (23) 
7NFB_GEN_docked.sdf

>  <pdb_id>  (23) 
7NFB_GEN

>  <pose_rank>  (23) 
22

>  <num_atoms_heavy>  (23) 
20

>  <num_torsions>  (23) 
1

>  <pose>  (23) 
[7.165181637421412, -3.332638731853987, 39.39450152192048, -1.9669343461053004, 1.9569589541013888, 0.9251056097970852, -1.8465068059785434]

>  <energy>  (23) 
140.18397040605262

>  <inter_energy>  (23) 
146.781210156353

>  <intra_energy>  (23) 
0.15131806417753296

>  <rmsd>  (23) 
13.2632

>  <sdf_rank>  (23) 
0

$$$$

     RDKit          3D

 30 32  0  0  0  0  0  0  0  0999 V2000
   25.4000    4.6951   27.1372 C   0  0  0  0  0  0  0  0  0  0  0  0
   24.9617    6.0051   26.9921 C   0  0  0  0  0  0  0  0  0  0  0  0
   25.2124    6.6493   25.8005 O   0  0  0  0  0  0  0  0  0  0  0  0
   24.3037    6.6806   28.0097 C   0  0  0  0  0  0  0  0  0  0  0  0
   24.0707    6.0104   29.2026 C   0  0  0  0  0  0  0  0  0  0  0  0
   23.4353    6.6692   30.1807 O   0  0  0  0  0  0  0  0  0  0  0  0
   24.4829    4.6915   29.4054 C   0  0  0  0  0  0  0  0  0  0  0  0
   24.2567    4.0065   30.6832 C   0  0  0  0  0  0  0  0  0  0  0  0
   23.7160    4.5624   31.6033 O   0  0  0  0  0  0  0  0  0  0  0  0
   24.7761    2.6374   30.7470 C   0  0  0  0  0  0  0  0  0  0  0  0
   25.2834    2.1041   29.6276 C   0  0  0  0  0  0  0  0  0  0  0  0
   25.5880    2.7884   28.4751 O   0  0  0  0  0  0  0  0  0  0  0  0
   25.1438    4.0699   28.3685 C   0  0  0  0  0  0  0  0  0  0  0  0
   24.5704    1.7226   31.8898 C   0  0  0  0  0  0  0  0  0  0  0  0
   25.6292    1.5476   32.7876 C   0  0  0  0  0  0  0  0  0  0  0  0
   25.5062    0.6746   33.8583 C   0  0  0  0  0  0  0  0  0  0  0  0
   24.3293   -0.0158   34.0291 C   0  0  0  0  0  0  0  0  0  0  0  0
   24.2206   -0.8787   35.0973 O   0  0  0  0  0  0  0  0  0  0  0  0
   23.2548    0.1425   33.1600 C   0  0  0  0  0  0  0  0  0  0  0  0
   23.3787    1.0140   32.0790 C   0  0  0  0  0  0  0  0  0  0  0  0
   25.9241    4.1709   26.3244 H   0  0  0  0  0  0  0  0  0  0  0  0
   24.9112    7.5833   25.6698 H   0  0  0  0  0  0  0  0  0  0  0  0
   23.9748    7.7215   27.8745 H   0  0  0  0  0  0  0  0  0  0  0  0
   23.2539    6.2193   31.0437 H   0  0  0  0  0  0  0  0  0  0  0  0
   25.4733    1.0206   29.6311 H   0  0  0  0  0  0  0  0  0  0  0  0
   26.5657    2.1063   32.6433 H   0  0  0  0  0  0  0  0  0  0  0  0
   26.3401    0.5362   34.5623 H   0  0  0  0  0  0  0  0  0  0  0  0
   23.3829   -1.3864   35.2403 H   0  0  0  0  0  0  0  0  0  0  0  0
   22.3194   -0.4128   33.3236 H   0  0  0  0  0  0  0  0  0  0  0  0
   22.5421    1.1443   31.3768 H   0  0  0  0  0  0  0  0  0  0  0  0
  1  2  2  0
  1 13  1  0
  2  3  1  0
  2  4  1  0
  4  5  2  0
  5  6  1  0
  5  7  1  0
  7  8  1  0
  7 13  2  0
  8  9  2  0
  8 10  1  0
 10 11  2  0
 10 14  1  0
 11 12  1  0
 12 13  1  0
 14 15  2  0
 14 20  1  0
 15 16  1  0
 16 17  2  0
 17 18  1  0
 17 19  1  0
 19 20  2  0
  1 21  1  0
  3 22  1  0
  4 23  1  0
  6 24  1  0
 11 25  1  0
 15 26  1  0
 16 27  1  0
 18 28  1  0
 19 29  1  0
 20 30  1  0
M  END
>  <filename_input>  (24) 
7NFB_GEN_docked.sdf

>  <pdb_id>  (24) 
7NFB_GEN

>  <pose_rank>  (24) 
23

>  <num_atoms_heavy>  (24) 
20

>  <num_torsions>  (24) 
1

>  <pose>  (24) 
[25.400007546211054, 4.6950821356267, 27.13718609541995, -2.7966978430173506, -3.7545446486043454, -0.2502972286357665, 0.9529512160365267]

>  <energy>  (24) 
231.87759994762376

>  <inter_energy>  (24) 
260.55063101647863

>  <intra_energy>  (24) 
0.0004834926185249029

>  <rmsd>  (24) 
12.6184

>  <sdf_rank>  (24) 
0

$$$$

     RDKit          3D

 30 32  0  0  0  0  0  0  0  0999 V2000
   23.8608    5.5607   33.0033 C   0  0  0  0  0  0  0  0  0  0  0  0
   24.1574    5.6448   34.3577 C   0  0  0  0  0  0  0  0  0  0  0  0
   25.4817    5.6458   34.7372 O   0  0  0  0  0  0  0  0  0  0  0  0
   23.1676    5.7072   35.3279 C   0  0  0  0  0  0  0  0  0  0  0  0
   21.8416    5.6971   34.9184 C   0  0  0  0  0  0  0  0  0  0  0  0
   20.8915    5.7571   35.8607 O   0  0  0  0  0  0  0  0  0  0  0  0
   21.4817    5.6194   33.5711 C   0  0  0  0  0  0  0  0  0  0  0  0
   20.0750    5.5785   33.1556 C   0  0  0  0  0  0  0  0  0  0  0  0
   19.1836    5.6011   33.9634 O   0  0  0  0  0  0  0  0  0  0  0  0
   19.8644    5.4650   31.7095 C   0  0  0  0  0  0  0  0  0  0  0  0
   20.9373    5.5338   30.9100 C   0  0  0  0  0  0  0  0  0  0  0  0
   22.2492    5.4619   31.3140 O   0  0  0  0  0  0  0  0  0  0  0  0
   22.5020    5.5461   32.6481 C   0  0  0  0  0  0  0  0  0  0  0  0
   18.5394    5.5145   31.0558 C   0  0  0  0  0  0  0  0  0  0  0  0
   18.2840    6.5688   30.1721 C   0  0  0  0  0  0  0  0  0  0  0  0
   17.0465    6.6865   29.5570 C   0  0  0  0  0  0  0  0  0  0  0  0
   16.0731    5.7524   29.8238 C   0  0  0  0  0  0  0  0  0  0  0  0
   14.8492    5.8810   29.2052 O   0  0  0  0  0  0  0  0  0  0  0  0
   16.2982    4.6874   30.6899 C   0  0  0  0  0  0  0  0  0  0  0  0
   17.5389    4.5712   31.3149 C   0  0  0  0  0  0  0  0  0  0  0  0
   24.6542    5.5080   32.2433 H   0  0  0  0  0  0  0  0  0  0  0  0
   25.7219    5.7048   35.6959 H   0  0  0  0  0  0  0  0  0  0  0  0
   23.4275    5.7634   36.3953 H   0  0  0  0  0  0  0  0  0  0  0  0
   19.9361    5.7517   35.6015 H   0  0  0  0  0  0  0  0  0  0  0  0
   20.7516    5.6591   29.8331 H   0  0  0  0  0  0  0  0  0  0  0  0
   19.0701    7.3095   29.9638 H   0  0  0  0  0  0  0  0  0  0  0  0
   16.8460    7.5170   28.8641 H   0  0  0  0  0  0  0  0  0  0  0  0
   14.1333    5.2204   29.3820 H   0  0  0  0  0  0  0  0  0  0  0  0
   15.5075    3.9466   30.8792 H   0  0  0  0  0  0  0  0  0  0  0  0
   17.7308    3.7403   32.0097 H   0  0  0  0  0  0  0  0  0  0  0  0
  1  2  2  0
  1 13  1  0
  2  3  1  0
  2  4  1  0
  4  5  2  0
  5  6  1  0
  5  7  1  0
  7  8  1  0
  7 13  2  0
  8  9  2  0
  8 10  1  0
 10 11  2  0
 10 14  1  0
 11 12  1  0
 12 13  1  0
 14 15  2  0
 14 20  1  0
 15 16  1  0
 16 17  2  0
 17 18  1  0
 17 19  1  0
 19 20  2  0
  1 21  1  0
  3 22  1  0
  4 23  1  0
  6 24  1  0
 11 25  1  0
 15 26  1  0
 16 27  1  0
 18 28  1  0
 19 29  1  0
 20 30  1  0
M  END
>  <filename_input>  (25) 
7NFB_GEN_docked.sdf

>  <pdb_id>  (25) 
7NFB_GEN

>  <pose_rank>  (25) 
24

>  <num_atoms_heavy>  (25) 
20

>  <num_torsions>  (25) 
1

>  <pose>  (25) 
[23.860756110396437, 5.560749962758508, 33.003329115917126, 2.4892802438803874, -0.376438787194346, 0.3128124191786423, -1.5172234513245653]

>  <energy>  (25) 
404.41722750916983

>  <inter_energy>  (25) 
407.35933439808343

>  <intra_energy>  (25) 
3.008277177743777

>  <rmsd>  (25) 
10.9955

>  <sdf_rank>  (25) 
0

$$$$

     RDKit          3D

 30 32  0  0  0  0  0  0  0  0999 V2000
   19.0280   -4.4100   33.6070 C   0  0  0  0  0  0  0  0  0  0  0  0
   19.7010   -3.8650   32.5210 C   0  0  0  0  0  0  0  0  0  0  0  0
   21.0510   -4.1110   32.3990 O   0  0  0  0  0  0  0  0  0  0  0  0
   19.0620   -3.0730   31.5780 C   0  0  0  0  0  0  0  0  0  0  0  0
   17.7030   -2.8350   31.7290 C   0  0  0  0  0  0  0  0  0  0  0  0
   17.0930   -2.0690   30.8150 O   0  0  0  0  0  0  0  0  0  0  0  0
   16.9720   -3.3600   32.7970 C   0  0  0  0  0  0  0  0  0  0  0  0
   15.5420   -3.0740   32.9600 C   0  0  0  0  0  0  0  0  0  0  0  0
   14.9530   -2.3690   32.1830 O   0  0  0  0  0  0  0  0  0  0  0  0
   14.9270   -3.6730   34.1480 C   0  0  0  0  0  0  0  0  0  0  0  0
   15.6700   -4.5060   34.8890 C   0  0  0  0  0  0  0  0  0  0  0  0
   17.0300   -4.6780   34.7890 O   0  0  0  0  0  0  0  0  0  0  0  0
   17.6560   -4.1290   33.7130 C   0  0  0  0  0  0  0  0  0  0  0  0
   13.4830   -3.6100   34.4580 C   0  0  0  0  0  0  0  0  0  0  0  0
   13.0930   -3.7540   35.7940 C   0  0  0  0  0  0  0  0  0  0  0  0
   11.7500   -3.7390   36.1400 C   0  0  0  0  0  0  0  0  0  0  0  0
   10.8050   -3.5780   35.1540 C   0  0  0  0  0  0  0  0  0  0  0  0
    9.4750   -3.5640   35.5120 O   0  0  0  0  0  0  0  0  0  0  0  0
   11.1600   -3.4230   33.8180 C   0  0  0  0  0  0  0  0  0  0  0  0
   12.5090   -3.4450   33.4670 C   0  0  0  0  0  0  0  0  0  0  0  0
   19.5462   -5.0335   34.3504 H   0  0  0  0  0  0  0  0  0  0  0  0
   21.5556   -3.7349   31.6348 H   0  0  0  0  0  0  0  0  0  0  0  0
   19.6186   -2.6443   30.7316 H   0  0  0  0  0  0  0  0  0  0  0  0
   16.1244   -1.8803   30.8942 H   0  0  0  0  0  0  0  0  0  0  0  0
   15.1441   -5.1065   35.6458 H   0  0  0  0  0  0  0  0  0  0  0  0
   13.8569   -3.8800   36.5754 H   0  0  0  0  0  0  0  0  0  0  0  0
   11.4444   -3.8545   37.1904 H   0  0  0  0  0  0  0  0  0  0  0  0
    8.7771   -3.4494   34.8193 H   0  0  0  0  0  0  0  0  0  0  0  0
   10.3863   -3.2849   33.0484 H   0  0  0  0  0  0  0  0  0  0  0  0
   12.8069   -3.3330   32.4141 H   0  0  0  0  0  0  0  0  0  0  0  0
  1  2  2  0
  1 13  1  0
  2  3  1  0
  2  4  1  0
  4  5  2  0
  5  6  1  0
  5  7  1  0
  7  8  1  0
  7 13  2  0
  8  9  2  0
  8 10  1  0
 10 11  2  0
 10 14  1  0
 11 12  1  0
 12 13  1  0
 14 15  2  0
 14 20  1  0
 15 16  1  0
 16 17  2  0
 17 18  1  0
 17 19  1  0
 19 20  2  0
  1 21  1  0
  3 22  1  0
  4 23  1  0
  6 24  1  0
 11 25  1  0
 15 26  1  0
 16 27  1  0
 18 28  1  0
 19 29  1  0
 20 30  1  0
M  END
>  <filename_input>  (26) 
7NFB_GEN_docked.sdf

>  <pdb_id>  (26) 
7NFB_GEN

>  <pose_rank>  (26) 
25

>  <num_atoms_heavy>  (26) 
20

>  <num_torsions>  (26) 
1

>  <pose>  (26) 
[19.028, -4.41, 33.607, 1e-06, 1e-06, 1e-06, 0.0]

>  <energy>  (26) 
-1132.9379619890651

>  <inter_energy>  (26) 
-1149.7265126907766

>  <intra_energy>  (26) 
12.17178678027588

>  <rmsd>  (26) 
0.0

>  <sdf_rank>  (26) 
0

$$$$
