
     RDKit          3D

 35 36  0  0  0  0  0  0  0  0999 V2000
  -11.8221  -27.9819    4.1436 C   0  0  0  0  0  0  0  0  0  0  0  0
  -12.8867  -27.9826    1.9766 C   0  0  0  0  0  0  0  0  0  0  0  0
  -15.1330  -29.0436    1.8850 C   0  0  0  0  0  0  0  0  0  0  0  0
  -15.1542  -29.5373    0.5736 C   0  0  0  0  0  0  0  0  0  0  0  0
  -16.2448  -29.3036    2.6813 C   0  0  0  0  0  0  0  0  0  0  0  0
  -17.3644  -29.9202    2.1686 C   0  0  0  0  0  0  0  0  0  0  0  0
  -17.3564  -30.4270    0.8846 C   0  0  0  0  0  0  0  0  0  0  0  0
  -16.2650  -30.1798    0.0988 C   0  0  0  0  0  0  0  0  0  0  0  0
  -10.5906  -27.1953    2.1296 C   0  0  0  0  0  0  0  0  0  0  0  0
   -9.3005  -27.4338    2.8412 C   0  0  0  0  0  0  0  0  0  0  0  0
  -11.7227  -27.9654    2.6734 N   0  0  0  0  0  0  0  0  0  0  0  0
  -14.0488  -28.4893    2.4894 N   0  0  0  0  0  0  0  0  0  0  0  0
  -10.5059  -28.3384    4.7617 C   0  0  0  0  0  0  0  0  0  0  0  0
   -8.1863  -27.3569    5.0879 C   0  0  0  0  0  0  0  0  0  0  0  0
   -9.4899  -27.3198    4.3344 C   0  0  1  0  0  0  0  0  0  0  0  0
  -12.7737  -28.0183    0.6391 O   0  0  0  0  0  0  0  0  0  0  0  0
  -18.5165  -31.0417    0.5705 O   0  0  0  0  0  0  0  0  0  0  0  0
  -12.1276  -26.9855    4.4955 H   0  0  0  0  0  0  0  0  0  0  0  0
  -12.5659  -28.7368    4.4382 H   0  0  0  0  0  0  0  0  0  0  0  0
  -14.2756  -29.4080   -0.0756 H   0  0  0  0  0  0  0  0  0  0  0  0
  -16.2288  -29.0106    3.7414 H   0  0  0  0  0  0  0  0  0  0  0  0
  -18.2704  -30.0094    2.7859 H   0  0  0  0  0  0  0  0  0  0  0  0
  -16.2807  -30.5086   -0.9508 H   0  0  0  0  0  0  0  0  0  0  0  0
  -10.8333  -26.1249    2.2017 H   0  0  0  0  0  0  0  0  0  0  0  0
  -10.4484  -27.5268    1.0905 H   0  0  0  0  0  0  0  0  0  0  0  0
   -8.9348  -28.4425    2.5989 H   0  0  0  0  0  0  0  0  0  0  0  0
   -8.5709  -26.6771    2.5169 H   0  0  0  0  0  0  0  0  0  0  0  0
  -14.1142  -28.4426    3.5162 H   0  0  0  0  0  0  0  0  0  0  0  0
  -10.5973  -28.3347    5.8579 H   0  0  0  0  0  0  0  0  0  0  0  0
  -10.1950  -29.3419    4.4356 H   0  0  0  0  0  0  0  0  0  0  0  0
   -8.3876  -27.3512    6.1693 H   0  0  0  0  0  0  0  0  0  0  0  0
   -7.6353  -28.2711    4.8223 H   0  0  0  0  0  0  0  0  0  0  0  0
   -7.5841  -26.4756    4.8223 H   0  0  0  0  0  0  0  0  0  0  0  0
   -9.8896  -26.3285    4.5944 H   0  0  0  0  0  0  0  0  0  0  0  0
  -18.6351  -31.4475   -0.3247 H   0  0  0  0  0  0  0  0  0  0  0  0
  1 11  1  0
  1 13  1  0
  2 11  1  0
  2 12  1  0
  2 16  2  0
  3  4  2  0
  3  5  1  0
  3 12  1  0
  4  8  1  0
  5  6  2  0
  6  7  1  0
  7  8  2  0
  7 17  1  0
  9 10  1  0
  9 11  1  0
 10 15  1  0
 13 15  1  0
 15 14  1  0
  1 18  1  0
  1 19  1  0
  4 20  1  0
  5 21  1  0
  6 22  1  0
  8 23  1  0
  9 24  1  0
  9 25  1  0
 10 26  1  0
 10 27  1  0
 12 28  1  0
 13 29  1  0
 13 30  1  0
 14 31  1  0
 14 32  1  0
 14 33  1  0
 15 34  1  6
 17 35  1  0
M  END
>  <filename_input>  (1) 
7NGW_UAW_docked.sdf

>  <pdb_id>  (1) 
7NGW_UAW

>  <pose_rank>  (1) 
0

>  <num_atoms_heavy>  (1) 
17

>  <num_torsions>  (1) 
1

>  <pose>  (1) 
[-11.82209422184995, -27.981865812745845, 4.143582939361555, 6.059669879869912, 0.016016725387269646, 1.5377262999430554, 6.325828875364756]

>  <energy>  (1) 
-1077.9604432540411

>  <inter_energy>  (1) 
-1074.8277104210797

>  <intra_energy>  (1) 
18.03814172468784

>  <rmsd>  (1) 
0.125473

>  <sdf_rank>  (1) 
0

$$$$

     RDKit          3D

 35 36  0  0  0  0  0  0  0  0999 V2000
  -10.4284  -27.8559    1.9166 C   0  0  0  0  0  0  0  0  0  0  0  0
  -12.0988  -28.7186    3.4314 C   0  0  0  0  0  0  0  0  0  0  0  0
  -14.3519  -29.0867    2.4477 C   0  0  0  0  0  0  0  0  0  0  0  0
  -15.1005  -29.3481    3.6031 C   0  0  0  0  0  0  0  0  0  0  0  0
  -15.0579  -28.8521    1.2710 C   0  0  0  0  0  0  0  0  0  0  0  0
  -16.4278  -28.9833    1.2197 C   0  0  0  0  0  0  0  0  0  0  0  0
  -17.1514  -29.2110    2.3730 C   0  0  0  0  0  0  0  0  0  0  0  0
  -16.4641  -29.4369    3.5333 C   0  0  0  0  0  0  0  0  0  0  0  0
   -9.9340  -28.0891    4.3440 C   0  0  0  0  0  0  0  0  0  0  0  0
   -8.8320  -27.0927    4.2022 C   0  0  0  0  0  0  0  0  0  0  0  0
  -10.9546  -28.0043    3.2851 N   0  0  0  0  0  0  0  0  0  0  0  0
  -13.0098  -28.8717    2.4232 N   0  0  0  0  0  0  0  0  0  0  0  0
   -9.4108  -26.7596    1.8540 C   0  0  0  0  0  0  0  0  0  0  0  0
   -7.0510  -26.2554    2.6460 C   0  0  0  0  0  0  0  0  0  0  0  0
   -8.2903  -27.0985    2.7932 C   0  0  1  0  0  0  0  0  0  0  0  0
  -12.5888  -28.7994    4.6790 O   0  0  0  0  0  0  0  0  0  0  0  0
  -18.4805  -29.2587    2.1415 O   0  0  0  0  0  0  0  0  0  0  0  0
   -9.9595  -28.8013    1.6061 H   0  0  0  0  0  0  0  0  0  0  0  0
  -11.2613  -27.6026    1.2442 H   0  0  0  0  0  0  0  0  0  0  0  0
  -14.5906  -29.4823    4.5686 H   0  0  0  0  0  0  0  0  0  0  0  0
  -14.5106  -28.5560    0.3640 H   0  0  0  0  0  0  0  0  0  0  0  0
  -16.9486  -28.9062    0.2539 H   0  0  0  0  0  0  0  0  0  0  0  0
  -17.0266  -29.6990    4.4416 H   0  0  0  0  0  0  0  0  0  0  0  0
   -9.4944  -29.0973    4.3216 H   0  0  0  0  0  0  0  0  0  0  0  0
  -10.4415  -27.8711    5.2952 H   0  0  0  0  0  0  0  0  0  0  0  0
   -9.2186  -26.0899    4.4370 H   0  0  0  0  0  0  0  0  0  0  0  0
   -8.0208  -27.3590    4.8957 H   0  0  0  0  0  0  0  0  0  0  0  0
  -12.6075  -28.8140    1.4768 H   0  0  0  0  0  0  0  0  0  0  0  0
   -9.0222  -26.6716    0.8287 H   0  0  0  0  0  0  0  0  0  0  0  0
   -9.8689  -25.8021    2.1425 H   0  0  0  0  0  0  0  0  0  0  0  0
   -6.6654  -25.9931    3.6423 H   0  0  0  0  0  0  0  0  0  0  0  0
   -6.2860  -26.8213    2.0941 H   0  0  0  0  0  0  0  0  0  0  0  0
   -7.2963  -25.3360    2.0941 H   0  0  0  0  0  0  0  0  0  0  0  0
   -7.9307  -28.1031    2.5262 H   0  0  0  0  0  0  0  0  0  0  0  0
  -19.1081  -29.4166    2.8907 H   0  0  0  0  0  0  0  0  0  0  0  0
  1 11  1  0
  1 13  1  0
  2 11  1  0
  2 12  1  0
  2 16  2  0
  3  4  2  0
  3  5  1  0
  3 12  1  0
  4  8  1  0
  5  6  2  0
  6  7  1  0
  7  8  2  0
  7 17  1  0
  9 10  1  0
  9 11  1  0
 10 15  1  0
 13 15  1  0
 15 14  1  0
  1 18  1  0
  1 19  1  0
  4 20  1  0
  5 21  1  0
  6 22  1  0
  8 23  1  0
  9 24  1  0
  9 25  1  0
 10 26  1  0
 10 27  1  0
 12 28  1  0
 13 29  1  0
 13 30  1  0
 14 31  1  0
 14 32  1  0
 14 33  1  0
 15 34  1  6
 17 35  1  0
M  END
>  <filename_input>  (2) 
7NGW_UAW_docked.sdf

>  <pdb_id>  (2) 
7NGW_UAW

>  <pose_rank>  (2) 
1

>  <num_atoms_heavy>  (2) 
17

>  <num_torsions>  (2) 
1

>  <pose>  (2) 
[-10.428405922547048, -27.855942800329643, 1.916584956601843, 2.886075583686479, 0.9177469696306272, 0.7039532530136572, -0.3934235471527924]

>  <energy>  (2) 
-560.0554727538837

>  <inter_energy>  (2) 
-585.7665160128138

>  <intra_energy>  (2) 
19.8326885462822

>  <rmsd>  (2) 
1.94173

>  <sdf_rank>  (2) 
0

$$$$

     RDKit          3D

 35 36  0  0  0  0  0  0  0  0999 V2000
  -14.4473  -29.8166    3.0096 C   0  0  0  0  0  0  0  0  0  0  0  0
  -12.6223  -28.5192    2.1067 C   0  0  0  0  0  0  0  0  0  0  0  0
  -10.7135  -28.1323    3.6515 C   0  0  0  0  0  0  0  0  0  0  0  0
  -10.1918  -28.2477    4.9470 C   0  0  0  0  0  0  0  0  0  0  0  0
   -9.9164  -27.5056    2.6976 C   0  0  0  0  0  0  0  0  0  0  0  0
   -8.7158  -26.9235    3.0383 C   0  0  0  0  0  0  0  0  0  0  0  0
   -8.2032  -27.0733    4.3112 C   0  0  0  0  0  0  0  0  0  0  0  0
   -8.9789  -27.6926    5.2517 C   0  0  0  0  0  0  0  0  0  0  0  0
  -14.6421  -28.7478    0.7711 C   0  0  0  0  0  0  0  0  0  0  0  0
  -16.1286  -28.8316    0.8746 C   0  0  0  0  0  0  0  0  0  0  0  0
  -13.9502  -28.7952    2.0708 N   0  0  0  0  0  0  0  0  0  0  0  0
  -11.8512  -28.7350    3.2151 N   0  0  0  0  0  0  0  0  0  0  0  0
  -15.9382  -29.7485    3.1291 C   0  0  0  0  0  0  0  0  0  0  0  0
  -18.0186  -30.2279    1.7536 C   0  0  0  0  0  0  0  0  0  0  0  0
  -16.5337  -29.9769    1.7705 C   0  0  1  0  0  0  0  0  0  0  0  0
  -12.1981  -27.5504    1.2794 O   0  0  0  0  0  0  0  0  0  0  0  0
   -6.9973  -26.4825    4.4494 O   0  0  0  0  0  0  0  0  0  0  0  0
  -14.1601  -30.8132    2.6434 H   0  0  0  0  0  0  0  0  0  0  0  0
  -14.0055  -29.6303    3.9996 H   0  0  0  0  0  0  0  0  0  0  0  0
  -10.7589  -28.7859    5.7209 H   0  0  0  0  0  0  0  0  0  0  0  0
  -10.2523  -27.4748    1.6506 H   0  0  0  0  0  0  0  0  0  0  0  0
   -8.1619  -26.3356    2.2916 H   0  0  0  0  0  0  0  0  0  0  0  0
   -8.6153  -27.7464    6.2885 H   0  0  0  0  0  0  0  0  0  0  0  0
  -14.2892  -29.5914    0.1598 H   0  0  0  0  0  0  0  0  0  0  0  0
  -14.4077  -27.7724    0.3197 H   0  0  0  0  0  0  0  0  0  0  0  0
  -16.5157  -27.8908    1.2927 H   0  0  0  0  0  0  0  0  0  0  0  0
  -16.5455  -29.0012   -0.1292 H   0  0  0  0  0  0  0  0  0  0  0  0
  -12.1932  -29.4884    3.8287 H   0  0  0  0  0  0  0  0  0  0  0  0
  -16.2909  -30.5244    3.8244 H   0  0  0  0  0  0  0  0  0  0  0  0
  -16.2417  -28.7637    3.5138 H   0  0  0  0  0  0  0  0  0  0  0  0
  -18.3917  -30.2910    2.7865 H   0  0  0  0  0  0  0  0  0  0  0  0
  -18.5241  -29.4025    1.2309 H   0  0  0  0  0  0  0  0  0  0  0  0
  -18.2247  -31.1737    1.2309 H   0  0  0  0  0  0  0  0  0  0  0  0
  -16.1254  -30.9241    1.3882 H   0  0  0  0  0  0  0  0  0  0  0  0
   -6.5245  -26.5199    5.3184 H   0  0  0  0  0  0  0  0  0  0  0  0
  1 11  1  0
  1 13  1  0
  2 11  1  0
  2 12  1  0
  2 16  2  0
  3  4  2  0
  3  5  1  0
  3 12  1  0
  4  8  1  0
  5  6  2  0
  6  7  1  0
  7  8  2  0
  7 17  1  0
  9 10  1  0
  9 11  1  0
 10 15  1  0
 13 15  1  0
 15 14  1  0
  1 18  1  0
  1 19  1  0
  4 20  1  0
  5 21  1  0
  6 22  1  0
  8 23  1  0
  9 24  1  0
  9 25  1  0
 10 26  1  0
 10 27  1  0
 12 28  1  0
 13 29  1  0
 13 30  1  0
 14 31  1  0
 14 32  1  0
 14 33  1  0
 15 34  1  6
 17 35  1  0
M  END
>  <filename_input>  (3) 
7NGW_UAW_docked.sdf

>  <pdb_id>  (3) 
7NGW_UAW

>  <pose_rank>  (3) 
2

>  <num_atoms_heavy>  (3) 
17

>  <num_torsions>  (3) 
1

>  <pose>  (3) 
[-14.44734642746312, -29.816556487576957, 3.0095912590700085, -0.6753528940722927, -1.254886037452432, 2.777522487392382, -9.951998002732612]

>  <energy>  (3) 
-670.9221320127047

>  <inter_energy>  (3) 
-686.743210753606

>  <intra_energy>  (3) 
25.010680202399463

>  <rmsd>  (3) 
7.05736

>  <sdf_rank>  (3) 
0

$$$$

     RDKit          3D

 35 36  0  0  0  0  0  0  0  0999 V2000
  -14.8283  -29.1815    1.0342 C   0  0  0  0  0  0  0  0  0  0  0  0
  -13.6737  -28.9696    3.1439 C   0  0  0  0  0  0  0  0  0  0  0  0
  -11.3114  -28.2083    3.0026 C   0  0  0  0  0  0  0  0  0  0  0  0
  -10.2607  -27.6819    2.2393 C   0  0  0  0  0  0  0  0  0  0  0  0
  -11.0921  -28.3599    4.3690 C   0  0  0  0  0  0  0  0  0  0  0  0
   -9.8586  -28.1105    4.9281 C   0  0  0  0  0  0  0  0  0  0  0  0
   -8.8446  -27.5637    4.1677 C   0  0  0  0  0  0  0  0  0  0  0  0
   -9.0554  -27.4071    2.8258 C   0  0  0  0  0  0  0  0  0  0  0  0
  -15.9034  -29.9410    3.1457 C   0  0  0  0  0  0  0  0  0  0  0  0
  -16.8167  -30.8142    2.3515 C   0  0  0  0  0  0  0  0  0  0  0  0
  -14.6597  -29.5827    2.4421 N   0  0  0  0  0  0  0  0  0  0  0  0
  -12.5755  -28.4148    2.5471 N   0  0  0  0  0  0  0  0  0  0  0  0
  -15.6672  -30.1766    0.2943 C   0  0  0  0  0  0  0  0  0  0  0  0
  -18.0714  -30.9879    0.1857 C   0  0  0  0  0  0  0  0  0  0  0  0
  -17.0089  -30.2556    0.9623 C   0  0  1  0  0  0  0  0  0  0  0  0
  -13.5036  -29.3852    4.4094 O   0  0  0  0  0  0  0  0  0  0  0  0
   -7.7272  -27.3391    4.8912 O   0  0  0  0  0  0  0  0  0  0  0  0
  -15.3184  -28.1974    0.9959 H   0  0  0  0  0  0  0  0  0  0  0  0
  -13.8369  -29.1343    0.5599 H   0  0  0  0  0  0  0  0  0  0  0  0
  -10.4053  -27.4890    1.1660 H   0  0  0  0  0  0  0  0  0  0  0  0
  -11.9207  -28.6855    5.0150 H   0  0  0  0  0  0  0  0  0  0  0  0
   -9.6802  -28.3484    5.9872 H   0  0  0  0  0  0  0  0  0  0  0  0
   -8.2278  -27.0481    2.1963 H   0  0  0  0  0  0  0  0  0  0  0  0
  -16.4402  -29.0136    3.3944 H   0  0  0  0  0  0  0  0  0  0  0  0
  -15.6118  -30.5125    4.0392 H   0  0  0  0  0  0  0  0  0  0  0  0
  -16.3816  -31.8219    2.2792 H   0  0  0  0  0  0  0  0  0  0  0  0
  -17.7937  -30.8575    2.8551 H   0  0  0  0  0  0  0  0  0  0  0  0
  -12.7344  -28.0967    1.5804 H   0  0  0  0  0  0  0  0  0  0  0  0
  -15.7908  -29.8547   -0.7502 H   0  0  0  0  0  0  0  0  0  0  0  0
  -15.1809  -31.1632    0.3056 H   0  0  0  0  0  0  0  0  0  0  0  0
  -18.7704  -31.4696    0.8853 H   0  0  0  0  0  0  0  0  0  0  0  0
  -18.6196  -30.2749   -0.4476 H   0  0  0  0  0  0  0  0  0  0  0  0
  -17.6003  -31.7540   -0.4476 H   0  0  0  0  0  0  0  0  0  0  0  0
  -17.4106  -29.2329    1.0138 H   0  0  0  0  0  0  0  0  0  0  0  0
   -6.9273  -26.9482    4.4582 H   0  0  0  0  0  0  0  0  0  0  0  0
  1 11  1  0
  1 13  1  0
  2 11  1  0
  2 12  1  0
  2 16  2  0
  3  4  2  0
  3  5  1  0
  3 12  1  0
  4  8  1  0
  5  6  2  0
  6  7  1  0
  7  8  2  0
  7 17  1  0
  9 10  1  0
  9 11  1  0
 10 15  1  0
 13 15  1  0
 15 14  1  0
  1 18  1  0
  1 19  1  0
  4 20  1  0
  5 21  1  0
  6 22  1  0
  8 23  1  0
  9 24  1  0
  9 25  1  0
 10 26  1  0
 10 27  1  0
 12 28  1  0
 13 29  1  0
 13 30  1  0
 14 31  1  0
 14 32  1  0
 14 33  1  0
 15 34  1  1
 17 35  1  0
M  END
>  <filename_input>  (4) 
7NGW_UAW_docked.sdf

>  <pdb_id>  (4) 
7NGW_UAW

>  <pose_rank>  (4) 
3

>  <num_atoms_heavy>  (4) 
17

>  <num_torsions>  (4) 
1

>  <pose>  (4) 
[-14.828311496544075, -29.18146741388094, 1.034160398685933, -1.1795974713246125, 2.9598050315793363, 0.5051546629994145, 2.8165237124668745]

>  <energy>  (4) 
-736.0662175708854

>  <inter_energy>  (4) 
-727.1834121275995

>  <intra_energy>  (4) 
28.767210982382597

>  <rmsd>  (4) 
7.05405

>  <sdf_rank>  (4) 
0

$$$$

     RDKit          3D

 35 36  0  0  0  0  0  0  0  0999 V2000
  -11.9923  -28.1750    4.5625 C   0  0  0  0  0  0  0  0  0  0  0  0
  -13.0572  -28.3339    2.4015 C   0  0  0  0  0  0  0  0  0  0  0  0
  -15.3665  -29.2540    2.4082 C   0  0  0  0  0  0  0  0  0  0  0  0
  -16.6045  -28.6057    2.3024 C   0  0  0  0  0  0  0  0  0  0  0  0
  -15.2249  -30.4686    1.7429 C   0  0  0  0  0  0  0  0  0  0  0  0
  -16.2897  -31.0628    1.1029 C   0  0  0  0  0  0  0  0  0  0  0  0
  -17.4925  -30.3964    0.9823 C   0  0  0  0  0  0  0  0  0  0  0  0
  -17.6366  -29.2003    1.6290 C   0  0  0  0  0  0  0  0  0  0  0  0
  -10.7154  -27.6823    2.4846 C   0  0  0  0  0  0  0  0  0  0  0  0
   -9.4424  -27.9266    3.2242 C   0  0  0  0  0  0  0  0  0  0  0  0
  -11.8937  -28.3181    3.0992 N   0  0  0  0  0  0  0  0  0  0  0  0
  -14.2486  -28.7097    2.9577 N   0  0  0  0  0  0  0  0  0  0  0  0
  -10.7009  -28.5480    5.2216 C   0  0  0  0  0  0  0  0  0  0  0  0
   -8.3231  -27.6871    5.4568 C   0  0  0  0  0  0  0  0  0  0  0  0
   -9.6226  -27.6460    4.6964 C   0  0  1  0  0  0  0  0  0  0  0  0
  -12.9481  -28.5158    1.0756 O   0  0  0  0  0  0  0  0  0  0  0  0
  -18.4022  -31.1064    0.2817 O   0  0  0  0  0  0  0  0  0  0  0  0
  -12.2334  -27.1300    4.8072 H   0  0  0  0  0  0  0  0  0  0  0  0
  -12.7824  -28.8465    4.9299 H   0  0  0  0  0  0  0  0  0  0  0  0
  -16.7468  -27.6164    2.7618 H   0  0  0  0  0  0  0  0  0  0  0  0
  -14.2427  -30.9636    1.7280 H   0  0  0  0  0  0  0  0  0  0  0  0
  -16.1810  -32.0746    0.6852 H   0  0  0  0  0  0  0  0  0  0  0  0
  -18.6155  -28.6991    1.6072 H   0  0  0  0  0  0  0  0  0  0  0  0
  -10.8894  -26.5969    2.4435 H   0  0  0  0  0  0  0  0  0  0  0  0
  -10.5957  -28.1285    1.4863 H   0  0  0  0  0  0  0  0  0  0  0  0
   -9.1419  -28.9763    3.0902 H   0  0  0  0  0  0  0  0  0  0  0  0
   -8.6664  -27.2557    2.8270 H   0  0  0  0  0  0  0  0  0  0  0  0
  -14.3098  -28.5523    3.9737 H   0  0  0  0  0  0  0  0  0  0  0  0
  -10.7906  -28.4244    6.3110 H   0  0  0  0  0  0  0  0  0  0  0  0
  -10.4548  -29.5977    5.0034 H   0  0  0  0  0  0  0  0  0  0  0  0
   -8.5302  -27.6805    6.5372 H   0  0  0  0  0  0  0  0  0  0  0  0
   -7.7735  -28.6031    5.1944 H   0  0  0  0  0  0  0  0  0  0  0  0
   -7.7167  -26.8077    5.1944 H   0  0  0  0  0  0  0  0  0  0  0  0
   -9.9580  -26.6096    4.8496 H   0  0  0  0  0  0  0  0  0  0  0  0
  -19.3066  -30.7351    0.1259 H   0  0  0  0  0  0  0  0  0  0  0  0
  1 11  1  0
  1 13  1  0
  2 11  1  0
  2 12  1  0
  2 16  2  0
  3  4  2  0
  3  5  1  0
  3 12  1  0
  4  8  1  0
  5  6  2  0
  6  7  1  0
  7  8  2  0
  7 17  1  0
  9 10  1  0
  9 11  1  0
 10 15  1  0
 13 15  1  0
 15 14  1  0
  1 18  1  0
  1 19  1  0
  4 20  1  0
  5 21  1  0
  6 22  1  0
  8 23  1  0
  9 24  1  0
  9 25  1  0
 10 26  1  0
 10 27  1  0
 12 28  1  0
 13 29  1  0
 13 30  1  0
 14 31  1  0
 14 32  1  0
 14 33  1  0
 15 34  1  6
 17 35  1  0
M  END
>  <filename_input>  (5) 
7NGW_UAW_docked.sdf

>  <pdb_id>  (5) 
7NGW_UAW

>  <pose_rank>  (5) 
4

>  <num_atoms_heavy>  (5) 
17

>  <num_torsions>  (5) 
1

>  <pose>  (5) 
[-11.992336717450419, -28.17503423819492, 4.562508584905408, 5.415612112963745, 0.07037137390929754, 2.8723635682746473, -2.2244228413492233]

>  <energy>  (5) 
-909.7696563047533

>  <inter_energy>  (5) 
-916.8703824996109

>  <intra_energy>  (5) 
8.336659342225824

>  <rmsd>  (5) 
0.81243

>  <sdf_rank>  (5) 
0

$$$$

     RDKit          3D

 35 36  0  0  0  0  0  0  0  0999 V2000
  -18.2408  -34.3734   -4.7539 C   0  0  0  0  0  0  0  0  0  0  0  0
  -18.3823  -32.1439   -3.8383 C   0  0  0  0  0  0  0  0  0  0  0  0
  -17.4097  -31.8519   -1.5693 C   0  0  0  0  0  0  0  0  0  0  0  0
  -16.4263  -30.8789   -1.3456 C   0  0  0  0  0  0  0  0  0  0  0  0
  -18.3484  -32.0521   -0.5609 C   0  0  0  0  0  0  0  0  0  0  0  0
  -18.2481  -31.4035    0.6498 C   0  0  0  0  0  0  0  0  0  0  0  0
  -17.2920  -30.4265    0.8417 C   0  0  0  0  0  0  0  0  0  0  0  0
  -16.3701  -30.2211   -0.1471 C   0  0  0  0  0  0  0  0  0  0  0  0
  -19.5187  -32.5983   -5.9401 C   0  0  0  0  0  0  0  0  0  0  0  0
  -20.2787  -33.6531   -6.6729 C   0  0  0  0  0  0  0  0  0  0  0  0
  -18.9149  -33.0651   -4.6800 N   0  0  0  0  0  0  0  0  0  0  0  0
  -17.6222  -32.4843   -2.7537 N   0  0  0  0  0  0  0  0  0  0  0  0
  -19.1247  -35.3912   -5.4052 C   0  0  0  0  0  0  0  0  0  0  0  0
  -20.0967  -35.9411   -7.6862 C   0  0  0  0  0  0  0  0  0  0  0  0
  -19.4574  -34.9143   -6.7888 C   0  0  1  0  0  0  0  0  0  0  0  0
  -19.0402  -30.9768   -3.7477 O   0  0  0  0  0  0  0  0  0  0  0  0
  -17.3749  -29.8636    2.0658 O   0  0  0  0  0  0  0  0  0  0  0  0
  -17.3163  -34.2701   -5.3411 H   0  0  0  0  0  0  0  0  0  0  0  0
  -18.0100  -34.7092   -3.7321 H   0  0  0  0  0  0  0  0  0  0  0  0
  -15.6978  -30.6434   -2.1354 H   0  0  0  0  0  0  0  0  0  0  0  0
  -19.1871  -32.7422   -0.7346 H   0  0  0  0  0  0  0  0  0  0  0  0
  -18.9340  -31.6656    1.4688 H   0  0  0  0  0  0  0  0  0  0  0  0
  -15.5556  -29.5025    0.0269 H   0  0  0  0  0  0  0  0  0  0  0  0
  -18.7142  -32.2327   -6.5952 H   0  0  0  0  0  0  0  0  0  0  0  0
  -20.2393  -31.8101   -5.6765 H   0  0  0  0  0  0  0  0  0  0  0  0
  -21.2075  -33.8752   -6.1269 H   0  0  0  0  0  0  0  0  0  0  0  0
  -20.5108  -33.2863   -7.6837 H   0  0  0  0  0  0  0  0  0  0  0  0
  -17.1215  -33.3791   -2.8517 H   0  0  0  0  0  0  0  0  0  0  0  0
  -18.6008  -36.3568   -5.4611 H   0  0  0  0  0  0  0  0  0  0  0  0
  -20.0462  -35.5217   -4.8189 H   0  0  0  0  0  0  0  0  0  0  0  0
  -20.5789  -36.7157   -7.0718 H   0  0  0  0  0  0  0  0  0  0  0  0
  -20.8515  -35.4541   -8.3212 H   0  0  0  0  0  0  0  0  0  0  0  0
  -19.3266  -36.4035   -8.3212 H   0  0  0  0  0  0  0  0  0  0  0  0
  -18.5068  -34.7056   -7.3015 H   0  0  0  0  0  0  0  0  0  0  0  0
  -16.7422  -29.1478    2.3254 H   0  0  0  0  0  0  0  0  0  0  0  0
  1 11  1  0
  1 13  1  0
  2 11  1  0
  2 12  1  0
  2 16  2  0
  3  4  2  0
  3  5  1  0
  3 12  1  0
  4  8  1  0
  5  6  2  0
  6  7  1  0
  7  8  2  0
  7 17  1  0
  9 10  1  0
  9 11  1  0
 10 15  1  0
 13 15  1  0
 15 14  1  0
  1 18  1  0
  1 19  1  0
  4 20  1  0
  5 21  1  0
  6 22  1  0
  8 23  1  0
  9 24  1  0
  9 25  1  0
 10 26  1  0
 10 27  1  0
 12 28  1  0
 13 29  1  0
 13 30  1  0
 14 31  1  0
 14 32  1  0
 14 33  1  0
 15 34  1  6
 17 35  1  0
M  END
>  <filename_input>  (6) 
7NGW_UAW_docked.sdf

>  <pdb_id>  (6) 
7NGW_UAW

>  <pose_rank>  (6) 
5

>  <num_atoms_heavy>  (6) 
17

>  <num_torsions>  (6) 
1

>  <pose>  (6) 
[-18.240761974449402, -34.373401581260694, -4.753887595841606, 0.24595407704129024, 1.9161531106354743, -1.4245697237775838, -1.7788232726802382]

>  <energy>  (6) 
-279.9578980813883

>  <inter_energy>  (6) 
-263.3445436872826

>  <intra_energy>  (6) 
0.900730558779159

>  <rmsd>  (6) 
10.5157

>  <sdf_rank>  (6) 
0

$$$$

     RDKit          3D

 35 36  0  0  0  0  0  0  0  0999 V2000
  -11.9390  -20.0754   10.4695 C   0  0  0  0  0  0  0  0  0  0  0  0
  -13.5769  -20.8615    8.8794 C   0  0  0  0  0  0  0  0  0  0  0  0
  -15.7073  -21.6916    9.8550 C   0  0  0  0  0  0  0  0  0  0  0  0
  -15.9188  -22.9543   10.4248 C   0  0  0  0  0  0  0  0  0  0  0  0
  -16.8303  -20.9928    9.4207 C   0  0  0  0  0  0  0  0  0  0  0  0
  -18.0831  -21.5641    9.4456 C   0  0  0  0  0  0  0  0  0  0  0  0
  -18.2775  -22.7957   10.0379 C   0  0  0  0  0  0  0  0  0  0  0  0
  -17.1792  -23.4851   10.4715 C   0  0  0  0  0  0  0  0  0  0  0  0
  -11.3692  -20.2606    8.0545 C   0  0  0  0  0  0  0  0  0  0  0  0
   -9.9206  -20.2937    8.4120 C   0  0  0  0  0  0  0  0  0  0  0  0
  -12.2643  -20.6573    9.1553 N   0  0  0  0  0  0  0  0  0  0  0  0
  -14.5209  -21.0279    9.8546 N   0  0  0  0  0  0  0  0  0  0  0  0
  -10.4869  -20.2557   10.7863 C   0  0  0  0  0  0  0  0  0  0  0  0
   -8.2158  -19.4099   10.0268 C   0  0  0  0  0  0  0  0  0  0  0  0
   -9.6806  -19.5763    9.7183 C   0  0  1  0  0  0  0  0  0  0  0  0
  -13.8490  -21.4389    7.6981 O   0  0  0  0  0  0  0  0  0  0  0  0
  -19.5731  -23.1742   10.0167 O   0  0  0  0  0  0  0  0  0  0  0  0
  -12.1744  -19.0009   10.4563 H   0  0  0  0  0  0  0  0  0  0  0  0
  -12.5341  -20.5884   11.2393 H   0  0  0  0  0  0  0  0  0  0  0  0
  -15.0696  -23.5202   10.8354 H   0  0  0  0  0  0  0  0  0  0  0  0
  -16.7147  -19.9635    9.0503 H   0  0  0  0  0  0  0  0  0  0  0  0
  -18.9340  -21.0358    8.9906 H   0  0  0  0  0  0  0  0  0  0  0  0
  -17.3133  -24.5009   10.8715 H   0  0  0  0  0  0  0  0  0  0  0  0
  -11.6276  -19.2356    7.7501 H   0  0  0  0  0  0  0  0  0  0  0  0
  -11.5153  -20.9907    7.2449 H   0  0  0  0  0  0  0  0  0  0  0  0
   -9.5957  -21.3401    8.5089 H   0  0  0  0  0  0  0  0  0  0  0  0
   -9.3476  -19.7898    7.6196 H   0  0  0  0  0  0  0  0  0  0  0  0
  -14.2925  -20.5686   10.7478 H   0  0  0  0  0  0  0  0  0  0  0  0
  -10.2615  -19.8059   11.7645 H   0  0  0  0  0  0  0  0  0  0  0  0
  -10.2386  -21.3267   10.8234 H   0  0  0  0  0  0  0  0  0  0  0  0
   -8.0702  -19.3934   11.1170 H   0  0  0  0  0  0  0  0  0  0  0  0
   -7.6523  -20.2499    9.5943 H   0  0  0  0  0  0  0  0  0  0  0  0
   -7.8550  -18.4650    9.5943 H   0  0  0  0  0  0  0  0  0  0  0  0
  -10.0322  -18.5361    9.6533 H   0  0  0  0  0  0  0  0  0  0  0  0
  -19.8421  -24.0411   10.4119 H   0  0  0  0  0  0  0  0  0  0  0  0
  1 11  1  0
  1 13  1  0
  2 11  1  0
  2 12  1  0
  2 16  2  0
  3  4  2  0
  3  5  1  0
  3 12  1  0
  4  8  1  0
  5  6  2  0
  6  7  1  0
  7  8  2  0
  7 17  1  0
  9 10  1  0
  9 11  1  0
 10 15  1  0
 13 15  1  0
 15 14  1  0
  1 18  1  0
  1 19  1  0
  4 20  1  0
  5 21  1  0
  6 22  1  0
  8 23  1  0
  9 24  1  0
  9 25  1  0
 10 26  1  0
 10 27  1  0
 12 28  1  0
 13 29  1  0
 13 30  1  0
 14 31  1  0
 14 32  1  0
 14 33  1  0
 15 34  1  6
 17 35  1  0
M  END
>  <filename_input>  (7) 
7NGW_UAW_docked.sdf

>  <pdb_id>  (7) 
7NGW_UAW

>  <pose_rank>  (7) 
6

>  <num_atoms_heavy>  (7) 
17

>  <num_torsions>  (7) 
1

>  <pose>  (7) 
[-11.938977109140597, -20.075351609285764, 10.469491489060358, 4.816533757015391, -3.1195334997580324, 0.22400155848101128, 1.5113280861843421]

>  <energy>  (7) 
-181.30759132601702

>  <inter_energy>  (7) 
-153.3190489235954

>  <intra_energy>  (7) 
0.49130984433111086

>  <rmsd>  (7) 
10.5944

>  <sdf_rank>  (7) 
0

$$$$

     RDKit          3D

 35 36  0  0  0  0  0  0  0  0999 V2000
  -16.3972  -21.1960    9.0036 C   0  0  0  0  0  0  0  0  0  0  0  0
  -15.2968  -19.9516    7.2517 C   0  0  0  0  0  0  0  0  0  0  0  0
  -12.8145  -20.0851    7.2372 C   0  0  0  0  0  0  0  0  0  0  0  0
  -11.9157  -19.4206    8.0825 C   0  0  0  0  0  0  0  0  0  0  0  0
  -12.3206  -20.5490    6.0212 C   0  0  0  0  0  0  0  0  0  0  0  0
  -11.0346  -20.2681    5.6166 C   0  0  0  0  0  0  0  0  0  0  0  0
  -10.1542  -19.6394    6.4741 C   0  0  0  0  0  0  0  0  0  0  0  0
  -10.6316  -19.1859    7.6724 C   0  0  0  0  0  0  0  0  0  0  0  0
  -17.7013  -19.6929    7.5099 C   0  0  0  0  0  0  0  0  0  0  0  0
  -18.7839  -19.6342    8.5355 C   0  0  0  0  0  0  0  0  0  0  0  0
  -16.3849  -20.0698    8.0534 N   0  0  0  0  0  0  0  0  0  0  0  0
  -14.0732  -20.4635    7.5844 N   0  0  0  0  0  0  0  0  0  0  0  0
  -17.4416  -20.9919   10.0568 C   0  0  0  0  0  0  0  0  0  0  0  0
  -19.9692  -20.9634   10.3028 C   0  0  0  0  0  0  0  0  0  0  0  0
  -18.7786  -20.8827    9.3838 C   0  0  1  0  0  0  0  0  0  0  0  0
  -15.2821  -18.8906    6.4288 O   0  0  0  0  0  0  0  0  0  0  0  0
   -8.9273  -19.4934    5.9302 O   0  0  0  0  0  0  0  0  0  0  0  0
  -16.6128  -22.1263    8.4575 H   0  0  0  0  0  0  0  0  0  0  0  0
  -15.4128  -21.2572    9.4906 H   0  0  0  0  0  0  0  0  0  0  0  0
  -12.2434  -19.0868    9.0781 H   0  0  0  0  0  0  0  0  0  0  0  0
  -12.9706  -21.1522    5.3703 H   0  0  0  0  0  0  0  0  0  0  0  0
  -10.7069  -20.5463    4.6041 H   0  0  0  0  0  0  0  0  0  0  0  0
   -9.9604  -18.6130    8.3292 H   0  0  0  0  0  0  0  0  0  0  0  0
  -17.9861  -20.4329    6.7475 H   0  0  0  0  0  0  0  0  0  0  0  0
  -17.5978  -18.6790    7.0960 H   0  0  0  0  0  0  0  0  0  0  0  0
  -18.6239  -18.7578    9.1807 H   0  0  0  0  0  0  0  0  0  0  0  0
  -19.7544  -19.5568    8.0235 H   0  0  0  0  0  0  0  0  0  0  0  0
  -14.1122  -21.2813    8.2093 H   0  0  0  0  0  0  0  0  0  0  0  0
  -17.4429  -21.8467   10.7491 H   0  0  0  0  0  0  0  0  0  0  0  0
  -17.2294  -20.0752   10.6264 H   0  0  0  0  0  0  0  0  0  0  0  0
  -19.6277  -20.9402   11.3482 H   0  0  0  0  0  0  0  0  0  0  0  0
  -20.6354  -20.1083   10.1156 H   0  0  0  0  0  0  0  0  0  0  0  0
  -20.5140  -21.9005   10.1156 H   0  0  0  0  0  0  0  0  0  0  0  0
  -18.9019  -21.7747    8.7520 H   0  0  0  0  0  0  0  0  0  0  0  0
   -8.2054  -19.0559    6.4475 H   0  0  0  0  0  0  0  0  0  0  0  0
  1 11  1  0
  1 13  1  0
  2 11  1  0
  2 12  1  0
  2 16  2  0
  3  4  2  0
  3  5  1  0
  3 12  1  0
  4  8  1  0
  5  6  2  0
  6  7  1  0
  7  8  2  0
  7 17  1  0
  9 10  1  0
  9 11  1  0
 10 15  1  0
 13 15  1  0
 15 14  1  0
  1 18  1  0
  1 19  1  0
  4 20  1  0
  5 21  1  0
  6 22  1  0
  8 23  1  0
  9 24  1  0
  9 25  1  0
 10 26  1  0
 10 27  1  0
 12 28  1  0
 13 29  1  0
 13 30  1  0
 14 31  1  0
 14 32  1  0
 14 33  1  0
 15 34  1  6
 17 35  1  0
M  END
>  <filename_input>  (8) 
7NGW_UAW_docked.sdf

>  <pdb_id>  (8) 
7NGW_UAW

>  <pose_rank>  (8) 
7

>  <num_atoms_heavy>  (8) 
17

>  <num_torsions>  (8) 
1

>  <pose>  (8) 
[-16.39722196289387, -21.19604442161926, 9.0036118921311, 0.17449836538274133, -1.1536852833407496, 2.396053110396346, 1.5772054539005231]

>  <energy>  (8) 
-156.61978177500822

>  <inter_energy>  (8) 
-158.7631927407776

>  <intra_energy>  (8) 
0.9860911053523662

>  <rmsd>  (8) 
12.1693

>  <sdf_rank>  (8) 
0

$$$$

     RDKit          3D

 35 36  0  0  0  0  0  0  0  0999 V2000
  -20.5028  -22.2123    8.4438 C   0  0  0  0  0  0  0  0  0  0  0  0
  -18.3962  -22.0612    9.6135 C   0  0  0  0  0  0  0  0  0  0  0  0
  -16.8340  -20.3122    8.7889 C   0  0  0  0  0  0  0  0  0  0  0  0
  -16.1393  -19.6806    9.8292 C   0  0  0  0  0  0  0  0  0  0  0  0
  -16.1651  -20.4653    7.5776 C   0  0  0  0  0  0  0  0  0  0  0  0
  -14.9174  -19.9192    7.3745 C   0  0  0  0  0  0  0  0  0  0  0  0
  -14.2356  -19.3274    8.4188 C   0  0  0  0  0  0  0  0  0  0  0  0
  -14.8848  -19.1787    9.6129 C   0  0  0  0  0  0  0  0  0  0  0  0
  -19.8938  -23.8939   10.1736 C   0  0  0  0  0  0  0  0  0  0  0  0
  -20.8789  -24.8440    9.5785 C   0  0  0  0  0  0  0  0  0  0  0  0
  -19.4394  -22.8457    9.2435 N   0  0  0  0  0  0  0  0  0  0  0  0
  -18.0332  -20.9382    8.9228 N   0  0  0  0  0  0  0  0  0  0  0  0
  -21.3712  -23.2473    7.7986 C   0  0  0  0  0  0  0  0  0  0  0  0
  -23.1045  -24.9929    8.4299 C   0  0  0  0  0  0  0  0  0  0  0  0
  -21.9840  -24.0916    8.8776 C   0  0  1  0  0  0  0  0  0  0  0  0
  -17.4140  -22.6692   10.2981 O   0  0  0  0  0  0  0  0  0  0  0  0
  -13.0105  -18.8963    8.0503 O   0  0  0  0  0  0  0  0  0  0  0  0
  -21.1205  -21.5816    9.1001 H   0  0  0  0  0  0  0  0  0  0  0  0
  -20.0359  -21.6031    7.6559 H   0  0  0  0  0  0  0  0  0  0  0  0
  -16.6036  -19.5880   10.8221 H   0  0  0  0  0  0  0  0  0  0  0  0
  -16.6430  -21.0339    6.7662 H   0  0  0  0  0  0  0  0  0  0  0  0
  -14.4613  -19.9547    6.3742 H   0  0  0  0  0  0  0  0  0  0  0  0
  -14.3815  -18.6372   10.4275 H   0  0  0  0  0  0  0  0  0  0  0  0
  -20.3625  -23.4074   11.0417 H   0  0  0  0  0  0  0  0  0  0  0  0
  -19.0068  -24.4837   10.4484 H   0  0  0  0  0  0  0  0  0  0  0  0
  -20.3646  -25.4908    8.8524 H   0  0  0  0  0  0  0  0  0  0  0  0
  -21.3180  -25.4512   10.3839 H   0  0  0  0  0  0  0  0  0  0  0  0
  -18.8059  -20.4863    8.4133 H   0  0  0  0  0  0  0  0  0  0  0  0
  -22.1643  -22.7560    7.2160 H   0  0  0  0  0  0  0  0  0  0  0  0
  -20.7721  -23.8748    7.1224 H   0  0  0  0  0  0  0  0  0  0  0  0
  -23.6175  -25.4055    9.3111 H   0  0  0  0  0  0  0  0  0  0  0  0
  -23.8202  -24.4159    7.8258 H   0  0  0  0  0  0  0  0  0  0  0  0
  -22.6943  -25.8156    7.8258 H   0  0  0  0  0  0  0  0  0  0  0  0
  -22.4885  -23.4116    9.5797 H   0  0  0  0  0  0  0  0  0  0  0  0
  -12.4221  -18.4531    8.7117 H   0  0  0  0  0  0  0  0  0  0  0  0
  1 11  1  0
  1 13  1  0
  2 11  1  0
  2 12  1  0
  2 16  2  0
  3  4  2  0
  3  5  1  0
  3 12  1  0
  4  8  1  0
  5  6  2  0
  6  7  1  0
  7  8  2  0
  7 17  1  0
  9 10  1  0
  9 11  1  0
 10 15  1  0
 13 15  1  0
 15 14  1  0
  1 18  1  0
  1 19  1  0
  4 20  1  0
  5 21  1  0
  6 22  1  0
  8 23  1  0
  9 24  1  0
  9 25  1  0
 10 26  1  0
 10 27  1  0
 12 28  1  0
 13 29  1  0
 13 30  1  0
 14 31  1  0
 14 32  1  0
 14 33  1  0
 15 34  1  1
 17 35  1  0
M  END
>  <filename_input>  (9) 
7NGW_UAW_docked.sdf

>  <pdb_id>  (9) 
7NGW_UAW

>  <pose_rank>  (9) 
8

>  <num_atoms_heavy>  (9) 
17

>  <num_torsions>  (9) 
1

>  <pose>  (9) 
[-20.502825312421795, -22.212309044492606, 8.443776378569174, -1.7689992209364327, 2.7783322066522014, 1.6036161002881666, -1.413328411687457]

>  <energy>  (9) 
-174.54269990433724

>  <inter_energy>  (9) 
-168.13917870307642

>  <intra_energy>  (9) 
3.019261763395814

>  <rmsd>  (9) 
12.6948

>  <sdf_rank>  (9) 
0

$$$$

     RDKit          3D

 35 36  0  0  0  0  0  0  0  0999 V2000
  -13.7983  -20.4883    8.2813 C   0  0  0  0  0  0  0  0  0  0  0  0
  -15.5085  -19.2056    7.1593 C   0  0  0  0  0  0  0  0  0  0  0  0
  -17.8402  -19.9980    7.4984 C   0  0  0  0  0  0  0  0  0  0  0  0
  -18.8161  -19.1253    7.9984 C   0  0  0  0  0  0  0  0  0  0  0  0
  -18.2375  -20.9030    6.5180 C   0  0  0  0  0  0  0  0  0  0  0  0
  -19.5563  -21.0132    6.1374 C   0  0  0  0  0  0  0  0  0  0  0  0
  -20.4984  -20.1256    6.6173 C   0  0  0  0  0  0  0  0  0  0  0  0
  -20.1135  -19.2305    7.5766 C   0  0  0  0  0  0  0  0  0  0  0  0
  -13.1812  -18.6705    6.6982 C   0  0  0  0  0  0  0  0  0  0  0  0
  -11.8327  -19.2887    6.5342 C   0  0  0  0  0  0  0  0  0  0  0  0
  -14.2129  -19.6080    7.1746 N   0  0  0  0  0  0  0  0  0  0  0  0
  -16.5101  -19.9119    7.7657 N   0  0  0  0  0  0  0  0  0  0  0  0
  -12.4891  -21.1467    7.9752 C   0  0  0  0  0  0  0  0  0  0  0  0
  -10.0306  -20.5572    7.7334 C   0  0  0  0  0  0  0  0  0  0  0  0
  -11.4577  -20.0768    7.7658 C   0  0  1  0  0  0  0  0  0  0  0  0
  -15.8785  -18.4457    6.1158 O   0  0  0  0  0  0  0  0  0  0  0  0
  -21.7240  -20.3508    6.0981 O   0  0  0  0  0  0  0  0  0  0  0  0
  -13.6954  -19.8901    9.1987 H   0  0  0  0  0  0  0  0  0  0  0  0
  -14.5621  -21.2683    8.4164 H   0  0  0  0  0  0  0  0  0  0  0  0
  -18.5384  -18.3538    8.7317 H   0  0  0  0  0  0  0  0  0  0  0  0
  -17.4827  -21.5429    6.0376 H   0  0  0  0  0  0  0  0  0  0  0  0
  -19.8610  -21.8134    5.4469 H   0  0  0  0  0  0  0  0  0  0  0  0
  -20.8728  -18.5726    8.0246 H   0  0  0  0  0  0  0  0  0  0  0  0
  -13.0992  -17.8476    7.4236 H   0  0  0  0  0  0  0  0  0  0  0  0
  -13.4978  -18.3256    5.7028 H   0  0  0  0  0  0  0  0  0  0  0  0
  -11.8466  -19.9618    5.6643 H   0  0  0  0  0  0  0  0  0  0  0  0
  -11.0916  -18.4897    6.3845 H   0  0  0  0  0  0  0  0  0  0  0  0
  -16.2020  -20.4798    8.5679 H   0  0  0  0  0  0  0  0  0  0  0  0
  -12.1913  -21.7901    8.8163 H   0  0  0  0  0  0  0  0  0  0  0  0
  -12.5800  -21.7659    7.0706 H   0  0  0  0  0  0  0  0  0  0  0  0
   -9.6620  -20.6813    8.7624 H   0  0  0  0  0  0  0  0  0  0  0  0
   -9.9803  -21.5218    7.2071 H   0  0  0  0  0  0  0  0  0  0  0  0
   -9.4072  -19.8194    7.2071 H   0  0  0  0  0  0  0  0  0  0  0  0
  -11.4727  -19.4280    8.6540 H   0  0  0  0  0  0  0  0  0  0  0  0
  -22.4871  -19.7792    6.3646 H   0  0  0  0  0  0  0  0  0  0  0  0
  1 11  1  0
  1 13  1  0
  2 11  1  0
  2 12  1  0
  2 16  2  0
  3  4  2  0
  3  5  1  0
  3 12  1  0
  4  8  1  0
  5  6  2  0
  6  7  1  0
  7  8  2  0
  7 17  1  0
  9 10  1  0
  9 11  1  0
 10 15  1  0
 13 15  1  0
 15 14  1  0
  1 18  1  0
  1 19  1  0
  4 20  1  0
  5 21  1  0
  6 22  1  0
  8 23  1  0
  9 24  1  0
  9 25  1  0
 10 26  1  0
 10 27  1  0
 12 28  1  0
 13 29  1  0
 13 30  1  0
 14 31  1  0
 14 32  1  0
 14 33  1  0
 15 34  1  1
 17 35  1  0
M  END
>  <filename_input>  (10) 
7NGW_UAW_docked.sdf

>  <pdb_id>  (10) 
7NGW_UAW

>  <pose_rank>  (10) 
9

>  <num_atoms_heavy>  (10) 
17

>  <num_torsions>  (10) 
1

>  <pose>  (10) 
[-13.79832504150131, -20.488256956036054, 8.281290314431537, -4.371697522850987, -3.2233651922468836, 1.0826100120713753, -1.7833661465909854]

>  <energy>  (10) 
-138.34054021923558

>  <inter_energy>  (10) 
-131.67134104603974

>  <intra_energy>  (10) 
0.9285574296743637

>  <rmsd>  (10) 
10.5354

>  <sdf_rank>  (10) 
0

$$$$

     RDKit          3D

 35 36  0  0  0  0  0  0  0  0999 V2000
   -9.0074  -20.8595   -3.0406 C   0  0  0  0  0  0  0  0  0  0  0  0
   -8.8292  -22.4907   -4.8116 C   0  0  0  0  0  0  0  0  0  0  0  0
  -10.9733  -23.5043   -5.5566 C   0  0  0  0  0  0  0  0  0  0  0  0
  -11.4905  -24.6611   -4.9581 C   0  0  0  0  0  0  0  0  0  0  0  0
  -11.4445  -23.1788   -6.8255 C   0  0  0  0  0  0  0  0  0  0  0  0
  -12.2960  -24.0171   -7.5100 C   0  0  0  0  0  0  0  0  0  0  0  0
  -12.8191  -25.1361   -6.8939 C   0  0  0  0  0  0  0  0  0  0  0  0
  -12.3646  -25.4587   -5.6453 C   0  0  0  0  0  0  0  0  0  0  0  0
   -6.7769  -21.6209   -3.8384 C   0  0  0  0  0  0  0  0  0  0  0  0
   -6.1754  -21.1665   -2.5503 C   0  0  0  0  0  0  0  0  0  0  0  0
   -8.2253  -21.8792   -3.7618 N   0  0  0  0  0  0  0  0  0  0  0  0
  -10.1880  -22.5892   -4.9291 N   0  0  0  0  0  0  0  0  0  0  0  0
   -8.3850  -20.5516   -1.7142 C   0  0  0  0  0  0  0  0  0  0  0  0
   -6.3234  -19.4211   -0.7541 C   0  0  0  0  0  0  0  0  0  0  0  0
   -6.9913  -20.0474   -1.9500 C   0  0  1  0  0  0  0  0  0  0  0  0
   -8.1186  -23.4518   -5.4235 O   0  0  0  0  0  0  0  0  0  0  0  0
  -13.6728  -25.8085   -7.6949 O   0  0  0  0  0  0  0  0  0  0  0  0
   -9.0444  -19.9403   -3.6436 H   0  0  0  0  0  0  0  0  0  0  0  0
  -10.0226  -21.2481   -2.8719 H   0  0  0  0  0  0  0  0  0  0  0  0
  -11.1931  -24.9286   -3.9335 H   0  0  0  0  0  0  0  0  0  0  0  0
  -11.1303  -22.2328   -7.2907 H   0  0  0  0  0  0  0  0  0  0  0  0
  -12.5608  -23.7937   -8.5540 H   0  0  0  0  0  0  0  0  0  0  0  0
  -12.7134  -26.3910   -5.1774 H   0  0  0  0  0  0  0  0  0  0  0  0
   -6.6035  -20.8421   -4.5956 H   0  0  0  0  0  0  0  0  0  0  0  0
   -6.2953  -22.5755   -4.0968 H   0  0  0  0  0  0  0  0  0  0  0  0
   -6.1470  -22.0113   -1.8464 H   0  0  0  0  0  0  0  0  0  0  0  0
   -5.1568  -20.7991   -2.7441 H   0  0  0  0  0  0  0  0  0  0  0  0
  -10.7093  -21.8358   -4.4583 H   0  0  0  0  0  0  0  0  0  0  0  0
   -8.9759  -19.7818   -1.1964 H   0  0  0  0  0  0  0  0  0  0  0  0
   -8.3586  -21.4570   -1.0900 H   0  0  0  0  0  0  0  0  0  0  0  0
   -6.7615  -19.8319    0.1675 H   0  0  0  0  0  0  0  0  0  0  0  0
   -5.2461  -19.6422   -0.7782 H   0  0  0  0  0  0  0  0  0  0  0  0
   -6.4748  -18.3318   -0.7782 H   0  0  0  0  0  0  0  0  0  0  0  0
   -7.0617  -19.2054   -2.6543 H   0  0  0  0  0  0  0  0  0  0  0  0
  -14.1151  -26.6313   -7.3670 H   0  0  0  0  0  0  0  0  0  0  0  0
  1 11  1  0
  1 13  1  0
  2 11  1  0
  2 12  1  0
  2 16  2  0
  3  4  2  0
  3  5  1  0
  3 12  1  0
  4  8  1  0
  5  6  2  0
  6  7  1  0
  7  8  2  0
  7 17  1  0
  9 10  1  0
  9 11  1  0
 10 15  1  0
 13 15  1  0
 15 14  1  0
  1 18  1  0
  1 19  1  0
  4 20  1  0
  5 21  1  0
  6 22  1  0
  8 23  1  0
  9 24  1  0
  9 25  1  0
 10 26  1  0
 10 27  1  0
 12 28  1  0
 13 29  1  0
 13 30  1  0
 14 31  1  0
 14 32  1  0
 14 33  1  0
 15 34  1  6
 17 35  1  0
M  END
>  <filename_input>  (11) 
7NGW_UAW_docked.sdf

>  <pdb_id>  (11) 
7NGW_UAW

>  <pose_rank>  (11) 
10

>  <num_atoms_heavy>  (11) 
17

>  <num_torsions>  (11) 
1

>  <pose>  (11) 
[-9.0074182044377, -20.85952751110642, -3.040555673270474, -0.8181190089129267, -0.6463709236113855, -0.1876134339502263, 1.323975031182283]

>  <energy>  (11) 
-164.80843306939698

>  <inter_energy>  (11) 
-152.51587244073454

>  <intra_energy>  (11) 
0.0

>  <rmsd>  (11) 
9.94441

>  <sdf_rank>  (11) 
0

$$$$

     RDKit          3D

 35 36  0  0  0  0  0  0  0  0999 V2000
  -18.9542  -19.6900   -3.0078 C   0  0  0  0  0  0  0  0  0  0  0  0
  -20.4179  -20.4792   -1.2575 C   0  0  0  0  0  0  0  0  0  0  0  0
  -20.5158  -19.0596    0.7808 C   0  0  0  0  0  0  0  0  0  0  0  0
  -21.7616  -18.6227    1.2509 C   0  0  0  0  0  0  0  0  0  0  0  0
  -19.5587  -19.3979    1.7335 C   0  0  0  0  0  0  0  0  0  0  0  0
  -19.7866  -19.2037    3.0777 C   0  0  0  0  0  0  0  0  0  0  0  0
  -21.0292  -18.8018    3.5246 C   0  0  0  0  0  0  0  0  0  0  0  0
  -21.9757  -18.4732    2.5941 C   0  0  0  0  0  0  0  0  0  0  0  0
  -20.0567  -21.9133   -3.1883 C   0  0  0  0  0  0  0  0  0  0  0  0
  -19.0192  -22.3334   -4.1755 C   0  0  0  0  0  0  0  0  0  0  0  0
  -19.6372  -20.7998   -2.3198 N   0  0  0  0  0  0  0  0  0  0  0  0
  -20.2314  -19.3444   -0.5176 N   0  0  0  0  0  0  0  0  0  0  0  0
  -17.8590  -20.2045   -3.8895 C   0  0  0  0  0  0  0  0  0  0  0  0
  -17.5570  -21.5161   -6.0433 C   0  0  0  0  0  0  0  0  0  0  0  0
  -18.4625  -21.1332   -4.9024 C   0  0  1  0  0  0  0  0  0  0  0  0
  -20.9909  -21.5089   -0.6137 O   0  0  0  0  0  0  0  0  0  0  0  0
  -21.0846  -18.7144    4.8706 O   0  0  0  0  0  0  0  0  0  0  0  0
  -19.6843  -19.1425   -3.6219 H   0  0  0  0  0  0  0  0  0  0  0  0
  -18.5139  -19.0238   -2.2513 H   0  0  0  0  0  0  0  0  0  0  0  0
  -22.5694  -18.3993    0.5384 H   0  0  0  0  0  0  0  0  0  0  0  0
  -18.6012  -19.8289    1.4060 H   0  0  0  0  0  0  0  0  0  0  0  0
  -18.9734  -19.3700    3.7996 H   0  0  0  0  0  0  0  0  0  0  0  0
  -22.9421  -18.0750    2.9370 H   0  0  0  0  0  0  0  0  0  0  0  0
  -20.9551  -21.6019   -3.7413 H   0  0  0  0  0  0  0  0  0  0  0  0
  -20.2427  -22.7771   -2.5331 H   0  0  0  0  0  0  0  0  0  0  0  0
  -18.2028  -22.8464   -3.6461 H   0  0  0  0  0  0  0  0  0  0  0  0
  -19.4806  -23.0105   -4.9094 H   0  0  0  0  0  0  0  0  0  0  0  0
  -19.7983  -18.5672   -1.0364 H   0  0  0  0  0  0  0  0  0  0  0  0
  -17.3690  -19.3637   -4.4022 H   0  0  0  0  0  0  0  0  0  0  0  0
  -17.1087  -20.7381   -3.2876 H   0  0  0  0  0  0  0  0  0  0  0  0
  -16.6129  -21.9152   -5.6441 H   0  0  0  0  0  0  0  0  0  0  0  0
  -18.0481  -22.2835   -6.6596 H   0  0  0  0  0  0  0  0  0  0  0  0
  -17.3486  -20.6291   -6.6596 H   0  0  0  0  0  0  0  0  0  0  0  0
  -19.2701  -20.5853   -5.4099 H   0  0  0  0  0  0  0  0  0  0  0  0
  -21.9245  -18.4354    5.3144 H   0  0  0  0  0  0  0  0  0  0  0  0
  1 11  1  0
  1 13  1  0
  2 11  1  0
  2 12  1  0
  2 16  2  0
  3  4  2  0
  3  5  1  0
  3 12  1  0
  4  8  1  0
  5  6  2  0
  6  7  1  0
  7  8  2  0
  7 17  1  0
  9 10  1  0
  9 11  1  0
 10 15  1  0
 13 15  1  0
 15 14  1  0
  1 18  1  0
  1 19  1  0
  4 20  1  0
  5 21  1  0
  6 22  1  0
  8 23  1  0
  9 24  1  0
  9 25  1  0
 10 26  1  0
 10 27  1  0
 12 28  1  0
 13 29  1  0
 13 30  1  0
 14 31  1  0
 14 32  1  0
 14 33  1  0
 15 34  1  6
 17 35  1  0
M  END
>  <filename_input>  (12) 
7NGW_UAW_docked.sdf

>  <pdb_id>  (12) 
7NGW_UAW

>  <pose_rank>  (12) 
11

>  <num_atoms_heavy>  (12) 
17

>  <num_torsions>  (12) 
1

>  <pose>  (12) 
[-18.954167464525916, -19.69002848766675, -3.007821613283204, -1.6705026630614364, 1.3312517393678707, 0.11753090254030192, -1.7382123443428696]

>  <energy>  (12) 
-157.0724268272572

>  <inter_energy>  (12) 
-148.28545914201834

>  <intra_energy>  (12) 
0.7189152132992573

>  <rmsd>  (12) 
12.5436

>  <sdf_rank>  (12) 
0

$$$$

     RDKit          3D

 35 36  0  0  0  0  0  0  0  0999 V2000
  -18.9495  -35.7363    4.7617 C   0  0  0  0  0  0  0  0  0  0  0  0
  -18.3349  -33.4078    4.9326 C   0  0  0  0  0  0  0  0  0  0  0  0
  -18.0783  -32.2044    2.7726 C   0  0  0  0  0  0  0  0  0  0  0  0
  -17.8117  -30.8948    3.1942 C   0  0  0  0  0  0  0  0  0  0  0  0
  -17.7333  -32.5349    1.4650 C   0  0  0  0  0  0  0  0  0  0  0  0
  -17.2559  -31.5860    0.5887 C   0  0  0  0  0  0  0  0  0  0  0  0
  -16.9707  -30.3092    1.0290 C   0  0  0  0  0  0  0  0  0  0  0  0
  -17.3022  -29.9794    2.3140 C   0  0  0  0  0  0  0  0  0  0  0  0
  -18.3707  -34.7401    6.9671 C   0  0  0  0  0  0  0  0  0  0  0  0
  -18.0838  -36.1064    7.4946 C   0  0  0  0  0  0  0  0  0  0  0  0
  -18.2969  -34.6400    5.4991 N   0  0  0  0  0  0  0  0  0  0  0  0
  -18.4804  -33.2163    3.5864 N   0  0  0  0  0  0  0  0  0  0  0  0
  -18.5140  -37.0670    5.2919 C   0  0  0  0  0  0  0  0  0  0  0  0
  -18.7824  -38.5125    7.3628 C   0  0  0  0  0  0  0  0  0  0  0  0
  -18.8845  -37.1431    6.7443 C   0  0  1  0  0  0  0  0  0  0  0  0
  -17.6914  -32.4332    5.5953 O   0  0  0  0  0  0  0  0  0  0  0  0
  -16.4636  -29.5318    0.0488 O   0  0  0  0  0  0  0  0  0  0  0  0
  -20.0403  -35.6445    4.8698 H   0  0  0  0  0  0  0  0  0  0  0  0
  -18.6626  -35.6681    3.7020 H   0  0  0  0  0  0  0  0  0  0  0  0
  -18.0126  -30.6020    4.2353 H   0  0  0  0  0  0  0  0  0  0  0  0
  -17.8443  -33.5752    1.1249 H   0  0  0  0  0  0  0  0  0  0  0  0
  -17.1009  -31.8470   -0.4686 H   0  0  0  0  0  0  0  0  0  0  0  0
  -17.1541  -28.9430    2.6516 H   0  0  0  0  0  0  0  0  0  0  0  0
  -19.3841  -34.4522    7.2835 H   0  0  0  0  0  0  0  0  0  0  0  0
  -17.5964  -34.0720    7.3722 H   0  0  0  0  0  0  0  0  0  0  0  0
  -17.0117  -36.3221    7.3763 H   0  0  0  0  0  0  0  0  0  0  0  0
  -18.3636  -36.1426    8.5578 H   0  0  0  0  0  0  0  0  0  0  0  0
  -18.9843  -33.9735    3.1031 H   0  0  0  0  0  0  0  0  0  0  0  0
  -19.0194  -37.8713    4.7371 H   0  0  0  0  0  0  0  0  0  0  0  0
  -17.4268  -37.1837    5.1727 H   0  0  0  0  0  0  0  0  0  0  0  0
  -18.7892  -38.4212    8.4590 H   0  0  0  0  0  0  0  0  0  0  0  0
  -19.6374  -39.1250    7.0406 H   0  0  0  0  0  0  0  0  0  0  0  0
  -17.8461  -38.9916    7.0406 H   0  0  0  0  0  0  0  0  0  0  0  0
  -19.9598  -36.9244    6.8206 H   0  0  0  0  0  0  0  0  0  0  0  0
  -16.2181  -28.5919    0.2396 H   0  0  0  0  0  0  0  0  0  0  0  0
  1 11  1  0
  1 13  1  0
  2 11  1  0
  2 12  1  0
  2 16  2  0
  3  4  2  0
  3  5  1  0
  3 12  1  0
  4  8  1  0
  5  6  2  0
  6  7  1  0
  7  8  2  0
  7 17  1  0
  9 10  1  0
  9 11  1  0
 10 15  1  0
 13 15  1  0
 15 14  1  0
  1 18  1  0
  1 19  1  0
  4 20  1  0
  5 21  1  0
  6 22  1  0
  8 23  1  0
  9 24  1  0
  9 25  1  0
 10 26  1  0
 10 27  1  0
 12 28  1  0
 13 29  1  0
 13 30  1  0
 14 31  1  0
 14 32  1  0
 14 33  1  0
 15 34  1  6
 17 35  1  0
M  END
>  <filename_input>  (13) 
7NGW_UAW_docked.sdf

>  <pdb_id>  (13) 
7NGW_UAW

>  <pose_rank>  (13) 
12

>  <num_atoms_heavy>  (13) 
17

>  <num_torsions>  (13) 
1

>  <pose>  (13) 
[-18.949501927339842, -35.73632254873934, 4.761684382268685, -3.0760377148940043, 2.859652568364695, -0.5688208913727488, -6.956681799542553]

>  <energy>  (13) 
-113.21499575564758

>  <inter_energy>  (13) 
-132.8034679582943

>  <intra_energy>  (13) 
16.688972879498863

>  <rmsd>  (13) 
8.83361

>  <sdf_rank>  (13) 
0

$$$$

     RDKit          3D

 35 36  0  0  0  0  0  0  0  0999 V2000
  -18.9784  -22.4023   -4.6452 C   0  0  0  0  0  0  0  0  0  0  0  0
  -19.2170  -20.2625   -3.5529 C   0  0  0  0  0  0  0  0  0  0  0  0
  -18.2525  -20.1112   -1.2667 C   0  0  0  0  0  0  0  0  0  0  0  0
  -18.8675  -20.5610   -0.0906 C   0  0  0  0  0  0  0  0  0  0  0  0
  -17.2443  -19.1603   -1.1346 C   0  0  0  0  0  0  0  0  0  0  0  0
  -16.9422  -18.6021    0.0875 C   0  0  0  0  0  0  0  0  0  0  0  0
  -17.5360  -19.0787    1.2390 C   0  0  0  0  0  0  0  0  0  0  0  0
  -18.5233  -20.0167    1.1167 C   0  0  0  0  0  0  0  0  0  0  0  0
  -20.3374  -20.5963   -5.6856 C   0  0  0  0  0  0  0  0  0  0  0  0
  -21.0515  -21.6215   -6.5019 C   0  0  0  0  0  0  0  0  0  0  0  0
  -19.7101  -21.1357   -4.4667 N   0  0  0  0  0  0  0  0  0  0  0  0
  -18.4396  -20.6549   -2.4985 N   0  0  0  0  0  0  0  0  0  0  0  0
  -19.8177  -23.4027   -5.3774 C   0  0  0  0  0  0  0  0  0  0  0  0
  -20.7701  -23.8099   -7.6963 C   0  0  0  0  0  0  0  0  0  0  0  0
  -20.1750  -22.8312   -6.7184 C   0  0  1  0  0  0  0  0  0  0  0  0
  -19.9261  -19.1371   -3.3690 O   0  0  0  0  0  0  0  0  0  0  0  0
  -17.0826  -18.4514    2.3451 O   0  0  0  0  0  0  0  0  0  0  0  0
  -18.0610  -22.2107   -5.2212 H   0  0  0  0  0  0  0  0  0  0  0  0
  -18.7301  -22.8088   -3.6537 H   0  0  0  0  0  0  0  0  0  0  0  0
  -19.6287  -21.3537   -0.1380 H   0  0  0  0  0  0  0  0  0  0  0  0
  -16.6776  -18.8486   -2.0243 H   0  0  0  0  0  0  0  0  0  0  0  0
  -16.2235  -17.7715    0.1465 H   0  0  0  0  0  0  0  0  0  0  0  0
  -19.0591  -20.3448    2.0196 H   0  0  0  0  0  0  0  0  0  0  0  0
  -19.5518  -20.1434   -6.3083 H   0  0  0  0  0  0  0  0  0  0  0  0
  -21.0918  -19.8649   -5.3600 H   0  0  0  0  0  0  0  0  0  0  0  0
  -21.9680  -21.9282   -5.9765 H   0  0  0  0  0  0  0  0  0  0  0  0
  -21.3024  -21.1851   -7.4800 H   0  0  0  0  0  0  0  0  0  0  0  0
  -17.8997  -21.5155   -2.6679 H   0  0  0  0  0  0  0  0  0  0  0  0
  -19.2513  -24.3363   -5.5105 H   0  0  0  0  0  0  0  0  0  0  0  0
  -20.7309  -23.6212   -4.8045 H   0  0  0  0  0  0  0  0  0  0  0  0
  -21.2649  -24.6235   -7.1457 H   0  0  0  0  0  0  0  0  0  0  0  0
  -21.5074  -23.2938   -8.3288 H   0  0  0  0  0  0  0  0  0  0  0  0
  -19.9727  -24.2271   -8.3288 H   0  0  0  0  0  0  0  0  0  0  0  0
  -19.2360  -22.5395   -7.2116 H   0  0  0  0  0  0  0  0  0  0  0  0
  -17.4326  -18.7042    3.2360 H   0  0  0  0  0  0  0  0  0  0  0  0
  1 11  1  0
  1 13  1  0
  2 11  1  0
  2 12  1  0
  2 16  2  0
  3  4  2  0
  3  5  1  0
  3 12  1  0
  4  8  1  0
  5  6  2  0
  6  7  1  0
  7  8  2  0
  7 17  1  0
  9 10  1  0
  9 11  1  0
 10 15  1  0
 13 15  1  0
 15 14  1  0
  1 18  1  0
  1 19  1  0
  4 20  1  0
  5 21  1  0
  6 22  1  0
  8 23  1  0
  9 24  1  0
  9 25  1  0
 10 26  1  0
 10 27  1  0
 12 28  1  0
 13 29  1  0
 13 30  1  0
 14 31  1  0
 14 32  1  0
 14 33  1  0
 15 34  1  6
 17 35  1  0
M  END
>  <filename_input>  (14) 
7NGW_UAW_docked.sdf

>  <pdb_id>  (14) 
7NGW_UAW

>  <pose_rank>  (14) 
13

>  <num_atoms_heavy>  (14) 
17

>  <num_torsions>  (14) 
1

>  <pose>  (14) 
[-18.978386311266423, -22.402296160188065, -4.645209361911832, 0.2390013288423813, 1.9701535232237017, -1.319988064352139, -4.795152586359377]

>  <energy>  (14) 
-149.32601424862102

>  <inter_energy>  (14) 
-137.1916536216646

>  <intra_energy>  (14) 
0.35810765052417015

>  <rmsd>  (14) 
12.8637

>  <sdf_rank>  (14) 
0

$$$$

     RDKit          3D

 35 36  0  0  0  0  0  0  0  0999 V2000
  -19.6724  -21.8014    8.9942 C   0  0  0  0  0  0  0  0  0  0  0  0
  -17.6305  -20.7300    8.2787 C   0  0  0  0  0  0  0  0  0  0  0  0
  -15.8240  -20.6168    9.9827 C   0  0  0  0  0  0  0  0  0  0  0  0
  -15.7161  -19.5398   10.8729 C   0  0  0  0  0  0  0  0  0  0  0  0
  -14.6871  -21.3952    9.7842 C   0  0  0  0  0  0  0  0  0  0  0  0
  -13.4785  -21.0548   10.3498 C   0  0  0  0  0  0  0  0  0  0  0  0
  -13.3973  -20.0096   11.2477 C   0  0  0  0  0  0  0  0  0  0  0  0
  -14.5118  -19.2441   11.4514 C   0  0  0  0  0  0  0  0  0  0  0  0
  -19.5443  -20.6759    6.7787 C   0  0  0  0  0  0  0  0  0  0  0  0
  -21.0330  -20.5723    6.7597 C   0  0  0  0  0  0  0  0  0  0  0  0
  -18.9748  -20.8345    8.1281 N   0  0  0  0  0  0  0  0  0  0  0  0
  -16.9877  -21.0622    9.4390 N   0  0  0  0  0  0  0  0  0  0  0  0
  -21.1477  -21.5469    8.9950 C   0  0  0  0  0  0  0  0  0  0  0  0
  -23.1496  -21.7332    7.4433 C   0  0  0  0  0  0  0  0  0  0  0  0
  -21.6515  -21.6731    7.5870 C   0  0  1  0  0  0  0  0  0  0  0  0
  -17.0209  -19.8080    7.5163 O   0  0  0  0  0  0  0  0  0  0  0  0
  -12.1497  -19.8539   11.7394 O   0  0  0  0  0  0  0  0  0  0  0  0
  -19.4824  -22.8197    8.6239 H   0  0  0  0  0  0  0  0  0  0  0  0
  -19.2950  -21.6908   10.0214 H   0  0  0  0  0  0  0  0  0  0  0  0
  -16.6016  -18.9308   11.1072 H   0  0  0  0  0  0  0  0  0  0  0  0
  -14.7555  -22.3005    9.1630 H   0  0  0  0  0  0  0  0  0  0  0  0
  -12.5724  -21.6193   10.0844 H   0  0  0  0  0  0  0  0  0  0  0  0
  -14.4379  -18.3606   12.1024 H   0  0  0  0  0  0  0  0  0  0  0  0
  -19.2498  -21.5463    6.1739 H   0  0  0  0  0  0  0  0  0  0  0  0
  -19.1529  -19.7302    6.3758 H   0  0  0  0  0  0  0  0  0  0  0  0
  -21.3331  -19.5977    7.1721 H   0  0  0  0  0  0  0  0  0  0  0  0
  -21.3826  -20.6693    5.7212 H   0  0  0  0  0  0  0  0  0  0  0  0
  -17.4712  -21.7770   10.0012 H   0  0  0  0  0  0  0  0  0  0  0  0
  -21.6515  -22.2843    9.6373 H   0  0  0  0  0  0  0  0  0  0  0  0
  -21.3568  -20.5387    9.3821 H   0  0  0  0  0  0  0  0  0  0  0  0
  -23.6131  -21.7518    8.4407 H   0  0  0  0  0  0  0  0  0  0  0  0
  -23.5009  -20.8484    6.8921 H   0  0  0  0  0  0  0  0  0  0  0  0
  -23.4288  -22.6433    6.8921 H   0  0  0  0  0  0  0  0  0  0  0  0
  -21.3344  -22.6573    7.2119 H   0  0  0  0  0  0  0  0  0  0  0  0
  -11.9618  -19.1358   12.3945 H   0  0  0  0  0  0  0  0  0  0  0  0
  1 11  1  0
  1 13  1  0
  2 11  1  0
  2 12  1  0
  2 16  2  0
  3  4  2  0
  3  5  1  0
  3 12  1  0
  4  8  1  0
  5  6  2  0
  6  7  1  0
  7  8  2  0
  7 17  1  0
  9 10  1  0
  9 11  1  0
 10 15  1  0
 13 15  1  0
 15 14  1  0
  1 18  1  0
  1 19  1  0
  4 20  1  0
  5 21  1  0
  6 22  1  0
  8 23  1  0
  9 24  1  0
  9 25  1  0
 10 26  1  0
 10 27  1  0
 12 28  1  0
 13 29  1  0
 13 30  1  0
 14 31  1  0
 14 32  1  0
 14 33  1  0
 15 34  1  6
 17 35  1  0
M  END
>  <filename_input>  (15) 
7NGW_UAW_docked.sdf

>  <pdb_id>  (15) 
7NGW_UAW

>  <pose_rank>  (15) 
14

>  <num_atoms_heavy>  (15) 
17

>  <num_torsions>  (15) 
1

>  <pose>  (15) 
[-19.672360275832293, -21.801438405135286, 8.994157169307082, -0.8442272245524245, -1.2104578273653748, 2.654750187717338, 1.3225431145420512]

>  <energy>  (15) 
-147.8558641207222

>  <inter_energy>  (15) 
-144.64722690495267

>  <intra_energy>  (15) 
0.0

>  <rmsd>  (15) 
13.2759

>  <sdf_rank>  (15) 
0

$$$$

     RDKit          3D

 35 36  0  0  0  0  0  0  0  0999 V2000
  -10.8598  -18.6114   -3.1505 C   0  0  0  0  0  0  0  0  0  0  0  0
  -12.8723  -19.9444   -3.1938 C   0  0  0  0  0  0  0  0  0  0  0  0
  -14.9635  -18.7509   -2.5755 C   0  0  0  0  0  0  0  0  0  0  0  0
  -16.0620  -18.8596   -3.4388 C   0  0  0  0  0  0  0  0  0  0  0  0
  -15.2284  -18.7160   -1.2092 C   0  0  0  0  0  0  0  0  0  0  0  0
  -16.5191  -18.6754   -0.7309 C   0  0  0  0  0  0  0  0  0  0  0  0
  -17.5882  -18.8142   -1.5931 C   0  0  0  0  0  0  0  0  0  0  0  0
  -17.3346  -18.8544   -2.9361 C   0  0  0  0  0  0  0  0  0  0  0  0
  -10.7422  -21.0663   -3.5391 C   0  0  0  0  0  0  0  0  0  0  0  0
   -9.3121  -21.0524   -3.1124 C   0  0  0  0  0  0  0  0  0  0  0  0
  -11.5245  -19.9220   -3.0402 N   0  0  0  0  0  0  0  0  0  0  0  0
  -13.6625  -18.8540   -2.9562 N   0  0  0  0  0  0  0  0  0  0  0  0
   -9.4703  -18.6715   -2.5964 C   0  0  0  0  0  0  0  0  0  0  0  0
   -7.2070  -19.6876   -3.1401 C   0  0  0  0  0  0  0  0  0  0  0  0
   -8.6956  -19.6986   -3.3693 C   0  0  1  0  0  0  0  0  0  0  0  0
  -13.4643  -21.1398   -3.0396 O   0  0  0  0  0  0  0  0  0  0  0  0
  -18.7723  -18.8032   -0.9449 O   0  0  0  0  0  0  0  0  0  0  0  0
  -10.8132  -18.3187   -4.2098 H   0  0  0  0  0  0  0  0  0  0  0  0
  -11.4375  -17.8736   -2.5744 H   0  0  0  0  0  0  0  0  0  0  0  0
  -15.9008  -18.9493   -4.5232 H   0  0  0  0  0  0  0  0  0  0  0  0
  -14.3898  -18.7210   -0.4974 H   0  0  0  0  0  0  0  0  0  0  0  0
  -16.6993  -18.5315    0.3446 H   0  0  0  0  0  0  0  0  0  0  0  0
  -18.1825  -18.8836   -3.6362 H   0  0  0  0  0  0  0  0  0  0  0  0
  -10.7758  -21.0560   -4.6386 H   0  0  0  0  0  0  0  0  0  0  0  0
  -11.1944  -21.9733   -3.1116 H   0  0  0  0  0  0  0  0  0  0  0  0
   -9.2531  -21.2787   -2.0376 H   0  0  0  0  0  0  0  0  0  0  0  0
   -8.7615  -21.8089   -3.6908 H   0  0  0  0  0  0  0  0  0  0  0  0
  -13.1875  -17.9498   -3.0894 H   0  0  0  0  0  0  0  0  0  0  0  0
   -8.9873  -17.6884   -2.6975 H   0  0  0  0  0  0  0  0  0  0  0  0
   -9.4999  -18.9436   -1.5310 H   0  0  0  0  0  0  0  0  0  0  0  0
   -7.0024  -19.6860   -2.0593 H   0  0  0  0  0  0  0  0  0  0  0  0
   -6.7591  -20.5824   -3.5968 H   0  0  0  0  0  0  0  0  0  0  0  0
   -6.7724  -18.7861   -3.5968 H   0  0  0  0  0  0  0  0  0  0  0  0
   -8.7767  -19.4377   -4.4348 H   0  0  0  0  0  0  0  0  0  0  0  0
  -19.6163  -18.8952   -1.4542 H   0  0  0  0  0  0  0  0  0  0  0  0
  1 11  1  0
  1 13  1  0
  2 11  1  0
  2 12  1  0
  2 16  2  0
  3  4  2  0
  3  5  1  0
  3 12  1  0
  4  8  1  0
  5  6  2  0
  6  7  1  0
  7  8  2  0
  7 17  1  0
  9 10  1  0
  9 11  1  0
 10 15  1  0
 13 15  1  0
 15 14  1  0
  1 18  1  0
  1 19  1  0
  4 20  1  0
  5 21  1  0
  6 22  1  0
  8 23  1  0
  9 24  1  0
  9 25  1  0
 10 26  1  0
 10 27  1  0
 12 28  1  0
 13 29  1  0
 13 30  1  0
 14 31  1  0
 14 32  1  0
 14 33  1  0
 15 34  1  6
 17 35  1  0
M  END
>  <filename_input>  (16) 
7NGW_UAW_docked.sdf

>  <pdb_id>  (16) 
7NGW_UAW

>  <pose_rank>  (16) 
15

>  <num_atoms_heavy>  (16) 
17

>  <num_torsions>  (16) 
1

>  <pose>  (16) 
[-10.859803334289577, -18.611433097144438, -3.150525745546396, 4.20295346725973, -0.7296306767104728, 1.3982847100165114, -1.6810514835363648]

>  <energy>  (16) 
-133.54030135004592

>  <inter_energy>  (16) 
-131.76038613297095

>  <intra_energy>  (16) 
0.6664726850138525

>  <rmsd>  (16) 
10.8444

>  <sdf_rank>  (16) 
0

$$$$

     RDKit          3D

 35 36  0  0  0  0  0  0  0  0999 V2000
  -20.6005  -20.2545   -2.9528 C   0  0  0  0  0  0  0  0  0  0  0  0
  -18.2820  -19.5864   -2.8682 C   0  0  0  0  0  0  0  0  0  0  0  0
  -17.0724  -19.6311   -5.0395 C   0  0  0  0  0  0  0  0  0  0  0  0
  -16.1226  -18.6026   -5.1016 C   0  0  0  0  0  0  0  0  0  0  0  0
  -16.7800  -20.8098   -5.7200 C   0  0  0  0  0  0  0  0  0  0  0  0
  -15.6595  -20.9197   -6.5131 C   0  0  0  0  0  0  0  0  0  0  0  0
  -14.7198  -19.9088   -6.5383 C   0  0  0  0  0  0  0  0  0  0  0  0
  -14.9984  -18.7503   -5.8676 C   0  0  0  0  0  0  0  0  0  0  0  0
  -19.4898  -19.8170   -0.7697 C   0  0  0  0  0  0  0  0  0  0  0  0
  -20.5367  -20.6335   -0.0880 C   0  0  0  0  0  0  0  0  0  0  0  0
  -19.3388  -20.1181   -2.2039 N   0  0  0  0  0  0  0  0  0  0  0  0
  -18.1644  -19.6328   -4.2298 N   0  0  0  0  0  0  0  0  0  0  0  0
  -21.5421  -21.1784   -2.2449 C   0  0  0  0  0  0  0  0  0  0  0  0
  -22.9652  -21.2613   -0.1430 C   0  0  0  0  0  0  0  0  0  0  0  0
  -21.8210  -20.6175   -0.8811 C   0  0  1  0  0  0  0  0  0  0  0  0
  -17.1286  -19.5174   -2.1840 O   0  0  0  0  0  0  0  0  0  0  0  0
  -13.6661  -20.2101   -7.3266 O   0  0  0  0  0  0  0  0  0  0  0  0
  -21.0711  -19.2649   -3.0498 H   0  0  0  0  0  0  0  0  0  0  0  0
  -20.3776  -20.6715   -3.9460 H   0  0  0  0  0  0  0  0  0  0  0  0
  -16.2811  -17.6742   -4.5332 H   0  0  0  0  0  0  0  0  0  0  0  0
  -17.4576  -21.6708   -5.6224 H   0  0  0  0  0  0  0  0  0  0  0  0
  -15.5125  -21.8184   -7.1301 H   0  0  0  0  0  0  0  0  0  0  0  0
  -14.2948  -17.9084   -5.9464 H   0  0  0  0  0  0  0  0  0  0  0  0
  -19.7559  -18.7549   -0.6648 H   0  0  0  0  0  0  0  0  0  0  0  0
  -18.5309  -20.0613   -0.2892 H   0  0  0  0  0  0  0  0  0  0  0  0
  -20.1824  -21.6706    0.0059 H   0  0  0  0  0  0  0  0  0  0  0  0
  -20.7284  -20.2059    0.9072 H   0  0  0  0  0  0  0  0  0  0  0  0
  -19.0630  -19.6768   -4.7311 H   0  0  0  0  0  0  0  0  0  0  0  0
  -22.4808  -21.2587   -2.8126 H   0  0  0  0  0  0  0  0  0  0  0  0
  -21.0945  -22.1794   -2.1573 H   0  0  0  0  0  0  0  0  0  0  0  0
  -22.8008  -21.1688    0.9407 H   0  0  0  0  0  0  0  0  0  0  0  0
  -23.9057  -20.7599   -0.4153 H   0  0  0  0  0  0  0  0  0  0  0  0
  -23.0248  -22.3254   -0.4153 H   0  0  0  0  0  0  0  0  0  0  0  0
  -22.1735  -19.5844   -1.0169 H   0  0  0  0  0  0  0  0  0  0  0  0
  -12.9229  -19.5639   -7.4278 H   0  0  0  0  0  0  0  0  0  0  0  0
  1 11  1  0
  1 13  1  0
  2 11  1  0
  2 12  1  0
  2 16  2  0
  3  4  2  0
  3  5  1  0
  3 12  1  0
  4  8  1  0
  5  6  2  0
  6  7  1  0
  7  8  2  0
  7 17  1  0
  9 10  1  0
  9 11  1  0
 10 15  1  0
 13 15  1  0
 15 14  1  0
  1 18  1  0
  1 19  1  0
  4 20  1  0
  5 21  1  0
  6 22  1  0
  8 23  1  0
  9 24  1  0
  9 25  1  0
 10 26  1  0
 10 27  1  0
 12 28  1  0
 13 29  1  0
 13 30  1  0
 14 31  1  0
 14 32  1  0
 14 33  1  0
 15 34  1  6
 17 35  1  0
M  END
>  <filename_input>  (17) 
7NGW_UAW_docked.sdf

>  <pdb_id>  (17) 
7NGW_UAW

>  <pose_rank>  (17) 
16

>  <num_atoms_heavy>  (17) 
17

>  <num_torsions>  (17) 
1

>  <pose>  (17) 
[-20.60052630974976, -20.254459822420753, -2.952845719718928, 0.4796619415070788, -1.9733296708725359, -0.1853178078618935, -1.3237155360072574]

>  <energy>  (17) 
-139.63955260604203

>  <inter_energy>  (17) 
-133.36839481006731

>  <intra_energy>  (17) 
4.357494578586284

>  <rmsd>  (17) 
13.004

>  <sdf_rank>  (17) 
0

$$$$

     RDKit          3D

 35 36  0  0  0  0  0  0  0  0999 V2000
  -12.1200  -35.6187    9.3335 C   0  0  0  0  0  0  0  0  0  0  0  0
  -10.8544  -37.3722    8.2600 C   0  0  0  0  0  0  0  0  0  0  0  0
  -10.1774  -36.9228    5.9107 C   0  0  0  0  0  0  0  0  0  0  0  0
  -10.9533  -36.8879    4.7442 C   0  0  0  0  0  0  0  0  0  0  0  0
   -8.8083  -37.1241    5.7589 C   0  0  0  0  0  0  0  0  0  0  0  0
   -8.2561  -37.3908    4.5259 C   0  0  0  0  0  0  0  0  0  0  0  0
   -9.0296  -37.3222    3.3846 C   0  0  0  0  0  0  0  0  0  0  0  0
  -10.3744  -37.1194    3.5263 C   0  0  0  0  0  0  0  0  0  0  0  0
  -11.7781  -37.8069   10.4676 C   0  0  0  0  0  0  0  0  0  0  0  0
  -12.9614  -37.5286   11.3333 C   0  0  0  0  0  0  0  0  0  0  0  0
  -11.7688  -37.0443    9.2072 N   0  0  0  0  0  0  0  0  0  0  0  0
  -10.6268  -36.6024    7.1530 N   0  0  0  0  0  0  0  0  0  0  0  0
  -13.3799  -35.4495   10.1244 C   0  0  0  0  0  0  0  0  0  0  0  0
  -14.2251  -35.7055   12.5056 C   0  0  0  0  0  0  0  0  0  0  0  0
  -13.1675  -36.0412   11.4871 C   0  0  1  0  0  0  0  0  0  0  0  0
  -10.5858  -38.6811    8.1268 O   0  0  0  0  0  0  0  0  0  0  0  0
   -8.3125  -37.5608    2.2660 O   0  0  0  0  0  0  0  0  0  0  0  0
  -11.3010  -35.0893    9.8424 H   0  0  0  0  0  0  0  0  0  0  0  0
  -12.2772  -35.2038    8.3270 H   0  0  0  0  0  0  0  0  0  0  0  0
  -12.0304  -36.6739    4.8080 H   0  0  0  0  0  0  0  0  0  0  0  0
   -8.1543  -37.0690    6.6417 H   0  0  0  0  0  0  0  0  0  0  0  0
   -7.1923  -37.6600    4.4499 H   0  0  0  0  0  0  0  0  0  0  0  0
  -11.0125  -37.1432    2.6306 H   0  0  0  0  0  0  0  0  0  0  0  0
  -10.8685  -37.5540   11.0322 H   0  0  0  0  0  0  0  0  0  0  0  0
  -11.8239  -38.8719   10.1964 H   0  0  0  0  0  0  0  0  0  0  0  0
  -13.8574  -37.9725   10.8749 H   0  0  0  0  0  0  0  0  0  0  0  0
  -12.7859  -37.9675   12.3266 H   0  0  0  0  0  0  0  0  0  0  0  0
  -10.8325  -35.6016    7.2837 H   0  0  0  0  0  0  0  0  0  0  0  0
  -13.6194  -34.3798   10.2171 H   0  0  0  0  0  0  0  0  0  0  0  0
  -14.2146  -35.9566    9.6183 H   0  0  0  0  0  0  0  0  0  0  0  0
  -13.8141  -35.8359   13.5176 H   0  0  0  0  0  0  0  0  0  0  0  0
  -14.5451  -34.6616   12.3716 H   0  0  0  0  0  0  0  0  0  0  0  0
  -15.0885  -36.3737   12.3716 H   0  0  0  0  0  0  0  0  0  0  0  0
  -12.2675  -35.5725   11.9118 H   0  0  0  0  0  0  0  0  0  0  0  0
   -8.7549  -37.5403    1.3806 H   0  0  0  0  0  0  0  0  0  0  0  0
  1 11  1  0
  1 13  1  0
  2 11  1  0
  2 12  1  0
  2 16  2  0
  3  4  2  0
  3  5  1  0
  3 12  1  0
  4  8  1  0
  5  6  2  0
  6  7  1  0
  7  8  2  0
  7 17  1  0
  9 10  1  0
  9 11  1  0
 10 15  1  0
 13 15  1  0
 15 14  1  0
  1 18  1  0
  1 19  1  0
  4 20  1  0
  5 21  1  0
  6 22  1  0
  8 23  1  0
  9 24  1  0
  9 25  1  0
 10 26  1  0
 10 27  1  0
 12 28  1  0
 13 29  1  0
 13 30  1  0
 14 31  1  0
 14 32  1  0
 14 33  1  0
 15 34  1  1
 17 35  1  0
M  END
>  <filename_input>  (18) 
7NGW_UAW_docked.sdf

>  <pdb_id>  (18) 
7NGW_UAW

>  <pose_rank>  (18) 
17

>  <num_atoms_heavy>  (18) 
17

>  <num_torsions>  (18) 
1

>  <pose>  (18) 
[-12.120021129113573, -35.61869675385753, 9.33353685045006, -0.44736576658860583, -1.5844392180679594, -1.6714347903107545, 1.6671493603911138]

>  <energy>  (18) 
-95.231502447449

>  <inter_energy>  (18) 
-90.96031814144919

>  <intra_energy>  (18) 
1.9469909556521081

>  <rmsd>  (18) 
11.3373

>  <sdf_rank>  (18) 
0

$$$$

     RDKit          3D

 35 36  0  0  0  0  0  0  0  0999 V2000
  -11.8970  -38.6758   -0.6560 C   0  0  0  0  0  0  0  0  0  0  0  0
   -9.7773  -38.4463    0.4769 C   0  0  0  0  0  0  0  0  0  0  0  0
   -9.8954  -38.3049    2.9559 C   0  0  0  0  0  0  0  0  0  0  0  0
   -8.6182  -38.6432    3.4232 C   0  0  0  0  0  0  0  0  0  0  0  0
  -10.6723  -37.4814    3.7661 C   0  0  0  0  0  0  0  0  0  0  0  0
  -10.2497  -37.1081    5.0224 C   0  0  0  0  0  0  0  0  0  0  0  0
   -8.9772  -37.4245    5.4540 C   0  0  0  0  0  0  0  0  0  0  0  0
   -8.2068  -38.2287    4.6606 C   0  0  0  0  0  0  0  0  0  0  0  0
   -9.7995  -38.3448   -1.9531 C   0  0  0  0  0  0  0  0  0  0  0  0
  -10.6073  -37.8638   -3.1121 C   0  0  0  0  0  0  0  0  0  0  0  0
  -10.4912  -38.2337   -0.6571 N   0  0  0  0  0  0  0  0  0  0  0  0
  -10.3617  -38.5706    1.7070 N   0  0  0  0  0  0  0  0  0  0  0  0
  -12.6509  -38.0540   -1.7902 C   0  0  0  0  0  0  0  0  0  0  0  0
  -12.7834  -38.1652   -4.3241 C   0  0  0  0  0  0  0  0  0  0  0  0
  -11.9932  -38.4610   -3.0764 C   0  0  1  0  0  0  0  0  0  0  0  0
   -8.5141  -37.9911    0.4734 O   0  0  0  0  0  0  0  0  0  0  0  0
   -8.7184  -36.9344    6.6849 O   0  0  0  0  0  0  0  0  0  0  0  0
  -11.9308  -39.7706   -0.7577 H   0  0  0  0  0  0  0  0  0  0  0  0
  -12.3637  -38.3645    0.2902 H   0  0  0  0  0  0  0  0  0  0  0  0
   -7.9448  -39.2433    2.7936 H   0  0  0  0  0  0  0  0  0  0  0  0
  -11.6434  -37.1217    3.3951 H   0  0  0  0  0  0  0  0  0  0  0  0
  -10.9302  -36.5545    5.6860 H   0  0  0  0  0  0  0  0  0  0  0  0
   -7.2228  -38.5535    5.0297 H   0  0  0  0  0  0  0  0  0  0  0  0
   -9.5471  -39.4021   -2.1216 H   0  0  0  0  0  0  0  0  0  0  0  0
   -8.9086  -37.7022   -1.8959 H   0  0  0  0  0  0  0  0  0  0  0  0
  -10.6846  -36.7674   -3.0691 H   0  0  0  0  0  0  0  0  0  0  0  0
  -10.1111  -38.1734   -4.0438 H   0  0  0  0  0  0  0  0  0  0  0  0
  -11.3268  -38.9294    1.6828 H   0  0  0  0  0  0  0  0  0  0  0  0
  -13.6936  -38.4040   -1.7793 H   0  0  0  0  0  0  0  0  0  0  0  0
  -12.6441  -36.9584   -1.6927 H   0  0  0  0  0  0  0  0  0  0  0  0
  -13.7803  -37.7921   -4.0469 H   0  0  0  0  0  0  0  0  0  0  0  0
  -12.2586  -37.4027   -4.9183 H   0  0  0  0  0  0  0  0  0  0  0  0
  -12.8883  -39.0850   -4.9183 H   0  0  0  0  0  0  0  0  0  0  0  0
  -11.9363  -39.5595   -3.0827 H   0  0  0  0  0  0  0  0  0  0  0  0
   -7.8368  -37.0944    7.1061 H   0  0  0  0  0  0  0  0  0  0  0  0
  1 11  1  0
  1 13  1  0
  2 11  1  0
  2 12  1  0
  2 16  2  0
  3  4  2  0
  3  5  1  0
  3 12  1  0
  4  8  1  0
  5  6  2  0
  6  7  1  0
  7  8  2  0
  7 17  1  0
  9 10  1  0
  9 11  1  0
 10 15  1  0
 13 15  1  0
 15 14  1  0
  1 18  1  0
  1 19  1  0
  4 20  1  0
  5 21  1  0
  6 22  1  0
  8 23  1  0
  9 24  1  0
  9 25  1  0
 10 26  1  0
 10 27  1  0
 12 28  1  0
 13 29  1  0
 13 30  1  0
 14 31  1  0
 14 32  1  0
 14 33  1  0
 15 34  1  1
 17 35  1  0
M  END
>  <filename_input>  (19) 
7NGW_UAW_docked.sdf

>  <pdb_id>  (19) 
7NGW_UAW

>  <pose_rank>  (19) 
18

>  <num_atoms_heavy>  (19) 
17

>  <num_torsions>  (19) 
1

>  <pose>  (19) 
[-11.896972673520958, -38.67580311435752, -0.6560277478690381, 2.195269064462886, 0.7984275288553023, -2.1609596346765727, -1.0233675368434745]

>  <energy>  (19) 
-131.07037211919277

>  <inter_energy>  (19) 
-127.37203592630414

>  <intra_energy>  (19) 
9.994151132127461

>  <rmsd>  (19) 
11.7732

>  <sdf_rank>  (19) 
0

$$$$

     RDKit          3D

 35 36  0  0  0  0  0  0  0  0999 V2000
  -14.9413  -20.7024   -2.9025 C   0  0  0  0  0  0  0  0  0  0  0  0
  -16.7044  -19.8150   -1.5123 C   0  0  0  0  0  0  0  0  0  0  0  0
  -18.9731  -20.7387   -1.9363 C   0  0  0  0  0  0  0  0  0  0  0  0
  -19.7135  -20.6641   -0.7488 C   0  0  0  0  0  0  0  0  0  0  0  0
  -19.6795  -20.6596   -3.1332 C   0  0  0  0  0  0  0  0  0  0  0  0
  -21.0561  -20.6240   -3.1512 C   0  0  0  0  0  0  0  0  0  0  0  0
  -21.7676  -20.5202   -1.9729 C   0  0  0  0  0  0  0  0  0  0  0  0
  -21.0792  -20.5918   -0.7937 C   0  0  0  0  0  0  0  0  0  0  0  0
  -14.4968  -18.8067   -1.3534 C   0  0  0  0  0  0  0  0  0  0  0  0
  -13.2996  -18.4404   -2.1657 C   0  0  0  0  0  0  0  0  0  0  0  0
  -15.4933  -19.6062   -2.0870 N   0  0  0  0  0  0  0  0  0  0  0  0
  -17.6161  -20.7048   -2.0095 N   0  0  0  0  0  0  0  0  0  0  0  0
  -13.8188  -20.2119   -3.7632 C   0  0  0  0  0  0  0  0  0  0  0  0
  -11.4284  -19.3813   -3.5471 C   0  0  0  0  0  0  0  0  0  0  0  0
  -12.7471  -19.6543   -2.8726 C   0  0  1  0  0  0  0  0  0  0  0  0
  -17.2125  -18.7858   -0.8154 O   0  0  0  0  0  0  0  0  0  0  0  0
  -23.0987  -20.4451   -2.1845 O   0  0  0  0  0  0  0  0  0  0  0  0
  -14.5660  -21.4935   -2.2367 H   0  0  0  0  0  0  0  0  0  0  0  0
  -15.7380  -21.0944   -3.5519 H   0  0  0  0  0  0  0  0  0  0  0  0
  -19.1956  -20.6636    0.2216 H   0  0  0  0  0  0  0  0  0  0  0  0
  -19.1271  -20.6248   -4.0838 H   0  0  0  0  0  0  0  0  0  0  0  0
  -21.5918  -20.6787   -4.1104 H   0  0  0  0  0  0  0  0  0  0  0  0
  -21.6425  -20.5914    0.1512 H   0  0  0  0  0  0  0  0  0  0  0  0
  -14.1599  -19.3876   -0.4822 H   0  0  0  0  0  0  0  0  0  0  0  0
  -14.9896  -17.8655   -1.0680 H   0  0  0  0  0  0  0  0  0  0  0  0
  -13.5865  -17.6860   -2.9130 H   0  0  0  0  0  0  0  0  0  0  0  0
  -12.5260  -18.0366   -1.4960 H   0  0  0  0  0  0  0  0  0  0  0  0
  -17.2006  -21.4888   -2.5326 H   0  0  0  0  0  0  0  0  0  0  0  0
  -13.4131  -21.0454   -4.3554 H   0  0  0  0  0  0  0  0  0  0  0  0
  -14.1819  -19.4333   -4.4502 H   0  0  0  0  0  0  0  0  0  0  0  0
  -10.6526  -19.2207   -2.7840 H   0  0  0  0  0  0  0  0  0  0  0  0
  -11.1527  -20.2414   -4.1749 H   0  0  0  0  0  0  0  0  0  0  0  0
  -11.5169  -18.4824   -4.1749 H   0  0  0  0  0  0  0  0  0  0  0  0
  -12.4869  -20.4357   -2.1434 H   0  0  0  0  0  0  0  0  0  0  0  0
  -23.7185  -20.3675   -1.4164 H   0  0  0  0  0  0  0  0  0  0  0  0
  1 11  1  0
  1 13  1  0
  2 11  1  0
  2 12  1  0
  2 16  2  0
  3  4  2  0
  3  5  1  0
  3 12  1  0
  4  8  1  0
  5  6  2  0
  6  7  1  0
  7  8  2  0
  7 17  1  0
  9 10  1  0
  9 11  1  0
 10 15  1  0
 13 15  1  0
 15 14  1  0
  1 18  1  0
  1 19  1  0
  4 20  1  0
  5 21  1  0
  6 22  1  0
  8 23  1  0
  9 24  1  0
  9 25  1  0
 10 26  1  0
 10 27  1  0
 12 28  1  0
 13 29  1  0
 13 30  1  0
 14 31  1  0
 14 32  1  0
 14 33  1  0
 15 34  1  1
 17 35  1  0
M  END
>  <filename_input>  (20) 
7NGW_UAW_docked.sdf

>  <pdb_id>  (20) 
7NGW_UAW

>  <pose_rank>  (20) 
19

>  <num_atoms_heavy>  (20) 
17

>  <num_torsions>  (20) 
1

>  <pose>  (20) 
[-14.94127712281878, -20.70244668803949, -2.9025403773525356, 1.9827735501292516, 0.8018657374174478, 0.20200879283256584, -1.1914992917844647]

>  <energy>  (20) 
-128.97607133693822

>  <inter_energy>  (20) 
-120.02716354722887

>  <intra_energy>  (20) 
6.671394725232276

>  <rmsd>  (20) 
10.7623

>  <sdf_rank>  (20) 
0

$$$$

     RDKit          3D

 35 36  0  0  0  0  0  0  0  0999 V2000
  -22.2550  -24.4973   10.6907 C   0  0  0  0  0  0  0  0  0  0  0  0
  -21.5763  -26.5536    9.6230 C   0  0  0  0  0  0  0  0  0  0  0  0
  -21.4345  -28.5396   11.1114 C   0  0  0  0  0  0  0  0  0  0  0  0
  -20.2284  -28.8721   11.7427 C   0  0  0  0  0  0  0  0  0  0  0  0
  -22.3940  -29.5424   11.0029 C   0  0  0  0  0  0  0  0  0  0  0  0
  -22.1267  -30.8347   11.3965 C   0  0  0  0  0  0  0  0  0  0  0  0
  -20.9458  -31.1376   12.0439 C   0  0  0  0  0  0  0  0  0  0  0  0
  -20.0012  -30.1557   12.1586 C   0  0  0  0  0  0  0  0  0  0  0  0
  -21.5091  -24.5029    8.3169 C   0  0  0  0  0  0  0  0  0  0  0  0
  -21.2201  -23.0422    8.4176 C   0  0  0  0  0  0  0  0  0  0  0  0
  -21.5299  -25.1977    9.6158 N   0  0  0  0  0  0  0  0  0  0  0  0
  -21.8056  -27.2803   10.7584 N   0  0  0  0  0  0  0  0  0  0  0  0
  -21.8167  -23.0688   10.7847 C   0  0  0  0  0  0  0  0  0  0  0  0
  -21.9817  -20.8986    9.4758 C   0  0  0  0  0  0  0  0  0  0  0  0
  -22.0923  -22.4007    9.4694 C   0  0  1  0  0  0  0  0  0  0  0  0
  -20.8681  -27.1736    8.6654 O   0  0  0  0  0  0  0  0  0  0  0  0
  -20.8780  -32.4375   12.4018 O   0  0  0  0  0  0  0  0  0  0  0  0
  -23.3338  -24.5302   10.4788 H   0  0  0  0  0  0  0  0  0  0  0  0
  -22.0369  -24.9965   11.6463 H   0  0  0  0  0  0  0  0  0  0  0  0
  -19.4624  -28.0993   11.9043 H   0  0  0  0  0  0  0  0  0  0  0  0
  -23.3856  -29.2975   10.5946 H   0  0  0  0  0  0  0  0  0  0  0  0
  -22.8587  -31.6304   11.1937 H   0  0  0  0  0  0  0  0  0  0  0  0
  -19.0254  -30.4062   12.6002 H   0  0  0  0  0  0  0  0  0  0  0  0
  -22.4925  -24.6295    7.8406 H   0  0  0  0  0  0  0  0  0  0  0  0
  -20.6945  -24.9501    7.7283 H   0  0  0  0  0  0  0  0  0  0  0  0
  -20.1634  -22.9004    8.6883 H   0  0  0  0  0  0  0  0  0  0  0  0
  -21.4300  -22.5708    7.4462 H   0  0  0  0  0  0  0  0  0  0  0  0
  -22.3578  -26.7856   11.4734 H   0  0  0  0  0  0  0  0  0  0  0  0
  -22.3760  -22.5605   11.5839 H   0  0  0  0  0  0  0  0  0  0  0  0
  -20.7426  -23.0177   11.0166 H   0  0  0  0  0  0  0  0  0  0  0  0
  -21.9551  -20.5373   10.5145 H   0  0  0  0  0  0  0  0  0  0  0  0
  -21.0589  -20.5967    8.9588 H   0  0  0  0  0  0  0  0  0  0  0  0
  -22.8504  -20.4648    8.9588 H   0  0  0  0  0  0  0  0  0  0  0  0
  -23.1549  -22.5624    9.2354 H   0  0  0  0  0  0  0  0  0  0  0  0
  -20.0783  -32.7797   12.8746 H   0  0  0  0  0  0  0  0  0  0  0  0
  1 11  1  0
  1 13  1  0
  2 11  1  0
  2 12  1  0
  2 16  2  0
  3  4  2  0
  3  5  1  0
  3 12  1  0
  4  8  1  0
  5  6  2  0
  6  7  1  0
  7  8  2  0
  7 17  1  0
  9 10  1  0
  9 11  1  0
 10 15  1  0
 13 15  1  0
 15 14  1  0
  1 18  1  0
  1 19  1  0
  4 20  1  0
  5 21  1  0
  6 22  1  0
  8 23  1  0
  9 24  1  0
  9 25  1  0
 10 26  1  0
 10 27  1  0
 12 28  1  0
 13 29  1  0
 13 30  1  0
 14 31  1  0
 14 32  1  0
 14 33  1  0
 15 34  1  6
 17 35  1  0
M  END
>  <filename_input>  (21) 
7NGW_UAW_docked.sdf

>  <pdb_id>  (21) 
7NGW_UAW

>  <pose_rank>  (21) 
20

>  <num_atoms_heavy>  (21) 
17

>  <num_torsions>  (21) 
1

>  <pose>  (21) 
[-22.25495854228254, -24.497271275796226, 10.69071247799544, 2.712779736824566, 0.22294303977756016, -3.8779323312332354, 1.2692641637682913]

>  <energy>  (21) 
-96.18510926295376

>  <inter_energy>  (21) 
-96.78160077370399

>  <intra_energy>  (21) 
0.022448676498398528

>  <rmsd>  (21) 
12.6092

>  <sdf_rank>  (21) 
0

$$$$

     RDKit          3D

 35 36  0  0  0  0  0  0  0  0999 V2000
  -20.8586  -20.8783   -5.2458 C   0  0  0  0  0  0  0  0  0  0  0  0
  -18.4800  -21.2901   -5.2884 C   0  0  0  0  0  0  0  0  0  0  0  0
  -17.7445  -23.1856   -6.7188 C   0  0  0  0  0  0  0  0  0  0  0  0
  -16.4934  -22.9185   -7.2910 C   0  0  0  0  0  0  0  0  0  0  0  0
  -18.0430  -24.5148   -6.4324 C   0  0  0  0  0  0  0  0  0  0  0  0
  -17.1934  -25.5346   -6.7994 C   0  0  0  0  0  0  0  0  0  0  0  0
  -15.9526  -25.2517   -7.3340 C   0  0  0  0  0  0  0  0  0  0  0  0
  -15.6509  -23.9475   -7.6127 C   0  0  0  0  0  0  0  0  0  0  0  0
  -19.3310  -19.6237   -3.7346 C   0  0  0  0  0  0  0  0  0  0  0  0
  -20.4873  -19.3157   -2.8426 C   0  0  0  0  0  0  0  0  0  0  0  0
  -19.5387  -20.8015   -4.5949 N   0  0  0  0  0  0  0  0  0  0  0  0
  -18.6087  -22.2401   -6.2635 N   0  0  0  0  0  0  0  0  0  0  0  0
  -21.9560  -20.6656   -4.2499 C   0  0  0  0  0  0  0  0  0  0  0  0
  -22.9457  -18.8153   -2.8192 C   0  0  0  0  0  0  0  0  0  0  0  0
  -21.7763  -19.3115   -3.6282 C   0  0  1  0  0  0  0  0  0  0  0  0
  -17.2950  -21.2569   -4.6578 O   0  0  0  0  0  0  0  0  0  0  0  0
  -15.2370  -26.3688   -7.5839 O   0  0  0  0  0  0  0  0  0  0  0  0
  -20.9225  -20.1034   -6.0239 H   0  0  0  0  0  0  0  0  0  0  0  0
  -20.9747  -21.8778   -5.6903 H   0  0  0  0  0  0  0  0  0  0  0  0
  -16.1880  -21.8791   -7.4819 H   0  0  0  0  0  0  0  0  0  0  0  0
  -18.9763  -24.7554   -5.9023 H   0  0  0  0  0  0  0  0  0  0  0  0
  -17.5055  -26.5809   -6.6658 H   0  0  0  0  0  0  0  0  0  0  0  0
  -14.6984  -23.7177   -8.1127 H   0  0  0  0  0  0  0  0  0  0  0  0
  -19.1489  -18.7514   -4.3795 H   0  0  0  0  0  0  0  0  0  0  0  0
  -18.4756  -19.8518   -3.0817 H   0  0  0  0  0  0  0  0  0  0  0  0
  -20.5478  -20.0785   -2.0524 H   0  0  0  0  0  0  0  0  0  0  0  0
  -20.3384  -18.3202   -2.3991 H   0  0  0  0  0  0  0  0  0  0  0  0
  -19.5233  -22.2392   -6.7373 H   0  0  0  0  0  0  0  0  0  0  0  0
  -22.9315  -20.7156   -4.7558 H   0  0  0  0  0  0  0  0  0  0  0  0
  -21.9188  -21.4451   -3.4746 H   0  0  0  0  0  0  0  0  0  0  0  0
  -22.7176  -18.9121   -1.7475 H   0  0  0  0  0  0  0  0  0  0  0  0
  -23.1360  -17.7589   -3.0596 H   0  0  0  0  0  0  0  0  0  0  0  0
  -23.8376  -19.4125   -3.0596 H   0  0  0  0  0  0  0  0  0  0  0  0
  -21.7224  -18.5790   -4.4471 H   0  0  0  0  0  0  0  0  0  0  0  0
  -14.3278  -26.2983   -7.9694 H   0  0  0  0  0  0  0  0  0  0  0  0
  1 11  1  0
  1 13  1  0
  2 11  1  0
  2 12  1  0
  2 16  2  0
  3  4  2  0
  3  5  1  0
  3 12  1  0
  4  8  1  0
  5  6  2  0
  6  7  1  0
  7  8  2  0
  7 17  1  0
  9 10  1  0
  9 11  1  0
 10 15  1  0
 13 15  1  0
 15 14  1  0
  1 18  1  0
  1 19  1  0
  4 20  1  0
  5 21  1  0
  6 22  1  0
  8 23  1  0
  9 24  1  0
  9 25  1  0
 10 26  1  0
 10 27  1  0
 12 28  1  0
 13 29  1  0
 13 30  1  0
 14 31  1  0
 14 32  1  0
 14 33  1  0
 15 34  1  6
 17 35  1  0
M  END
>  <filename_input>  (22) 
7NGW_UAW_docked.sdf

>  <pdb_id>  (22) 
7NGW_UAW

>  <pose_rank>  (22) 
21

>  <num_atoms_heavy>  (22) 
17

>  <num_torsions>  (22) 
1

>  <pose>  (22) 
[-20.858559986993782, -20.87833670093945, -5.245821309177856, -0.4242539067560707, -1.9481997625322929, 0.2579654855506369, 4.964811328829859]

>  <energy>  (22) 
-126.26693604276416

>  <inter_energy>  (22) 
-116.36386432270866

>  <intra_energy>  (22) 
4.443695669052446

>  <rmsd>  (22) 
12.76

>  <sdf_rank>  (22) 
0

$$$$

     RDKit          3D

 35 36  0  0  0  0  0  0  0  0999 V2000
  -20.5830  -29.6254   10.8327 C   0  0  0  0  0  0  0  0  0  0  0  0
  -21.8274  -31.6886   10.9858 C   0  0  0  0  0  0  0  0  0  0  0  0
  -20.4674  -33.7377   11.3486 C   0  0  0  0  0  0  0  0  0  0  0  0
  -20.8783  -34.6040   12.3706 C   0  0  0  0  0  0  0  0  0  0  0  0
  -19.9355  -34.3158   10.1993 C   0  0  0  0  0  0  0  0  0  0  0  0
  -19.7171  -35.6729   10.1156 C   0  0  0  0  0  0  0  0  0  0  0  0
  -20.1557  -36.5140   11.1184 C   0  0  0  0  0  0  0  0  0  0  0  0
  -20.6841  -35.9529   12.2478 C   0  0  0  0  0  0  0  0  0  0  0  0
  -23.0306  -29.6617   10.3863 C   0  0  0  0  0  0  0  0  0  0  0  0
  -22.8974  -28.3857    9.6237 C   0  0  0  0  0  0  0  0  0  0  0  0
  -21.7749  -30.4242   10.4968 N   0  0  0  0  0  0  0  0  0  0  0  0
  -20.7084  -32.4001   11.3198 N   0  0  0  0  0  0  0  0  0  0  0  0
  -20.4773  -28.4271    9.9414 C   0  0  0  0  0  0  0  0  0  0  0  0
  -21.6476  -26.2127    9.5208 C   0  0  0  0  0  0  0  0  0  0  0  0
  -21.7123  -27.5932   10.1196 C   0  0  1  0  0  0  0  0  0  0  0  0
  -22.8971  -32.4166   10.6267 O   0  0  0  0  0  0  0  0  0  0  0  0
  -19.9035  -37.8115   10.8439 O   0  0  0  0  0  0  0  0  0  0  0  0
  -20.6555  -29.2917   11.8784 H   0  0  0  0  0  0  0  0  0  0  0  0
  -19.6887  -30.2500   10.6912 H   0  0  0  0  0  0  0  0  0  0  0  0
  -21.3580  -34.1987   13.2736 H   0  0  0  0  0  0  0  0  0  0  0  0
  -19.6845  -33.6756    9.3407 H   0  0  0  0  0  0  0  0  0  0  0  0
  -19.1900  -36.0891    9.2445 H   0  0  0  0  0  0  0  0  0  0  0  0
  -20.9626  -36.6082   13.0863 H   0  0  0  0  0  0  0  0  0  0  0  0
  -23.3818  -29.4237   11.4012 H   0  0  0  0  0  0  0  0  0  0  0  0
  -23.7401  -30.2931    9.8314 H   0  0  0  0  0  0  0  0  0  0  0  0
  -22.7586  -28.6147    8.5568 H   0  0  0  0  0  0  0  0  0  0  0  0
  -23.8098  -27.7885    9.7685 H   0  0  0  0  0  0  0  0  0  0  0  0
  -19.9051  -31.8191   11.5993 H   0  0  0  0  0  0  0  0  0  0  0  0
  -19.5890  -27.8384   10.2143 H   0  0  0  0  0  0  0  0  0  0  0  0
  -20.3835  -28.7439    8.8922 H   0  0  0  0  0  0  0  0  0  0  0  0
  -21.6125  -25.4648   10.3267 H   0  0  0  0  0  0  0  0  0  0  0  0
  -20.7443  -26.1246    8.8992 H   0  0  0  0  0  0  0  0  0  0  0  0
  -22.5386  -26.0405    8.8992 H   0  0  0  0  0  0  0  0  0  0  0  0
  -21.8150  -27.3843   11.1947 H   0  0  0  0  0  0  0  0  0  0  0  0
  -20.1709  -38.5146   11.4875 H   0  0  0  0  0  0  0  0  0  0  0  0
  1 11  1  0
  1 13  1  0
  2 11  1  0
  2 12  1  0
  2 16  2  0
  3  4  2  0
  3  5  1  0
  3 12  1  0
  4  8  1  0
  5  6  2  0
  6  7  1  0
  7  8  2  0
  7 17  1  0
  9 10  1  0
  9 11  1  0
 10 15  1  0
 13 15  1  0
 15 14  1  0
  1 18  1  0
  1 19  1  0
  4 20  1  0
  5 21  1  0
  6 22  1  0
  8 23  1  0
  9 24  1  0
  9 25  1  0
 10 26  1  0
 10 27  1  0
 12 28  1  0
 13 29  1  0
 13 30  1  0
 14 31  1  0
 14 32  1  0
 14 33  1  0
 15 34  1  1
 17 35  1  0
M  END
>  <filename_input>  (23) 
7NGW_UAW_docked.sdf

>  <pdb_id>  (23) 
7NGW_UAW

>  <pose_rank>  (23) 
22

>  <num_atoms_heavy>  (23) 
17

>  <num_torsions>  (23) 
1

>  <pose>  (23) 
[-20.583004795285433, -29.625383147108067, 10.832722900232374, -0.4537029866597364, -3.1181919973131933, -2.885963157678256, -1.6410161497522526]

>  <energy>  (23) 
-123.58072409318348

>  <inter_energy>  (23) 
-111.642416574607

>  <intra_energy>  (23) 
0.7700653969693955

>  <rmsd>  (23) 
12.9386

>  <sdf_rank>  (23) 
0

$$$$

     RDKit          3D

 35 36  0  0  0  0  0  0  0  0999 V2000
  -11.2355  -36.1893    4.5225 C   0  0  0  0  0  0  0  0  0  0  0  0
  -11.8724  -37.5284    6.4278 C   0  0  0  0  0  0  0  0  0  0  0  0
  -12.3623  -36.2649    8.5118 C   0  0  0  0  0  0  0  0  0  0  0  0
  -12.1336  -37.2539    9.4780 C   0  0  0  0  0  0  0  0  0  0  0  0
  -12.6432  -34.9805    8.9696 C   0  0  0  0  0  0  0  0  0  0  0  0
  -12.8016  -34.7174   10.3120 C   0  0  0  0  0  0  0  0  0  0  0  0
  -12.5427  -35.6957   11.2508 C   0  0  0  0  0  0  0  0  0  0  0  0
  -12.2610  -36.9583   10.8079 C   0  0  0  0  0  0  0  0  0  0  0  0
  -11.1332  -38.6730    4.4131 C   0  0  0  0  0  0  0  0  0  0  0  0
  -10.1711  -38.5705    3.2768 C   0  0  0  0  0  0  0  0  0  0  0  0
  -11.1907  -37.4664    5.2564 N   0  0  0  0  0  0  0  0  0  0  0  0
  -12.1592  -36.4208    7.1768 N   0  0  0  0  0  0  0  0  0  0  0  0
  -10.1631  -36.1376    3.4790 C   0  0  0  0  0  0  0  0  0  0  0  0
   -9.5655  -37.2116    1.2565 C   0  0  0  0  0  0  0  0  0  0  0  0
  -10.3742  -37.2771    2.5254 C   0  0  1  0  0  0  0  0  0  0  0  0
  -11.7776  -38.6836    7.1056 O   0  0  0  0  0  0  0  0  0  0  0  0
  -12.6989  -35.2460   12.5140 O   0  0  0  0  0  0  0  0  0  0  0  0
  -12.2169  -36.0869    4.0364 H   0  0  0  0  0  0  0  0  0  0  0  0
  -11.0736  -35.3672    5.2353 H   0  0  0  0  0  0  0  0  0  0  0  0
  -11.8510  -38.2703    9.1664 H   0  0  0  0  0  0  0  0  0  0  0  0
  -12.7404  -34.1592    8.2443 H   0  0  0  0  0  0  0  0  0  0  0  0
  -13.1366  -33.7217   10.6381 H   0  0  0  0  0  0  0  0  0  0  0  0
  -12.1323  -37.7638   11.5458 H   0  0  0  0  0  0  0  0  0  0  0  0
  -12.1368  -38.8565    4.0019 H   0  0  0  0  0  0  0  0  0  0  0  0
  -10.7833  -39.4950    5.0549 H   0  0  0  0  0  0  0  0  0  0  0  0
   -9.1437  -38.6038    3.6685 H   0  0  0  0  0  0  0  0  0  0  0  0
  -10.3428  -39.4116    2.5890 H   0  0  0  0  0  0  0  0  0  0  0  0
  -12.2348  -35.5496    6.6325 H   0  0  0  0  0  0  0  0  0  0  0  0
  -10.2196  -35.1830    2.9353 H   0  0  0  0  0  0  0  0  0  0  0  0
   -9.1728  -36.2184    3.9508 H   0  0  0  0  0  0  0  0  0  0  0  0
   -8.4977  -37.1252    1.5063 H   0  0  0  0  0  0  0  0  0  0  0  0
   -9.7315  -38.1262    0.6682 H   0  0  0  0  0  0  0  0  0  0  0  0
   -9.8766  -36.3358    0.6682 H   0  0  0  0  0  0  0  0  0  0  0  0
  -11.4079  -37.2084    2.1554 H   0  0  0  0  0  0  0  0  0  0  0  0
  -12.5418  -35.8545   13.2790 H   0  0  0  0  0  0  0  0  0  0  0  0
  1 11  1  0
  1 13  1  0
  2 11  1  0
  2 12  1  0
  2 16  2  0
  3  4  2  0
  3  5  1  0
  3 12  1  0
  4  8  1  0
  5  6  2  0
  6  7  1  0
  7  8  2  0
  7 17  1  0
  9 10  1  0
  9 11  1  0
 10 15  1  0
 13 15  1  0
 15 14  1  0
  1 18  1  0
  1 19  1  0
  4 20  1  0
  5 21  1  0
  6 22  1  0
  8 23  1  0
  9 24  1  0
  9 25  1  0
 10 26  1  0
 10 27  1  0
 12 28  1  0
 13 29  1  0
 13 30  1  0
 14 31  1  0
 14 32  1  0
 14 33  1  0
 15 34  1  6
 17 35  1  0
M  END
>  <filename_input>  (24) 
7NGW_UAW_docked.sdf

>  <pdb_id>  (24) 
7NGW_UAW

>  <pose_rank>  (24) 
23

>  <num_atoms_heavy>  (24) 
17

>  <num_torsions>  (24) 
1

>  <pose>  (24) 
[-11.235468911916547, -36.189262555270766, 4.52250027855471, 3.482625317417522, -1.7054478197840564, -0.9509813210551208, -0.10310269883327568]

>  <energy>  (24) 
-103.58885792971103

>  <inter_energy>  (24) 
-123.59273140652073

>  <intra_energy>  (24) 
19.555604379457854

>  <rmsd>  (24) 
10.9429

>  <sdf_rank>  (24) 
0

$$$$

     RDKit          3D

 35 36  0  0  0  0  0  0  0  0999 V2000
  -13.1995  -19.4743    5.3486 C   0  0  0  0  0  0  0  0  0  0  0  0
  -11.0220  -19.7129    6.3637 C   0  0  0  0  0  0  0  0  0  0  0  0
  -10.9944  -19.7441    8.8493 C   0  0  0  0  0  0  0  0  0  0  0  0
   -9.8806  -20.4830    9.2706 C   0  0  0  0  0  0  0  0  0  0  0  0
  -11.4386  -18.7271    9.6897 C   0  0  0  0  0  0  0  0  0  0  0  0
  -10.8794  -18.5296   10.9325 C   0  0  0  0  0  0  0  0  0  0  0  0
   -9.7642  -19.2458   11.3184 C   0  0  0  0  0  0  0  0  0  0  0  0
   -9.3193  -20.2427   10.4951 C   0  0  0  0  0  0  0  0  0  0  0  0
  -11.1409  -19.4222    3.9519 C   0  0  0  0  0  0  0  0  0  0  0  0
  -11.9022  -18.7176    2.8789 C   0  0  0  0  0  0  0  0  0  0  0  0
  -11.7385  -19.2902    5.2920 N   0  0  0  0  0  0  0  0  0  0  0  0
  -11.5600  -19.8258    7.6158 N   0  0  0  0  0  0  0  0  0  0  0  0
  -13.8811  -18.6431    4.3066 C   0  0  0  0  0  0  0  0  0  0  0  0
  -14.1520  -18.5335    1.7837 C   0  0  0  0  0  0  0  0  0  0  0  0
  -13.3702  -19.0601    2.9584 C   0  0  1  0  0  0  0  0  0  0  0  0
   -9.6987  -19.4904    6.3142 O   0  0  0  0  0  0  0  0  0  0  0  0
   -9.3230  -18.8846   12.5421 O   0  0  0  0  0  0  0  0  0  0  0  0
  -13.4363  -20.5346    5.1758 H   0  0  0  0  0  0  0  0  0  0  0  0
  -13.5564  -19.1589    6.3401 H   0  0  0  0  0  0  0  0  0  0  0  0
   -9.4567  -21.2582    8.6153 H   0  0  0  0  0  0  0  0  0  0  0  0
  -12.2529  -18.0679    9.3542 H   0  0  0  0  0  0  0  0  0  0  0  0
  -11.3240  -17.7968   11.6219 H   0  0  0  0  0  0  0  0  0  0  0  0
   -8.4816  -20.8729   10.8284 H   0  0  0  0  0  0  0  0  0  0  0  0
  -11.0930  -20.4913    3.6978 H   0  0  0  0  0  0  0  0  0  0  0  0
  -10.1464  -18.9544    3.9980 H   0  0  0  0  0  0  0  0  0  0  0  0
  -11.7771  -17.6315    3.0002 H   0  0  0  0  0  0  0  0  0  0  0  0
  -11.5153  -19.0377    1.9002 H   0  0  0  0  0  0  0  0  0  0  0  0
  -12.5743  -20.0045    7.6263 H   0  0  0  0  0  0  0  0  0  0  0  0
  -14.9684  -18.8021    4.3572 H   0  0  0  0  0  0  0  0  0  0  0  0
  -13.6709  -17.5769    4.4769 H   0  0  0  0  0  0  0  0  0  0  0  0
  -15.0132  -17.9534    2.1468 H   0  0  0  0  0  0  0  0  0  0  0  0
  -13.5051  -17.8864    1.1732 H   0  0  0  0  0  0  0  0  0  0  0  0
  -14.5086  -19.3762    1.1732 H   0  0  0  0  0  0  0  0  0  0  0  0
  -13.5141  -20.1475    2.8749 H   0  0  0  0  0  0  0  0  0  0  0  0
   -8.5275  -19.3266   12.9318 H   0  0  0  0  0  0  0  0  0  0  0  0
  1 11  1  0
  1 13  1  0
  2 11  1  0
  2 12  1  0
  2 16  2  0
  3  4  2  0
  3  5  1  0
  3 12  1  0
  4  8  1  0
  5  6  2  0
  6  7  1  0
  7  8  2  0
  7 17  1  0
  9 10  1  0
  9 11  1  0
 10 15  1  0
 13 15  1  0
 15 14  1  0
  1 18  1  0
  1 19  1  0
  4 20  1  0
  5 21  1  0
  6 22  1  0
  8 23  1  0
  9 24  1  0
  9 25  1  0
 10 26  1  0
 10 27  1  0
 12 28  1  0
 13 29  1  0
 13 30  1  0
 14 31  1  0
 14 32  1  0
 14 33  1  0
 15 34  1  1
 17 35  1  0
M  END
>  <filename_input>  (25) 
7NGW_UAW_docked.sdf

>  <pdb_id>  (25) 
7NGW_UAW

>  <pose_rank>  (25) 
24

>  <num_atoms_heavy>  (25) 
17

>  <num_torsions>  (25) 
1

>  <pose>  (25) 
[-13.199526160504439, -19.47434404270344, 5.348615908228076, -2.022965562689582, -0.6200598610651359, 2.004398889296054, -1.1845776759205608]

>  <energy>  (25) 
-111.26554675064888

>  <inter_energy>  (25) 
-111.84802349942926

>  <intra_energy>  (25) 
6.8015803996684046

>  <rmsd>  (25) 
12.4512

>  <sdf_rank>  (25) 
0

$$$$

     RDKit          3D

 35 36  0  0  0  0  0  0  0  0999 V2000
  -11.7360  -28.0340    4.1130 C   0  0  0  0  0  0  0  0  0  0  0  0
  -12.8010  -27.9770    1.9470 C   0  0  0  0  0  0  0  0  0  0  0  0
  -15.0390  -29.0520    1.8230 C   0  0  0  0  0  0  0  0  0  0  0  0
  -15.0710  -29.4610    0.4830 C   0  0  0  0  0  0  0  0  0  0  0  0
  -16.1290  -29.3930    2.6190 C   0  0  0  0  0  0  0  0  0  0  0  0
  -17.2410  -30.0060    2.0860 C   0  0  0  0  0  0  0  0  0  0  0  0
  -17.2430  -30.4290    0.7720 C   0  0  0  0  0  0  0  0  0  0  0  0
  -16.1730  -30.1020   -0.0140 C   0  0  0  0  0  0  0  0  0  0  0  0
  -10.5110  -27.1770    2.1240 C   0  0  0  0  0  0  0  0  0  0  0  0
   -9.2190  -27.4270    2.8280 C   0  0  0  0  0  0  0  0  0  0  0  0
  -11.6370  -27.9720    2.6440 N   0  0  0  0  0  0  0  0  0  0  0  0
  -13.9590  -28.5080    2.4440 N   0  0  0  0  0  0  0  0  0  0  0  0
  -10.4170  -28.3990    4.7200 C   0  0  0  0  0  0  0  0  0  0  0  0
   -8.1050  -27.4100    5.0760 C   0  0  0  0  0  0  0  0  0  0  0  0
   -9.4090  -27.3600    4.3240 C   0  0  1  0  0  0  0  0  0  0  0  0
  -12.6880  -27.9710    0.6090 O   0  0  0  0  0  0  0  0  0  0  0  0
  -18.3920  -31.0540    0.4380 O   0  0  0  0  0  0  0  0  0  0  0  0
  -12.0492  -27.0512    4.4951 H   0  0  0  0  0  0  0  0  0  0  0  0
  -12.4739  -28.8033    4.3844 H   0  0  0  0  0  0  0  0  0  0  0  0
  -14.2081  -29.2663   -0.1708 H   0  0  0  0  0  0  0  0  0  0  0  0
  -16.1015  -29.1683    3.6954 H   0  0  0  0  0  0  0  0  0  0  0  0
  -18.1330  -30.1595    2.7111 H   0  0  0  0  0  0  0  0  0  0  0  0
  -16.1990  -30.3631   -1.0822 H   0  0  0  0  0  0  0  0  0  0  0  0
  -10.7620  -26.1111    2.2286 H   0  0  0  0  0  0  0  0  0  0  0  0
  -10.3664  -27.4755    1.0752 H   0  0  0  0  0  0  0  0  0  0  0  0
   -8.8456  -28.4250    2.5551 H   0  0  0  0  0  0  0  0  0  0  0  0
   -8.4953  -26.6552    2.5269 H   0  0  0  0  0  0  0  0  0  0  0  0
  -14.0246  -28.4931    3.4718 H   0  0  0  0  0  0  0  0  0  0  0  0
  -10.5081  -28.4294    5.8158 H   0  0  0  0  0  0  0  0  0  0  0  0
  -10.0983  -29.3896    4.3635 H   0  0  0  0  0  0  0  0  0  0  0  0
   -8.3050  -27.4023    6.1576 H   0  0  0  0  0  0  0  0  0  0  0  0
   -7.5632  -28.3296    4.8098 H   0  0  0  0  0  0  0  0  0  0  0  0
   -7.4944  -26.5346    4.8098 H   0  0  0  0  0  0  0  0  0  0  0  0
   -9.8163  -26.3802    4.6140 H   0  0  0  0  0  0  0  0  0  0  0  0
  -18.5161  -31.4047   -0.4795 H   0  0  0  0  0  0  0  0  0  0  0  0
  1 11  1  0
  1 13  1  0
  2 11  1  0
  2 12  1  0
  2 16  2  0
  3  4  2  0
  3  5  1  0
  3 12  1  0
  4  8  1  0
  5  6  2  0
  6  7  1  0
  7  8  2  0
  7 17  1  0
  9 10  1  0
  9 11  1  0
 10 15  1  0
 13 15  1  0
 15 14  1  0
  1 18  1  0
  1 19  1  0
  4 20  1  0
  5 21  1  0
  6 22  1  0
  8 23  1  0
  9 24  1  0
  9 25  1  0
 10 26  1  0
 10 27  1  0
 12 28  1  0
 13 29  1  0
 13 30  1  0
 14 31  1  0
 14 32  1  0
 14 33  1  0
 15 34  1  6
 17 35  1  0
M  END
>  <filename_input>  (26) 
7NGW_UAW_docked.sdf

>  <pdb_id>  (26) 
7NGW_UAW

>  <pose_rank>  (26) 
25

>  <num_atoms_heavy>  (26) 
17

>  <num_torsions>  (26) 
1

>  <pose>  (26) 
[-11.736, -28.034, 4.113, 1e-06, 1e-06, 1e-06, 0.0]

>  <energy>  (26) 
-1044.8918421389724

>  <inter_energy>  (26) 
-1046.2927877894942

>  <intra_energy>  (26) 
18.56683893792656

>  <rmsd>  (26) 
0.0

>  <sdf_rank>  (26) 
0

$$$$
