
     RDKit          3D

 46 48  0  0  0  0  0  0  0  0999 V2000
   -9.4829   -7.5267   18.0396 O   0  0  0  0  0  0  0  0  0  0  0  0
   -2.9731  -14.1430   20.4165 O   0  0  0  0  0  0  0  0  0  0  0  0
  -10.2962   -8.3059   18.5282 C   0  0  0  0  0  0  0  0  0  0  0  0
  -10.1909   -9.7928   18.2623 C   0  0  0  0  0  0  0  0  0  0  0  0
   -9.2705  -10.5145   19.1948 C   0  0  0  0  0  0  0  0  0  0  0  0
   -7.8310  -10.0448   19.0421 C   0  0  0  0  0  0  0  0  0  0  0  0
   -6.7838  -10.9026   19.7394 C   0  0  0  0  0  0  0  0  0  0  0  0
   -5.3759  -10.3198   19.6889 C   0  0  2  0  0  0  0  0  0  0  0  0
   -4.5245  -10.5276   18.0819 S   0  0  0  0  0  0  0  0  0  0  0  0
   -3.0442   -9.9199   18.9228 C   0  0  0  0  0  0  0  0  0  0  0  0
   -2.9790  -10.6320   20.2720 C   0  0  2  0  0  0  0  0  0  0  0  0
   -2.3932  -11.9417   20.1349 N   0  0  0  0  0  0  0  0  0  0  0  0
   -3.2574  -12.9307   20.4176 C   0  0  0  0  0  0  0  0  0  0  0  0
   -4.4356  -12.3678   20.7767 N   0  0  0  0  0  0  0  0  0  0  0  0
   -4.4073  -10.9255   20.7410 C   0  0  2  0  0  0  0  0  0  0  0  0
  -11.2833   -7.8936   19.3410 N   0  0  0  0  0  0  0  0  0  0  0  0
  -11.4041   -6.5051   19.7657 C   0  0  1  0  0  0  0  0  0  0  0  0
  -10.1615   -5.9359   20.4213 C   0  0  0  0  0  0  0  0  0  0  0  0
  -10.3617   -4.4378   20.3207 C   0  0  0  0  0  0  0  0  0  0  0  0
  -11.4251   -4.2295   19.3338 N   0  0  0  0  0  0  0  0  0  0  0  0
  -11.6523   -5.5119   18.6506 C   0  0  0  0  0  0  0  0  0  0  0  0
  -11.1945  -10.2330   18.3575 H   0  0  0  0  0  0  0  0  0  0  0  0
   -9.7725   -9.9062   17.2514 H   0  0  0  0  0  0  0  0  0  0  0  0
   -9.5968  -10.3324   20.2294 H   0  0  0  0  0  0  0  0  0  0  0  0
   -9.3085  -11.5866   18.9518 H   0  0  0  0  0  0  0  0  0  0  0  0
   -7.5930  -10.0256   17.9683 H   0  0  0  0  0  0  0  0  0  0  0  0
   -7.7827   -9.0576   19.5248 H   0  0  0  0  0  0  0  0  0  0  0  0
   -7.0746  -11.0152   20.7943 H   0  0  0  0  0  0  0  0  0  0  0  0
   -6.7512  -11.8640   19.2059 H   0  0  0  0  0  0  0  0  0  0  0  0
   -5.5743   -9.2567   19.8898 H   0  0  0  0  0  0  0  0  0  0  0  0
   -2.1486  -10.1527   18.3282 H   0  0  0  0  0  0  0  0  0  0  0  0
   -3.0852   -8.8286   19.0543 H   0  0  0  0  0  0  0  0  0  0  0  0
   -2.4025   -9.9894   20.9537 H   0  0  0  0  0  0  0  0  0  0  0  0
   -1.4163  -12.1023   19.8506 H   0  0  0  0  0  0  0  0  0  0  0  0
   -5.2665  -12.9130   21.0474 H   0  0  0  0  0  0  0  0  0  0  0  0
   -4.7004  -10.5019   21.7130 H   0  0  0  0  0  0  0  0  0  0  0  0
  -11.9756   -8.5798   19.6739 H   0  0  0  0  0  0  0  0  0  0  0  0
  -12.2574   -6.5959   20.4538 H   0  0  0  0  0  0  0  0  0  0  0  0
  -10.0911   -6.2533   21.4721 H   0  0  0  0  0  0  0  0  0  0  0  0
   -9.2312   -6.2764   19.9431 H   0  0  0  0  0  0  0  0  0  0  0  0
  -10.6619   -4.0275   21.2961 H   0  0  0  0  0  0  0  0  0  0  0  0
   -9.4332   -3.9300   20.0207 H   0  0  0  0  0  0  0  0  0  0  0  0
  -12.2883   -3.9249   19.8060 H   0  0  0  0  0  0  0  0  0  0  0  0
  -11.1544   -3.5013   18.6574 H   0  0  0  0  0  0  0  0  0  0  0  0
  -10.9436   -5.6552   17.8216 H   0  0  0  0  0  0  0  0  0  0  0  0
  -12.6466   -5.6004   18.1885 H   0  0  0  0  0  0  0  0  0  0  0  0
  1  3  2  0
  2 13  2  0
  3  4  1  0
  3 16  1  0
  4  5  1  0
  5  6  1  0
  6  7  1  0
  8  7  1  0
  8  9  1  0
  8 15  1  0
  9 10  1  0
 11 10  1  0
 11 12  1  0
 11 15  1  0
 12 13  1  0
 13 14  1  0
 15 14  1  0
 17 16  1  0
 17 18  1  0
 17 21  1  0
 18 19  1  0
 19 20  1  0
 20 21  1  0
  4 22  1  0
  4 23  1  0
  5 24  1  0
  5 25  1  0
  6 26  1  0
  6 27  1  0
  7 28  1  0
  7 29  1  0
  8 30  1  1
 10 31  1  0
 10 32  1  0
 11 33  1  1
 12 34  1  0
 14 35  1  0
 15 36  1  1
 16 37  1  0
 17 38  1  1
 18 39  1  0
 18 40  1  0
 19 41  1  0
 19 42  1  0
 20 43  1  0
 20 44  1  0
 21 45  1  0
 21 46  1  0
M  CHG  1  20   1
M  END
>  <filename_input>  (1) 
7NLV_UJE_docked.sdf

>  <pdb_id>  (1) 
7NLV_UJE

>  <pose_rank>  (1) 
0

>  <num_atoms_heavy>  (1) 
21

>  <num_torsions>  (1) 
6

>  <pose>  (1) 
[-7.831006728200083, -10.04478400144088, 19.042064113383724, 4.332901299066495, 0.28219032876753486, 4.421034386138982, 0.23752869758028808, 0.11090780955083655, -4.200137669234154, 3.508112696120647, 0.17023998556028552, -0.020729938144531116]

>  <energy>  (1) 
-1407.5076096341643

>  <inter_energy>  (1) 
-1388.796222964211

>  <intra_energy>  (1) 
28.36508838571237

>  <rmsd>  (1) 
0.94721

>  <sdf_rank>  (1) 
0

$$$$

     RDKit          3D

 46 48  0  0  0  0  0  0  0  0999 V2000
  -10.7964   -7.7296   20.7070 O   0  0  0  0  0  0  0  0  0  0  0  0
   -3.0548  -13.9074   20.4302 O   0  0  0  0  0  0  0  0  0  0  0  0
  -10.5369   -7.8813   19.5166 C   0  0  0  0  0  0  0  0  0  0  0  0
  -10.3635   -9.2702   18.9392 C   0  0  0  0  0  0  0  0  0  0  0  0
   -9.3718  -10.1155   19.6737 C   0  0  0  0  0  0  0  0  0  0  0  0
   -7.9396   -9.7261   19.3367 C   0  0  0  0  0  0  0  0  0  0  0  0
   -6.8605  -10.6315   19.9150 C   0  0  0  0  0  0  0  0  0  0  0  0
   -5.4507  -10.0629   19.7984 C   0  0  2  0  0  0  0  0  0  0  0  0
   -4.6753  -10.2843   18.1552 S   0  0  0  0  0  0  0  0  0  0  0  0
   -3.1524   -9.6887   18.9258 C   0  0  0  0  0  0  0  0  0  0  0  0
   -3.0330  -10.3971   20.2732 C   0  0  2  0  0  0  0  0  0  0  0  0
   -2.4668  -11.7129   20.1145 N   0  0  0  0  0  0  0  0  0  0  0  0
   -3.3269  -12.6924   20.4397 C   0  0  0  0  0  0  0  0  0  0  0  0
   -4.4820  -12.1166   20.8499 N   0  0  0  0  0  0  0  0  0  0  0  0
   -4.4412  -10.6748   20.8077 C   0  0  2  0  0  0  0  0  0  0  0  0
  -10.4319   -6.8441   18.6692 N   0  0  0  0  0  0  0  0  0  0  0  0
  -10.7028   -5.4750   19.0877 C   0  0  1  0  0  0  0  0  0  0  0  0
  -12.1631   -5.0735   19.0240 C   0  0  0  0  0  0  0  0  0  0  0  0
  -12.2363   -3.8573   19.9240 C   0  0  0  0  0  0  0  0  0  0  0  0
  -11.0043   -3.8572   20.7179 N   0  0  0  0  0  0  0  0  0  0  0  0
  -10.3552   -5.1631   20.5277 C   0  0  0  0  0  0  0  0  0  0  0  0
  -11.3381   -9.7795   18.9648 H   0  0  0  0  0  0  0  0  0  0  0  0
   -9.9780   -9.1436   17.9167 H   0  0  0  0  0  0  0  0  0  0  0  0
   -9.5296   -9.9915   20.7552 H   0  0  0  0  0  0  0  0  0  0  0  0
   -9.5225  -11.1620   19.3702 H   0  0  0  0  0  0  0  0  0  0  0  0
   -7.8357   -9.7318   18.2416 H   0  0  0  0  0  0  0  0  0  0  0  0
   -7.7804   -8.7376   19.7922 H   0  0  0  0  0  0  0  0  0  0  0  0
   -7.0806  -10.7965   20.9800 H   0  0  0  0  0  0  0  0  0  0  0  0
   -6.8785  -11.5636   19.3312 H   0  0  0  0  0  0  0  0  0  0  0  0
   -5.6293   -8.9972   20.0042 H   0  0  0  0  0  0  0  0  0  0  0  0
   -2.2870   -9.9323   18.2919 H   0  0  0  0  0  0  0  0  0  0  0  0
   -3.1767   -8.5966   19.0550 H   0  0  0  0  0  0  0  0  0  0  0  0
   -2.4198   -9.7580   20.9256 H   0  0  0  0  0  0  0  0  0  0  0  0
   -1.5055  -11.8841   19.7867 H   0  0  0  0  0  0  0  0  0  0  0  0
   -5.3050  -12.6526   21.1601 H   0  0  0  0  0  0  0  0  0  0  0  0
   -4.6857  -10.2452   21.7904 H   0  0  0  0  0  0  0  0  0  0  0  0
  -10.1513   -7.0221   17.6943 H   0  0  0  0  0  0  0  0  0  0  0  0
  -10.0699   -4.9335   18.3692 H   0  0  0  0  0  0  0  0  0  0  0  0
  -12.4561   -4.8189   17.9947 H   0  0  0  0  0  0  0  0  0  0  0  0
  -12.8427   -5.8796   19.3377 H   0  0  0  0  0  0  0  0  0  0  0  0
  -12.3002   -2.9401   19.3201 H   0  0  0  0  0  0  0  0  0  0  0  0
  -13.1270   -3.8905   20.5687 H   0  0  0  0  0  0  0  0  0  0  0  0
  -10.3794   -3.1039   20.3971 H   0  0  0  0  0  0  0  0  0  0  0  0
  -11.2146   -3.6984   21.7136 H   0  0  0  0  0  0  0  0  0  0  0  0
  -10.7679   -5.9190   21.2120 H   0  0  0  0  0  0  0  0  0  0  0  0
   -9.2748   -5.1577   20.7340 H   0  0  0  0  0  0  0  0  0  0  0  0
  1  3  2  0
  2 13  2  0
  3  4  1  0
  3 16  1  0
  4  5  1  0
  5  6  1  0
  6  7  1  0
  8  7  1  0
  8  9  1  0
  8 15  1  0
  9 10  1  0
 11 10  1  0
 11 12  1  0
 11 15  1  0
 12 13  1  0
 13 14  1  0
 15 14  1  0
 17 16  1  0
 17 18  1  0
 17 21  1  0
 18 19  1  0
 19 20  1  0
 20 21  1  0
  4 22  1  0
  4 23  1  0
  5 24  1  0
  5 25  1  0
  6 26  1  0
  6 27  1  0
  7 28  1  0
  7 29  1  0
  8 30  1  1
 10 31  1  0
 10 32  1  0
 11 33  1  1
 12 34  1  0
 14 35  1  0
 15 36  1  1
 16 37  1  0
 17 38  1  6
 18 39  1  0
 18 40  1  0
 19 41  1  0
 19 42  1  0
 20 43  1  0
 20 44  1  0
 21 45  1  0
 21 46  1  0
M  CHG  1  20   1
M  END
>  <filename_input>  (2) 
7NLV_UJE_docked.sdf

>  <pdb_id>  (2) 
7NLV_UJE

>  <pose_rank>  (2) 
1

>  <num_atoms_heavy>  (2) 
21

>  <num_torsions>  (2) 
6

>  <pose>  (2) 
[-7.939645303130278, -9.726114955614579, 19.33666087126882, 2.6374752060648508, -4.050785213317048, 3.7224003647109383, 0.14805331875338937, 6.171985426182936, -6.621623137558025, -9.590501707599122, 6.549266145708386, -12.647699401266854]

>  <energy>  (2) 
-1298.4610190992164

>  <inter_energy>  (2) 
-1317.2455501032468

>  <intra_energy>  (2) 
30.268122571942406

>  <rmsd>  (2) 
0.936297

>  <sdf_rank>  (2) 
0

$$$$

     RDKit          3D

 46 48  0  0  0  0  0  0  0  0999 V2000
  -10.7360   -6.7303   18.8726 O   0  0  0  0  0  0  0  0  0  0  0  0
   -2.9494  -14.1268   20.4193 O   0  0  0  0  0  0  0  0  0  0  0  0
  -10.2719   -7.8329   19.1485 C   0  0  0  0  0  0  0  0  0  0  0  0
   -9.1437   -7.9628   20.1498 C   0  0  0  0  0  0  0  0  0  0  0  0
   -8.6775   -9.3680   20.3631 C   0  0  0  0  0  0  0  0  0  0  0  0
   -7.7767   -9.8412   19.2314 C   0  0  0  0  0  0  0  0  0  0  0  0
   -6.7083  -10.8531   19.6230 C   0  0  0  0  0  0  0  0  0  0  0  0
   -5.2985  -10.2745   19.6707 C   0  0  2  0  0  0  0  0  0  0  0  0
   -4.3570  -10.4373   18.1095 S   0  0  0  0  0  0  0  0  0  0  0  0
   -2.9260   -9.8607   19.0516 C   0  0  0  0  0  0  0  0  0  0  0  0
   -2.9397  -10.6131   20.3803 C   0  0  2  0  0  0  0  0  0  0  0  0
   -2.3497  -11.9203   20.2376 N   0  0  0  0  0  0  0  0  0  0  0  0
   -3.2308  -12.9141   20.4405 C   0  0  0  0  0  0  0  0  0  0  0  0
   -4.4265  -12.3576   20.7484 N   0  0  0  0  0  0  0  0  0  0  0  0
   -4.3931  -10.9150   20.7578 C   0  0  2  0  0  0  0  0  0  0  0  0
  -10.7562   -8.9669   18.6152 N   0  0  0  0  0  0  0  0  0  0  0  0
  -11.9202   -8.9722   17.7389 C   0  0  1  0  0  0  0  0  0  0  0  0
  -11.6250   -8.6113   16.2965 C   0  0  0  0  0  0  0  0  0  0  0  0
  -12.8276   -9.1432   15.5445 C   0  0  0  0  0  0  0  0  0  0  0  0
  -13.5088  -10.0663   16.4565 N   0  0  0  0  0  0  0  0  0  0  0  0
  -12.6069  -10.3132   17.5916 C   0  0  0  0  0  0  0  0  0  0  0  0
   -8.2919   -7.3667   19.7902 H   0  0  0  0  0  0  0  0  0  0  0  0
   -9.5327   -7.6068   21.1152 H   0  0  0  0  0  0  0  0  0  0  0  0
   -8.1177   -9.4180   21.3087 H   0  0  0  0  0  0  0  0  0  0  0  0
   -9.5619  -10.0214   20.3929 H   0  0  0  0  0  0  0  0  0  0  0  0
   -8.4133  -10.3015   18.4614 H   0  0  0  0  0  0  0  0  0  0  0  0
   -7.2347   -8.9493   18.8838 H   0  0  0  0  0  0  0  0  0  0  0  0
   -6.9543  -11.2487   20.6195 H   0  0  0  0  0  0  0  0  0  0  0  0
   -6.7075  -11.6335   18.8478 H   0  0  0  0  0  0  0  0  0  0  0  0
   -5.5059   -9.2171   19.8918 H   0  0  0  0  0  0  0  0  0  0  0  0
   -1.9982  -10.0790   18.5024 H   0  0  0  0  0  0  0  0  0  0  0  0
   -2.9721   -8.7737   19.2133 H   0  0  0  0  0  0  0  0  0  0  0  0
   -2.4019   -9.9933   21.1128 H   0  0  0  0  0  0  0  0  0  0  0  0
   -1.3585  -12.0761   20.0050 H   0  0  0  0  0  0  0  0  0  0  0  0
   -5.2726  -12.9075   20.9547 H   0  0  0  0  0  0  0  0  0  0  0  0
   -4.7405  -10.5196   21.7237 H   0  0  0  0  0  0  0  0  0  0  0  0
  -10.2905   -9.8596   18.8324 H   0  0  0  0  0  0  0  0  0  0  0  0
  -12.5439   -8.2280   18.2557 H   0  0  0  0  0  0  0  0  0  0  0  0
  -11.5356   -7.5218   16.1744 H   0  0  0  0  0  0  0  0  0  0  0  0
  -10.6746   -9.0317   15.9360 H   0  0  0  0  0  0  0  0  0  0  0  0
  -13.4990   -8.3173   15.2670 H   0  0  0  0  0  0  0  0  0  0  0  0
  -12.5260   -9.6494   14.6156 H   0  0  0  0  0  0  0  0  0  0  0  0
  -14.3876   -9.6457   16.7907 H   0  0  0  0  0  0  0  0  0  0  0  0
  -13.7368  -10.9484   15.9761 H   0  0  0  0  0  0  0  0  0  0  0  0
  -11.8841  -11.1102   17.3628 H   0  0  0  0  0  0  0  0  0  0  0  0
  -13.1205  -10.6530   18.5030 H   0  0  0  0  0  0  0  0  0  0  0  0
  1  3  2  0
  2 13  2  0
  3  4  1  0
  3 16  1  0
  4  5  1  0
  5  6  1  0
  6  7  1  0
  8  7  1  0
  8  9  1  0
  8 15  1  0
  9 10  1  0
 11 10  1  0
 11 12  1  0
 11 15  1  0
 12 13  1  0
 13 14  1  0
 15 14  1  0
 17 16  1  0
 17 18  1  0
 17 21  1  0
 18 19  1  0
 19 20  1  0
 20 21  1  0
  4 22  1  0
  4 23  1  0
  5 24  1  0
  5 25  1  0
  6 26  1  0
  6 27  1  0
  7 28  1  0
  7 29  1  0
  8 30  1  1
 10 31  1  0
 10 32  1  0
 11 33  1  1
 12 34  1  0
 14 35  1  0
 15 36  1  1
 16 37  1  0
 17 38  1  1
 18 39  1  0
 18 40  1  0
 19 41  1  0
 19 42  1  0
 20 43  1  0
 20 44  1  0
 21 45  1  0
 21 46  1  0
M  CHG  1  20   1
M  END
>  <filename_input>  (3) 
7NLV_UJE_docked.sdf

>  <pdb_id>  (3) 
7NLV_UJE

>  <pose_rank>  (3) 
2

>  <num_atoms_heavy>  (3) 
21

>  <num_torsions>  (3) 
6

>  <pose>  (3) 
[-7.776664955437958, -9.841235696800917, 19.231400164770097, -0.6460235163303684, 0.7560531529831753, -0.45657110955232194, -0.5042623191086825, 2.5928734898754806, -8.822747360872345, 5.885527455360135, 7.631540964470151, -6.569003497348144]

>  <energy>  (3) 
-1123.3761316240737

>  <inter_energy>  (3) 
-1100.2953836665488

>  <intra_energy>  (3) 
11.064042751791753

>  <rmsd>  (3) 
3.04217

>  <sdf_rank>  (3) 
0

$$$$

     RDKit          3D

 46 48  0  0  0  0  0  0  0  0999 V2000
   -8.7949   -5.8438   18.9065 O   0  0  0  0  0  0  0  0  0  0  0  0
   -3.5938  -14.2425   20.4631 O   0  0  0  0  0  0  0  0  0  0  0  0
   -9.1614   -6.5643   19.8306 C   0  0  0  0  0  0  0  0  0  0  0  0
   -8.3839   -7.8142   20.1849 C   0  0  0  0  0  0  0  0  0  0  0  0
   -9.1106   -9.0878   19.8891 C   0  0  0  0  0  0  0  0  0  0  0  0
   -8.3028   -9.9991   18.9763 C   0  0  0  0  0  0  0  0  0  0  0  0
   -7.2463  -10.8504   19.6678 C   0  0  0  0  0  0  0  0  0  0  0  0
   -5.8167  -10.3853   19.4144 C   0  0  2  0  0  0  0  0  0  0  0  0
   -5.1373  -10.8698   17.7853 S   0  0  0  0  0  0  0  0  0  0  0  0
   -3.5489  -10.2654   18.4013 C   0  0  0  0  0  0  0  0  0  0  0  0
   -3.3987  -10.7922   19.8266 C   0  0  2  0  0  0  0  0  0  0  0  0
   -2.9099  -12.1481   19.8253 N   0  0  0  0  0  0  0  0  0  0  0  0
   -3.8020  -13.0235   20.3180 C   0  0  0  0  0  0  0  0  0  0  0  0
   -4.9038  -12.3319   20.6945 N   0  0  0  0  0  0  0  0  0  0  0  0
   -4.7908  -10.9136   20.4538 C   0  0  2  0  0  0  0  0  0  0  0  0
  -10.2309   -6.2685   20.5878 N   0  0  0  0  0  0  0  0  0  0  0  0
  -10.9777   -5.0290   20.4181 C   0  0  1  0  0  0  0  0  0  0  0  0
  -11.8426   -4.9792   19.1742 C   0  0  0  0  0  0  0  0  0  0  0  0
  -12.8302   -3.8701   19.4728 C   0  0  0  0  0  0  0  0  0  0  0  0
  -12.7535   -3.6275   20.9161 N   0  0  0  0  0  0  0  0  0  0  0  0
  -11.9828   -4.7304   21.5100 C   0  0  0  0  0  0  0  0  0  0  0  0
   -7.4446   -7.8111   19.6124 H   0  0  0  0  0  0  0  0  0  0  0  0
   -8.2178   -7.7880   21.2719 H   0  0  0  0  0  0  0  0  0  0  0  0
   -9.3068   -9.6140   20.8349 H   0  0  0  0  0  0  0  0  0  0  0  0
  -10.0500   -8.8347   19.3759 H   0  0  0  0  0  0  0  0  0  0  0  0
   -9.0040  -10.6767   18.4673 H   0  0  0  0  0  0  0  0  0  0  0  0
   -7.7546   -9.3334   18.2935 H   0  0  0  0  0  0  0  0  0  0  0  0
   -7.4331  -10.8218   20.7515 H   0  0  0  0  0  0  0  0  0  0  0  0
   -7.3309  -11.8652   19.2518 H   0  0  0  0  0  0  0  0  0  0  0  0
   -5.9295   -9.2930   19.4800 H   0  0  0  0  0  0  0  0  0  0  0  0
   -2.7302  -10.6416   17.7703 H   0  0  0  0  0  0  0  0  0  0  0  0
   -3.5102   -9.1663   18.3809 H   0  0  0  0  0  0  0  0  0  0  0  0
   -2.7213  -10.1080   20.3587 H   0  0  0  0  0  0  0  0  0  0  0  0
   -1.9764  -12.4172   19.4832 H   0  0  0  0  0  0  0  0  0  0  0  0
   -5.7367  -12.7728   21.1100 H   0  0  0  0  0  0  0  0  0  0  0  0
   -4.9630  -10.3426   21.3780 H   0  0  0  0  0  0  0  0  0  0  0  0
  -10.5321   -6.9381   21.3102 H   0  0  0  0  0  0  0  0  0  0  0  0
  -10.1437   -4.3120   20.3984 H   0  0  0  0  0  0  0  0  0  0  0  0
  -11.2397   -4.7398   18.2858 H   0  0  0  0  0  0  0  0  0  0  0  0
  -12.3313   -5.9397   18.9540 H   0  0  0  0  0  0  0  0  0  0  0  0
  -12.5590   -2.9594   18.9187 H   0  0  0  0  0  0  0  0  0  0  0  0
  -13.8494   -4.1503   19.1684 H   0  0  0  0  0  0  0  0  0  0  0  0
  -12.2806   -2.7306   21.0973 H   0  0  0  0  0  0  0  0  0  0  0  0
  -13.6971   -3.5823   21.3268 H   0  0  0  0  0  0  0  0  0  0  0  0
  -12.6227   -5.6015   21.7145 H   0  0  0  0  0  0  0  0  0  0  0  0
  -11.5266   -4.4833   22.4799 H   0  0  0  0  0  0  0  0  0  0  0  0
  1  3  2  0
  2 13  2  0
  3  4  1  0
  3 16  1  0
  4  5  1  0
  5  6  1  0
  6  7  1  0
  8  7  1  0
  8  9  1  0
  8 15  1  0
  9 10  1  0
 11 10  1  0
 11 12  1  0
 11 15  1  0
 12 13  1  0
 13 14  1  0
 15 14  1  0
 17 16  1  0
 17 18  1  0
 17 21  1  0
 18 19  1  0
 19 20  1  0
 20 21  1  0
  4 22  1  0
  4 23  1  0
  5 24  1  0
  5 25  1  0
  6 26  1  0
  6 27  1  0
  7 28  1  0
  7 29  1  0
  8 30  1  6
 10 31  1  0
 10 32  1  0
 11 33  1  1
 12 34  1  0
 14 35  1  0
 15 36  1  1
 16 37  1  0
 17 38  1  6
 18 39  1  0
 18 40  1  0
 19 41  1  0
 19 42  1  0
 20 43  1  0
 20 44  1  0
 21 45  1  0
 21 46  1  0
M  CHG  1  20   1
M  END
>  <filename_input>  (4) 
7NLV_UJE_docked.sdf

>  <pdb_id>  (4) 
7NLV_UJE

>  <pose_rank>  (4) 
3

>  <num_atoms_heavy>  (4) 
21

>  <num_torsions>  (4) 
6

>  <pose>  (4) 
[-8.30276703843823, -9.999133010080635, 18.9763461497568, -1.0050216504400744, 0.7457150717626617, -0.6356853612343067, -1.6696786326375437, 3.395830572230588, -7.642082191887584, 5.742280514222026, 7.620562720238064, -6.328010680472873]

>  <energy>  (4) 
-1029.6437536876545

>  <inter_energy>  (4) 
-1017.7241459065735

>  <intra_energy>  (4) 
5.532854071543799

>  <rmsd>  (4) 
1.60757

>  <sdf_rank>  (4) 
0

$$$$

     RDKit          3D

 46 48  0  0  0  0  0  0  0  0999 V2000
  -11.0861  -12.5840   19.0038 O   0  0  0  0  0  0  0  0  0  0  0  0
   -3.2328  -14.0892   20.5048 O   0  0  0  0  0  0  0  0  0  0  0  0
  -10.0337  -12.0447   19.3341 C   0  0  0  0  0  0  0  0  0  0  0  0
   -9.8172  -10.5668   19.0862 C   0  0  0  0  0  0  0  0  0  0  0  0
   -9.1384   -9.8535   20.2122 C   0  0  0  0  0  0  0  0  0  0  0  0
   -7.7231   -9.4338   19.8423 C   0  0  0  0  0  0  0  0  0  0  0  0
   -6.7418  -10.5739   19.6051 C   0  0  0  0  0  0  0  0  0  0  0  0
   -5.2876  -10.1262   19.5091 C   0  0  2  0  0  0  0  0  0  0  0  0
   -4.4730  -10.5248   17.9192 S   0  0  0  0  0  0  0  0  0  0  0  0
   -2.9364   -9.9950   18.7104 C   0  0  0  0  0  0  0  0  0  0  0  0
   -2.9235  -10.6116   20.1073 C   0  0  2  0  0  0  0  0  0  0  0  0
   -2.4594  -11.9754   20.0636 N   0  0  0  0  0  0  0  0  0  0  0  0
   -3.4067  -12.8593   20.4190 C   0  0  0  0  0  0  0  0  0  0  0  0
   -4.5261  -12.1676   20.7395 N   0  0  0  0  0  0  0  0  0  0  0  0
   -4.3681  -10.7402   20.5998 C   0  0  2  0  0  0  0  0  0  0  0  0
   -9.0500  -12.7158   19.9560 N   0  0  0  0  0  0  0  0  0  0  0  0
   -9.1996  -14.1086   20.3569 C   0  0  1  0  0  0  0  0  0  0  0  0
  -10.0700  -14.3228   21.5793 C   0  0  0  0  0  0  0  0  0  0  0  0
  -10.4482  -15.7871   21.4934 C   0  0  0  0  0  0  0  0  0  0  0  0
  -10.1394  -16.2130   20.1254 N   0  0  0  0  0  0  0  0  0  0  0  0
   -9.8696  -15.0023   19.3352 C   0  0  0  0  0  0  0  0  0  0  0  0
   -9.1992  -10.4545   18.1831 H   0  0  0  0  0  0  0  0  0  0  0  0
  -10.8135  -10.1134   18.9771 H   0  0  0  0  0  0  0  0  0  0  0  0
   -9.7207   -8.9560   20.4680 H   0  0  0  0  0  0  0  0  0  0  0  0
   -9.0787  -10.5425   21.0676 H   0  0  0  0  0  0  0  0  0  0  0  0
   -7.7769   -8.8359   18.9206 H   0  0  0  0  0  0  0  0  0  0  0  0
   -7.3365   -8.8784   20.7095 H   0  0  0  0  0  0  0  0  0  0  0  0
   -6.8307  -11.2866   20.4382 H   0  0  0  0  0  0  0  0  0  0  0  0
   -7.0025  -11.0236   18.6357 H   0  0  0  0  0  0  0  0  0  0  0  0
   -5.3875   -9.0378   19.6333 H   0  0  0  0  0  0  0  0  0  0  0  0
   -2.0708  -10.3499   18.1319 H   0  0  0  0  0  0  0  0  0  0  0  0
   -2.8776   -8.8978   18.7629 H   0  0  0  0  0  0  0  0  0  0  0  0
   -2.2853   -9.9767   20.7394 H   0  0  0  0  0  0  0  0  0  0  0  0
   -1.5036  -12.2438   19.7892 H   0  0  0  0  0  0  0  0  0  0  0  0
   -5.4002  -12.6146   21.0509 H   0  0  0  0  0  0  0  0  0  0  0  0
   -4.6131  -10.2232   21.5394 H   0  0  0  0  0  0  0  0  0  0  0  0
   -8.1633  -12.2312   20.1554 H   0  0  0  0  0  0  0  0  0  0  0  0
   -8.1435  -14.3675   20.5228 H   0  0  0  0  0  0  0  0  0  0  0  0
   -9.5090  -14.1153   22.5024 H   0  0  0  0  0  0  0  0  0  0  0  0
  -10.9444  -13.6558   21.6043 H   0  0  0  0  0  0  0  0  0  0  0  0
   -9.8630  -16.3745   22.2162 H   0  0  0  0  0  0  0  0  0  0  0  0
  -11.5119  -15.9395   21.7287 H   0  0  0  0  0  0  0  0  0  0  0  0
   -9.3105  -16.8244   20.1262 H   0  0  0  0  0  0  0  0  0  0  0  0
  -10.9275  -16.7403   19.7233 H   0  0  0  0  0  0  0  0  0  0  0  0
  -10.8010  -14.5533   18.9598 H   0  0  0  0  0  0  0  0  0  0  0  0
   -9.2629  -15.1835   18.4358 H   0  0  0  0  0  0  0  0  0  0  0  0
  1  3  2  0
  2 13  2  0
  3  4  1  0
  3 16  1  0
  4  5  1  0
  5  6  1  0
  6  7  1  0
  8  7  1  0
  8  9  1  0
  8 15  1  0
  9 10  1  0
 11 10  1  0
 11 12  1  0
 11 15  1  0
 12 13  1  0
 13 14  1  0
 15 14  1  0
 17 16  1  0
 17 18  1  0
 17 21  1  0
 18 19  1  0
 19 20  1  0
 20 21  1  0
  4 22  1  0
  4 23  1  0
  5 24  1  0
  5 25  1  0
  6 26  1  0
  6 27  1  0
  7 28  1  0
  7 29  1  0
  8 30  1  1
 10 31  1  0
 10 32  1  0
 11 33  1  1
 12 34  1  0
 14 35  1  0
 15 36  1  1
 16 37  1  0
 17 38  1  1
 18 39  1  0
 18 40  1  0
 19 41  1  0
 19 42  1  0
 20 43  1  0
 20 44  1  0
 21 45  1  0
 21 46  1  0
M  CHG  1  20   1
M  END
>  <filename_input>  (5) 
7NLV_UJE_docked.sdf

>  <pdb_id>  (5) 
7NLV_UJE

>  <pose_rank>  (5) 
4

>  <num_atoms_heavy>  (5) 
21

>  <num_torsions>  (5) 
6

>  <pose>  (5) 
[-7.723059394738855, -9.433843279776362, 19.842267324649384, 0.5009783593414734, 0.3412817706844204, -0.18840302629147274, -16.825944188049405, -3.1324665045548956, 3.015039432009503, 3.1501034696714343, -31.154868560402875, -19.621270357614268]

>  <energy>  (5) 
-967.8351240909273

>  <inter_energy>  (5) 
-1007.3330400269318

>  <intra_energy>  (5) 
36.37748548865622

>  <rmsd>  (5) 
5.58036

>  <sdf_rank>  (5) 
0

$$$$

     RDKit          3D

 46 48  0  0  0  0  0  0  0  0999 V2000
  -10.0103  -15.2141   19.6469 O   0  0  0  0  0  0  0  0  0  0  0  0
   -3.3869  -13.9665   20.5851 O   0  0  0  0  0  0  0  0  0  0  0  0
   -9.7804  -14.7253   20.7494 C   0  0  0  0  0  0  0  0  0  0  0  0
   -9.1279  -13.3640   20.8652 C   0  0  0  0  0  0  0  0  0  0  0  0
   -8.2127  -13.0289   19.7305 C   0  0  0  0  0  0  0  0  0  0  0  0
   -8.0923  -11.5254   19.5281 C   0  0  0  0  0  0  0  0  0  0  0  0
   -7.3026  -10.7810   20.5964 C   0  0  0  0  0  0  0  0  0  0  0  0
   -5.9717  -10.2240   20.1037 C   0  0  2  0  0  0  0  0  0  0  0  0
   -5.5791  -10.6233   18.3610 S   0  0  0  0  0  0  0  0  0  0  0  0
   -3.9396   -9.9407   18.6987 C   0  0  0  0  0  0  0  0  0  0  0  0
   -3.5006  -10.4951   20.0521 C   0  0  2  0  0  0  0  0  0  0  0  0
   -2.9474  -11.8185   19.9113 N   0  0  0  0  0  0  0  0  0  0  0  0
   -3.6844  -12.7589   20.5257 C   0  0  0  0  0  0  0  0  0  0  0  0
   -4.7338  -12.1452   21.1225 N   0  0  0  0  0  0  0  0  0  0  0  0
   -4.7445  -10.7168   20.9179 C   0  0  2  0  0  0  0  0  0  0  0  0
  -10.1234  -15.3435   21.8918 N   0  0  0  0  0  0  0  0  0  0  0  0
  -10.8675  -16.5961   21.8983 C   0  0  1  0  0  0  0  0  0  0  0  0
  -10.2269  -17.7142   21.1000 C   0  0  0  0  0  0  0  0  0  0  0  0
  -10.8903  -18.9631   21.6429 C   0  0  0  0  0  0  0  0  0  0  0  0
  -11.5304  -18.5752   22.9030 N   0  0  0  0  0  0  0  0  0  0  0  0
  -11.0322  -17.2381   23.2593 C   0  0  0  0  0  0  0  0  0  0  0  0
   -9.9208  -12.6028   20.9063 H   0  0  0  0  0  0  0  0  0  0  0  0
   -8.5113  -13.3834   21.7760 H   0  0  0  0  0  0  0  0  0  0  0  0
   -7.2152  -13.4407   19.9437 H   0  0  0  0  0  0  0  0  0  0  0  0
   -8.6319  -13.4656   18.8120 H   0  0  0  0  0  0  0  0  0  0  0  0
   -7.5994  -11.3521   18.5601 H   0  0  0  0  0  0  0  0  0  0  0  0
   -9.1177  -11.1306   19.5807 H   0  0  0  0  0  0  0  0  0  0  0  0
   -7.9158   -9.9431   20.9598 H   0  0  0  0  0  0  0  0  0  0  0  0
   -7.0712  -11.5088   21.3881 H   0  0  0  0  0  0  0  0  0  0  0  0
   -6.1298   -9.1427   20.2292 H   0  0  0  0  0  0  0  0  0  0  0  0
   -3.2321  -10.2500   17.9154 H   0  0  0  0  0  0  0  0  0  0  0  0
   -3.9653   -8.8411   18.7123 H   0  0  0  0  0  0  0  0  0  0  0  0
   -2.7751   -9.7856   20.4766 H   0  0  0  0  0  0  0  0  0  0  0  0
   -2.0798  -12.0216   19.3948 H   0  0  0  0  0  0  0  0  0  0  0  0
   -5.4506  -12.6464   21.6664 H   0  0  0  0  0  0  0  0  0  0  0  0
   -4.7742  -10.1818   21.8786 H   0  0  0  0  0  0  0  0  0  0  0  0
   -9.8520  -14.9191   22.7903 H   0  0  0  0  0  0  0  0  0  0  0  0
  -11.8202  -16.2473   21.4731 H   0  0  0  0  0  0  0  0  0  0  0  0
  -10.4305  -17.5965   20.0255 H   0  0  0  0  0  0  0  0  0  0  0  0
   -9.1313  -17.7354   21.1963 H   0  0  0  0  0  0  0  0  0  0  0  0
  -11.6432  -19.3340   20.9319 H   0  0  0  0  0  0  0  0  0  0  0  0
  -10.1580  -19.7690   21.7984 H   0  0  0  0  0  0  0  0  0  0  0  0
  -12.5532  -18.5491   22.7844 H   0  0  0  0  0  0  0  0  0  0  0  0
  -11.3100  -19.2540   23.6457 H   0  0  0  0  0  0  0  0  0  0  0  0
  -10.0721  -17.2975   23.7928 H   0  0  0  0  0  0  0  0  0  0  0  0
  -11.6960  -16.6813   23.9370 H   0  0  0  0  0  0  0  0  0  0  0  0
  1  3  2  0
  2 13  2  0
  3  4  1  0
  3 16  1  0
  4  5  1  0
  5  6  1  0
  6  7  1  0
  8  7  1  0
  8  9  1  0
  8 15  1  0
  9 10  1  0
 11 10  1  0
 11 12  1  0
 11 15  1  0
 12 13  1  0
 13 14  1  0
 15 14  1  0
 17 16  1  0
 17 18  1  0
 17 21  1  0
 18 19  1  0
 19 20  1  0
 20 21  1  0
  4 22  1  0
  4 23  1  0
  5 24  1  0
  5 25  1  0
  6 26  1  0
  6 27  1  0
  7 28  1  0
  7 29  1  0
  8 30  1  6
 10 31  1  0
 10 32  1  0
 11 33  1  1
 12 34  1  0
 14 35  1  0
 15 36  1  1
 16 37  1  0
 17 38  1  6
 18 39  1  0
 18 40  1  0
 19 41  1  0
 19 42  1  0
 20 43  1  0
 20 44  1  0
 21 45  1  0
 21 46  1  0
M  CHG  1  20   1
M  END
>  <filename_input>  (6) 
7NLV_UJE_docked.sdf

>  <pdb_id>  (6) 
7NLV_UJE

>  <pose_rank>  (6) 
5

>  <num_atoms_heavy>  (6) 
21

>  <num_torsions>  (6) 
6

>  <pose>  (6) 
[-8.09228425194422, -11.525360529791813, 19.5281267522842, 1.3750504510502732, 1.5171540948312547, -4.602764587036515, -8.142332275875521, -21.218317160448176, -6.212312306928502, -0.8513574057717083, -1.1381679589535203, 7.567569557936903]

>  <energy>  (6) 
-654.016038042155

>  <inter_energy>  (6) 
-669.753728723271

>  <intra_energy>  (6) 
14.893610174390316

>  <rmsd>  (6) 
7.32592

>  <sdf_rank>  (6) 
0

$$$$

     RDKit          3D

 46 48  0  0  0  0  0  0  0  0999 V2000
  -10.7804   -7.6929   20.5993 O   0  0  0  0  0  0  0  0  0  0  0  0
   -1.8668   -9.9163   22.1084 O   0  0  0  0  0  0  0  0  0  0  0  0
  -10.2479   -7.9022   19.5131 C   0  0  0  0  0  0  0  0  0  0  0  0
  -10.0094   -9.3187   19.0347 C   0  0  0  0  0  0  0  0  0  0  0  0
   -9.0072  -10.0754   19.8475 C   0  0  0  0  0  0  0  0  0  0  0  0
   -7.5995   -9.9259   19.2887 C   0  0  0  0  0  0  0  0  0  0  0  0
   -6.4856  -10.4962   20.1563 C   0  0  0  0  0  0  0  0  0  0  0  0
   -5.3294  -11.0934   19.3619 C   0  0  2  0  0  0  0  0  0  0  0  0
   -4.7631  -12.7291   19.9572 S   0  0  0  0  0  0  0  0  0  0  0  0
   -3.3825  -12.5371   18.8062 C   0  0  0  0  0  0  0  0  0  0  0  0
   -2.8759  -11.1048   18.9593 C   0  0  2  0  0  0  0  0  0  0  0  0
   -1.9841  -10.9919   20.0860 N   0  0  0  0  0  0  0  0  0  0  0  0
   -2.4720  -10.2047   21.0592 C   0  0  0  0  0  0  0  0  0  0  0  0
   -3.6739   -9.7314   20.6523 N   0  0  0  0  0  0  0  0  0  0  0  0
   -4.0550  -10.2061   19.3440 C   0  0  2  0  0  0  0  0  0  0  0  0
   -9.8886   -6.9044   18.6882 N   0  0  0  0  0  0  0  0  0  0  0  0
  -10.1839   -5.5098   18.9893 C   0  0  1  0  0  0  0  0  0  0  0  0
  -11.6282   -5.2370   19.3601 C   0  0  0  0  0  0  0  0  0  0  0  0
  -11.5665   -3.8981   20.0659 C   0  0  0  0  0  0  0  0  0  0  0  0
  -10.1575   -3.6729   20.4002 N   0  0  0  0  0  0  0  0  0  0  0  0
   -9.4423   -4.9389   20.1791 C   0  0  0  0  0  0  0  0  0  0  0  0
  -10.9653   -9.8617   19.0716 H   0  0  0  0  0  0  0  0  0  0  0  0
   -9.6024   -9.2459   18.0154 H   0  0  0  0  0  0  0  0  0  0  0  0
   -9.0235   -9.6934   20.8789 H   0  0  0  0  0  0  0  0  0  0  0  0
   -9.2763  -11.1415   19.8170 H   0  0  0  0  0  0  0  0  0  0  0  0
   -7.5655  -10.4362   18.3149 H   0  0  0  0  0  0  0  0  0  0  0  0
   -7.4117   -8.8436   19.2292 H   0  0  0  0  0  0  0  0  0  0  0  0
   -6.0903   -9.6875   20.7886 H   0  0  0  0  0  0  0  0  0  0  0  0
   -6.9258  -11.3147   20.7446 H   0  0  0  0  0  0  0  0  0  0  0  0
   -5.7756  -11.1769   18.3599 H   0  0  0  0  0  0  0  0  0  0  0  0
   -2.5821  -13.2502   19.0528 H   0  0  0  0  0  0  0  0  0  0  0  0
   -3.7007  -12.7346   17.7720 H   0  0  0  0  0  0  0  0  0  0  0  0
   -2.3863  -10.8281   18.0139 H   0  0  0  0  0  0  0  0  0  0  0  0
   -1.0704  -11.4643   20.1393 H   0  0  0  0  0  0  0  0  0  0  0  0
   -4.2560   -9.0977   21.2184 H   0  0  0  0  0  0  0  0  0  0  0  0
   -4.2713   -9.3657   18.6680 H   0  0  0  0  0  0  0  0  0  0  0  0
   -9.3893   -7.1323   17.8166 H   0  0  0  0  0  0  0  0  0  0  0  0
   -9.8834   -5.0476   18.0374 H   0  0  0  0  0  0  0  0  0  0  0  0
  -12.2604   -5.1790   18.4618 H   0  0  0  0  0  0  0  0  0  0  0  0
  -12.0670   -6.0298   19.9839 H   0  0  0  0  0  0  0  0  0  0  0  0
  -11.9325   -3.1008   19.4023 H   0  0  0  0  0  0  0  0  0  0  0  0
  -12.1968   -3.8924   20.9674 H   0  0  0  0  0  0  0  0  0  0  0  0
   -9.7657   -2.9374   19.7948 H   0  0  0  0  0  0  0  0  0  0  0  0
  -10.0613   -3.3685   21.3795 H   0  0  0  0  0  0  0  0  0  0  0  0
   -9.5196   -5.6007   21.0543 H   0  0  0  0  0  0  0  0  0  0  0  0
   -8.3617   -4.8171   20.0137 H   0  0  0  0  0  0  0  0  0  0  0  0
  1  3  2  0
  2 13  2  0
  3  4  1  0
  3 16  1  0
  4  5  1  0
  5  6  1  0
  6  7  1  0
  8  7  1  0
  8  9  1  0
  8 15  1  0
  9 10  1  0
 11 10  1  0
 11 12  1  0
 11 15  1  0
 12 13  1  0
 13 14  1  0
 15 14  1  0
 17 16  1  0
 17 18  1  0
 17 21  1  0
 18 19  1  0
 19 20  1  0
 20 21  1  0
  4 22  1  0
  4 23  1  0
  5 24  1  0
  5 25  1  0
  6 26  1  0
  6 27  1  0
  7 28  1  0
  7 29  1  0
  8 30  1  6
 10 31  1  0
 10 32  1  0
 11 33  1  6
 12 34  1  0
 14 35  1  0
 15 36  1  6
 16 37  1  0
 17 38  1  6
 18 39  1  0
 18 40  1  0
 19 41  1  0
 19 42  1  0
 20 43  1  0
 20 44  1  0
 21 45  1  0
 21 46  1  0
M  CHG  1  20   1
M  END
>  <filename_input>  (7) 
7NLV_UJE_docked.sdf

>  <pdb_id>  (7) 
7NLV_UJE

>  <pose_rank>  (7) 
6

>  <num_atoms_heavy>  (7) 
21

>  <num_torsions>  (7) 
6

>  <pose>  (7) 
[-7.59949355797685, -9.92585443118174, 19.28873767939793, -0.5580739087348623, 0.15569296736459215, -0.15108704321197333, -0.11093514701734315, -0.36336705821013116, -0.5770372560331724, -2.699997821570833, 5.742834178036894, -1.0151100549048786]

>  <energy>  (7) 
-807.535529662445

>  <inter_energy>  (7) 
-829.6068251514097

>  <intra_energy>  (7) 
23.402910791648285

>  <rmsd>  (7) 
1.91229

>  <sdf_rank>  (7) 
0

$$$$

     RDKit          3D

 46 48  0  0  0  0  0  0  0  0999 V2000
  -10.3737   -7.7565   21.0913 O   0  0  0  0  0  0  0  0  0  0  0  0
   -4.0334   -7.9792   17.8090 O   0  0  0  0  0  0  0  0  0  0  0  0
  -10.1053   -7.4001   19.9475 C   0  0  0  0  0  0  0  0  0  0  0  0
   -9.4026   -8.3432   18.9940 C   0  0  0  0  0  0  0  0  0  0  0  0
   -9.0260   -9.6563   19.6034 C   0  0  0  0  0  0  0  0  0  0  0  0
   -7.5925  -10.0428   19.2690 C   0  0  0  0  0  0  0  0  0  0  0  0
   -7.1915  -11.4629   19.6448 C   0  0  0  0  0  0  0  0  0  0  0  0
   -5.7211  -11.6097   20.0203 C   0  0  2  0  0  0  0  0  0  0  0  0
   -5.1832  -10.5512   21.4134 S   0  0  0  0  0  0  0  0  0  0  0  0
   -3.5015  -11.0734   21.0047 C   0  0  0  0  0  0  0  0  0  0  0  0
   -3.3718  -10.9958   19.4853 C   0  0  2  0  0  0  0  0  0  0  0  0
   -3.0826   -9.6489   19.0616 N   0  0  0  0  0  0  0  0  0  0  0  0
   -4.0706   -9.1106   18.3274 C   0  0  0  0  0  0  0  0  0  0  0  0
   -5.0462  -10.0401   18.1922 N   0  0  0  0  0  0  0  0  0  0  0  0
   -4.7410  -11.2817   18.8611 C   0  0  2  0  0  0  0  0  0  0  0  0
  -10.4478   -6.1894   19.4763 N   0  0  0  0  0  0  0  0  0  0  0  0
  -11.2357   -5.2496   20.2629 C   0  0  1  0  0  0  0  0  0  0  0  0
  -10.8247   -3.7987   20.1088 C   0  0  0  0  0  0  0  0  0  0  0  0
  -12.0348   -3.0328   20.6024 C   0  0  0  0  0  0  0  0  0  0  0  0
  -13.1441   -3.9901   20.6332 N   0  0  0  0  0  0  0  0  0  0  0  0
  -12.7078   -5.1964   19.9140 C   0  0  0  0  0  0  0  0  0  0  0  0
  -10.0720   -8.5363   18.1427 H   0  0  0  0  0  0  0  0  0  0  0  0
   -8.4656   -7.8517   18.6934 H   0  0  0  0  0  0  0  0  0  0  0  0
   -9.1301   -9.5849   20.6961 H   0  0  0  0  0  0  0  0  0  0  0  0
   -9.6935  -10.4283   19.1929 H   0  0  0  0  0  0  0  0  0  0  0  0
   -7.4549   -9.9277   18.1838 H   0  0  0  0  0  0  0  0  0  0  0  0
   -6.9530   -9.3795   19.8700 H   0  0  0  0  0  0  0  0  0  0  0  0
   -7.8017  -11.7796   20.5035 H   0  0  0  0  0  0  0  0  0  0  0  0
   -7.3582  -12.0882   18.7553 H   0  0  0  0  0  0  0  0  0  0  0  0
   -5.6738  -12.6729   20.2984 H   0  0  0  0  0  0  0  0  0  0  0  0
   -2.7707  -10.4039   21.4818 H   0  0  0  0  0  0  0  0  0  0  0  0
   -3.3067  -12.0941   21.3656 H   0  0  0  0  0  0  0  0  0  0  0  0
   -2.5830  -11.7023   19.1876 H   0  0  0  0  0  0  0  0  0  0  0  0
   -2.2115   -9.1521   19.2966 H   0  0  0  0  0  0  0  0  0  0  0  0
   -5.9166   -9.8775   17.6659 H   0  0  0  0  0  0  0  0  0  0  0  0
   -4.7931  -12.1289   18.1614 H   0  0  0  0  0  0  0  0  0  0  0  0
  -10.1442   -5.9175   18.5303 H   0  0  0  0  0  0  0  0  0  0  0  0
  -11.0503   -5.6508   21.2702 H   0  0  0  0  0  0  0  0  0  0  0  0
   -9.9400   -3.5736   20.7225 H   0  0  0  0  0  0  0  0  0  0  0  0
  -10.5464   -3.5400   19.0766 H   0  0  0  0  0  0  0  0  0  0  0  0
  -11.8479   -2.6341   21.6105 H   0  0  0  0  0  0  0  0  0  0  0  0
  -12.2619   -2.1791   19.9469 H   0  0  0  0  0  0  0  0  0  0  0  0
  -13.3771   -4.2270   21.6082 H   0  0  0  0  0  0  0  0  0  0  0  0
  -13.9827   -3.5877   20.1909 H   0  0  0  0  0  0  0  0  0  0  0  0
  -12.8588   -5.0926   18.8293 H   0  0  0  0  0  0  0  0  0  0  0  0
  -13.2639   -6.1047   20.1892 H   0  0  0  0  0  0  0  0  0  0  0  0
  1  3  2  0
  2 13  2  0
  3  4  1  0
  3 16  1  0
  4  5  1  0
  5  6  1  0
  6  7  1  0
  8  7  1  0
  8  9  1  0
  8 15  1  0
  9 10  1  0
 11 10  1  0
 11 12  1  0
 11 15  1  0
 12 13  1  0
 13 14  1  0
 15 14  1  0
 17 16  1  0
 17 18  1  0
 17 21  1  0
 18 19  1  0
 19 20  1  0
 20 21  1  0
  4 22  1  0
  4 23  1  0
  5 24  1  0
  5 25  1  0
  6 26  1  0
  6 27  1  0
  7 28  1  0
  7 29  1  0
  8 30  1  1
 10 31  1  0
 10 32  1  0
 11 33  1  6
 12 34  1  0
 14 35  1  0
 15 36  1  6
 16 37  1  0
 17 38  1  1
 18 39  1  0
 18 40  1  0
 19 41  1  0
 19 42  1  0
 20 43  1  0
 20 44  1  0
 21 45  1  0
 21 46  1  0
M  CHG  1  20   1
M  END
>  <filename_input>  (8) 
7NLV_UJE_docked.sdf

>  <pdb_id>  (8) 
7NLV_UJE

>  <pose_rank>  (8) 
7

>  <num_atoms_heavy>  (8) 
21

>  <num_torsions>  (8) 
6

>  <pose>  (8) 
[-7.592504616192665, -10.04275225623067, 19.26904184584742, 0.12799034944369994, 0.1482060845997106, -0.664378510645943, 0.20494935768563274, -1.098450015176691, 0.5326589212594477, -5.623384995569923, 0.6102155398189906, -3.9483593200368863]

>  <energy>  (8) 
-705.3261625394988

>  <inter_energy>  (8) 
-710.2609631866789

>  <intra_energy>  (8) 
26.289746352447423

>  <rmsd>  (8) 
2.41286

>  <sdf_rank>  (8) 
0

$$$$

     RDKit          3D

 46 48  0  0  0  0  0  0  0  0999 V2000
   -6.5152  -10.9650   19.7775 O   0  0  0  0  0  0  0  0  0  0  0  0
  -13.3943   -3.8684   19.9855 O   0  0  0  0  0  0  0  0  0  0  0  0
   -6.5737   -9.9754   19.0531 C   0  0  0  0  0  0  0  0  0  0  0  0
   -7.9074   -9.3317   18.7382 C   0  0  0  0  0  0  0  0  0  0  0  0
   -9.0883  -10.1001   19.2409 C   0  0  0  0  0  0  0  0  0  0  0  0
   -9.9825   -9.2445   20.1266 C   0  0  0  0  0  0  0  0  0  0  0  0
  -10.3801   -7.8937   19.5470 C   0  0  0  0  0  0  0  0  0  0  0  0
   -9.8202   -6.7030   20.3172 C   0  0  2  0  0  0  0  0  0  0  0  0
  -10.3679   -6.6002   22.0608 S   0  0  0  0  0  0  0  0  0  0  0  0
   -9.5917   -4.9678   22.0836 C   0  0  0  0  0  0  0  0  0  0  0  0
   -9.9967   -4.2680   20.7883 C   0  0  2  0  0  0  0  0  0  0  0  0
  -11.3045   -3.6748   20.9109 N   0  0  0  0  0  0  0  0  0  0  0  0
  -12.2106   -4.2388   20.0949 C   0  0  0  0  0  0  0  0  0  0  0  0
  -11.5849   -5.2001   19.3748 N   0  0  0  0  0  0  0  0  0  0  0  0
  -10.1841   -5.3265   19.6971 C   0  0  2  0  0  0  0  0  0  0  0  0
   -5.4743   -9.3980   18.5403 N   0  0  0  0  0  0  0  0  0  0  0  0
   -4.1330   -9.8559   18.8782 C   0  0  1  0  0  0  0  0  0  0  0  0
   -3.8880  -10.0500   20.3614 C   0  0  0  0  0  0  0  0  0  0  0  0
   -2.6683  -10.9472   20.4052 C   0  0  0  0  0  0  0  0  0  0  0  0
   -2.5233  -11.5115   19.0603 N   0  0  0  0  0  0  0  0  0  0  0  0
   -3.7576  -11.2116   18.3191 C   0  0  0  0  0  0  0  0  0  0  0  0
   -7.9253   -8.3316   19.1960 H   0  0  0  0  0  0  0  0  0  0  0  0
   -7.9933   -9.2977   17.6421 H   0  0  0  0  0  0  0  0  0  0  0  0
   -9.6743  -10.4558   18.3806 H   0  0  0  0  0  0  0  0  0  0  0  0
   -8.7174  -10.9436   19.8417 H   0  0  0  0  0  0  0  0  0  0  0  0
  -10.9034   -9.8117   20.3269 H   0  0  0  0  0  0  0  0  0  0  0  0
   -9.3923   -9.0241   21.0283 H   0  0  0  0  0  0  0  0  0  0  0  0
  -10.0138   -7.8396   18.5112 H   0  0  0  0  0  0  0  0  0  0  0  0
  -11.4764   -7.8287   19.6106 H   0  0  0  0  0  0  0  0  0  0  0  0
   -8.7390   -6.8970   20.2596 H   0  0  0  0  0  0  0  0  0  0  0  0
   -9.9459   -4.3923   22.9516 H   0  0  0  0  0  0  0  0  0  0  0  0
   -8.4977   -5.0522   22.1610 H   0  0  0  0  0  0  0  0  0  0  0  0
   -9.2218   -3.5202   20.5642 H   0  0  0  0  0  0  0  0  0  0  0  0
  -11.5213   -2.9011   21.5554 H   0  0  0  0  0  0  0  0  0  0  0  0
  -12.0601   -5.7812   18.6695 H   0  0  0  0  0  0  0  0  0  0  0  0
   -9.5616   -5.2172   18.7968 H   0  0  0  0  0  0  0  0  0  0  0  0
   -5.5830   -8.6078   17.8887 H   0  0  0  0  0  0  0  0  0  0  0  0
   -3.5428   -9.0364   18.4422 H   0  0  0  0  0  0  0  0  0  0  0  0
   -3.6862   -9.0881   20.8555 H   0  0  0  0  0  0  0  0  0  0  0  0
   -4.7543  -10.4796   20.8857 H   0  0  0  0  0  0  0  0  0  0  0  0
   -1.7751  -10.3628   20.6712 H   0  0  0  0  0  0  0  0  0  0  0  0
   -2.7816  -11.7388   21.1605 H   0  0  0  0  0  0  0  0  0  0  0  0
   -1.7153  -11.0846   18.5852 H   0  0  0  0  0  0  0  0  0  0  0  0
   -2.3674  -12.5285   19.1088 H   0  0  0  0  0  0  0  0  0  0  0  0
   -4.5386  -11.9590   18.5227 H   0  0  0  0  0  0  0  0  0  0  0  0
   -3.6350  -11.2243   17.2260 H   0  0  0  0  0  0  0  0  0  0  0  0
  1  3  2  0
  2 13  2  0
  3  4  1  0
  3 16  1  0
  4  5  1  0
  5  6  1  0
  6  7  1  0
  8  7  1  0
  8  9  1  0
  8 15  1  0
  9 10  1  0
 11 10  1  0
 11 12  1  0
 11 15  1  0
 12 13  1  0
 13 14  1  0
 15 14  1  0
 17 16  1  0
 17 18  1  0
 17 21  1  0
 18 19  1  0
 19 20  1  0
 20 21  1  0
  4 22  1  0
  4 23  1  0
  5 24  1  0
  5 25  1  0
  6 26  1  0
  6 27  1  0
  7 28  1  0
  7 29  1  0
  8 30  1  1
 10 31  1  0
 10 32  1  0
 11 33  1  6
 12 34  1  0
 14 35  1  0
 15 36  1  6
 16 37  1  0
 17 38  1  6
 18 39  1  0
 18 40  1  0
 19 41  1  0
 19 42  1  0
 20 43  1  0
 20 44  1  0
 21 45  1  0
 21 46  1  0
M  CHG  1  20   1
M  END
>  <filename_input>  (9) 
7NLV_UJE_docked.sdf

>  <pdb_id>  (9) 
7NLV_UJE

>  <pose_rank>  (9) 
8

>  <num_atoms_heavy>  (9) 
21

>  <num_torsions>  (9) 
6

>  <pose>  (9) 
[-9.982458885444572, -9.244495814228674, 20.126557250531928, -1.3363881915666993, -2.256466412570389, -2.3914162204761094, -2.232836752268143, 3.4087163526590354, 0.46623145666505017, 3.625765914222443, 1.2043995198891069, 0.25854459936201496]

>  <energy>  (9) 
-723.0623114807136

>  <inter_energy>  (9) 
-688.2379933007654

>  <intra_energy>  (9) 
24.89024403855881

>  <rmsd>  (9) 
8.6622

>  <sdf_rank>  (9) 
0

$$$$

     RDKit          3D

 46 48  0  0  0  0  0  0  0  0999 V2000
   -5.5419   -9.3309   20.0770 O   0  0  0  0  0  0  0  0  0  0  0  0
   -8.5088   -2.7845   18.7969 O   0  0  0  0  0  0  0  0  0  0  0  0
   -6.2211   -9.9899   19.2949 C   0  0  0  0  0  0  0  0  0  0  0  0
   -7.5513   -9.4625   18.8001 C   0  0  0  0  0  0  0  0  0  0  0  0
   -8.7389  -10.1156   19.4331 C   0  0  0  0  0  0  0  0  0  0  0  0
   -9.6731   -9.0947   20.0664 C   0  0  0  0  0  0  0  0  0  0  0  0
   -9.2245   -7.6431   19.9641 C   0  0  0  0  0  0  0  0  0  0  0  0
  -10.2195   -6.6473   20.5496 C   0  0  2  0  0  0  0  0  0  0  0  0
  -11.5546   -6.1437   19.4033 S   0  0  0  0  0  0  0  0  0  0  0  0
  -11.9933   -4.9073   20.6469 C   0  0  0  0  0  0  0  0  0  0  0  0
  -10.6871   -4.2724   21.1184 C   0  0  2  0  0  0  0  0  0  0  0  0
  -10.2586   -3.2403   20.2082 N   0  0  0  0  0  0  0  0  0  0  0  0
   -9.1031   -3.5377   19.5906 C   0  0  0  0  0  0  0  0  0  0  0  0
   -8.6797   -4.7392   20.0499 N   0  0  0  0  0  0  0  0  0  0  0  0
   -9.5719   -5.3182   21.0251 C   0  0  2  0  0  0  0  0  0  0  0  0
   -5.8114  -11.1759   18.8151 N   0  0  0  0  0  0  0  0  0  0  0  0
   -4.4958  -11.7206   19.1238 C   0  0  1  0  0  0  0  0  0  0  0  0
   -3.3547  -10.7333   18.9789 C   0  0  0  0  0  0  0  0  0  0  0  0
   -2.2372  -11.3615   19.7857 C   0  0  0  0  0  0  0  0  0  0  0  0
   -2.8608  -12.3916   20.6213 N   0  0  0  0  0  0  0  0  0  0  0  0
   -4.3170  -12.1982   20.5491 C   0  0  0  0  0  0  0  0  0  0  0  0
   -7.5961   -8.3840   19.0117 H   0  0  0  0  0  0  0  0  0  0  0  0
   -7.6015   -9.6857   17.7241 H   0  0  0  0  0  0  0  0  0  0  0  0
   -9.2910  -10.6741   18.6629 H   0  0  0  0  0  0  0  0  0  0  0  0
   -8.3781  -10.7876   20.2257 H   0  0  0  0  0  0  0  0  0  0  0  0
  -10.6534   -9.1818   19.5751 H   0  0  0  0  0  0  0  0  0  0  0  0
   -9.6930   -9.3294   21.1409 H   0  0  0  0  0  0  0  0  0  0  0  0
   -8.2706   -7.5365   20.5014 H   0  0  0  0  0  0  0  0  0  0  0  0
   -9.1333   -7.4114   18.8926 H   0  0  0  0  0  0  0  0  0  0  0  0
  -10.6278   -7.2208   21.3949 H   0  0  0  0  0  0  0  0  0  0  0  0
  -12.6485   -4.1420   20.2053 H   0  0  0  0  0  0  0  0  0  0  0  0
  -12.5340   -5.3675   21.4871 H   0  0  0  0  0  0  0  0  0  0  0  0
  -10.8593   -3.8846   22.1333 H   0  0  0  0  0  0  0  0  0  0  0  0
  -10.7823   -2.3679   20.0482 H   0  0  0  0  0  0  0  0  0  0  0  0
   -7.8102   -5.1932   19.7356 H   0  0  0  0  0  0  0  0  0  0  0  0
   -9.0380   -5.5495   21.9586 H   0  0  0  0  0  0  0  0  0  0  0  0
   -6.4465  -11.7165   18.2106 H   0  0  0  0  0  0  0  0  0  0  0  0
   -4.4587  -12.5405   18.3914 H   0  0  0  0  0  0  0  0  0  0  0  0
   -3.0631  -10.6218   17.9241 H   0  0  0  0  0  0  0  0  0  0  0  0
   -3.6167   -9.7226   19.3252 H   0  0  0  0  0  0  0  0  0  0  0  0
   -1.4920  -11.8147   19.1155 H   0  0  0  0  0  0  0  0  0  0  0  0
   -1.7165  -10.6112   20.3988 H   0  0  0  0  0  0  0  0  0  0  0  0
   -2.6126  -13.3273   20.2697 H   0  0  0  0  0  0  0  0  0  0  0  0
   -2.5329  -12.3163   21.5948 H   0  0  0  0  0  0  0  0  0  0  0  0
   -4.6567  -11.4408   21.2709 H   0  0  0  0  0  0  0  0  0  0  0  0
   -4.8986  -13.0994   20.7932 H   0  0  0  0  0  0  0  0  0  0  0  0
  1  3  2  0
  2 13  2  0
  3  4  1  0
  3 16  1  0
  4  5  1  0
  5  6  1  0
  6  7  1  0
  8  7  1  0
  8  9  1  0
  8 15  1  0
  9 10  1  0
 11 10  1  0
 11 12  1  0
 11 15  1  0
 12 13  1  0
 13 14  1  0
 15 14  1  0
 17 16  1  0
 17 18  1  0
 17 21  1  0
 18 19  1  0
 19 20  1  0
 20 21  1  0
  4 22  1  0
  4 23  1  0
  5 24  1  0
  5 25  1  0
  6 26  1  0
  6 27  1  0
  7 28  1  0
  7 29  1  0
  8 30  1  1
 10 31  1  0
 10 32  1  0
 11 33  1  1
 12 34  1  0
 14 35  1  0
 15 36  1  1
 16 37  1  0
 17 38  1  6
 18 39  1  0
 18 40  1  0
 19 41  1  0
 19 42  1  0
 20 43  1  0
 20 44  1  0
 21 45  1  0
 21 46  1  0
M  CHG  1  20   1
M  END
>  <filename_input>  (10) 
7NLV_UJE_docked.sdf

>  <pdb_id>  (10) 
7NLV_UJE

>  <pose_rank>  (10) 
9

>  <num_atoms_heavy>  (10) 
21

>  <num_torsions>  (10) 
6

>  <pose>  (10) 
[-9.67309109114845, -9.094660860598626, 20.06642564596951, -1.429721260412881, -1.5430881300005563, -3.4790636480719805, 3.1557736578575444, 3.410624619564312, -1.2360543849967125, -2.630780046420288, 0.012772325800867089, 6.131163004298556]

>  <energy>  (10) 
-669.9077920451138

>  <inter_energy>  (10) 
-696.84151593364

>  <intra_energy>  (10) 
24.197910893370942

>  <rmsd>  (10) 
8.59311

>  <sdf_rank>  (10) 
0

$$$$

     RDKit          3D

 46 48  0  0  0  0  0  0  0  0999 V2000
   -6.4535  -11.9857   19.7639 O   0  0  0  0  0  0  0  0  0  0  0  0
  -11.9610   -6.1934   23.8342 O   0  0  0  0  0  0  0  0  0  0  0  0
   -6.8068  -10.8344   19.5249 C   0  0  0  0  0  0  0  0  0  0  0  0
   -8.2332  -10.3989   19.7856 C   0  0  0  0  0  0  0  0  0  0  0  0
   -8.9081   -9.7833   18.6011 C   0  0  0  0  0  0  0  0  0  0  0  0
   -8.7479   -8.2699   18.5842 C   0  0  0  0  0  0  0  0  0  0  0  0
   -9.1551   -7.5530   19.8645 C   0  0  0  0  0  0  0  0  0  0  0  0
  -10.1386   -6.4090   19.6447 C   0  0  2  0  0  0  0  0  0  0  0  0
   -9.5445   -4.7753   20.2178 S   0  0  0  0  0  0  0  0  0  0  0  0
  -11.2231   -4.1857   19.8978 C   0  0  0  0  0  0  0  0  0  0  0  0
  -12.1757   -5.2388   20.4592 C   0  0  2  0  0  0  0  0  0  0  0  0
  -12.3584   -5.0634   21.8781 N   0  0  0  0  0  0  0  0  0  0  0  0
  -11.8781   -6.0925   22.5959 C   0  0  0  0  0  0  0  0  0  0  0  0
  -11.3803   -7.0095   21.7325 N   0  0  0  0  0  0  0  0  0  0  0  0
  -11.5067   -6.6124   20.3510 C   0  0  2  0  0  0  0  0  0  0  0  0
   -5.9534   -9.9052   19.0630 N   0  0  0  0  0  0  0  0  0  0  0  0
   -4.5320  -10.1781   18.8953 C   0  0  1  0  0  0  0  0  0  0  0  0
   -3.6204   -9.3242   19.7543 C   0  0  0  0  0  0  0  0  0  0  0  0
   -2.3170  -10.0959   19.7642 C   0  0  0  0  0  0  0  0  0  0  0  0
   -2.6332  -11.4453   19.2878 N   0  0  0  0  0  0  0  0  0  0  0  0
   -4.0979  -11.5779   19.2740 C   0  0  0  0  0  0  0  0  0  0  0  0
   -8.8132  -11.2812   20.0942 H   0  0  0  0  0  0  0  0  0  0  0  0
   -8.1918   -9.6248   20.5660 H   0  0  0  0  0  0  0  0  0  0  0  0
   -8.4661  -10.1986   17.6835 H   0  0  0  0  0  0  0  0  0  0  0  0
   -9.9821  -10.0133   18.6611 H   0  0  0  0  0  0  0  0  0  0  0  0
   -7.6890   -8.0434   18.3912 H   0  0  0  0  0  0  0  0  0  0  0  0
   -9.4297   -7.9029   17.8029 H   0  0  0  0  0  0  0  0  0  0  0  0
   -9.6215   -8.2863   20.5389 H   0  0  0  0  0  0  0  0  0  0  0  0
   -8.2410   -7.1118   20.2884 H   0  0  0  0  0  0  0  0  0  0  0  0
  -10.2452   -6.4224   18.5500 H   0  0  0  0  0  0  0  0  0  0  0  0
  -11.3875   -3.2206   20.3995 H   0  0  0  0  0  0  0  0  0  0  0  0
  -11.3903   -4.0365   18.8209 H   0  0  0  0  0  0  0  0  0  0  0  0
  -13.1223   -5.1522   19.9056 H   0  0  0  0  0  0  0  0  0  0  0  0
  -12.8090   -4.2374   22.2970 H   0  0  0  0  0  0  0  0  0  0  0  0
  -10.9552   -7.8988   22.0313 H   0  0  0  0  0  0  0  0  0  0  0  0
  -12.0457   -7.3752   19.7700 H   0  0  0  0  0  0  0  0  0  0  0  0
   -6.3149   -8.9718   18.8201 H   0  0  0  0  0  0  0  0  0  0  0  0
   -4.4310   -9.9768   17.8186 H   0  0  0  0  0  0  0  0  0  0  0  0
   -3.4833   -8.3269   19.3109 H   0  0  0  0  0  0  0  0  0  0  0  0
   -4.0225   -9.1503   20.7633 H   0  0  0  0  0  0  0  0  0  0  0  0
   -1.5863   -9.6175   19.0954 H   0  0  0  0  0  0  0  0  0  0  0  0
   -1.8754  -10.1210   20.7714 H   0  0  0  0  0  0  0  0  0  0  0  0
   -2.2591  -11.5794   18.3376 H   0  0  0  0  0  0  0  0  0  0  0  0
   -2.2107  -12.1553   19.9030 H   0  0  0  0  0  0  0  0  0  0  0  0
   -4.4836  -11.8627   20.2640 H   0  0  0  0  0  0  0  0  0  0  0  0
   -4.4681  -12.3586   18.5932 H   0  0  0  0  0  0  0  0  0  0  0  0
  1  3  2  0
  2 13  2  0
  3  4  1  0
  3 16  1  0
  4  5  1  0
  5  6  1  0
  6  7  1  0
  8  7  1  0
  8  9  1  0
  8 15  1  0
  9 10  1  0
 11 10  1  0
 11 12  1  0
 11 15  1  0
 12 13  1  0
 13 14  1  0
 15 14  1  0
 17 16  1  0
 17 18  1  0
 17 21  1  0
 18 19  1  0
 19 20  1  0
 20 21  1  0
  4 22  1  0
  4 23  1  0
  5 24  1  0
  5 25  1  0
  6 26  1  0
  6 27  1  0
  7 28  1  0
  7 29  1  0
  8 30  1  6
 10 31  1  0
 10 32  1  0
 11 33  1  6
 12 34  1  0
 14 35  1  0
 15 36  1  6
 16 37  1  0
 17 38  1  6
 18 39  1  0
 18 40  1  0
 19 41  1  0
 19 42  1  0
 20 43  1  0
 20 44  1  0
 21 45  1  0
 21 46  1  0
M  CHG  1  20   1
M  END
>  <filename_input>  (11) 
7NLV_UJE_docked.sdf

>  <pdb_id>  (11) 
7NLV_UJE

>  <pose_rank>  (11) 
10

>  <num_atoms_heavy>  (11) 
21

>  <num_torsions>  (11) 
6

>  <pose>  (11) 
[-8.74794343893973, -8.26993043113302, 18.584243955402556, 2.1517345508751835, 3.120874104025239, -2.4858501564232354, 2.2595549712089635, 5.901919490901245, 4.671230487691911, 2.4116568838260886, 0.9736743817679089, -0.7878301717421713]

>  <energy>  (11) 
-640.4246360142664

>  <inter_energy>  (11) 
-675.1778744856683

>  <intra_energy>  (11) 
45.81620513528573

>  <rmsd>  (11) 
8.4485

>  <sdf_rank>  (11) 
0

$$$$

     RDKit          3D

 46 48  0  0  0  0  0  0  0  0999 V2000
   -9.3742  -10.5611   19.9178 O   0  0  0  0  0  0  0  0  0  0  0  0
  -12.4148   -5.9989   25.6473 O   0  0  0  0  0  0  0  0  0  0  0  0
   -8.8464   -9.5011   20.2418 C   0  0  0  0  0  0  0  0  0  0  0  0
   -9.6788   -8.3699   20.8074 C   0  0  0  0  0  0  0  0  0  0  0  0
   -9.6591   -7.1254   19.9777 C   0  0  0  0  0  0  0  0  0  0  0  0
  -10.4960   -6.0181   20.6019 C   0  0  0  0  0  0  0  0  0  0  0  0
  -11.9985   -6.2645   20.6237 C   0  0  0  0  0  0  0  0  0  0  0  0
  -12.8069   -5.0979   21.1803 C   0  0  2  0  0  0  0  0  0  0  0  0
  -11.8003   -3.6800   21.7520 S   0  0  0  0  0  0  0  0  0  0  0  0
  -13.3375   -3.0169   22.4338 C   0  0  0  0  0  0  0  0  0  0  0  0
  -14.0497   -4.1764   23.1268 C   0  0  2  0  0  0  0  0  0  0  0  0
  -13.5233   -4.3853   24.4521 N   0  0  0  0  0  0  0  0  0  0  0  0
  -12.9069   -5.5715   24.5864 C   0  0  0  0  0  0  0  0  0  0  0  0
  -12.9982   -6.2272   23.4050 N   0  0  0  0  0  0  0  0  0  0  0  0
  -13.7002   -5.4749   22.3935 C   0  0  2  0  0  0  0  0  0  0  0  0
   -7.5207   -9.3040   20.1490 N   0  0  0  0  0  0  0  0  0  0  0  0
   -6.6097  -10.3642   19.7381 C   0  0  1  0  0  0  0  0  0  0  0  0
   -5.5607   -9.9386   18.7299 C   0  0  0  0  0  0  0  0  0  0  0  0
   -4.5033  -11.0175   18.8410 C   0  0  0  0  0  0  0  0  0  0  0  0
   -4.7753  -11.7341   20.0902 N   0  0  0  0  0  0  0  0  0  0  0  0
   -5.7596  -10.9460   20.8472 C   0  0  0  0  0  0  0  0  0  0  0  0
  -10.7202   -8.7144   20.8894 H   0  0  0  0  0  0  0  0  0  0  0  0
   -9.2406   -8.1091   21.7821 H   0  0  0  0  0  0  0  0  0  0  0  0
   -8.6202   -6.7766   19.8831 H   0  0  0  0  0  0  0  0  0  0  0  0
  -10.0867   -7.3639   18.9926 H   0  0  0  0  0  0  0  0  0  0  0  0
  -10.1596   -5.8837   21.6405 H   0  0  0  0  0  0  0  0  0  0  0  0
  -10.3446   -5.1317   19.9684 H   0  0  0  0  0  0  0  0  0  0  0  0
  -12.3329   -6.4577   19.5937 H   0  0  0  0  0  0  0  0  0  0  0  0
  -12.1723   -7.1213   21.2913 H   0  0  0  0  0  0  0  0  0  0  0  0
  -13.4129   -4.8178   20.3061 H   0  0  0  0  0  0  0  0  0  0  0  0
  -13.1172   -2.2200   23.1594 H   0  0  0  0  0  0  0  0  0  0  0  0
  -13.9664   -2.5846   21.6416 H   0  0  0  0  0  0  0  0  0  0  0  0
  -15.1238   -3.9397   23.1399 H   0  0  0  0  0  0  0  0  0  0  0  0
  -13.6105   -3.6987   25.2149 H   0  0  0  0  0  0  0  0  0  0  0  0
  -12.6067   -7.1664   23.2450 H   0  0  0  0  0  0  0  0  0  0  0  0
  -14.5452   -6.0518   21.9894 H   0  0  0  0  0  0  0  0  0  0  0  0
   -7.1367   -8.3754   20.3753 H   0  0  0  0  0  0  0  0  0  0  0  0
   -7.3355  -11.0852   19.3340 H   0  0  0  0  0  0  0  0  0  0  0  0
   -5.9824   -9.9047   17.7146 H   0  0  0  0  0  0  0  0  0  0  0  0
   -5.1654   -8.9304   18.9234 H   0  0  0  0  0  0  0  0  0  0  0  0
   -4.5700  -11.7054   17.9852 H   0  0  0  0  0  0  0  0  0  0  0  0
   -3.4913  -10.5866   18.8399 H   0  0  0  0  0  0  0  0  0  0  0  0
   -5.1568  -12.6683   19.8837 H   0  0  0  0  0  0  0  0  0  0  0  0
   -3.9097  -11.8536   20.6356 H   0  0  0  0  0  0  0  0  0  0  0  0
   -5.2720  -10.1546   21.4353 H   0  0  0  0  0  0  0  0  0  0  0  0
   -6.3286  -11.5327   21.5835 H   0  0  0  0  0  0  0  0  0  0  0  0
  1  3  2  0
  2 13  2  0
  3  4  1  0
  3 16  1  0
  4  5  1  0
  5  6  1  0
  6  7  1  0
  8  7  1  0
  8  9  1  0
  8 15  1  0
  9 10  1  0
 11 10  1  0
 11 12  1  0
 11 15  1  0
 12 13  1  0
 13 14  1  0
 15 14  1  0
 17 16  1  0
 17 18  1  0
 17 21  1  0
 18 19  1  0
 19 20  1  0
 20 21  1  0
  4 22  1  0
  4 23  1  0
  5 24  1  0
  5 25  1  0
  6 26  1  0
  6 27  1  0
  7 28  1  0
  7 29  1  0
  8 30  1  6
 10 31  1  0
 10 32  1  0
 11 33  1  1
 12 34  1  0
 14 35  1  0
 15 36  1  6
 16 37  1  0
 17 38  1  6
 18 39  1  0
 18 40  1  0
 19 41  1  0
 19 42  1  0
 20 43  1  0
 20 44  1  0
 21 45  1  0
 21 46  1  0
M  CHG  1  20   1
M  END
>  <filename_input>  (12) 
7NLV_UJE_docked.sdf

>  <pdb_id>  (12) 
7NLV_UJE

>  <pose_rank>  (12) 
11

>  <num_atoms_heavy>  (12) 
21

>  <num_torsions>  (12) 
6

>  <pose>  (12) 
[-10.495971782733779, -6.018111347673287, 20.601914061045534, -0.6038760913295684, -2.6068105439805227, 0.07473213626800529, 1.989504011649437, -8.181886439901024, -1.4733924885715202, 0.5435131173703608, 0.12262805812923734, 1.2906928947078395]

>  <energy>  (12) 
-416.4471178989196

>  <inter_energy>  (12) 
-418.87600313320166

>  <intra_energy>  (12) 
0.0

>  <rmsd>  (12) 
9.3116

>  <sdf_rank>  (12) 
0

$$$$

     RDKit          3D

 46 48  0  0  0  0  0  0  0  0999 V2000
   -8.7875  -11.3747   18.9692 O   0  0  0  0  0  0  0  0  0  0  0  0
  -14.6683   -3.8173   20.6509 O   0  0  0  0  0  0  0  0  0  0  0  0
   -8.7655  -10.2158   19.3740 C   0  0  0  0  0  0  0  0  0  0  0  0
  -10.0291   -9.5567   19.8852 C   0  0  0  0  0  0  0  0  0  0  0  0
  -10.3061   -8.2180   19.2780 C   0  0  0  0  0  0  0  0  0  0  0  0
   -9.4632   -7.1237   19.9170 C   0  0  0  0  0  0  0  0  0  0  0  0
  -10.0602   -5.7236   19.8687 C   0  0  0  0  0  0  0  0  0  0  0  0
  -10.3233   -5.1176   21.2427 C   0  0  2  0  0  0  0  0  0  0  0  0
  -11.1981   -6.2260   22.4074 S   0  0  0  0  0  0  0  0  0  0  0  0
  -11.3385   -4.7837   23.4880 C   0  0  0  0  0  0  0  0  0  0  0  0
  -11.7555   -3.6095   22.6054 C   0  0  2  0  0  0  0  0  0  0  0  0
  -13.1796   -3.6125   22.3838 N   0  0  0  0  0  0  0  0  0  0  0  0
  -13.5058   -3.8190   21.0970 C   0  0  0  0  0  0  0  0  0  0  0  0
  -12.3582   -3.9387   20.3879 N   0  0  0  0  0  0  0  0  0  0  0  0
  -11.1742   -3.8189   21.2039 C   0  0  2  0  0  0  0  0  0  0  0  0
   -7.6326   -9.4952   19.4198 N   0  0  0  0  0  0  0  0  0  0  0  0
   -6.3388  -10.0681   19.0722 C   0  0  1  0  0  0  0  0  0  0  0  0
   -5.2255   -9.0536   18.9015 C   0  0  0  0  0  0  0  0  0  0  0  0
   -3.9655   -9.8847   19.0299 C   0  0  0  0  0  0  0  0  0  0  0  0
   -4.3726  -11.1614   19.6235 N   0  0  0  0  0  0  0  0  0  0  0  0
   -5.7527  -11.0047   20.1069 C   0  0  0  0  0  0  0  0  0  0  0  0
  -10.8787  -10.2193   19.6636 H   0  0  0  0  0  0  0  0  0  0  0  0
   -9.8887   -9.3937   20.9639 H   0  0  0  0  0  0  0  0  0  0  0  0
  -10.0788   -8.2606   18.2026 H   0  0  0  0  0  0  0  0  0  0  0  0
  -11.3659   -7.9774   19.4483 H   0  0  0  0  0  0  0  0  0  0  0  0
   -9.3071   -7.3892   20.9729 H   0  0  0  0  0  0  0  0  0  0  0  0
   -8.5344   -7.0762   19.3295 H   0  0  0  0  0  0  0  0  0  0  0  0
   -9.3617   -5.0675   19.3286 H   0  0  0  0  0  0  0  0  0  0  0  0
  -11.0343   -5.8086   19.3648 H   0  0  0  0  0  0  0  0  0  0  0  0
   -9.2992   -4.9173   21.5907 H   0  0  0  0  0  0  0  0  0  0  0  0
  -12.0984   -4.9636   24.2627 H   0  0  0  0  0  0  0  0  0  0  0  0
  -10.3847   -4.5766   23.9954 H   0  0  0  0  0  0  0  0  0  0  0  0
  -11.4154   -2.6893   23.1029 H   0  0  0  0  0  0  0  0  0  0  0  0
  -13.8732   -3.4714   23.1321 H   0  0  0  0  0  0  0  0  0  0  0  0
  -12.3332   -4.0988   19.3707 H   0  0  0  0  0  0  0  0  0  0  0  0
  -10.5131   -3.0259   20.8243 H   0  0  0  0  0  0  0  0  0  0  0  0
   -7.6801   -8.5078   19.7093 H   0  0  0  0  0  0  0  0  0  0  0  0
   -6.6089  -10.5806   18.1372 H   0  0  0  0  0  0  0  0  0  0  0  0
   -5.2800   -8.5728   17.9137 H   0  0  0  0  0  0  0  0  0  0  0  0
   -5.2754   -8.2358   19.6355 H   0  0  0  0  0  0  0  0  0  0  0  0
   -3.5166  -10.0511   18.0396 H   0  0  0  0  0  0  0  0  0  0  0  0
   -3.2137   -9.3767   19.6518 H   0  0  0  0  0  0  0  0  0  0  0  0
   -4.3309  -11.9077   18.9148 H   0  0  0  0  0  0  0  0  0  0  0  0
   -3.7440  -11.4180   20.3980 H   0  0  0  0  0  0  0  0  0  0  0  0
   -5.7767  -10.5573   21.1115 H   0  0  0  0  0  0  0  0  0  0  0  0
   -6.2993  -11.9538   20.2091 H   0  0  0  0  0  0  0  0  0  0  0  0
  1  3  2  0
  2 13  2  0
  3  4  1  0
  3 16  1  0
  4  5  1  0
  5  6  1  0
  6  7  1  0
  8  7  1  0
  8  9  1  0
  8 15  1  0
  9 10  1  0
 11 10  1  0
 11 12  1  0
 11 15  1  0
 12 13  1  0
 13 14  1  0
 15 14  1  0
 17 16  1  0
 17 18  1  0
 17 21  1  0
 18 19  1  0
 19 20  1  0
 20 21  1  0
  4 22  1  0
  4 23  1  0
  5 24  1  0
  5 25  1  0
  6 26  1  0
  6 27  1  0
  7 28  1  0
  7 29  1  0
  8 30  1  1
 10 31  1  0
 10 32  1  0
 11 33  1  1
 12 34  1  0
 14 35  1  0
 15 36  1  6
 16 37  1  0
 17 38  1  6
 18 39  1  0
 18 40  1  0
 19 41  1  0
 19 42  1  0
 20 43  1  0
 20 44  1  0
 21 45  1  0
 21 46  1  0
M  CHG  1  20   1
M  END
>  <filename_input>  (13) 
7NLV_UJE_docked.sdf

>  <pdb_id>  (13) 
7NLV_UJE

>  <pose_rank>  (13) 
12

>  <num_atoms_heavy>  (13) 
21

>  <num_torsions>  (13) 
6

>  <pose>  (13) 
[-9.463233844013313, -7.123666509943958, 19.91696163310857, 2.677917681037219, 2.1827305203467606, 0.46688953593642946, 0.49976304996219806, -0.15341949085134557, 4.610591239873664, 1.1099165857578344, -1.0103844496034322, 0.48792735578849883]

>  <energy>  (13) 
-557.502916155631

>  <inter_energy>  (13) 
-571.546000092595

>  <intra_energy>  (13) 
16.83286825017376

>  <rmsd>  (13) 
8.97607

>  <sdf_rank>  (13) 
0

$$$$

     RDKit          3D

 46 48  0  0  0  0  0  0  0  0999 V2000
   -9.9169   -9.1539   18.9854 O   0  0  0  0  0  0  0  0  0  0  0  0
  -15.8089   -5.6839   20.1824 O   0  0  0  0  0  0  0  0  0  0  0  0
   -9.1674   -8.3830   19.5781 C   0  0  0  0  0  0  0  0  0  0  0  0
   -9.7197   -7.1553   20.2710 C   0  0  0  0  0  0  0  0  0  0  0  0
   -8.7583   -6.0115   20.3414 C   0  0  0  0  0  0  0  0  0  0  0  0
   -9.4012   -4.7708   20.9443 C   0  0  0  0  0  0  0  0  0  0  0  0
  -10.9174   -4.8167   21.0776 C   0  0  0  0  0  0  0  0  0  0  0  0
  -11.6440   -3.7939   20.2113 C   0  0  2  0  0  0  0  0  0  0  0  0
  -12.6134   -2.5559   21.1483 S   0  0  0  0  0  0  0  0  0  0  0  0
  -13.2789   -2.0415   19.5483 C   0  0  0  0  0  0  0  0  0  0  0  0
  -13.6218   -3.3169   18.7819 C   0  0  2  0  0  0  0  0  0  0  0  0
  -14.9095   -3.8267   19.1810 N   0  0  0  0  0  0  0  0  0  0  0  0
  -14.8303   -5.0213   19.7906 C   0  0  0  0  0  0  0  0  0  0  0  0
  -13.5282   -5.3927   19.8171 N   0  0  0  0  0  0  0  0  0  0  0  0
  -12.6508   -4.4217   19.2092 C   0  0  2  0  0  0  0  0  0  0  0  0
   -7.8455   -8.6027   19.6744 N   0  0  0  0  0  0  0  0  0  0  0  0
   -7.2245   -9.8142   19.1553 C   0  0  1  0  0  0  0  0  0  0  0  0
   -5.7673   -9.6593   18.7674 C   0  0  0  0  0  0  0  0  0  0  0  0
   -5.2554  -11.0846   18.7347 C   0  0  0  0  0  0  0  0  0  0  0  0
   -6.2505  -11.8962   19.4413 N   0  0  0  0  0  0  0  0  0  0  0  0
   -7.1681  -10.9737   20.1267 C   0  0  0  0  0  0  0  0  0  0  0  0
  -10.6139   -6.8222   19.7236 H   0  0  0  0  0  0  0  0  0  0  0  0
   -9.9420   -7.4482   21.3077 H   0  0  0  0  0  0  0  0  0  0  0  0
   -7.8997   -6.3056   20.9628 H   0  0  0  0  0  0  0  0  0  0  0  0
   -8.4395   -5.7686   19.3170 H   0  0  0  0  0  0  0  0  0  0  0  0
   -8.9771   -4.6233   21.9485 H   0  0  0  0  0  0  0  0  0  0  0  0
   -9.1843   -3.9489   20.2461 H   0  0  0  0  0  0  0  0  0  0  0  0
  -11.2604   -5.8213   20.7891 H   0  0  0  0  0  0  0  0  0  0  0  0
  -11.1538   -4.5747   22.1243 H   0  0  0  0  0  0  0  0  0  0  0  0
  -10.8023   -3.3154   19.6893 H   0  0  0  0  0  0  0  0  0  0  0  0
  -14.1830   -1.4319   19.6926 H   0  0  0  0  0  0  0  0  0  0  0  0
  -12.5488   -1.4328   18.9946 H   0  0  0  0  0  0  0  0  0  0  0  0
  -13.5865   -3.0739   17.7097 H   0  0  0  0  0  0  0  0  0  0  0  0
  -15.7958   -3.3284   19.0165 H   0  0  0  0  0  0  0  0  0  0  0  0
  -13.1981   -6.2772   20.2289 H   0  0  0  0  0  0  0  0  0  0  0  0
  -12.0490   -4.8805   18.4108 H   0  0  0  0  0  0  0  0  0  0  0  0
   -7.2531   -7.8932   20.1291 H   0  0  0  0  0  0  0  0  0  0  0  0
   -7.8858  -10.0079   18.2978 H   0  0  0  0  0  0  0  0  0  0  0  0
   -5.6719   -9.1848   17.7796 H   0  0  0  0  0  0  0  0  0  0  0  0
   -5.2052   -9.0185   19.4626 H   0  0  0  0  0  0  0  0  0  0  0  0
   -5.1525  -11.4284   17.6949 H   0  0  0  0  0  0  0  0  0  0  0  0
   -4.2657  -11.1645   19.2081 H   0  0  0  0  0  0  0  0  0  0  0  0
   -6.7724  -12.4764   18.7690 H   0  0  0  0  0  0  0  0  0  0  0  0
   -5.7926  -12.5223   20.1189 H   0  0  0  0  0  0  0  0  0  0  0  0
   -6.7665  -10.6602   21.1017 H   0  0  0  0  0  0  0  0  0  0  0  0
   -8.1510  -11.4113   20.3556 H   0  0  0  0  0  0  0  0  0  0  0  0
  1  3  2  0
  2 13  2  0
  3  4  1  0
  3 16  1  0
  4  5  1  0
  5  6  1  0
  6  7  1  0
  8  7  1  0
  8  9  1  0
  8 15  1  0
  9 10  1  0
 11 10  1  0
 11 12  1  0
 11 15  1  0
 12 13  1  0
 13 14  1  0
 15 14  1  0
 17 16  1  0
 17 18  1  0
 17 21  1  0
 18 19  1  0
 19 20  1  0
 20 21  1  0
  4 22  1  0
  4 23  1  0
  5 24  1  0
  5 25  1  0
  6 26  1  0
  6 27  1  0
  7 28  1  0
  7 29  1  0
  8 30  1  6
 10 31  1  0
 10 32  1  0
 11 33  1  6
 12 34  1  0
 14 35  1  0
 15 36  1  6
 16 37  1  0
 17 38  1  6
 18 39  1  0
 18 40  1  0
 19 41  1  0
 19 42  1  0
 20 43  1  0
 20 44  1  0
 21 45  1  0
 21 46  1  0
M  CHG  1  20   1
M  END
>  <filename_input>  (14) 
7NLV_UJE_docked.sdf

>  <pdb_id>  (14) 
7NLV_UJE

>  <pose_rank>  (14) 
13

>  <num_atoms_heavy>  (14) 
21

>  <num_torsions>  (14) 
6

>  <pose>  (14) 
[-9.401190061401449, -4.770767612199058, 20.944297795496606, 1.0840331175765585, 3.4918624334458053, -0.18354505984982677, 2.9573023326868855, 4.290461558919889, -2.047864301658477, 0.8591823931927607, -5.086561677987704, -13.292304597110288]

>  <energy>  (14) 
-472.3213468016568

>  <inter_energy>  (14) 
-485.2768826259439

>  <intra_energy>  (14) 
0.3721845381179176

>  <rmsd>  (14) 
9.55277

>  <sdf_rank>  (14) 
0

$$$$

     RDKit          3D

 46 48  0  0  0  0  0  0  0  0999 V2000
   -8.0140  -10.8919   19.7874 O   0  0  0  0  0  0  0  0  0  0  0  0
  -13.7947   -2.8311   20.4745 O   0  0  0  0  0  0  0  0  0  0  0  0
   -7.9344   -9.7007   19.5009 C   0  0  0  0  0  0  0  0  0  0  0  0
   -9.1033   -8.7712   19.7499 C   0  0  0  0  0  0  0  0  0  0  0  0
   -9.2461   -8.3407   21.1753 C   0  0  0  0  0  0  0  0  0  0  0  0
  -10.1736   -7.1419   21.3122 C   0  0  0  0  0  0  0  0  0  0  0  0
   -9.8118   -5.9322   20.4610 C   0  0  0  0  0  0  0  0  0  0  0  0
   -9.6669   -4.6395   21.2562 C   0  0  2  0  0  0  0  0  0  0  0  0
  -10.4098   -4.6885   22.9284 S   0  0  0  0  0  0  0  0  0  0  0  0
  -10.0901   -2.9105   22.9926 C   0  0  0  0  0  0  0  0  0  0  0  0
  -10.5184   -2.3358   21.6442 C   0  0  2  0  0  0  0  0  0  0  0  0
  -11.9405   -2.1037   21.6120 N   0  0  0  0  0  0  0  0  0  0  0  0
  -12.5747   -2.8813   20.7186 C   0  0  0  0  0  0  0  0  0  0  0  0
  -11.6466   -3.6442   20.0937 N   0  0  0  0  0  0  0  0  0  0  0  0
  -10.3048   -3.4029   20.5664 C   0  0  2  0  0  0  0  0  0  0  0  0
   -6.8136   -9.1596   18.9952 N   0  0  0  0  0  0  0  0  0  0  0  0
   -5.5890   -9.9321   18.8321 C   0  0  1  0  0  0  0  0  0  0  0  0
   -4.3123   -9.1268   18.9705 C   0  0  0  0  0  0  0  0  0  0  0  0
   -3.2566  -10.1789   19.2406 C   0  0  0  0  0  0  0  0  0  0  0  0
   -3.9769  -11.3984   19.6174 N   0  0  0  0  0  0  0  0  0  0  0  0
   -5.3801  -11.0279   19.8555 C   0  0  0  0  0  0  0  0  0  0  0  0
   -8.9692   -7.8730   19.1292 H   0  0  0  0  0  0  0  0  0  0  0  0
  -10.0150   -9.3310   19.4940 H   0  0  0  0  0  0  0  0  0  0  0  0
   -9.6560   -9.1769   21.7607 H   0  0  0  0  0  0  0  0  0  0  0  0
   -8.2524   -8.0489   21.5461 H   0  0  0  0  0  0  0  0  0  0  0  0
  -11.1870   -7.4636   21.0304 H   0  0  0  0  0  0  0  0  0  0  0  0
  -10.0878   -6.8116   22.3580 H   0  0  0  0  0  0  0  0  0  0  0  0
   -8.8563   -6.1372   19.9559 H   0  0  0  0  0  0  0  0  0  0  0  0
  -10.6395   -5.7807   19.7525 H   0  0  0  0  0  0  0  0  0  0  0  0
   -8.5728   -4.5453   21.3189 H   0  0  0  0  0  0  0  0  0  0  0  0
  -10.6740   -2.4499   23.8031 H   0  0  0  0  0  0  0  0  0  0  0  0
   -9.0268   -2.7076   23.1881 H   0  0  0  0  0  0  0  0  0  0  0  0
   -9.9438   -1.4114   21.4852 H   0  0  0  0  0  0  0  0  0  0  0  0
  -12.4194   -1.4152   22.2100 H   0  0  0  0  0  0  0  0  0  0  0  0
  -11.8751   -4.3266   19.3567 H   0  0  0  0  0  0  0  0  0  0  0  0
   -9.6373   -3.1325   19.7349 H   0  0  0  0  0  0  0  0  0  0  0  0
   -6.8201   -8.1687   18.7143 H   0  0  0  0  0  0  0  0  0  0  0  0
   -5.7506  -10.3223   17.8164 H   0  0  0  0  0  0  0  0  0  0  0  0
   -4.0916   -8.5776   18.0433 H   0  0  0  0  0  0  0  0  0  0  0  0
   -4.3702   -8.3655   19.7624 H   0  0  0  0  0  0  0  0  0  0  0  0
   -2.6554  -10.3558   18.3366 H   0  0  0  0  0  0  0  0  0  0  0  0
   -2.5685   -9.8592   20.0371 H   0  0  0  0  0  0  0  0  0  0  0  0
   -3.9202  -12.0897   18.8560 H   0  0  0  0  0  0  0  0  0  0  0  0
   -3.5639  -11.8168   20.4631 H   0  0  0  0  0  0  0  0  0  0  0  0
   -5.5273  -10.6532   20.8792 H   0  0  0  0  0  0  0  0  0  0  0  0
   -6.0848  -11.8670   19.7597 H   0  0  0  0  0  0  0  0  0  0  0  0
  1  3  2  0
  2 13  2  0
  3  4  1  0
  3 16  1  0
  4  5  1  0
  5  6  1  0
  6  7  1  0
  8  7  1  0
  8  9  1  0
  8 15  1  0
  9 10  1  0
 11 10  1  0
 11 12  1  0
 11 15  1  0
 12 13  1  0
 13 14  1  0
 15 14  1  0
 17 16  1  0
 17 18  1  0
 17 21  1  0
 18 19  1  0
 19 20  1  0
 20 21  1  0
  4 22  1  0
  4 23  1  0
  5 24  1  0
  5 25  1  0
  6 26  1  0
  6 27  1  0
  7 28  1  0
  7 29  1  0
  8 30  1  1
 10 31  1  0
 10 32  1  0
 11 33  1  6
 12 34  1  0
 14 35  1  0
 15 36  1  6
 16 37  1  0
 17 38  1  6
 18 39  1  0
 18 40  1  0
 19 41  1  0
 19 42  1  0
 20 43  1  0
 20 44  1  0
 21 45  1  0
 21 46  1  0
M  CHG  1  20   1
M  END
>  <filename_input>  (15) 
7NLV_UJE_docked.sdf

>  <pdb_id>  (15) 
7NLV_UJE

>  <pose_rank>  (15) 
14

>  <num_atoms_heavy>  (15) 
21

>  <num_torsions>  (15) 
6

>  <pose>  (15) 
[-10.173587051022054, -7.141857357949815, 21.312215869848387, 0.5406318413677192, 1.3414014601572044, 1.5660940685980194, 2.2230553343924377, 4.103215921018945, 1.9598585050175668, 1.8600501167491403, 1.0083880392580509, 1.030804698002366]

>  <energy>  (15) 
-549.9078209235216

>  <inter_energy>  (15) 
-587.6192861928023

>  <intra_energy>  (15) 
27.75121082402148

>  <rmsd>  (15) 
9.08668

>  <sdf_rank>  (15) 
0

$$$$

     RDKit          3D

 46 48  0  0  0  0  0  0  0  0999 V2000
   -6.1874  -10.5415   17.7322 O   0  0  0  0  0  0  0  0  0  0  0  0
  -13.5620   -4.3568   19.7694 O   0  0  0  0  0  0  0  0  0  0  0  0
   -6.3271   -9.8535   18.7394 C   0  0  0  0  0  0  0  0  0  0  0  0
   -7.6521   -9.1827   19.0337 C   0  0  0  0  0  0  0  0  0  0  0  0
   -8.2895   -9.6279   20.3116 C   0  0  0  0  0  0  0  0  0  0  0  0
   -9.4789   -8.7541   20.6830 C   0  0  0  0  0  0  0  0  0  0  0  0
   -9.5415   -7.4012   19.9868 C   0  0  0  0  0  0  0  0  0  0  0  0
   -9.5511   -6.2148   20.9443 C   0  0  2  0  0  0  0  0  0  0  0  0
  -10.5339   -6.4745   22.4665 S   0  0  0  0  0  0  0  0  0  0  0  0
  -10.2743   -4.7153   22.7915 C   0  0  0  0  0  0  0  0  0  0  0  0
  -10.5114   -3.9829   21.4727 C   0  0  2  0  0  0  0  0  0  0  0  0
  -11.9183   -3.7599   21.2536 N   0  0  0  0  0  0  0  0  0  0  0  0
  -12.3913   -4.4269   20.1876 C   0  0  0  0  0  0  0  0  0  0  0  0
  -11.3605   -5.1000   19.6234 N   0  0  0  0  0  0  0  0  0  0  0  0
  -10.1112   -4.9079   20.3194 C   0  0  2  0  0  0  0  0  0  0  0  0
   -5.3415   -9.6920   19.6380 N   0  0  0  0  0  0  0  0  0  0  0  0
   -4.0686  -10.3912   19.5215 C   0  0  1  0  0  0  0  0  0  0  0  0
   -3.1390  -10.2099   20.7051 C   0  0  0  0  0  0  0  0  0  0  0  0
   -2.1645  -11.3617   20.5706 C   0  0  0  0  0  0  0  0  0  0  0  0
   -2.7710  -12.3070   19.6289 N   0  0  0  0  0  0  0  0  0  0  0  0
   -4.1701  -11.8989   19.4316 C   0  0  0  0  0  0  0  0  0  0  0  0
   -7.4849   -8.0969   19.0907 H   0  0  0  0  0  0  0  0  0  0  0  0
   -8.3383   -9.4638   18.2212 H   0  0  0  0  0  0  0  0  0  0  0  0
   -8.6330  -10.6665   20.1954 H   0  0  0  0  0  0  0  0  0  0  0  0
   -7.5413   -9.5470   21.1138 H   0  0  0  0  0  0  0  0  0  0  0  0
  -10.3966   -9.3066   20.4328 H   0  0  0  0  0  0  0  0  0  0  0  0
   -9.3705   -8.5368   21.7558 H   0  0  0  0  0  0  0  0  0  0  0  0
   -8.6643   -7.3089   19.3295 H   0  0  0  0  0  0  0  0  0  0  0  0
  -10.4902   -7.3712   19.4310 H   0  0  0  0  0  0  0  0  0  0  0  0
   -8.4815   -6.1203   21.1828 H   0  0  0  0  0  0  0  0  0  0  0  0
  -10.9846   -4.3623   23.5536 H   0  0  0  0  0  0  0  0  0  0  0  0
   -9.2579   -4.5296   23.1687 H   0  0  0  0  0  0  0  0  0  0  0  0
   -9.9440   -3.0415   21.5148 H   0  0  0  0  0  0  0  0  0  0  0  0
  -12.4991   -3.1538   21.8505 H   0  0  0  0  0  0  0  0  0  0  0  0
  -11.4582   -5.6886   18.7837 H   0  0  0  0  0  0  0  0  0  0  0  0
   -9.3343   -4.5322   19.6372 H   0  0  0  0  0  0  0  0  0  0  0  0
   -5.4903   -9.0547   20.4333 H   0  0  0  0  0  0  0  0  0  0  0  0
   -3.6902   -9.9331   18.5957 H   0  0  0  0  0  0  0  0  0  0  0  0
   -2.6157   -9.2439   20.6494 H   0  0  0  0  0  0  0  0  0  0  0  0
   -3.6689  -10.2079   21.6690 H   0  0  0  0  0  0  0  0  0  0  0  0
   -1.2008  -11.0017   20.1811 H   0  0  0  0  0  0  0  0  0  0  0  0
   -1.9704  -11.8364   21.5437 H   0  0  0  0  0  0  0  0  0  0  0  0
   -2.2671  -12.2808   18.7310 H   0  0  0  0  0  0  0  0  0  0  0  0
   -2.7220  -13.2676   19.9973 H   0  0  0  0  0  0  0  0  0  0  0  0
   -4.8206  -12.3042   20.2205 H   0  0  0  0  0  0  0  0  0  0  0  0
   -4.6110  -12.2603   18.4909 H   0  0  0  0  0  0  0  0  0  0  0  0
  1  3  2  0
  2 13  2  0
  3  4  1  0
  3 16  1  0
  4  5  1  0
  5  6  1  0
  6  7  1  0
  8  7  1  0
  8  9  1  0
  8 15  1  0
  9 10  1  0
 11 10  1  0
 11 12  1  0
 11 15  1  0
 12 13  1  0
 13 14  1  0
 15 14  1  0
 17 16  1  0
 17 18  1  0
 17 21  1  0
 18 19  1  0
 19 20  1  0
 20 21  1  0
  4 22  1  0
  4 23  1  0
  5 24  1  0
  5 25  1  0
  6 26  1  0
  6 27  1  0
  7 28  1  0
  7 29  1  0
  8 30  1  1
 10 31  1  0
 10 32  1  0
 11 33  1  1
 12 34  1  0
 14 35  1  0
 15 36  1  6
 16 37  1  0
 17 38  1  6
 18 39  1  0
 18 40  1  0
 19 41  1  0
 19 42  1  0
 20 43  1  0
 20 44  1  0
 21 45  1  0
 21 46  1  0
M  CHG  1  20   1
M  END
>  <filename_input>  (16) 
7NLV_UJE_docked.sdf

>  <pdb_id>  (16) 
7NLV_UJE

>  <pose_rank>  (16) 
15

>  <num_atoms_heavy>  (16) 
21

>  <num_torsions>  (16) 
6

>  <pose>  (16) 
[-9.478910377299586, -8.75409632836335, 20.682961702112213, 0.5312534166277322, 1.4352158475689236, 1.881077986841939, 2.8602455799210467, 4.193148264785369, 2.6570496528424554, 1.436828320780192, 1.0838953269481777, 0.654448633645763]

>  <energy>  (16) 
-597.2466804493836

>  <inter_energy>  (16) 
-604.4674436468767

>  <intra_energy>  (16) 
12.04029384767542

>  <rmsd>  (16) 
8.92984

>  <sdf_rank>  (16) 
0

$$$$

     RDKit          3D

 46 48  0  0  0  0  0  0  0  0999 V2000
   -9.2428   -6.7140   18.2783 O   0  0  0  0  0  0  0  0  0  0  0  0
  -10.5696   -1.2887   21.1539 O   0  0  0  0  0  0  0  0  0  0  0  0
   -9.9932   -7.4138   18.9524 C   0  0  0  0  0  0  0  0  0  0  0  0
   -9.4851   -8.6871   19.5950 C   0  0  0  0  0  0  0  0  0  0  0  0
   -8.6724   -8.4633   20.8307 C   0  0  0  0  0  0  0  0  0  0  0  0
   -9.4405   -7.6646   21.8739 C   0  0  0  0  0  0  0  0  0  0  0  0
   -9.3458   -6.1506   21.7411 C   0  0  0  0  0  0  0  0  0  0  0  0
   -9.7574   -5.3941   22.9992 C   0  0  2  0  0  0  0  0  0  0  0  0
  -11.5659   -5.2390   23.2352 S   0  0  0  0  0  0  0  0  0  0  0  0
  -11.1721   -4.1043   24.5861 C   0  0  0  0  0  0  0  0  0  0  0  0
  -10.0725   -3.1754   24.0764 C   0  0  2  0  0  0  0  0  0  0  0  0
  -10.6293   -2.0964   23.2998 N   0  0  0  0  0  0  0  0  0  0  0  0
  -10.2567   -2.1373   22.0097 C   0  0  0  0  0  0  0  0  0  0  0  0
   -9.4308   -3.1979   21.8455 N   0  0  0  0  0  0  0  0  0  0  0  0
   -9.2149   -3.9404   23.0638 C   0  0  2  0  0  0  0  0  0  0  0  0
  -11.2724   -7.0748   19.1837 N   0  0  0  0  0  0  0  0  0  0  0  0
  -11.8318   -5.8115   18.7211 C   0  0  1  0  0  0  0  0  0  0  0  0
  -13.2050   -5.4890   19.2763 C   0  0  0  0  0  0  0  0  0  0  0  0
  -13.3358   -3.9963   19.0546 C   0  0  0  0  0  0  0  0  0  0  0  0
  -11.9848   -3.5008   18.7769 N   0  0  0  0  0  0  0  0  0  0  0  0
  -11.0412   -4.5796   19.1071 C   0  0  0  0  0  0  0  0  0  0  0  0
  -10.3518   -9.3107   19.8594 H   0  0  0  0  0  0  0  0  0  0  0  0
   -8.8227   -9.1708   18.8620 H   0  0  0  0  0  0  0  0  0  0  0  0
   -8.3993   -9.4390   21.2591 H   0  0  0  0  0  0  0  0  0  0  0  0
   -7.7761   -7.8898   20.5519 H   0  0  0  0  0  0  0  0  0  0  0  0
  -10.5016   -7.9453   21.8019 H   0  0  0  0  0  0  0  0  0  0  0  0
   -8.9809   -7.9121   22.8422 H   0  0  0  0  0  0  0  0  0  0  0  0
   -8.3042   -5.8880   21.5041 H   0  0  0  0  0  0  0  0  0  0  0  0
  -10.0466   -5.8549   20.9466 H   0  0  0  0  0  0  0  0  0  0  0  0
   -9.3149   -6.0239   23.7850 H   0  0  0  0  0  0  0  0  0  0  0  0
  -12.0627   -3.5207   24.8623 H   0  0  0  0  0  0  0  0  0  0  0  0
  -10.8412   -4.6542   25.4795 H   0  0  0  0  0  0  0  0  0  0  0  0
   -9.5185   -2.8114   24.9542 H   0  0  0  0  0  0  0  0  0  0  0  0
  -11.2468   -1.3713   23.6921 H   0  0  0  0  0  0  0  0  0  0  0  0
   -9.0009   -3.4488   20.9437 H   0  0  0  0  0  0  0  0  0  0  0  0
   -8.1416   -4.0194   23.2916 H   0  0  0  0  0  0  0  0  0  0  0  0
  -11.8760   -7.7276   19.7036 H   0  0  0  0  0  0  0  0  0  0  0  0
  -11.8322   -5.9956   17.6366 H   0  0  0  0  0  0  0  0  0  0  0  0
  -13.9878   -6.0373   18.7316 H   0  0  0  0  0  0  0  0  0  0  0  0
  -13.3180   -5.7764   20.3321 H   0  0  0  0  0  0  0  0  0  0  0  0
  -13.9983   -3.7950   18.1999 H   0  0  0  0  0  0  0  0  0  0  0  0
  -13.7710   -3.4985   19.9337 H   0  0  0  0  0  0  0  0  0  0  0  0
  -11.8994   -3.2516   17.7812 H   0  0  0  0  0  0  0  0  0  0  0  0
  -11.7846   -2.6600   19.3372 H   0  0  0  0  0  0  0  0  0  0  0  0
  -10.7944   -4.5817   20.1790 H   0  0  0  0  0  0  0  0  0  0  0  0
  -10.0710   -4.4947   18.5957 H   0  0  0  0  0  0  0  0  0  0  0  0
  1  3  2  0
  2 13  2  0
  3  4  1  0
  3 16  1  0
  4  5  1  0
  5  6  1  0
  6  7  1  0
  8  7  1  0
  8  9  1  0
  8 15  1  0
  9 10  1  0
 11 10  1  0
 11 12  1  0
 11 15  1  0
 12 13  1  0
 13 14  1  0
 15 14  1  0
 17 16  1  0
 17 18  1  0
 17 21  1  0
 18 19  1  0
 19 20  1  0
 20 21  1  0
  4 22  1  0
  4 23  1  0
  5 24  1  0
  5 25  1  0
  6 26  1  0
  6 27  1  0
  7 28  1  0
  7 29  1  0
  8 30  1  1
 10 31  1  0
 10 32  1  0
 11 33  1  1
 12 34  1  0
 14 35  1  0
 15 36  1  1
 16 37  1  0
 17 38  1  6
 18 39  1  0
 18 40  1  0
 19 41  1  0
 19 42  1  0
 20 43  1  0
 20 44  1  0
 21 45  1  0
 21 46  1  0
M  CHG  1  20   1
M  END
>  <filename_input>  (17) 
7NLV_UJE_docked.sdf

>  <pdb_id>  (17) 
7NLV_UJE

>  <pose_rank>  (17) 
16

>  <num_atoms_heavy>  (17) 
21

>  <num_torsions>  (17) 
6

>  <pose>  (17) 
[-9.440477347680261, -7.664593917261835, 21.87388730101177, 1.184784440714676, 1.1598081036066448, 1.9715536539638312, 1.6626886762832043, 2.2123501339165608, 1.9410680044589885, 1.5004250238806596, 0.36404141256257355, -0.05743869362829361]

>  <energy>  (17) 
-367.0159913631186

>  <inter_energy>  (17) 
-415.80840252203933

>  <intra_energy>  (17) 
40.914575153664984

>  <rmsd>  (17) 
7.695

>  <sdf_rank>  (17) 
0

$$$$

     RDKit          3D

 46 48  0  0  0  0  0  0  0  0999 V2000
  -11.0300   -7.2971   20.8008 O   0  0  0  0  0  0  0  0  0  0  0  0
   -1.9874   -9.8567   21.8130 O   0  0  0  0  0  0  0  0  0  0  0  0
  -10.5964   -7.3052   19.6522 C   0  0  0  0  0  0  0  0  0  0  0  0
  -10.2526   -8.6124   18.9701 C   0  0  0  0  0  0  0  0  0  0  0  0
   -9.1688   -9.3875   19.6500 C   0  0  0  0  0  0  0  0  0  0  0  0
   -7.8273   -9.2110   18.9533 C   0  0  0  0  0  0  0  0  0  0  0  0
   -6.6029   -9.5515   19.7921 C   0  0  0  0  0  0  0  0  0  0  0  0
   -5.6102  -10.4711   19.0896 C   0  0  2  0  0  0  0  0  0  0  0  0
   -5.4395  -12.1275   19.8496 S   0  0  0  0  0  0  0  0  0  0  0  0
   -4.0443  -12.3681   18.7256 C   0  0  0  0  0  0  0  0  0  0  0  0
   -3.2226  -11.0816   18.7599 C   0  0  2  0  0  0  0  0  0  0  0  0
   -2.3361  -11.0672   19.8962 N   0  0  0  0  0  0  0  0  0  0  0  0
   -2.6360  -10.0991   20.7782 C   0  0  0  0  0  0  0  0  0  0  0  0
   -3.6939   -9.4052   20.2951 N   0  0  0  0  0  0  0  0  0  0  0  0
   -4.1657   -9.9044   19.0261 C   0  0  2  0  0  0  0  0  0  0  0  0
  -10.4418   -6.1779   18.9378 N   0  0  0  0  0  0  0  0  0  0  0  0
  -10.8582   -4.8780   19.4473 C   0  0  1  0  0  0  0  0  0  0  0  0
  -12.2910   -4.8231   19.9394 C   0  0  0  0  0  0  0  0  0  0  0  0
  -12.3169   -3.5905   20.8194 C   0  0  0  0  0  0  0  0  0  0  0  0
  -10.9180   -3.2518   21.0958 N   0  0  0  0  0  0  0  0  0  0  0  0
  -10.0928   -4.3876   20.6577 C   0  0  0  0  0  0  0  0  0  0  0  0
  -11.1582   -9.2363   18.9418 H   0  0  0  0  0  0  0  0  0  0  0  0
   -9.8808   -8.3592   17.9663 H   0  0  0  0  0  0  0  0  0  0  0  0
   -9.0793   -9.0382   20.6892 H   0  0  0  0  0  0  0  0  0  0  0  0
   -9.4360  -10.4539   19.6135 H   0  0  0  0  0  0  0  0  0  0  0  0
   -7.8196   -9.8585   18.0640 H   0  0  0  0  0  0  0  0  0  0  0  0
   -7.7460   -8.1387   18.7219 H   0  0  0  0  0  0  0  0  0  0  0  0
   -6.0864   -8.6145   20.0476 H   0  0  0  0  0  0  0  0  0  0  0  0
   -6.9639  -10.0900   20.6808 H   0  0  0  0  0  0  0  0  0  0  0  0
   -6.0571  -10.5467   18.0874 H   0  0  0  0  0  0  0  0  0  0  0  0
   -3.4312  -13.2180   19.0598 H   0  0  0  0  0  0  0  0  0  0  0  0
   -4.3928  -12.5866   17.7054 H   0  0  0  0  0  0  0  0  0  0  0  0
   -2.6764  -11.0167   17.8073 H   0  0  0  0  0  0  0  0  0  0  0  0
   -1.5561  -11.7285   20.0191 H   0  0  0  0  0  0  0  0  0  0  0  0
   -4.1182   -8.6037   20.7833 H   0  0  0  0  0  0  0  0  0  0  0  0
   -4.1783   -9.1062   18.2693 H   0  0  0  0  0  0  0  0  0  0  0  0
  -10.0160   -6.2344   18.0017 H   0  0  0  0  0  0  0  0  0  0  0  0
  -10.6806   -4.2633   18.5525 H   0  0  0  0  0  0  0  0  0  0  0  0
  -12.9918   -4.7200   19.0978 H   0  0  0  0  0  0  0  0  0  0  0  0
  -12.5957   -5.7359   20.4722 H   0  0  0  0  0  0  0  0  0  0  0  0
  -12.8137   -2.7599   20.2966 H   0  0  0  0  0  0  0  0  0  0  0  0
  -12.8744   -3.7754   21.7495 H   0  0  0  0  0  0  0  0  0  0  0  0
  -10.6525   -2.4032   20.5759 H   0  0  0  0  0  0  0  0  0  0  0  0
  -10.7807   -3.0698   22.1002 H   0  0  0  0  0  0  0  0  0  0  0  0
  -10.0338   -5.1632   21.4355 H   0  0  0  0  0  0  0  0  0  0  0  0
   -9.0465   -4.1224   20.4458 H   0  0  0  0  0  0  0  0  0  0  0  0
  1  3  2  0
  2 13  2  0
  3  4  1  0
  3 16  1  0
  4  5  1  0
  5  6  1  0
  6  7  1  0
  8  7  1  0
  8  9  1  0
  8 15  1  0
  9 10  1  0
 11 10  1  0
 11 12  1  0
 11 15  1  0
 12 13  1  0
 13 14  1  0
 15 14  1  0
 17 16  1  0
 17 18  1  0
 17 21  1  0
 18 19  1  0
 19 20  1  0
 20 21  1  0
  4 22  1  0
  4 23  1  0
  5 24  1  0
  5 25  1  0
  6 26  1  0
  6 27  1  0
  7 28  1  0
  7 29  1  0
  8 30  1  6
 10 31  1  0
 10 32  1  0
 11 33  1  6
 12 34  1  0
 14 35  1  0
 15 36  1  6
 16 37  1  0
 17 38  1  6
 18 39  1  0
 18 40  1  0
 19 41  1  0
 19 42  1  0
 20 43  1  0
 20 44  1  0
 21 45  1  0
 21 46  1  0
M  CHG  1  20   1
M  END
>  <filename_input>  (18) 
7NLV_UJE_docked.sdf

>  <pdb_id>  (18) 
7NLV_UJE

>  <pose_rank>  (18) 
17

>  <num_atoms_heavy>  (18) 
21

>  <num_torsions>  (18) 
6

>  <pose>  (18) 
[-7.827320314247164, -9.211011899049875, 18.953289087468495, -0.7185879349266429, 0.20089978283321794, -0.054778845233553704, -0.3103681870603421, -0.5253268178622555, -0.48956346532458855, -2.7337313560643226, 5.488975908145554, -0.6650222741416001]

>  <energy>  (18) 
-738.0321144968348

>  <inter_energy>  (18) 
-739.4941668727647

>  <intra_energy>  (18) 
23.136244692722208

>  <rmsd>  (18) 
2.02539

>  <sdf_rank>  (18) 
0

$$$$

     RDKit          3D

 46 48  0  0  0  0  0  0  0  0999 V2000
  -12.4946   -6.8668   20.5960 O   0  0  0  0  0  0  0  0  0  0  0  0
   -2.5264   -9.8874   20.9967 O   0  0  0  0  0  0  0  0  0  0  0  0
  -11.7887   -6.1515   19.8909 C   0  0  0  0  0  0  0  0  0  0  0  0
  -10.6644   -6.7498   19.0722 C   0  0  0  0  0  0  0  0  0  0  0  0
   -9.6148   -7.4352   19.8883 C   0  0  0  0  0  0  0  0  0  0  0  0
   -8.2564   -7.4020   19.2029 C   0  0  0  0  0  0  0  0  0  0  0  0
   -7.1460   -8.1672   19.9102 C   0  0  0  0  0  0  0  0  0  0  0  0
   -6.6942   -9.4220   19.1714 C   0  0  2  0  0  0  0  0  0  0  0  0
   -6.8835  -10.9740   20.1231 S   0  0  0  0  0  0  0  0  0  0  0  0
   -5.9467  -11.7634   18.7938 C   0  0  0  0  0  0  0  0  0  0  0  0
   -4.7753  -10.8390   18.4699 C   0  0  2  0  0  0  0  0  0  0  0  0
   -3.6870  -11.0448   19.3922 N   0  0  0  0  0  0  0  0  0  0  0  0
   -3.4448   -9.9692   20.1599 C   0  0  0  0  0  0  0  0  0  0  0  0
   -4.3100   -8.9924   19.7976 N   0  0  0  0  0  0  0  0  0  0  0  0
   -5.2033   -9.3929   18.7375 C   0  0  2  0  0  0  0  0  0  0  0  0
  -11.9954   -4.8286   19.7800 N   0  0  0  0  0  0  0  0  0  0  0  0
  -13.1236   -4.1672   20.4222 C   0  0  1  0  0  0  0  0  0  0  0  0
  -14.4812   -4.7220   20.0390 C   0  0  0  0  0  0  0  0  0  0  0  0
  -15.3904   -4.2319   21.1470 C   0  0  0  0  0  0  0  0  0  0  0  0
  -14.5135   -3.7974   22.2380 N   0  0  0  0  0  0  0  0  0  0  0  0
  -13.1565   -4.2747   21.9318 C   0  0  0  0  0  0  0  0  0  0  0  0
  -11.0961   -7.4846   18.3767 H   0  0  0  0  0  0  0  0  0  0  0  0
  -10.1695   -5.9153   18.5538 H   0  0  0  0  0  0  0  0  0  0  0  0
   -9.5348   -6.9303   20.8624 H   0  0  0  0  0  0  0  0  0  0  0  0
   -9.9102   -8.4875   20.0122 H   0  0  0  0  0  0  0  0  0  0  0  0
   -8.3743   -7.8293   18.1962 H   0  0  0  0  0  0  0  0  0  0  0  0
   -7.9437   -6.3473   19.2033 H   0  0  0  0  0  0  0  0  0  0  0  0
   -6.2795   -7.4985   20.0195 H   0  0  0  0  0  0  0  0  0  0  0  0
   -7.5507   -8.4950   20.8792 H   0  0  0  0  0  0  0  0  0  0  0  0
   -7.3667   -9.4146   18.3009 H   0  0  0  0  0  0  0  0  0  0  0  0
   -5.5747  -12.7446   19.1238 H   0  0  0  0  0  0  0  0  0  0  0  0
   -6.5785  -11.9249   17.9080 H   0  0  0  0  0  0  0  0  0  0  0  0
   -4.4797  -11.0376   17.4292 H   0  0  0  0  0  0  0  0  0  0  0  0
   -3.1521  -11.9227   19.4559 H   0  0  0  0  0  0  0  0  0  0  0  0
   -4.3285   -8.0595   20.2339 H   0  0  0  0  0  0  0  0  0  0  0  0
   -5.1410   -8.6983   17.8869 H   0  0  0  0  0  0  0  0  0  0  0  0
  -11.3363   -4.2650   19.2242 H   0  0  0  0  0  0  0  0  0  0  0  0
  -12.9584   -3.1378   20.0713 H   0  0  0  0  0  0  0  0  0  0  0  0
  -14.8046   -4.3305   19.0633 H   0  0  0  0  0  0  0  0  0  0  0  0
  -14.4827   -5.8173   19.9372 H   0  0  0  0  0  0  0  0  0  0  0  0
  -16.0029   -3.3898   20.7925 H   0  0  0  0  0  0  0  0  0  0  0  0
  -16.0784   -5.0235   21.4787 H   0  0  0  0  0  0  0  0  0  0  0  0
  -14.5180   -2.7696   22.3046 H   0  0  0  0  0  0  0  0  0  0  0  0
  -14.8377   -4.1795   23.1379 H   0  0  0  0  0  0  0  0  0  0  0  0
  -13.0133   -5.3140   22.2624 H   0  0  0  0  0  0  0  0  0  0  0  0
  -12.3604   -3.7074   22.4362 H   0  0  0  0  0  0  0  0  0  0  0  0
  1  3  2  0
  2 13  2  0
  3  4  1  0
  3 16  1  0
  4  5  1  0
  5  6  1  0
  6  7  1  0
  8  7  1  0
  8  9  1  0
  8 15  1  0
  9 10  1  0
 11 10  1  0
 11 12  1  0
 11 15  1  0
 12 13  1  0
 13 14  1  0
 15 14  1  0
 17 16  1  0
 17 18  1  0
 17 21  1  0
 18 19  1  0
 19 20  1  0
 20 21  1  0
  4 22  1  0
  4 23  1  0
  5 24  1  0
  5 25  1  0
  6 26  1  0
  6 27  1  0
  7 28  1  0
  7 29  1  0
  8 30  1  6
 10 31  1  0
 10 32  1  0
 11 33  1  6
 12 34  1  0
 14 35  1  0
 15 36  1  6
 16 37  1  0
 17 38  1  1
 18 39  1  0
 18 40  1  0
 19 41  1  0
 19 42  1  0
 20 43  1  0
 20 44  1  0
 21 45  1  0
 21 46  1  0
M  CHG  1  20   1
M  END
>  <filename_input>  (19) 
7NLV_UJE_docked.sdf

>  <pdb_id>  (19) 
7NLV_UJE

>  <pose_rank>  (19) 
18

>  <num_atoms_heavy>  (19) 
21

>  <num_torsions>  (19) 
6

>  <pose>  (19) 
[-8.256377199698028, -7.401983764677237, 19.202906898784153, -0.4780693893688734, 0.287909336423456, -0.2330853547457139, 0.11058105190240959, -1.417760672055636, -0.4736890179056028, -2.8121192898216165, 5.134416575615806, -0.7816267066993139]

>  <energy>  (19) 
-530.0306620552669

>  <inter_energy>  (19) 
-529.4173628822169

>  <intra_energy>  (19) 
22.83537087116863

>  <rmsd>  (19) 
3.11765

>  <sdf_rank>  (19) 
0

$$$$

     RDKit          3D

 46 48  0  0  0  0  0  0  0  0999 V2000
   -6.3494  -10.7787   21.1883 O   0  0  0  0  0  0  0  0  0  0  0  0
   -9.6305   -3.4546   22.4840 O   0  0  0  0  0  0  0  0  0  0  0  0
   -6.4008  -10.2253   20.0936 C   0  0  0  0  0  0  0  0  0  0  0  0
   -7.5345   -9.2772   19.7647 C   0  0  0  0  0  0  0  0  0  0  0  0
   -8.7449   -9.9488   19.1976 C   0  0  0  0  0  0  0  0  0  0  0  0
  -10.0265   -9.2308   19.5952 C   0  0  0  0  0  0  0  0  0  0  0  0
   -9.8966   -7.7292   19.8124 C   0  0  0  0  0  0  0  0  0  0  0  0
  -11.2181   -7.0339   20.1202 C   0  0  2  0  0  0  0  0  0  0  0  0
  -11.6258   -5.6458   18.9989 S   0  0  0  0  0  0  0  0  0  0  0  0
  -12.9815   -5.2808   20.1375 C   0  0  0  0  0  0  0  0  0  0  0  0
  -12.4125   -5.3877   21.5505 C   0  0  2  0  0  0  0  0  0  0  0  0
  -11.7368   -4.1714   21.9265 N   0  0  0  0  0  0  0  0  0  0  0  0
  -10.4173   -4.3445   22.1105 C   0  0  0  0  0  0  0  0  0  0  0  0
  -10.1331   -5.6521   21.9020 N   0  0  0  0  0  0  0  0  0  0  0  0
  -11.2939   -6.4340   21.5507 C   0  0  2  0  0  0  0  0  0  0  0  0
   -5.4513  -10.3983   19.1590 N   0  0  0  0  0  0  0  0  0  0  0  0
   -4.2530  -11.1872   19.4130 C   0  0  1  0  0  0  0  0  0  0  0  0
   -3.2461  -10.5260   20.3331 C   0  0  0  0  0  0  0  0  0  0  0  0
   -2.3852  -11.6797   20.8047 C   0  0  0  0  0  0  0  0  0  0  0  0
   -3.1240  -12.9038   20.4827 N   0  0  0  0  0  0  0  0  0  0  0  0
   -4.4909  -12.5103   20.1088 C   0  0  0  0  0  0  0  0  0  0  0  0
   -7.8287   -8.7564   20.6879 H   0  0  0  0  0  0  0  0  0  0  0  0
   -7.1604   -8.5902   18.9913 H   0  0  0  0  0  0  0  0  0  0  0  0
   -8.6667   -9.9569   18.1004 H   0  0  0  0  0  0  0  0  0  0  0  0
   -8.7876  -10.9725   19.5979 H   0  0  0  0  0  0  0  0  0  0  0  0
  -10.7678   -9.3951   18.7993 H   0  0  0  0  0  0  0  0  0  0  0  0
  -10.3194   -9.6523   20.5680 H   0  0  0  0  0  0  0  0  0  0  0  0
   -9.2109   -7.5591   20.6556 H   0  0  0  0  0  0  0  0  0  0  0  0
   -9.5218   -7.3012   18.8710 H   0  0  0  0  0  0  0  0  0  0  0  0
  -11.9325   -7.8605   19.9923 H   0  0  0  0  0  0  0  0  0  0  0  0
  -13.3629   -4.2646   19.9588 H   0  0  0  0  0  0  0  0  0  0  0  0
  -13.8166   -5.9824   19.9944 H   0  0  0  0  0  0  0  0  0  0  0  0
  -13.2503   -5.6216   22.2238 H   0  0  0  0  0  0  0  0  0  0  0  0
  -12.2145   -3.2662   22.0419 H   0  0  0  0  0  0  0  0  0  0  0  0
   -9.1858   -6.0478   21.9855 H   0  0  0  0  0  0  0  0  0  0  0  0
  -11.4185   -7.2840   22.2377 H   0  0  0  0  0  0  0  0  0  0  0  0
   -5.5742   -9.9601   18.2350 H   0  0  0  0  0  0  0  0  0  0  0  0
   -3.8886  -11.3069   18.3820 H   0  0  0  0  0  0  0  0  0  0  0  0
   -2.6443   -9.7836   19.7885 H   0  0  0  0  0  0  0  0  0  0  0  0
   -3.7187   -9.9782   21.1617 H   0  0  0  0  0  0  0  0  0  0  0  0
   -1.4172  -11.6707   20.2824 H   0  0  0  0  0  0  0  0  0  0  0  0
   -2.1790  -11.6096   21.8829 H   0  0  0  0  0  0  0  0  0  0  0  0
   -2.6711  -13.3913   19.6965 H   0  0  0  0  0  0  0  0  0  0  0  0
   -3.1387  -13.5418   21.2912 H   0  0  0  0  0  0  0  0  0  0  0  0
   -5.1290  -12.3871   20.9963 H   0  0  0  0  0  0  0  0  0  0  0  0
   -5.0140  -13.2525   19.4878 H   0  0  0  0  0  0  0  0  0  0  0  0
  1  3  2  0
  2 13  2  0
  3  4  1  0
  3 16  1  0
  4  5  1  0
  5  6  1  0
  6  7  1  0
  8  7  1  0
  8  9  1  0
  8 15  1  0
  9 10  1  0
 11 10  1  0
 11 12  1  0
 11 15  1  0
 12 13  1  0
 13 14  1  0
 15 14  1  0
 17 16  1  0
 17 18  1  0
 17 21  1  0
 18 19  1  0
 19 20  1  0
 20 21  1  0
  4 22  1  0
  4 23  1  0
  5 24  1  0
  5 25  1  0
  6 26  1  0
  6 27  1  0
  7 28  1  0
  7 29  1  0
  8 30  1  1
 10 31  1  0
 10 32  1  0
 11 33  1  1
 12 34  1  0
 14 35  1  0
 15 36  1  1
 16 37  1  0
 17 38  1  6
 18 39  1  0
 18 40  1  0
 19 41  1  0
 19 42  1  0
 20 43  1  0
 20 44  1  0
 21 45  1  0
 21 46  1  0
M  CHG  1  20   1
M  END
>  <filename_input>  (20) 
7NLV_UJE_docked.sdf

>  <pdb_id>  (20) 
7NLV_UJE

>  <pose_rank>  (20) 
19

>  <num_atoms_heavy>  (20) 
21

>  <num_torsions>  (20) 
6

>  <pose>  (20) 
[-10.02649749226044, -9.230753265011575, 19.59515015608032, -0.7856235326332504, -1.0070969553373128, -3.7350206817066445, 3.6998035576180337, 3.8104926229921525, -0.9354085310559881, -3.089291615051507, -0.0033404519964743947, 5.431317818688525]

>  <energy>  (20) 
-571.9187331618037

>  <inter_energy>  (20) 
-577.5713738456692

>  <intra_energy>  (20) 
25.29579510774556

>  <rmsd>  (20) 
8.82165

>  <sdf_rank>  (20) 
0

$$$$

     RDKit          3D

 46 48  0  0  0  0  0  0  0  0999 V2000
  -13.2420   -5.6128   19.9889 O   0  0  0  0  0  0  0  0  0  0  0  0
   -6.2731  -11.0531   21.0108 O   0  0  0  0  0  0  0  0  0  0  0  0
  -12.9327   -4.4836   20.3586 C   0  0  0  0  0  0  0  0  0  0  0  0
  -11.4777   -4.0720   20.4350 C   0  0  0  0  0  0  0  0  0  0  0  0
  -10.5726   -5.1323   20.9775 C   0  0  0  0  0  0  0  0  0  0  0  0
   -9.3305   -5.3084   20.1159 C   0  0  0  0  0  0  0  0  0  0  0  0
   -8.5667   -6.6091   20.3245 C   0  0  0  0  0  0  0  0  0  0  0  0
   -9.2550   -7.8313   19.7272 C   0  0  2  0  0  0  0  0  0  0  0  0
  -10.2531   -8.7992   20.9178 S   0  0  0  0  0  0  0  0  0  0  0  0
  -10.4032  -10.0337   19.6058 C   0  0  0  0  0  0  0  0  0  0  0  0
   -9.0156  -10.1935   18.9889 C   0  0  2  0  0  0  0  0  0  0  0  0
   -8.2039  -11.0899   19.7731 N   0  0  0  0  0  0  0  0  0  0  0  0
   -7.1442  -10.4802   20.3301 C   0  0  0  0  0  0  0  0  0  0  0  0
   -7.1596   -9.1810   19.9479 N   0  0  0  0  0  0  0  0  0  0  0  0
   -8.2758   -8.8564   19.0929 C   0  0  2  0  0  0  0  0  0  0  0  0
  -13.8528   -3.5567   20.6736 N   0  0  0  0  0  0  0  0  0  0  0  0
  -15.2804   -3.8015   20.5161 C   0  0  1  0  0  0  0  0  0  0  0  0
  -15.6805   -4.3487   19.1603 C   0  0  0  0  0  0  0  0  0  0  0  0
  -17.0492   -4.9479   19.4093 C   0  0  0  0  0  0  0  0  0  0  0  0
  -17.1878   -5.0690   20.8633 N   0  0  0  0  0  0  0  0  0  0  0  0
  -15.8617   -4.8367   21.4552 C   0  0  0  0  0  0  0  0  0  0  0  0
  -11.1380   -3.8128   19.4214 H   0  0  0  0  0  0  0  0  0  0  0  0
  -11.4239   -3.2216   21.1306 H   0  0  0  0  0  0  0  0  0  0  0  0
  -10.2634   -4.8505   21.9948 H   0  0  0  0  0  0  0  0  0  0  0  0
  -11.1241   -6.0840   20.9818 H   0  0  0  0  0  0  0  0  0  0  0  0
   -9.6404   -5.2629   19.0614 H   0  0  0  0  0  0  0  0  0  0  0  0
   -8.6417   -4.5032   20.4110 H   0  0  0  0  0  0  0  0  0  0  0  0
   -7.5754   -6.5074   19.8586 H   0  0  0  0  0  0  0  0  0  0  0  0
   -8.5074   -6.7744   21.4104 H   0  0  0  0  0  0  0  0  0  0  0  0
   -9.8994   -7.3666   18.9663 H   0  0  0  0  0  0  0  0  0  0  0  0
  -10.7439  -10.9920   20.0249 H   0  0  0  0  0  0  0  0  0  0  0  0
  -11.1372   -9.7185   18.8496 H   0  0  0  0  0  0  0  0  0  0  0  0
   -9.1548  -10.5541   17.9591 H   0  0  0  0  0  0  0  0  0  0  0  0
   -8.4137  -12.0911   19.8935 H   0  0  0  0  0  0  0  0  0  0  0  0
   -6.4478   -8.4953   20.2376 H   0  0  0  0  0  0  0  0  0  0  0  0
   -7.9312   -8.4125   18.1473 H   0  0  0  0  0  0  0  0  0  0  0  0
  -13.5394   -2.6454   21.0373 H   0  0  0  0  0  0  0  0  0  0  0  0
  -15.6638   -2.7884   20.7078 H   0  0  0  0  0  0  0  0  0  0  0  0
  -15.7339   -3.5443   18.4120 H   0  0  0  0  0  0  0  0  0  0  0  0
  -14.9595   -5.0787   18.7637 H   0  0  0  0  0  0  0  0  0  0  0  0
  -17.8323   -4.2893   19.0057 H   0  0  0  0  0  0  0  0  0  0  0  0
  -17.1533   -5.9253   18.9154 H   0  0  0  0  0  0  0  0  0  0  0  0
  -17.8564   -4.3674   21.2124 H   0  0  0  0  0  0  0  0  0  0  0  0
  -17.5398   -6.0030   21.1175 H   0  0  0  0  0  0  0  0  0  0  0  0
  -15.2586   -5.7566   21.4600 H   0  0  0  0  0  0  0  0  0  0  0  0
  -15.8933   -4.5161   22.5070 H   0  0  0  0  0  0  0  0  0  0  0  0
  1  3  2  0
  2 13  2  0
  3  4  1  0
  3 16  1  0
  4  5  1  0
  5  6  1  0
  6  7  1  0
  8  7  1  0
  8  9  1  0
  8 15  1  0
  9 10  1  0
 11 10  1  0
 11 12  1  0
 11 15  1  0
 12 13  1  0
 13 14  1  0
 15 14  1  0
 17 16  1  0
 17 18  1  0
 17 21  1  0
 18 19  1  0
 19 20  1  0
 20 21  1  0
  4 22  1  0
  4 23  1  0
  5 24  1  0
  5 25  1  0
  6 26  1  0
  6 27  1  0
  7 28  1  0
  7 29  1  0
  8 30  1  6
 10 31  1  0
 10 32  1  0
 11 33  1  6
 12 34  1  0
 14 35  1  0
 15 36  1  6
 16 37  1  0
 17 38  1  1
 18 39  1  0
 18 40  1  0
 19 41  1  0
 19 42  1  0
 20 43  1  0
 20 44  1  0
 21 45  1  0
 21 46  1  0
M  CHG  1  20   1
M  END
>  <filename_input>  (21) 
7NLV_UJE_docked.sdf

>  <pdb_id>  (21) 
7NLV_UJE

>  <pose_rank>  (21) 
20

>  <num_atoms_heavy>  (21) 
21

>  <num_torsions>  (21) 
6

>  <pose>  (21) 
[-9.330517874804425, -5.308423128074793, 20.115851729823465, -0.06671546589823349, 0.5198454226472015, -0.5102060504787002, 0.34038081585445057, -2.740456040518789, -0.12189216535387942, -2.6886876375663467, 4.494601703361671, -0.3661753296018582]

>  <energy>  (21) 
-361.6139045047494

>  <inter_energy>  (21) 
-384.31087990568625

>  <intra_energy>  (21) 
24.945407547492742

>  <rmsd>  (21) 
5.34097

>  <sdf_rank>  (21) 
0

$$$$

     RDKit          3D

 46 48  0  0  0  0  0  0  0  0999 V2000
   -9.6255   -4.5528   19.6103 O   0  0  0  0  0  0  0  0  0  0  0  0
  -11.7645   -0.6242   26.8521 O   0  0  0  0  0  0  0  0  0  0  0  0
  -10.7015   -4.9890   20.0092 C   0  0  0  0  0  0  0  0  0  0  0  0
  -11.7408   -4.0547   20.5918 C   0  0  0  0  0  0  0  0  0  0  0  0
  -11.7928   -2.7137   19.9311 C   0  0  0  0  0  0  0  0  0  0  0  0
  -11.1863   -1.6285   20.8089 C   0  0  0  0  0  0  0  0  0  0  0  0
  -10.6495   -2.0974   22.1546 C   0  0  0  0  0  0  0  0  0  0  0  0
   -9.6834   -1.1162   22.8091 C   0  0  2  0  0  0  0  0  0  0  0  0
   -8.4687   -1.8864   23.9412 S   0  0  0  0  0  0  0  0  0  0  0  0
   -8.0257   -0.2007   24.4207 C   0  0  0  0  0  0  0  0  0  0  0  0
   -9.3343    0.5633   24.6090 C   0  0  2  0  0  0  0  0  0  0  0  0
   -9.8931    0.3130   25.9138 N   0  0  0  0  0  0  0  0  0  0  0  0
  -11.0673   -0.3379   25.8611 C   0  0  0  0  0  0  0  0  0  0  0  0
  -11.3771   -0.5384   24.5581 N   0  0  0  0  0  0  0  0  0  0  0  0
  -10.3819   -0.0156   23.6533 C   0  0  2  0  0  0  0  0  0  0  0  0
  -11.0245   -6.2899   19.9177 N   0  0  0  0  0  0  0  0  0  0  0  0
  -10.1545   -7.2569   19.2613 C   0  0  1  0  0  0  0  0  0  0  0  0
   -9.0689   -7.8326   20.1489 C   0  0  0  0  0  0  0  0  0  0  0  0
   -8.6491   -9.0942   19.4231 C   0  0  0  0  0  0  0  0  0  0  0  0
   -9.7032   -9.3771   18.4449 N   0  0  0  0  0  0  0  0  0  0  0  0
  -10.8460   -8.5074   18.7618 C   0  0  0  0  0  0  0  0  0  0  0  0
  -12.7280   -4.5289   20.4899 H   0  0  0  0  0  0  0  0  0  0  0  0
  -11.4600   -3.8814   21.6412 H   0  0  0  0  0  0  0  0  0  0  0  0
  -11.2334   -2.7608   18.9851 H   0  0  0  0  0  0  0  0  0  0  0  0
  -12.8483   -2.4603   19.7533 H   0  0  0  0  0  0  0  0  0  0  0  0
  -10.3550   -1.1690   20.2540 H   0  0  0  0  0  0  0  0  0  0  0  0
  -12.0061   -0.9316   21.0372 H   0  0  0  0  0  0  0  0  0  0  0  0
  -11.5015   -2.2498   22.8335 H   0  0  0  0  0  0  0  0  0  0  0  0
  -10.0870   -3.0243   21.9691 H   0  0  0  0  0  0  0  0  0  0  0  0
   -9.1795   -0.6893   21.9294 H   0  0  0  0  0  0  0  0  0  0  0  0
   -7.4552   -0.2122   25.3611 H   0  0  0  0  0  0  0  0  0  0  0  0
   -7.3977    0.2755   23.6533 H   0  0  0  0  0  0  0  0  0  0  0  0
   -9.1166    1.6296   24.4489 H   0  0  0  0  0  0  0  0  0  0  0  0
   -9.4407    0.6022   26.7927 H   0  0  0  0  0  0  0  0  0  0  0  0
  -12.2348   -1.0150   24.2450 H   0  0  0  0  0  0  0  0  0  0  0  0
  -10.8320    0.6868   22.9364 H   0  0  0  0  0  0  0  0  0  0  0  0
  -11.9141   -6.6134   20.3238 H   0  0  0  0  0  0  0  0  0  0  0  0
   -9.7643   -6.6305   18.4456 H   0  0  0  0  0  0  0  0  0  0  0  0
   -8.2249   -7.1332   20.2415 H   0  0  0  0  0  0  0  0  0  0  0  0
   -9.4127   -8.0241   21.1761 H   0  0  0  0  0  0  0  0  0  0  0  0
   -7.6876   -8.9375   18.9122 H   0  0  0  0  0  0  0  0  0  0  0  0
   -8.5180   -9.9327   20.1229 H   0  0  0  0  0  0  0  0  0  0  0  0
   -9.3627   -9.1775   17.4935 H   0  0  0  0  0  0  0  0  0  0  0  0
   -9.9796  -10.3685   18.4862 H   0  0  0  0  0  0  0  0  0  0  0  0
  -11.4831   -8.9512   19.5411 H   0  0  0  0  0  0  0  0  0  0  0  0
  -11.5223   -8.3331   17.9119 H   0  0  0  0  0  0  0  0  0  0  0  0
  1  3  2  0
  2 13  2  0
  3  4  1  0
  3 16  1  0
  4  5  1  0
  5  6  1  0
  6  7  1  0
  8  7  1  0
  8  9  1  0
  8 15  1  0
  9 10  1  0
 11 10  1  0
 11 12  1  0
 11 15  1  0
 12 13  1  0
 13 14  1  0
 15 14  1  0
 17 16  1  0
 17 18  1  0
 17 21  1  0
 18 19  1  0
 19 20  1  0
 20 21  1  0
  4 22  1  0
  4 23  1  0
  5 24  1  0
  5 25  1  0
  6 26  1  0
  6 27  1  0
  7 28  1  0
  7 29  1  0
  8 30  1  6
 10 31  1  0
 10 32  1  0
 11 33  1  6
 12 34  1  0
 14 35  1  0
 15 36  1  6
 16 37  1  0
 17 38  1  6
 18 39  1  0
 18 40  1  0
 19 41  1  0
 19 42  1  0
 20 43  1  0
 20 44  1  0
 21 45  1  0
 21 46  1  0
M  CHG  1  20   1
M  END
>  <filename_input>  (22) 
7NLV_UJE_docked.sdf

>  <pdb_id>  (22) 
7NLV_UJE

>  <pose_rank>  (22) 
21

>  <num_atoms_heavy>  (22) 
21

>  <num_torsions>  (22) 
6

>  <pose>  (22) 
[-11.186273122826458, -1.6285474863837808, 20.808917241809034, -0.422836467993366, 4.5420086484354, -2.6836247566985025, 3.1793331717375515, -0.6249472452371012, 1.2136674376080143, -0.33357266218363496, 6.030724926984862, -7.631424354819273]

>  <energy>  (22) 
-333.0704504575774

>  <inter_energy>  (22) 
-335.5929179036901

>  <intra_energy>  (22) 
2.944592386855719

>  <rmsd>  (22) 
10.0391

>  <sdf_rank>  (22) 
0

$$$$

     RDKit          3D

 46 48  0  0  0  0  0  0  0  0999 V2000
  -10.0336   -7.3739   20.8100 O   0  0  0  0  0  0  0  0  0  0  0  0
  -10.4721    0.4145   22.0138 O   0  0  0  0  0  0  0  0  0  0  0  0
  -10.5121   -7.3020   19.6817 C   0  0  0  0  0  0  0  0  0  0  0  0
  -11.2856   -6.0732   19.2523 C   0  0  0  0  0  0  0  0  0  0  0  0
  -12.7703   -6.2200   19.3597 C   0  0  0  0  0  0  0  0  0  0  0  0
  -13.3740   -5.1786   20.2909 C   0  0  0  0  0  0  0  0  0  0  0  0
  -12.4466   -4.0381   20.6885 C   0  0  0  0  0  0  0  0  0  0  0  0
  -12.5144   -3.6751   22.1678 C   0  0  2  0  0  0  0  0  0  0  0  0
  -13.8956   -2.5601   22.6142 S   0  0  0  0  0  0  0  0  0  0  0  0
  -13.1141   -2.4378   24.2397 C   0  0  0  0  0  0  0  0  0  0  0  0
  -11.6182   -2.2499   23.9975 C   0  0  2  0  0  0  0  0  0  0  0  0
  -11.3113   -0.8694   23.7191 N   0  0  0  0  0  0  0  0  0  0  0  0
  -10.8489   -0.6802   22.4720 C   0  0  0  0  0  0  0  0  0  0  0  0
  -10.7922   -1.8863   21.8586 N   0  0  0  0  0  0  0  0  0  0  0  0
  -11.2372   -2.9704   22.7007 C   0  0  2  0  0  0  0  0  0  0  0  0
  -10.3464   -8.2754   18.7707 N   0  0  0  0  0  0  0  0  0  0  0  0
   -9.5161   -9.4438   19.0320 C   0  0  1  0  0  0  0  0  0  0  0  0
   -8.0330   -9.2265   18.8064 C   0  0  0  0  0  0  0  0  0  0  0  0
   -7.3871  -10.3597   19.5766 C   0  0  0  0  0  0  0  0  0  0  0  0
   -8.4204  -10.8934   20.4686 N   0  0  0  0  0  0  0  0  0  0  0  0
   -9.5451   -9.9457   20.4598 C   0  0  0  0  0  0  0  0  0  0  0  0
  -10.9747   -5.2299   19.8864 H   0  0  0  0  0  0  0  0  0  0  0  0
  -11.0583   -5.9101   18.1885 H   0  0  0  0  0  0  0  0  0  0  0  0
  -13.2132   -6.1030   18.3596 H   0  0  0  0  0  0  0  0  0  0  0  0
  -12.9869   -7.2159   19.7734 H   0  0  0  0  0  0  0  0  0  0  0  0
  -14.2508   -4.7431   19.7893 H   0  0  0  0  0  0  0  0  0  0  0  0
  -13.6150   -5.7106   21.2231 H   0  0  0  0  0  0  0  0  0  0  0  0
  -11.4137   -4.3324   20.4509 H   0  0  0  0  0  0  0  0  0  0  0  0
  -12.7722   -3.1504   20.1263 H   0  0  0  0  0  0  0  0  0  0  0  0
  -12.6491   -4.6652   22.6277 H   0  0  0  0  0  0  0  0  0  0  0  0
  -13.5195   -1.5765   24.7909 H   0  0  0  0  0  0  0  0  0  0  0  0
  -13.3064   -3.3401   24.8388 H   0  0  0  0  0  0  0  0  0  0  0  0
  -11.0932   -2.6192   24.8908 H   0  0  0  0  0  0  0  0  0  0  0  0
  -11.4335   -0.1092   24.4032 H   0  0  0  0  0  0  0  0  0  0  0  0
  -10.4650   -2.0164   20.8907 H   0  0  0  0  0  0  0  0  0  0  0  0
  -10.4640   -3.7486   22.7818 H   0  0  0  0  0  0  0  0  0  0  0  0
  -10.8207   -8.1933   17.8601 H   0  0  0  0  0  0  0  0  0  0  0  0
   -9.9660  -10.1528   18.3214 H   0  0  0  0  0  0  0  0  0  0  0  0
   -7.7852   -9.2873   17.7364 H   0  0  0  0  0  0  0  0  0  0  0  0
   -7.6906   -8.2348   19.1368 H   0  0  0  0  0  0  0  0  0  0  0  0
   -7.0407  -11.1415   18.8846 H   0  0  0  0  0  0  0  0  0  0  0  0
   -6.5119  -10.0095   20.1436 H   0  0  0  0  0  0  0  0  0  0  0  0
   -8.7343  -11.8146   20.1315 H   0  0  0  0  0  0  0  0  0  0  0  0
   -8.0510  -11.0089   21.4231 H   0  0  0  0  0  0  0  0  0  0  0  0
   -9.3839   -9.1263   21.1757 H   0  0  0  0  0  0  0  0  0  0  0  0
  -10.5059  -10.3921   20.7557 H   0  0  0  0  0  0  0  0  0  0  0  0
  1  3  2  0
  2 13  2  0
  3  4  1  0
  3 16  1  0
  4  5  1  0
  5  6  1  0
  6  7  1  0
  8  7  1  0
  8  9  1  0
  8 15  1  0
  9 10  1  0
 11 10  1  0
 11 12  1  0
 11 15  1  0
 12 13  1  0
 13 14  1  0
 15 14  1  0
 17 16  1  0
 17 18  1  0
 17 21  1  0
 18 19  1  0
 19 20  1  0
 20 21  1  0
  4 22  1  0
  4 23  1  0
  5 24  1  0
  5 25  1  0
  6 26  1  0
  6 27  1  0
  7 28  1  0
  7 29  1  0
  8 30  1  1
 10 31  1  0
 10 32  1  0
 11 33  1  1
 12 34  1  0
 14 35  1  0
 15 36  1  1
 16 37  1  0
 17 38  1  6
 18 39  1  0
 18 40  1  0
 19 41  1  0
 19 42  1  0
 20 43  1  0
 20 44  1  0
 21 45  1  0
 21 46  1  0
M  CHG  1  20   1
M  END
>  <filename_input>  (23) 
7NLV_UJE_docked.sdf

>  <pdb_id>  (23) 
7NLV_UJE

>  <pose_rank>  (23) 
22

>  <num_atoms_heavy>  (23) 
21

>  <num_torsions>  (23) 
6

>  <pose>  (23) 
[-13.374006711295921, -5.178559114561542, 20.29094601867126, -2.079955181207353, -0.6383429388335985, -3.665322816654989, 3.3908075174268477, 3.3369533693508084, -1.1208720566596226, -3.257744459033038, 0.8192205573823472, 6.166356571843461]

>  <energy>  (23) 
-335.80032485828946

>  <inter_energy>  (23) 
-365.0287896021439

>  <intra_energy>  (23) 
28.986220320572123

>  <rmsd>  (23) 
9.62764

>  <sdf_rank>  (23) 
0

$$$$

     RDKit          3D

 46 48  0  0  0  0  0  0  0  0999 V2000
   -3.3278  -12.6719   19.0386 O   0  0  0  0  0  0  0  0  0  0  0  0
    2.9362   -9.5687   27.2950 O   0  0  0  0  0  0  0  0  0  0  0  0
   -2.8821  -11.6451   19.5430 C   0  0  0  0  0  0  0  0  0  0  0  0
   -1.4745  -11.6113   20.0998 C   0  0  0  0  0  0  0  0  0  0  0  0
   -1.4050  -11.3001   21.5612 C   0  0  0  0  0  0  0  0  0  0  0  0
   -0.6734   -9.9920   21.8251 C   0  0  0  0  0  0  0  0  0  0  0  0
    0.2022   -9.9700   23.0707 C   0  0  0  0  0  0  0  0  0  0  0  0
    0.9384   -8.6521   23.2841 C   0  0  2  0  0  0  0  0  0  0  0  0
    2.7067   -8.6843   22.8124 S   0  0  0  0  0  0  0  0  0  0  0  0
    2.8204   -7.0555   23.5882 C   0  0  0  0  0  0  0  0  0  0  0  0
    2.0603   -7.1417   24.9097 C   0  0  2  0  0  0  0  0  0  0  0  0
    2.8855   -7.7177   25.9415 N   0  0  0  0  0  0  0  0  0  0  0  0
    2.4234   -8.9016   26.3773 C   0  0  0  0  0  0  0  0  0  0  0  0
    1.2797   -9.1776   25.7066 N   0  0  0  0  0  0  0  0  0  0  0  0
    0.9212   -8.1539   24.7549 C   0  0  2  0  0  0  0  0  0  0  0  0
   -3.5924  -10.5059   19.5936 N   0  0  0  0  0  0  0  0  0  0  0  0
   -4.9073  -10.3882   18.9771 C   0  0  1  0  0  0  0  0  0  0  0  0
   -6.0139  -11.1238   19.7067 C   0  0  0  0  0  0  0  0  0  0  0  0
   -7.2777  -10.4739   19.1824 C   0  0  0  0  0  0  0  0  0  0  0  0
   -6.8619   -9.2260   18.5361 N   0  0  0  0  0  0  0  0  0  0  0  0
   -5.4602   -8.9807   18.9079 C   0  0  0  0  0  0  0  0  0  0  0  0
   -1.0131  -12.5959   19.9336 H   0  0  0  0  0  0  0  0  0  0  0  0
   -0.9450  -10.8013   19.5766 H   0  0  0  0  0  0  0  0  0  0  0  0
   -2.4280  -11.2225   21.9580 H   0  0  0  0  0  0  0  0  0  0  0  0
   -0.8494  -12.1094   22.0576 H   0  0  0  0  0  0  0  0  0  0  0  0
   -0.0322   -9.7811   20.9565 H   0  0  0  0  0  0  0  0  0  0  0  0
   -1.4557   -9.2370   21.9927 H   0  0  0  0  0  0  0  0  0  0  0  0
   -0.4366  -10.1558   23.9467 H   0  0  0  0  0  0  0  0  0  0  0  0
    0.9695  -10.7466   22.9359 H   0  0  0  0  0  0  0  0  0  0  0  0
    0.3718   -7.9784   22.6245 H   0  0  0  0  0  0  0  0  0  0  0  0
    3.8735   -6.7970   23.7733 H   0  0  0  0  0  0  0  0  0  0  0  0
    2.3936   -6.2780   22.9376 H   0  0  0  0  0  0  0  0  0  0  0  0
    1.7291   -6.1240   25.1637 H   0  0  0  0  0  0  0  0  0  0  0  0
    3.7383   -7.2696   26.3058 H   0  0  0  0  0  0  0  0  0  0  0  0
    0.7231  -10.0306   25.8600 H   0  0  0  0  0  0  0  0  0  0  0  0
   -0.0957   -7.7795   24.9440 H   0  0  0  0  0  0  0  0  0  0  0  0
   -3.1954   -9.6911   20.0829 H   0  0  0  0  0  0  0  0  0  0  0  0
   -4.6847  -10.8083   17.9852 H   0  0  0  0  0  0  0  0  0  0  0  0
   -5.9959  -12.1974   19.4679 H   0  0  0  0  0  0  0  0  0  0  0  0
   -5.9216  -11.0592   20.8009 H   0  0  0  0  0  0  0  0  0  0  0  0
   -7.7712  -11.1339   18.4538 H   0  0  0  0  0  0  0  0  0  0  0  0
   -7.9953  -10.2836   19.9941 H   0  0  0  0  0  0  0  0  0  0  0  0
   -6.9438   -9.3155   17.5133 H   0  0  0  0  0  0  0  0  0  0  0  0
   -7.4596   -8.4439   18.8394 H   0  0  0  0  0  0  0  0  0  0  0  0
   -5.3869   -8.4733   19.8811 H   0  0  0  0  0  0  0  0  0  0  0  0
   -4.9220   -8.3247   18.2079 H   0  0  0  0  0  0  0  0  0  0  0  0
  1  3  2  0
  2 13  2  0
  3  4  1  0
  3 16  1  0
  4  5  1  0
  5  6  1  0
  6  7  1  0
  8  7  1  0
  8  9  1  0
  8 15  1  0
  9 10  1  0
 11 10  1  0
 11 12  1  0
 11 15  1  0
 12 13  1  0
 13 14  1  0
 15 14  1  0
 17 16  1  0
 17 18  1  0
 17 21  1  0
 18 19  1  0
 19 20  1  0
 20 21  1  0
  4 22  1  0
  4 23  1  0
  5 24  1  0
  5 25  1  0
  6 26  1  0
  6 27  1  0
  7 28  1  0
  7 29  1  0
  8 30  1  6
 10 31  1  0
 10 32  1  0
 11 33  1  1
 12 34  1  0
 14 35  1  0
 15 36  1  1
 16 37  1  0
 17 38  1  6
 18 39  1  0
 18 40  1  0
 19 41  1  0
 19 42  1  0
 20 43  1  0
 20 44  1  0
 21 45  1  0
 21 46  1  0
M  CHG  1  20   1
M  END
>  <filename_input>  (24) 
7NLV_UJE_docked.sdf

>  <pdb_id>  (24) 
7NLV_UJE

>  <pose_rank>  (24) 
23

>  <num_atoms_heavy>  (24) 
21

>  <num_torsions>  (24) 
6

>  <pose>  (24) 
[-0.6733662393956413, -9.991968512468471, 21.82510707549673, 1.1716399211446105, 3.275556527033951, -4.194395071755344, 6.962523467907508, -7.087489573010386, 4.788584359891745, -0.5494434622680364, 6.325605359842055, 5.822897201373548]

>  <energy>  (24) 
-358.0454699107424

>  <inter_energy>  (24) 
-347.41521756465386

>  <intra_energy>  (24) 
5.512033785127767

>  <rmsd>  (24) 
8.06679

>  <sdf_rank>  (24) 
0

$$$$

     RDKit          3D

 46 48  0  0  0  0  0  0  0  0999 V2000
   -6.9612  -11.3573   20.3131 O   0  0  0  0  0  0  0  0  0  0  0  0
   -8.7694   -3.3533   21.7132 O   0  0  0  0  0  0  0  0  0  0  0  0
   -7.0021  -10.4060   19.5382 C   0  0  0  0  0  0  0  0  0  0  0  0
   -8.2752   -9.6030   19.3741 C   0  0  0  0  0  0  0  0  0  0  0  0
   -9.5110  -10.3256   19.8079 C   0  0  0  0  0  0  0  0  0  0  0  0
  -10.6534   -9.3636   20.1005 C   0  0  0  0  0  0  0  0  0  0  0  0
  -10.2855   -7.8860   20.0896 C   0  0  0  0  0  0  0  0  0  0  0  0
  -11.3593   -6.9786   20.6796 C   0  0  2  0  0  0  0  0  0  0  0  0
  -12.0124   -5.7210   19.5210 S   0  0  0  0  0  0  0  0  0  0  0  0
  -12.8599   -5.0147   20.9530 C   0  0  0  0  0  0  0  0  0  0  0  0
  -11.8509   -4.9973   22.0990 C   0  0  2  0  0  0  0  0  0  0  0  0
  -10.9901   -3.8448   22.0094 N   0  0  0  0  0  0  0  0  0  0  0  0
   -9.7065   -4.1702   21.7825 C   0  0  0  0  0  0  0  0  0  0  0  0
   -9.6192   -5.5207   21.7321 N   0  0  0  0  0  0  0  0  0  0  0  0
  -10.8899   -6.1770   21.9242 C   0  0  2  0  0  0  0  0  0  0  0  0
   -5.9284  -10.0094   18.8347 N   0  0  0  0  0  0  0  0  0  0  0  0
   -4.6207  -10.6283   19.0076 C   0  0  1  0  0  0  0  0  0  0  0  0
   -3.7351   -9.9539   20.0365 C   0  0  0  0  0  0  0  0  0  0  0  0
   -2.7033  -11.0130   20.3654 C   0  0  0  0  0  0  0  0  0  0  0  0
   -3.2369  -12.2800   19.8574 N   0  0  0  0  0  0  0  0  0  0  0  0
   -4.6476  -12.0572   19.5066 C   0  0  0  0  0  0  0  0  0  0  0  0
   -8.1840   -8.6842   19.9720 H   0  0  0  0  0  0  0  0  0  0  0  0
   -8.3866   -9.3997   18.2988 H   0  0  0  0  0  0  0  0  0  0  0  0
   -9.8209  -11.0137   19.0075 H   0  0  0  0  0  0  0  0  0  0  0  0
   -9.2800  -10.8744   20.7328 H   0  0  0  0  0  0  0  0  0  0  0  0
  -11.4341   -9.5241   19.3425 H   0  0  0  0  0  0  0  0  0  0  0  0
  -10.9796   -9.5858   21.1273 H   0  0  0  0  0  0  0  0  0  0  0  0
   -9.3620   -7.7544   20.6725 H   0  0  0  0  0  0  0  0  0  0  0  0
  -10.1643   -7.5945   19.0358 H   0  0  0  0  0  0  0  0  0  0  0  0
  -12.1393   -7.7086   20.9420 H   0  0  0  0  0  0  0  0  0  0  0  0
  -13.1949   -3.9914   20.7279 H   0  0  0  0  0  0  0  0  0  0  0  0
  -13.7477   -5.6076   21.2180 H   0  0  0  0  0  0  0  0  0  0  0  0
  -12.4227   -5.0155   23.0386 H   0  0  0  0  0  0  0  0  0  0  0  0
  -11.3234   -2.8753   22.1087 H   0  0  0  0  0  0  0  0  0  0  0  0
   -8.7366   -6.0273   21.5730 H   0  0  0  0  0  0  0  0  0  0  0  0
  -10.8400   -6.8955   22.7556 H   0  0  0  0  0  0  0  0  0  0  0  0
   -6.0328   -9.2448   18.1525 H   0  0  0  0  0  0  0  0  0  0  0  0
   -4.2384  -10.5425   17.9798 H   0  0  0  0  0  0  0  0  0  0  0  0
   -3.2571   -9.0568   19.6160 H   0  0  0  0  0  0  0  0  0  0  0  0
   -4.2918   -9.6096   20.9205 H   0  0  0  0  0  0  0  0  0  0  0  0
   -1.7472  -10.7785   19.8746 H   0  0  0  0  0  0  0  0  0  0  0  0
   -2.5147  -11.0644   21.4479 H   0  0  0  0  0  0  0  0  0  0  0  0
   -2.7094  -12.5744   19.0232 H   0  0  0  0  0  0  0  0  0  0  0  0
   -3.1527  -13.0201   20.5689 H   0  0  0  0  0  0  0  0  0  0  0  0
   -5.3004  -12.1622   20.3857 H   0  0  0  0  0  0  0  0  0  0  0  0
   -5.0438  -12.7770   18.7752 H   0  0  0  0  0  0  0  0  0  0  0  0
  1  3  2  0
  2 13  2  0
  3  4  1  0
  3 16  1  0
  4  5  1  0
  5  6  1  0
  6  7  1  0
  8  7  1  0
  8  9  1  0
  8 15  1  0
  9 10  1  0
 11 10  1  0
 11 12  1  0
 11 15  1  0
 12 13  1  0
 13 14  1  0
 15 14  1  0
 17 16  1  0
 17 18  1  0
 17 21  1  0
 18 19  1  0
 19 20  1  0
 20 21  1  0
  4 22  1  0
  4 23  1  0
  5 24  1  0
  5 25  1  0
  6 26  1  0
  6 27  1  0
  7 28  1  0
  7 29  1  0
  8 30  1  1
 10 31  1  0
 10 32  1  0
 11 33  1  1
 12 34  1  0
 14 35  1  0
 15 36  1  1
 16 37  1  0
 17 38  1  6
 18 39  1  0
 18 40  1  0
 19 41  1  0
 19 42  1  0
 20 43  1  0
 20 44  1  0
 21 45  1  0
 21 46  1  0
M  CHG  1  20   1
M  END
>  <filename_input>  (25) 
7NLV_UJE_docked.sdf

>  <pdb_id>  (25) 
7NLV_UJE

>  <pose_rank>  (25) 
24

>  <num_atoms_heavy>  (25) 
21

>  <num_torsions>  (25) 
6

>  <pose>  (25) 
[-10.653375887989798, -9.363600682150137, 20.100543586785125, -0.8347454927175029, -1.3411662371963962, -3.8051813286469596, 3.0344339171610333, 4.013677347882185, 0.22740985943443098, -3.420377496555659, 0.2844777776480904, 5.511468953139854]

>  <energy>  (25) 
-554.6491653969794

>  <inter_energy>  (25) 
-582.2801786505922

>  <intra_energy>  (25) 
33.34168454811659

>  <rmsd>  (25) 
8.54481

>  <sdf_rank>  (25) 
0

$$$$

     RDKit          3D

 46 48  0  0  0  0  0  0  0  0999 V2000
  -10.3010   -8.2240   20.9540 O   0  0  0  0  0  0  0  0  0  0  0  0
   -2.8040  -13.9720   20.4990 O   0  0  0  0  0  0  0  0  0  0  0  0
  -10.3810   -8.2410   19.7290 C   0  0  0  0  0  0  0  0  0  0  0  0
  -10.1510   -9.5260   18.9620 C   0  0  0  0  0  0  0  0  0  0  0  0
   -9.1320  -10.4300   19.5800 C   0  0  0  0  0  0  0  0  0  0  0  0
   -7.7250   -9.8640   19.4530 C   0  0  0  0  0  0  0  0  0  0  0  0
   -6.6230  -10.6960   20.0950 C   0  0  0  0  0  0  0  0  0  0  0  0
   -5.2210  -10.1400   19.8720 C   0  0  2  0  0  0  0  0  0  0  0  0
   -4.5480  -10.4260   18.1940 S   0  0  0  0  0  0  0  0  0  0  0  0
   -2.9790   -9.8110   18.8480 C   0  0  0  0  0  0  0  0  0  0  0  0
   -2.7800  -10.4700   20.2110 C   0  0  2  0  0  0  0  0  0  0  0  0
   -2.2290  -11.7940   20.0670 N   0  0  0  0  0  0  0  0  0  0  0  0
   -3.0710  -12.7560   20.4800 C   0  0  0  0  0  0  0  0  0  0  0  0
   -4.1970  -12.1590   20.9380 N   0  0  0  0  0  0  0  0  0  0  0  0
   -4.1540  -10.7200   20.8400 C   0  0  2  0  0  0  0  0  0  0  0  0
  -10.7080   -7.1490   19.0180 N   0  0  0  0  0  0  0  0  0  0  0  0
  -11.0730   -5.8920   19.6580 C   0  0  1  0  0  0  0  0  0  0  0  0
   -9.9940   -4.8280   19.6190 C   0  0  0  0  0  0  0  0  0  0  0  0
  -10.7520   -3.5440   19.8860 C   0  0  0  0  0  0  0  0  0  0  0  0
  -12.1700   -3.8520   19.6800 N   0  0  0  0  0  0  0  0  0  0  0  0
  -12.2470   -5.1700   19.0320 C   0  0  0  0  0  0  0  0  0  0  0  0
  -11.1055  -10.0696   18.9038 H   0  0  0  0  0  0  0  0  0  0  0  0
   -9.7646   -9.2408   17.9724 H   0  0  0  0  0  0  0  0  0  0  0  0
   -9.3695  -10.5583   20.6464 H   0  0  0  0  0  0  0  0  0  0  0  0
   -9.1627  -11.3935   19.0501 H   0  0  0  0  0  0  0  0  0  0  0  0
   -7.4948   -9.7655   18.3819 H   0  0  0  0  0  0  0  0  0  0  0  0
   -7.7347   -8.9066   19.9945 H   0  0  0  0  0  0  0  0  0  0  0  0
   -6.8095  -10.7415   21.1781 H   0  0  0  0  0  0  0  0  0  0  0  0
   -6.6530  -11.6876   19.6198 H   0  0  0  0  0  0  0  0  0  0  0  0
   -5.3832   -9.0665   20.0486 H   0  0  0  0  0  0  0  0  0  0  0  0
   -2.1547  -10.0826   18.1722 H   0  0  0  0  0  0  0  0  0  0  0  0
   -2.9917   -8.7147   18.9379 H   0  0  0  0  0  0  0  0  0  0  0  0
   -2.1261   -9.8108   20.8008 H   0  0  0  0  0  0  0  0  0  0  0  0
   -1.2900  -11.9825   19.6879 H   0  0  0  0  0  0  0  0  0  0  0  0
   -5.0014  -12.6787   21.3173 H   0  0  0  0  0  0  0  0  0  0  0  0
   -4.3367  -10.2532   21.8191 H   0  0  0  0  0  0  0  0  0  0  0  0
  -10.7004   -7.2020   17.9894 H   0  0  0  0  0  0  0  0  0  0  0  0
  -11.2888   -6.2572   20.6729 H   0  0  0  0  0  0  0  0  0  0  0  0
   -9.2375   -5.0068   20.3973 H   0  0  0  0  0  0  0  0  0  0  0  0
   -9.4446   -4.8104   18.6662 H   0  0  0  0  0  0  0  0  0  0  0  0
  -10.5814   -3.2091   20.9198 H   0  0  0  0  0  0  0  0  0  0  0  0
  -10.4175   -2.7364   19.2182 H   0  0  0  0  0  0  0  0  0  0  0  0
  -12.6597   -3.8764   20.5858 H   0  0  0  0  0  0  0  0  0  0  0  0
  -12.6157   -3.1327   19.0928 H   0  0  0  0  0  0  0  0  0  0  0  0
  -12.1310   -5.0874   17.9413 H   0  0  0  0  0  0  0  0  0  0  0  0
  -13.2110   -5.6805   19.1740 H   0  0  0  0  0  0  0  0  0  0  0  0
  1  3  2  0
  2 13  2  0
  3  4  1  0
  3 16  1  0
  4  5  1  0
  5  6  1  0
  6  7  1  0
  8  7  1  0
  8  9  1  0
  8 15  1  0
  9 10  1  0
 11 10  1  0
 11 12  1  0
 11 15  1  0
 12 13  1  0
 13 14  1  0
 15 14  1  0
 17 16  1  0
 17 18  1  0
 17 21  1  0
 18 19  1  0
 19 20  1  0
 20 21  1  0
  4 22  1  0
  4 23  1  0
  5 24  1  0
  5 25  1  0
  6 26  1  0
  6 27  1  0
  7 28  1  0
  7 29  1  0
  8 30  1  1
 10 31  1  0
 10 32  1  0
 11 33  1  1
 12 34  1  0
 14 35  1  0
 15 36  1  1
 16 37  1  0
 17 38  1  1
 18 39  1  0
 18 40  1  0
 19 41  1  0
 19 42  1  0
 20 43  1  0
 20 44  1  0
 21 45  1  0
 21 46  1  0
M  CHG  1  20   1
M  END
>  <filename_input>  (26) 
7NLV_UJE_docked.sdf

>  <pdb_id>  (26) 
7NLV_UJE

>  <pose_rank>  (26) 
25

>  <num_atoms_heavy>  (26) 
21

>  <num_torsions>  (26) 
6

>  <pose>  (26) 
[-7.725, -9.864, 19.453, 1e-06, 1e-06, 1e-06, 0.0, 0.0, 0.0, 0.0, 0.0, 0.0]

>  <energy>  (26) 
-1322.1409383165503

>  <inter_energy>  (26) 
-1328.9155342576184

>  <intra_energy>  (26) 
1.1678019346395494

>  <rmsd>  (26) 
0.0

>  <sdf_rank>  (26) 
0

$$$$
