
     RDKit          3D

 44 47  0  0  0  0  0  0  0  0999 V2000
   -4.9581   41.0403   14.3884 C   0  0  0  0  0  0  0  0  0  0  0  0
   -5.3936   43.8100   14.3097 C   0  0  0  0  0  0  0  0  0  0  0  0
   -5.6890   45.2779   14.3084 C   0  0  1  0  0  0  0  0  0  0  0  0
    0.5585   42.0896   16.5314 C   0  0  0  0  0  0  0  0  0  0  0  0
    1.5105   41.9663   17.5251 C   0  0  0  0  0  0  0  0  0  0  0  0
    3.1333   42.9363   19.1786 C   0  0  0  0  0  0  0  0  0  0  0  0
   -4.0455   41.8865   13.7713 C   0  0  0  0  0  0  0  0  0  0  0  0
   -6.0813   41.5811   14.9607 C   0  0  0  0  0  0  0  0  0  0  0  0
   -6.2970   42.9455   14.9228 C   0  0  0  0  0  0  0  0  0  0  0  0
   -1.4964   45.3871   12.4745 C   0  0  0  0  0  0  0  0  0  0  0  0
   -0.2971   46.2081   12.3202 C   0  0  0  0  0  0  0  0  0  0  0  0
    1.0360   45.8284   12.5518 C   0  0  0  0  0  0  0  0  0  0  0  0
   -0.2283   47.5160   11.8887 C   0  0  0  0  0  0  0  0  0  0  0  0
    2.0915   43.0914   18.0951 C   0  0  0  0  0  0  0  0  0  0  0  0
    1.7051   44.3483   17.6400 C   0  0  0  0  0  0  0  0  0  0  0  0
    0.7558   44.4842   16.6386 C   0  0  0  0  0  0  0  0  0  0  0  0
    0.1801   43.3466   16.0849 C   0  0  0  0  0  0  0  0  0  0  0  0
   -1.5545   44.5610   14.9194 C   0  0  0  0  0  0  0  0  0  0  0  0
   -2.0782   44.6992   13.5298 C   0  0  0  0  0  0  0  0  0  0  0  0
   -3.2557   44.1319   13.0426 C   0  0  0  0  0  0  0  0  0  0  0  0
   -4.2503   43.2600   13.6997 C   0  0  0  0  0  0  0  0  0  0  0  0
   -5.7447   45.8011   13.0876 F   0  0  0  0  0  0  0  0  0  0  0  0
   -6.8617   45.5352   14.8698 F   0  0  0  0  0  0  0  0  0  0  0  0
   -4.7956   46.0111   14.9816 F   0  0  0  0  0  0  0  0  0  0  0  0
   -3.3956   44.4175   11.7672 N   0  0  0  0  0  0  0  0  0  0  0  0
    1.8491   46.8370   12.2737 N   0  0  0  0  0  0  0  0  0  0  0  0
    1.0626   47.8598   11.8743 N   0  0  0  0  0  0  0  0  0  0  0  0
    3.7550   41.8514   19.2568 O   0  0  0  0  0  0  0  0  0  0  0  0
    3.2571   43.8723   19.9880 O   0  0  0  0  0  0  0  0  0  0  0  0
   -0.7603   43.3651   15.0798 O   0  0  0  0  0  0  0  0  0  0  0  0
   -2.2944   45.2240   11.3947 O   0  0  0  0  0  0  0  0  0  0  0  0
   -2.6477   41.1978   13.0396 Cl  0  0  0  0  0  0  0  0  0  0  0  0
   -4.7829   39.9548   14.4177 H   0  0  0  0  0  0  0  0  0  0  0  0
    0.1005   41.1900   16.0943 H   0  0  0  0  0  0  0  0  0  0  0  0
    1.8117   40.9656   17.8685 H   0  0  0  0  0  0  0  0  0  0  0  0
   -6.8144   40.9250   15.4526 H   0  0  0  0  0  0  0  0  0  0  0  0
   -7.2041   43.3586   15.3880 H   0  0  0  0  0  0  0  0  0  0  0  0
    1.3572   44.8395   12.9110 H   0  0  0  0  0  0  0  0  0  0  0  0
   -1.0776   48.1566   11.6088 H   0  0  0  0  0  0  0  0  0  0  0  0
    2.1595   45.2476   18.0813 H   0  0  0  0  0  0  0  0  0  0  0  0
    0.4609   45.4833   16.2854 H   0  0  0  0  0  0  0  0  0  0  0  0
   -0.9304   45.4362   15.1528 H   0  0  0  0  0  0  0  0  0  0  0  0
   -2.4142   44.4931   15.6022 H   0  0  0  0  0  0  0  0  0  0  0  0
    2.8764   46.8404   12.3476 H   0  0  0  0  0  0  0  0  0  0  0  0
  1  7  2  0
  1  8  1  0
  2  3  1  0
  2  9  1  0
  2 21  2  0
  3 22  1  6
  3 23  1  0
  3 24  1  0
  4  5  2  0
  4 17  1  0
  5 14  1  0
  6 14  1  0
  6 28  2  0
  6 29  1  0
  7 21  1  0
  7 32  1  0
  8  9  2  0
 10 11  1  0
 10 19  2  0
 10 31  1  0
 11 12  2  0
 11 13  1  0
 12 26  1  0
 13 27  2  0
 14 15  2  0
 15 16  1  0
 16 17  2  0
 17 30  1  0
 18 19  1  0
 18 30  1  0
 19 20  1  0
 20 21  1  0
 20 25  2  0
 25 31  1  0
 26 27  1  0
  1 33  1  0
  4 34  1  0
  5 35  1  0
  8 36  1  0
  9 37  1  0
 12 38  1  0
 13 39  1  0
 15 40  1  0
 16 41  1  0
 18 42  1  0
 18 43  1  0
 26 44  1  0
M  CHG  1  29  -1
M  END
>  <filename_input>  (1) 
7NP6_UK8_docked.sdf

>  <pdb_id>  (1) 
7NP6_UK8

>  <pose_rank>  (1) 
0

>  <num_atoms_heavy>  (1) 
32

>  <num_torsions>  (1) 
7

>  <pose>  (1) 
[-1.4964350237345012, 45.38711017852521, 12.474511463805758, 4.220332701746181, 3.2835901961449268, -2.1351212043668384, -6.726897772032826, -0.33241697397048475, -1.9636120526683654, 3.6746420981466335, -0.47871885662108477, -0.33443786982965645, 3.3219810066449]

>  <energy>  (1) 
-1128.4859007129405

>  <inter_energy>  (1) 
-1127.9673432156092

>  <intra_energy>  (1) 
11.34508160118347

>  <rmsd>  (1) 
0.581776

>  <sdf_rank>  (1) 
0

$$$$

     RDKit          3D

 44 47  0  0  0  0  0  0  0  0999 V2000
   -6.5807   43.8360   14.7585 C   0  0  0  0  0  0  0  0  0  0  0  0
   -4.4510   42.2862   13.7941 C   0  0  0  0  0  0  0  0  0  0  0  0
   -3.3522   41.3971   13.3003 C   0  0  1  0  0  0  0  0  0  0  0  0
    0.7082   42.1949   16.5416 C   0  0  0  0  0  0  0  0  0  0  0  0
    1.6353   42.1145   17.5629 C   0  0  0  0  0  0  0  0  0  0  0  0
    3.1812   43.1563   19.2461 C   0  0  0  0  0  0  0  0  0  0  0  0
   -5.4852   44.4338   14.1484 C   0  0  0  0  0  0  0  0  0  0  0  0
   -6.6057   42.4703   14.8842 C   0  0  0  0  0  0  0  0  0  0  0  0
   -5.5572   41.7056   14.4094 C   0  0  0  0  0  0  0  0  0  0  0  0
   -1.2965   45.2649   12.4791 C   0  0  0  0  0  0  0  0  0  0  0  0
    0.0333   45.8543   12.3357 C   0  0  0  0  0  0  0  0  0  0  0  0
    0.4031   46.9475   11.5337 C   0  0  0  0  0  0  0  0  0  0  0  0
    1.1912   45.4738   12.9805 C   0  0  0  0  0  0  0  0  0  0  0  0
    2.1659   43.2646   18.1321 C   0  0  0  0  0  0  0  0  0  0  0  0
    1.7547   44.5027   17.6482 C   0  0  0  0  0  0  0  0  0  0  0  0
    0.8301   44.5957   16.6192 C   0  0  0  0  0  0  0  0  0  0  0  0
    0.3047   43.4336   16.0665 C   0  0  0  0  0  0  0  0  0  0  0  0
   -1.5417   44.5065   14.9343 C   0  0  0  0  0  0  0  0  0  0  0  0
   -2.0095   44.7116   13.5332 C   0  0  0  0  0  0  0  0  0  0  0  0
   -3.2617   44.3563   13.0319 C   0  0  0  0  0  0  0  0  0  0  0  0
   -4.4074   43.6890   13.6827 C   0  0  0  0  0  0  0  0  0  0  0  0
   -2.2825   41.3965   14.0896 F   0  0  0  0  0  0  0  0  0  0  0  0
   -3.7498   40.1352   13.2231 F   0  0  0  0  0  0  0  0  0  0  0  0
   -2.9071   41.7128   12.0790 F   0  0  0  0  0  0  0  0  0  0  0  0
   -3.3274   44.6395   11.7500 N   0  0  0  0  0  0  0  0  0  0  0  0
    1.6928   47.2082   11.6902 N   0  0  0  0  0  0  0  0  0  0  0  0
    2.1598   46.2986   12.5727 N   0  0  0  0  0  0  0  0  0  0  0  0
    3.6573   42.0281   19.5110 O   0  0  0  0  0  0  0  0  0  0  0  0
    3.4269   44.1882   19.8952 O   0  0  0  0  0  0  0  0  0  0  0  0
   -0.6073   43.4095   15.0358 O   0  0  0  0  0  0  0  0  0  0  0  0
   -2.0933   45.2284   11.3868 O   0  0  0  0  0  0  0  0  0  0  0  0
   -5.4534   46.1496   14.0112 Cl  0  0  0  0  0  0  0  0  0  0  0  0
   -7.4141   44.4475   15.1346 H   0  0  0  0  0  0  0  0  0  0  0  0
    0.2898   41.2759   16.1053 H   0  0  0  0  0  0  0  0  0  0  0  0
    1.9567   41.1283   17.9291 H   0  0  0  0  0  0  0  0  0  0  0  0
   -7.4653   41.9810   15.3656 H   0  0  0  0  0  0  0  0  0  0  0  0
   -5.5973   40.6119   14.5200 H   0  0  0  0  0  0  0  0  0  0  0  0
   -0.2777   47.5046   10.8733 H   0  0  0  0  0  0  0  0  0  0  0  0
    1.2975   44.6458   13.6968 H   0  0  0  0  0  0  0  0  0  0  0  0
    2.1693   45.4215   18.0887 H   0  0  0  0  0  0  0  0  0  0  0  0
    0.5152   45.5804   16.2434 H   0  0  0  0  0  0  0  0  0  0  0  0
   -1.0493   45.4262   15.2830 H   0  0  0  0  0  0  0  0  0  0  0  0
   -2.4180   44.2660   15.5542 H   0  0  0  0  0  0  0  0  0  0  0  0
    2.2320   47.9557   11.2304 H   0  0  0  0  0  0  0  0  0  0  0  0
  1  7  2  0
  1  8  1  0
  2  3  1  0
  2  9  1  0
  2 21  2  0
  3 22  1  1
  3 23  1  0
  3 24  1  0
  4  5  2  0
  4 17  1  0
  5 14  1  0
  6 14  1  0
  6 28  2  0
  6 29  1  0
  7 21  1  0
  7 32  1  0
  8  9  2  0
 10 11  1  0
 10 19  2  0
 10 31  1  0
 11 12  2  0
 11 13  1  0
 12 26  1  0
 13 27  2  0
 14 15  2  0
 15 16  1  0
 16 17  2  0
 17 30  1  0
 18 19  1  0
 18 30  1  0
 19 20  1  0
 20 21  1  0
 20 25  2  0
 25 31  1  0
 26 27  1  0
  1 33  1  0
  4 34  1  0
  5 35  1  0
  8 36  1  0
  9 37  1  0
 12 38  1  0
 13 39  1  0
 15 40  1  0
 16 41  1  0
 18 42  1  0
 18 43  1  0
 26 44  1  0
M  CHG  1  29  -1
M  END
>  <filename_input>  (2) 
7NP6_UK8_docked.sdf

>  <pdb_id>  (2) 
7NP6_UK8

>  <pose_rank>  (2) 
1

>  <num_atoms_heavy>  (2) 
32

>  <num_torsions>  (2) 
7

>  <pose>  (2) 
[-1.2965206283467028, 45.264880861034854, 12.479148213288058, 4.831791504620537, 3.151622065498006, -0.18968366367204967, 2.7541924441073564, -6.284245684566185, 0.7917470902430397, -8.561683592864862, -0.5142310361471588, -0.46263250456092087, -3.181214225848954]

>  <energy>  (2) 
-1092.042897708101

>  <inter_energy>  (2) 
-1100.1005488599171

>  <intra_energy>  (2) 
24.81000265212086

>  <rmsd>  (2) 
2.40686

>  <sdf_rank>  (2) 
0

$$$$

     RDKit          3D

 44 47  0  0  0  0  0  0  0  0999 V2000
   -2.4904   45.5177   12.3932 C   0  0  0  0  0  0  0  0  0  0  0  0
    0.3103   45.6678   12.3719 C   0  0  0  0  0  0  0  0  0  0  0  0
    1.8020   45.7648   12.2869 C   0  0  1  0  0  0  0  0  0  0  0  0
   -3.2897   41.8672   15.9801 C   0  0  0  0  0  0  0  0  0  0  0  0
   -4.4887   41.5989   15.3483 C   0  0  0  0  0  0  0  0  0  0  0  0
   -5.8676   41.1588   13.2956 C   0  0  0  0  0  0  0  0  0  0  0  0
   -1.7597   45.3369   13.5606 C   0  0  0  0  0  0  0  0  0  0  0  0
   -1.8195   45.7709   11.2239 C   0  0  0  0  0  0  0  0  0  0  0  0
   -0.4397   45.8452   11.2121 C   0  0  0  0  0  0  0  0  0  0  0  0
    1.4367   44.4231   16.6409 C   0  0  0  0  0  0  0  0  0  0  0  0
    2.0285   43.7251   17.7805 C   0  0  0  0  0  0  0  0  0  0  0  0
    1.3569   43.1189   18.8559 C   0  0  0  0  0  0  0  0  0  0  0  0
    3.3674   43.4958   18.0178 C   0  0  0  0  0  0  0  0  0  0  0  0
   -4.5463   41.4489   13.9689 C   0  0  0  0  0  0  0  0  0  0  0  0
   -3.3745   41.5841   13.2308 C   0  0  0  0  0  0  0  0  0  0  0  0
   -2.1667   41.8601   13.8532 C   0  0  0  0  0  0  0  0  0  0  0  0
   -2.1274   41.9999   15.2356 C   0  0  0  0  0  0  0  0  0  0  0  0
    0.1973   42.6615   15.2182 C   0  0  0  0  0  0  0  0  0  0  0  0
    0.6522   44.0394   15.5625 C   0  0  0  0  0  0  0  0  0  0  0  0
    0.3758   45.1952   14.8321 C   0  0  0  0  0  0  0  0  0  0  0  0
   -0.3700   45.3843   13.5714 C   0  0  0  0  0  0  0  0  0  0  0  0
    2.4259   44.6916   12.7625 F   0  0  0  0  0  0  0  0  0  0  0  0
    2.2068   45.8962   11.0318 F   0  0  0  0  0  0  0  0  0  0  0  0
    2.3156   46.8098   12.9453 F   0  0  0  0  0  0  0  0  0  0  0  0
    0.9632   46.2294   15.3917 N   0  0  0  0  0  0  0  0  0  0  0  0
    2.2320   42.5599   19.6791 N   0  0  0  0  0  0  0  0  0  0  0  0
    3.4535   42.8016   19.1561 N   0  0  0  0  0  0  0  0  0  0  0  0
   -6.0862   39.9942   12.8886 O   0  0  0  0  0  0  0  0  0  0  0  0
   -6.6352   42.1194   13.1096 O   0  0  0  0  0  0  0  0  0  0  0  0
   -0.9880   42.2856   15.9533 O   0  0  0  0  0  0  0  0  0  0  0  0
    1.6296   45.7586   16.5475 O   0  0  0  0  0  0  0  0  0  0  0  0
   -2.6085   45.0015   15.0203 Cl  0  0  0  0  0  0  0  0  0  0  0  0
   -3.5888   45.4588   12.4063 H   0  0  0  0  0  0  0  0  0  0  0  0
   -3.2570   41.9755   17.0742 H   0  0  0  0  0  0  0  0  0  0  0  0
   -5.4081   41.5030   15.9446 H   0  0  0  0  0  0  0  0  0  0  0  0
   -2.3831   45.9156   10.2904 H   0  0  0  0  0  0  0  0  0  0  0  0
    0.0787   46.0495   10.2636 H   0  0  0  0  0  0  0  0  0  0  0  0
    0.2657   43.1097   18.9939 H   0  0  0  0  0  0  0  0  0  0  0  0
    4.2075   43.8232   17.3877 H   0  0  0  0  0  0  0  0  0  0  0  0
   -3.4069   41.4703   12.1372 H   0  0  0  0  0  0  0  0  0  0  0  0
   -1.2477   41.9675   13.2583 H   0  0  0  0  0  0  0  0  0  0  0  0
   -0.0236   42.6188   14.1415 H   0  0  0  0  0  0  0  0  0  0  0  0
    1.0012   41.9604   15.4866 H   0  0  0  0  0  0  0  0  0  0  0  0
    2.0224   42.0438   20.5454 H   0  0  0  0  0  0  0  0  0  0  0  0
  1  7  2  0
  1  8  1  0
  2  3  1  0
  2  9  1  0
  2 21  2  0
  3 22  1  1
  3 23  1  0
  3 24  1  0
  4  5  2  0
  4 17  1  0
  5 14  1  0
  6 14  1  0
  6 28  2  0
  6 29  1  0
  7 21  1  0
  7 32  1  0
  8  9  2  0
 10 11  1  0
 10 19  2  0
 10 31  1  0
 11 12  2  0
 11 13  1  0
 12 26  1  0
 13 27  2  0
 14 15  2  0
 15 16  1  0
 16 17  2  0
 17 30  1  0
 18 19  1  0
 18 30  1  0
 19 20  1  0
 20 21  1  0
 20 25  2  0
 25 31  1  0
 26 27  1  0
  1 33  1  0
  4 34  1  0
  5 35  1  0
  8 36  1  0
  9 37  1  0
 12 38  1  0
 13 39  1  0
 15 40  1  0
 16 41  1  0
 18 42  1  0
 18 43  1  0
 26 44  1  0
M  CHG  1  29  -1
M  END
>  <filename_input>  (3) 
7NP6_UK8_docked.sdf

>  <pdb_id>  (3) 
7NP6_UK8

>  <pose_rank>  (3) 
2

>  <num_atoms_heavy>  (3) 
32

>  <num_torsions>  (3) 
7

>  <pose>  (3) 
[1.4366645040353412, 44.423140902618194, 16.640854749145507, 1.1430531560198738, -1.132325565351228, -0.5317597045812567, 2.344766363729284, -0.3804507923492384, 2.123669346483466, 13.033169170289424, 5.1548895731422295, 0.2492969271841944, 1.1102888843339342]

>  <energy>  (3) 
-844.2269147642627

>  <inter_energy>  (3) 
-896.5641000078788

>  <intra_energy>  (3) 
45.44593626670571

>  <rmsd>  (3) 
7.00091

>  <sdf_rank>  (3) 
0

$$$$

     RDKit          3D

 44 47  0  0  0  0  0  0  0  0999 V2000
   -0.4457   46.7829   10.6616 C   0  0  0  0  0  0  0  0  0  0  0  0
   -3.0162   47.0619   11.7487 C   0  0  0  0  0  0  0  0  0  0  0  0
   -4.3883   47.2827   12.3057 C   0  0  1  0  0  0  0  0  0  0  0  0
    1.0529   44.9955   16.0393 C   0  0  0  0  0  0  0  0  0  0  0  0
    1.8990   44.6601   17.0787 C   0  0  0  0  0  0  0  0  0  0  0  0
    2.7736   43.0541   18.8004 C   0  0  0  0  0  0  0  0  0  0  0  0
   -1.0905   45.7019   11.2490 C   0  0  0  0  0  0  0  0  0  0  0  0
   -1.0866   47.9950   10.6214 C   0  0  0  0  0  0  0  0  0  0  0  0
   -2.3531   48.1337   11.1565 C   0  0  0  0  0  0  0  0  0  0  0  0
   -3.8052   43.0476   13.7685 C   0  0  0  0  0  0  0  0  0  0  0  0
   -4.1669   42.0687   14.7919 C   0  0  0  0  0  0  0  0  0  0  0  0
   -3.3849   41.6349   15.8760 C   0  0  0  0  0  0  0  0  0  0  0  0
   -5.3615   41.3915   14.9169 C   0  0  0  0  0  0  0  0  0  0  0  0
    1.8420   43.4014   17.6625 C   0  0  0  0  0  0  0  0  0  0  0  0
    0.9086   42.4847   17.1885 C   0  0  0  0  0  0  0  0  0  0  0  0
    0.0496   42.8125   16.1506 C   0  0  0  0  0  0  0  0  0  0  0  0
    0.1262   44.0749   15.5740 C   0  0  0  0  0  0  0  0  0  0  0  0
   -2.0935   44.6668   14.8226 C   0  0  0  0  0  0  0  0  0  0  0  0
   -2.9385   44.1299   13.7172 C   0  0  0  0  0  0  0  0  0  0  0  0
   -3.0155   44.6487   12.4247 C   0  0  0  0  0  0  0  0  0  0  0  0
   -2.3552   45.8206   11.8147 C   0  0  0  0  0  0  0  0  0  0  0  0
   -4.7937   48.5457   12.2175 F   0  0  0  0  0  0  0  0  0  0  0  0
   -5.2938   46.5626   11.6592 F   0  0  0  0  0  0  0  0  0  0  0  0
   -4.5104   46.9471   13.5948 F   0  0  0  0  0  0  0  0  0  0  0  0
   -3.8856   43.9621   11.7181 N   0  0  0  0  0  0  0  0  0  0  0  0
   -4.0650   40.7616   16.6043 N   0  0  0  0  0  0  0  0  0  0  0  0
   -5.2669   40.6211   16.0044 N   0  0  0  0  0  0  0  0  0  0  0  0
    3.0128   41.8453   19.0273 O   0  0  0  0  0  0  0  0  0  0  0  0
    3.1885   43.9922   19.5035 O   0  0  0  0  0  0  0  0  0  0  0  0
   -0.6839   44.5090   14.5492 O   0  0  0  0  0  0  0  0  0  0  0  0
   -4.3860   42.9347   12.5522 O   0  0  0  0  0  0  0  0  0  0  0  0
   -0.2717   44.1889   11.3117 Cl  0  0  0  0  0  0  0  0  0  0  0  0
    0.5621   46.6689   10.2357 H   0  0  0  0  0  0  0  0  0  0  0  0
    1.1144   45.9934   15.5806 H   0  0  0  0  0  0  0  0  0  0  0  0
    2.6260   45.3984   17.4480 H   0  0  0  0  0  0  0  0  0  0  0  0
   -0.5897   48.8614   10.1606 H   0  0  0  0  0  0  0  0  0  0  0  0
   -2.8494   49.1144   11.1136 H   0  0  0  0  0  0  0  0  0  0  0  0
   -2.3593   41.9710   16.0887 H   0  0  0  0  0  0  0  0  0  0  0  0
   -6.2301   41.4707   14.2466 H   0  0  0  0  0  0  0  0  0  0  0  0
    0.8513   41.4851   17.6440 H   0  0  0  0  0  0  0  0  0  0  0  0
   -0.6859   42.0800   15.7867 H   0  0  0  0  0  0  0  0  0  0  0  0
   -2.3132   45.7371   14.9504 H   0  0  0  0  0  0  0  0  0  0  0  0
   -2.3286   44.1016   15.7365 H   0  0  0  0  0  0  0  0  0  0  0  0
   -3.7415   40.2847   17.4580 H   0  0  0  0  0  0  0  0  0  0  0  0
  1  7  2  0
  1  8  1  0
  2  3  1  0
  2  9  1  0
  2 21  2  0
  3 22  1  1
  3 23  1  0
  3 24  1  0
  4  5  2  0
  4 17  1  0
  5 14  1  0
  6 14  1  0
  6 28  2  0
  6 29  1  0
  7 21  1  0
  7 32  1  0
  8  9  2  0
 10 11  1  0
 10 19  2  0
 10 31  1  0
 11 12  2  0
 11 13  1  0
 12 26  1  0
 13 27  2  0
 14 15  2  0
 15 16  1  0
 16 17  2  0
 17 30  1  0
 18 19  1  0
 18 30  1  0
 19 20  1  0
 20 21  1  0
 20 25  2  0
 25 31  1  0
 26 27  1  0
  1 33  1  0
  4 34  1  0
  5 35  1  0
  8 36  1  0
  9 37  1  0
 12 38  1  0
 13 39  1  0
 15 40  1  0
 16 41  1  0
 18 42  1  0
 18 43  1  0
 26 44  1  0
M  CHG  1  29  -1
M  END
>  <filename_input>  (4) 
7NP6_UK8_docked.sdf

>  <pdb_id>  (4) 
7NP6_UK8

>  <pose_rank>  (4) 
3

>  <num_atoms_heavy>  (4) 
32

>  <num_torsions>  (4) 
7

>  <pose>  (4) 
[-3.805241827288904, 43.0475873162482, 13.768495785271936, -1.9082550478398086, 0.22093650240797796, -2.1932016367487925, -3.7505072298896738, -10.8174266547412, 2.832101757179708, 1.0102450415100268, 0.7020051768790823, 1.2325367127876314, 0.18388237651223488]

>  <energy>  (4) 
-797.7531032798041

>  <inter_energy>  (4) 
-811.3932954616071

>  <intra_energy>  (4) 
22.240245547240203

>  <rmsd>  (4) 
4.75476

>  <sdf_rank>  (4) 
0

$$$$

     RDKit          3D

 44 47  0  0  0  0  0  0  0  0999 V2000
   -1.5738   49.2075   11.6841 C   0  0  0  0  0  0  0  0  0  0  0  0
   -0.5265   46.6230   11.3826 C   0  0  0  0  0  0  0  0  0  0  0  0
    0.0975   45.2744   11.1986 C   0  0  1  0  0  0  0  0  0  0  0  0
    0.4902   42.7343   16.1976 C   0  0  0  0  0  0  0  0  0  0  0  0
    1.4590   42.6730   17.1807 C   0  0  0  0  0  0  0  0  0  0  0  0
    3.2123   43.7249   18.6395 C   0  0  0  0  0  0  0  0  0  0  0  0
   -2.3274   48.0908   12.0228 C   0  0  0  0  0  0  0  0  0  0  0  0
   -0.3043   49.0273   11.1967 C   0  0  0  0  0  0  0  0  0  0  0  0
    0.2129   47.7546   11.0478 C   0  0  0  0  0  0  0  0  0  0  0  0
   -3.6712   43.9123   13.2463 C   0  0  0  0  0  0  0  0  0  0  0  0
   -4.1635   42.7971   14.0526 C   0  0  0  0  0  0  0  0  0  0  0  0
   -5.2636   42.7930   14.9271 C   0  0  0  0  0  0  0  0  0  0  0  0
   -3.6639   41.5126   14.0979 C   0  0  0  0  0  0  0  0  0  0  0  0
    2.1540   43.8124   17.5645 C   0  0  0  0  0  0  0  0  0  0  0  0
    1.8646   45.0181   16.9331 C   0  0  0  0  0  0  0  0  0  0  0  0
    0.8993   45.0903   15.9403 C   0  0  0  0  0  0  0  0  0  0  0  0
    0.2091   43.9406   15.5745 C   0  0  0  0  0  0  0  0  0  0  0  0
   -1.7062   44.9837   14.5323 C   0  0  0  0  0  0  0  0  0  0  0  0
   -2.6457   44.8369   13.3835 C   0  0  0  0  0  0  0  0  0  0  0  0
   -2.6640   45.6338   12.2388 C   0  0  0  0  0  0  0  0  0  0  0  0
   -1.8387   46.7991   11.8613 C   0  0  0  0  0  0  0  0  0  0  0  0
    0.8073   45.1728   10.0792 F   0  0  0  0  0  0  0  0  0  0  0  0
    0.9324   44.9895   12.1876 F   0  0  0  0  0  0  0  0  0  0  0  0
   -0.7842   44.2691   11.1667 F   0  0  0  0  0  0  0  0  0  0  0  0
   -3.6445   45.2585   11.4479 N   0  0  0  0  0  0  0  0  0  0  0  0
   -5.4167   41.5881   15.4567 N   0  0  0  0  0  0  0  0  0  0  0  0
   -4.4314   40.8198   14.9439 N   0  0  0  0  0  0  0  0  0  0  0  0
    3.1569   42.7750   19.4547 O   0  0  0  0  0  0  0  0  0  0  0  0
    4.0368   44.6535   18.7041 O   0  0  0  0  0  0  0  0  0  0  0  0
   -0.7577   43.8960   14.5956 O   0  0  0  0  0  0  0  0  0  0  0  0
   -4.2851   44.1591   12.0666 O   0  0  0  0  0  0  0  0  0  0  0  0
   -3.9262   48.3251   12.6165 Cl  0  0  0  0  0  0  0  0  0  0  0  0
   -1.9881   50.2193   11.8047 H   0  0  0  0  0  0  0  0  0  0  0  0
   -0.0584   41.8255   15.9091 H   0  0  0  0  0  0  0  0  0  0  0  0
    1.6824   41.7109   17.6649 H   0  0  0  0  0  0  0  0  0  0  0  0
    0.3054   49.9009   10.9228 H   0  0  0  0  0  0  0  0  0  0  0  0
    1.2332   47.6323   10.6554 H   0  0  0  0  0  0  0  0  0  0  0  0
   -5.9034   43.6620   15.1405 H   0  0  0  0  0  0  0  0  0  0  0  0
   -2.7956   41.1300   13.5414 H   0  0  0  0  0  0  0  0  0  0  0  0
    2.4097   45.9275   17.2259 H   0  0  0  0  0  0  0  0  0  0  0  0
    0.6817   46.0489   15.4467 H   0  0  0  0  0  0  0  0  0  0  0  0
   -1.1555   45.9296   14.4226 H   0  0  0  0  0  0  0  0  0  0  0  0
   -2.2978   44.9741   15.4596 H   0  0  0  0  0  0  0  0  0  0  0  0
   -6.1427   41.2956   16.1263 H   0  0  0  0  0  0  0  0  0  0  0  0
  1  7  2  0
  1  8  1  0
  2  3  1  0
  2  9  1  0
  2 21  2  0
  3 22  1  6
  3 23  1  0
  3 24  1  0
  4  5  2  0
  4 17  1  0
  5 14  1  0
  6 14  1  0
  6 28  2  0
  6 29  1  0
  7 21  1  0
  7 32  1  0
  8  9  2  0
 10 11  1  0
 10 19  2  0
 10 31  1  0
 11 12  2  0
 11 13  1  0
 12 26  1  0
 13 27  2  0
 14 15  2  0
 15 16  1  0
 16 17  2  0
 17 30  1  0
 18 19  1  0
 18 30  1  0
 19 20  1  0
 20 21  1  0
 20 25  2  0
 25 31  1  0
 26 27  1  0
  1 33  1  0
  4 34  1  0
  5 35  1  0
  8 36  1  0
  9 37  1  0
 12 38  1  0
 13 39  1  0
 15 40  1  0
 16 41  1  0
 18 42  1  0
 18 43  1  0
 26 44  1  0
M  CHG  1  29  -1
M  END
>  <filename_input>  (5) 
7NP6_UK8_docked.sdf

>  <pdb_id>  (5) 
7NP6_UK8

>  <pose_rank>  (5) 
4

>  <num_atoms_heavy>  (5) 
32

>  <num_torsions>  (5) 
7

>  <pose>  (5) 
[-3.671198646322869, 43.91228651049947, 13.246265348007432, 2.1849447583251527, -0.7151865231286227, 2.4914980880741258, -0.7213693624235151, 1.0993251410102143, -1.2625801426228918, 0.2540449356379152, -0.10514917776432549, -0.6419820300223001, 2.537676986650244]

>  <energy>  (5) 
-778.1978357779728

>  <inter_energy>  (5) 
-815.2447622448975

>  <intra_energy>  (5) 
34.51232678217747

>  <rmsd>  (5) 
5.46399

>  <sdf_rank>  (5) 
0

$$$$

     RDKit          3D

 44 47  0  0  0  0  0  0  0  0999 V2000
    0.5646   40.1719   16.3082 C   0  0  0  0  0  0  0  0  0  0  0  0
    1.7229   42.5663   17.1983 C   0  0  0  0  0  0  0  0  0  0  0  0
    2.3514   43.8122   17.7411 C   0  0  1  0  0  0  0  0  0  0  0  0
   -3.8871   45.2300   14.1092 C   0  0  0  0  0  0  0  0  0  0  0  0
   -5.2458   45.0159   14.2393 C   0  0  0  0  0  0  0  0  0  0  0  0
   -7.2952   43.5762   14.0506 C   0  0  0  0  0  0  0  0  0  0  0  0
    0.7320   41.2457   15.4429 C   0  0  0  0  0  0  0  0  0  0  0  0
    0.9748   40.3003   17.6108 C   0  0  0  0  0  0  0  0  0  0  0  0
    1.5458   41.4793   18.0506 C   0  0  0  0  0  0  0  0  0  0  0  0
    1.2345   45.3594   13.5981 C   0  0  0  0  0  0  0  0  0  0  0  0
    0.8721   46.5019   12.7616 C   0  0  0  0  0  0  0  0  0  0  0  0
   -0.2590   46.6355   11.9382 C   0  0  0  0  0  0  0  0  0  0  0  0
    1.5537   47.6935   12.6317 C   0  0  0  0  0  0  0  0  0  0  0  0
   -5.8066   43.7904   13.9044 C   0  0  0  0  0  0  0  0  0  0  0  0
   -4.9760   42.7823   13.4245 C   0  0  0  0  0  0  0  0  0  0  0  0
   -3.6121   42.9880   13.2832 C   0  0  0  0  0  0  0  0  0  0  0  0
   -3.0679   44.2190   13.6301 C   0  0  0  0  0  0  0  0  0  0  0  0
   -0.9295   44.5086   14.7190 C   0  0  0  0  0  0  0  0  0  0  0  0
    0.5297   44.4841   14.4120 C   0  0  0  0  0  0  0  0  0  0  0  0
    1.4535   43.5695   14.9177 C   0  0  0  0  0  0  0  0  0  0  0  0
    1.2828   42.4502   15.8661 C   0  0  0  0  0  0  0  0  0  0  0  0
    2.5828   43.7565   19.0490 F   0  0  0  0  0  0  0  0  0  0  0  0
    3.5248   44.0487   17.1723 F   0  0  0  0  0  0  0  0  0  0  0  0
    1.6232   44.9168   17.5439 F   0  0  0  0  0  0  0  0  0  0  0  0
    2.6576   43.8599   14.4776 N   0  0  0  0  0  0  0  0  0  0  0  0
   -0.2588   47.8269   11.3583 N   0  0  0  0  0  0  0  0  0  0  0  0
    0.8548   48.4585   11.7885 N   0  0  0  0  0  0  0  0  0  0  0  0
   -7.7108   42.4173   14.2829 O   0  0  0  0  0  0  0  0  0  0  0  0
   -8.0342   44.5560   13.8493 O   0  0  0  0  0  0  0  0  0  0  0  0
   -1.7327   44.5349   13.5187 O   0  0  0  0  0  0  0  0  0  0  0  0
    2.5339   44.9851   13.6288 O   0  0  0  0  0  0  0  0  0  0  0  0
    0.1977   41.0826   13.8146 Cl  0  0  0  0  0  0  0  0  0  0  0  0
    0.1106   39.2344   15.9547 H   0  0  0  0  0  0  0  0  0  0  0  0
   -3.4550   46.2030   14.3858 H   0  0  0  0  0  0  0  0  0  0  0  0
   -5.8907   45.8253   14.6122 H   0  0  0  0  0  0  0  0  0  0  0  0
    0.8486   39.4599   18.3092 H   0  0  0  0  0  0  0  0  0  0  0  0
    1.8681   41.5612   19.0991 H   0  0  0  0  0  0  0  0  0  0  0  0
   -1.0307   45.8646   11.7962 H   0  0  0  0  0  0  0  0  0  0  0  0
    2.4968   47.9637   13.1295 H   0  0  0  0  0  0  0  0  0  0  0  0
   -5.4080   41.8078   13.1532 H   0  0  0  0  0  0  0  0  0  0  0  0
   -2.9666   42.1840   12.9000 H   0  0  0  0  0  0  0  0  0  0  0  0
   -1.1860   43.6097   15.2988 H   0  0  0  0  0  0  0  0  0  0  0  0
   -1.1419   45.4239   15.2910 H   0  0  0  0  0  0  0  0  0  0  0  0
   -0.9669   48.1975   10.7086 H   0  0  0  0  0  0  0  0  0  0  0  0
  1  7  2  0
  1  8  1  0
  2  3  1  0
  2  9  1  0
  2 21  2  0
  3 22  1  1
  3 23  1  0
  3 24  1  0
  4  5  2  0
  4 17  1  0
  5 14  1  0
  6 14  1  0
  6 28  2  0
  6 29  1  0
  7 21  1  0
  7 32  1  0
  8  9  2  0
 10 11  1  0
 10 19  2  0
 10 31  1  0
 11 12  2  0
 11 13  1  0
 12 26  1  0
 13 27  2  0
 14 15  2  0
 15 16  1  0
 16 17  2  0
 17 30  1  0
 18 19  1  0
 18 30  1  0
 19 20  1  0
 20 21  1  0
 20 25  2  0
 25 31  1  0
 26 27  1  0
  1 33  1  0
  4 34  1  0
  5 35  1  0
  8 36  1  0
  9 37  1  0
 12 38  1  0
 13 39  1  0
 15 40  1  0
 16 41  1  0
 18 42  1  0
 18 43  1  0
 26 44  1  0
M  CHG  1  29  -1
M  END
>  <filename_input>  (6) 
7NP6_UK8_docked.sdf

>  <pdb_id>  (6) 
7NP6_UK8

>  <pose_rank>  (6) 
5

>  <num_atoms_heavy>  (6) 
32

>  <num_torsions>  (6) 
7

>  <pose>  (6) 
[1.2345056958833212, 45.35942360889578, 13.598080914139814, 1.4849455428733884, 2.418748055041659, -2.130211295781708, -3.904665572931487, 1.7197116310563219, 2.5933000423947874, -0.06091387475464058, -0.33616964894829043, -1.6921908773977912, 0.29733074584413494]

>  <energy>  (6) 
-590.3909632876966

>  <inter_energy>  (6) 
-630.147395461201

>  <intra_energy>  (6) 
36.043698135416605

>  <rmsd>  (6) 
6.84388

>  <sdf_rank>  (6) 
0

$$$$

     RDKit          3D

 44 47  0  0  0  0  0  0  0  0999 V2000
    1.4804   43.2200   19.4318 C   0  0  0  0  0  0  0  0  0  0  0  0
    2.9166   42.8372   17.0532 C   0  0  0  0  0  0  0  0  0  0  0  0
    3.7235   42.5793   15.8186 C   0  0  1  0  0  0  0  0  0  0  0  0
   -2.6510   43.6285   14.4474 C   0  0  0  0  0  0  0  0  0  0  0  0
   -3.9544   43.6822   13.9921 C   0  0  0  0  0  0  0  0  0  0  0  0
   -6.2591   42.7171   13.7368 C   0  0  0  0  0  0  0  0  0  0  0  0
    1.1610   43.9362   18.2852 C   0  0  0  0  0  0  0  0  0  0  0  0
    2.5138   42.3193   19.3843 C   0  0  0  0  0  0  0  0  0  0  0  0
    3.2221   42.1297   18.2130 C   0  0  0  0  0  0  0  0  0  0  0  0
    0.6562   45.3208   13.9770 C   0  0  0  0  0  0  0  0  0  0  0  0
    0.0447   45.6121   12.6817 C   0  0  0  0  0  0  0  0  0  0  0  0
    0.4474   46.5770   11.7426 C   0  0  0  0  0  0  0  0  0  0  0  0
   -1.0366   44.9794   12.1057 C   0  0  0  0  0  0  0  0  0  0  0  0
   -4.8383   42.6416   14.2456 C   0  0  0  0  0  0  0  0  0  0  0  0
   -4.3849   41.5362   14.9588 C   0  0  0  0  0  0  0  0  0  0  0  0
   -3.0772   41.4681   15.4147 C   0  0  0  0  0  0  0  0  0  0  0  0
   -2.2089   42.5225   15.1574 C   0  0  0  0  0  0  0  0  0  0  0  0
    0.1062   42.8654   14.5531 C   0  0  0  0  0  0  0  0  0  0  0  0
    0.7329   44.1980   14.7887 C   0  0  0  0  0  0  0  0  0  0  0  0
    1.5015   44.5525   15.8975 C   0  0  0  0  0  0  0  0  0  0  0  0
    1.8725   43.7804   17.1007 C   0  0  0  0  0  0  0  0  0  0  0  0
    4.9522   42.1422   16.0763 F   0  0  0  0  0  0  0  0  0  0  0  0
    3.1587   41.6533   15.0570 F   0  0  0  0  0  0  0  0  0  0  0  0
    3.8727   43.6528   15.0346 F   0  0  0  0  0  0  0  0  0  0  0  0
    1.8624   45.8132   15.8072 N   0  0  0  0  0  0  0  0  0  0  0  0
   -0.3350   46.5235   10.6746 N   0  0  0  0  0  0  0  0  0  0  0  0
   -1.2370   45.5469   10.9129 N   0  0  0  0  0  0  0  0  0  0  0  0
   -6.9742   43.6774   14.1058 O   0  0  0  0  0  0  0  0  0  0  0  0
   -6.6659   41.7704   13.0405 O   0  0  0  0  0  0  0  0  0  0  0  0
   -0.8903   42.5541   15.5515 O   0  0  0  0  0  0  0  0  0  0  0  0
    1.3450   46.3114   14.5882 O   0  0  0  0  0  0  0  0  0  0  0  0
   -0.1254   45.0778   18.3584 Cl  0  0  0  0  0  0  0  0  0  0  0  0
    0.9139   43.3727   20.3623 H   0  0  0  0  0  0  0  0  0  0  0  0
   -1.9637   44.4635   14.2465 H   0  0  0  0  0  0  0  0  0  0  0  0
   -4.2958   44.5591   13.4225 H   0  0  0  0  0  0  0  0  0  0  0  0
    2.7802   41.7447   20.2837 H   0  0  0  0  0  0  0  0  0  0  0  0
    4.0471   41.4023   18.1965 H   0  0  0  0  0  0  0  0  0  0  0  0
    1.2882   47.2738   11.8747 H   0  0  0  0  0  0  0  0  0  0  0  0
   -1.6243   44.1604   12.5459 H   0  0  0  0  0  0  0  0  0  0  0  0
   -5.0742   40.7039   15.1641 H   0  0  0  0  0  0  0  0  0  0  0  0
   -2.7300   40.5875   15.9750 H   0  0  0  0  0  0  0  0  0  0  0  0
   -0.3717   42.8675   13.5623 H   0  0  0  0  0  0  0  0  0  0  0  0
    0.8963   42.1023   14.6110 H   0  0  0  0  0  0  0  0  0  0  0  0
   -0.2686   47.1101    9.8305 H   0  0  0  0  0  0  0  0  0  0  0  0
  1  7  2  0
  1  8  1  0
  2  3  1  0
  2  9  1  0
  2 21  2  0
  3 22  1  1
  3 23  1  0
  3 24  1  0
  4  5  2  0
  4 17  1  0
  5 14  1  0
  6 14  1  0
  6 28  2  0
  6 29  1  0
  7 21  1  0
  7 32  1  0
  8  9  2  0
 10 11  1  0
 10 19  2  0
 10 31  1  0
 11 12  2  0
 11 13  1  0
 12 26  1  0
 13 27  2  0
 14 15  2  0
 15 16  1  0
 16 17  2  0
 17 30  1  0
 18 19  1  0
 18 30  1  0
 19 20  1  0
 20 21  1  0
 20 25  2  0
 25 31  1  0
 26 27  1  0
  1 33  1  0
  4 34  1  0
  5 35  1  0
  8 36  1  0
  9 37  1  0
 12 38  1  0
 13 39  1  0
 15 40  1  0
 16 41  1  0
 18 42  1  0
 18 43  1  0
 26 44  1  0
M  CHG  1  29  -1
M  END
>  <filename_input>  (7) 
7NP6_UK8_docked.sdf

>  <pdb_id>  (7) 
7NP6_UK8

>  <pose_rank>  (7) 
6

>  <num_atoms_heavy>  (7) 
32

>  <num_torsions>  (7) 
7

>  <pose>  (7) 
[0.6561686305984484, 45.32075729753324, 13.976970754259026, -0.6104594461777408, -3.1332707849403185, 2.1782780327028672, -6.979262126486764, 1.3423998759197575, 0.6186298989673095, -2.9972156934244305, -1.2576690813237108, 2.3297014221423273, 1.910902068352072]

>  <energy>  (7) 
-731.7515987085947

>  <inter_energy>  (7) 
-778.3997964344832

>  <intra_energy>  (7) 
45.30088246977582

>  <rmsd>  (7) 
7.20908

>  <sdf_rank>  (7) 
0

$$$$

     RDKit          3D

 44 47  0  0  0  0  0  0  0  0999 V2000
   -3.9896   42.8627    9.6339 C   0  0  0  0  0  0  0  0  0  0  0  0
   -3.7987   41.3040   11.9579 C   0  0  0  0  0  0  0  0  0  0  0  0
   -3.7262   40.4140   13.1598 C   0  0  1  0  0  0  0  0  0  0  0  0
    0.9281   46.6282   11.9923 C   0  0  0  0  0  0  0  0  0  0  0  0
    0.8748   47.6496   11.0633 C   0  0  0  0  0  0  0  0  0  0  0  0
    0.4224   48.5310    8.7553 C   0  0  0  0  0  0  0  0  0  0  0  0
   -3.4322   43.3827   10.7951 C   0  0  0  0  0  0  0  0  0  0  0  0
   -4.4486   41.5702    9.6403 C   0  0  0  0  0  0  0  0  0  0  0  0
   -4.3550   40.8011   10.7845 C   0  0  0  0  0  0  0  0  0  0  0  0
   -1.4082   44.1015   14.7421 C   0  0  0  0  0  0  0  0  0  0  0  0
   -0.3682   44.6067   15.6363 C   0  0  0  0  0  0  0  0  0  0  0  0
    0.4543   43.8627   16.4994 C   0  0  0  0  0  0  0  0  0  0  0  0
    0.0360   45.9156   15.7942 C   0  0  0  0  0  0  0  0  0  0  0  0
    0.4713   47.4015    9.7579 C   0  0  0  0  0  0  0  0  0  0  0  0
    0.1307   46.1014    9.3976 C   0  0  0  0  0  0  0  0  0  0  0  0
    0.1871   45.0672   10.3194 C   0  0  0  0  0  0  0  0  0  0  0  0
    0.5865   45.3360   11.6233 C   0  0  0  0  0  0  0  0  0  0  0  0
   -0.2417   43.2815   12.5904 C   0  0  0  0  0  0  0  0  0  0  0  0
   -1.4133   43.5228   13.4809 C   0  0  0  0  0  0  0  0  0  0  0  0
   -2.7412   43.2187   13.1810 C   0  0  0  0  0  0  0  0  0  0  0  0
   -3.3469   42.6374   11.9659 C   0  0  0  0  0  0  0  0  0  0  0  0
   -3.6068   39.1261   12.8529 F   0  0  0  0  0  0  0  0  0  0  0  0
   -2.6783   40.7079   13.9161 F   0  0  0  0  0  0  0  0  0  0  0  0
   -4.7910   40.5024   13.9646 F   0  0  0  0  0  0  0  0  0  0  0  0
   -3.5215   43.6003   14.1676 N   0  0  0  0  0  0  0  0  0  0  0  0
    1.2974   44.6687   17.1281 N   0  0  0  0  0  0  0  0  0  0  0  0
    1.0273   45.9174   16.6900 N   0  0  0  0  0  0  0  0  0  0  0  0
    0.1215   49.6770    9.1627 O   0  0  0  0  0  0  0  0  0  0  0  0
    0.6052   48.2402    7.5602 O   0  0  0  0  0  0  0  0  0  0  0  0
    0.6897   44.3854   12.6135 O   0  0  0  0  0  0  0  0  0  0  0  0
   -2.6899   44.1505   15.1714 O   0  0  0  0  0  0  0  0  0  0  0  0
   -2.8753   45.0116   10.7839 Cl  0  0  0  0  0  0  0  0  0  0  0  0
   -4.0618   43.4773    8.7245 H   0  0  0  0  0  0  0  0  0  0  0  0
    1.2416   46.8403   13.0251 H   0  0  0  0  0  0  0  0  0  0  0  0
    1.1550   48.6707   11.3612 H   0  0  0  0  0  0  0  0  0  0  0  0
   -4.8937   41.1434    8.7294 H   0  0  0  0  0  0  0  0  0  0  0  0
   -4.7289   39.7667   10.7681 H   0  0  0  0  0  0  0  0  0  0  0  0
    0.4054   42.7720   16.6333 H   0  0  0  0  0  0  0  0  0  0  0  0
   -0.3798   46.7939   15.2790 H   0  0  0  0  0  0  0  0  0  0  0  0
   -0.1880   45.8909    8.3660 H   0  0  0  0  0  0  0  0  0  0  0  0
   -0.0820   44.0430   10.0214 H   0  0  0  0  0  0  0  0  0  0  0  0
    0.2775   42.3712   12.9248 H   0  0  0  0  0  0  0  0  0  0  0  0
   -0.6133   43.1709   11.5610 H   0  0  0  0  0  0  0  0  0  0  0  0
    2.0158   44.3971   17.8144 H   0  0  0  0  0  0  0  0  0  0  0  0
  1  7  2  0
  1  8  1  0
  2  3  1  0
  2  9  1  0
  2 21  2  0
  3 22  1  6
  3 23  1  0
  3 24  1  0
  4  5  2  0
  4 17  1  0
  5 14  1  0
  6 14  1  0
  6 28  2  0
  6 29  1  0
  7 21  1  0
  7 32  1  0
  8  9  2  0
 10 11  1  0
 10 19  2  0
 10 31  1  0
 11 12  2  0
 11 13  1  0
 12 26  1  0
 13 27  2  0
 14 15  2  0
 15 16  1  0
 16 17  2  0
 17 30  1  0
 18 19  1  0
 18 30  1  0
 19 20  1  0
 20 21  1  0
 20 25  2  0
 25 31  1  0
 26 27  1  0
  1 33  1  0
  4 34  1  0
  5 35  1  0
  8 36  1  0
  9 37  1  0
 12 38  1  0
 13 39  1  0
 15 40  1  0
 16 41  1  0
 18 42  1  0
 18 43  1  0
 26 44  1  0
M  CHG  1  29  -1
M  END
>  <filename_input>  (8) 
7NP6_UK8_docked.sdf

>  <pdb_id>  (8) 
7NP6_UK8

>  <pose_rank>  (8) 
7

>  <num_atoms_heavy>  (8) 
32

>  <num_torsions>  (8) 
7

>  <pose>  (8) 
[-1.4081915841429047, 44.101505245831454, 14.742095983024326, 1.899547766068419, 0.3071375038374056, 0.4481766910216692, -12.794871916399472, 2.3249362369024995, 1.8750278552805588, -45.671699788617325, -23.717949643911407, -0.4996566066593869, -3.9274040587066614]

>  <energy>  (8) 
-300.3709905625216

>  <inter_energy>  (8) 
-351.12193925936265

>  <intra_energy>  (8) 
47.32675027006985

>  <rmsd>  (8) 
6.27169

>  <sdf_rank>  (8) 
0

$$$$

     RDKit          3D

 44 47  0  0  0  0  0  0  0  0999 V2000
    2.0038   40.0808   15.9506 C   0  0  0  0  0  0  0  0  0  0  0  0
    0.0284   41.9706   16.5780 C   0  0  0  0  0  0  0  0  0  0  0  0
   -1.0510   42.9326   16.9669 C   0  0  1  0  0  0  0  0  0  0  0  0
   -4.0205   42.9180   12.5012 C   0  0  0  0  0  0  0  0  0  0  0  0
   -5.3555   42.6657   12.7525 C   0  0  0  0  0  0  0  0  0  0  0  0
   -7.5715   43.2522   13.7790 C   0  0  0  0  0  0  0  0  0  0  0  0
    1.9486   41.2993   15.2859 C   0  0  0  0  0  0  0  0  0  0  0  0
    1.0733   39.8132   16.9222 C   0  0  0  0  0  0  0  0  0  0  0  0
    0.0997   40.7434   17.2324 C   0  0  0  0  0  0  0  0  0  0  0  0
    0.4600   45.3170   13.5877 C   0  0  0  0  0  0  0  0  0  0  0  0
   -0.0068   46.3545   12.6700 C   0  0  0  0  0  0  0  0  0  0  0  0
    0.7574   47.0866   11.7454 C   0  0  0  0  0  0  0  0  0  0  0  0
   -1.2991   46.8067   12.5060 C   0  0  0  0  0  0  0  0  0  0  0  0
   -6.1136   43.5468   13.5124 C   0  0  0  0  0  0  0  0  0  0  0  0
   -5.5017   44.6859   14.0264 C   0  0  0  0  0  0  0  0  0  0  0  0
   -4.1610   44.9459   13.7866 C   0  0  0  0  0  0  0  0  0  0  0  0
   -3.4200   44.0560   13.0179 C   0  0  0  0  0  0  0  0  0  0  0  0
   -1.1470   43.3096   13.3619 C   0  0  0  0  0  0  0  0  0  0  0  0
    0.0418   44.0314   13.9003 C   0  0  0  0  0  0  0  0  0  0  0  0
    0.9406   43.5319   14.8428 C   0  0  0  0  0  0  0  0  0  0  0  0
    0.9656   42.2428   15.5633 C   0  0  0  0  0  0  0  0  0  0  0  0
   -2.0578   42.9706   16.0996 F   0  0  0  0  0  0  0  0  0  0  0  0
   -1.5874   42.6104   18.1352 F   0  0  0  0  0  0  0  0  0  0  0  0
   -0.6303   44.1957   17.0966 F   0  0  0  0  0  0  0  0  0  0  0  0
    1.8450   44.4428   15.1254 N   0  0  0  0  0  0  0  0  0  0  0  0
   -0.0231   47.9172   11.0696 N   0  0  0  0  0  0  0  0  0  0  0  0
   -1.2734   47.7371   11.5476 N   0  0  0  0  0  0  0  0  0  0  0  0
   -8.0128   42.1160   13.4890 O   0  0  0  0  0  0  0  0  0  0  0  0
   -8.2744   44.1884   14.1987 O   0  0  0  0  0  0  0  0  0  0  0  0
   -2.0830   44.2093   12.7286 O   0  0  0  0  0  0  0  0  0  0  0  0
    1.5619   45.5766   14.3279 O   0  0  0  0  0  0  0  0  0  0  0  0
    3.1089   41.6197   14.0551 Cl  0  0  0  0  0  0  0  0  0  0  0  0
    2.7807   39.3429   15.7019 H   0  0  0  0  0  0  0  0  0  0  0  0
   -3.4338   42.2157   11.8909 H   0  0  0  0  0  0  0  0  0  0  0  0
   -5.8231   41.7567   12.3462 H   0  0  0  0  0  0  0  0  0  0  0  0
    1.1023   38.8527   17.4575 H   0  0  0  0  0  0  0  0  0  0  0  0
   -0.6368   40.5089   18.0151 H   0  0  0  0  0  0  0  0  0  0  0  0
    1.8435   46.9851   11.6035 H   0  0  0  0  0  0  0  0  0  0  0  0
   -2.1855   46.4653   13.0607 H   0  0  0  0  0  0  0  0  0  0  0  0
   -6.0904   45.3906   14.6321 H   0  0  0  0  0  0  0  0  0  0  0  0
   -3.6881   45.8485   14.2011 H   0  0  0  0  0  0  0  0  0  0  0  0
   -0.8084   42.5698   12.6215 H   0  0  0  0  0  0  0  0  0  0  0  0
   -1.6597   42.8221   14.2041 H   0  0  0  0  0  0  0  0  0  0  0  0
    0.2661   48.5702   10.3274 H   0  0  0  0  0  0  0  0  0  0  0  0
  1  7  2  0
  1  8  1  0
  2  3  1  0
  2  9  1  0
  2 21  2  0
  3 22  1  6
  3 23  1  0
  3 24  1  0
  4  5  2  0
  4 17  1  0
  5 14  1  0
  6 14  1  0
  6 28  2  0
  6 29  1  0
  7 21  1  0
  7 32  1  0
  8  9  2  0
 10 11  1  0
 10 19  2  0
 10 31  1  0
 11 12  2  0
 11 13  1  0
 12 26  1  0
 13 27  2  0
 14 15  2  0
 15 16  1  0
 16 17  2  0
 17 30  1  0
 18 19  1  0
 18 30  1  0
 19 20  1  0
 20 21  1  0
 20 25  2  0
 25 31  1  0
 26 27  1  0
  1 33  1  0
  4 34  1  0
  5 35  1  0
  8 36  1  0
  9 37  1  0
 12 38  1  0
 13 39  1  0
 15 40  1  0
 16 41  1  0
 18 42  1  0
 18 43  1  0
 26 44  1  0
M  CHG  1  29  -1
M  END
>  <filename_input>  (9) 
7NP6_UK8_docked.sdf

>  <pdb_id>  (9) 
7NP6_UK8

>  <pose_rank>  (9) 
8

>  <num_atoms_heavy>  (9) 
32

>  <num_torsions>  (9) 
7

>  <pose>  (9) 
[0.45999942447165004, 45.31702438408154, 13.587684674710854, -1.189131578364673, -2.8070011010329368, 1.48828826307412, 2.952294240102329, 0.006829030603165184, -5.273187468134038, -1.2715602886698305, 0.7360117209746466, 1.9827585917762227, -3.1509962351950045]

>  <energy>  (9) 
-402.68660188622755

>  <inter_energy>  (9) 
-479.6144224949203

>  <intra_energy>  (9) 
66.82891685285554

>  <rmsd>  (9) 
6.53238

>  <sdf_rank>  (9) 
0

$$$$

     RDKit          3D

 44 47  0  0  0  0  0  0  0  0999 V2000
    0.1140   47.7706   11.1921 C   0  0  0  0  0  0  0  0  0  0  0  0
   -0.7012   45.3225   12.2918 C   0  0  0  0  0  0  0  0  0  0  0  0
   -1.1912   44.0127   12.8267 C   0  0  1  0  0  0  0  0  0  0  0  0
   -2.7239   41.5575   15.1499 C   0  0  0  0  0  0  0  0  0  0  0  0
   -4.0265   41.1789   14.8879 C   0  0  0  0  0  0  0  0  0  0  0  0
   -6.4121   41.6935   14.2941 C   0  0  0  0  0  0  0  0  0  0  0  0
    0.8112   47.1982   12.2485 C   0  0  0  0  0  0  0  0  0  0  0  0
   -0.9848   47.1189   10.6927 C   0  0  0  0  0  0  0  0  0  0  0  0
   -1.3874   45.9127   11.2335 C   0  0  0  0  0  0  0  0  0  0  0  0
    1.8955   44.3718   15.7869 C   0  0  0  0  0  0  0  0  0  0  0  0
    2.1491   43.6966   17.0582 C   0  0  0  0  0  0  0  0  0  0  0  0
    2.8746   44.1861   18.1577 C   0  0  0  0  0  0  0  0  0  0  0  0
    1.7036   42.4510   17.4474 C   0  0  0  0  0  0  0  0  0  0  0  0
   -4.9919   42.1267   14.5746 C   0  0  0  0  0  0  0  0  0  0  0  0
   -4.6264   43.4688   14.5391 C   0  0  0  0  0  0  0  0  0  0  0  0
   -3.3238   43.8612   14.8070 C   0  0  0  0  0  0  0  0  0  0  0  0
   -2.3696   42.8976   15.1119 C   0  0  0  0  0  0  0  0  0  0  0  0
   -0.6642   44.5626   15.5136 C   0  0  0  0  0  0  0  0  0  0  0  0
    0.7549   44.7754   15.1075 C   0  0  0  0  0  0  0  0  0  0  0  0
    1.1823   45.4122   13.9424 C   0  0  0  0  0  0  0  0  0  0  0  0
    0.4135   45.9970   12.8251 C   0  0  0  0  0  0  0  0  0  0  0  0
   -0.2634   43.3410   13.5014 F   0  0  0  0  0  0  0  0  0  0  0  0
   -2.2026   44.1817   13.6664 F   0  0  0  0  0  0  0  0  0  0  0  0
   -1.6380   43.1753   11.8842 F   0  0  0  0  0  0  0  0  0  0  0  0
    2.4949   45.3902   13.8762 N   0  0  0  0  0  0  0  0  0  0  0  0
    2.8612   43.2978   19.1408 N   0  0  0  0  0  0  0  0  0  0  0  0
    2.1464   42.2440   18.6908 N   0  0  0  0  0  0  0  0  0  0  0  0
   -6.5979   40.7181   13.5300 O   0  0  0  0  0  0  0  0  0  0  0  0
   -7.3249   42.3864   14.7768 O   0  0  0  0  0  0  0  0  0  0  0  0
   -1.0539   43.1759   15.4056 O   0  0  0  0  0  0  0  0  0  0  0  0
    2.9631   44.7452   15.0451 O   0  0  0  0  0  0  0  0  0  0  0  0
    2.1781   48.0316   12.8813 Cl  0  0  0  0  0  0  0  0  0  0  0  0
    0.4377   48.7305   10.7633 H   0  0  0  0  0  0  0  0  0  0  0  0
   -1.9674   40.7955   15.3888 H   0  0  0  0  0  0  0  0  0  0  0  0
   -4.3021   40.1147   14.9280 H   0  0  0  0  0  0  0  0  0  0  0  0
   -1.5487   47.5590    9.8570 H   0  0  0  0  0  0  0  0  0  0  0  0
   -2.2712   45.4065   10.8179 H   0  0  0  0  0  0  0  0  0  0  0  0
    3.3792   45.1628   18.1965 H   0  0  0  0  0  0  0  0  0  0  0  0
    1.0972   41.7574   16.8464 H   0  0  0  0  0  0  0  0  0  0  0  0
   -5.3821   44.2299   14.2948 H   0  0  0  0  0  0  0  0  0  0  0  0
   -3.0480   44.9257   14.7786 H   0  0  0  0  0  0  0  0  0  0  0  0
   -0.7876   44.8863   16.5577 H   0  0  0  0  0  0  0  0  0  0  0  0
   -1.3036   45.1497   14.8380 H   0  0  0  0  0  0  0  0  0  0  0  0
    3.3073   43.3922   20.0644 H   0  0  0  0  0  0  0  0  0  0  0  0
  1  7  2  0
  1  8  1  0
  2  3  1  0
  2  9  1  0
  2 21  2  0
  3 22  1  1
  3 23  1  0
  3 24  1  0
  4  5  2  0
  4 17  1  0
  5 14  1  0
  6 14  1  0
  6 28  2  0
  6 29  1  0
  7 21  1  0
  7 32  1  0
  8  9  2  0
 10 11  1  0
 10 19  2  0
 10 31  1  0
 11 12  2  0
 11 13  1  0
 12 26  1  0
 13 27  2  0
 14 15  2  0
 15 16  1  0
 16 17  2  0
 17 30  1  0
 18 19  1  0
 18 30  1  0
 19 20  1  0
 20 21  1  0
 20 25  2  0
 25 31  1  0
 26 27  1  0
  1 33  1  0
  4 34  1  0
  5 35  1  0
  8 36  1  0
  9 37  1  0
 12 38  1  0
 13 39  1  0
 15 40  1  0
 16 41  1  0
 18 42  1  0
 18 43  1  0
 26 44  1  0
M  CHG  1  29  -1
M  END
>  <filename_input>  (10) 
7NP6_UK8_docked.sdf

>  <pdb_id>  (10) 
7NP6_UK8

>  <pose_rank>  (10) 
9

>  <num_atoms_heavy>  (10) 
32

>  <num_torsions>  (10) 
7

>  <pose>  (10) 
[1.8954793114353254, 44.3718245600479, 15.786876310351706, 0.001087015178605006, 3.344858119375165, 2.928517152688285, 9.737308998720103, 4.585220003082429, 1.2021722366790268, 4.068446409415075, 6.764437826271283, 0.17360919889671536, 2.1320872718131825]

>  <energy>  (10) 
-298.0767469789581

>  <inter_energy>  (10) 
-808.3957843704475

>  <intra_energy>  (10) 
513.1156780520223

>  <rmsd>  (10) 
6.82926

>  <sdf_rank>  (10) 
0

$$$$

     RDKit          3D

 44 47  0  0  0  0  0  0  0  0999 V2000
    0.7826   44.3042   19.0786 C   0  0  0  0  0  0  0  0  0  0  0  0
    1.2220   42.5735   16.9155 C   0  0  0  0  0  0  0  0  0  0  0  0
    1.4593   41.5921   15.8099 C   0  0  1  0  0  0  0  0  0  0  0  0
   -4.5404   44.4907   13.7104 C   0  0  0  0  0  0  0  0  0  0  0  0
   -5.4936   43.4971   13.5961 C   0  0  0  0  0  0  0  0  0  0  0  0
   -6.1815   41.0859   13.4497 C   0  0  0  0  0  0  0  0  0  0  0  0
    0.7960   44.7842   17.7751 C   0  0  0  0  0  0  0  0  0  0  0  0
    0.9893   42.9654   19.2940 C   0  0  0  0  0  0  0  0  0  0  0  0
    1.2057   42.1116   18.2292 C   0  0  0  0  0  0  0  0  0  0  0  0
    0.5680   45.4543   13.3522 C   0  0  0  0  0  0  0  0  0  0  0  0
    0.0505   46.0723   12.1329 C   0  0  0  0  0  0  0  0  0  0  0  0
   -1.0384   45.6467   11.3531 C   0  0  0  0  0  0  0  0  0  0  0  0
    0.5097   47.2162   11.5148 C   0  0  0  0  0  0  0  0  0  0  0  0
   -5.1248   42.1583   13.5785 C   0  0  0  0  0  0  0  0  0  0  0  0
   -3.7745   41.8342   13.6677 C   0  0  0  0  0  0  0  0  0  0  0  0
   -2.8086   42.8230   13.7758 C   0  0  0  0  0  0  0  0  0  0  0  0
   -3.1974   44.1574   13.7988 C   0  0  0  0  0  0  0  0  0  0  0  0
   -1.4041   45.2408   15.0040 C   0  0  0  0  0  0  0  0  0  0  0  0
    0.0096   45.0673   14.5621 C   0  0  0  0  0  0  0  0  0  0  0  0
    1.0338   44.4922   15.3144 C   0  0  0  0  0  0  0  0  0  0  0  0
    1.0340   43.9501   16.6883 C   0  0  0  0  0  0  0  0  0  0  0  0
    1.2464   40.3310   16.1726 F   0  0  0  0  0  0  0  0  0  0  0  0
    0.6531   41.8177   14.7825 F   0  0  0  0  0  0  0  0  0  0  0  0
    2.7003   41.6263   15.3120 F   0  0  0  0  0  0  0  0  0  0  0  0
    2.1621   44.5357   14.6414 N   0  0  0  0  0  0  0  0  0  0  0  0
   -1.2231   46.4803   10.3399 N   0  0  0  0  0  0  0  0  0  0  0  0
   -0.2690   47.4298   10.4504 N   0  0  0  0  0  0  0  0  0  0  0  0
   -6.7446   40.6757   14.4911 O   0  0  0  0  0  0  0  0  0  0  0  0
   -6.3751   40.6101   12.3172 O   0  0  0  0  0  0  0  0  0  0  0  0
   -2.3239   45.2173   13.8904 O   0  0  0  0  0  0  0  0  0  0  0  0
    1.8809   45.1314   13.3893 O   0  0  0  0  0  0  0  0  0  0  0  0
    0.5540   46.4686   17.5150 Cl  0  0  0  0  0  0  0  0  0  0  0  0
    0.6090   44.9863   19.9239 H   0  0  0  0  0  0  0  0  0  0  0  0
   -4.8472   45.5469   13.7312 H   0  0  0  0  0  0  0  0  0  0  0  0
   -6.5565   43.7694   13.5181 H   0  0  0  0  0  0  0  0  0  0  0  0
    0.9827   42.5691   20.3201 H   0  0  0  0  0  0  0  0  0  0  0  0
    1.3691   41.0414   18.4239 H   0  0  0  0  0  0  0  0  0  0  0  0
   -1.6476   44.7531   11.5542 H   0  0  0  0  0  0  0  0  0  0  0  0
    1.3585   47.8369   11.8378 H   0  0  0  0  0  0  0  0  0  0  0  0
   -3.4688   40.7776   13.6523 H   0  0  0  0  0  0  0  0  0  0  0  0
   -1.7442   42.5540   13.8427 H   0  0  0  0  0  0  0  0  0  0  0  0
   -1.6628   44.4259   15.6960 H   0  0  0  0  0  0  0  0  0  0  0  0
   -1.4894   46.2211   15.4956 H   0  0  0  0  0  0  0  0  0  0  0  0
   -1.9497   46.4168    9.6126 H   0  0  0  0  0  0  0  0  0  0  0  0
  1  7  2  0
  1  8  1  0
  2  3  1  0
  2  9  1  0
  2 21  2  0
  3 22  1  1
  3 23  1  0
  3 24  1  0
  4  5  2  0
  4 17  1  0
  5 14  1  0
  6 14  1  0
  6 28  2  0
  6 29  1  0
  7 21  1  0
  7 32  1  0
  8  9  2  0
 10 11  1  0
 10 19  2  0
 10 31  1  0
 11 12  2  0
 11 13  1  0
 12 26  1  0
 13 27  2  0
 14 15  2  0
 15 16  1  0
 16 17  2  0
 17 30  1  0
 18 19  1  0
 18 30  1  0
 19 20  1  0
 20 21  1  0
 20 25  2  0
 25 31  1  0
 26 27  1  0
  1 33  1  0
  4 34  1  0
  5 35  1  0
  8 36  1  0
  9 37  1  0
 12 38  1  0
 13 39  1  0
 15 40  1  0
 16 41  1  0
 18 42  1  0
 18 43  1  0
 26 44  1  0
M  CHG  1  29  -1
M  END
>  <filename_input>  (11) 
7NP6_UK8_docked.sdf

>  <pdb_id>  (11) 
7NP6_UK8

>  <pose_rank>  (11) 
10

>  <num_atoms_heavy>  (11) 
32

>  <num_torsions>  (11) 
7

>  <pose>  (11) 
[0.5679968005590859, 45.45433525567809, 13.352199118067684, 1.375408184708736, 1.7063407182982433, -2.6042560324575765, -0.10622546654208823, -4.1567241648662465, 8.648697040020481, -25.59545547049974, -13.792515776988346, 5.392660873373985, 1.4341686069786619]

>  <energy>  (11) 
-637.387580675839

>  <inter_energy>  (11) 
-699.3474671097559

>  <intra_energy>  (11) 
57.01564170205676

>  <rmsd>  (11) 
6.84235

>  <sdf_rank>  (11) 
0

$$$$

     RDKit          3D

 44 47  0  0  0  0  0  0  0  0999 V2000
    2.7123   41.3556   16.0560 C   0  0  0  0  0  0  0  0  0  0  0  0
    1.0188   43.0756   17.4846 C   0  0  0  0  0  0  0  0  0  0  0  0
    0.1742   44.0138   18.2896 C   0  0  1  0  0  0  0  0  0  0  0  0
   -1.2954   45.7592   12.0808 C   0  0  0  0  0  0  0  0  0  0  0  0
   -1.3803   46.6676   11.0433 C   0  0  0  0  0  0  0  0  0  0  0  0
   -0.4314   47.8407    9.0353 C   0  0  0  0  0  0  0  0  0  0  0  0
    1.3761   41.4936   15.7021 C   0  0  0  0  0  0  0  0  0  0  0  0
    3.1939   42.0751   17.1198 C   0  0  0  0  0  0  0  0  0  0  0  0
    2.3607   42.9230   17.8244 C   0  0  0  0  0  0  0  0  0  0  0  0
   -2.8634   43.0101   15.0874 C   0  0  0  0  0  0  0  0  0  0  0  0
   -4.0440   43.5621   14.4257 C   0  0  0  0  0  0  0  0  0  0  0  0
   -5.3908   43.3722   14.7792 C   0  0  0  0  0  0  0  0  0  0  0  0
   -4.0743   44.4050   13.3348 C   0  0  0  0  0  0  0  0  0  0  0  0
   -0.3209   46.8400   10.1622 C   0  0  0  0  0  0  0  0  0  0  0  0
    0.8347   46.0876   10.3486 C   0  0  0  0  0  0  0  0  0  0  0  0
    0.9340   45.1780   11.3903 C   0  0  0  0  0  0  0  0  0  0  0  0
   -0.1395   45.0141   12.2580 C   0  0  0  0  0  0  0  0  0  0  0  0
   -0.8703   44.5470   14.5141 C   0  0  0  0  0  0  0  0  0  0  0  0
   -1.5307   43.3858   15.1772 C   0  0  0  0  0  0  0  0  0  0  0  0
   -0.9019   42.4519   16.0006 C   0  0  0  0  0  0  0  0  0  0  0  0
    0.5117   42.3225   16.4086 C   0  0  0  0  0  0  0  0  0  0  0  0
   -0.2533   45.0632   17.5944 F   0  0  0  0  0  0  0  0  0  0  0  0
   -0.9138   43.4118   18.7482 F   0  0  0  0  0  0  0  0  0  0  0  0
    0.7933   44.5134   19.3649 F   0  0  0  0  0  0  0  0  0  0  0  0
   -1.7663   41.5382   16.3824 N   0  0  0  0  0  0  0  0  0  0  0  0
   -6.1750   44.0577   13.9601 N   0  0  0  0  0  0  0  0  0  0  0  0
   -5.3574   44.6791   13.0830 N   0  0  0  0  0  0  0  0  0  0  0  0
   -1.4647   48.5456    8.9633 O   0  0  0  0  0  0  0  0  0  0  0  0
    0.4809   47.8500    8.1902 O   0  0  0  0  0  0  0  0  0  0  0  0
   -0.1443   44.1505   13.3299 O   0  0  0  0  0  0  0  0  0  0  0  0
   -3.0183   41.8851   15.8221 O   0  0  0  0  0  0  0  0  0  0  0  0
    0.7754   40.5731   14.3772 Cl  0  0  0  0  0  0  0  0  0  0  0  0
    3.3731   40.6805   15.4924 H   0  0  0  0  0  0  0  0  0  0  0  0
   -2.1452   45.6269   12.7666 H   0  0  0  0  0  0  0  0  0  0  0  0
   -2.2974   47.2611   10.9138 H   0  0  0  0  0  0  0  0  0  0  0  0
    4.2493   41.9767   17.4137 H   0  0  0  0  0  0  0  0  0  0  0  0
    2.7671   43.4910   18.6742 H   0  0  0  0  0  0  0  0  0  0  0  0
   -5.7422   42.7465   15.6129 H   0  0  0  0  0  0  0  0  0  0  0  0
   -3.2045   44.7813   12.7762 H   0  0  0  0  0  0  0  0  0  0  0  0
    1.6821   46.2165    9.6592 H   0  0  0  0  0  0  0  0  0  0  0  0
    1.8541   44.5913   11.5289 H   0  0  0  0  0  0  0  0  0  0  0  0
   -1.6403   45.2795   14.2304 H   0  0  0  0  0  0  0  0  0  0  0  0
   -0.1518   44.9816   15.2246 H   0  0  0  0  0  0  0  0  0  0  0  0
   -7.2035   44.1070   13.9871 H   0  0  0  0  0  0  0  0  0  0  0  0
  1  7  2  0
  1  8  1  0
  2  3  1  0
  2  9  1  0
  2 21  2  0
  3 22  1  6
  3 23  1  0
  3 24  1  0
  4  5  2  0
  4 17  1  0
  5 14  1  0
  6 14  1  0
  6 28  2  0
  6 29  1  0
  7 21  1  0
  7 32  1  0
  8  9  2  0
 10 11  1  0
 10 19  2  0
 10 31  1  0
 11 12  2  0
 11 13  1  0
 12 26  1  0
 13 27  2  0
 14 15  2  0
 15 16  1  0
 16 17  2  0
 17 30  1  0
 18 19  1  0
 18 30  1  0
 19 20  1  0
 20 21  1  0
 20 25  2  0
 25 31  1  0
 26 27  1  0
  1 33  1  0
  4 34  1  0
  5 35  1  0
  8 36  1  0
  9 37  1  0
 12 38  1  0
 13 39  1  0
 15 40  1  0
 16 41  1  0
 18 42  1  0
 18 43  1  0
 26 44  1  0
M  CHG  1  29  -1
M  END
>  <filename_input>  (12) 
7NP6_UK8_docked.sdf

>  <pdb_id>  (12) 
7NP6_UK8

>  <pose_rank>  (12) 
11

>  <num_atoms_heavy>  (12) 
32

>  <num_torsions>  (12) 
7

>  <pose>  (12) 
[-2.8633859786296996, 43.01010181770373, 15.087397881212608, 0.6450426391798151, -2.7305600269458234, -3.1609370764073312, -6.91112569591965, 3.8020523726497837, 0.5771787825832725, -9.015990459861003, -0.6849458750299503, -3.659058097564982, 2.997570208590842]

>  <energy>  (12) 
-634.8051597819749

>  <inter_energy>  (12) 
-664.6609152018141

>  <intra_energy>  (12) 
26.249242352431803

>  <rmsd>  (12) 
7.26947

>  <sdf_rank>  (12) 
0

$$$$

     RDKit          3D

 44 47  0  0  0  0  0  0  0  0999 V2000
    0.7031   46.5962   11.7004 C   0  0  0  0  0  0  0  0  0  0  0  0
    0.7104   45.4945   14.2798 C   0  0  0  0  0  0  0  0  0  0  0  0
    0.7690   44.9551   15.6752 C   0  0  1  0  0  0  0  0  0  0  0  0
   -4.7038   45.9736   15.0795 C   0  0  0  0  0  0  0  0  0  0  0  0
   -5.2750   46.5201   16.2126 C   0  0  0  0  0  0  0  0  0  0  0  0
   -7.2209   46.9073   17.7528 C   0  0  0  0  0  0  0  0  0  0  0  0
   -0.1940   45.5943   12.0482 C   0  0  0  0  0  0  0  0  0  0  0  0
    1.5976   47.0406   12.6405 C   0  0  0  0  0  0  0  0  0  0  0  0
    1.6021   46.4987   13.9117 C   0  0  0  0  0  0  0  0  0  0  0  0
   -2.9649   42.6612   13.9359 C   0  0  0  0  0  0  0  0  0  0  0  0
   -4.2586   41.9948   14.0726 C   0  0  0  0  0  0  0  0  0  0  0  0
   -5.0517   41.4469   13.0499 C   0  0  0  0  0  0  0  0  0  0  0  0
   -4.9514   41.7436   15.2381 C   0  0  0  0  0  0  0  0  0  0  0  0
   -6.6132   46.2986   16.5104 C   0  0  0  0  0  0  0  0  0  0  0  0
   -7.3737   45.5234   15.6404 C   0  0  0  0  0  0  0  0  0  0  0  0
   -6.8131   44.9756   14.4967 C   0  0  0  0  0  0  0  0  0  0  0  0
   -5.4701   45.2024   14.2188 C   0  0  0  0  0  0  0  0  0  0  0  0
   -3.4090   45.0137   12.9705 C   0  0  0  0  0  0  0  0  0  0  0  0
   -2.5545   43.9154   13.5069 C   0  0  0  0  0  0  0  0  0  0  0  0
   -1.1679   43.9586   13.6522 C   0  0  0  0  0  0  0  0  0  0  0  0
   -0.1950   45.0169   13.3132 C   0  0  0  0  0  0  0  0  0  0  0  0
    0.9987   43.6465   15.7231 F   0  0  0  0  0  0  0  0  0  0  0  0
    1.7431   45.5225   16.3720 F   0  0  0  0  0  0  0  0  0  0  0  0
   -0.3484   45.1577   16.3820 F   0  0  0  0  0  0  0  0  0  0  0  0
   -0.7303   42.8085   14.1141 N   0  0  0  0  0  0  0  0  0  0  0  0
   -6.1426   40.9003   13.5665 N   0  0  0  0  0  0  0  0  0  0  0  0
   -6.0684   41.0927   14.9012 N   0  0  0  0  0  0  0  0  0  0  0  0
   -7.4013   48.1468   17.7823 O   0  0  0  0  0  0  0  0  0  0  0  0
   -7.4332   46.1474   18.7140 O   0  0  0  0  0  0  0  0  0  0  0  0
   -4.8163   44.7184   13.1084 O   0  0  0  0  0  0  0  0  0  0  0  0
   -1.8592   41.9788   14.3116 O   0  0  0  0  0  0  0  0  0  0  0  0
   -1.3010   45.0297   10.8569 Cl  0  0  0  0  0  0  0  0  0  0  0  0
    0.6963   47.0261   10.6879 H   0  0  0  0  0  0  0  0  0  0  0  0
   -3.6405   46.1503   14.8600 H   0  0  0  0  0  0  0  0  0  0  0  0
   -4.6629   47.1375   16.8865 H   0  0  0  0  0  0  0  0  0  0  0  0
    2.3154   47.8328   12.3811 H   0  0  0  0  0  0  0  0  0  0  0  0
    2.3276   46.8696   14.6507 H   0  0  0  0  0  0  0  0  0  0  0  0
   -4.8034   41.4687   11.9785 H   0  0  0  0  0  0  0  0  0  0  0  0
   -4.6421   42.0264   16.2552 H   0  0  0  0  0  0  0  0  0  0  0  0
   -8.4356   45.3425   15.8633 H   0  0  0  0  0  0  0  0  0  0  0  0
   -7.4256   44.3669   13.8152 H   0  0  0  0  0  0  0  0  0  0  0  0
   -3.1845   45.9396   13.5203 H   0  0  0  0  0  0  0  0  0  0  0  0
   -3.1877   45.1249   11.8988 H   0  0  0  0  0  0  0  0  0  0  0  0
   -6.8971   40.4236   13.0524 H   0  0  0  0  0  0  0  0  0  0  0  0
  1  7  2  0
  1  8  1  0
  2  3  1  0
  2  9  1  0
  2 21  2  0
  3 22  1  6
  3 23  1  0
  3 24  1  0
  4  5  2  0
  4 17  1  0
  5 14  1  0
  6 14  1  0
  6 28  2  0
  6 29  1  0
  7 21  1  0
  7 32  1  0
  8  9  2  0
 10 11  1  0
 10 19  2  0
 10 31  1  0
 11 12  2  0
 11 13  1  0
 12 26  1  0
 13 27  2  0
 14 15  2  0
 15 16  1  0
 16 17  2  0
 17 30  1  0
 18 19  1  0
 18 30  1  0
 19 20  1  0
 20 21  1  0
 20 25  2  0
 25 31  1  0
 26 27  1  0
  1 33  1  0
  4 34  1  0
  5 35  1  0
  8 36  1  0
  9 37  1  0
 12 38  1  0
 13 39  1  0
 15 40  1  0
 16 41  1  0
 18 42  1  0
 18 43  1  0
 26 44  1  0
M  CHG  1  29  -1
M  END
>  <filename_input>  (13) 
7NP6_UK8_docked.sdf

>  <pdb_id>  (13) 
7NP6_UK8

>  <pose_rank>  (13) 
12

>  <num_atoms_heavy>  (13) 
32

>  <num_torsions>  (13) 
7

>  <pose>  (13) 
[-2.964933679672987, 42.661230560214804, 13.935930180215081, -0.49206056221321115, 1.7007370360534833, 2.5505152471915715, 0.12974066184618988, -0.3137716041521548, -1.663775689448651, -0.8406464263480209, -1.5429643583934658, 3.2442398217591815, -2.112259099933839]

>  <energy>  (13) 
-622.0396044481167

>  <inter_energy>  (13) 
-718.5413233693421

>  <intra_energy>  (13) 
96.72032554159472

>  <rmsd>  (13) 
7.47493

>  <sdf_rank>  (13) 
0

$$$$

     RDKit          3D

 44 47  0  0  0  0  0  0  0  0999 V2000
    1.9345   45.2875   17.6254 C   0  0  0  0  0  0  0  0  0  0  0  0
    1.7931   42.7012   16.5492 C   0  0  0  0  0  0  0  0  0  0  0  0
    1.7897   41.3101   15.9954 C   0  0  1  0  0  0  0  0  0  0  0  0
   -1.2002   45.2791   10.4389 C   0  0  0  0  0  0  0  0  0  0  0  0
   -1.1871   46.3873    9.6139 C   0  0  0  0  0  0  0  0  0  0  0  0
   -1.5000   48.8427    9.1880 C   0  0  0  0  0  0  0  0  0  0  0  0
    0.7500   44.8075   17.0810 C   0  0  0  0  0  0  0  0  0  0  0  0
    3.0396   44.4751   17.6283 C   0  0  0  0  0  0  0  0  0  0  0  0
    2.9713   43.2006   17.0985 C   0  0  0  0  0  0  0  0  0  0  0  0
   -2.3843   42.5500   14.6885 C   0  0  0  0  0  0  0  0  0  0  0  0
   -3.4658   42.3773   13.7206 C   0  0  0  0  0  0  0  0  0  0  0  0
   -4.6640   43.1069   13.6365 C   0  0  0  0  0  0  0  0  0  0  0  0
   -3.5175   41.4798   12.6750 C   0  0  0  0  0  0  0  0  0  0  0  0
   -1.5171   47.6430   10.1066 C   0  0  0  0  0  0  0  0  0  0  0  0
   -1.8721   47.7649   11.4465 C   0  0  0  0  0  0  0  0  0  0  0  0
   -1.8955   46.6588   12.2822 C   0  0  0  0  0  0  0  0  0  0  0  0
   -1.5553   45.4111   11.7728 C   0  0  0  0  0  0  0  0  0  0  0  0
   -0.6625   44.1619   13.6395 C   0  0  0  0  0  0  0  0  0  0  0  0
   -1.2117   43.2912   14.7186 C   0  0  0  0  0  0  0  0  0  0  0  0
   -0.6162   43.0558   15.9578 C   0  0  0  0  0  0  0  0  0  0  0  0
    0.6611   43.5377   16.5214 C   0  0  0  0  0  0  0  0  0  0  0  0
    1.1988   40.4281   16.7956 F   0  0  0  0  0  0  0  0  0  0  0  0
    1.1387   41.2507   14.8425 F   0  0  0  0  0  0  0  0  0  0  0  0
    3.0103   40.8219   15.7488 F   0  0  0  0  0  0  0  0  0  0  0  0
   -1.3442   42.2083   16.6503 N   0  0  0  0  0  0  0  0  0  0  0  0
   -5.3827   42.6802   12.6083 N   0  0  0  0  0  0  0  0  0  0  0  0
   -4.6717   41.6856   12.0345 N   0  0  0  0  0  0  0  0  0  0  0  0
   -1.0136   48.7086    8.0412 O   0  0  0  0  0  0  0  0  0  0  0  0
   -1.8986   49.9239    9.6556 O   0  0  0  0  0  0  0  0  0  0  0  0
   -1.5567   44.2475   12.5082 O   0  0  0  0  0  0  0  0  0  0  0  0
   -2.4761   41.8877   15.8643 O   0  0  0  0  0  0  0  0  0  0  0  0
   -0.6272   45.8402   17.0649 Cl  0  0  0  0  0  0  0  0  0  0  0  0
    1.9852   46.3021   18.0472 H   0  0  0  0  0  0  0  0  0  0  0  0
   -0.9288   44.2917   10.0375 H   0  0  0  0  0  0  0  0  0  0  0  0
   -0.9123   46.2736    8.5549 H   0  0  0  0  0  0  0  0  0  0  0  0
    3.9856   44.8401   18.0547 H   0  0  0  0  0  0  0  0  0  0  0  0
    3.8692   42.5653   17.1109 H   0  0  0  0  0  0  0  0  0  0  0  0
   -4.9613   43.9133   14.3229 H   0  0  0  0  0  0  0  0  0  0  0  0
   -2.7515   40.7339   12.4165 H   0  0  0  0  0  0  0  0  0  0  0  0
   -2.1382   48.7536   11.8487 H   0  0  0  0  0  0  0  0  0  0  0  0
   -2.1808   46.7678   13.3390 H   0  0  0  0  0  0  0  0  0  0  0  0
   -0.5035   45.1723   14.0442 H   0  0  0  0  0  0  0  0  0  0  0  0
    0.2834   43.7197   13.2933 H   0  0  0  0  0  0  0  0  0  0  0  0
   -6.3010   43.0362   12.3067 H   0  0  0  0  0  0  0  0  0  0  0  0
  1  7  2  0
  1  8  1  0
  2  3  1  0
  2  9  1  0
  2 21  2  0
  3 22  1  1
  3 23  1  0
  3 24  1  0
  4  5  2  0
  4 17  1  0
  5 14  1  0
  6 14  1  0
  6 28  2  0
  6 29  1  0
  7 21  1  0
  7 32  1  0
  8  9  2  0
 10 11  1  0
 10 19  2  0
 10 31  1  0
 11 12  2  0
 11 13  1  0
 12 26  1  0
 13 27  2  0
 14 15  2  0
 15 16  1  0
 16 17  2  0
 17 30  1  0
 18 19  1  0
 18 30  1  0
 19 20  1  0
 20 21  1  0
 20 25  2  0
 25 31  1  0
 26 27  1  0
  1 33  1  0
  4 34  1  0
  5 35  1  0
  8 36  1  0
  9 37  1  0
 12 38  1  0
 13 39  1  0
 15 40  1  0
 16 41  1  0
 18 42  1  0
 18 43  1  0
 26 44  1  0
M  CHG  1  29  -1
M  END
>  <filename_input>  (14) 
7NP6_UK8_docked.sdf

>  <pdb_id>  (14) 
7NP6_UK8

>  <pose_rank>  (14) 
13

>  <num_atoms_heavy>  (14) 
32

>  <num_torsions>  (14) 
7

>  <pose>  (14) 
[-2.384281590146198, 42.54999825312972, 14.688494691869806, -0.948796750069536, 1.5632464100048202, 1.3226488438875659, 2.4336057087693317, 3.608281343593014, 1.6884866398307585, 5.366556167906796, -0.5870635883777856, -0.998557537924339, 2.7709362688705985]

>  <energy>  (14) 
-674.587563702602

>  <inter_energy>  (14) 
-692.198957251367

>  <intra_energy>  (14) 
36.70425546500003

>  <rmsd>  (14) 
7.93358

>  <sdf_rank>  (14) 
0

$$$$

     RDKit          3D

 44 47  0  0  0  0  0  0  0  0999 V2000
    2.7873   45.1870   17.9680 C   0  0  0  0  0  0  0  0  0  0  0  0
    2.2029   42.6480   16.9291 C   0  0  0  0  0  0  0  0  0  0  0  0
    1.9595   41.2698   16.3970 C   0  0  1  0  0  0  0  0  0  0  0  0
    0.1420   46.6601   11.9719 C   0  0  0  0  0  0  0  0  0  0  0  0
   -0.0670   47.7859   11.1988 C   0  0  0  0  0  0  0  0  0  0  0  0
   -1.4298   49.1572    9.5954 C   0  0  0  0  0  0  0  0  0  0  0  0
    1.5456   44.9167   17.4070 C   0  0  0  0  0  0  0  0  0  0  0  0
    3.7286   44.1900   18.0059 C   0  0  0  0  0  0  0  0  0  0  0  0
    3.4419   42.9386   17.4946 C   0  0  0  0  0  0  0  0  0  0  0  0
   -1.9259   43.2829   15.0122 C   0  0  0  0  0  0  0  0  0  0  0  0
   -3.0334   43.3594   14.0614 C   0  0  0  0  0  0  0  0  0  0  0  0
   -3.8374   44.4750   13.7716 C   0  0  0  0  0  0  0  0  0  0  0  0
   -3.4970   42.3579   13.2346 C   0  0  0  0  0  0  0  0  0  0  0  0
   -1.2204   47.9198   10.4370 C   0  0  0  0  0  0  0  0  0  0  0  0
   -2.1597   46.8934   10.4576 C   0  0  0  0  0  0  0  0  0  0  0  0
   -1.9575   45.7559   11.2242 C   0  0  0  0  0  0  0  0  0  0  0  0
   -0.8001   45.6428   11.9856 C   0  0  0  0  0  0  0  0  0  0  0  0
   -0.0392   44.8020   14.1202 C   0  0  0  0  0  0  0  0  0  0  0  0
   -0.6732   43.8732   15.0997 C   0  0  0  0  0  0  0  0  0  0  0  0
   -0.0931   43.4171   16.2834 C   0  0  0  0  0  0  0  0  0  0  0  0
    1.2400   43.6730   16.8654 C   0  0  0  0  0  0  0  0  0  0  0  0
    1.0402   41.2324   15.4374 F   0  0  0  0  0  0  0  0  0  0  0  0
    3.0603   40.7546   15.8685 F   0  0  0  0  0  0  0  0  0  0  0  0
    1.5578   40.3938   17.3246 F   0  0  0  0  0  0  0  0  0  0  0  0
   -0.9072   42.5802   16.8871 N   0  0  0  0  0  0  0  0  0  0  0  0
   -4.7192   44.1659   12.8321 N   0  0  0  0  0  0  0  0  0  0  0  0
   -4.5011   42.8707   12.5178 N   0  0  0  0  0  0  0  0  0  0  0  0
   -0.8417   49.2340    8.4918 O   0  0  0  0  0  0  0  0  0  0  0  0
   -2.1147   50.0713   10.0871 O   0  0  0  0  0  0  0  0  0  0  0  0
   -0.4928   44.5550   12.7712 O   0  0  0  0  0  0  0  0  0  0  0  0
   -2.0798   42.4941   16.1001 O   0  0  0  0  0  0  0  0  0  0  0  0
    0.3764   46.1788   17.3469 Cl  0  0  0  0  0  0  0  0  0  0  0  0
    3.0120   46.1839   18.3750 H   0  0  0  0  0  0  0  0  0  0  0  0
    1.0564   46.5707   12.5768 H   0  0  0  0  0  0  0  0  0  0  0  0
    0.6886   48.5852   11.1865 H   0  0  0  0  0  0  0  0  0  0  0  0
    4.7172   44.3876   18.4459 H   0  0  0  0  0  0  0  0  0  0  0  0
    4.2109   42.1531   17.5352 H   0  0  0  0  0  0  0  0  0  0  0  0
   -3.7478   45.4597   14.2536 H   0  0  0  0  0  0  0  0  0  0  0  0
   -3.1120   41.3292   13.1761 H   0  0  0  0  0  0  0  0  0  0  0  0
   -3.0764   46.9858    9.8567 H   0  0  0  0  0  0  0  0  0  0  0  0
   -2.7062   44.9501   11.2297 H   0  0  0  0  0  0  0  0  0  0  0  0
   -0.2917   45.8364   14.3963 H   0  0  0  0  0  0  0  0  0  0  0  0
    1.0481   44.6376   14.1494 H   0  0  0  0  0  0  0  0  0  0  0  0
   -5.4297   44.7894   12.4229 H   0  0  0  0  0  0  0  0  0  0  0  0
  1  7  2  0
  1  8  1  0
  2  3  1  0
  2  9  1  0
  2 21  2  0
  3 22  1  6
  3 23  1  0
  3 24  1  0
  4  5  2  0
  4 17  1  0
  5 14  1  0
  6 14  1  0
  6 28  2  0
  6 29  1  0
  7 21  1  0
  7 32  1  0
  8  9  2  0
 10 11  1  0
 10 19  2  0
 10 31  1  0
 11 12  2  0
 11 13  1  0
 12 26  1  0
 13 27  2  0
 14 15  2  0
 15 16  1  0
 16 17  2  0
 17 30  1  0
 18 19  1  0
 18 30  1  0
 19 20  1  0
 20 21  1  0
 20 25  2  0
 25 31  1  0
 26 27  1  0
  1 33  1  0
  4 34  1  0
  5 35  1  0
  8 36  1  0
  9 37  1  0
 12 38  1  0
 13 39  1  0
 15 40  1  0
 16 41  1  0
 18 42  1  0
 18 43  1  0
 26 44  1  0
M  CHG  1  29  -1
M  END
>  <filename_input>  (15) 
7NP6_UK8_docked.sdf

>  <pdb_id>  (15) 
7NP6_UK8

>  <pose_rank>  (15) 
14

>  <num_atoms_heavy>  (15) 
32

>  <num_torsions>  (15) 
7

>  <pose>  (15) 
[-1.9259156799340529, 43.282910216139534, 15.012180062065456, 1.452355808674944, -2.8991848422156, -2.559309236941469, 2.2740787479182343, -0.8849941651533746, 2.1497131723786453, -7.783459589530439, -0.8075322286112797, -2.2374282163853976, -1.9584567664405543]

>  <energy>  (15) 
-630.2070615869444

>  <inter_energy>  (15) 
-675.5299281720847

>  <intra_energy>  (15) 
54.533694990653515

>  <rmsd>  (15) 
7.91261

>  <sdf_rank>  (15) 
0

$$$$

     RDKit          3D

 44 47  0  0  0  0  0  0  0  0999 V2000
   -6.5388   45.8340   14.8785 C   0  0  0  0  0  0  0  0  0  0  0  0
   -6.1445   43.1082   15.4093 C   0  0  0  0  0  0  0  0  0  0  0  0
   -5.9717   41.6623   15.7576 C   0  0  1  0  0  0  0  0  0  0  0  0
   -0.5072   45.8312   11.5925 C   0  0  0  0  0  0  0  0  0  0  0  0
    0.7517   46.3995   11.5595 C   0  0  0  0  0  0  0  0  0  0  0  0
    2.9433   47.0055   12.6262 C   0  0  0  0  0  0  0  0  0  0  0  0
   -5.8927   45.0167   13.9597 C   0  0  0  0  0  0  0  0  0  0  0  0
   -6.9825   45.2865   16.0554 C   0  0  0  0  0  0  0  0  0  0  0  0
   -6.7890   43.9437   16.3180 C   0  0  0  0  0  0  0  0  0  0  0  0
   -3.5330   41.7404   11.8973 C   0  0  0  0  0  0  0  0  0  0  0  0
   -2.4355   41.1788   11.1122 C   0  0  0  0  0  0  0  0  0  0  0  0
   -1.0994   41.0039   11.5112 C   0  0  0  0  0  0  0  0  0  0  0  0
   -2.4950   40.6806    9.8278 C   0  0  0  0  0  0  0  0  0  0  0  0
    1.5707   46.3760   12.6807 C   0  0  0  0  0  0  0  0  0  0  0  0
    1.0966   45.7780   13.8442 C   0  0  0  0  0  0  0  0  0  0  0  0
   -0.1677   45.2107   13.8912 C   0  0  0  0  0  0  0  0  0  0  0  0
   -0.9705   45.2375   12.7568 C   0  0  0  0  0  0  0  0  0  0  0  0
   -2.5236   43.5260   13.4644 C   0  0  0  0  0  0  0  0  0  0  0  0
   -3.6326   42.7269   12.8680 C   0  0  0  0  0  0  0  0  0  0  0  0
   -4.9820   42.8256   13.2073 C   0  0  0  0  0  0  0  0  0  0  0  0
   -5.6656   43.6679   14.2096 C   0  0  0  0  0  0  0  0  0  0  0  0
   -4.7265   41.2275   15.5915 F   0  0  0  0  0  0  0  0  0  0  0  0
   -6.2725   41.4320   17.0276 F   0  0  0  0  0  0  0  0  0  0  0  0
   -6.7468   40.8369   15.0455 F   0  0  0  0  0  0  0  0  0  0  0  0
   -5.6811   41.9488   12.5215 N   0  0  0  0  0  0  0  0  0  0  0  0
   -0.4061   40.4353   10.5356 N   0  0  0  0  0  0  0  0  0  0  0  0
   -1.2704   40.2479    9.5148 N   0  0  0  0  0  0  0  0  0  0  0  0
    3.0553   48.2179   12.9220 O   0  0  0  0  0  0  0  0  0  0  0  0
    3.8778   46.2992   12.2087 O   0  0  0  0  0  0  0  0  0  0  0  0
   -2.2432   44.7166   12.6959 O   0  0  0  0  0  0  0  0  0  0  0  0
   -4.7784   41.2612   11.6763 O   0  0  0  0  0  0  0  0  0  0  0  0
   -5.3229   45.7157   12.4933 Cl  0  0  0  0  0  0  0  0  0  0  0  0
   -6.6921   46.9023   14.6659 H   0  0  0  0  0  0  0  0  0  0  0  0
   -1.1424   45.8497   10.6946 H   0  0  0  0  0  0  0  0  0  0  0  0
    1.1092   46.8758   10.6347 H   0  0  0  0  0  0  0  0  0  0  0  0
   -7.4952   45.9200   16.7942 H   0  0  0  0  0  0  0  0  0  0  0  0
   -7.1528   43.5248   17.2678 H   0  0  0  0  0  0  0  0  0  0  0  0
   -0.6895   41.2958   12.4894 H   0  0  0  0  0  0  0  0  0  0  0  0
   -3.3846   40.6460    9.1816 H   0  0  0  0  0  0  0  0  0  0  0  0
    1.7344   45.7550   14.7402 H   0  0  0  0  0  0  0  0  0  0  0  0
   -0.5321   44.7434   14.8180 H   0  0  0  0  0  0  0  0  0  0  0  0
   -2.8070   43.8206   14.4856 H   0  0  0  0  0  0  0  0  0  0  0  0
   -1.6178   42.9019   13.4683 H   0  0  0  0  0  0  0  0  0  0  0  0
    0.5931   40.1859   10.5523 H   0  0  0  0  0  0  0  0  0  0  0  0
  1  7  2  0
  1  8  1  0
  2  3  1  0
  2  9  1  0
  2 21  2  0
  3 22  1  1
  3 23  1  0
  3 24  1  0
  4  5  2  0
  4 17  1  0
  5 14  1  0
  6 14  1  0
  6 28  2  0
  6 29  1  0
  7 21  1  0
  7 32  1  0
  8  9  2  0
 10 11  1  0
 10 19  2  0
 10 31  1  0
 11 12  2  0
 11 13  1  0
 12 26  1  0
 13 27  2  0
 14 15  2  0
 15 16  1  0
 16 17  2  0
 17 30  1  0
 18 19  1  0
 18 30  1  0
 19 20  1  0
 20 21  1  0
 20 25  2  0
 25 31  1  0
 26 27  1  0
  1 33  1  0
  4 34  1  0
  5 35  1  0
  8 36  1  0
  9 37  1  0
 12 38  1  0
 13 39  1  0
 15 40  1  0
 16 41  1  0
 18 42  1  0
 18 43  1  0
 26 44  1  0
M  CHG  1  29  -1
M  END
>  <filename_input>  (16) 
7NP6_UK8_docked.sdf

>  <pdb_id>  (16) 
7NP6_UK8

>  <pose_rank>  (16) 
15

>  <num_atoms_heavy>  (16) 
32

>  <num_torsions>  (16) 
7

>  <pose>  (16) 
[-3.533006376294955, 41.740351888151665, 11.897345312960237, 4.57844034630208, -0.8303768978655918, 0.2763694492363156, -3.9240372357314617, -0.4710516561928941, 3.874092960310749, 0.5477582275110615, 0.4105641564642194, -0.5245982460196481, -1.7897587028053403]

>  <energy>  (16) 
-523.673528843834

>  <inter_energy>  (16) 
-573.8233013965994

>  <intra_energy>  (16) 
25.33715981362905

>  <rmsd>  (16) 
5.20769

>  <sdf_rank>  (16) 
0

$$$$

     RDKit          3D

 44 47  0  0  0  0  0  0  0  0999 V2000
   -2.7417   44.6823   11.2224 C   0  0  0  0  0  0  0  0  0  0  0  0
   -0.5842   46.3287   11.9306 C   0  0  0  0  0  0  0  0  0  0  0  0
    0.5549   47.2477   12.2459 C   0  0  1  0  0  0  0  0  0  0  0  0
    4.1596   43.6603   11.6439 C   0  0  0  0  0  0  0  0  0  0  0  0
    5.3212   43.2284   11.0330 C   0  0  0  0  0  0  0  0  0  0  0  0
    7.7651   43.4524   10.4987 C   0  0  0  0  0  0  0  0  0  0  0  0
   -2.0516   44.4783   12.4105 C   0  0  0  0  0  0  0  0  0  0  0  0
   -2.3505   45.7047   10.3958 C   0  0  0  0  0  0  0  0  0  0  0  0
   -1.2878   46.5166   10.7437 C   0  0  0  0  0  0  0  0  0  0  0  0
    1.2015   44.5722   15.6767 C   0  0  0  0  0  0  0  0  0  0  0  0
    2.2807   44.1827   16.5823 C   0  0  0  0  0  0  0  0  0  0  0  0
    2.4032   44.4867   17.9489 C   0  0  0  0  0  0  0  0  0  0  0  0
    3.3857   43.4132   16.2850 C   0  0  0  0  0  0  0  0  0  0  0  0
    6.5055   43.9390   11.1770 C   0  0  0  0  0  0  0  0  0  0  0  0
    6.5002   45.1024   11.9404 C   0  0  0  0  0  0  0  0  0  0  0  0
    5.3391   45.5493   12.5524 C   0  0  0  0  0  0  0  0  0  0  0  0
    4.1647   44.8209   12.4027 C   0  0  0  0  0  0  0  0  0  0  0  0
    2.0181   44.1256   13.2690 C   0  0  0  0  0  0  0  0  0  0  0  0
    1.0282   44.5510   14.3002 C   0  0  0  0  0  0  0  0  0  0  0  0
   -0.2583   45.0273   14.0473 C   0  0  0  0  0  0  0  0  0  0  0  0
   -0.9650   45.2667   12.7728 C   0  0  0  0  0  0  0  0  0  0  0  0
    1.0755   47.0440   13.4520 F   0  0  0  0  0  0  0  0  0  0  0  0
    1.5522   47.0933   11.3869 F   0  0  0  0  0  0  0  0  0  0  0  0
    0.2333   48.5453   12.1993 F   0  0  0  0  0  0  0  0  0  0  0  0
   -0.8460   45.3506   15.1777 N   0  0  0  0  0  0  0  0  0  0  0  0
    3.5030   43.9337   18.4391 N   0  0  0  0  0  0  0  0  0  0  0  0
    4.0928   43.2857   17.4113 N   0  0  0  0  0  0  0  0  0  0  0  0
    7.9258   43.7114    9.2834 O   0  0  0  0  0  0  0  0  0  0  0  0
    8.5378   42.7469   11.1707 O   0  0  0  0  0  0  0  0  0  0  0  0
    2.9555   45.1787   12.9547 O   0  0  0  0  0  0  0  0  0  0  0  0
    0.0621   45.0557   16.2219 O   0  0  0  0  0  0  0  0  0  0  0  0
   -2.5375   43.1816   13.4333 Cl  0  0  0  0  0  0  0  0  0  0  0  0
   -3.5878   44.0347   10.9489 H   0  0  0  0  0  0  0  0  0  0  0  0
    3.2303   43.0833   11.5282 H   0  0  0  0  0  0  0  0  0  0  0  0
    5.3076   42.3112   10.4259 H   0  0  0  0  0  0  0  0  0  0  0  0
   -2.8857   45.8792    9.4508 H   0  0  0  0  0  0  0  0  0  0  0  0
   -0.9905   47.3310   10.0666 H   0  0  0  0  0  0  0  0  0  0  0  0
    1.6910   45.0943   18.5265 H   0  0  0  0  0  0  0  0  0  0  0  0
    3.6378   42.9845   15.3039 H   0  0  0  0  0  0  0  0  0  0  0  0
    7.4311   45.6760   12.0602 H   0  0  0  0  0  0  0  0  0  0  0  0
    5.3472   46.4721   13.1510 H   0  0  0  0  0  0  0  0  0  0  0  0
    2.5745   43.2557   13.6479 H   0  0  0  0  0  0  0  0  0  0  0  0
    1.4669   43.8749   12.3507 H   0  0  0  0  0  0  0  0  0  0  0  0
    3.8409   43.9874   19.4106 H   0  0  0  0  0  0  0  0  0  0  0  0
  1  7  2  0
  1  8  1  0
  2  3  1  0
  2  9  1  0
  2 21  2  0
  3 22  1  1
  3 23  1  0
  3 24  1  0
  4  5  2  0
  4 17  1  0
  5 14  1  0
  6 14  1  0
  6 28  2  0
  6 29  1  0
  7 21  1  0
  7 32  1  0
  8  9  2  0
 10 11  1  0
 10 19  2  0
 10 31  1  0
 11 12  2  0
 11 13  1  0
 12 26  1  0
 13 27  2  0
 14 15  2  0
 15 16  1  0
 16 17  2  0
 17 30  1  0
 18 19  1  0
 18 30  1  0
 19 20  1  0
 20 21  1  0
 20 25  2  0
 25 31  1  0
 26 27  1  0
  1 33  1  0
  4 34  1  0
  5 35  1  0
  8 36  1  0
  9 37  1  0
 12 38  1  0
 13 39  1  0
 15 40  1  0
 16 41  1  0
 18 42  1  0
 18 43  1  0
 26 44  1  0
M  CHG  1  29  -1
M  END
>  <filename_input>  (17) 
7NP6_UK8_docked.sdf

>  <pdb_id>  (17) 
7NP6_UK8

>  <pose_rank>  (17) 
16

>  <num_atoms_heavy>  (17) 
32

>  <num_torsions>  (17) 
7

>  <pose>  (17) 
[1.201549993086707, 44.572176455722214, 15.67674810459995, -3.974227486097579, 0.4664156637253523, -0.28883197415836737, 2.9698114718878577, -1.4316944974418913, -0.07178298178520509, -2.4170719665360223, -0.43841402815136576, 3.71389435161927, -1.9378717630884936]

>  <energy>  (17) 
-489.7361918020352

>  <inter_energy>  (17) 
-570.2687993114812

>  <intra_energy>  (17) 
77.04621495996078

>  <rmsd>  (17) 
6.42206

>  <sdf_rank>  (17) 
0

$$$$

     RDKit          3D

 44 47  0  0  0  0  0  0  0  0999 V2000
   -5.7835   52.7769   12.7119 C   0  0  0  0  0  0  0  0  0  0  0  0
   -5.0399   51.9843   10.1262 C   0  0  0  0  0  0  0  0  0  0  0  0
   -4.7038   51.5975    8.7194 C   0  0  1  0  0  0  0  0  0  0  0  0
   -3.0204   45.0391   12.6824 C   0  0  0  0  0  0  0  0  0  0  0  0
   -3.5704   43.9855   13.3869 C   0  0  0  0  0  0  0  0  0  0  0  0
   -5.4544   42.8939   14.6388 C   0  0  0  0  0  0  0  0  0  0  0  0
   -4.6171   52.0536   12.4977 C   0  0  0  0  0  0  0  0  0  0  0  0
   -6.5709   53.0986   11.6359 C   0  0  0  0  0  0  0  0  0  0  0  0
   -6.2057   52.7089   10.3614 C   0  0  0  0  0  0  0  0  0  0  0  0
   -1.3763   49.3285   10.8846 C   0  0  0  0  0  0  0  0  0  0  0  0
   -0.4563   48.1931   10.9095 C   0  0  0  0  0  0  0  0  0  0  0  0
    0.6583   48.0125   11.7463 C   0  0  0  0  0  0  0  0  0  0  0  0
   -0.5118   47.0540   10.1343 C   0  0  0  0  0  0  0  0  0  0  0  0
   -4.8713   44.0553   13.8678 C   0  0  0  0  0  0  0  0  0  0  0  0
   -5.6099   45.2117   13.6366 C   0  0  0  0  0  0  0  0  0  0  0  0
   -5.0661   46.2781   12.9369 C   0  0  0  0  0  0  0  0  0  0  0  0
   -3.7647   46.1872   12.4571 C   0  0  0  0  0  0  0  0  0  0  0  0
   -3.6000   48.5408   11.9324 C   0  0  0  0  0  0  0  0  0  0  0  0
   -2.6797   49.5372   11.3124 C   0  0  0  0  0  0  0  0  0  0  0  0
   -2.9880   50.8690   11.0350 C   0  0  0  0  0  0  0  0  0  0  0  0
   -4.2389   51.6301   11.2284 C   0  0  0  0  0  0  0  0  0  0  0  0
   -3.6829   50.7500    8.6376 F   0  0  0  0  0  0  0  0  0  0  0  0
   -5.7255   50.9969    8.1262 F   0  0  0  0  0  0  0  0  0  0  0  0
   -4.3854   52.6325    7.9341 F   0  0  0  0  0  0  0  0  0  0  0  0
   -1.9652   51.4528   10.4512 N   0  0  0  0  0  0  0  0  0  0  0  0
    1.2293   46.8437   11.4941 N   0  0  0  0  0  0  0  0  0  0  0  0
    0.5062   46.2730   10.5064 N   0  0  0  0  0  0  0  0  0  0  0  0
   -6.5315   43.0681   15.2548 O   0  0  0  0  0  0  0  0  0  0  0  0
   -4.7846   41.8472   14.6851 O   0  0  0  0  0  0  0  0  0  0  0  0
   -3.1233   47.1878   11.7627 O   0  0  0  0  0  0  0  0  0  0  0  0
   -0.9300   50.4927   10.3602 O   0  0  0  0  0  0  0  0  0  0  0  0
   -3.6441   51.6381   13.8557 Cl  0  0  0  0  0  0  0  0  0  0  0  0
   -6.0710   53.0864   13.7276 H   0  0  0  0  0  0  0  0  0  0  0  0
   -1.9915   44.9672   12.3001 H   0  0  0  0  0  0  0  0  0  0  0  0
   -2.9712   43.0812   13.5688 H   0  0  0  0  0  0  0  0  0  0  0  0
   -7.4984   53.6702   11.7882 H   0  0  0  0  0  0  0  0  0  0  0  0
   -6.8512   52.9775    9.5122 H   0  0  0  0  0  0  0  0  0  0  0  0
    1.0055   48.7350   12.4995 H   0  0  0  0  0  0  0  0  0  0  0  0
   -1.2553   46.8303    9.3551 H   0  0  0  0  0  0  0  0  0  0  0  0
   -6.6406   45.2809   14.0145 H   0  0  0  0  0  0  0  0  0  0  0  0
   -5.6592   47.1881   12.7632 H   0  0  0  0  0  0  0  0  0  0  0  0
   -3.6843   48.7558   13.0079 H   0  0  0  0  0  0  0  0  0  0  0  0
   -4.5769   48.6229   11.4336 H   0  0  0  0  0  0  0  0  0  0  0  0
    2.0593   46.4489   11.9589 H   0  0  0  0  0  0  0  0  0  0  0  0
  1  7  2  0
  1  8  1  0
  2  3  1  0
  2  9  1  0
  2 21  2  0
  3 22  1  1
  3 23  1  0
  3 24  1  0
  4  5  2  0
  4 17  1  0
  5 14  1  0
  6 14  1  0
  6 28  2  0
  6 29  1  0
  7 21  1  0
  7 32  1  0
  8  9  2  0
 10 11  1  0
 10 19  2  0
 10 31  1  0
 11 12  2  0
 11 13  1  0
 12 26  1  0
 13 27  2  0
 14 15  2  0
 15 16  1  0
 16 17  2  0
 17 30  1  0
 18 19  1  0
 18 30  1  0
 19 20  1  0
 20 21  1  0
 20 25  2  0
 25 31  1  0
 26 27  1  0
  1 33  1  0
  4 34  1  0
  5 35  1  0
  8 36  1  0
  9 37  1  0
 12 38  1  0
 13 39  1  0
 15 40  1  0
 16 41  1  0
 18 42  1  0
 18 43  1  0
 26 44  1  0
M  CHG  1  29  -1
M  END
>  <filename_input>  (18) 
7NP6_UK8_docked.sdf

>  <pdb_id>  (18) 
7NP6_UK8

>  <pose_rank>  (18) 
17

>  <num_atoms_heavy>  (18) 
32

>  <num_torsions>  (18) 
7

>  <pose>  (18) 
[-1.3763118840087296, 49.328520104750304, 10.8846109335976, -1.1837487680011534, 0.9369345407521605, 4.603656501081447, 2.3376487530530605, -1.176753493905914, 1.443546675030079, -1.238352472082537, -0.22194758555513006, 0.4751172572351338, -0.41709463737164476]

>  <energy>  (18) 
-441.68877277454254

>  <inter_energy>  (18) 
-511.76969386421115

>  <intra_energy>  (18) 
70.42297687106333

>  <rmsd>  (18) 
7.78539

>  <sdf_rank>  (18) 
0

$$$$

     RDKit          3D

 44 47  0  0  0  0  0  0  0  0999 V2000
   -4.8026   50.0552    6.7159 C   0  0  0  0  0  0  0  0  0  0  0  0
   -2.4985   51.0063    8.0019 C   0  0  0  0  0  0  0  0  0  0  0  0
   -1.2293   51.4984    8.6255 C   0  0  1  0  0  0  0  0  0  0  0  0
   -4.8244   47.0046   12.2171 C   0  0  0  0  0  0  0  0  0  0  0  0
   -5.2248   45.7237   12.5454 C   0  0  0  0  0  0  0  0  0  0  0  0
   -5.4663   43.8188   14.1645 C   0  0  0  0  0  0  0  0  0  0  0  0
   -4.8701   50.5786    8.0009 C   0  0  0  0  0  0  0  0  0  0  0  0
   -3.5870   50.0089    6.0821 C   0  0  0  0  0  0  0  0  0  0  0  0
   -2.4511   50.4773    6.7145 C   0  0  0  0  0  0  0  0  0  0  0  0
   -4.0307   51.9551   12.2283 C   0  0  0  0  0  0  0  0  0  0  0  0
   -4.2179   51.9802   13.6777 C   0  0  0  0  0  0  0  0  0  0  0  0
   -3.2878   51.6194   14.6674 C   0  0  0  0  0  0  0  0  0  0  0  0
   -5.3382   52.3897   14.3696 C   0  0  0  0  0  0  0  0  0  0  0  0
   -5.0244   45.2234   13.8252 C   0  0  0  0  0  0  0  0  0  0  0  0
   -4.4024   46.0325   14.7711 C   0  0  0  0  0  0  0  0  0  0  0  0
   -3.9901   47.3171   14.4511 C   0  0  0  0  0  0  0  0  0  0  0  0
   -4.2055   47.8032   13.1669 C   0  0  0  0  0  0  0  0  0  0  0  0
   -4.3158   49.5082   11.4572 C   0  0  0  0  0  0  0  0  0  0  0  0
   -4.0806   50.9670   11.2554 C   0  0  0  0  0  0  0  0  0  0  0  0
   -3.8471   51.5930   10.0309 C   0  0  0  0  0  0  0  0  0  0  0  0
   -3.7386   51.0354    8.6676 C   0  0  0  0  0  0  0  0  0  0  0  0
   -0.1382   51.1047    7.9762 F   0  0  0  0  0  0  0  0  0  0  0  0
   -1.1836   52.8227    8.6472 F   0  0  0  0  0  0  0  0  0  0  0  0
   -1.0622   51.1086    9.8942 F   0  0  0  0  0  0  0  0  0  0  0  0
   -3.6389   52.8774   10.2175 N   0  0  0  0  0  0  0  0  0  0  0  0
   -3.8117   51.8045   15.8703 N   0  0  0  0  0  0  0  0  0  0  0  0
   -5.0635   52.2710   15.6717 N   0  0  0  0  0  0  0  0  0  0  0  0
   -5.1393   42.8880   13.3921 O   0  0  0  0  0  0  0  0  0  0  0  0
   -6.2044   43.6775   15.1553 O   0  0  0  0  0  0  0  0  0  0  0  0
   -3.8267   49.0554   12.7388 O   0  0  0  0  0  0  0  0  0  0  0  0
   -3.7647   53.1256   11.6047 O   0  0  0  0  0  0  0  0  0  0  0  0
   -6.3965   50.6161    8.7960 Cl  0  0  0  0  0  0  0  0  0  0  0  0
   -5.7088   49.6841    6.2150 H   0  0  0  0  0  0  0  0  0  0  0  0
   -4.9967   47.3912   11.2018 H   0  0  0  0  0  0  0  0  0  0  0  0
   -5.7077   45.0930   11.7844 H   0  0  0  0  0  0  0  0  0  0  0  0
   -3.5159   49.5967    5.0648 H   0  0  0  0  0  0  0  0  0  0  0  0
   -1.4862   50.4312    6.1884 H   0  0  0  0  0  0  0  0  0  0  0  0
   -2.2741   51.2393   14.4723 H   0  0  0  0  0  0  0  0  0  0  0  0
   -6.2816   52.7474   13.9314 H   0  0  0  0  0  0  0  0  0  0  0  0
   -4.2353   45.6474   15.7878 H   0  0  0  0  0  0  0  0  0  0  0  0
   -3.4969   47.9460   15.2070 H   0  0  0  0  0  0  0  0  0  0  0  0
   -5.3964   49.3110   11.3992 H   0  0  0  0  0  0  0  0  0  0  0  0
   -3.7703   48.9635   10.6726 H   0  0  0  0  0  0  0  0  0  0  0  0
   -3.3552   51.6277   16.7765 H   0  0  0  0  0  0  0  0  0  0  0  0
  1  7  2  0
  1  8  1  0
  2  3  1  0
  2  9  1  0
  2 21  2  0
  3 22  1  6
  3 23  1  0
  3 24  1  0
  4  5  2  0
  4 17  1  0
  5 14  1  0
  6 14  1  0
  6 28  2  0
  6 29  1  0
  7 21  1  0
  7 32  1  0
  8  9  2  0
 10 11  1  0
 10 19  2  0
 10 31  1  0
 11 12  2  0
 11 13  1  0
 12 26  1  0
 13 27  2  0
 14 15  2  0
 15 16  1  0
 16 17  2  0
 17 30  1  0
 18 19  1  0
 18 30  1  0
 19 20  1  0
 20 21  1  0
 20 25  2  0
 25 31  1  0
 26 27  1  0
  1 33  1  0
  4 34  1  0
  5 35  1  0
  8 36  1  0
  9 37  1  0
 12 38  1  0
 13 39  1  0
 15 40  1  0
 16 41  1  0
 18 42  1  0
 18 43  1  0
 26 44  1  0
M  CHG  1  29  -1
M  END
>  <filename_input>  (19) 
7NP6_UK8_docked.sdf

>  <pdb_id>  (19) 
7NP6_UK8

>  <pose_rank>  (19) 
18

>  <num_atoms_heavy>  (19) 
32

>  <num_torsions>  (19) 
7

>  <pose>  (19) 
[-4.0306620853825335, 51.95514644801891, 12.228292001606604, -2.216230653937096, 3.807723889437499, -0.5167058708935613, 2.2865713270058787, 1.5616933377094955, -1.5903888891755633, -1.511647731163098, -0.2701329410244715, -2.8803327096159888, -2.4924350448234525]

>  <energy>  (19) 
-231.50227610565705

>  <inter_energy>  (19) 
-259.7787974154404

>  <intra_energy>  (19) 
38.572272802092954

>  <rmsd>  (19) 
9.02606

>  <sdf_rank>  (19) 
0

$$$$

     RDKit          3D

 44 47  0  0  0  0  0  0  0  0999 V2000
   -3.8045   37.6597   18.3583 C   0  0  0  0  0  0  0  0  0  0  0  0
   -1.1299   36.9151   18.7578 C   0  0  0  0  0  0  0  0  0  0  0  0
    0.2751   36.4455   18.9748 C   0  0  1  0  0  0  0  0  0  0  0  0
   -2.9417   42.0915   14.8049 C   0  0  0  0  0  0  0  0  0  0  0  0
   -3.8376   42.8742   14.1023 C   0  0  0  0  0  0  0  0  0  0  0  0
   -4.4851   44.9959   12.9244 C   0  0  0  0  0  0  0  0  0  0  0  0
   -2.7920   38.6107   18.3456 C   0  0  0  0  0  0  0  0  0  0  0  0
   -3.4762   36.3450   18.5710 C   0  0  0  0  0  0  0  0  0  0  0  0
   -2.1589   35.9768   18.7678 C   0  0  0  0  0  0  0  0  0  0  0  0
    0.8391   41.1354   18.2445 C   0  0  0  0  0  0  0  0  0  0  0  0
    1.5064   42.3890   17.8986 C   0  0  0  0  0  0  0  0  0  0  0  0
    0.9121   43.6443   17.6840 C   0  0  0  0  0  0  0  0  0  0  0  0
    2.8597   42.6002   17.7394 C   0  0  0  0  0  0  0  0  0  0  0  0
   -3.4905   44.1538   13.6892 C   0  0  0  0  0  0  0  0  0  0  0  0
   -2.2253   44.6395   14.0048 C   0  0  0  0  0  0  0  0  0  0  0  0
   -1.3204   43.8658   14.7155 C   0  0  0  0  0  0  0  0  0  0  0  0
   -1.6833   42.5847   15.1144 C   0  0  0  0  0  0  0  0  0  0  0  0
   -1.4247   41.1007   17.0047 C   0  0  0  0  0  0  0  0  0  0  0  0
   -0.3627   40.5399   17.8888 C   0  0  0  0  0  0  0  0  0  0  0  0
   -0.4090   39.3049   18.5357 C   0  0  0  0  0  0  0  0  0  0  0  0
   -1.4618   38.2694   18.5634 C   0  0  0  0  0  0  0  0  0  0  0  0
    0.3610   35.4144   19.8095 F   0  0  0  0  0  0  0  0  0  0  0  0
    0.8311   36.0445   17.8406 F   0  0  0  0  0  0  0  0  0  0  0  0
    1.0906   37.3849   19.4666 F   0  0  0  0  0  0  0  0  0  0  0  0
    0.6709   39.1421   19.2671 N   0  0  0  0  0  0  0  0  0  0  0  0
    1.8448   44.5475   17.4194 N   0  0  0  0  0  0  0  0  0  0  0  0
    3.0265   43.8945   17.4533 N   0  0  0  0  0  0  0  0  0  0  0  0
   -4.1399   45.4661   11.8155 O   0  0  0  0  0  0  0  0  0  0  0  0
   -5.5690   45.2437   13.4813 O   0  0  0  0  0  0  0  0  0  0  0  0
   -0.8701   41.7376   15.8328 O   0  0  0  0  0  0  0  0  0  0  0  0
    1.4790   40.2888   19.0831 O   0  0  0  0  0  0  0  0  0  0  0  0
   -3.2147   40.2608   18.0961 Cl  0  0  0  0  0  0  0  0  0  0  0  0
   -4.8520   37.9560   18.2003 H   0  0  0  0  0  0  0  0  0  0  0  0
   -3.2269   41.0766   15.1190 H   0  0  0  0  0  0  0  0  0  0  0  0
   -4.8371   42.4793   13.8675 H   0  0  0  0  0  0  0  0  0  0  0  0
   -4.2660   35.5795   18.5850 H   0  0  0  0  0  0  0  0  0  0  0  0
   -1.9173   34.9170   18.9365 H   0  0  0  0  0  0  0  0  0  0  0  0
   -0.1681   43.8471   17.7292 H   0  0  0  0  0  0  0  0  0  0  0  0
    3.6536   41.8443   17.8309 H   0  0  0  0  0  0  0  0  0  0  0  0
   -1.9388   45.6525   13.6858 H   0  0  0  0  0  0  0  0  0  0  0  0
   -0.3243   44.2623   14.9613 H   0  0  0  0  0  0  0  0  0  0  0  0
   -2.0889   40.2842   16.6849 H   0  0  0  0  0  0  0  0  0  0  0  0
   -1.9773   41.8610   17.5762 H   0  0  0  0  0  0  0  0  0  0  0  0
    1.6978   45.5485   17.2262 H   0  0  0  0  0  0  0  0  0  0  0  0
  1  7  2  0
  1  8  1  0
  2  3  1  0
  2  9  1  0
  2 21  2  0
  3 22  1  1
  3 23  1  0
  3 24  1  0
  4  5  2  0
  4 17  1  0
  5 14  1  0
  6 14  1  0
  6 28  2  0
  6 29  1  0
  7 21  1  0
  7 32  1  0
  8  9  2  0
 10 11  1  0
 10 19  2  0
 10 31  1  0
 11 12  2  0
 11 13  1  0
 12 26  1  0
 13 27  2  0
 14 15  2  0
 15 16  1  0
 16 17  2  0
 17 30  1  0
 18 19  1  0
 18 30  1  0
 19 20  1  0
 20 21  1  0
 20 25  2  0
 25 31  1  0
 26 27  1  0
  1 33  1  0
  4 34  1  0
  5 35  1  0
  8 36  1  0
  9 37  1  0
 12 38  1  0
 13 39  1  0
 15 40  1  0
 16 41  1  0
 18 42  1  0
 18 43  1  0
 26 44  1  0
M  CHG  1  29  -1
M  END
>  <filename_input>  (20) 
7NP6_UK8_docked.sdf

>  <pdb_id>  (20) 
7NP6_UK8

>  <pose_rank>  (20) 
19

>  <num_atoms_heavy>  (20) 
32

>  <num_torsions>  (20) 
7

>  <pose>  (20) 
[0.8390776506740754, 41.135399714218444, 18.244504657902297, 2.230641086174146, 2.173105371457457, -0.6998520121326781, 0.5723392341305797, 1.213881122370218, -2.3480976785510417, -0.23915479822191765, 0.2319864981913049, -3.923072332695225, 0.7499160825551844]

>  <energy>  (20) 
-261.1224008693091

>  <inter_energy>  (20) 
-471.6072067612119

>  <intra_energy>  (20) 
221.7755026506983

>  <rmsd>  (20) 
8.09247

>  <sdf_rank>  (20) 
0

$$$$

     RDKit          3D

 44 47  0  0  0  0  0  0  0  0999 V2000
   -9.1962   51.7880   15.9583 C   0  0  0  0  0  0  0  0  0  0  0  0
   -7.5701   51.6476   18.2394 C   0  0  0  0  0  0  0  0  0  0  0  0
   -6.6602   51.6286   19.4283 C   0  0  1  0  0  0  0  0  0  0  0  0
   -7.9306   45.4163   15.9889 C   0  0  0  0  0  0  0  0  0  0  0  0
   -7.1840   44.6711   15.0965 C   0  0  0  0  0  0  0  0  0  0  0  0
   -5.0190   44.0602   13.9794 C   0  0  0  0  0  0  0  0  0  0  0  0
   -9.4926   50.9061   16.9898 C   0  0  0  0  0  0  0  0  0  0  0  0
   -8.0910   52.5925   16.0713 C   0  0  0  0  0  0  0  0  0  0  0  0
   -7.2891   52.5244   17.1947 C   0  0  0  0  0  0  0  0  0  0  0  0
   -9.1872   48.1639   20.6502 C   0  0  0  0  0  0  0  0  0  0  0  0
   -9.1599   46.9421   21.4520 C   0  0  0  0  0  0  0  0  0  0  0  0
   -8.1214   46.4853   22.2813 C   0  0  0  0  0  0  0  0  0  0  0  0
  -10.1608   46.0020   21.5787 C   0  0  0  0  0  0  0  0  0  0  0  0
   -5.8181   44.8832   14.9630 C   0  0  0  0  0  0  0  0  0  0  0  0
   -5.2143   45.8687   15.7378 C   0  0  0  0  0  0  0  0  0  0  0  0
   -5.9545   46.6274   16.6316 C   0  0  0  0  0  0  0  0  0  0  0  0
   -7.3194   46.3960   16.7566 C   0  0  0  0  0  0  0  0  0  0  0  0
   -7.5443   47.8332   18.6868 C   0  0  0  0  0  0  0  0  0  0  0  0
   -8.5576   48.5807   19.4860 C   0  0  0  0  0  0  0  0  0  0  0  0
   -9.0380   49.8590   19.2020 C   0  0  0  0  0  0  0  0  0  0  0  0
   -8.6895   50.8022   18.1201 C   0  0  0  0  0  0  0  0  0  0  0  0
   -6.7314   50.4993   20.1260 F   0  0  0  0  0  0  0  0  0  0  0  0
   -5.3913   51.7555   19.0675 F   0  0  0  0  0  0  0  0  0  0  0  0
   -6.8895   52.6151   20.3021 F   0  0  0  0  0  0  0  0  0  0  0  0
   -9.8886   50.2341   20.1312 N   0  0  0  0  0  0  0  0  0  0  0  0
   -8.4763   45.3520   22.8690 N   0  0  0  0  0  0  0  0  0  0  0  0
   -9.7209   45.0688   22.4275 N   0  0  0  0  0  0  0  0  0  0  0  0
   -5.0483   44.3836   12.7693 O   0  0  0  0  0  0  0  0  0  0  0  0
   -4.4388   43.0520   14.4191 O   0  0  0  0  0  0  0  0  0  0  0  0
   -8.1498   47.0969   17.6016 O   0  0  0  0  0  0  0  0  0  0  0  0
  -10.0042   49.1648   21.0505 O   0  0  0  0  0  0  0  0  0  0  0  0
  -10.8711   49.8871   16.8318 Cl  0  0  0  0  0  0  0  0  0  0  0  0
   -9.8371   51.8404   15.0659 H   0  0  0  0  0  0  0  0  0  0  0  0
   -9.0103   45.2323   16.0904 H   0  0  0  0  0  0  0  0  0  0  0  0
   -7.6772   43.9012   14.4849 H   0  0  0  0  0  0  0  0  0  0  0  0
   -7.8415   53.2958   15.2631 H   0  0  0  0  0  0  0  0  0  0  0  0
   -6.4076   53.1786   17.2653 H   0  0  0  0  0  0  0  0  0  0  0  0
   -7.1560   46.9936   22.4217 H   0  0  0  0  0  0  0  0  0  0  0  0
  -11.1385   46.0176   21.0750 H   0  0  0  0  0  0  0  0  0  0  0  0
   -4.1335   46.0485   15.6398 H   0  0  0  0  0  0  0  0  0  0  0  0
   -5.4660   47.4055   17.2365 H   0  0  0  0  0  0  0  0  0  0  0  0
   -6.8210   48.5497   18.2704 H   0  0  0  0  0  0  0  0  0  0  0  0
   -7.0493   47.1118   19.3535 H   0  0  0  0  0  0  0  0  0  0  0  0
   -7.9149   44.7974   23.5308 H   0  0  0  0  0  0  0  0  0  0  0  0
  1  7  2  0
  1  8  1  0
  2  3  1  0
  2  9  1  0
  2 21  2  0
  3 22  1  1
  3 23  1  0
  3 24  1  0
  4  5  2  0
  4 17  1  0
  5 14  1  0
  6 14  1  0
  6 28  2  0
  6 29  1  0
  7 21  1  0
  7 32  1  0
  8  9  2  0
 10 11  1  0
 10 19  2  0
 10 31  1  0
 11 12  2  0
 11 13  1  0
 12 26  1  0
 13 27  2  0
 14 15  2  0
 15 16  1  0
 16 17  2  0
 17 30  1  0
 18 19  1  0
 18 30  1  0
 19 20  1  0
 20 21  1  0
 20 25  2  0
 25 31  1  0
 26 27  1  0
  1 33  1  0
  4 34  1  0
  5 35  1  0
  8 36  1  0
  9 37  1  0
 12 38  1  0
 13 39  1  0
 15 40  1  0
 16 41  1  0
 18 42  1  0
 18 43  1  0
 26 44  1  0
M  CHG  1  29  -1
M  END
>  <filename_input>  (21) 
7NP6_UK8_docked.sdf

>  <pdb_id>  (21) 
7NP6_UK8

>  <pose_rank>  (21) 
20

>  <num_atoms_heavy>  (21) 
32

>  <num_torsions>  (21) 
7

>  <pose>  (21) 
[-9.187165008440587, 48.163906099002865, 20.65023613041013, 2.364901969717397, -1.4332280745526753, 0.27596063631271733, -3.538459002604698, -0.9628769796593123, -1.7316258357025902, 0.6661388278534388, -0.08924276999114997, -0.24590793138409484, -1.9449944067774168]

>  <energy>  (21) 
-243.68296213448713

>  <inter_energy>  (21) 
-287.724833950399

>  <intra_energy>  (21) 
39.42731444570303

>  <rmsd>  (21) 
10.701

>  <sdf_rank>  (21) 
0

$$$$

     RDKit          3D

 44 47  0  0  0  0  0  0  0  0999 V2000
   -6.2973   52.7465   16.3262 C   0  0  0  0  0  0  0  0  0  0  0  0
   -8.8854   51.6702   16.2247 C   0  0  0  0  0  0  0  0  0  0  0  0
  -10.2762   51.1291   16.1033 C   0  0  1  0  0  0  0  0  0  0  0  0
   -7.6446   45.5820   15.8836 C   0  0  0  0  0  0  0  0  0  0  0  0
   -7.0512   44.8848   14.8488 C   0  0  0  0  0  0  0  0  0  0  0  0
   -5.0765   44.2960   13.4127 C   0  0  0  0  0  0  0  0  0  0  0  0
   -6.7625   51.9166   17.3383 C   0  0  0  0  0  0  0  0  0  0  0  0
   -7.1260   53.0344   15.2718 C   0  0  0  0  0  0  0  0  0  0  0  0
   -8.4012   52.5047   15.2205 C   0  0  0  0  0  0  0  0  0  0  0  0
   -8.8252   48.8753   19.9078 C   0  0  0  0  0  0  0  0  0  0  0  0
   -8.9015   47.6870   20.7554 C   0  0  0  0  0  0  0  0  0  0  0  0
  -10.0413   46.9220   21.0566 C   0  0  0  0  0  0  0  0  0  0  0  0
   -7.8636   47.0586   21.4105 C   0  0  0  0  0  0  0  0  0  0  0  0
   -5.7070   45.0653   14.5503 C   0  0  0  0  0  0  0  0  0  0  0  0
   -4.9685   45.9704   15.3063 C   0  0  0  0  0  0  0  0  0  0  0  0
   -5.5549   46.6807   16.3426 C   0  0  0  0  0  0  0  0  0  0  0  0
   -6.9000   46.4816   16.6312 C   0  0  0  0  0  0  0  0  0  0  0  0
   -7.0606   48.4074   18.0830 C   0  0  0  0  0  0  0  0  0  0  0  0
   -8.0990   49.2219   18.7774 C   0  0  0  0  0  0  0  0  0  0  0  0
   -8.5092   50.5037   18.4106 C   0  0  0  0  0  0  0  0  0  0  0  0
   -8.0490   51.3892   17.3217 C   0  0  0  0  0  0  0  0  0  0  0  0
  -10.6541   50.9304   14.8444 F   0  0  0  0  0  0  0  0  0  0  0  0
  -10.3928   49.9562   16.7091 F   0  0  0  0  0  0  0  0  0  0  0  0
  -11.2125   51.9138   16.6481 F   0  0  0  0  0  0  0  0  0  0  0  0
   -9.4089   50.9460   19.2606 N   0  0  0  0  0  0  0  0  0  0  0  0
   -9.7094   45.9020   21.8345 N   0  0  0  0  0  0  0  0  0  0  0  0
   -8.3789   46.0013   22.0442 N   0  0  0  0  0  0  0  0  0  0  0  0
   -5.3703   43.0856   13.2766 O   0  0  0  0  0  0  0  0  0  0  0  0
   -4.2326   44.8920   12.7207 O   0  0  0  0  0  0  0  0  0  0  0  0
   -7.5844   47.1408   17.6271 O   0  0  0  0  0  0  0  0  0  0  0  0
   -9.6301   49.9198   20.2092 O   0  0  0  0  0  0  0  0  0  0  0  0
   -5.7226   51.5751   18.6671 Cl  0  0  0  0  0  0  0  0  0  0  0  0
   -5.2812   53.1658   16.3696 H   0  0  0  0  0  0  0  0  0  0  0  0
   -8.7083   45.4233   16.1145 H   0  0  0  0  0  0  0  0  0  0  0  0
   -7.6502   44.1788   14.2549 H   0  0  0  0  0  0  0  0  0  0  0  0
   -6.7734   53.6907   14.4624 H   0  0  0  0  0  0  0  0  0  0  0  0
   -9.0496   52.7481   14.3658 H   0  0  0  0  0  0  0  0  0  0  0  0
  -11.0589   47.1381   20.6991 H   0  0  0  0  0  0  0  0  0  0  0  0
   -6.8085   47.3696   21.4112 H   0  0  0  0  0  0  0  0  0  0  0  0
   -3.9034   46.1246   15.0784 H   0  0  0  0  0  0  0  0  0  0  0  0
   -4.9611   47.3956   16.9311 H   0  0  0  0  0  0  0  0  0  0  0  0
   -6.6882   48.9712   17.2149 H   0  0  0  0  0  0  0  0  0  0  0  0
   -6.2519   48.2033   18.8002 H   0  0  0  0  0  0  0  0  0  0  0  0
  -10.3406   45.1775   22.2055 H   0  0  0  0  0  0  0  0  0  0  0  0
  1  7  2  0
  1  8  1  0
  2  3  1  0
  2  9  1  0
  2 21  2  0
  3 22  1  6
  3 23  1  0
  3 24  1  0
  4  5  2  0
  4 17  1  0
  5 14  1  0
  6 14  1  0
  6 28  2  0
  6 29  1  0
  7 21  1  0
  7 32  1  0
  8  9  2  0
 10 11  1  0
 10 19  2  0
 10 31  1  0
 11 12  2  0
 11 13  1  0
 12 26  1  0
 13 27  2  0
 14 15  2  0
 15 16  1  0
 16 17  2  0
 17 30  1  0
 18 19  1  0
 18 30  1  0
 19 20  1  0
 20 21  1  0
 20 25  2  0
 25 31  1  0
 26 27  1  0
  1 33  1  0
  4 34  1  0
  5 35  1  0
  8 36  1  0
  9 37  1  0
 12 38  1  0
 13 39  1  0
 15 40  1  0
 16 41  1  0
 18 42  1  0
 18 43  1  0
 26 44  1  0
M  CHG  1  29  -1
M  END
>  <filename_input>  (22) 
7NP6_UK8_docked.sdf

>  <pdb_id>  (22) 
7NP6_UK8

>  <pose_rank>  (22) 
21

>  <num_atoms_heavy>  (22) 
32

>  <num_torsions>  (22) 
7

>  <pose>  (22) 
[-8.825248329330865, 48.87534361145151, 19.907805052420745, 2.3164714962626936, -1.4879832794694252, 0.37980902225606084, -0.14787278019374472, 2.358958705291481, 1.142282168995398, -6.23828778843906, 5.879422080687423, 0.4742119193227466, 2.204895700155938]

>  <energy>  (22) 
-291.38451486865665

>  <inter_energy>  (22) 
-324.7944971926479

>  <intra_energy>  (22) 
38.32854778665447

>  <rmsd>  (22) 
10.4288

>  <sdf_rank>  (22) 
0

$$$$

     RDKit          3D

 44 47  0  0  0  0  0  0  0  0999 V2000
   -4.0082   36.9326   17.5745 C   0  0  0  0  0  0  0  0  0  0  0  0
   -3.0005   36.0049   20.0222 C   0  0  0  0  0  0  0  0  0  0  0  0
   -2.5322   35.5161   21.3577 C   0  0  1  0  0  0  0  0  0  0  0  0
    0.7992   40.6975   17.0255 C   0  0  0  0  0  0  0  0  0  0  0  0
    1.1899   42.0212   16.9612 C   0  0  0  0  0  0  0  0  0  0  0  0
    2.2571   44.0719   17.9430 C   0  0  0  0  0  0  0  0  0  0  0  0
   -2.6761   36.5591   17.6994 C   0  0  0  0  0  0  0  0  0  0  0  0
   -4.8276   36.8419   18.6708 C   0  0  0  0  0  0  0  0  0  0  0  0
   -4.3324   36.3848   19.8772 C   0  0  0  0  0  0  0  0  0  0  0  0
    1.4858   35.5996   19.2784 C   0  0  0  0  0  0  0  0  0  0  0  0
    2.9304   35.7426   19.4485 C   0  0  0  0  0  0  0  0  0  0  0  0
    3.6075   36.5913   20.3407 C   0  0  0  0  0  0  0  0  0  0  0  0
    3.9232   35.0522   18.7858 C   0  0  0  0  0  0  0  0  0  0  0  0
    1.8402   42.6222   18.0310 C   0  0  0  0  0  0  0  0  0  0  0  0
    2.0830   41.8695   19.1759 C   0  0  0  0  0  0  0  0  0  0  0  0
    1.6893   40.5424   19.2545 C   0  0  0  0  0  0  0  0  0  0  0  0
    1.0458   39.9559   18.1709 C   0  0  0  0  0  0  0  0  0  0  0  0
    0.4577   37.9638   19.4069 C   0  0  0  0  0  0  0  0  0  0  0  0
    0.4172   36.4835   19.2309 C   0  0  0  0  0  0  0  0  0  0  0  0
   -0.7285   35.7209   19.0036 C   0  0  0  0  0  0  0  0  0  0  0  0
   -2.1479   36.1176   18.9075 C   0  0  0  0  0  0  0  0  0  0  0  0
   -2.3881   34.1957   21.4124 F   0  0  0  0  0  0  0  0  0  0  0  0
   -1.3497   36.0258   21.6712 F   0  0  0  0  0  0  0  0  0  0  0  0
   -3.3463   35.8387   22.3688 F   0  0  0  0  0  0  0  0  0  0  0  0
   -0.4123   34.4467   18.9382 N   0  0  0  0  0  0  0  0  0  0  0  0
    4.9162   36.4187   20.2251 N   0  0  0  0  0  0  0  0  0  0  0  0
    5.0925   35.4797   19.2705 N   0  0  0  0  0  0  0  0  0  0  0  0
    1.5413   44.8589   17.2811 O   0  0  0  0  0  0  0  0  0  0  0  0
    3.3391   44.3864   18.4690 O   0  0  0  0  0  0  0  0  0  0  0  0
    0.6022   38.6531   18.1457 O   0  0  0  0  0  0  0  0  0  0  0  0
    0.9905   34.3540   19.0977 O   0  0  0  0  0  0  0  0  0  0  0  0
   -1.6503   36.6934   16.3235 Cl  0  0  0  0  0  0  0  0  0  0  0  0
   -4.3995   37.2951   16.6125 H   0  0  0  0  0  0  0  0  0  0  0  0
    0.2921   40.2317   16.1677 H   0  0  0  0  0  0  0  0  0  0  0  0
    0.9835   42.6055   16.0524 H   0  0  0  0  0  0  0  0  0  0  0  0
   -5.8848   37.1345   18.5891 H   0  0  0  0  0  0  0  0  0  0  0  0
   -5.0066   36.3196   20.7440 H   0  0  0  0  0  0  0  0  0  0  0  0
    3.1226   37.2953   21.0330 H   0  0  0  0  0  0  0  0  0  0  0  0
    3.7794   34.2917   18.0042 H   0  0  0  0  0  0  0  0  0  0  0  0
    2.5949   42.3344   20.0313 H   0  0  0  0  0  0  0  0  0  0  0  0
    1.8844   39.9588   20.1663 H   0  0  0  0  0  0  0  0  0  0  0  0
   -0.4773   38.2906   19.8855 H   0  0  0  0  0  0  0  0  0  0  0  0
    1.3297   38.2089   20.0310 H   0  0  0  0  0  0  0  0  0  0  0  0
    5.6525   36.9040   20.7573 H   0  0  0  0  0  0  0  0  0  0  0  0
  1  7  2  0
  1  8  1  0
  2  3  1  0
  2  9  1  0
  2 21  2  0
  3 22  1  6
  3 23  1  0
  3 24  1  0
  4  5  2  0
  4 17  1  0
  5 14  1  0
  6 14  1  0
  6 28  2  0
  6 29  1  0
  7 21  1  0
  7 32  1  0
  8  9  2  0
 10 11  1  0
 10 19  2  0
 10 31  1  0
 11 12  2  0
 11 13  1  0
 12 26  1  0
 13 27  2  0
 14 15  2  0
 15 16  1  0
 16 17  2  0
 17 30  1  0
 18 19  1  0
 18 30  1  0
 19 20  1  0
 20 21  1  0
 20 25  2  0
 25 31  1  0
 26 27  1  0
  1 33  1  0
  4 34  1  0
  5 35  1  0
  8 36  1  0
  9 37  1  0
 12 38  1  0
 13 39  1  0
 15 40  1  0
 16 41  1  0
 18 42  1  0
 18 43  1  0
 26 44  1  0
M  CHG  1  29  -1
M  END
>  <filename_input>  (23) 
7NP6_UK8_docked.sdf

>  <pdb_id>  (23) 
7NP6_UK8

>  <pose_rank>  (23) 
22

>  <num_atoms_heavy>  (23) 
32

>  <num_torsions>  (23) 
7

>  <pose>  (23) 
[1.4857531742714924, 35.599563074565175, 19.278442444986553, -2.1095521205543863, -0.7774993183763423, -0.14210790868695253, 2.509665869655556, -2.6718202714007946, 4.01904175451894, 13.191318536515757, 12.842889644148494, 6.670072882745267, 3.5094714548328985]

>  <energy>  (23) 
-257.2456250926219

>  <inter_energy>  (23) 
-270.23950501440123

>  <intra_energy>  (23) 
22.070942804863606

>  <rmsd>  (23) 
9.58825

>  <sdf_rank>  (23) 
0

$$$$

     RDKit          3D

 44 47  0  0  0  0  0  0  0  0999 V2000
   -7.4015   34.7058   20.3638 C   0  0  0  0  0  0  0  0  0  0  0  0
   -5.0133   36.1226   19.9688 C   0  0  0  0  0  0  0  0  0  0  0  0
   -3.7229   36.8328   19.7000 C   0  0  1  0  0  0  0  0  0  0  0  0
   -6.4002   41.6242   18.0469 C   0  0  0  0  0  0  0  0  0  0  0  0
   -6.5033   42.0285   16.7298 C   0  0  0  0  0  0  0  0  0  0  0  0
   -5.5763   42.3014   14.4114 C   0  0  0  0  0  0  0  0  0  0  0  0
   -7.0908   35.8087   21.1490 C   0  0  0  0  0  0  0  0  0  0  0  0
   -6.5190   34.3168   19.3884 C   0  0  0  0  0  0  0  0  0  0  0  0
   -5.3421   35.0141   19.1927 C   0  0  0  0  0  0  0  0  0  0  0  0
   -5.3544   39.7171   22.7324 C   0  0  0  0  0  0  0  0  0  0  0  0
   -5.2197   41.1219   23.1129 C   0  0  0  0  0  0  0  0  0  0  0  0
   -4.6234   41.6407   24.2749 C   0  0  0  0  0  0  0  0  0  0  0  0
   -5.6270   42.2261   22.3944 C   0  0  0  0  0  0  0  0  0  0  0  0
   -5.4458   41.8499   15.8476 C   0  0  0  0  0  0  0  0  0  0  0  0
   -4.2736   41.2648   16.3166 C   0  0  0  0  0  0  0  0  0  0  0  0
   -4.1562   40.8615   17.6379 C   0  0  0  0  0  0  0  0  0  0  0  0
   -5.2279   41.0420   18.5045 C   0  0  0  0  0  0  0  0  0  0  0  0
   -6.1266   39.6572   20.2700 C   0  0  0  0  0  0  0  0  0  0  0  0
   -5.7045   39.0520   21.5660 C   0  0  0  0  0  0  0  0  0  0  0  0
   -5.6075   37.6866   21.8345 C   0  0  0  0  0  0  0  0  0  0  0  0
   -5.9031   36.5135   20.9873 C   0  0  0  0  0  0  0  0  0  0  0  0
   -3.1517   36.4689   18.5561 F   0  0  0  0  0  0  0  0  0  0  0  0
   -3.9007   38.1436   19.6187 F   0  0  0  0  0  0  0  0  0  0  0  0
   -2.7963   36.6502   20.6473 F   0  0  0  0  0  0  0  0  0  0  0  0
   -5.2482   37.5010   23.0852 N   0  0  0  0  0  0  0  0  0  0  0  0
   -4.6653   42.9649   24.2529 N   0  0  0  0  0  0  0  0  0  0  0  0
   -5.2834   43.3063   23.1016 N   0  0  0  0  0  0  0  0  0  0  0  0
   -5.8452   43.5043   14.1868 O   0  0  0  0  0  0  0  0  0  0  0  0
   -5.4892   41.4286   13.5298 O   0  0  0  0  0  0  0  0  0  0  0  0
   -5.2157   40.6907   19.8354 O   0  0  0  0  0  0  0  0  0  0  0  0
   -5.0710   38.7794   23.6650 O   0  0  0  0  0  0  0  0  0  0  0  0
   -8.1952   36.2790   22.3829 Cl  0  0  0  0  0  0  0  0  0  0  0  0
   -8.3396   34.1535   20.5216 H   0  0  0  0  0  0  0  0  0  0  0  0
   -7.2486   41.7643   18.7329 H   0  0  0  0  0  0  0  0  0  0  0  0
   -7.4335   42.4970   16.3759 H   0  0  0  0  0  0  0  0  0  0  0  0
   -6.7494   33.4450   18.7584 H   0  0  0  0  0  0  0  0  0  0  0  0
   -4.6483   34.6856   18.4048 H   0  0  0  0  0  0  0  0  0  0  0  0
   -4.1863   41.0365   25.0836 H   0  0  0  0  0  0  0  0  0  0  0  0
   -6.1390   42.2190   21.4209 H   0  0  0  0  0  0  0  0  0  0  0  0
   -3.4275   41.1200   15.6287 H   0  0  0  0  0  0  0  0  0  0  0  0
   -3.2232   40.4028   17.9973 H   0  0  0  0  0  0  0  0  0  0  0  0
   -6.1611   38.8686   19.5039 H   0  0  0  0  0  0  0  0  0  0  0  0
   -7.1167   40.1143   20.4140 H   0  0  0  0  0  0  0  0  0  0  0  0
   -4.2992   43.6063   24.9709 H   0  0  0  0  0  0  0  0  0  0  0  0
  1  7  2  0
  1  8  1  0
  2  3  1  0
  2  9  1  0
  2 21  2  0
  3 22  1  6
  3 23  1  0
  3 24  1  0
  4  5  2  0
  4 17  1  0
  5 14  1  0
  6 14  1  0
  6 28  2  0
  6 29  1  0
  7 21  1  0
  7 32  1  0
  8  9  2  0
 10 11  1  0
 10 19  2  0
 10 31  1  0
 11 12  2  0
 11 13  1  0
 12 26  1  0
 13 27  2  0
 14 15  2  0
 15 16  1  0
 16 17  2  0
 17 30  1  0
 18 19  1  0
 18 30  1  0
 19 20  1  0
 20 21  1  0
 20 25  2  0
 25 31  1  0
 26 27  1  0
  1 33  1  0
  4 34  1  0
  5 35  1  0
  8 36  1  0
  9 37  1  0
 12 38  1  0
 13 39  1  0
 15 40  1  0
 16 41  1  0
 18 42  1  0
 18 43  1  0
 26 44  1  0
M  CHG  1  29  -1
M  END
>  <filename_input>  (24) 
7NP6_UK8_docked.sdf

>  <pdb_id>  (24) 
7NP6_UK8

>  <pose_rank>  (24) 
23

>  <num_atoms_heavy>  (24) 
32

>  <num_torsions>  (24) 
7

>  <pose>  (24) 
[-5.35438520978976, 39.71714122190251, 22.73236365672728, 1.6752453121214357, 2.2207672698529346, 0.40824664769122154, -0.7511958281976284, 2.0239235061030976, 0.36376280316910964, -0.11775159823289666, -0.3979453605037286, -1.9410135165214526, -2.34492630485013]

>  <energy>  (24) 
-167.9146983589409

>  <inter_energy>  (24) 
-237.2014853533621

>  <intra_energy>  (24) 
60.86731661608806

>  <rmsd>  (24) 
10.6904

>  <sdf_rank>  (24) 
0

$$$$

     RDKit          3D

 44 47  0  0  0  0  0  0  0  0999 V2000
   -9.2772   53.7369   13.8739 C   0  0  0  0  0  0  0  0  0  0  0  0
   -6.9309   52.8397   15.1218 C   0  0  0  0  0  0  0  0  0  0  0  0
   -5.7197   52.3440   15.8491 C   0  0  1  0  0  0  0  0  0  0  0  0
   -8.1088   51.0834   10.2905 C   0  0  0  0  0  0  0  0  0  0  0  0
   -9.2874   51.5324    9.7262 C   0  0  0  0  0  0  0  0  0  0  0  0
  -10.5729   52.7749    7.9622 C   0  0  0  0  0  0  0  0  0  0  0  0
   -8.0657   53.7364   13.1942 C   0  0  0  0  0  0  0  0  0  0  0  0
   -9.3097   53.2911   15.1707 C   0  0  0  0  0  0  0  0  0  0  0  0
   -8.1545   52.8487   15.7866 C   0  0  0  0  0  0  0  0  0  0  0  0
   -3.8831   52.9182   11.6922 C   0  0  0  0  0  0  0  0  0  0  0  0
   -2.8357   52.4491   10.7870 C   0  0  0  0  0  0  0  0  0  0  0  0
   -1.6276   51.8180   11.1294 C   0  0  0  0  0  0  0  0  0  0  0  0
   -2.8334   52.5061    9.4092 C   0  0  0  0  0  0  0  0  0  0  0  0
   -9.2738   52.2903    8.5627 C   0  0  0  0  0  0  0  0  0  0  0  0
   -8.0491   52.5995    7.9789 C   0  0  0  0  0  0  0  0  0  0  0  0
   -6.8596   52.1604    8.5400 C   0  0  0  0  0  0  0  0  0  0  0  0
   -6.8935   51.3969    9.7010 C   0  0  0  0  0  0  0  0  0  0  0  0
   -5.7010   51.0878   11.7805 C   0  0  0  0  0  0  0  0  0  0  0  0
   -5.0788   52.3897   12.1572 C   0  0  0  0  0  0  0  0  0  0  0  0
   -5.6155   53.3230   13.0441 C   0  0  0  0  0  0  0  0  0  0  0  0
   -6.8854   53.3178   13.7984 C   0  0  0  0  0  0  0  0  0  0  0  0
   -5.9890   51.8904   17.0693 F   0  0  0  0  0  0  0  0  0  0  0  0
   -5.1467   51.3382   15.2038 F   0  0  0  0  0  0  0  0  0  0  0  0
   -4.7644   53.2676   16.0033 F   0  0  0  0  0  0  0  0  0  0  0  0
   -4.8311   54.3753   13.1153 N   0  0  0  0  0  0  0  0  0  0  0  0
   -0.9494   51.5128   10.0328 N   0  0  0  0  0  0  0  0  0  0  0  0
   -1.6962   51.9421    8.9925 N   0  0  0  0  0  0  0  0  0  0  0  0
  -11.3897   51.9229    7.5417 O   0  0  0  0  0  0  0  0  0  0  0  0
  -10.7227   54.0038    7.8444 O   0  0  0  0  0  0  0  0  0  0  0  0
   -5.7757   50.9204   10.3477 O   0  0  0  0  0  0  0  0  0  0  0  0
   -3.7210   54.1287   12.2734 O   0  0  0  0  0  0  0  0  0  0  0  0
   -8.0304   54.3147   11.5731 Cl  0  0  0  0  0  0  0  0  0  0  0  0
  -10.1951   54.0888   13.3804 H   0  0  0  0  0  0  0  0  0  0  0  0
   -8.1346   50.4770   11.2078 H   0  0  0  0  0  0  0  0  0  0  0  0
  -10.2472   51.2867   10.2040 H   0  0  0  0  0  0  0  0  0  0  0  0
  -10.2607   53.2857   15.7235 H   0  0  0  0  0  0  0  0  0  0  0  0
   -8.2026   52.4951   16.8271 H   0  0  0  0  0  0  0  0  0  0  0  0
   -1.2942   51.6083   12.1565 H   0  0  0  0  0  0  0  0  0  0  0  0
   -3.6206   52.9357    8.7723 H   0  0  0  0  0  0  0  0  0  0  0  0
   -8.0243   53.2014    7.0585 H   0  0  0  0  0  0  0  0  0  0  0  0
   -5.8977   52.4140    8.0705 H   0  0  0  0  0  0  0  0  0  0  0  0
   -5.0983   50.2703   12.2030 H   0  0  0  0  0  0  0  0  0  0  0  0
   -6.7261   51.0721   12.1792 H   0  0  0  0  0  0  0  0  0  0  0  0
   -0.0347   51.0419    9.9835 H   0  0  0  0  0  0  0  0  0  0  0  0
  1  7  2  0
  1  8  1  0
  2  3  1  0
  2  9  1  0
  2 21  2  0
  3 22  1  1
  3 23  1  0
  3 24  1  0
  4  5  2  0
  4 17  1  0
  5 14  1  0
  6 14  1  0
  6 28  2  0
  6 29  1  0
  7 21  1  0
  7 32  1  0
  8  9  2  0
 10 11  1  0
 10 19  2  0
 10 31  1  0
 11 12  2  0
 11 13  1  0
 12 26  1  0
 13 27  2  0
 14 15  2  0
 15 16  1  0
 16 17  2  0
 17 30  1  0
 18 19  1  0
 18 30  1  0
 19 20  1  0
 20 21  1  0
 20 25  2  0
 25 31  1  0
 26 27  1  0
  1 33  1  0
  4 34  1  0
  5 35  1  0
  8 36  1  0
  9 37  1  0
 12 38  1  0
 13 39  1  0
 15 40  1  0
 16 41  1  0
 18 42  1  0
 18 43  1  0
 26 44  1  0
M  CHG  1  29  -1
M  END
>  <filename_input>  (25) 
7NP6_UK8_docked.sdf

>  <pdb_id>  (25) 
7NP6_UK8

>  <pose_rank>  (25) 
24

>  <num_atoms_heavy>  (25) 
32

>  <num_torsions>  (25) 
7

>  <pose>  (25) 
[-3.8830515773798755, 52.9181972441481, 11.692211188201789, -2.7748254665961154, -1.427777721594839, 3.4233539471266394, -0.43195789399490536, -4.4200223672999135, 1.6108634355117608, 4.418113050399283, -11.025017977278575, 2.40454097519406, 1.8197114349650796]

>  <energy>  (25) 
-234.77659358080135

>  <inter_energy>  (25) 
-248.05763980415426

>  <intra_energy>  (25) 
17.008291286517153

>  <rmsd>  (25) 
12.0589

>  <sdf_rank>  (25) 
0

$$$$

     RDKit          3D

 44 47  0  0  0  0  0  0  0  0999 V2000
   -4.8060   41.0830   14.1360 C   0  0  0  0  0  0  0  0  0  0  0  0
   -5.2280   43.8500   14.3170 C   0  0  0  0  0  0  0  0  0  0  0  0
   -5.5150   45.3130   14.4550 C   0  0  1  0  0  0  0  0  0  0  0  0
    1.2410   44.9390   16.9310 C   0  0  0  0  0  0  0  0  0  0  0  0
    2.0850   44.4780   17.9230 C   0  0  0  0  0  0  0  0  0  0  0  0
    3.1860   42.6310   19.2210 C   0  0  0  0  0  0  0  0  0  0  0  0
   -3.9070   41.9780   13.5700 C   0  0  0  0  0  0  0  0  0  0  0  0
   -5.9090   41.5740   14.7870 C   0  0  0  0  0  0  0  0  0  0  0  0
   -6.1180   42.9370   14.8770 C   0  0  0  0  0  0  0  0  0  0  0  0
   -1.3140   45.4150   12.3770 C   0  0  0  0  0  0  0  0  0  0  0  0
   -0.0290   46.0670   12.1320 C   0  0  0  0  0  0  0  0  0  0  0  0
    0.3060   46.9280   11.0730 C   0  0  0  0  0  0  0  0  0  0  0  0
    1.1090   45.9910   12.9070 C   0  0  0  0  0  0  0  0  0  0  0  0
    2.2610   43.1160   18.1290 C   0  0  0  0  0  0  0  0  0  0  0  0
    1.5630   42.2210   17.3240 C   0  0  0  0  0  0  0  0  0  0  0  0
    0.7080   42.6720   16.3300 C   0  0  0  0  0  0  0  0  0  0  0  0
    0.5500   44.0390   16.1340 C   0  0  0  0  0  0  0  0  0  0  0  0
   -0.9590   43.7030   14.2760 C   0  0  0  0  0  0  0  0  0  0  0  0
   -1.7630   44.4470   13.2640 C   0  0  0  0  0  0  0  0  0  0  0  0
   -3.1260   44.2770   13.0210 C   0  0  0  0  0  0  0  0  0  0  0  0
   -4.1060   43.3530   13.6270 C   0  0  0  0  0  0  0  0  0  0  0  0
   -5.9950   45.8610   13.3430 F   0  0  0  0  0  0  0  0  0  0  0  0
   -6.4210   45.5410   15.3950 F   0  0  0  0  0  0  0  0  0  0  0  0
   -4.4480   46.0450   14.7940 F   0  0  0  0  0  0  0  0  0  0  0  0
   -3.5060   45.0600   12.0360 N   0  0  0  0  0  0  0  0  0  0  0  0
    1.5570   47.3440   11.2060 N   0  0  0  0  0  0  0  0  0  0  0  0
    2.0340   46.7610   12.3270 N   0  0  0  0  0  0  0  0  0  0  0  0
    3.4990   41.4180   19.2420 O   0  0  0  0  0  0  0  0  0  0  0  0
    3.5210   43.4540   20.0910 O   0  0  0  0  0  0  0  0  0  0  0  0
   -0.2800   44.5950   15.1870 O   0  0  0  0  0  0  0  0  0  0  0  0
   -2.3710   45.7980   11.6250 O   0  0  0  0  0  0  0  0  0  0  0  0
   -2.5350   41.3530   12.7390 Cl  0  0  0  0  0  0  0  0  0  0  0  0
   -4.6362   39.9986   14.0634 H   0  0  0  0  0  0  0  0  0  0  0  0
    1.1172   46.0206   16.7734 H   0  0  0  0  0  0  0  0  0  0  0  0
    2.6236   45.1979   18.5567 H   0  0  0  0  0  0  0  0  0  0  0  0
   -6.6312   40.8789   15.2400 H   0  0  0  0  0  0  0  0  0  0  0  0
   -7.0089   43.3098   15.4037 H   0  0  0  0  0  0  0  0  0  0  0  0
   -0.3706   47.2144   10.2543 H   0  0  0  0  0  0  0  0  0  0  0  0
    1.2322   45.4058   13.8302 H   0  0  0  0  0  0  0  0  0  0  0  0
    1.6915   41.1395   17.4785 H   0  0  0  0  0  0  0  0  0  0  0  0
    0.1596   41.9544   15.7021 H   0  0  0  0  0  0  0  0  0  0  0  0
   -1.6301   43.0493   14.8525 H   0  0  0  0  0  0  0  0  0  0  0  0
   -0.1968   43.1170   13.7416 H   0  0  0  0  0  0  0  0  0  0  0  0
    2.0647   47.9845   10.5792 H   0  0  0  0  0  0  0  0  0  0  0  0
  1  7  2  0
  1  8  1  0
  2  3  1  0
  2  9  1  0
  2 21  2  0
  3 22  1  6
  3 23  1  0
  3 24  1  0
  4  5  2  0
  4 17  1  0
  5 14  1  0
  6 14  1  0
  6 28  2  0
  6 29  1  0
  7 21  1  0
  7 32  1  0
  8  9  2  0
 10 11  1  0
 10 19  2  0
 10 31  1  0
 11 12  2  0
 11 13  1  0
 12 26  1  0
 13 27  2  0
 14 15  2  0
 15 16  1  0
 16 17  2  0
 17 30  1  0
 18 19  1  0
 18 30  1  0
 19 20  1  0
 20 21  1  0
 20 25  2  0
 25 31  1  0
 26 27  1  0
  1 33  1  0
  4 34  1  0
  5 35  1  0
  8 36  1  0
  9 37  1  0
 12 38  1  0
 13 39  1  0
 15 40  1  0
 16 41  1  0
 18 42  1  0
 18 43  1  0
 26 44  1  0
M  CHG  1  29  -1
M  END
>  <filename_input>  (26) 
7NP6_UK8_docked.sdf

>  <pdb_id>  (26) 
7NP6_UK8

>  <pose_rank>  (26) 
25

>  <num_atoms_heavy>  (26) 
32

>  <num_torsions>  (26) 
7

>  <pose>  (26) 
[-1.314, 45.415, 12.377, 1e-06, 1e-06, 1e-06, 0.0, 0.0, 0.0, 0.0, 0.0, 0.0, 0.0]

>  <energy>  (26) 
-1049.7561494280858

>  <inter_energy>  (26) 
-1109.6566699713371

>  <intra_energy>  (26) 
58.11487679709005

>  <rmsd>  (26) 
0.0

>  <sdf_rank>  (26) 
0

$$$$
