
     RDKit          3D

 50 52  0  0  0  0  0  0  0  0999 V2000
  -18.9187    4.3930    3.6492 C   0  0  0  0  0  0  0  0  0  0  0  0
  -18.9394    4.1728    5.0311 C   0  0  0  0  0  0  0  0  0  0  0  0
  -19.5208   -0.0431   10.4560 C   0  0  0  0  0  0  0  0  0  0  0  0
  -19.2982   -1.9580   11.9521 C   0  0  0  0  0  0  0  0  0  0  0  0
  -19.9220    0.7757   11.5445 C   0  0  0  0  0  0  0  0  0  0  0  0
  -20.2618    2.2495   11.3680 C   0  0  0  0  0  0  0  0  0  0  0  0
  -14.3525    0.4226    9.6943 C   0  0  0  0  0  0  0  0  0  0  0  0
  -15.4581    0.7415    8.6946 C   0  0  0  0  0  0  0  0  0  0  0  0
  -16.8142    0.1960    9.1749 C   0  0  0  0  0  0  0  0  0  0  0  0
  -17.9675    1.1326    8.8101 C   0  0  1  0  0  0  0  0  0  0  0  0
  -17.8891    1.5250    7.3777 N   0  0  0  0  0  0  0  0  0  0  0  0
  -18.1993    2.7705    6.9953 C   0  0  0  0  0  0  0  0  0  0  0  0
  -18.5298    3.6375    7.8079 O   0  0  0  0  0  0  0  0  0  0  0  0
  -18.1528    3.1206    5.5524 C   0  0  0  0  0  0  0  0  0  0  0  0
  -17.3402    2.3429    4.7110 C   0  0  0  0  0  0  0  0  0  0  0  0
  -17.3606    2.5628    3.3277 C   0  0  0  0  0  0  0  0  0  0  0  0
  -18.1234    3.6184    2.8081 C   0  0  0  0  0  0  0  0  0  0  0  0
  -19.6844    5.5368    3.3568 N   0  0  0  0  0  0  0  0  0  0  0  0
  -20.2422    6.0496    4.4461 C   0  0  0  0  0  0  0  0  0  0  0  0
  -20.9582    7.0488    4.4786 O   0  0  0  0  0  0  0  0  0  0  0  0
  -19.7965    5.2402    5.6439 C   0  0  0  0  0  0  0  0  0  0  0  0
  -19.3673    0.5364    9.0370 C   0  0  1  0  0  0  0  0  0  0  0  0
  -19.6069   -0.4798    8.0566 O   0  0  0  0  0  0  0  0  0  0  0  0
  -19.2012   -1.3953   10.6739 C   0  0  0  0  0  0  0  0  0  0  0  0
  -19.7085   -1.1568   13.0103 C   0  0  0  0  0  0  0  0  0  0  0  0
  -19.9363    0.2015   12.8169 C   0  0  0  0  0  0  0  0  0  0  0  0
  -20.4328    1.1910   14.1558 Cl  0  0  0  0  0  0  0  0  0  0  0  0
  -19.0533   -3.0178   12.1160 H   0  0  0  0  0  0  0  0  0  0  0  0
  -20.3706    2.7216   12.3556 H   0  0  0  0  0  0  0  0  0  0  0  0
  -19.4549    2.7476   10.8105 H   0  0  0  0  0  0  0  0  0  0  0  0
  -21.2053    2.3441   10.8105 H   0  0  0  0  0  0  0  0  0  0  0  0
  -14.7400    0.5344   10.7176 H   0  0  0  0  0  0  0  0  0  0  0  0
  -14.0087   -0.6113    9.5433 H   0  0  0  0  0  0  0  0  0  0  0  0
  -13.5109    1.1147    9.5433 H   0  0  0  0  0  0  0  0  0  0  0  0
  -15.5316    1.8327    8.5763 H   0  0  0  0  0  0  0  0  0  0  0  0
  -15.2097    0.2641    7.7353 H   0  0  0  0  0  0  0  0  0  0  0  0
  -16.9897   -0.7835    8.7060 H   0  0  0  0  0  0  0  0  0  0  0  0
  -16.7783    0.1103   10.2709 H   0  0  0  0  0  0  0  0  0  0  0  0
  -17.8466    1.9930    9.4849 H   0  0  0  0  0  0  0  0  0  0  0  0
  -17.5939    0.8333    6.6740 H   0  0  0  0  0  0  0  0  0  0  0  0
  -16.6903    1.5641    5.1367 H   0  0  0  0  0  0  0  0  0  0  0  0
  -16.7828    1.9125    2.6545 H   0  0  0  0  0  0  0  0  0  0  0  0
  -18.0935    3.8359    1.7302 H   0  0  0  0  0  0  0  0  0  0  0  0
  -19.7981    5.9288    2.4112 H   0  0  0  0  0  0  0  0  0  0  0  0
  -20.6588    4.8023    6.1679 H   0  0  0  0  0  0  0  0  0  0  0  0
  -19.2674    5.8400    6.3991 H   0  0  0  0  0  0  0  0  0  0  0  0
  -20.1092    1.3419    8.9342 H   0  0  0  0  0  0  0  0  0  0  0  0
  -19.8088   -1.3358    8.5111 H   0  0  0  0  0  0  0  0  0  0  0  0
  -18.8711   -2.0184    9.8296 H   0  0  0  0  0  0  0  0  0  0  0  0
  -19.8542   -1.5994   14.0067 H   0  0  0  0  0  0  0  0  0  0  0  0
  1  2  2  0
  1 17  1  0
  1 18  1  0
  2 14  1  0
  2 21  1  0
  3  5  2  0
  3 22  1  0
  3 24  1  0
  4 24  2  0
  4 25  1  0
  5  6  1  0
  5 26  1  0
  7  8  1  0
  8  9  1  0
 10  9  1  0
 10 11  1  0
 10 22  1  0
 11 12  1  0
 12 13  2  0
 12 14  1  0
 14 15  2  0
 15 16  1  0
 16 17  2  0
 18 19  1  0
 19 20  2  0
 19 21  1  0
 22 23  1  0
 25 26  2  0
 26 27  1  0
  4 28  1  0
  6 29  1  0
  6 30  1  0
  6 31  1  0
  7 32  1  0
  7 33  1  0
  7 34  1  0
  8 35  1  0
  8 36  1  0
  9 37  1  0
  9 38  1  0
 10 39  1  1
 11 40  1  0
 15 41  1  0
 16 42  1  0
 17 43  1  0
 18 44  1  0
 21 45  1  0
 21 46  1  0
 22 47  1  6
 23 48  1  0
 24 49  1  0
 25 50  1  0
M  END
>  <filename_input>  (1) 
7NPL_UKZ_docked.sdf

>  <pdb_id>  (1) 
7NPL_UKZ

>  <pose_rank>  (1) 
0

>  <num_atoms_heavy>  (1) 
27

>  <num_torsions>  (1) 
6

>  <pose>  (1) 
[-17.967482885454004, 1.1326311400474958, 8.81014176156634, -0.6247131822610789, -3.227456123088638, -5.3110642097669345, -6.262680995519566, -6.32898928785071, 6.17811414376783, 0.04806185773713331, -0.2676845686748516, -0.5101427800319253]

>  <energy>  (1) 
-963.1322642920752

>  <inter_energy>  (1) 
-967.0934157151274

>  <intra_energy>  (1) 
23.019658854429025

>  <rmsd>  (1) 
0.416591

>  <sdf_rank>  (1) 
0

$$$$

     RDKit          3D

 50 52  0  0  0  0  0  0  0  0999 V2000
  -18.7589    3.5510    3.6566 C   0  0  0  0  0  0  0  0  0  0  0  0
  -18.5983    2.9385    4.9046 C   0  0  0  0  0  0  0  0  0  0  0  0
  -19.5247   -0.1134   10.6512 C   0  0  0  0  0  0  0  0  0  0  0  0
  -18.9697   -1.8475   12.2758 C   0  0  0  0  0  0  0  0  0  0  0  0
  -20.0380    0.7101   11.6878 C   0  0  0  0  0  0  0  0  0  0  0  0
  -20.6167    2.0917   11.4141 C   0  0  0  0  0  0  0  0  0  0  0  0
  -14.4893    0.5833    9.6480 C   0  0  0  0  0  0  0  0  0  0  0  0
  -15.7112    1.3632    9.1766 C   0  0  0  0  0  0  0  0  0  0  0  0
  -16.9195    0.4323    8.9755 C   0  0  0  0  0  0  0  0  0  0  0  0
  -18.2334    1.2119    8.8961 C   0  0  1  0  0  0  0  0  0  0  0  0
  -18.4109    1.8005    7.5419 N   0  0  0  0  0  0  0  0  0  0  0  0
  -19.0952    2.9402    7.3795 C   0  0  0  0  0  0  0  0  0  0  0  0
  -19.5740    3.5538    8.3364 O   0  0  0  0  0  0  0  0  0  0  0  0
  -19.2923    3.4809    6.0100 C   0  0  0  0  0  0  0  0  0  0  0  0
  -20.1522    4.5803    5.8524 C   0  0  0  0  0  0  0  0  0  0  0  0
  -20.2721    5.1949    4.5994 C   0  0  0  0  0  0  0  0  0  0  0  0
  -19.6019    4.6482    3.4957 C   0  0  0  0  0  0  0  0  0  0  0  0
  -18.0675    2.8017    2.6869 N   0  0  0  0  0  0  0  0  0  0  0  0
  -17.4275    1.7705    3.2233 C   0  0  0  0  0  0  0  0  0  0  0  0
  -16.7491    0.9517    2.6057 O   0  0  0  0  0  0  0  0  0  0  0  0
  -17.7266    1.7343    4.7057 C   0  0  0  0  0  0  0  0  0  0  0  0
  -19.4893    0.3736    9.1902 C   0  0  1  0  0  0  0  0  0  0  0  0
  -19.5268   -0.7423    8.2933 O   0  0  0  0  0  0  0  0  0  0  0  0
  -18.9852   -1.3754   10.9579 C   0  0  0  0  0  0  0  0  0  0  0  0
  -19.4896   -1.0452   13.2837 C   0  0  0  0  0  0  0  0  0  0  0  0
  -19.9391    0.2397   12.9985 C   0  0  0  0  0  0  0  0  0  0  0  0
  -20.5705    1.2347   14.2750 Cl  0  0  0  0  0  0  0  0  0  0  0  0
  -18.5524   -2.8381   12.5095 H   0  0  0  0  0  0  0  0  0  0  0  0
  -20.8281    2.5964   12.3683 H   0  0  0  0  0  0  0  0  0  0  0  0
  -19.8916    2.6854   10.8380 H   0  0  0  0  0  0  0  0  0  0  0  0
  -21.5484    1.9914   10.8380 H   0  0  0  0  0  0  0  0  0  0  0  0
  -14.4658    0.5683   10.7477 H   0  0  0  0  0  0  0  0  0  0  0  0
  -14.5434   -0.4476    9.2683 H   0  0  0  0  0  0  0  0  0  0  0  0
  -13.5770    1.0666    9.2683 H   0  0  0  0  0  0  0  0  0  0  0  0
  -15.9649    2.1233    9.9301 H   0  0  0  0  0  0  0  0  0  0  0  0
  -15.4721    1.8378    8.2135 H   0  0  0  0  0  0  0  0  0  0  0  0
  -16.7830   -0.1307    8.0404 H   0  0  0  0  0  0  0  0  0  0  0  0
  -16.9763   -0.2443    9.8410 H   0  0  0  0  0  0  0  0  0  0  0  0
  -18.1434    1.9820    9.6764 H   0  0  0  0  0  0  0  0  0  0  0  0
  -18.0043    1.3277    6.7221 H   0  0  0  0  0  0  0  0  0  0  0  0
  -20.7292    4.9572    6.7097 H   0  0  0  0  0  0  0  0  0  0  0  0
  -20.8871    6.0993    4.4822 H   0  0  0  0  0  0  0  0  0  0  0  0
  -19.7425    5.0882    2.4974 H   0  0  0  0  0  0  0  0  0  0  0  0
  -18.0591    3.0266    1.6818 H   0  0  0  0  0  0  0  0  0  0  0  0
  -16.8027    1.8132    5.2973 H   0  0  0  0  0  0  0  0  0  0  0  0
  -18.2029    0.7968    5.0286 H   0  0  0  0  0  0  0  0  0  0  0  0
  -20.3746    1.0088    9.0390 H   0  0  0  0  0  0  0  0  0  0  0  0
  -19.5551   -1.5837    8.8143 H   0  0  0  0  0  0  0  0  0  0  0  0
  -18.5703   -1.9993   10.1525 H   0  0  0  0  0  0  0  0  0  0  0  0
  -19.5459   -1.4283   14.3133 H   0  0  0  0  0  0  0  0  0  0  0  0
  1  2  2  0
  1 17  1  0
  1 18  1  0
  2 14  1  0
  2 21  1  0
  3  5  2  0
  3 22  1  0
  3 24  1  0
  4 24  2  0
  4 25  1  0
  5  6  1  0
  5 26  1  0
  7  8  1  0
  8  9  1  0
 10  9  1  0
 10 11  1  0
 10 22  1  0
 11 12  1  0
 12 13  2  0
 12 14  1  0
 14 15  2  0
 15 16  1  0
 16 17  2  0
 18 19  1  0
 19 20  2  0
 19 21  1  0
 22 23  1  0
 25 26  2  0
 26 27  1  0
  4 28  1  0
  6 29  1  0
  6 30  1  0
  6 31  1  0
  7 32  1  0
  7 33  1  0
  7 34  1  0
  8 35  1  0
  8 36  1  0
  9 37  1  0
  9 38  1  0
 10 39  1  1
 11 40  1  0
 15 41  1  0
 16 42  1  0
 17 43  1  0
 18 44  1  0
 21 45  1  0
 21 46  1  0
 22 47  1  6
 23 48  1  0
 24 49  1  0
 25 50  1  0
M  END
>  <filename_input>  (2) 
7NPL_UKZ_docked.sdf

>  <pdb_id>  (2) 
7NPL_UKZ

>  <pose_rank>  (2) 
1

>  <num_atoms_heavy>  (2) 
27

>  <num_torsions>  (2) 
6

>  <pose>  (2) 
[-18.233382184516607, 1.2119258979284055, 8.896139642425272, -3.21800230632921, -3.1361397293969846, -3.98150255152748, 6.1553639980048365, 3.364232877183046, 0.1510731508378148, -6.270524910400849, 0.26799050826205695, -0.1593224072347032]

>  <energy>  (2) 
-875.2803502586905

>  <inter_energy>  (2) 
-886.0679043493227

>  <intra_energy>  (2) 
27.819552165249952

>  <rmsd>  (2) 
2.38611

>  <sdf_rank>  (2) 
0

$$$$

     RDKit          3D

 50 52  0  0  0  0  0  0  0  0999 V2000
  -20.8520   -0.4383   12.6876 C   0  0  0  0  0  0  0  0  0  0  0  0
  -20.1106   -0.3193   11.5067 C   0  0  0  0  0  0  0  0  0  0  0  0
  -17.5341    2.5107    6.3982 C   0  0  0  0  0  0  0  0  0  0  0  0
  -16.9298    1.8858    4.1182 C   0  0  0  0  0  0  0  0  0  0  0  0
  -18.5277    3.3970    5.9046 C   0  0  0  0  0  0  0  0  0  0  0  0
  -19.4094    4.2233    6.8312 C   0  0  0  0  0  0  0  0  0  0  0  0
  -14.0670   -0.0714   10.2757 C   0  0  0  0  0  0  0  0  0  0  0  0
  -15.4748   -0.3494    9.7617 C   0  0  0  0  0  0  0  0  0  0  0  0
  -15.7224    0.3531    8.4155 C   0  0  0  0  0  0  0  0  0  0  0  0
  -17.1718    0.8220    8.2747 C   0  0  1  0  0  0  0  0  0  0  0  0
  -17.9171    0.6047    9.5434 N   0  0  0  0  0  0  0  0  0  0  0  0
  -19.1109    1.1795    9.7384 C   0  0  0  0  0  0  0  0  0  0  0  0
  -19.6454    1.8787    8.8744 O   0  0  0  0  0  0  0  0  0  0  0  0
  -19.8115    0.9783   11.0327 C   0  0  0  0  0  0  0  0  0  0  0  0
  -20.2126    2.1178   11.7496 C   0  0  0  0  0  0  0  0  0  0  0  0
  -20.9803    1.9729   12.9123 C   0  0  0  0  0  0  0  0  0  0  0  0
  -21.2620    0.6878   13.3975 C   0  0  0  0  0  0  0  0  0  0  0  0
  -20.9512   -1.7995   13.0301 N   0  0  0  0  0  0  0  0  0  0  0  0
  -20.3675   -2.5794   12.1293 C   0  0  0  0  0  0  0  0  0  0  0  0
  -20.3037   -3.8063   12.1813 O   0  0  0  0  0  0  0  0  0  0  0  0
  -19.7391   -1.7043   11.0673 C   0  0  0  0  0  0  0  0  0  0  0  0
  -17.3270    2.3087    7.9113 C   0  0  1  0  0  0  0  0  0  0  0  0
  -16.1661    3.0216    8.3535 O   0  0  0  0  0  0  0  0  0  0  0  0
  -16.7565    1.7565    5.5013 C   0  0  0  0  0  0  0  0  0  0  0  0
  -17.8910    2.7676    3.6403 C   0  0  0  0  0  0  0  0  0  0  0  0
  -18.7244    3.4458    4.5234 C   0  0  0  0  0  0  0  0  0  0  0  0
  -19.9319    4.5319    3.9066 Cl  0  0  0  0  0  0  0  0  0  0  0  0
  -16.3146    1.2984    3.4207 H   0  0  0  0  0  0  0  0  0  0  0  0
  -19.1613    3.9907    7.8773 H   0  0  0  0  0  0  0  0  0  0  0  0
  -19.2377    5.2934    6.6428 H   0  0  0  0  0  0  0  0  0  0  0  0
  -20.4661    3.9828    6.6428 H   0  0  0  0  0  0  0  0  0  0  0  0
  -14.0714   -0.0723   11.3757 H   0  0  0  0  0  0  0  0  0  0  0  0
  -13.3829   -0.8519    9.9112 H   0  0  0  0  0  0  0  0  0  0  0  0
  -13.7308    0.9104    9.9112 H   0  0  0  0  0  0  0  0  0  0  0  0
  -15.6012   -1.4340    9.6294 H   0  0  0  0  0  0  0  0  0  0  0  0
  -16.1971    0.0377   10.4955 H   0  0  0  0  0  0  0  0  0  0  0  0
  -15.0575    1.2264    8.3425 H   0  0  0  0  0  0  0  0  0  0  0  0
  -15.5182   -0.3692    7.6114 H   0  0  0  0  0  0  0  0  0  0  0  0
  -17.5756    0.2215    7.4464 H   0  0  0  0  0  0  0  0  0  0  0  0
  -17.5117    0.0072   10.2779 H   0  0  0  0  0  0  0  0  0  0  0  0
  -19.9248    3.1200   11.3993 H   0  0  0  0  0  0  0  0  0  0  0  0
  -21.3592    2.8603   13.4405 H   0  0  0  0  0  0  0  0  0  0  0  0
  -21.8097    0.5684   14.3439 H   0  0  0  0  0  0  0  0  0  0  0  0
  -21.4205   -2.1484   13.8780 H   0  0  0  0  0  0  0  0  0  0  0  0
  -20.1547   -1.9285   10.0738 H   0  0  0  0  0  0  0  0  0  0  0  0
  -18.6533   -1.8517   10.9715 H   0  0  0  0  0  0  0  0  0  0  0  0
  -18.2235    2.6983    8.4157 H   0  0  0  0  0  0  0  0  0  0  0  0
  -16.1443    3.0350    9.3431 H   0  0  0  0  0  0  0  0  0  0  0  0
  -16.0030    1.0565    5.8914 H   0  0  0  0  0  0  0  0  0  0  0  0
  -17.9936    2.9303    2.5572 H   0  0  0  0  0  0  0  0  0  0  0  0
  1  2  2  0
  1 17  1  0
  1 18  1  0
  2 14  1  0
  2 21  1  0
  3  5  2  0
  3 22  1  0
  3 24  1  0
  4 24  2  0
  4 25  1  0
  5  6  1  0
  5 26  1  0
  7  8  1  0
  8  9  1  0
 10  9  1  0
 10 11  1  0
 10 22  1  0
 11 12  1  0
 12 13  2  0
 12 14  1  0
 14 15  2  0
 15 16  1  0
 16 17  2  0
 18 19  1  0
 19 20  2  0
 19 21  1  0
 22 23  1  0
 25 26  2  0
 26 27  1  0
  4 28  1  0
  6 29  1  0
  6 30  1  0
  6 31  1  0
  7 32  1  0
  7 33  1  0
  7 34  1  0
  8 35  1  0
  8 36  1  0
  9 37  1  0
  9 38  1  0
 10 39  1  6
 11 40  1  0
 15 41  1  0
 16 42  1  0
 17 43  1  0
 18 44  1  0
 21 45  1  0
 21 46  1  0
 22 47  1  1
 23 48  1  0
 24 49  1  0
 25 50  1  0
M  END
>  <filename_input>  (3) 
7NPL_UKZ_docked.sdf

>  <pdb_id>  (3) 
7NPL_UKZ

>  <pose_rank>  (3) 
2

>  <num_atoms_heavy>  (3) 
27

>  <num_torsions>  (3) 
6

>  <pose>  (3) 
[-17.17182389069123, 0.8220353309263156, 8.27474853297443, 2.797025394629636, -1.5889850125331753, 0.5402256084869407, -0.8820602049232157, 2.550466530281764, -5.588784441656295, 0.8942769749450833, -1.0110453375977808, 0.7217930888688276]

>  <energy>  (3) 
-718.5828341813445

>  <inter_energy>  (3) 
-766.5574542141893

>  <intra_energy>  (3) 
52.24762388084422

>  <rmsd>  (3) 
7.69971

>  <sdf_rank>  (3) 
0

$$$$

     RDKit          3D

 50 52  0  0  0  0  0  0  0  0999 V2000
  -19.1082    4.4950    4.4772 C   0  0  0  0  0  0  0  0  0  0  0  0
  -18.8407    3.3298    5.2047 C   0  0  0  0  0  0  0  0  0  0  0  0
  -19.7606    0.7431   11.0431 C   0  0  0  0  0  0  0  0  0  0  0  0
  -20.6579    2.4889   12.4927 C   0  0  0  0  0  0  0  0  0  0  0  0
  -20.1259   -0.2487   11.9915 C   0  0  0  0  0  0  0  0  0  0  0  0
  -19.8613   -1.7299   11.7581 C   0  0  0  0  0  0  0  0  0  0  0  0
  -14.4240    0.4837    9.8637 C   0  0  0  0  0  0  0  0  0  0  0  0
  -15.7607   -0.2477    9.8236 C   0  0  0  0  0  0  0  0  0  0  0  0
  -16.7020    0.3742    8.7776 C   0  0  0  0  0  0  0  0  0  0  0  0
  -17.8323    1.1723    9.4301 C   0  0  1  0  0  0  0  0  0  0  0  0
  -18.2215    2.3238    8.5730 N   0  0  0  0  0  0  0  0  0  0  0  0
  -18.8776    2.1247    7.4226 C   0  0  0  0  0  0  0  0  0  0  0  0
  -19.2059    0.9966    7.0474 O   0  0  0  0  0  0  0  0  0  0  0  0
  -19.2151    3.2914    6.5672 C   0  0  0  0  0  0  0  0  0  0  0  0
  -19.8748    4.3781    7.1644 C   0  0  0  0  0  0  0  0  0  0  0  0
  -20.1034    5.5448    6.4235 C   0  0  0  0  0  0  0  0  0  0  0  0
  -19.7525    5.5803    5.0665 C   0  0  0  0  0  0  0  0  0  0  0  0
  -18.7495    4.2871    3.1326 N   0  0  0  0  0  0  0  0  0  0  0  0
  -18.2221    3.0845    2.9422 C   0  0  0  0  0  0  0  0  0  0  0  0
  -17.8257    2.6411    1.8660 O   0  0  0  0  0  0  0  0  0  0  0  0
  -18.2525    2.3306    4.2534 C   0  0  0  0  0  0  0  0  0  0  0  0
  -19.1108    0.3603    9.6999 C   0  0  1  0  0  0  0  0  0  0  0  0
  -18.7902   -1.0355    9.6828 O   0  0  0  0  0  0  0  0  0  0  0  0
  -20.0420    2.0972   11.2980 C   0  0  0  0  0  0  0  0  0  0  0  0
  -20.9969    1.5163   13.4250 C   0  0  0  0  0  0  0  0  0  0  0  0
  -20.8047    0.1692   13.1375 C   0  0  0  0  0  0  0  0  0  0  0  0
  -21.2503   -1.0338   14.3091 Cl  0  0  0  0  0  0  0  0  0  0  0  0
  -20.8699    3.5500   12.6901 H   0  0  0  0  0  0  0  0  0  0  0  0
  -19.7696   -2.2431   12.7267 H   0  0  0  0  0  0  0  0  0  0  0  0
  -20.6957   -2.1663   11.1895 H   0  0  0  0  0  0  0  0  0  0  0  0
  -18.9274   -1.8505   11.1895 H   0  0  0  0  0  0  0  0  0  0  0  0
  -14.1264    0.6465   10.9101 H   0  0  0  0  0  0  0  0  0  0  0  0
  -13.6593   -0.1217    9.3550 H   0  0  0  0  0  0  0  0  0  0  0  0
  -14.5216    1.4541    9.3550 H   0  0  0  0  0  0  0  0  0  0  0  0
  -15.5852   -1.3028    9.5666 H   0  0  0  0  0  0  0  0  0  0  0  0
  -16.2342   -0.1641   10.8129 H   0  0  0  0  0  0  0  0  0  0  0  0
  -16.1197    1.0465    8.1303 H   0  0  0  0  0  0  0  0  0  0  0  0
  -17.1534   -0.4433    8.1963 H   0  0  0  0  0  0  0  0  0  0  0  0
  -17.4187    1.4940   10.3972 H   0  0  0  0  0  0  0  0  0  0  0  0
  -17.9846    3.2822    8.8667 H   0  0  0  0  0  0  0  0  0  0  0  0
  -20.2107    4.3133    8.2098 H   0  0  0  0  0  0  0  0  0  0  0  0
  -20.5547    6.4262    6.9027 H   0  0  0  0  0  0  0  0  0  0  0  0
  -19.9873    6.4701    4.4638 H   0  0  0  0  0  0  0  0  0  0  0  0
  -18.8805    4.9845    2.3860 H   0  0  0  0  0  0  0  0  0  0  0  0
  -17.2388    2.0380    4.5645 H   0  0  0  0  0  0  0  0  0  0  0  0
  -18.8256    1.3932    4.2007 H   0  0  0  0  0  0  0  0  0  0  0  0
  -19.8412    0.5891    8.9099 H   0  0  0  0  0  0  0  0  0  0  0  0
  -18.7138   -1.3679   10.6122 H   0  0  0  0  0  0  0  0  0  0  0  0
  -19.7750    2.8579   10.5496 H   0  0  0  0  0  0  0  0  0  0  0  0
  -21.4197    1.8134   14.3960 H   0  0  0  0  0  0  0  0  0  0  0  0
  1  2  2  0
  1 17  1  0
  1 18  1  0
  2 14  1  0
  2 21  1  0
  3  5  2  0
  3 22  1  0
  3 24  1  0
  4 24  2  0
  4 25  1  0
  5  6  1  0
  5 26  1  0
  7  8  1  0
  8  9  1  0
 10  9  1  0
 10 11  1  0
 10 22  1  0
 11 12  1  0
 12 13  2  0
 12 14  1  0
 14 15  2  0
 15 16  1  0
 16 17  2  0
 18 19  1  0
 19 20  2  0
 19 21  1  0
 22 23  1  0
 25 26  2  0
 26 27  1  0
  4 28  1  0
  6 29  1  0
  6 30  1  0
  6 31  1  0
  7 32  1  0
  7 33  1  0
  7 34  1  0
  8 35  1  0
  8 36  1  0
  9 37  1  0
  9 38  1  0
 10 39  1  1
 11 40  1  0
 15 41  1  0
 16 42  1  0
 17 43  1  0
 18 44  1  0
 21 45  1  0
 21 46  1  0
 22 47  1  6
 23 48  1  0
 24 49  1  0
 25 50  1  0
M  END
>  <filename_input>  (4) 
7NPL_UKZ_docked.sdf

>  <pdb_id>  (4) 
7NPL_UKZ

>  <pose_rank>  (4) 
3

>  <num_atoms_heavy>  (4) 
27

>  <num_torsions>  (4) 
6

>  <pose>  (4) 
[-17.83231602811196, 1.1722715395433587, 9.430090574482682, -4.766815630684471, -2.7582406845094924, -0.5232434162087485, 3.7367020408486513, -13.104514222757759, 1.4660041638063332, 27.688064638351783, -17.392783745907092, 7.6832916383074]

>  <energy>  (4) 
-730.6222777800439

>  <inter_energy>  (4) 
-806.1381212386068

>  <intra_energy>  (4) 
86.3142358158125

>  <rmsd>  (4) 
2.7393

>  <sdf_rank>  (4) 
0

$$$$

     RDKit          3D

 50 52  0  0  0  0  0  0  0  0999 V2000
  -20.7703   -1.0064   12.6962 C   0  0  0  0  0  0  0  0  0  0  0  0
  -20.3279    0.0701   11.9192 C   0  0  0  0  0  0  0  0  0  0  0  0
  -16.0632    1.2971    8.1098 C   0  0  0  0  0  0  0  0  0  0  0  0
  -14.3870    2.6767    9.2239 C   0  0  0  0  0  0  0  0  0  0  0  0
  -15.7018    0.1857    8.9165 C   0  0  0  0  0  0  0  0  0  0  0  0
  -16.3865   -1.1680    8.7850 C   0  0  0  0  0  0  0  0  0  0  0  0
  -19.7493    4.7197    6.2116 C   0  0  0  0  0  0  0  0  0  0  0  0
  -18.9996    3.4612    5.7902 C   0  0  0  0  0  0  0  0  0  0  0  0
  -19.5112    2.2286    6.5557 C   0  0  0  0  0  0  0  0  0  0  0  0
  -18.5224    1.7739    7.6309 C   0  0  1  0  0  0  0  0  0  0  0  0
  -19.1313    0.7241    8.4907 N   0  0  0  0  0  0  0  0  0  0  0  0
  -19.1817    0.8780    9.8201 C   0  0  0  0  0  0  0  0  0  0  0  0
  -18.7572    1.8950   10.3741 O   0  0  0  0  0  0  0  0  0  0  0  0
  -19.7573   -0.2067   10.6560 C   0  0  0  0  0  0  0  0  0  0  0  0
  -19.6739   -1.5241   10.1758 C   0  0  0  0  0  0  0  0  0  0  0  0
  -20.0952   -2.5869   10.9853 C   0  0  0  0  0  0  0  0  0  0  0  0
  -20.6806   -2.3161   12.2303 C   0  0  0  0  0  0  0  0  0  0  0  0
  -21.3876   -0.5084   13.8585 N   0  0  0  0  0  0  0  0  0  0  0  0
  -21.3356    0.8161   13.9166 C   0  0  0  0  0  0  0  0  0  0  0  0
  -21.7991    1.5097   14.8200 O   0  0  0  0  0  0  0  0  0  0  0  0
  -20.6722    1.3293   12.6577 C   0  0  0  0  0  0  0  0  0  0  0  0
  -17.2061    1.1975    7.0817 C   0  0  1  0  0  0  0  0  0  0  0  0
  -16.8560    1.8943    5.8804 O   0  0  0  0  0  0  0  0  0  0  0  0
  -15.4119    2.5317    8.2813 C   0  0  0  0  0  0  0  0  0  0  0  0
  -14.0252    1.5814    9.9980 C   0  0  0  0  0  0  0  0  0  0  0  0
  -14.7280    0.3856    9.8966 C   0  0  0  0  0  0  0  0  0  0  0  0
  -14.2717   -0.9685   10.8849 Cl  0  0  0  0  0  0  0  0  0  0  0  0
  -13.8763    3.6428    9.3497 H   0  0  0  0  0  0  0  0  0  0  0  0
  -16.5918   -1.5738    9.7866 H   0  0  0  0  0  0  0  0  0  0  0  0
  -17.3327   -1.0487    8.2368 H   0  0  0  0  0  0  0  0  0  0  0  0
  -15.7297   -1.8594    8.2368 H   0  0  0  0  0  0  0  0  0  0  0  0
  -19.7829    4.7762    7.3096 H   0  0  0  0  0  0  0  0  0  0  0  0
  -19.2313    5.6053    5.8146 H   0  0  0  0  0  0  0  0  0  0  0  0
  -20.7746    4.6860    5.8146 H   0  0  0  0  0  0  0  0  0  0  0  0
  -19.1456    3.3004    4.7119 H   0  0  0  0  0  0  0  0  0  0  0  0
  -17.9326    3.5970    6.0202 H   0  0  0  0  0  0  0  0  0  0  0  0
  -20.4681    2.4803    7.0363 H   0  0  0  0  0  0  0  0  0  0  0  0
  -19.6333    1.4064    5.8353 H   0  0  0  0  0  0  0  0  0  0  0  0
  -18.2885    2.6895    8.1940 H   0  0  0  0  0  0  0  0  0  0  0  0
  -19.5174   -0.1282    8.0602 H   0  0  0  0  0  0  0  0  0  0  0  0
  -19.2793   -1.7204    9.1680 H   0  0  0  0  0  0  0  0  0  0  0  0
  -19.9677   -3.6258   10.6469 H   0  0  0  0  0  0  0  0  0  0  0  0
  -21.0711   -3.1424   12.8424 H   0  0  0  0  0  0  0  0  0  0  0  0
  -21.8269   -1.1008   14.5775 H   0  0  0  0  0  0  0  0  0  0  0  0
  -19.7674    1.9079   12.8955 H   0  0  0  0  0  0  0  0  0  0  0  0
  -21.3123    2.0103   12.0776 H   0  0  0  0  0  0  0  0  0  0  0  0
  -17.3569    0.1291    6.8676 H   0  0  0  0  0  0  0  0  0  0  0  0
  -16.4239    2.7544    6.1118 H   0  0  0  0  0  0  0  0  0  0  0  0
  -15.7114    3.3939    7.6674 H   0  0  0  0  0  0  0  0  0  0  0  0
  -13.1779    1.6604   10.6950 H   0  0  0  0  0  0  0  0  0  0  0  0
  1  2  2  0
  1 17  1  0
  1 18  1  0
  2 14  1  0
  2 21  1  0
  3  5  2  0
  3 22  1  0
  3 24  1  0
  4 24  2  0
  4 25  1  0
  5  6  1  0
  5 26  1  0
  7  8  1  0
  8  9  1  0
 10  9  1  0
 10 11  1  0
 10 22  1  0
 11 12  1  0
 12 13  2  0
 12 14  1  0
 14 15  2  0
 15 16  1  0
 16 17  2  0
 18 19  1  0
 19 20  2  0
 19 21  1  0
 22 23  1  0
 25 26  2  0
 26 27  1  0
  4 28  1  0
  6 29  1  0
  6 30  1  0
  6 31  1  0
  7 32  1  0
  7 33  1  0
  7 34  1  0
  8 35  1  0
  8 36  1  0
  9 37  1  0
  9 38  1  0
 10 39  1  1
 11 40  1  0
 15 41  1  0
 16 42  1  0
 17 43  1  0
 18 44  1  0
 21 45  1  0
 21 46  1  0
 22 47  1  6
 23 48  1  0
 24 49  1  0
 25 50  1  0
M  END
>  <filename_input>  (5) 
7NPL_UKZ_docked.sdf

>  <pdb_id>  (5) 
7NPL_UKZ

>  <pose_rank>  (5) 
4

>  <num_atoms_heavy>  (5) 
27

>  <num_torsions>  (5) 
6

>  <pose>  (5) 
[-18.522403339313865, 1.7738813604130137, 7.630913617503523, -0.5467923751211917, -2.759820931962871, -1.8999778198046526, 0.3162160498015225, -5.43220394842189, -10.833421628641318, 6.535195401470132, -4.417283627938236, 1.4211154039579443]

>  <energy>  (5) 
-692.6670411962662

>  <inter_energy>  (5) 
-713.8235154335708

>  <intra_energy>  (5) 
45.71209573442485

>  <rmsd>  (5) 
7.26492

>  <sdf_rank>  (5) 
0

$$$$

     RDKit          3D

 50 52  0  0  0  0  0  0  0  0999 V2000
  -18.5445    4.0841    4.0929 C   0  0  0  0  0  0  0  0  0  0  0  0
  -19.0710    3.5790    5.2871 C   0  0  0  0  0  0  0  0  0  0  0  0
  -19.5531   -0.1085   10.8678 C   0  0  0  0  0  0  0  0  0  0  0  0
  -20.4487   -0.1683   13.1369 C   0  0  0  0  0  0  0  0  0  0  0  0
  -19.7349   -1.5116   10.7464 C   0  0  0  0  0  0  0  0  0  0  0  0
  -19.3680   -2.2697    9.4779 C   0  0  0  0  0  0  0  0  0  0  0  0
  -22.3791    3.8857   11.2666 C   0  0  0  0  0  0  0  0  0  0  0  0
  -21.5337    2.6240   11.1367 C   0  0  0  0  0  0  0  0  0  0  0  0
  -20.2458    2.8989   10.3412 C   0  0  0  0  0  0  0  0  0  0  0  0
  -19.9961    1.8321    9.2735 C   0  0  1  0  0  0  0  0  0  0  0  0
  -19.4537    2.4500    8.0341 N   0  0  0  0  0  0  0  0  0  0  0  0
  -19.1723    1.6951    6.9643 C   0  0  0  0  0  0  0  0  0  0  0  0
  -19.3759    0.4787    6.9543 O   0  0  0  0  0  0  0  0  0  0  0  0
  -18.5915    2.3347    5.7559 C   0  0  0  0  0  0  0  0  0  0  0  0
  -17.5841    1.6431    5.0632 C   0  0  0  0  0  0  0  0  0  0  0  0
  -17.0954    2.1543    3.8540 C   0  0  0  0  0  0  0  0  0  0  0  0
  -17.5530    3.3979    3.3955 C   0  0  0  0  0  0  0  0  0  0  0  0
  -19.0801    5.3647    3.8624 N   0  0  0  0  0  0  0  0  0  0  0  0
  -19.9556    5.7096    4.7977 C   0  0  0  0  0  0  0  0  0  0  0  0
  -20.5702    6.7738    4.8427 O   0  0  0  0  0  0  0  0  0  0  0  0
  -20.0197    4.6059    5.8302 C   0  0  0  0  0  0  0  0  0  0  0  0
  -19.0099    0.7292    9.6947 C   0  0  1  0  0  0  0  0  0  0  0  0
  -17.7599    1.3309   10.0506 O   0  0  0  0  0  0  0  0  0  0  0  0
  -19.9237    0.5483   12.0549 C   0  0  0  0  0  0  0  0  0  0  0  0
  -20.6077   -1.5433   13.0193 C   0  0  0  0  0  0  0  0  0  0  0  0
  -20.3296   -2.1831   11.8162 C   0  0  0  0  0  0  0  0  0  0  0  0
  -20.5504   -3.9012   11.6828 Cl  0  0  0  0  0  0  0  0  0  0  0  0
  -20.7310    0.3493   14.0656 H   0  0  0  0  0  0  0  0  0  0  0  0
  -18.9032   -3.2299    9.7461 H   0  0  0  0  0  0  0  0  0  0  0  0
  -20.2762   -2.4548    8.8856 H   0  0  0  0  0  0  0  0  0  0  0  0
  -18.6594   -1.6721    8.8856 H   0  0  0  0  0  0  0  0  0  0  0  0
  -22.5333    4.1158   12.3312 H   0  0  0  0  0  0  0  0  0  0  0  0
  -21.8609    4.7259   10.7812 H   0  0  0  0  0  0  0  0  0  0  0  0
  -23.3532    3.7260   10.7812 H   0  0  0  0  0  0  0  0  0  0  0  0
  -21.2656    2.2663   12.1418 H   0  0  0  0  0  0  0  0  0  0  0  0
  -22.1205    1.8644   10.5994 H   0  0  0  0  0  0  0  0  0  0  0  0
  -20.3334    3.8795    9.8505 H   0  0  0  0  0  0  0  0  0  0  0  0
  -19.4004    2.8816   11.0447 H   0  0  0  0  0  0  0  0  0  0  0  0
  -20.9809    1.3695    9.1117 H   0  0  0  0  0  0  0  0  0  0  0  0
  -19.2932    3.4668    7.9983 H   0  0  0  0  0  0  0  0  0  0  0  0
  -17.1804    0.7037    5.4688 H   0  0  0  0  0  0  0  0  0  0  0  0
  -16.3585    1.5846    3.2688 H   0  0  0  0  0  0  0  0  0  0  0  0
  -17.1266    3.8340    2.4801 H   0  0  0  0  0  0  0  0  0  0  0  0
  -18.8235    5.9623    3.0637 H   0  0  0  0  0  0  0  0  0  0  0  0
  -21.0385    4.1990    5.9111 H   0  0  0  0  0  0  0  0  0  0  0  0
  -19.7575    4.9448    6.8433 H   0  0  0  0  0  0  0  0  0  0  0  0
  -18.8704    0.0445    8.8452 H   0  0  0  0  0  0  0  0  0  0  0  0
  -17.6809    1.3690   11.0367 H   0  0  0  0  0  0  0  0  0  0  0  0
  -19.7994    1.6384   12.1342 H   0  0  0  0  0  0  0  0  0  0  0  0
  -20.9557   -2.1294   13.8827 H   0  0  0  0  0  0  0  0  0  0  0  0
  1  2  2  0
  1 17  1  0
  1 18  1  0
  2 14  1  0
  2 21  1  0
  3  5  2  0
  3 22  1  0
  3 24  1  0
  4 24  2  0
  4 25  1  0
  5  6  1  0
  5 26  1  0
  7  8  1  0
  8  9  1  0
 10  9  1  0
 10 11  1  0
 10 22  1  0
 11 12  1  0
 12 13  2  0
 12 14  1  0
 14 15  2  0
 15 16  1  0
 16 17  2  0
 18 19  1  0
 19 20  2  0
 19 21  1  0
 22 23  1  0
 25 26  2  0
 26 27  1  0
  4 28  1  0
  6 29  1  0
  6 30  1  0
  6 31  1  0
  7 32  1  0
  7 33  1  0
  7 34  1  0
  8 35  1  0
  8 36  1  0
  9 37  1  0
  9 38  1  0
 10 39  1  6
 11 40  1  0
 15 41  1  0
 16 42  1  0
 17 43  1  0
 18 44  1  0
 21 45  1  0
 21 46  1  0
 22 47  1  6
 23 48  1  0
 24 49  1  0
 25 50  1  0
M  END
>  <filename_input>  (6) 
7NPL_UKZ_docked.sdf

>  <pdb_id>  (6) 
7NPL_UKZ

>  <pose_rank>  (6) 
5

>  <num_atoms_heavy>  (6) 
27

>  <num_torsions>  (6) 
6

>  <pose>  (6) 
[-19.99608575148163, 1.8321378459675162, 9.273480212263461, -0.3889910243662205, -0.9153264748626896, 1.9683763915193442, -13.20368413453735, -3.47459180302765, -18.723617580465096, -18.200708938842496, 1.3485145793191375, 0.9410609095299876]

>  <energy>  (6) 
-640.423490758793

>  <inter_energy>  (6) 
-731.1050471791242

>  <intra_energy>  (6) 
91.2482626303248

>  <rmsd>  (6) 
3.1498

>  <sdf_rank>  (6) 
0

$$$$

     RDKit          3D

 50 52  0  0  0  0  0  0  0  0999 V2000
  -20.7359    0.7333   12.4414 C   0  0  0  0  0  0  0  0  0  0  0  0
  -20.0108    0.9276   11.2604 C   0  0  0  0  0  0  0  0  0  0  0  0
  -18.8705    2.7487    6.1235 C   0  0  0  0  0  0  0  0  0  0  0  0
  -19.9638    4.8557    6.6890 C   0  0  0  0  0  0  0  0  0  0  0  0
  -18.6189    3.2189    4.8074 C   0  0  0  0  0  0  0  0  0  0  0  0
  -17.8960    2.3722    3.7685 C   0  0  0  0  0  0  0  0  0  0  0  0
  -14.9632    1.5752    9.3263 C   0  0  0  0  0  0  0  0  0  0  0  0
  -15.1565    2.5294    8.1534 C   0  0  0  0  0  0  0  0  0  0  0  0
  -16.6503    2.7698    7.8745 C   0  0  0  0  0  0  0  0  0  0  0  0
  -17.4329    1.4581    7.7883 C   0  0  1  0  0  0  0  0  0  0  0  0
  -18.2606    1.2621    9.0084 N   0  0  0  0  0  0  0  0  0  0  0  0
  -18.2495    0.0907    9.6574 C   0  0  0  0  0  0  0  0  0  0  0  0
  -17.5403   -0.8496    9.2910 O   0  0  0  0  0  0  0  0  0  0  0  0
  -19.1193   -0.0888   10.8481 C   0  0  0  0  0  0  0  0  0  0  0  0
  -18.9948   -1.2798   11.5823 C   0  0  0  0  0  0  0  0  0  0  0  0
  -19.7081   -1.4373   12.7775 C   0  0  0  0  0  0  0  0  0  0  0  0
  -20.6089   -0.4410   13.1799 C   0  0  0  0  0  0  0  0  0  0  0  0
  -21.6268    1.8088   12.6134 N   0  0  0  0  0  0  0  0  0  0  0  0
  -21.4990    2.7146   11.6523 C   0  0  0  0  0  0  0  0  0  0  0  0
  -22.1540    3.7509   11.5564 O   0  0  0  0  0  0  0  0  0  0  0  0
  -20.4635    2.2268   10.6633 C   0  0  0  0  0  0  0  0  0  0  0  0
  -18.3816    1.3615    6.5812 C   0  0  1  0  0  0  0  0  0  0  0  0
  -19.4960    0.5313    6.9279 O   0  0  0  0  0  0  0  0  0  0  0  0
  -19.5274    3.5760    7.0519 C   0  0  0  0  0  0  0  0  0  0  0  0
  -19.7311    5.3038    5.3948 C   0  0  0  0  0  0  0  0  0  0  0  0
  -19.0012    4.5264    4.5019 C   0  0  0  0  0  0  0  0  0  0  0  0
  -18.7057    5.1106    2.8927 Cl  0  0  0  0  0  0  0  0  0  0  0  0
  -20.4830    5.4963    7.4171 H   0  0  0  0  0  0  0  0  0  0  0  0
  -17.2625    1.6302    4.2766 H   0  0  0  0  0  0  0  0  0  0  0  0
  -18.6347    1.8542    3.1392 H   0  0  0  0  0  0  0  0  0  0  0  0
  -17.2686    3.0206    3.1392 H   0  0  0  0  0  0  0  0  0  0  0  0
  -15.0751    2.1278   10.2708 H   0  0  0  0  0  0  0  0  0  0  0  0
  -15.7177    0.7763    9.2772 H   0  0  0  0  0  0  0  0  0  0  0  0
  -13.9572    1.1330    9.2772 H   0  0  0  0  0  0  0  0  0  0  0  0
  -14.6760    3.4904    8.3893 H   0  0  0  0  0  0  0  0  0  0  0  0
  -14.7023    2.0791    7.2585 H   0  0  0  0  0  0  0  0  0  0  0  0
  -17.0698    3.3814    8.6869 H   0  0  0  0  0  0  0  0  0  0  0  0
  -16.7379    3.2833    6.9057 H   0  0  0  0  0  0  0  0  0  0  0  0
  -16.6595    0.6833    7.6809 H   0  0  0  0  0  0  0  0  0  0  0  0
  -18.8472    2.0336    9.3570 H   0  0  0  0  0  0  0  0  0  0  0  0
  -18.3396   -2.0857   11.2201 H   0  0  0  0  0  0  0  0  0  0  0  0
  -19.5628   -2.3356   13.3955 H   0  0  0  0  0  0  0  0  0  0  0  0
  -21.2187   -0.5874   14.0836 H   0  0  0  0  0  0  0  0  0  0  0  0
  -22.2973    1.8839   13.3916 H   0  0  0  0  0  0  0  0  0  0  0  0
  -19.6277    2.9375   10.5834 H   0  0  0  0  0  0  0  0  0  0  0  0
  -20.8569    2.1201    9.6416 H   0  0  0  0  0  0  0  0  0  0  0  0
  -17.8291    0.9188    5.7393 H   0  0  0  0  0  0  0  0  0  0  0  0
  -19.5716    0.4750    7.9134 H   0  0  0  0  0  0  0  0  0  0  0  0
  -19.7003    3.2130    8.0758 H   0  0  0  0  0  0  0  0  0  0  0  0
  -20.1263    6.2790    5.0744 H   0  0  0  0  0  0  0  0  0  0  0  0
  1  2  2  0
  1 17  1  0
  1 18  1  0
  2 14  1  0
  2 21  1  0
  3  5  2  0
  3 22  1  0
  3 24  1  0
  4 24  2  0
  4 25  1  0
  5  6  1  0
  5 26  1  0
  7  8  1  0
  8  9  1  0
 10  9  1  0
 10 11  1  0
 10 22  1  0
 11 12  1  0
 12 13  2  0
 12 14  1  0
 14 15  2  0
 15 16  1  0
 16 17  2  0
 18 19  1  0
 19 20  2  0
 19 21  1  0
 22 23  1  0
 25 26  2  0
 26 27  1  0
  4 28  1  0
  6 29  1  0
  6 30  1  0
  6 31  1  0
  7 32  1  0
  7 33  1  0
  7 34  1  0
  8 35  1  0
  8 36  1  0
  9 37  1  0
  9 38  1  0
 10 39  1  6
 11 40  1  0
 15 41  1  0
 16 42  1  0
 17 43  1  0
 18 44  1  0
 21 45  1  0
 21 46  1  0
 22 47  1  6
 23 48  1  0
 24 49  1  0
 25 50  1  0
M  END
>  <filename_input>  (7) 
7NPL_UKZ_docked.sdf

>  <pdb_id>  (7) 
7NPL_UKZ

>  <pose_rank>  (7) 
6

>  <num_atoms_heavy>  (7) 
27

>  <num_torsions>  (7) 
6

>  <pose>  (7) 
[-17.432918992422685, 1.4581057138022826, 7.7883484741095215, -3.0742141094759106, -0.6127535445742033, -1.2302393245619339, 0.1906886257844339, -2.67897381280058, -1.4861763543977526, 0.6404728608713913, 0.7305308839406428, -3.87952252055099]

>  <energy>  (7) 
-662.587984196356

>  <inter_energy>  (7) 
-709.0552139877141

>  <intra_energy>  (7) 
53.626276906830626

>  <rmsd>  (7) 
7.16863

>  <sdf_rank>  (7) 
0

$$$$

     RDKit          3D

 50 52  0  0  0  0  0  0  0  0999 V2000
  -20.7034   -1.6305   11.6726 C   0  0  0  0  0  0  0  0  0  0  0  0
  -19.9031   -0.9395   10.7558 C   0  0  0  0  0  0  0  0  0  0  0  0
  -16.4572    1.7006    7.7064 C   0  0  0  0  0  0  0  0  0  0  0  0
  -14.7329    3.2467    8.4749 C   0  0  0  0  0  0  0  0  0  0  0  0
  -15.6429    0.5945    8.0670 C   0  0  0  0  0  0  0  0  0  0  0  0
  -16.0967   -0.8452    7.8679 C   0  0  0  0  0  0  0  0  0  0  0  0
  -19.5528    5.0120    5.1566 C   0  0  0  0  0  0  0  0  0  0  0  0
  -19.6256    4.6049    6.6237 C   0  0  0  0  0  0  0  0  0  0  0  0
  -19.8638    3.0918    6.7681 C   0  0  0  0  0  0  0  0  0  0  0  0
  -18.8930    2.4539    7.7636 C   0  0  1  0  0  0  0  0  0  0  0  0
  -19.6348    1.6793    8.7940 N   0  0  0  0  0  0  0  0  0  0  0  0
  -19.0199    1.2692    9.9108 C   0  0  0  0  0  0  0  0  0  0  0  0
  -17.8382    1.5386   10.1394 O   0  0  0  0  0  0  0  0  0  0  0  0
  -19.7757    0.4607   10.9016 C   0  0  0  0  0  0  0  0  0  0  0  0
  -20.4023    1.1349   11.9626 C   0  0  0  0  0  0  0  0  0  0  0  0
  -21.2230    0.4256   12.8488 C   0  0  0  0  0  0  0  0  0  0  0  0
  -21.3362   -0.9662   12.7206 C   0  0  0  0  0  0  0  0  0  0  0  0
  -20.6142   -3.0098   11.4089 N   0  0  0  0  0  0  0  0  0  0  0  0
  -19.8500   -3.2627   10.3542 C   0  0  0  0  0  0  0  0  0  0  0  0
  -19.5995   -4.3799    9.9056 O   0  0  0  0  0  0  0  0  0  0  0  0
  -19.2881   -1.9557    9.8401 C   0  0  0  0  0  0  0  0  0  0  0  0
  -17.8707    1.4950    7.1297 C   0  0  1  0  0  0  0  0  0  0  0  0
  -17.8622    1.6920    5.7112 O   0  0  0  0  0  0  0  0  0  0  0  0
  -15.9992    3.0120    7.9261 C   0  0  0  0  0  0  0  0  0  0  0  0
  -13.9331    2.1612    8.8093 C   0  0  0  0  0  0  0  0  0  0  0  0
  -14.4178    0.8640    8.6798 C   0  0  0  0  0  0  0  0  0  0  0  0
  -13.4090   -0.4806    9.1188 Cl  0  0  0  0  0  0  0  0  0  0  0  0
  -14.3768    4.2745    8.6388 H   0  0  0  0  0  0  0  0  0  0  0  0
  -16.2468   -1.3213    8.8481 H   0  0  0  0  0  0  0  0  0  0  0  0
  -17.0422   -0.8572    7.3058 H   0  0  0  0  0  0  0  0  0  0  0  0
  -15.3290   -1.3973    7.3058 H   0  0  0  0  0  0  0  0  0  0  0  0
  -19.3596    6.0925    5.0850 H   0  0  0  0  0  0  0  0  0  0  0  0
  -18.7391    4.4605    4.6630 H   0  0  0  0  0  0  0  0  0  0  0  0
  -20.5073    4.7768    4.6630 H   0  0  0  0  0  0  0  0  0  0  0  0
  -18.6783    4.8681    7.1168 H   0  0  0  0  0  0  0  0  0  0  0  0
  -20.4666    5.1370    7.0923 H   0  0  0  0  0  0  0  0  0  0  0  0
  -20.8931    2.9257    7.1190 H   0  0  0  0  0  0  0  0  0  0  0  0
  -19.6997    2.6255    5.7854 H   0  0  0  0  0  0  0  0  0  0  0  0
  -18.3450    3.3040    8.1961 H   0  0  0  0  0  0  0  0  0  0  0  0
  -20.6297    1.4564    8.6474 H   0  0  0  0  0  0  0  0  0  0  0  0
  -20.2491    2.2159   12.0970 H   0  0  0  0  0  0  0  0  0  0  0  0
  -21.7744    0.9561   13.6391 H   0  0  0  0  0  0  0  0  0  0  0  0
  -21.9280   -1.5364   13.4518 H   0  0  0  0  0  0  0  0  0  0  0  0
  -21.0855   -3.7356   11.9674 H   0  0  0  0  0  0  0  0  0  0  0  0
  -19.5878   -1.7800    8.7965 H   0  0  0  0  0  0  0  0  0  0  0  0
  -18.1884   -1.9279    9.8385 H   0  0  0  0  0  0  0  0  0  0  0  0
  -18.1696    0.4629    7.3652 H   0  0  0  0  0  0  0  0  0  0  0  0
  -17.8205    2.6611    5.5129 H   0  0  0  0  0  0  0  0  0  0  0  0
  -16.6439    3.8637    7.6636 H   0  0  0  0  0  0  0  0  0  0  0  0
  -12.9105    2.3285    9.1785 H   0  0  0  0  0  0  0  0  0  0  0  0
  1  2  2  0
  1 17  1  0
  1 18  1  0
  2 14  1  0
  2 21  1  0
  3  5  2  0
  3 22  1  0
  3 24  1  0
  4 24  2  0
  4 25  1  0
  5  6  1  0
  5 26  1  0
  7  8  1  0
  8  9  1  0
 10  9  1  0
 10 11  1  0
 10 22  1  0
 11 12  1  0
 12 13  2  0
 12 14  1  0
 14 15  2  0
 15 16  1  0
 16 17  2  0
 18 19  1  0
 19 20  2  0
 19 21  1  0
 22 23  1  0
 25 26  2  0
 26 27  1  0
  4 28  1  0
  6 29  1  0
  6 30  1  0
  6 31  1  0
  7 32  1  0
  7 33  1  0
  7 34  1  0
  8 35  1  0
  8 36  1  0
  9 37  1  0
  9 38  1  0
 10 39  1  1
 11 40  1  0
 15 41  1  0
 16 42  1  0
 17 43  1  0
 18 44  1  0
 21 45  1  0
 21 46  1  0
 22 47  1  6
 23 48  1  0
 24 49  1  0
 25 50  1  0
M  END
>  <filename_input>  (8) 
7NPL_UKZ_docked.sdf

>  <pdb_id>  (8) 
7NPL_UKZ

>  <pose_rank>  (8) 
7

>  <num_atoms_heavy>  (8) 
27

>  <num_torsions>  (8) 
6

>  <pose>  (8) 
[-18.893018626598064, 2.453919743748783, 7.763607974838438, -1.0508356022145422, -2.82279753470443, -1.6951939213977756, 12.160300969079035, -1.2737027293082555, 1.3884010950678791, -5.377983311111642, 1.0973597598183649, -0.72260010285996]

>  <energy>  (8) 
-542.3531001723145

>  <inter_energy>  (8) 
-573.2861006079701

>  <intra_energy>  (8) 
44.076634840594934

>  <rmsd>  (8) 
7.57258

>  <sdf_rank>  (8) 
0

$$$$

     RDKit          3D

 50 52  0  0  0  0  0  0  0  0999 V2000
  -20.7499    1.5598   13.3450 C   0  0  0  0  0  0  0  0  0  0  0  0
  -20.2207    1.0927   12.1366 C   0  0  0  0  0  0  0  0  0  0  0  0
  -17.5651    3.0687    7.1893 C   0  0  0  0  0  0  0  0  0  0  0  0
  -19.4267    4.6463    7.1843 C   0  0  0  0  0  0  0  0  0  0  0  0
  -17.7705    2.8038    5.8094 C   0  0  0  0  0  0  0  0  0  0  0  0
  -16.9002    1.8242    5.0338 C   0  0  0  0  0  0  0  0  0  0  0  0
  -17.8194   -1.3773    8.9448 C   0  0  0  0  0  0  0  0  0  0  0  0
  -16.2983   -1.3621    9.0404 C   0  0  0  0  0  0  0  0  0  0  0  0
  -15.7393    0.0444    8.7639 C   0  0  0  0  0  0  0  0  0  0  0  0
  -16.8533    1.0836    8.6235 C   0  0  1  0  0  0  0  0  0  0  0  0
  -17.4170    1.4289    9.9558 N   0  0  0  0  0  0  0  0  0  0  0  0
  -18.7418    1.5102   10.1339 C   0  0  0  0  0  0  0  0  0  0  0  0
  -19.5368    1.2770    9.2202 O   0  0  0  0  0  0  0  0  0  0  0  0
  -19.2736    1.8990   11.4653 C   0  0  0  0  0  0  0  0  0  0  0  0
  -18.8444    3.1176   12.0166 C   0  0  0  0  0  0  0  0  0  0  0  0
  -19.4120    3.5780   13.2117 C   0  0  0  0  0  0  0  0  0  0  0  0
  -20.3365    2.7724   13.8917 C   0  0  0  0  0  0  0  0  0  0  0  0
  -21.5891    0.5703   13.8896 N   0  0  0  0  0  0  0  0  0  0  0  0
  -21.6819   -0.4898   13.0970 C   0  0  0  0  0  0  0  0  0  0  0  0
  -22.3448   -1.4990   13.3294 O   0  0  0  0  0  0  0  0  0  0  0  0
  -20.7860   -0.2757   11.8971 C   0  0  0  0  0  0  0  0  0  0  0  0
  -16.4133    2.4028    7.9658 C   0  0  1  0  0  0  0  0  0  0  0  0
  -15.3091    2.1436    7.0914 O   0  0  0  0  0  0  0  0  0  0  0  0
  -18.3858    3.9952    7.8570 C   0  0  0  0  0  0  0  0  0  0  0  0
  -19.6346    4.3700    5.8389 C   0  0  0  0  0  0  0  0  0  0  0  0
  -18.7689    3.5253    5.1524 C   0  0  0  0  0  0  0  0  0  0  0  0
  -19.0349    3.2047    3.4658 Cl  0  0  0  0  0  0  0  0  0  0  0  0
  -20.0698    5.3653    7.7129 H   0  0  0  0  0  0  0  0  0  0  0  0
  -16.3398    1.1933    5.7395 H   0  0  0  0  0  0  0  0  0  0  0  0
  -17.5375    1.1892    4.4008 H   0  0  0  0  0  0  0  0  0  0  0  0
  -16.1946    2.3822    4.4008 H   0  0  0  0  0  0  0  0  0  0  0  0
  -18.2504   -1.3817    9.9569 H   0  0  0  0  0  0  0  0  0  0  0  0
  -18.1619   -0.4826    8.4043 H   0  0  0  0  0  0  0  0  0  0  0  0
  -18.1438   -2.2788    8.4043 H   0  0  0  0  0  0  0  0  0  0  0  0
  -15.9988   -1.6751   10.0515 H   0  0  0  0  0  0  0  0  0  0  0  0
  -15.8941   -2.0529    8.2858 H   0  0  0  0  0  0  0  0  0  0  0  0
  -15.0834    0.3366    9.5972 H   0  0  0  0  0  0  0  0  0  0  0  0
  -15.1837    0.0100    7.8151 H   0  0  0  0  0  0  0  0  0  0  0  0
  -17.5957    0.6037    7.9688 H   0  0  0  0  0  0  0  0  0  0  0  0
  -16.7832    1.6070   10.7479 H   0  0  0  0  0  0  0  0  0  0  0  0
  -18.0656    3.7081   11.5119 H   0  0  0  0  0  0  0  0  0  0  0  0
  -19.1346    4.5636   13.6135 H   0  0  0  0  0  0  0  0  0  0  0  0
  -20.7375    3.0998   14.8623 H   0  0  0  0  0  0  0  0  0  0  0  0
  -22.0731    0.6583   14.7945 H   0  0  0  0  0  0  0  0  0  0  0  0
  -21.3642   -0.3062   10.9618 H   0  0  0  0  0  0  0  0  0  0  0  0
  -20.0130   -1.0509   11.7899 H   0  0  0  0  0  0  0  0  0  0  0  0
  -16.1102    3.1025    8.7586 H   0  0  0  0  0  0  0  0  0  0  0  0
  -14.4998    1.9536    7.6291 H   0  0  0  0  0  0  0  0  0  0  0  0
  -18.2076    4.2110    8.9208 H   0  0  0  0  0  0  0  0  0  0  0  0
  -20.4888    4.8219    5.3134 H   0  0  0  0  0  0  0  0  0  0  0  0
  1  2  2  0
  1 17  1  0
  1 18  1  0
  2 14  1  0
  2 21  1  0
  3  5  2  0
  3 22  1  0
  3 24  1  0
  4 24  2  0
  4 25  1  0
  5  6  1  0
  5 26  1  0
  7  8  1  0
  8  9  1  0
 10  9  1  0
 10 11  1  0
 10 22  1  0
 11 12  1  0
 12 13  2  0
 12 14  1  0
 14 15  2  0
 15 16  1  0
 16 17  2  0
 18 19  1  0
 19 20  2  0
 19 21  1  0
 22 23  1  0
 25 26  2  0
 26 27  1  0
  4 28  1  0
  6 29  1  0
  6 30  1  0
  6 31  1  0
  7 32  1  0
  7 33  1  0
  7 34  1  0
  8 35  1  0
  8 36  1  0
  9 37  1  0
  9 38  1  0
 10 39  1  6
 11 40  1  0
 15 41  1  0
 16 42  1  0
 17 43  1  0
 18 44  1  0
 21 45  1  0
 21 46  1  0
 22 47  1  1
 23 48  1  0
 24 49  1  0
 25 50  1  0
M  END
>  <filename_input>  (9) 
7NPL_UKZ_docked.sdf

>  <pdb_id>  (9) 
7NPL_UKZ

>  <pose_rank>  (9) 
8

>  <num_atoms_heavy>  (9) 
27

>  <num_torsions>  (9) 
6

>  <pose>  (9) 
[-16.853275998447092, 1.0835843948155524, 8.623453586487065, -2.444570878526753, 2.1705964190062303, -0.5724651773039978, -6.145448937689549, 1.342814279155279, -4.668393802428342, 3.2205061008062548, -6.085624515769719, -2.9045979173005554]

>  <energy>  (9) 
-531.3536621020095

>  <inter_energy>  (9) 
-592.9834512449629

>  <intra_energy>  (9) 
74.62901789785062

>  <rmsd>  (9) 
7.54393

>  <sdf_rank>  (9) 
0

$$$$

     RDKit          3D

 50 52  0  0  0  0  0  0  0  0999 V2000
  -18.9647    3.8438    3.9544 C   0  0  0  0  0  0  0  0  0  0  0  0
  -18.6039    3.4595    5.2507 C   0  0  0  0  0  0  0  0  0  0  0  0
  -19.1358    0.9769   10.9427 C   0  0  0  0  0  0  0  0  0  0  0  0
  -20.9820    0.7703   12.5249 C   0  0  0  0  0  0  0  0  0  0  0  0
  -18.6458   -0.2984   11.3297 C   0  0  0  0  0  0  0  0  0  0  0  0
  -17.3968   -0.9094   10.7090 C   0  0  0  0  0  0  0  0  0  0  0  0
  -20.0481    0.1977    7.6392 C   0  0  0  0  0  0  0  0  0  0  0  0
  -19.4980   -0.8953    8.5482 C   0  0  0  0  0  0  0  0  0  0  0  0
  -18.0444   -0.5982    8.9557 C   0  0  0  0  0  0  0  0  0  0  0  0
  -17.7094    0.8892    8.8304 C   0  0  1  0  0  0  0  0  0  0  0  0
  -18.0449    1.3878    7.4699 N   0  0  0  0  0  0  0  0  0  0  0  0
  -17.1352    2.0511    6.7447 C   0  0  0  0  0  0  0  0  0  0  0  0
  -15.9900    2.2470    7.1586 O   0  0  0  0  0  0  0  0  0  0  0  0
  -17.5132    2.5741    5.4067 C   0  0  0  0  0  0  0  0  0  0  0  0
  -16.7851    2.1241    4.2929 C   0  0  0  0  0  0  0  0  0  0  0  0
  -17.1852    2.4983    3.0036 C   0  0  0  0  0  0  0  0  0  0  0  0
  -18.2535    3.3925    2.8449 C   0  0  0  0  0  0  0  0  0  0  0  0
  -19.9990    4.7947    4.0304 N   0  0  0  0  0  0  0  0  0  0  0  0
  -20.3705    5.0214    5.2838 C   0  0  0  0  0  0  0  0  0  0  0  0
  -21.2490    5.8059    5.6372 O   0  0  0  0  0  0  0  0  0  0  0  0
  -19.4898    4.2053    6.2039 C   0  0  0  0  0  0  0  0  0  0  0  0
  -18.4444    1.7936    9.8345 C   0  0  1  0  0  0  0  0  0  0  0  0
  -19.4050    2.5893    9.1307 O   0  0  0  0  0  0  0  0  0  0  0  0
  -20.3038    1.4904   11.5342 C   0  0  0  0  0  0  0  0  0  0  0  0
  -20.4882   -0.4689   12.9125 C   0  0  0  0  0  0  0  0  0  0  0  0
  -19.3876   -1.0210   12.2659 C   0  0  0  0  0  0  0  0  0  0  0  0
  -18.7943   -2.5795   12.7533 Cl  0  0  0  0  0  0  0  0  0  0  0  0
  -21.8915    1.1794   12.9890 H   0  0  0  0  0  0  0  0  0  0  0  0
  -16.7163   -1.2423   11.5065 H   0  0  0  0  0  0  0  0  0  0  0  0
  -17.6806   -1.7705   10.0860 H   0  0  0  0  0  0  0  0  0  0  0  0
  -16.8913   -0.1569   10.0860 H   0  0  0  0  0  0  0  0  0  0  0  0
  -20.4584    1.0130    8.2531 H   0  0  0  0  0  0  0  0  0  0  0  0
  -19.2391    0.5881    7.0043 H   0  0  0  0  0  0  0  0  0  0  0  0
  -20.8436   -0.2194    7.0043 H   0  0  0  0  0  0  0  0  0  0  0  0
  -20.1195   -0.9559    9.4537 H   0  0  0  0  0  0  0  0  0  0  0  0
  -19.5189   -1.8487    7.9999 H   0  0  0  0  0  0  0  0  0  0  0  0
  -17.8973   -0.9091   10.0005 H   0  0  0  0  0  0  0  0  0  0  0  0
  -17.3800   -1.1554    8.2789 H   0  0  0  0  0  0  0  0  0  0  0  0
  -16.6313    0.9467    9.0409 H   0  0  0  0  0  0  0  0  0  0  0  0
  -18.9846    1.2216    7.0823 H   0  0  0  0  0  0  0  0  0  0  0  0
  -15.9042    1.4803    4.4326 H   0  0  0  0  0  0  0  0  0  0  0  0
  -16.6653    2.0937    2.1226 H   0  0  0  0  0  0  0  0  0  0  0  0
  -18.5314    3.7396    1.8388 H   0  0  0  0  0  0  0  0  0  0  0  0
  -20.4173    5.2590    3.2116 H   0  0  0  0  0  0  0  0  0  0  0  0
  -20.0890    3.5114    6.8117 H   0  0  0  0  0  0  0  0  0  0  0  0
  -18.9303    4.8193    6.9249 H   0  0  0  0  0  0  0  0  0  0  0  0
  -17.7039    2.4427   10.3247 H   0  0  0  0  0  0  0  0  0  0  0  0
  -19.9796    3.0652    9.7815 H   0  0  0  0  0  0  0  0  0  0  0  0
  -20.6893    2.4698   11.2145 H   0  0  0  0  0  0  0  0  0  0  0  0
  -20.9704   -1.0166   13.7356 H   0  0  0  0  0  0  0  0  0  0  0  0
  1  2  2  0
  1 17  1  0
  1 18  1  0
  2 14  1  0
  2 21  1  0
  3  5  2  0
  3 22  1  0
  3 24  1  0
  4 24  2  0
  4 25  1  0
  5  6  1  0
  5 26  1  0
  7  8  1  0
  8  9  1  0
 10  9  1  0
 10 11  1  0
 10 22  1  0
 11 12  1  0
 12 13  2  0
 12 14  1  0
 14 15  2  0
 15 16  1  0
 16 17  2  0
 18 19  1  0
 19 20  2  0
 19 21  1  0
 22 23  1  0
 25 26  2  0
 26 27  1  0
  4 28  1  0
  6 29  1  0
  6 30  1  0
  6 31  1  0
  7 32  1  0
  7 33  1  0
  7 34  1  0
  8 35  1  0
  8 36  1  0
  9 37  1  0
  9 38  1  0
 10 39  1  1
 11 40  1  0
 15 41  1  0
 16 42  1  0
 17 43  1  0
 18 44  1  0
 21 45  1  0
 21 46  1  0
 22 47  1  1
 23 48  1  0
 24 49  1  0
 25 50  1  0
M  END
>  <filename_input>  (10) 
7NPL_UKZ_docked.sdf

>  <pdb_id>  (10) 
7NPL_UKZ

>  <pose_rank>  (10) 
9

>  <num_atoms_heavy>  (10) 
27

>  <num_torsions>  (10) 
6

>  <pose>  (10) 
[-17.709398056150413, 0.8892415359624201, 8.830365810657941, 0.07173707617095691, -2.427606875497945, 4.342937815375936, 0.2615145349338577, 4.536538090805748, -0.7907079278124066, -0.9933677218695274, -2.0467386254152307, -2.629551524894979]

>  <energy>  (10) 
-390.41634480556036

>  <inter_energy>  (10) 
-736.7233732459825

>  <intra_energy>  (10) 
355.2243776492177

>  <rmsd>  (10) 
2.42832

>  <sdf_rank>  (10) 
0

$$$$

     RDKit          3D

 50 52  0  0  0  0  0  0  0  0999 V2000
  -20.3846   -0.9610   12.5456 C   0  0  0  0  0  0  0  0  0  0  0  0
  -19.5213   -0.4608   11.5643 C   0  0  0  0  0  0  0  0  0  0  0  0
  -18.9458    3.6818    6.1046 C   0  0  0  0  0  0  0  0  0  0  0  0
  -18.6985    3.4177    3.6914 C   0  0  0  0  0  0  0  0  0  0  0  0
  -19.7902    4.8062    5.9069 C   0  0  0  0  0  0  0  0  0  0  0  0
  -20.3997    5.5766    7.0704 C   0  0  0  0  0  0  0  0  0  0  0  0
  -14.7076    2.0804    7.9484 C   0  0  0  0  0  0  0  0  0  0  0  0
  -16.0281    2.2037    7.1971 C   0  0  0  0  0  0  0  0  0  0  0  0
  -17.0351    1.1397    7.6673 C   0  0  0  0  0  0  0  0  0  0  0  0
  -18.4800    1.6259    7.5400 C   0  0  1  0  0  0  0  0  0  0  0  0
  -19.3033    1.1200    8.6706 N   0  0  0  0  0  0  0  0  0  0  0  0
  -18.9564    1.3844    9.9368 C   0  0  0  0  0  0  0  0  0  0  0  0
  -17.9704    2.0726   10.2112 O   0  0  0  0  0  0  0  0  0  0  0  0
  -19.7746    0.8294   11.0455 C   0  0  0  0  0  0  0  0  0  0  0  0
  -20.8400    1.6053   11.5312 C   0  0  0  0  0  0  0  0  0  0  0  0
  -21.7083    1.0702   12.4914 C   0  0  0  0  0  0  0  0  0  0  0  0
  -21.4494   -0.2009   13.0238 C   0  0  0  0  0  0  0  0  0  0  0  0
  -19.8998   -2.2049   12.9901 N   0  0  0  0  0  0  0  0  0  0  0  0
  -18.8074   -2.5729   12.3331 C   0  0  0  0  0  0  0  0  0  0  0  0
  -18.1771   -3.6118   12.5212 O   0  0  0  0  0  0  0  0  0  0  0  0
  -18.4326   -1.4729   11.3647 C   0  0  0  0  0  0  0  0  0  0  0  0
  -18.6368    3.1561    7.5192 C   0  0  1  0  0  0  0  0  0  0  0  0
  -17.4368    3.7557    8.0211 O   0  0  0  0  0  0  0  0  0  0  0  0
  -18.4209    2.9933    4.9963 C   0  0  0  0  0  0  0  0  0  0  0  0
  -19.5106    4.5291    3.5041 C   0  0  0  0  0  0  0  0  0  0  0  0
  -20.1061    5.1567    4.5931 C   0  0  0  0  0  0  0  0  0  0  0  0
  -21.1322    6.5352    4.3379 Cl  0  0  0  0  0  0  0  0  0  0  0  0
  -18.2802    2.8796    2.8280 H   0  0  0  0  0  0  0  0  0  0  0  0
  -20.0548    5.1407    8.0196 H   0  0  0  0  0  0  0  0  0  0  0  0
  -20.0879    6.6301    7.0160 H   0  0  0  0  0  0  0  0  0  0  0  0
  -21.4967    5.5156    7.0160 H   0  0  0  0  0  0  0  0  0  0  0  0
  -14.8989    2.0982    9.0315 H   0  0  0  0  0  0  0  0  0  0  0  0
  -14.2190    1.1327    7.6779 H   0  0  0  0  0  0  0  0  0  0  0  0
  -14.0520    2.9212    7.6779 H   0  0  0  0  0  0  0  0  0  0  0  0
  -16.4515    3.2030    7.3766 H   0  0  0  0  0  0  0  0  0  0  0  0
  -15.8352    2.0520    6.1249 H   0  0  0  0  0  0  0  0  0  0  0  0
  -16.9089    0.2351    7.0542 H   0  0  0  0  0  0  0  0  0  0  0  0
  -16.8384    0.9298    8.7290 H   0  0  0  0  0  0  0  0  0  0  0  0
  -18.8178    1.2323    6.5700 H   0  0  0  0  0  0  0  0  0  0  0  0
  -20.1472    0.5616    8.4781 H   0  0  0  0  0  0  0  0  0  0  0  0
  -20.9919    2.6292   11.1591 H   0  0  0  0  0  0  0  0  0  0  0  0
  -22.5864    1.6426   12.8251 H   0  0  0  0  0  0  0  0  0  0  0  0
  -22.0907   -0.6000   13.8235 H   0  0  0  0  0  0  0  0  0  0  0  0
  -20.3400   -2.7627   13.7359 H   0  0  0  0  0  0  0  0  0  0  0  0
  -18.4232   -1.8441   10.3292 H   0  0  0  0  0  0  0  0  0  0  0  0
  -17.4257   -1.0661   11.5399 H   0  0  0  0  0  0  0  0  0  0  0  0
  -19.4897    3.4270    8.1588 H   0  0  0  0  0  0  0  0  0  0  0  0
  -17.4530    3.7476    9.0109 H   0  0  0  0  0  0  0  0  0  0  0  0
  -17.7844    2.1106    5.1566 H   0  0  0  0  0  0  0  0  0  0  0  0
  -19.6837    4.9151    2.4886 H   0  0  0  0  0  0  0  0  0  0  0  0
  1  2  2  0
  1 17  1  0
  1 18  1  0
  2 14  1  0
  2 21  1  0
  3  5  2  0
  3 22  1  0
  3 24  1  0
  4 24  2  0
  4 25  1  0
  5  6  1  0
  5 26  1  0
  7  8  1  0
  8  9  1  0
 10  9  1  0
 10 11  1  0
 10 22  1  0
 11 12  1  0
 12 13  2  0
 12 14  1  0
 14 15  2  0
 15 16  1  0
 16 17  2  0
 18 19  1  0
 19 20  2  0
 19 21  1  0
 22 23  1  0
 25 26  2  0
 26 27  1  0
  4 28  1  0
  6 29  1  0
  6 30  1  0
  6 31  1  0
  7 32  1  0
  7 33  1  0
  7 34  1  0
  8 35  1  0
  8 36  1  0
  9 37  1  0
  9 38  1  0
 10 39  1  6
 11 40  1  0
 15 41  1  0
 16 42  1  0
 17 43  1  0
 18 44  1  0
 21 45  1  0
 21 46  1  0
 22 47  1  1
 23 48  1  0
 24 49  1  0
 25 50  1  0
M  END
>  <filename_input>  (11) 
7NPL_UKZ_docked.sdf

>  <pdb_id>  (11) 
7NPL_UKZ

>  <pose_rank>  (11) 
10

>  <num_atoms_heavy>  (11) 
27

>  <num_torsions>  (11) 
6

>  <pose>  (11) 
[-18.480005396998756, 1.6258894054372628, 7.5399902397373495, 2.9814781172110907, -1.7607645320721854, 0.4837007097346158, 3.4897692995476657, -1.2236341699846838, 0.8349130215919847, 1.081164695681738, 2.657477184659849, -0.39647495876532474]

>  <energy>  (11) 
-556.224114662157

>  <inter_energy>  (11) 
-656.3883372309443

>  <intra_energy>  (11) 
110.48366977445687

>  <rmsd>  (11) 
7.96783

>  <sdf_rank>  (11) 
0

$$$$

     RDKit          3D

 50 52  0  0  0  0  0  0  0  0999 V2000
  -14.1341    1.0783    9.8196 C   0  0  0  0  0  0  0  0  0  0  0  0
  -15.4673    0.8888    9.4385 C   0  0  0  0  0  0  0  0  0  0  0  0
  -20.2460    0.0809   10.9242 C   0  0  0  0  0  0  0  0  0  0  0  0
  -19.4191   -1.7822   12.2656 C   0  0  0  0  0  0  0  0  0  0  0  0
  -20.3858    0.8756   12.0927 C   0  0  0  0  0  0  0  0  0  0  0  0
  -20.8976    2.3088   12.0418 C   0  0  0  0  0  0  0  0  0  0  0  0
  -19.1768    2.2997    5.2969 C   0  0  0  0  0  0  0  0  0  0  0  0
  -18.8421    1.6679    6.6431 C   0  0  0  0  0  0  0  0  0  0  0  0
  -19.8947    0.6183    7.0402 C   0  0  0  0  0  0  0  0  0  0  0  0
  -19.6476    0.0657    8.4451 C   0  0  1  0  0  0  0  0  0  0  0  0
  -18.2483    0.3321    8.8730 N   0  0  0  0  0  0  0  0  0  0  0  0
  -17.4308   -0.6788    9.1946 C   0  0  0  0  0  0  0  0  0  0  0  0
  -17.7918   -1.8559    9.1221 O   0  0  0  0  0  0  0  0  0  0  0  0
  -16.0522   -0.3789    9.6594 C   0  0  0  0  0  0  0  0  0  0  0  0
  -15.3276   -1.4085   10.2821 C   0  0  0  0  0  0  0  0  0  0  0  0
  -13.9852   -1.2039   10.6261 C   0  0  0  0  0  0  0  0  0  0  0  0
  -13.4066    0.0579   10.4279 C   0  0  0  0  0  0  0  0  0  0  0  0
  -13.7839    2.4241    9.6049 N   0  0  0  0  0  0  0  0  0  0  0  0
  -14.7807    3.1139    9.0655 C   0  0  0  0  0  0  0  0  0  0  0  0
  -14.7478    4.3087    8.7765 O   0  0  0  0  0  0  0  0  0  0  0  0
  -15.9803    2.2026    8.9285 C   0  0  0  0  0  0  0  0  0  0  0  0
  -20.5685    0.6506    9.5298 C   0  0  1  0  0  0  0  0  0  0  0  0
  -21.9309    0.3762    9.1838 O   0  0  0  0  0  0  0  0  0  0  0  0
  -19.7526   -1.2324   11.0220 C   0  0  0  0  0  0  0  0  0  0  0  0
  -19.5748   -1.0065   13.4075 C   0  0  0  0  0  0  0  0  0  0  0  0
  -19.9742    0.3218   13.3063 C   0  0  0  0  0  0  0  0  0  0  0  0
  -20.1473    1.2814   14.7442 Cl  0  0  0  0  0  0  0  0  0  0  0  0
  -19.0397   -2.8122   12.3373 H   0  0  0  0  0  0  0  0  0  0  0  0
  -21.0325    2.6865   13.0661 H   0  0  0  0  0  0  0  0  0  0  0  0
  -20.1692    2.9397   11.5113 H   0  0  0  0  0  0  0  0  0  0  0  0
  -21.8609    2.3356   11.5113 H   0  0  0  0  0  0  0  0  0  0  0  0
  -19.6861    3.2610    5.4596 H   0  0  0  0  0  0  0  0  0  0  0  0
  -18.2493    2.4675    4.7299 H   0  0  0  0  0  0  0  0  0  0  0  0
  -19.8366    1.6265    4.7299 H   0  0  0  0  0  0  0  0  0  0  0  0
  -17.8575    1.1818    6.5768 H   0  0  0  0  0  0  0  0  0  0  0  0
  -18.8324    2.4590    7.4073 H   0  0  0  0  0  0  0  0  0  0  0  0
  -20.8904    1.0849    7.0116 H   0  0  0  0  0  0  0  0  0  0  0  0
  -19.8278   -0.2177    6.3284 H   0  0  0  0  0  0  0  0  0  0  0  0
  -19.8588   -1.0103    8.3582 H   0  0  0  0  0  0  0  0  0  0  0  0
  -17.9052    1.3020    8.9224 H   0  0  0  0  0  0  0  0  0  0  0  0
  -15.8124   -2.3718   10.4989 H   0  0  0  0  0  0  0  0  0  0  0  0
  -13.3895   -2.0266   11.0485 H   0  0  0  0  0  0  0  0  0  0  0  0
  -12.3727    0.2430   10.7544 H   0  0  0  0  0  0  0  0  0  0  0  0
  -12.8645    2.8254    9.8384 H   0  0  0  0  0  0  0  0  0  0  0  0
  -16.2976    2.1221    7.8783 H   0  0  0  0  0  0  0  0  0  0  0  0
  -16.8636    2.5643    9.4752 H   0  0  0  0  0  0  0  0  0  0  0  0
  -20.4030    1.7370    9.5776 H   0  0  0  0  0  0  0  0  0  0  0  0
  -22.4659    0.2685   10.0098 H   0  0  0  0  0  0  0  0  0  0  0  0
  -19.6272   -1.8350   10.1104 H   0  0  0  0  0  0  0  0  0  0  0  0
  -19.3810   -1.4454   14.3973 H   0  0  0  0  0  0  0  0  0  0  0  0
  1  2  2  0
  1 17  1  0
  1 18  1  0
  2 14  1  0
  2 21  1  0
  3  5  2  0
  3 22  1  0
  3 24  1  0
  4 24  2  0
  4 25  1  0
  5  6  1  0
  5 26  1  0
  7  8  1  0
  8  9  1  0
 10  9  1  0
 10 11  1  0
 10 22  1  0
 11 12  1  0
 12 13  2  0
 12 14  1  0
 14 15  2  0
 15 16  1  0
 16 17  2  0
 18 19  1  0
 19 20  2  0
 19 21  1  0
 22 23  1  0
 25 26  2  0
 26 27  1  0
  4 28  1  0
  6 29  1  0
  6 30  1  0
  6 31  1  0
  7 32  1  0
  7 33  1  0
  7 34  1  0
  8 35  1  0
  8 36  1  0
  9 37  1  0
  9 38  1  0
 10 39  1  6
 11 40  1  0
 15 41  1  0
 16 42  1  0
 17 43  1  0
 18 44  1  0
 21 45  1  0
 21 46  1  0
 22 47  1  1
 23 48  1  0
 24 49  1  0
 25 50  1  0
M  END
>  <filename_input>  (12) 
7NPL_UKZ_docked.sdf

>  <pdb_id>  (12) 
7NPL_UKZ

>  <pose_rank>  (12) 
11

>  <num_atoms_heavy>  (12) 
27

>  <num_torsions>  (12) 
6

>  <pose>  (12) 
[-19.64758553556145, 0.06571075871286874, 8.445124881515646, 2.2181894158184483, 0.19902021434634362, -1.5155329676695835, 0.3861412621796664, 3.245522331725569, 2.1668906697619312, 1.0851377085182146, -1.44702841664987, 0.21644371827026138]

>  <energy>  (12) 
-534.9627128105574

>  <inter_energy>  (12) 
-598.2929301579103

>  <intra_energy>  (12) 
73.43441433815866

>  <rmsd>  (12) 
5.11609

>  <sdf_rank>  (12) 
0

$$$$

     RDKit          3D

 50 52  0  0  0  0  0  0  0  0999 V2000
  -20.1157   -0.3964   12.7215 C   0  0  0  0  0  0  0  0  0  0  0  0
  -19.4016    0.0960   11.6233 C   0  0  0  0  0  0  0  0  0  0  0  0
  -19.3147    3.5636    5.6181 C   0  0  0  0  0  0  0  0  0  0  0  0
  -19.5233    5.1013    3.7349 C   0  0  0  0  0  0  0  0  0  0  0  0
  -18.7666    2.5715    4.7626 C   0  0  0  0  0  0  0  0  0  0  0  0
  -18.3439    1.2018    5.2763 C   0  0  0  0  0  0  0  0  0  0  0  0
  -15.0388    1.1616    8.4362 C   0  0  0  0  0  0  0  0  0  0  0  0
  -16.3281    1.0992    7.6254 C   0  0  0  0  0  0  0  0  0  0  0  0
  -17.1889    2.3535    7.8551 C   0  0  0  0  0  0  0  0  0  0  0  0
  -18.6718    2.0836    7.5930 C   0  0  1  0  0  0  0  0  0  0  0  0
  -19.3351    1.5721    8.8220 N   0  0  0  0  0  0  0  0  0  0  0  0
  -18.9531    2.0029   10.0311 C   0  0  0  0  0  0  0  0  0  0  0  0
  -18.0681    2.8506   10.1703 O   0  0  0  0  0  0  0  0  0  0  0  0
  -19.6053    1.4417   11.2421 C   0  0  0  0  0  0  0  0  0  0  0  0
  -20.4705    2.2744   11.9709 C   0  0  0  0  0  0  0  0  0  0  0  0
  -21.1972    1.7495   13.0473 C   0  0  0  0  0  0  0  0  0  0  0  0
  -20.9833    0.4212   13.4420 C   0  0  0  0  0  0  0  0  0  0  0  0
  -19.6947   -1.7123   12.9881 N   0  0  0  0  0  0  0  0  0  0  0  0
  -18.7909   -2.1291   12.1107 C   0  0  0  0  0  0  0  0  0  0  0  0
  -18.2533   -3.2351   12.1102 O   0  0  0  0  0  0  0  0  0  0  0  0
  -18.4860   -0.9961   11.1559 C   0  0  0  0  0  0  0  0  0  0  0  0
  -19.4702    3.3144    7.1302 C   0  0  1  0  0  0  0  0  0  0  0  0
  -19.0334    4.4602    7.8702 O   0  0  0  0  0  0  0  0  0  0  0  0
  -19.6741    4.8199    5.0980 C   0  0  0  0  0  0  0  0  0  0  0  0
  -19.0033    4.1209    2.8992 C   0  0  0  0  0  0  0  0  0  0  0  0
  -18.5610    2.9113    3.4242 C   0  0  0  0  0  0  0  0  0  0  0  0
  -17.8981    1.7036    2.3658 Cl  0  0  0  0  0  0  0  0  0  0  0  0
  -19.8120    6.0833    3.3319 H   0  0  0  0  0  0  0  0  0  0  0  0
  -18.3453    1.2063    6.3763 H   0  0  0  0  0  0  0  0  0  0  0  0
  -19.0488    0.4400    4.9118 H   0  0  0  0  0  0  0  0  0  0  0  0
  -17.3323    0.9697    4.9118 H   0  0  0  0  0  0  0  0  0  0  0  0
  -15.2796    1.1500    9.5094 H   0  0  0  0  0  0  0  0  0  0  0  0
  -14.4097    0.2929    8.1921 H   0  0  0  0  0  0  0  0  0  0  0  0
  -14.4966    2.0871    8.1921 H   0  0  0  0  0  0  0  0  0  0  0  0
  -16.0772    1.0265    6.5569 H   0  0  0  0  0  0  0  0  0  0  0  0
  -16.9016    0.2181    7.9490 H   0  0  0  0  0  0  0  0  0  0  0  0
  -17.0662    2.6830    8.8974 H   0  0  0  0  0  0  0  0  0  0  0  0
  -16.8542    3.1301    7.1517 H   0  0  0  0  0  0  0  0  0  0  0  0
  -18.6767    1.3443    6.7786 H   0  0  0  0  0  0  0  0  0  0  0  0
  -20.0946    0.8808    8.7424 H   0  0  0  0  0  0  0  0  0  0  0  0
  -20.5769    3.3345   11.6975 H   0  0  0  0  0  0  0  0  0  0  0  0
  -21.9300    2.3746   13.5788 H   0  0  0  0  0  0  0  0  0  0  0  0
  -21.5036    0.0225   14.3254 H   0  0  0  0  0  0  0  0  0  0  0  0
  -20.0459   -2.2833   13.7701 H   0  0  0  0  0  0  0  0  0  0  0  0
  -18.7105   -1.2827   10.1179 H   0  0  0  0  0  0  0  0  0  0  0  0
  -17.4259   -0.7024   11.1567 H   0  0  0  0  0  0  0  0  0  0  0  0
  -20.5376    3.1278    7.3196 H   0  0  0  0  0  0  0  0  0  0  0  0
  -19.1045    4.2735    8.8399 H   0  0  0  0  0  0  0  0  0  0  0  0
  -20.0786    5.5907    5.7704 H   0  0  0  0  0  0  0  0  0  0  0  0
  -18.9410    4.3023    1.8161 H   0  0  0  0  0  0  0  0  0  0  0  0
  1  2  2  0
  1 17  1  0
  1 18  1  0
  2 14  1  0
  2 21  1  0
  3  5  2  0
  3 22  1  0
  3 24  1  0
  4 24  2  0
  4 25  1  0
  5  6  1  0
  5 26  1  0
  7  8  1  0
  8  9  1  0
 10  9  1  0
 10 11  1  0
 10 22  1  0
 11 12  1  0
 12 13  2  0
 12 14  1  0
 14 15  2  0
 15 16  1  0
 16 17  2  0
 18 19  1  0
 19 20  2  0
 19 21  1  0
 22 23  1  0
 25 26  2  0
 26 27  1  0
  4 28  1  0
  6 29  1  0
  6 30  1  0
  6 31  1  0
  7 32  1  0
  7 33  1  0
  7 34  1  0
  8 35  1  0
  8 36  1  0
  9 37  1  0
  9 38  1  0
 10 39  1  6
 11 40  1  0
 15 41  1  0
 16 42  1  0
 17 43  1  0
 18 44  1  0
 21 45  1  0
 21 46  1  0
 22 47  1  6
 23 48  1  0
 24 49  1  0
 25 50  1  0
M  END
>  <filename_input>  (13) 
7NPL_UKZ_docked.sdf

>  <pdb_id>  (13) 
7NPL_UKZ

>  <pose_rank>  (13) 
12

>  <num_atoms_heavy>  (13) 
27

>  <num_torsions>  (13) 
6

>  <pose>  (13) 
[-18.67175316412119, 2.083628854022545, 7.593040196164117, 3.1600728865941083, -0.8687383910892992, 0.6355750209604143, 15.659094335338455, 4.736466470010317, 6.721085471893436, -7.503767291683725, -5.876941507191234, 0.5627729145128295]

>  <energy>  (13) 
-532.6187878347444

>  <inter_energy>  (13) 
-656.0979680094359

>  <intra_energy>  (13) 
131.30352447981147

>  <rmsd>  (13) 
8.09975

>  <sdf_rank>  (13) 
0

$$$$

     RDKit          3D

 50 52  0  0  0  0  0  0  0  0999 V2000
  -17.2212    2.5452    6.5033 C   0  0  0  0  0  0  0  0  0  0  0  0
  -17.9209    2.0236    7.5972 C   0  0  0  0  0  0  0  0  0  0  0  0
  -19.5619   -0.0321   12.0413 C   0  0  0  0  0  0  0  0  0  0  0  0
  -18.4700   -1.9618   11.0224 C   0  0  0  0  0  0  0  0  0  0  0  0
  -20.4807   -0.8874   12.7051 C   0  0  0  0  0  0  0  0  0  0  0  0
  -21.5725   -0.3501   13.6204 C   0  0  0  0  0  0  0  0  0  0  0  0
  -23.0175    2.8849   10.1148 C   0  0  0  0  0  0  0  0  0  0  0  0
  -22.8446    3.4028   11.5379 C   0  0  0  0  0  0  0  0  0  0  0  0
  -21.3697    3.3486   11.9724 C   0  0  0  0  0  0  0  0  0  0  0  0
  -20.6291    2.1730   11.3321 C   0  0  1  0  0  0  0  0  0  0  0  0
  -19.8996    2.6158   10.1140 N   0  0  0  0  0  0  0  0  0  0  0  0
  -20.0474    1.9595    8.9560 C   0  0  0  0  0  0  0  0  0  0  0  0
  -20.8060    0.9930    8.8479 O   0  0  0  0  0  0  0  0  0  0  0  0
  -19.2728    2.3995    7.7673 C   0  0  0  0  0  0  0  0  0  0  0  0
  -19.9089    3.2416    6.8403 C   0  0  0  0  0  0  0  0  0  0  0  0
  -19.1785    3.7754    5.7708 C   0  0  0  0  0  0  0  0  0  0  0  0
  -17.8432    3.3894    5.5864 C   0  0  0  0  0  0  0  0  0  0  0  0
  -15.9367    1.9719    6.4664 N   0  0  0  0  0  0  0  0  0  0  0  0
  -15.7334    1.1493    7.4874 C   0  0  0  0  0  0  0  0  0  0  0  0
  -14.7018    0.5140    7.6979 O   0  0  0  0  0  0  0  0  0  0  0  0
  -17.0022    1.0745    8.3077 C   0  0  0  0  0  0  0  0  0  0  0  0
  -19.5992    1.4936   12.2509 C   0  0  1  0  0  0  0  0  0  0  0  0
  -19.9146    1.8004   13.6138 O   0  0  0  0  0  0  0  0  0  0  0  0
  -18.5603   -0.5787   11.2192 C   0  0  0  0  0  0  0  0  0  0  0  0
  -19.3826   -2.7929   11.6599 C   0  0  0  0  0  0  0  0  0  0  0  0
  -20.3157   -2.2645   12.5457 C   0  0  0  0  0  0  0  0  0  0  0  0
  -21.4381   -3.3214   13.3466 Cl  0  0  0  0  0  0  0  0  0  0  0  0
  -17.6888   -2.3839   10.3732 H   0  0  0  0  0  0  0  0  0  0  0  0
  -21.2761   -0.4960   14.6696 H   0  0  0  0  0  0  0  0  0  0  0  0
  -21.7185    0.7228   13.4264 H   0  0  0  0  0  0  0  0  0  0  0  0
  -22.5117   -0.8889   13.4264 H   0  0  0  0  0  0  0  0  0  0  0  0
  -23.3658    1.8419   10.1440 H   0  0  0  0  0  0  0  0  0  0  0  0
  -23.7577    3.5039    9.5867 H   0  0  0  0  0  0  0  0  0  0  0  0
  -22.0539    2.9351    9.5867 H   0  0  0  0  0  0  0  0  0  0  0  0
  -23.1952    4.4443   11.5862 H   0  0  0  0  0  0  0  0  0  0  0  0
  -23.4317    2.7651   12.2152 H   0  0  0  0  0  0  0  0  0  0  0  0
  -20.8762    4.2851   11.6733 H   0  0  0  0  0  0  0  0  0  0  0  0
  -21.3405    3.2160   13.0640 H   0  0  0  0  0  0  0  0  0  0  0  0
  -21.4192    1.4430   11.1021 H   0  0  0  0  0  0  0  0  0  0  0  0
  -19.2756    3.4339   10.1615 H   0  0  0  0  0  0  0  0  0  0  0  0
  -20.9765    3.4809    6.9538 H   0  0  0  0  0  0  0  0  0  0  0  0
  -19.6488    4.4918    5.0812 H   0  0  0  0  0  0  0  0  0  0  0  0
  -17.2837    3.7552    4.7128 H   0  0  0  0  0  0  0  0  0  0  0  0
  -15.2385    2.1672    5.7348 H   0  0  0  0  0  0  0  0  0  0  0  0
  -16.8230    1.3988    9.3434 H   0  0  0  0  0  0  0  0  0  0  0  0
  -17.4083    0.0551    8.3852 H   0  0  0  0  0  0  0  0  0  0  0  0
  -18.6004    1.8796   11.9990 H   0  0  0  0  0  0  0  0  0  0  0  0
  -19.3506    1.2518   14.2146 H   0  0  0  0  0  0  0  0  0  0  0  0
  -17.8391    0.0886   10.7247 H   0  0  0  0  0  0  0  0  0  0  0  0
  -19.3671   -3.8750   11.4631 H   0  0  0  0  0  0  0  0  0  0  0  0
  1  2  2  0
  1 17  1  0
  1 18  1  0
  2 14  1  0
  2 21  1  0
  3  5  2  0
  3 22  1  0
  3 24  1  0
  4 24  2  0
  4 25  1  0
  5  6  1  0
  5 26  1  0
  7  8  1  0
  8  9  1  0
 10  9  1  0
 10 11  1  0
 10 22  1  0
 11 12  1  0
 12 13  2  0
 12 14  1  0
 14 15  2  0
 15 16  1  0
 16 17  2  0
 18 19  1  0
 19 20  2  0
 19 21  1  0
 22 23  1  0
 25 26  2  0
 26 27  1  0
  4 28  1  0
  6 29  1  0
  6 30  1  0
  6 31  1  0
  7 32  1  0
  7 33  1  0
  7 34  1  0
  8 35  1  0
  8 36  1  0
  9 37  1  0
  9 38  1  0
 10 39  1  6
 11 40  1  0
 15 41  1  0
 16 42  1  0
 17 43  1  0
 18 44  1  0
 21 45  1  0
 21 46  1  0
 22 47  1  6
 23 48  1  0
 24 49  1  0
 25 50  1  0
M  END
>  <filename_input>  (14) 
7NPL_UKZ_docked.sdf

>  <pdb_id>  (14) 
7NPL_UKZ

>  <pose_rank>  (14) 
13

>  <num_atoms_heavy>  (14) 
27

>  <num_torsions>  (14) 
6

>  <pose>  (14) 
[-20.629121326609525, 2.173001953506228, 11.332119222010373, -0.7207914900563182, -0.8922669041279984, 2.3058265415160237, 0.24511570863788218, -1.3373750796579116, 1.4978352796760088, 3.3491912706967937, 0.562967435686322, -3.581044398070616]

>  <energy>  (14) 
-546.1740206305501

>  <inter_energy>  (14) 
-576.7450422452703

>  <intra_energy>  (14) 
48.7115775038583

>  <rmsd>  (14) 
4.69071

>  <sdf_rank>  (14) 
0

$$$$

     RDKit          3D

 50 52  0  0  0  0  0  0  0  0999 V2000
  -18.8760    3.7001    5.6326 C   0  0  0  0  0  0  0  0  0  0  0  0
  -18.3060    2.6330    6.3362 C   0  0  0  0  0  0  0  0  0  0  0  0
  -19.9025    0.3857   11.7934 C   0  0  0  0  0  0  0  0  0  0  0  0
  -19.8855    2.7021   12.5605 C   0  0  0  0  0  0  0  0  0  0  0  0
  -21.2950    0.2963   12.0569 C   0  0  0  0  0  0  0  0  0  0  0  0
  -22.0891   -0.9765   11.7963 C   0  0  0  0  0  0  0  0  0  0  0  0
  -19.7325   -1.7842    8.3566 C   0  0  0  0  0  0  0  0  0  0  0  0
  -18.4912   -2.4757    8.9083 C   0  0  0  0  0  0  0  0  0  0  0  0
  -17.4350   -1.4486    9.3514 C   0  0  0  0  0  0  0  0  0  0  0  0
  -18.0464   -0.3304   10.1978 C   0  0  1  0  0  0  0  0  0  0  0  0
  -18.6697    0.7024    9.3278 N   0  0  0  0  0  0  0  0  0  0  0  0
  -17.9109    1.4844    8.5491 C   0  0  0  0  0  0  0  0  0  0  0  0
  -16.6846    1.3616    8.5014 O   0  0  0  0  0  0  0  0  0  0  0  0
  -18.5590    2.5356    7.7234 C   0  0  0  0  0  0  0  0  0  0  0  0
  -19.3934    3.4616    8.3708 C   0  0  0  0  0  0  0  0  0  0  0  0
  -19.9269    4.5384    7.6510 C   0  0  0  0  0  0  0  0  0  0  0  0
  -19.6957    4.6280    6.2709 C   0  0  0  0  0  0  0  0  0  0  0  0
  -18.5831    3.5540    4.2641 N   0  0  0  0  0  0  0  0  0  0  0  0
  -17.8214    2.4926    4.0325 C   0  0  0  0  0  0  0  0  0  0  0  0
  -17.4200    2.1292    2.9285 O   0  0  0  0  0  0  0  0  0  0  0  0
  -17.5871    1.7712    5.3413 C   0  0  0  0  0  0  0  0  0  0  0  0
  -19.1288   -0.7993   11.1852 C   0  0  1  0  0  0  0  0  0  0  0  0
  -18.5130   -1.5745   12.2201 O   0  0  0  0  0  0  0  0  0  0  0  0
  -19.2171    1.5897   12.0354 C   0  0  0  0  0  0  0  0  0  0  0  0
  -21.2440    2.6035   12.8333 C   0  0  0  0  0  0  0  0  0  0  0  0
  -21.9442    1.4463   12.5096 C   0  0  0  0  0  0  0  0  0  0  0  0
  -23.6464    1.3475   12.8428 Cl  0  0  0  0  0  0  0  0  0  0  0  0
  -19.3434    3.6395   12.7540 H   0  0  0  0  0  0  0  0  0  0  0  0
  -22.3743   -1.4336   12.7554 H   0  0  0  0  0  0  0  0  0  0  0  0
  -22.9954   -0.7323   11.2227 H   0  0  0  0  0  0  0  0  0  0  0  0
  -21.4714   -1.6832   11.2227 H   0  0  0  0  0  0  0  0  0  0  0  0
  -20.3590   -1.4351    9.1906 H   0  0  0  0  0  0  0  0  0  0  0  0
  -19.4300   -0.9246    7.7405 H   0  0  0  0  0  0  0  0  0  0  0  0
  -20.3043   -2.4938    7.7405 H   0  0  0  0  0  0  0  0  0  0  0  0
  -18.7780   -3.0920    9.7732 H   0  0  0  0  0  0  0  0  0  0  0  0
  -18.0581   -3.1014    8.1140 H   0  0  0  0  0  0  0  0  0  0  0  0
  -16.6653   -1.9636    9.9451 H   0  0  0  0  0  0  0  0  0  0  0  0
  -17.0013   -0.9943    8.4483 H   0  0  0  0  0  0  0  0  0  0  0  0
  -17.2012    0.0685   10.7779 H   0  0  0  0  0  0  0  0  0  0  0  0
  -19.6933    0.8171    9.3242 H   0  0  0  0  0  0  0  0  0  0  0  0
  -19.6271    3.3417    9.4390 H   0  0  0  0  0  0  0  0  0  0  0  0
  -20.5225    5.3077    8.1643 H   0  0  0  0  0  0  0  0  0  0  0  0
  -20.1642    5.4355    5.6891 H   0  0  0  0  0  0  0  0  0  0  0  0
  -18.9194    4.1941    3.5306 H   0  0  0  0  0  0  0  0  0  0  0  0
  -16.5134    1.7117    5.5730 H   0  0  0  0  0  0  0  0  0  0  0  0
  -17.9436    0.7306    5.3322 H   0  0  0  0  0  0  0  0  0  0  0  0
  -19.8573   -1.4142   10.6364 H   0  0  0  0  0  0  0  0  0  0  0  0
  -18.7907   -1.2250   13.1038 H   0  0  0  0  0  0  0  0  0  0  0  0
  -18.1428    1.6582   11.8093 H   0  0  0  0  0  0  0  0  0  0  0  0
  -21.7690    3.4456   13.3079 H   0  0  0  0  0  0  0  0  0  0  0  0
  1  2  2  0
  1 17  1  0
  1 18  1  0
  2 14  1  0
  2 21  1  0
  3  5  2  0
  3 22  1  0
  3 24  1  0
  4 24  2  0
  4 25  1  0
  5  6  1  0
  5 26  1  0
  7  8  1  0
  8  9  1  0
 10  9  1  0
 10 11  1  0
 10 22  1  0
 11 12  1  0
 12 13  2  0
 12 14  1  0
 14 15  2  0
 15 16  1  0
 16 17  2  0
 18 19  1  0
 19 20  2  0
 19 21  1  0
 22 23  1  0
 25 26  2  0
 26 27  1  0
  4 28  1  0
  6 29  1  0
  6 30  1  0
  6 31  1  0
  7 32  1  0
  7 33  1  0
  7 34  1  0
  8 35  1  0
  8 36  1  0
  9 37  1  0
  9 38  1  0
 10 39  1  1
 11 40  1  0
 15 41  1  0
 16 42  1  0
 17 43  1  0
 18 44  1  0
 21 45  1  0
 21 46  1  0
 22 47  1  6
 23 48  1  0
 24 49  1  0
 25 50  1  0
M  END
>  <filename_input>  (15) 
7NPL_UKZ_docked.sdf

>  <pdb_id>  (15) 
7NPL_UKZ

>  <pose_rank>  (15) 
14

>  <num_atoms_heavy>  (15) 
27

>  <num_torsions>  (15) 
6

>  <pose>  (15) 
[-18.046388958152377, -0.33041907335715415, 10.197762695891074, -2.62353526559213, -4.376533022906336, 1.59173334007587, -4.977931791317894, -4.975408085215331, 2.3459465715772367, 1.0337761867308024, 3.735074633899852, -2.19810805277716]

>  <energy>  (15) 
-499.44006073589816

>  <inter_energy>  (15) 
-553.690583718223

>  <intra_energy>  (15) 
69.59589772565168

>  <rmsd>  (15) 
3.41874

>  <sdf_rank>  (15) 
0

$$$$

     RDKit          3D

 50 52  0  0  0  0  0  0  0  0999 V2000
  -15.9807    1.2680    7.6603 C   0  0  0  0  0  0  0  0  0  0  0  0
  -16.8869    1.0378    8.7016 C   0  0  0  0  0  0  0  0  0  0  0  0
  -21.3531    1.6224   13.3436 C   0  0  0  0  0  0  0  0  0  0  0  0
  -23.5168    1.7545   14.4639 C   0  0  0  0  0  0  0  0  0  0  0  0
  -20.7089    1.3961   14.5887 C   0  0  0  0  0  0  0  0  0  0  0  0
  -19.2035    1.1949   14.6978 C   0  0  0  0  0  0  0  0  0  0  0  0
  -19.3744   -2.3558   12.1295 C   0  0  0  0  0  0  0  0  0  0  0  0
  -20.6006   -2.2080   11.2362 C   0  0  0  0  0  0  0  0  0  0  0  0
  -21.1182   -0.7592   11.2402 C   0  0  0  0  0  0  0  0  0  0  0  0
  -20.0327    0.2333   11.6610 C   0  0  1  0  0  0  0  0  0  0  0  0
  -19.0368    0.4120   10.5709 N   0  0  0  0  0  0  0  0  0  0  0  0
  -19.2062    1.3633    9.6436 C   0  0  0  0  0  0  0  0  0  0  0  0
  -20.1664    2.1369    9.6727 O   0  0  0  0  0  0  0  0  0  0  0  0
  -18.2168    1.4895    8.5428 C   0  0  0  0  0  0  0  0  0  0  0  0
  -18.6282    2.1162    7.3549 C   0  0  0  0  0  0  0  0  0  0  0  0
  -17.6949    2.3628    6.3398 C   0  0  0  0  0  0  0  0  0  0  0  0
  -16.3797    1.8985    6.4841 C   0  0  0  0  0  0  0  0  0  0  0  0
  -14.7536    0.6574    7.9787 N   0  0  0  0  0  0  0  0  0  0  0  0
  -14.7818    0.0866    9.1761 C   0  0  0  0  0  0  0  0  0  0  0  0
  -13.8485   -0.5183    9.7007 O   0  0  0  0  0  0  0  0  0  0  0  0
  -16.1699    0.2473    9.7554 C   0  0  0  0  0  0  0  0  0  0  0  0
  -20.5570    1.6330   12.0248 C   0  0  1  0  0  0  0  0  0  0  0  0
  -21.3753    2.1183   10.9543 O   0  0  0  0  0  0  0  0  0  0  0  0
  -22.7490    1.7857   13.2937 C   0  0  0  0  0  0  0  0  0  0  0  0
  -22.8794    1.5507   15.6813 C   0  0  0  0  0  0  0  0  0  0  0  0
  -21.5127    1.2969   15.7258 C   0  0  0  0  0  0  0  0  0  0  0  0
  -20.7358    1.0278   17.2563 Cl  0  0  0  0  0  0  0  0  0  0  0  0
  -24.6077    1.8892   14.4201 H   0  0  0  0  0  0  0  0  0  0  0  0
  -18.9146    1.1563   15.7585 H   0  0  0  0  0  0  0  0  0  0  0  0
  -18.9232    0.2513   14.2068 H   0  0  0  0  0  0  0  0  0  0  0  0
  -18.6852    2.0318   14.2068 H   0  0  0  0  0  0  0  0  0  0  0  0
  -19.6828   -2.3187   13.1847 H   0  0  0  0  0  0  0  0  0  0  0  0
  -18.8852   -3.3194   11.9242 H   0  0  0  0  0  0  0  0  0  0  0  0
  -18.6702   -1.5360   11.9242 H   0  0  0  0  0  0  0  0  0  0  0  0
  -20.3318   -2.4906   10.2077 H   0  0  0  0  0  0  0  0  0  0  0  0
  -21.3950   -2.8636   11.6225 H   0  0  0  0  0  0  0  0  0  0  0  0
  -21.4622   -0.5017   10.2276 H   0  0  0  0  0  0  0  0  0  0  0  0
  -21.9409   -0.6931   11.9673 H   0  0  0  0  0  0  0  0  0  0  0  0
  -19.5876   -0.2124   12.5628 H   0  0  0  0  0  0  0  0  0  0  0  0
  -18.2101   -0.2009   10.5289 H   0  0  0  0  0  0  0  0  0  0  0  0
  -19.6793    2.4122    7.2223 H   0  0  0  0  0  0  0  0  0  0  0  0
  -17.9915    2.9163    5.4367 H   0  0  0  0  0  0  0  0  0  0  0  0
  -15.6591    2.0330    5.6640 H   0  0  0  0  0  0  0  0  0  0  0  0
  -13.9323    0.6541    7.3570 H   0  0  0  0  0  0  0  0  0  0  0  0
  -16.1394    0.7957   10.7084 H   0  0  0  0  0  0  0  0  0  0  0  0
  -16.6575   -0.7119    9.9840 H   0  0  0  0  0  0  0  0  0  0  0  0
  -19.6947    2.2999   12.1724 H   0  0  0  0  0  0  0  0  0  0  0  0
  -22.1640    2.5861   11.3277 H   0  0  0  0  0  0  0  0  0  0  0  0
  -23.2437    1.9398   12.3233 H   0  0  0  0  0  0  0  0  0  0  0  0
  -23.4590    1.5903   16.6154 H   0  0  0  0  0  0  0  0  0  0  0  0
  1  2  2  0
  1 17  1  0
  1 18  1  0
  2 14  1  0
  2 21  1  0
  3  5  2  0
  3 22  1  0
  3 24  1  0
  4 24  2  0
  4 25  1  0
  5  6  1  0
  5 26  1  0
  7  8  1  0
  8  9  1  0
 10  9  1  0
 10 11  1  0
 10 22  1  0
 11 12  1  0
 12 13  2  0
 12 14  1  0
 14 15  2  0
 15 16  1  0
 16 17  2  0
 18 19  1  0
 19 20  2  0
 19 21  1  0
 22 23  1  0
 25 26  2  0
 26 27  1  0
  4 28  1  0
  6 29  1  0
  6 30  1  0
  6 31  1  0
  7 32  1  0
  7 33  1  0
  7 34  1  0
  8 35  1  0
  8 36  1  0
  9 37  1  0
  9 38  1  0
 10 39  1  1
 11 40  1  0
 15 41  1  0
 16 42  1  0
 17 43  1  0
 18 44  1  0
 21 45  1  0
 21 46  1  0
 22 47  1  1
 23 48  1  0
 24 49  1  0
 25 50  1  0
M  END
>  <filename_input>  (16) 
7NPL_UKZ_docked.sdf

>  <pdb_id>  (16) 
7NPL_UKZ

>  <pose_rank>  (16) 
15

>  <num_atoms_heavy>  (16) 
27

>  <num_torsions>  (16) 
6

>  <pose>  (16) 
[-20.032711599745472, 0.23330169733612957, 11.661008217753022, 0.6049934747308526, -0.1424496645240389, -1.6388525370189835, 4.068242435258159, -3.1797875885548943, 0.2212697856021306, -0.2608781575728363, 0.1646124341046076, -2.6361484236263126]

>  <energy>  (16) 
-369.24784833499604

>  <inter_energy>  (16) 
-553.5467106638712

>  <intra_energy>  (16) 
180.74659649113534

>  <rmsd>  (16) 
5.1347

>  <sdf_rank>  (16) 
0

$$$$

     RDKit          3D

 50 52  0  0  0  0  0  0  0  0999 V2000
  -19.2426    3.6155    6.1630 C   0  0  0  0  0  0  0  0  0  0  0  0
  -19.5074    3.2826    7.4963 C   0  0  0  0  0  0  0  0  0  0  0  0
  -21.2991    0.5136   12.3473 C   0  0  0  0  0  0  0  0  0  0  0  0
  -20.1437   -1.6357   12.3444 C   0  0  0  0  0  0  0  0  0  0  0  0
  -22.2934   -0.0087   13.2163 C   0  0  0  0  0  0  0  0  0  0  0  0
  -23.4616    0.8336   13.7105 C   0  0  0  0  0  0  0  0  0  0  0  0
  -17.1824    1.4886   14.2461 C   0  0  0  0  0  0  0  0  0  0  0  0
  -18.6013    1.8636   13.8344 C   0  0  0  0  0  0  0  0  0  0  0  0
  -18.8066    1.6793   12.3208 C   0  0  0  0  0  0  0  0  0  0  0  0
  -19.9181    2.5817   11.7817 C   0  0  1  0  0  0  0  0  0  0  0  0
  -19.6886    2.8926   10.3455 N   0  0  0  0  0  0  0  0  0  0  0  0
  -20.1143    4.0500    9.8233 C   0  0  0  0  0  0  0  0  0  0  0  0
  -20.6800    4.9046   10.5096 O   0  0  0  0  0  0  0  0  0  0  0  0
  -19.9083    4.3137    8.3760 C   0  0  0  0  0  0  0  0  0  0  0  0
  -20.0761    5.6299    7.9151 C   0  0  0  0  0  0  0  0  0  0  0  0
  -19.7749    5.9438    6.5835 C   0  0  0  0  0  0  0  0  0  0  0  0
  -19.3967    4.9209    5.7021 C   0  0  0  0  0  0  0  0  0  0  0  0
  -18.9589    2.4388    5.4455 N   0  0  0  0  0  0  0  0  0  0  0  0
  -18.9729    1.3675    6.2281 C   0  0  0  0  0  0  0  0  0  0  0  0
  -18.7615    0.2129    5.8617 O   0  0  0  0  0  0  0  0  0  0  0  0
  -19.3567    1.7962    7.6272 C   0  0  0  0  0  0  0  0  0  0  0  0
  -21.3317    1.9849   11.8922 C   0  0  1  0  0  0  0  0  0  0  0  0
  -21.9873    2.0984   10.6240 O   0  0  0  0  0  0  0  0  0  0  0  0
  -20.2301   -0.3005   11.9323 C   0  0  0  0  0  0  0  0  0  0  0  0
  -21.1288   -2.1468   13.1800 C   0  0  0  0  0  0  0  0  0  0  0  0
  -22.1363   -1.3207   13.6667 C   0  0  0  0  0  0  0  0  0  0  0  0
  -23.3502   -1.9738   14.7242 Cl  0  0  0  0  0  0  0  0  0  0  0  0
  -19.3090   -2.2701   12.0117 H   0  0  0  0  0  0  0  0  0  0  0  0
  -23.4699    0.8396   14.8105 H   0  0  0  0  0  0  0  0  0  0  0  0
  -23.3542    1.8634   13.3391 H   0  0  0  0  0  0  0  0  0  0  0  0
  -24.4048    0.4064   13.3391 H   0  0  0  0  0  0  0  0  0  0  0  0
  -17.1119    1.4700   15.3437 H   0  0  0  0  0  0  0  0  0  0  0  0
  -16.9352    0.4943   13.8459 H   0  0  0  0  0  0  0  0  0  0  0  0
  -16.4762    2.2309   13.8459 H   0  0  0  0  0  0  0  0  0  0  0  0
  -19.3133    1.2219   14.3741 H   0  0  0  0  0  0  0  0  0  0  0  0
  -18.7688    2.9219   14.0831 H   0  0  0  0  0  0  0  0  0  0  0  0
  -17.8676    1.9233   11.8023 H   0  0  0  0  0  0  0  0  0  0  0  0
  -19.0988    0.6341   12.1412 H   0  0  0  0  0  0  0  0  0  0  0  0
  -19.8737    3.4802   12.4147 H   0  0  0  0  0  0  0  0  0  0  0  0
  -19.1983    2.2122    9.7476 H   0  0  0  0  0  0  0  0  0  0  0  0
  -20.4426    6.4113    8.5971 H   0  0  0  0  0  0  0  0  0  0  0  0
  -19.8346    6.9844    6.2321 H   0  0  0  0  0  0  0  0  0  0  0  0
  -19.2207    5.1506    4.6409 H   0  0  0  0  0  0  0  0  0  0  0  0
  -18.7638    2.4123    4.4345 H   0  0  0  0  0  0  0  0  0  0  0  0
  -18.5670    1.5411    8.3492 H   0  0  0  0  0  0  0  0  0  0  0  0
  -20.2654    1.2997    7.9983 H   0  0  0  0  0  0  0  0  0  0  0  0
  -21.8881    2.5479   12.6560 H   0  0  0  0  0  0  0  0  0  0  0  0
  -22.9528    2.2655   10.7654 H   0  0  0  0  0  0  0  0  0  0  0  0
  -19.4523    0.1169   11.2760 H   0  0  0  0  0  0  0  0  0  0  0  0
  -21.1119   -3.2108   13.4583 H   0  0  0  0  0  0  0  0  0  0  0  0
  1  2  2  0
  1 17  1  0
  1 18  1  0
  2 14  1  0
  2 21  1  0
  3  5  2  0
  3 22  1  0
  3 24  1  0
  4 24  2  0
  4 25  1  0
  5  6  1  0
  5 26  1  0
  7  8  1  0
  8  9  1  0
 10  9  1  0
 10 11  1  0
 10 22  1  0
 11 12  1  0
 12 13  2  0
 12 14  1  0
 14 15  2  0
 15 16  1  0
 16 17  2  0
 18 19  1  0
 19 20  2  0
 19 21  1  0
 22 23  1  0
 25 26  2  0
 26 27  1  0
  4 28  1  0
  6 29  1  0
  6 30  1  0
  6 31  1  0
  7 32  1  0
  7 33  1  0
  7 34  1  0
  8 35  1  0
  8 36  1  0
  9 37  1  0
  9 38  1  0
 10 39  1  1
 11 40  1  0
 15 41  1  0
 16 42  1  0
 17 43  1  0
 18 44  1  0
 21 45  1  0
 21 46  1  0
 22 47  1  1
 23 48  1  0
 24 49  1  0
 25 50  1  0
M  END
>  <filename_input>  (17) 
7NPL_UKZ_docked.sdf

>  <pdb_id>  (17) 
7NPL_UKZ

>  <pose_rank>  (17) 
16

>  <num_atoms_heavy>  (17) 
27

>  <num_torsions>  (17) 
6

>  <pose>  (17) 
[-19.918098221912132, 2.581671059541533, 11.781734217866536, 3.114767855256397, 4.875946010663193, -2.1518020392114208, 43.85623078733026, 16.3181232494009, 74.2587945143958, 19.887030561026258, -4.734691472142817, 0.5670219748242333]

>  <energy>  (17) 
-93.88532465816861

>  <inter_energy>  (17) 
-194.1021842781221

>  <intra_energy>  (17) 
108.4519546926689

>  <rmsd>  (17) 
3.95135

>  <sdf_rank>  (17) 
0

$$$$

     RDKit          3D

 50 52  0  0  0  0  0  0  0  0999 V2000
  -20.1447   -0.8823   12.5372 C   0  0  0  0  0  0  0  0  0  0  0  0
  -19.7992   -0.4028   11.2687 C   0  0  0  0  0  0  0  0  0  0  0  0
  -15.9628    1.1881    8.7195 C   0  0  0  0  0  0  0  0  0  0  0  0
  -15.0434    0.9900   10.9712 C   0  0  0  0  0  0  0  0  0  0  0  0
  -15.7324   -0.1943    8.4910 C   0  0  0  0  0  0  0  0  0  0  0  0
  -16.0920   -0.8692    7.1742 C   0  0  0  0  0  0  0  0  0  0  0  0
  -19.0717    3.4291    5.1575 C   0  0  0  0  0  0  0  0  0  0  0  0
  -18.6142    1.9900    5.3651 C   0  0  0  0  0  0  0  0  0  0  0  0
  -18.9866    1.4870    6.7706 C   0  0  0  0  0  0  0  0  0  0  0  0
  -18.1546    2.1677    7.8591 C   0  0  1  0  0  0  0  0  0  0  0  0
  -18.4493    1.5737    9.1904 N   0  0  0  0  0  0  0  0  0  0  0  0
  -19.7041    1.5377    9.6570 C   0  0  0  0  0  0  0  0  0  0  0  0
  -20.6558    1.9637    8.9981 O   0  0  0  0  0  0  0  0  0  0  0  0
  -19.9613    0.9770   11.0082 C   0  0  0  0  0  0  0  0  0  0  0  0
  -20.4182    1.8505   12.0088 C   0  0  0  0  0  0  0  0  0  0  0  0
  -20.7869    1.3415   13.2607 C   0  0  0  0  0  0  0  0  0  0  0  0
  -20.6086   -0.0229   13.5305 C   0  0  0  0  0  0  0  0  0  0  0  0
  -19.8161   -2.2482   12.6150 N   0  0  0  0  0  0  0  0  0  0  0  0
  -19.3252   -2.7042   11.4698 C   0  0  0  0  0  0  0  0  0  0  0  0
  -18.9551   -3.8581   11.2607 O   0  0  0  0  0  0  0  0  0  0  0  0
  -19.2359   -1.5546   10.4905 C   0  0  0  0  0  0  0  0  0  0  0  0
  -16.6335    2.0716    7.6507 C   0  0  1  0  0  0  0  0  0  0  0  0
  -16.0745    3.3900    7.6734 O   0  0  0  0  0  0  0  0  0  0  0  0
  -15.6284    1.7610    9.9596 C   0  0  0  0  0  0  0  0  0  0  0  0
  -14.8037   -0.3580   10.7359 C   0  0  0  0  0  0  0  0  0  0  0  0
  -15.2168   -0.9487    9.5464 C   0  0  0  0  0  0  0  0  0  0  0  0
  -14.9233   -2.6397    9.2769 Cl  0  0  0  0  0  0  0  0  0  0  0  0
  -14.7778    1.4443   11.9371 H   0  0  0  0  0  0  0  0  0  0  0  0
  -16.6003   -1.8232    7.3780 H   0  0  0  0  0  0  0  0  0  0  0  0
  -16.7603   -0.2136    6.5967 H   0  0  0  0  0  0  0  0  0  0  0  0
  -15.1751   -1.0583    6.5967 H   0  0  0  0  0  0  0  0  0  0  0  0
  -19.2245    3.9099    6.1349 H   0  0  0  0  0  0  0  0  0  0  0  0
  -18.3044    3.9800    4.5938 H   0  0  0  0  0  0  0  0  0  0  0  0
  -20.0162    3.4359    4.5938 H   0  0  0  0  0  0  0  0  0  0  0  0
  -19.0973    1.3477    4.6141 H   0  0  0  0  0  0  0  0  0  0  0  0
  -17.5199    1.9529    5.2596 H   0  0  0  0  0  0  0  0  0  0  0  0
  -20.0509    1.6969    6.9530 H   0  0  0  0  0  0  0  0  0  0  0  0
  -18.7827    0.4068    6.8112 H   0  0  0  0  0  0  0  0  0  0  0  0
  -18.4432    3.2277    7.8030 H   0  0  0  0  0  0  0  0  0  0  0  0
  -17.6820    1.1867    9.7582 H   0  0  0  0  0  0  0  0  0  0  0  0
  -20.4863    2.9303   11.8101 H   0  0  0  0  0  0  0  0  0  0  0  0
  -21.2129    2.0069   14.0261 H   0  0  0  0  0  0  0  0  0  0  0  0
  -20.8363   -0.4168   14.5320 H   0  0  0  0  0  0  0  0  0  0  0  0
  -19.9416   -2.8248   13.4592 H   0  0  0  0  0  0  0  0  0  0  0  0
  -19.8360   -1.7547    9.5906 H   0  0  0  0  0  0  0  0  0  0  0  0
  -18.2135   -1.3734   10.1275 H   0  0  0  0  0  0  0  0  0  0  0  0
  -16.4454    1.5991    6.6753 H   0  0  0  0  0  0  0  0  0  0  0  0
  -15.9515    3.6802    8.6119 H   0  0  0  0  0  0  0  0  0  0  0  0
  -15.8289    2.8279   10.1370 H   0  0  0  0  0  0  0  0  0  0  0  0
  -14.2842   -0.9616   11.4947 H   0  0  0  0  0  0  0  0  0  0  0  0
  1  2  2  0
  1 17  1  0
  1 18  1  0
  2 14  1  0
  2 21  1  0
  3  5  2  0
  3 22  1  0
  3 24  1  0
  4 24  2  0
  4 25  1  0
  5  6  1  0
  5 26  1  0
  7  8  1  0
  8  9  1  0
 10  9  1  0
 10 11  1  0
 10 22  1  0
 11 12  1  0
 12 13  2  0
 12 14  1  0
 14 15  2  0
 15 16  1  0
 16 17  2  0
 18 19  1  0
 19 20  2  0
 19 21  1  0
 22 23  1  0
 25 26  2  0
 26 27  1  0
  4 28  1  0
  6 29  1  0
  6 30  1  0
  6 31  1  0
  7 32  1  0
  7 33  1  0
  7 34  1  0
  8 35  1  0
  8 36  1  0
  9 37  1  0
  9 38  1  0
 10 39  1  1
 11 40  1  0
 15 41  1  0
 16 42  1  0
 17 43  1  0
 18 44  1  0
 21 45  1  0
 21 46  1  0
 22 47  1  6
 23 48  1  0
 24 49  1  0
 25 50  1  0
M  END
>  <filename_input>  (18) 
7NPL_UKZ_docked.sdf

>  <pdb_id>  (18) 
7NPL_UKZ

>  <pose_rank>  (18) 
17

>  <num_atoms_heavy>  (18) 
27

>  <num_torsions>  (18) 
6

>  <pose>  (18) 
[-18.154638989799942, 2.1677171724662503, 7.859140528294312, 0.33186859198005075, -3.088859435427663, -1.0437245346789994, 7.8027536085426314, -3.9430346411411423, -2.960638289428556, 6.452664918414405, 8.394376767841619, 2.0425853140568835]

>  <energy>  (18) 
-524.7371088028382

>  <inter_energy>  (18) 
-567.3522693082441

>  <intra_energy>  (18) 
42.047502783538604

>  <rmsd>  (18) 
7.31184

>  <sdf_rank>  (18) 
0

$$$$

     RDKit          3D

 50 52  0  0  0  0  0  0  0  0999 V2000
  -14.9218   -6.9991    7.4088 C   0  0  0  0  0  0  0  0  0  0  0  0
  -15.9605   -6.1348    7.7730 C   0  0  0  0  0  0  0  0  0  0  0  0
  -18.2180   -0.3593   11.3234 C   0  0  0  0  0  0  0  0  0  0  0  0
  -19.2813    1.8256   11.5478 C   0  0  0  0  0  0  0  0  0  0  0  0
  -19.0715   -0.8908   12.3262 C   0  0  0  0  0  0  0  0  0  0  0  0
  -18.9932   -2.3454   12.7696 C   0  0  0  0  0  0  0  0  0  0  0  0
  -20.4055    0.3020    8.0559 C   0  0  0  0  0  0  0  0  0  0  0  0
  -19.9730   -1.0715    8.5560 C   0  0  0  0  0  0  0  0  0  0  0  0
  -18.4626   -1.2845    8.3550 C   0  0  0  0  0  0  0  0  0  0  0  0
  -17.8444   -2.0968    9.4944 C   0  0  1  0  0  0  0  0  0  0  0  0
  -16.7966   -3.0148    8.9732 N   0  0  0  0  0  0  0  0  0  0  0  0
  -16.8036   -4.3127    9.3033 C   0  0  0  0  0  0  0  0  0  0  0  0
  -17.6832   -4.7975   10.0191 O   0  0  0  0  0  0  0  0  0  0  0  0
  -15.7196   -5.1959    8.8018 C   0  0  0  0  0  0  0  0  0  0  0  0
  -14.4586   -5.1052    9.4141 C   0  0  0  0  0  0  0  0  0  0  0  0
  -13.4447   -6.0020    9.0536 C   0  0  0  0  0  0  0  0  0  0  0  0
  -13.6723   -6.9214    8.0196 C   0  0  0  0  0  0  0  0  0  0  0  0
  -15.3367   -7.7759    6.3114 N   0  0  0  0  0  0  0  0  0  0  0  0
  -16.5902   -7.5124    5.9655 C   0  0  0  0  0  0  0  0  0  0  0  0
  -17.2024   -8.0439    5.0409 O   0  0  0  0  0  0  0  0  0  0  0  0
  -17.1141   -6.4056    6.8537 C   0  0  0  0  0  0  0  0  0  0  0  0
  -17.1902   -1.2485   10.5983 C   0  0  1  0  0  0  0  0  0  0  0  0
  -16.1575   -0.4430   10.0186 O   0  0  0  0  0  0  0  0  0  0  0  0
  -18.3412    0.9873   10.9368 C   0  0  0  0  0  0  0  0  0  0  0  0
  -20.1014    1.3051   12.5409 C   0  0  0  0  0  0  0  0  0  0  0  0
  -20.0466   -0.0472   12.8613 C   0  0  0  0  0  0  0  0  0  0  0  0
  -21.0919   -0.6835   14.0945 Cl  0  0  0  0  0  0  0  0  0  0  0  0
  -19.3691    2.8798   11.2463 H   0  0  0  0  0  0  0  0  0  0  0  0
  -18.9906   -2.3940   13.8685 H   0  0  0  0  0  0  0  0  0  0  0  0
  -19.8631   -2.8947   12.3803 H   0  0  0  0  0  0  0  0  0  0  0  0
  -18.0694   -2.7982   12.3803 H   0  0  0  0  0  0  0  0  0  0  0  0
  -20.6117    0.9568    8.9154 H   0  0  0  0  0  0  0  0  0  0  0  0
  -19.6018    0.7399    7.4458 H   0  0  0  0  0  0  0  0  0  0  0  0
  -21.3151    0.2003    7.4458 H   0  0  0  0  0  0  0  0  0  0  0  0
  -20.2079   -1.1539    9.6274 H   0  0  0  0  0  0  0  0  0  0  0  0
  -20.5132   -1.8382    7.9813 H   0  0  0  0  0  0  0  0  0  0  0  0
  -18.3020   -1.8207    7.4080 H   0  0  0  0  0  0  0  0  0  0  0  0
  -17.9783   -0.2970    8.3386 H   0  0  0  0  0  0  0  0  0  0  0  0
  -18.6926   -2.6407    9.9357 H   0  0  0  0  0  0  0  0  0  0  0  0
  -16.0597   -2.6493    8.3534 H   0  0  0  0  0  0  0  0  0  0  0  0
  -14.2681   -4.3328   10.1737 H   0  0  0  0  0  0  0  0  0  0  0  0
  -12.4777   -5.9851    9.5775 H   0  0  0  0  0  0  0  0  0  0  0  0
  -12.8597   -7.5850    7.6890 H   0  0  0  0  0  0  0  0  0  0  0  0
  -14.7393   -8.4660    5.8342 H   0  0  0  0  0  0  0  0  0  0  0  0
  -17.9991   -6.7364    7.4170 H   0  0  0  0  0  0  0  0  0  0  0  0
  -17.4386   -5.5169    6.2925 H   0  0  0  0  0  0  0  0  0  0  0  0
  -16.7615   -1.9272   11.3504 H   0  0  0  0  0  0  0  0  0  0  0  0
  -15.6217   -0.0251   10.7386 H   0  0  0  0  0  0  0  0  0  0  0  0
  -17.6908    1.3868   10.1446 H   0  0  0  0  0  0  0  0  0  0  0  0
  -20.7982    1.9663   13.0770 H   0  0  0  0  0  0  0  0  0  0  0  0
  1  2  2  0
  1 17  1  0
  1 18  1  0
  2 14  1  0
  2 21  1  0
  3  5  2  0
  3 22  1  0
  3 24  1  0
  4 24  2  0
  4 25  1  0
  5  6  1  0
  5 26  1  0
  7  8  1  0
  8  9  1  0
 10  9  1  0
 10 11  1  0
 10 22  1  0
 11 12  1  0
 12 13  2  0
 12 14  1  0
 14 15  2  0
 15 16  1  0
 16 17  2  0
 18 19  1  0
 19 20  2  0
 19 21  1  0
 22 23  1  0
 25 26  2  0
 26 27  1  0
  4 28  1  0
  6 29  1  0
  6 30  1  0
  6 31  1  0
  7 32  1  0
  7 33  1  0
  7 34  1  0
  8 35  1  0
  8 36  1  0
  9 37  1  0
  9 38  1  0
 10 39  1  1
 11 40  1  0
 15 41  1  0
 16 42  1  0
 17 43  1  0
 18 44  1  0
 21 45  1  0
 21 46  1  0
 22 47  1  1
 23 48  1  0
 24 49  1  0
 25 50  1  0
M  END
>  <filename_input>  (19) 
7NPL_UKZ_docked.sdf

>  <pdb_id>  (19) 
7NPL_UKZ

>  <pose_rank>  (19) 
18

>  <num_atoms_heavy>  (19) 
27

>  <num_torsions>  (19) 
6

>  <pose>  (19) 
[-17.844379767017397, -2.0968435088523267, 9.494360499274189, 1.6181645863785583, -0.6954480608548911, -2.645789758885088, 0.22733587715501574, -4.601156692193994, 0.10516989302790342, -0.08125764127310056, 1.3718275073944732, -0.4979766129187144]

>  <energy>  (19) 
-299.426945620829

>  <inter_energy>  (19) 
-303.5281427863164

>  <intra_energy>  (19) 
15.950678140475485

>  <rmsd>  (19) 
8.06849

>  <sdf_rank>  (19) 
0

$$$$

     RDKit          3D

 50 52  0  0  0  0  0  0  0  0999 V2000
  -20.7213    9.7906    1.5352 C   0  0  0  0  0  0  0  0  0  0  0  0
  -20.6774    8.8608    2.5802 C   0  0  0  0  0  0  0  0  0  0  0  0
  -18.0154    2.6894    4.6023 C   0  0  0  0  0  0  0  0  0  0  0  0
  -15.6094    2.7043    5.0088 C   0  0  0  0  0  0  0  0  0  0  0  0
  -18.2139    1.8579    5.7362 C   0  0  0  0  0  0  0  0  0  0  0  0
  -19.5970    1.3849    6.1625 C   0  0  0  0  0  0  0  0  0  0  0  0
  -20.0773    4.2346    7.9708 C   0  0  0  0  0  0  0  0  0  0  0  0
  -20.2575    5.1802    6.7890 C   0  0  0  0  0  0  0  0  0  0  0  0
  -19.2121    4.9051    5.6942 C   0  0  0  0  0  0  0  0  0  0  0  0
  -19.8609    4.4368    4.3904 C   0  0  1  0  0  0  0  0  0  0  0  0
  -19.8132    5.5142    3.3663 N   0  0  0  0  0  0  0  0  0  0  0  0
  -20.7721    6.4478    3.3154 C   0  0  0  0  0  0  0  0  0  0  0  0
  -21.7045    6.4677    4.1226 O   0  0  0  0  0  0  0  0  0  0  0  0
  -20.7200    7.4861    2.2544 C   0  0  0  0  0  0  0  0  0  0  0  0
  -20.7638    7.0637    0.9155 C   0  0  0  0  0  0  0  0  0  0  0  0
  -20.8382    8.0139   -0.1111 C   0  0  0  0  0  0  0  0  0  0  0  0
  -20.7757    9.3783    0.2058 C   0  0  0  0  0  0  0  0  0  0  0  0
  -20.5687   11.0843    2.0673 N   0  0  0  0  0  0  0  0  0  0  0  0
  -20.4767   11.0663    3.3908 C   0  0  0  0  0  0  0  0  0  0  0  0
  -20.3352   12.0537    4.1101 O   0  0  0  0  0  0  0  0  0  0  0  0
  -20.5082    9.6279    3.8579 C   0  0  0  0  0  0  0  0  0  0  0  0
  -19.2065    3.1929    3.7651 C   0  0  1  0  0  0  0  0  0  0  0  0
  -18.7807    3.5079    2.4344 O   0  0  0  0  0  0  0  0  0  0  0  0
  -16.7190    3.1133    4.2596 C   0  0  0  0  0  0  0  0  0  0  0  0
  -15.8073    1.8762    6.1065 C   0  0  0  0  0  0  0  0  0  0  0  0
  -17.0946    1.5301    6.5034 C   0  0  0  0  0  0  0  0  0  0  0  0
  -17.3232    0.5071    7.8889 Cl  0  0  0  0  0  0  0  0  0  0  0  0
  -14.5968    3.0334    4.7327 H   0  0  0  0  0  0  0  0  0  0  0  0
  -19.6554    1.3650    7.2607 H   0  0  0  0  0  0  0  0  0  0  0  0
  -20.3581    2.0739    5.7673 H   0  0  0  0  0  0  0  0  0  0  0  0
  -19.7769    0.3742    5.7673 H   0  0  0  0  0  0  0  0  0  0  0  0
  -20.1845    4.7970    8.9100 H   0  0  0  0  0  0  0  0  0  0  0  0
  -20.8409    3.4440    7.9276 H   0  0  0  0  0  0  0  0  0  0  0  0
  -19.0764    3.7804    7.9276 H   0  0  0  0  0  0  0  0  0  0  0  0
  -21.2640    5.0406    6.3676 H   0  0  0  0  0  0  0  0  0  0  0  0
  -20.1269    6.2127    7.1450 H   0  0  0  0  0  0  0  0  0  0  0  0
  -18.6496    5.8301    5.4992 H   0  0  0  0  0  0  0  0  0  0  0  0
  -18.5474    4.1045    6.0510 H   0  0  0  0  0  0  0  0  0  0  0  0
  -20.8915    4.1773    4.6741 H   0  0  0  0  0  0  0  0  0  0  0  0
  -19.0363    5.5427    2.6906 H   0  0  0  0  0  0  0  0  0  0  0  0
  -20.7397    5.9908    0.6740 H   0  0  0  0  0  0  0  0  0  0  0  0
  -20.9449    7.6921   -1.1576 H   0  0  0  0  0  0  0  0  0  0  0  0
  -20.7695   10.1273   -0.5998 H   0  0  0  0  0  0  0  0  0  0  0  0
  -20.5327   11.9418    1.4980 H   0  0  0  0  0  0  0  0  0  0  0  0
  -21.3537    9.4520    4.5393 H   0  0  0  0  0  0  0  0  0  0  0  0
  -19.6104    9.3361    4.4225 H   0  0  0  0  0  0  0  0  0  0  0  0
  -19.9508    2.3833    3.7411 H   0  0  0  0  0  0  0  0  0  0  0  0
  -17.9854    4.0962    2.4730 H   0  0  0  0  0  0  0  0  0  0  0  0
  -16.5751    3.7743    3.3922 H   0  0  0  0  0  0  0  0  0  0  0  0
  -14.9410    1.4921    6.6650 H   0  0  0  0  0  0  0  0  0  0  0  0
  1  2  2  0
  1 17  1  0
  1 18  1  0
  2 14  1  0
  2 21  1  0
  3  5  2  0
  3 22  1  0
  3 24  1  0
  4 24  2  0
  4 25  1  0
  5  6  1  0
  5 26  1  0
  7  8  1  0
  8  9  1  0
 10  9  1  0
 10 11  1  0
 10 22  1  0
 11 12  1  0
 12 13  2  0
 12 14  1  0
 14 15  2  0
 15 16  1  0
 16 17  2  0
 18 19  1  0
 19 20  2  0
 19 21  1  0
 22 23  1  0
 25 26  2  0
 26 27  1  0
  4 28  1  0
  6 29  1  0
  6 30  1  0
  6 31  1  0
  7 32  1  0
  7 33  1  0
  7 34  1  0
  8 35  1  0
  8 36  1  0
  9 37  1  0
  9 38  1  0
 10 39  1  1
 11 40  1  0
 15 41  1  0
 16 42  1  0
 17 43  1  0
 18 44  1  0
 21 45  1  0
 21 46  1  0
 22 47  1  6
 23 48  1  0
 24 49  1  0
 25 50  1  0
M  END
>  <filename_input>  (20) 
7NPL_UKZ_docked.sdf

>  <pdb_id>  (20) 
7NPL_UKZ

>  <pose_rank>  (20) 
19

>  <num_atoms_heavy>  (20) 
27

>  <num_torsions>  (20) 
6

>  <pose>  (20) 
[-19.860933571836323, 4.436776732208267, 4.390381555038609, -0.8123992973268395, 2.201787665958066, -3.8832923749285304, 0.9935998130924238, -4.869751705046565, -1.0051303765761594, -6.30747313749705, 0.7439927237123362, -0.9829734424157119]

>  <energy>  (20) 
-239.52679306579049

>  <inter_energy>  (20) 
-272.3914750795486

>  <intra_energy>  (20) 
30.223012559005934

>  <rmsd>  (20) 
6.83602

>  <sdf_rank>  (20) 
0

$$$$

     RDKit          3D

 50 52  0  0  0  0  0  0  0  0999 V2000
  -19.3934    1.7360    8.3166 C   0  0  0  0  0  0  0  0  0  0  0  0
  -18.0572    1.4983    8.6578 C   0  0  0  0  0  0  0  0  0  0  0  0
  -11.3149    3.4514    8.8670 C   0  0  0  0  0  0  0  0  0  0  0  0
   -9.2615    2.1374    8.7602 C   0  0  0  0  0  0  0  0  0  0  0  0
  -10.6636    4.5426    8.2331 C   0  0  0  0  0  0  0  0  0  0  0  0
  -11.3826    5.8499    7.9289 C   0  0  0  0  0  0  0  0  0  0  0  0
  -14.9040   -0.6888   10.4854 C   0  0  0  0  0  0  0  0  0  0  0  0
  -13.5200   -0.2303   10.0408 C   0  0  0  0  0  0  0  0  0  0  0  0
  -13.2956    1.2556   10.3708 C   0  0  0  0  0  0  0  0  0  0  0  0
  -13.4895    2.1482    9.1435 C   0  0  1  0  0  0  0  0  0  0  0  0
  -14.9357    2.3973    8.9017 N   0  0  0  0  0  0  0  0  0  0  0  0
  -15.6179    1.6487    8.0253 C   0  0  0  0  0  0  0  0  0  0  0  0
  -15.0885    0.7176    7.4140 O   0  0  0  0  0  0  0  0  0  0  0  0
  -17.0508    1.9491    7.7736 C   0  0  0  0  0  0  0  0  0  0  0  0
  -17.3814    2.6530    6.6038 C   0  0  0  0  0  0  0  0  0  0  0  0
  -18.7270    2.8512    6.2688 C   0  0  0  0  0  0  0  0  0  0  0  0
  -19.7283    2.4240    7.1526 C   0  0  0  0  0  0  0  0  0  0  0  0
  -20.2189    1.2993    9.3691 N   0  0  0  0  0  0  0  0  0  0  0  0
  -19.5171    0.7496   10.3518 C   0  0  0  0  0  0  0  0  0  0  0  0
  -19.9846    0.2880   11.3913 O   0  0  0  0  0  0  0  0  0  0  0  0
  -18.0470    0.8466   10.0086 C   0  0  0  0  0  0  0  0  0  0  0  0
  -12.8070    3.5233    9.2428 C   0  0  1  0  0  0  0  0  0  0  0  0
  -12.9603    4.0260   10.5751 O   0  0  0  0  0  0  0  0  0  0  0  0
  -10.6114    2.2584    9.1111 C   0  0  0  0  0  0  0  0  0  0  0  0
   -8.6244    3.2142    8.1566 C   0  0  0  0  0  0  0  0  0  0  0  0
   -9.3394    4.3615    7.8298 C   0  0  0  0  0  0  0  0  0  0  0  0
   -8.5292    5.6917    7.0600 Cl  0  0  0  0  0  0  0  0  0  0  0  0
   -8.7140    1.2043    8.9592 H   0  0  0  0  0  0  0  0  0  0  0  0
  -11.6555    6.3463    8.8718 H   0  0  0  0  0  0  0  0  0  0  0  0
  -10.7188    6.5067    7.3476 H   0  0  0  0  0  0  0  0  0  0  0  0
  -12.2928    5.6411    7.3476 H   0  0  0  0  0  0  0  0  0  0  0  0
  -14.9497   -0.7040   11.5844 H   0  0  0  0  0  0  0  0  0  0  0  0
  -15.6630    0.0058   10.0964 H   0  0  0  0  0  0  0  0  0  0  0  0
  -15.0980   -1.6993   10.0964 H   0  0  0  0  0  0  0  0  0  0  0  0
  -12.7587   -0.8321   10.5586 H   0  0  0  0  0  0  0  0  0  0  0  0
  -13.4420   -0.3616    8.9514 H   0  0  0  0  0  0  0  0  0  0  0  0
  -14.0120    1.5594   11.1482 H   0  0  0  0  0  0  0  0  0  0  0  0
  -12.2588    1.3748   10.7185 H   0  0  0  0  0  0  0  0  0  0  0  0
  -13.0198    1.5897    8.3205 H   0  0  0  0  0  0  0  0  0  0  0  0
  -15.4165    3.1516    9.4123 H   0  0  0  0  0  0  0  0  0  0  0  0
  -16.5867    3.0471    5.9534 H   0  0  0  0  0  0  0  0  0  0  0  0
  -18.9961    3.3380    5.3198 H   0  0  0  0  0  0  0  0  0  0  0  0
  -20.7841    2.6333    6.9255 H   0  0  0  0  0  0  0  0  0  0  0  0
  -21.2444    1.3949    9.3758 H   0  0  0  0  0  0  0  0  0  0  0  0
  -17.5852   -0.1507    9.9627 H   0  0  0  0  0  0  0  0  0  0  0  0
  -17.4640    1.4061   10.7550 H   0  0  0  0  0  0  0  0  0  0  0  0
  -13.2893    4.2035    8.5254 H   0  0  0  0  0  0  0  0  0  0  0  0
  -12.7424    3.3113   11.2246 H   0  0  0  0  0  0  0  0  0  0  0  0
  -11.1280    1.4100    9.5836 H   0  0  0  0  0  0  0  0  0  0  0  0
   -7.5481    3.1592    7.9359 H   0  0  0  0  0  0  0  0  0  0  0  0
  1  2  2  0
  1 17  1  0
  1 18  1  0
  2 14  1  0
  2 21  1  0
  3  5  2  0
  3 22  1  0
  3 24  1  0
  4 24  2  0
  4 25  1  0
  5  6  1  0
  5 26  1  0
  7  8  1  0
  8  9  1  0
 10  9  1  0
 10 11  1  0
 10 22  1  0
 11 12  1  0
 12 13  2  0
 12 14  1  0
 14 15  2  0
 15 16  1  0
 16 17  2  0
 18 19  1  0
 19 20  2  0
 19 21  1  0
 22 23  1  0
 25 26  2  0
 26 27  1  0
  4 28  1  0
  6 29  1  0
  6 30  1  0
  6 31  1  0
  7 32  1  0
  7 33  1  0
  7 34  1  0
  8 35  1  0
  8 36  1  0
  9 37  1  0
  9 38  1  0
 10 39  1  6
 11 40  1  0
 15 41  1  0
 16 42  1  0
 17 43  1  0
 18 44  1  0
 21 45  1  0
 21 46  1  0
 22 47  1  6
 23 48  1  0
 24 49  1  0
 25 50  1  0
M  END
>  <filename_input>  (21) 
7NPL_UKZ_docked.sdf

>  <pdb_id>  (21) 
7NPL_UKZ

>  <pose_rank>  (21) 
20

>  <num_atoms_heavy>  (21) 
27

>  <num_torsions>  (21) 
6

>  <pose>  (21) 
[-13.489545190089462, 2.1482157211366686, 9.143541266693488, 2.0218366340018177, -2.0800287354921596, 2.4214620965876916, 0.8188273214437649, 2.1334371131496552, 0.4425605419954998, 1.1072246765911293, 0.28164960212076223, 1.5095936689716725]

>  <energy>  (21) 
-195.95877813763062

>  <inter_energy>  (21) 
-225.78697464151446

>  <intra_energy>  (21) 
30.495406944511227

>  <rmsd>  (21) 
7.75444

>  <sdf_rank>  (21) 
0

$$$$

     RDKit          3D

 50 52  0  0  0  0  0  0  0  0999 V2000
  -19.4888    1.5374   11.2966 C   0  0  0  0  0  0  0  0  0  0  0  0
  -19.4665    0.1677   11.0102 C   0  0  0  0  0  0  0  0  0  0  0  0
  -16.9784   -5.7960    8.9412 C   0  0  0  0  0  0  0  0  0  0  0  0
  -17.9574   -7.8701    8.1081 C   0  0  0  0  0  0  0  0  0  0  0  0
  -15.7538   -6.0981    8.2888 C   0  0  0  0  0  0  0  0  0  0  0  0
  -14.5481   -5.1707    8.3581 C   0  0  0  0  0  0  0  0  0  0  0  0
  -21.5412   -3.7068   11.6933 C   0  0  0  0  0  0  0  0  0  0  0  0
  -20.0554   -4.0048   11.8577 C   0  0  0  0  0  0  0  0  0  0  0  0
  -19.5262   -4.8494   10.6856 C   0  0  0  0  0  0  0  0  0  0  0  0
  -18.6324   -4.0319    9.7513 C   0  0  1  0  0  0  0  0  0  0  0  0
  -18.6408   -2.5971   10.1428 N   0  0  0  0  0  0  0  0  0  0  0  0
  -19.1268   -1.6673    9.3103 C   0  0  0  0  0  0  0  0  0  0  0  0
  -19.6065   -1.9630    8.2131 O   0  0  0  0  0  0  0  0  0  0  0  0
  -19.0825   -0.2378    9.7117 C   0  0  0  0  0  0  0  0  0  0  0  0
  -18.6942    0.7064    8.7470 C   0  0  0  0  0  0  0  0  0  0  0  0
  -18.7547    2.0731    9.0482 C   0  0  0  0  0  0  0  0  0  0  0  0
  -19.1152    2.4794   10.3409 C   0  0  0  0  0  0  0  0  0  0  0  0
  -19.7991    1.7151   12.6575 N   0  0  0  0  0  0  0  0  0  0  0  0
  -20.0280    0.5590   13.2670 C   0  0  0  0  0  0  0  0  0  0  0  0
  -20.3169    0.4229   14.4545 O   0  0  0  0  0  0  0  0  0  0  0  0
  -19.8090   -0.5619   12.2750 C   0  0  0  0  0  0  0  0  0  0  0  0
  -17.1615   -4.4816    9.7234 C   0  0  1  0  0  0  0  0  0  0  0  0
  -16.6940   -4.6344   11.0685 O   0  0  0  0  0  0  0  0  0  0  0  0
  -18.0688   -6.6775    8.8329 C   0  0  0  0  0  0  0  0  0  0  0  0
  -16.7516   -8.1693    7.4867 C   0  0  0  0  0  0  0  0  0  0  0  0
  -15.7012   -7.2581    7.5139 C   0  0  0  0  0  0  0  0  0  0  0  0
  -14.2061   -7.6427    6.7168 Cl  0  0  0  0  0  0  0  0  0  0  0  0
  -18.8114   -8.5593    8.0318 H   0  0  0  0  0  0  0  0  0  0  0  0
  -14.2952   -4.9761    9.4108 H   0  0  0  0  0  0  0  0  0  0  0  0
  -13.6915   -5.6449    7.8567 H   0  0  0  0  0  0  0  0  0  0  0  0
  -14.7867   -4.2211    7.8567 H   0  0  0  0  0  0  0  0  0  0  0  0
  -22.0083   -3.6131   12.6848 H   0  0  0  0  0  0  0  0  0  0  0  0
  -21.6671   -2.7655   11.1382 H   0  0  0  0  0  0  0  0  0  0  0  0
  -22.0204   -4.5267   11.1382 H   0  0  0  0  0  0  0  0  0  0  0  0
  -19.5008   -3.0557   11.8957 H   0  0  0  0  0  0  0  0  0  0  0  0
  -19.9143   -4.5730   12.7890 H   0  0  0  0  0  0  0  0  0  0  0  0
  -18.9439   -5.6913   11.0883 H   0  0  0  0  0  0  0  0  0  0  0  0
  -20.3899   -5.2062   10.1053 H   0  0  0  0  0  0  0  0  0  0  0  0
  -19.0604   -4.1931    8.7509 H   0  0  0  0  0  0  0  0  0  0  0  0
  -18.2698   -2.3161   11.0616 H   0  0  0  0  0  0  0  0  0  0  0  0
  -18.3439    0.3739    7.7587 H   0  0  0  0  0  0  0  0  0  0  0  0
  -18.5212    2.8216    8.2768 H   0  0  0  0  0  0  0  0  0  0  0  0
  -19.1030    3.5480   10.6018 H   0  0  0  0  0  0  0  0  0  0  0  0
  -19.8432    2.6321   13.1243 H   0  0  0  0  0  0  0  0  0  0  0  0
  -20.7219   -1.1628   12.1498 H   0  0  0  0  0  0  0  0  0  0  0  0
  -19.0305   -1.2726   12.5894 H   0  0  0  0  0  0  0  0  0  0  0  0
  -16.5721   -3.7112    9.2046 H   0  0  0  0  0  0  0  0  0  0  0  0
  -17.4194   -4.3973   11.6989 H   0  0  0  0  0  0  0  0  0  0  0  0
  -19.0208   -6.4269    9.3237 H   0  0  0  0  0  0  0  0  0  0  0  0
  -16.6268   -9.1325    6.9702 H   0  0  0  0  0  0  0  0  0  0  0  0
  1  2  2  0
  1 17  1  0
  1 18  1  0
  2 14  1  0
  2 21  1  0
  3  5  2  0
  3 22  1  0
  3 24  1  0
  4 24  2  0
  4 25  1  0
  5  6  1  0
  5 26  1  0
  7  8  1  0
  8  9  1  0
 10  9  1  0
 10 11  1  0
 10 22  1  0
 11 12  1  0
 12 13  2  0
 12 14  1  0
 14 15  2  0
 15 16  1  0
 16 17  2  0
 18 19  1  0
 19 20  2  0
 19 21  1  0
 22 23  1  0
 25 26  2  0
 26 27  1  0
  4 28  1  0
  6 29  1  0
  6 30  1  0
  6 31  1  0
  7 32  1  0
  7 33  1  0
  7 34  1  0
  8 35  1  0
  8 36  1  0
  9 37  1  0
  9 38  1  0
 10 39  1  6
 11 40  1  0
 15 41  1  0
 16 42  1  0
 17 43  1  0
 18 44  1  0
 21 45  1  0
 21 46  1  0
 22 47  1  6
 23 48  1  0
 24 49  1  0
 25 50  1  0
M  END
>  <filename_input>  (22) 
7NPL_UKZ_docked.sdf

>  <pdb_id>  (22) 
7NPL_UKZ

>  <pose_rank>  (22) 
21

>  <num_atoms_heavy>  (22) 
27

>  <num_torsions>  (22) 
6

>  <pose>  (22) 
[-18.632353633962538, -4.031858120346651, 9.75126296382128, 0.20309163950810685, -2.4998886820804382, 1.4546699053343475, 0.46139544095983526, 2.7517174298792884, 0.294940672245553, 1.191106005410186, -1.2334220408088474, -1.135173275214229]

>  <energy>  (22) 
-211.36352997007842

>  <inter_energy>  (22) 
-259.4205602143437

>  <intra_energy>  (22) 
35.933724952225475

>  <rmsd>  (22) 
7.81081

>  <sdf_rank>  (22) 
0

$$$$

     RDKit          3D

 50 52  0  0  0  0  0  0  0  0999 V2000
  -11.5728   -6.7544    0.8492 C   0  0  0  0  0  0  0  0  0  0  0  0
  -12.5515   -6.6403    1.8429 C   0  0  0  0  0  0  0  0  0  0  0  0
  -18.7961   -6.6260    2.1077 C   0  0  0  0  0  0  0  0  0  0  0  0
  -19.9227   -4.4810    1.8171 C   0  0  0  0  0  0  0  0  0  0  0  0
  -18.7524   -6.8071    0.6999 C   0  0  0  0  0  0  0  0  0  0  0  0
  -18.1290   -8.0404    0.0604 C   0  0  0  0  0  0  0  0  0  0  0  0
  -15.2356   -7.5380    7.2157 C   0  0  0  0  0  0  0  0  0  0  0  0
  -15.3593   -7.1005    5.7608 C   0  0  0  0  0  0  0  0  0  0  0  0
  -16.5676   -7.7684    5.0817 C   0  0  0  0  0  0  0  0  0  0  0  0
  -16.8962   -7.1196    3.7358 C   0  0  1  0  0  0  0  0  0  0  0  0
  -15.7799   -7.3184    2.7733 N   0  0  0  0  0  0  0  0  0  0  0  0
  -14.9807   -6.2975    2.4377 C   0  0  0  0  0  0  0  0  0  0  0  0
  -15.1187   -5.1744    2.9286 O   0  0  0  0  0  0  0  0  0  0  0  0
  -13.9011   -6.5168    1.4413 C   0  0  0  0  0  0  0  0  0  0  0  0
  -14.2545   -6.5490    0.0822 C   0  0  0  0  0  0  0  0  0  0  0  0
  -13.2538   -6.6328   -0.8944 C   0  0  0  0  0  0  0  0  0  0  0  0
  -11.9157   -6.7761   -0.5006 C   0  0  0  0  0  0  0  0  0  0  0  0
  -10.3228   -6.9642    1.4604 N   0  0  0  0  0  0  0  0  0  0  0  0
  -10.4110   -6.9466    2.7842 C   0  0  0  0  0  0  0  0  0  0  0  0
   -9.4739   -7.1061    3.5642 O   0  0  0  0  0  0  0  0  0  0  0  0
  -11.8625   -6.7647    3.1693 C   0  0  0  0  0  0  0  0  0  0  0  0
  -18.1706   -7.6590    3.0639 C   0  0  1  0  0  0  0  0  0  0  0  0
  -19.1114   -8.0315    4.0775 O   0  0  0  0  0  0  0  0  0  0  0  0
  -19.3681   -5.4608    2.6491 C   0  0  0  0  0  0  0  0  0  0  0  0
  -19.8933   -4.6717    0.4414 C   0  0  0  0  0  0  0  0  0  0  0  0
  -19.2473   -5.7770   -0.1019 C   0  0  0  0  0  0  0  0  0  0  0  0
  -19.2063   -5.9900   -1.8256 Cl  0  0  0  0  0  0  0  0  0  0  0  0
  -20.3747   -3.5745    2.2460 H   0  0  0  0  0  0  0  0  0  0  0  0
  -17.7824   -8.7261    0.8475 H   0  0  0  0  0  0  0  0  0  0  0  0
  -18.8787   -8.5481   -0.5642 H   0  0  0  0  0  0  0  0  0  0  0  0
  -17.2756   -7.7378   -0.5642 H   0  0  0  0  0  0  0  0  0  0  0  0
  -15.4752   -6.6906    7.8750 H   0  0  0  0  0  0  0  0  0  0  0  0
  -15.9354   -8.3638    7.4110 H   0  0  0  0  0  0  0  0  0  0  0  0
  -14.2069   -7.8751    7.4110 H   0  0  0  0  0  0  0  0  0  0  0  0
  -15.4848   -6.0083    5.7236 H   0  0  0  0  0  0  0  0  0  0  0  0
  -14.4469   -7.4035    5.2264 H   0  0  0  0  0  0  0  0  0  0  0  0
  -16.3402   -8.8321    4.9177 H   0  0  0  0  0  0  0  0  0  0  0  0
  -17.4396   -7.6463    5.7410 H   0  0  0  0  0  0  0  0  0  0  0  0
  -17.0563   -6.0578    3.9744 H   0  0  0  0  0  0  0  0  0  0  0  0
  -15.6202   -8.2488    2.3614 H   0  0  0  0  0  0  0  0  0  0  0  0
  -15.3131   -6.5085   -0.2140 H   0  0  0  0  0  0  0  0  0  0  0  0
  -13.5157   -6.5866   -1.9618 H   0  0  0  0  0  0  0  0  0  0  0  0
  -11.1324   -6.9063   -1.2619 H   0  0  0  0  0  0  0  0  0  0  0  0
   -9.4451   -7.1134    0.9425 H   0  0  0  0  0  0  0  0  0  0  0  0
  -12.0002   -5.8555    3.7730 H   0  0  0  0  0  0  0  0  0  0  0  0
  -12.2537   -7.5881    3.7850 H   0  0  0  0  0  0  0  0  0  0  0  0
  -17.9000   -8.5374    2.4596 H   0  0  0  0  0  0  0  0  0  0  0  0
  -18.7140   -7.8742    4.9705 H   0  0  0  0  0  0  0  0  0  0  0  0
  -19.3797   -5.3176    3.7397 H   0  0  0  0  0  0  0  0  0  0  0  0
  -20.3839   -3.9442   -0.2221 H   0  0  0  0  0  0  0  0  0  0  0  0
  1  2  2  0
  1 17  1  0
  1 18  1  0
  2 14  1  0
  2 21  1  0
  3  5  2  0
  3 22  1  0
  3 24  1  0
  4 24  2  0
  4 25  1  0
  5  6  1  0
  5 26  1  0
  7  8  1  0
  8  9  1  0
 10  9  1  0
 10 11  1  0
 10 22  1  0
 11 12  1  0
 12 13  2  0
 12 14  1  0
 14 15  2  0
 15 16  1  0
 16 17  2  0
 18 19  1  0
 19 20  2  0
 19 21  1  0
 22 23  1  0
 25 26  2  0
 26 27  1  0
  4 28  1  0
  6 29  1  0
  6 30  1  0
  6 31  1  0
  7 32  1  0
  7 33  1  0
  7 34  1  0
  8 35  1  0
  8 36  1  0
  9 37  1  0
  9 38  1  0
 10 39  1  1
 11 40  1  0
 15 41  1  0
 16 42  1  0
 17 43  1  0
 18 44  1  0
 21 45  1  0
 21 46  1  0
 22 47  1  6
 23 48  1  0
 24 49  1  0
 25 50  1  0
M  END
>  <filename_input>  (23) 
7NPL_UKZ_docked.sdf

>  <pdb_id>  (23) 
7NPL_UKZ

>  <pose_rank>  (23) 
22

>  <num_atoms_heavy>  (23) 
27

>  <num_torsions>  (23) 
6

>  <pose>  (23) 
[-16.896209681947905, -7.119610881347037, 3.7358032101702423, 2.5383244501663476, 4.744004956637793, 0.49157390215618085, 0.6259541380272352, 1.7282126181953892, 1.6998162155894394, 0.43886601789186513, 0.0019442760634018833, -0.09614604505510192]

>  <energy>  (23) 
-217.87138667234046

>  <inter_energy>  (23) 
-218.13729842724842

>  <intra_energy>  (23) 
4.8220046897223545

>  <rmsd>  (23) 
12.3228

>  <sdf_rank>  (23) 
0

$$$$

     RDKit          3D

 50 52  0  0  0  0  0  0  0  0999 V2000
  -19.4637   -0.5680   12.7740 C   0  0  0  0  0  0  0  0  0  0  0  0
  -20.1569    0.4883   12.1722 C   0  0  0  0  0  0  0  0  0  0  0  0
  -25.0318    1.9819    9.1165 C   0  0  0  0  0  0  0  0  0  0  0  0
  -24.8802   -0.0139    7.7208 C   0  0  0  0  0  0  0  0  0  0  0  0
  -26.4419    2.0051    8.9509 C   0  0  0  0  0  0  0  0  0  0  0  0
  -27.3167    3.0701    9.5982 C   0  0  0  0  0  0  0  0  0  0  0  0
  -22.9645    5.9141   11.9403 C   0  0  0  0  0  0  0  0  0  0  0  0
  -22.1373    4.6964   11.5451 C   0  0  0  0  0  0  0  0  0  0  0  0
  -22.1811    4.4659   10.0246 C   0  0  0  0  0  0  0  0  0  0  0  0
  -22.8180    3.1210    9.6695 C   0  0  1  0  0  0  0  0  0  0  0  0
  -22.1360    2.0131   10.3901 N   0  0  0  0  0  0  0  0  0  0  0  0
  -20.8932    1.6451   10.0528 C   0  0  0  0  0  0  0  0  0  0  0  0
  -20.2629    2.2212    9.1629 O   0  0  0  0  0  0  0  0  0  0  0  0
  -20.2545    0.5070   10.7623 C   0  0  0  0  0  0  0  0  0  0  0  0
  -19.7056   -0.5284    9.9879 C   0  0  0  0  0  0  0  0  0  0  0  0
  -18.9898   -1.5583   10.6116 C   0  0  0  0  0  0  0  0  0  0  0  0
  -18.9078   -1.5923   12.0110 C   0  0  0  0  0  0  0  0  0  0  0  0
  -19.5705   -0.4477   14.1718 N   0  0  0  0  0  0  0  0  0  0  0  0
  -20.2441    0.6397   14.5240 C   0  0  0  0  0  0  0  0  0  0  0  0
  -20.4870    0.9864   15.6786 O   0  0  0  0  0  0  0  0  0  0  0  0
  -20.7177    1.3419   13.2706 C   0  0  0  0  0  0  0  0  0  0  0  0
  -24.3163    3.0190   10.0028 C   0  0  1  0  0  0  0  0  0  0  0  0
  -24.9192    4.3085    9.8443 O   0  0  0  0  0  0  0  0  0  0  0  0
  -24.2694    0.9668    8.5114 C   0  0  0  0  0  0  0  0  0  0  0  0
  -26.2580    0.0239    7.5474 C   0  0  0  0  0  0  0  0  0  0  0  0
  -27.0256    0.9701    8.2181 C   0  0  0  0  0  0  0  0  0  0  0  0
  -28.7493    0.9914    8.0019 Cl  0  0  0  0  0  0  0  0  0  0  0  0
  -24.2786   -0.8020    7.2444 H   0  0  0  0  0  0  0  0  0  0  0  0
  -27.2475    2.9859   10.6928 H   0  0  0  0  0  0  0  0  0  0  0  0
  -26.9732    4.0670    9.2847 H   0  0  0  0  0  0  0  0  0  0  0  0
  -28.3613    2.9269    9.2847 H   0  0  0  0  0  0  0  0  0  0  0  0
  -23.0124    5.9847   13.0370 H   0  0  0  0  0  0  0  0  0  0  0  0
  -22.4961    6.8229   11.5345 H   0  0  0  0  0  0  0  0  0  0  0  0
  -23.9820    5.8136   11.5345 H   0  0  0  0  0  0  0  0  0  0  0  0
  -21.0937    4.8554   11.8544 H   0  0  0  0  0  0  0  0  0  0  0  0
  -22.5584    3.8113   12.0446 H   0  0  0  0  0  0  0  0  0  0  0  0
  -22.7685    5.2714    9.5596 H   0  0  0  0  0  0  0  0  0  0  0  0
  -21.1467    4.4626    9.6504 H   0  0  0  0  0  0  0  0  0  0  0  0
  -22.7022    3.0417    8.5785 H   0  0  0  0  0  0  0  0  0  0  0  0
  -22.6234    1.5249   11.1550 H   0  0  0  0  0  0  0  0  0  0  0  0
  -19.8374   -0.5305    8.8958 H   0  0  0  0  0  0  0  0  0  0  0  0
  -18.4959   -2.3344   10.0084 H   0  0  0  0  0  0  0  0  0  0  0  0
  -18.4016   -2.4324   12.5091 H   0  0  0  0  0  0  0  0  0  0  0  0
  -19.1736   -1.1226   14.8410 H   0  0  0  0  0  0  0  0  0  0  0  0
  -20.3201    2.3661   13.2172 H   0  0  0  0  0  0  0  0  0  0  0  0
  -21.8114    1.4484   13.2208 H   0  0  0  0  0  0  0  0  0  0  0  0
  -24.4186    2.6804   11.0444 H   0  0  0  0  0  0  0  0  0  0  0  0
  -25.1018    4.6991   10.7355 H   0  0  0  0  0  0  0  0  0  0  0  0
  -23.1799    0.9431    8.6611 H   0  0  0  0  0  0  0  0  0  0  0  0
  -26.7447   -0.6987    6.8759 H   0  0  0  0  0  0  0  0  0  0  0  0
  1  2  2  0
  1 17  1  0
  1 18  1  0
  2 14  1  0
  2 21  1  0
  3  5  2  0
  3 22  1  0
  3 24  1  0
  4 24  2  0
  4 25  1  0
  5  6  1  0
  5 26  1  0
  7  8  1  0
  8  9  1  0
 10  9  1  0
 10 11  1  0
 10 22  1  0
 11 12  1  0
 12 13  2  0
 12 14  1  0
 14 15  2  0
 15 16  1  0
 16 17  2  0
 18 19  1  0
 19 20  2  0
 19 21  1  0
 22 23  1  0
 25 26  2  0
 26 27  1  0
  4 28  1  0
  6 29  1  0
  6 30  1  0
  6 31  1  0
  7 32  1  0
  7 33  1  0
  7 34  1  0
  8 35  1  0
  8 36  1  0
  9 37  1  0
  9 38  1  0
 10 39  1  6
 11 40  1  0
 15 41  1  0
 16 42  1  0
 17 43  1  0
 18 44  1  0
 21 45  1  0
 21 46  1  0
 22 47  1  1
 23 48  1  0
 24 49  1  0
 25 50  1  0
M  END
>  <filename_input>  (24) 
7NPL_UKZ_docked.sdf

>  <pdb_id>  (24) 
7NPL_UKZ

>  <pose_rank>  (24) 
23

>  <num_atoms_heavy>  (24) 
27

>  <num_torsions>  (24) 
6

>  <pose>  (24) 
[-22.818001875354604, 3.1210456835875946, 9.669460677672095, 3.7991677298500774, 0.7790923309823373, -0.45548577953512637, 1.2589071878620783, 2.594297525012845, -4.580661745504308, 2.0187934483786023, -2.061442283702934, 1.2122916747368846]

>  <energy>  (24) 
-153.9506558230241

>  <inter_energy>  (24) 
-215.64412339019725

>  <intra_energy>  (24) 
57.9339182323952

>  <rmsd>  (24) 
8.11204

>  <sdf_rank>  (24) 
0

$$$$

     RDKit          3D

 50 52  0  0  0  0  0  0  0  0999 V2000
  -12.9133   10.6766    9.1579 C   0  0  0  0  0  0  0  0  0  0  0  0
  -12.9275   10.2069   10.4761 C   0  0  0  0  0  0  0  0  0  0  0  0
  -17.0197   10.3566   15.9717 C   0  0  0  0  0  0  0  0  0  0  0  0
  -17.9459   11.3015   18.0220 C   0  0  0  0  0  0  0  0  0  0  0  0
  -18.1686   10.7711   15.2475 C   0  0  0  0  0  0  0  0  0  0  0  0
  -18.3248   10.5090   13.7557 C   0  0  0  0  0  0  0  0  0  0  0  0
  -11.4386   10.3105   17.1641 C   0  0  0  0  0  0  0  0  0  0  0  0
  -12.5370   11.0229   16.3835 C   0  0  0  0  0  0  0  0  0  0  0  0
  -13.3039   10.0397   15.4822 C   0  0  0  0  0  0  0  0  0  0  0  0
  -14.6568   10.6036   15.0442 C   0  0  1  0  0  0  0  0  0  0  0  0
  -14.6376   10.9432   13.5964 N   0  0  0  0  0  0  0  0  0  0  0  0
  -14.1061   10.0960   12.7057 C   0  0  0  0  0  0  0  0  0  0  0  0
  -13.6440    9.0031   13.0424 O   0  0  0  0  0  0  0  0  0  0  0  0
  -14.0629   10.4818   11.2718 C   0  0  0  0  0  0  0  0  0  0  0  0
  -15.1649   11.1724   10.7412 C   0  0  0  0  0  0  0  0  0  0  0  0
  -15.1138   11.6592    9.4286 C   0  0  0  0  0  0  0  0  0  0  0  0
  -13.9985   11.3715    8.6290 C   0  0  0  0  0  0  0  0  0  0  0  0
  -11.7480   10.2132    8.5198 N   0  0  0  0  0  0  0  0  0  0  0  0
  -10.9779    9.5146    9.3440 C   0  0  0  0  0  0  0  0  0  0  0  0
   -9.9047    8.9925    9.0480 O   0  0  0  0  0  0  0  0  0  0  0  0
  -11.6722    9.4130   10.6842 C   0  0  0  0  0  0  0  0  0  0  0  0
  -15.8449    9.6521   15.2671 C   0  0  1  0  0  0  0  0  0  0  0  0
  -15.4050    8.5280   16.0379 O   0  0  0  0  0  0  0  0  0  0  0  0
  -16.9154   10.6375   17.3458 C   0  0  0  0  0  0  0  0  0  0  0  0
  -19.0756   11.6889   17.3125 C   0  0  0  0  0  0  0  0  0  0  0  0
  -19.1427   11.4957   15.9368 C   0  0  0  0  0  0  0  0  0  0  0  0
  -20.5568   12.0020   15.0636 Cl  0  0  0  0  0  0  0  0  0  0  0  0
  -17.8623   11.5131   19.0982 H   0  0  0  0  0  0  0  0  0  0  0  0
  -18.8823    9.5730   13.6043 H   0  0  0  0  0  0  0  0  0  0  0  0
  -18.8740   11.3420   13.2926 H   0  0  0  0  0  0  0  0  0  0  0  0
  -17.3307   10.4228   13.2926 H   0  0  0  0  0  0  0  0  0  0  0  0
  -11.6199   10.4281   18.2426 H   0  0  0  0  0  0  0  0  0  0  0  0
  -11.4403    9.2411   16.9064 H   0  0  0  0  0  0  0  0  0  0  0  0
  -10.4628   10.7481   16.9064 H   0  0  0  0  0  0  0  0  0  0  0  0
  -13.2406   11.4835   17.0927 H   0  0  0  0  0  0  0  0  0  0  0  0
  -12.0717   11.7898   15.7469 H   0  0  0  0  0  0  0  0  0  0  0  0
  -12.6988    9.8316   14.5875 H   0  0  0  0  0  0  0  0  0  0  0  0
  -13.4879    9.1212   16.0589 H   0  0  0  0  0  0  0  0  0  0  0  0
  -14.8030   11.4906   15.6782 H   0  0  0  0  0  0  0  0  0  0  0  0
  -15.0363   11.8373   13.2761 H   0  0  0  0  0  0  0  0  0  0  0  0
  -16.0647   11.3304   11.3539 H   0  0  0  0  0  0  0  0  0  0  0  0
  -15.9421   12.2623    9.0285 H   0  0  0  0  0  0  0  0  0  0  0  0
  -13.9804   11.6963    7.5782 H   0  0  0  0  0  0  0  0  0  0  0  0
  -11.5201   10.3946    7.5318 H   0  0  0  0  0  0  0  0  0  0  0  0
  -11.0555    9.8508   11.4829 H   0  0  0  0  0  0  0  0  0  0  0  0
  -11.8626    8.3753   10.9957 H   0  0  0  0  0  0  0  0  0  0  0  0
  -16.2103    9.3163   14.2855 H   0  0  0  0  0  0  0  0  0  0  0  0
  -15.4867    8.7368   17.0022 H   0  0  0  0  0  0  0  0  0  0  0  0
  -16.0133   10.3318   17.8959 H   0  0  0  0  0  0  0  0  0  0  0  0
  -19.9219   12.1512   17.8417 H   0  0  0  0  0  0  0  0  0  0  0  0
  1  2  2  0
  1 17  1  0
  1 18  1  0
  2 14  1  0
  2 21  1  0
  3  5  2  0
  3 22  1  0
  3 24  1  0
  4 24  2  0
  4 25  1  0
  5  6  1  0
  5 26  1  0
  7  8  1  0
  8  9  1  0
 10  9  1  0
 10 11  1  0
 10 22  1  0
 11 12  1  0
 12 13  2  0
 12 14  1  0
 14 15  2  0
 15 16  1  0
 16 17  2  0
 18 19  1  0
 19 20  2  0
 19 21  1  0
 22 23  1  0
 25 26  2  0
 26 27  1  0
  4 28  1  0
  6 29  1  0
  6 30  1  0
  6 31  1  0
  7 32  1  0
  7 33  1  0
  7 34  1  0
  8 35  1  0
  8 36  1  0
  9 37  1  0
  9 38  1  0
 10 39  1  1
 11 40  1  0
 15 41  1  0
 16 42  1  0
 17 43  1  0
 18 44  1  0
 21 45  1  0
 21 46  1  0
 22 47  1  6
 23 48  1  0
 24 49  1  0
 25 50  1  0
M  END
>  <filename_input>  (25) 
7NPL_UKZ_docked.sdf

>  <pdb_id>  (25) 
7NPL_UKZ

>  <pose_rank>  (25) 
24

>  <num_atoms_heavy>  (25) 
27

>  <num_torsions>  (25) 
6

>  <pose>  (25) 
[-14.656836650205063, 10.60361369773026, 15.044247399151002, 0.8604301820968683, 0.19508590230904874, -5.902375387864553, 3.2765801540243484, -0.31583085702180824, 1.2925302817302837, 0.33171543860371844, 0.7871592715477348, -0.19432613359314074]

>  <energy>  (25) 
-173.43820174784548

>  <inter_energy>  (25) 
-185.34960818405676

>  <intra_energy>  (25) 
38.15994300726659

>  <rmsd>  (25) 
11.5259

>  <sdf_rank>  (25) 
0

$$$$

     RDKit          3D

 50 52  0  0  0  0  0  0  0  0999 V2000
  -18.7780    4.1210    3.8390 C   0  0  0  0  0  0  0  0  0  0  0  0
  -18.8300    3.9070    5.2210 C   0  0  0  0  0  0  0  0  0  0  0  0
  -19.6970   -0.1420   10.6870 C   0  0  0  0  0  0  0  0  0  0  0  0
  -19.6560   -1.9160   12.3620 C   0  0  0  0  0  0  0  0  0  0  0  0
  -20.0880    0.7990   11.6760 C   0  0  0  0  0  0  0  0  0  0  0  0
  -20.3260    2.2670   11.3490 C   0  0  0  0  0  0  0  0  0  0  0  0
  -14.4420   -0.3980    9.8680 C   0  0  0  0  0  0  0  0  0  0  0  0
  -15.5230    0.5210    9.3110 C   0  0  0  0  0  0  0  0  0  0  0  0
  -16.9130   -0.1300    9.4170 C   0  0  0  0  0  0  0  0  0  0  0  0
  -18.0290    0.8410    9.0270 C   0  0  1  0  0  0  0  0  0  0  0  0
  -17.9110    1.2250    7.5950 N   0  0  0  0  0  0  0  0  0  0  0  0
  -18.1970    2.4720    7.1990 C   0  0  0  0  0  0  0  0  0  0  0  0
  -18.5370    3.3470    7.9990 O   0  0  0  0  0  0  0  0  0  0  0  0
  -18.1110    2.8140    5.7560 C   0  0  0  0  0  0  0  0  0  0  0  0
  -17.3320    1.9890    4.9280 C   0  0  0  0  0  0  0  0  0  0  0  0
  -17.3210    2.2050    3.5440 C   0  0  0  0  0  0  0  0  0  0  0  0
  -18.0160    3.3000    3.0110 C   0  0  0  0  0  0  0  0  0  0  0  0
  -19.4740    5.3050    3.5330 N   0  0  0  0  0  0  0  0  0  0  0  0
  -20.0170    5.8520    4.6130 C   0  0  0  0  0  0  0  0  0  0  0  0
  -20.6760    6.8900    4.6330 O   0  0  0  0  0  0  0  0  0  0  0  0
  -19.6340    5.0230    5.8190 C   0  0  0  0  0  0  0  0  0  0  0  0
  -19.4510    0.2900    9.2290 C   0  0  1  0  0  0  0  0  0  0  0  0
  -19.6540   -0.8160    8.3420 O   0  0  0  0  0  0  0  0  0  0  0  0
  -19.4730   -1.4840   11.0430 C   0  0  0  0  0  0  0  0  0  0  0  0
  -20.0560   -0.9950   13.3220 C   0  0  0  0  0  0  0  0  0  0  0  0
  -20.1890    0.3500   12.9940 C   0  0  0  0  0  0  0  0  0  0  0  0
  -20.6740    1.4900   14.2120 Cl  0  0  0  0  0  0  0  0  0  0  0  0
  -19.4857   -2.9682   12.6340 H   0  0  0  0  0  0  0  0  0  0  0  0
  -20.4190    2.8403   12.2832 H   0  0  0  0  0  0  0  0  0  0  0  0
  -19.4789    2.6543   10.7638 H   0  0  0  0  0  0  0  0  0  0  0  0
  -21.2521    2.3668   10.7638 H   0  0  0  0  0  0  0  0  0  0  0  0
  -14.4707   -0.3736   10.9673 H   0  0  0  0  0  0  0  0  0  0  0  0
  -14.6193   -1.4261    9.5193 H   0  0  0  0  0  0  0  0  0  0  0  0
  -13.4559   -0.0575    9.5193 H   0  0  0  0  0  0  0  0  0  0  0  0
  -15.5228    1.4621    9.8805 H   0  0  0  0  0  0  0  0  0  0  0  0
  -15.3066    0.7111    8.2494 H   0  0  0  0  0  0  0  0  0  0  0  0
  -16.9496   -1.0015    8.7468 H   0  0  0  0  0  0  0  0  0  0  0  0
  -17.0709   -0.4280   10.4640 H   0  0  0  0  0  0  0  0  0  0  0  0
  -17.8939    1.6998    9.7010 H   0  0  0  0  0  0  0  0  0  0  0  0
  -17.6068    0.5262    6.9022 H   0  0  0  0  0  0  0  0  0  0  0  0
  -16.7329    1.1764    5.3647 H   0  0  0  0  0  0  0  0  0  0  0  0
  -16.7715    1.5210    2.8806 H   0  0  0  0  0  0  0  0  0  0  0  0
  -17.9592    3.5118    1.9331 H   0  0  0  0  0  0  0  0  0  0  0  0
  -19.5525    5.6996    2.5848 H   0  0  0  0  0  0  0  0  0  0  0  0
  -20.5267    4.6360    6.3322 H   0  0  0  0  0  0  0  0  0  0  0  0
  -19.0825    5.5946    6.5800 H   0  0  0  0  0  0  0  0  0  0  0  0
  -20.1698    1.0914    9.0030 H   0  0  0  0  0  0  0  0  0  0  0  0
  -19.8051   -1.6394    8.8705 H   0  0  0  0  0  0  0  0  0  0  0  0
  -19.1501   -2.2030   10.2757 H   0  0  0  0  0  0  0  0  0  0  0  0
  -20.2688   -1.3314   14.3474 H   0  0  0  0  0  0  0  0  0  0  0  0
  1  2  2  0
  1 17  1  0
  1 18  1  0
  2 14  1  0
  2 21  1  0
  3  5  2  0
  3 22  1  0
  3 24  1  0
  4 24  2  0
  4 25  1  0
  5  6  1  0
  5 26  1  0
  7  8  1  0
  8  9  1  0
 10  9  1  0
 10 11  1  0
 10 22  1  0
 11 12  1  0
 12 13  2  0
 12 14  1  0
 14 15  2  0
 15 16  1  0
 16 17  2  0
 18 19  1  0
 19 20  2  0
 19 21  1  0
 22 23  1  0
 25 26  2  0
 26 27  1  0
  4 28  1  0
  6 29  1  0
  6 30  1  0
  6 31  1  0
  7 32  1  0
  7 33  1  0
  7 34  1  0
  8 35  1  0
  8 36  1  0
  9 37  1  0
  9 38  1  0
 10 39  1  1
 11 40  1  0
 15 41  1  0
 16 42  1  0
 17 43  1  0
 18 44  1  0
 21 45  1  0
 21 46  1  0
 22 47  1  6
 23 48  1  0
 24 49  1  0
 25 50  1  0
M  END
>  <filename_input>  (26) 
7NPL_UKZ_docked.sdf

>  <pdb_id>  (26) 
7NPL_UKZ

>  <pose_rank>  (26) 
25

>  <num_atoms_heavy>  (26) 
27

>  <num_torsions>  (26) 
6

>  <pose>  (26) 
[-18.029, 0.841, 9.027, 1e-06, 1e-06, 1e-06, 0.0, 0.0, 0.0, 0.0, 0.0, 0.0]

>  <energy>  (26) 
-911.0677789807464

>  <inter_energy>  (26) 
-937.0300430975491

>  <intra_energy>  (26) 
21.79184532936226

>  <rmsd>  (26) 
0.0

>  <sdf_rank>  (26) 
0

$$$$
