
     RDKit          3D

 85 90  0  0  0  0  0  0  0  0999 V2000
    1.5508    9.6522   45.0926 C   0  0  0  0  0  0  0  0  0  0  0  0
    2.2383    8.3786   45.5892 C   0  0  2  0  0  0  0  0  0  0  0  0
    5.8662    9.1294   45.4475 C   0  0  0  0  0  0  0  0  0  0  0  0
    7.0658    9.8024   45.4572 C   0  0  0  0  0  0  0  0  0  0  0  0
    8.2289    9.1490   45.1132 C   0  0  0  0  0  0  0  0  0  0  0  0
    8.2152    7.8046   44.7472 C   0  0  0  0  0  0  0  0  0  0  0  0
    5.8311    7.7940   45.0867 C   0  0  0  0  0  0  0  0  0  0  0  0
    4.4253    7.3330   45.1642 C   0  0  0  0  0  0  0  0  0  0  0  0
    9.5042    7.1254   44.4448 C   0  0  0  0  0  0  0  0  0  0  0  0
   11.5663    7.3156   43.4396 C   0  0  0  0  0  0  0  0  0  0  0  0
   11.2325   11.6125   42.3521 C   0  0  0  0  0  0  0  0  0  0  0  0
   10.4247   10.4334   40.4858 C   0  0  0  0  0  0  0  0  0  0  0  0
   10.8710    9.0892   41.0353 C   0  0  0  0  0  0  0  0  0  0  0  0
   11.1937    5.4242   44.6476 C   0  0  0  0  0  0  0  0  0  0  0  0
    9.9235    5.8914   44.9608 C   0  0  0  0  0  0  0  0  0  0  0  0
    1.8957    8.0739   47.0478 C   0  0  0  0  0  0  0  0  0  0  0  0
   -0.9920    6.6154   48.6004 C   0  0  0  0  0  0  0  0  0  0  0  0
   -1.5872   10.4640   50.7643 C   0  0  0  0  0  0  0  0  0  0  0  0
   -1.9599   11.3336   49.7786 C   0  0  0  0  0  0  0  0  0  0  0  0
   -1.6770   11.0209   48.4411 C   0  0  0  0  0  0  0  0  0  0  0  0
   -2.3350   13.2476   47.5548 C   0  0  0  0  0  0  0  0  0  0  0  0
   -3.8252   13.8880   44.1240 C   0  0  0  0  0  0  0  0  0  0  0  0
    3.6776    8.4400   45.3880 N   0  0  0  0  0  0  0  0  0  0  0  0
    4.4774    9.6086   45.7424 C   0  0  0  0  0  0  0  0  0  0  0  0
    6.9893    7.1204   44.7509 C   0  0  0  0  0  0  0  0  0  0  0  0
    3.9785    6.1958   45.0572 O   0  0  0  0  0  0  0  0  0  0  0  0
   10.3437    7.8419   43.7080 N   0  0  0  0  0  0  0  0  0  0  0  0
   12.3924    8.0318   42.6601 N   0  0  0  0  0  0  0  0  0  0  0  0
   12.0553    9.2653   41.9856 C   0  0  2  0  0  0  0  0  0  0  0  0
   11.7428   10.3483   43.0155 C   0  0  0  0  0  0  0  0  0  0  0  0
   10.0783   11.3444   41.5427 O   0  0  0  0  0  0  0  0  0  0  0  0
   12.0121    6.1148   43.8664 N   0  0  0  0  0  0  0  0  0  0  0  0
    8.9103    4.9264   45.9818 Cl  0  0  0  0  0  0  0  0  0  0  0  0
    2.7606    7.9600   47.9152 O   0  0  0  0  0  0  0  0  0  0  0  0
    0.5948    7.9323   47.2881 N   0  0  0  0  0  0  0  0  0  0  0  0
    0.0095    7.7726   48.6160 C   0  0  1  0  0  0  0  0  0  0  0  0
   -0.8760    5.8692   47.3938 O   0  0  0  0  0  0  0  0  0  0  0  0
   -0.6783    9.0417   49.0812 C   0  0  0  0  0  0  0  0  0  0  0  0
   -0.9383    9.2983   50.4149 C   0  0  0  0  0  0  0  0  0  0  0  0
   -1.0478    9.8735   48.1081 N   0  0  0  0  0  0  0  0  0  0  0  0
   -2.0107   11.8264   47.3869 N   0  0  0  0  0  0  0  0  0  0  0  0
   -3.3672   13.6857   46.5363 C   0  0  0  0  0  0  0  0  0  0  0  0
   -2.8809   13.3860   45.1589 N   0  0  1  0  0  0  0  0  0  0  0  0
   -2.6433   11.9181   45.0147 C   0  0  0  0  0  0  0  0  0  0  0  0
   -1.6043   11.4771   46.0232 C   0  0  0  0  0  0  0  0  0  0  0  0
    1.2262   10.2536   45.9546 H   0  0  0  0  0  0  0  0  0  0  0  0
    2.2563   10.2360   44.4831 H   0  0  0  0  0  0  0  0  0  0  0  0
    0.6756    9.3827   44.4831 H   0  0  0  0  0  0  0  0  0  0  0  0
    1.8488    7.5466   44.9841 H   0  0  0  0  0  0  0  0  0  0  0  0
    7.0965   10.8649   45.7403 H   0  0  0  0  0  0  0  0  0  0  0  0
    9.1826    9.6968   45.1276 H   0  0  0  0  0  0  0  0  0  0  0  0
   10.9636   12.3424   43.1299 H   0  0  0  0  0  0  0  0  0  0  0  0
   12.0272   12.0111   41.7044 H   0  0  0  0  0  0  0  0  0  0  0  0
   11.2438   10.8674   39.8935 H   0  0  0  0  0  0  0  0  0  0  0  0
    9.5334   10.2731   39.8615 H   0  0  0  0  0  0  0  0  0  0  0  0
   10.0355    8.6256   41.5804 H   0  0  0  0  0  0  0  0  0  0  0  0
   11.1799    8.4472   40.1973 H   0  0  0  0  0  0  0  0  0  0  0  0
   11.5278    4.4595   45.0570 H   0  0  0  0  0  0  0  0  0  0  0  0
   -0.7926    5.9530   49.4557 H   0  0  0  0  0  0  0  0  0  0  0  0
   -2.0102    7.0264   48.6671 H   0  0  0  0  0  0  0  0  0  0  0  0
   -1.8012   10.6900   51.8194 H   0  0  0  0  0  0  0  0  0  0  0  0
   -2.4773   12.2708   50.0318 H   0  0  0  0  0  0  0  0  0  0  0  0
   -2.7348   13.4096   48.5666 H   0  0  0  0  0  0  0  0  0  0  0  0
   -1.4193   13.8389   47.4067 H   0  0  0  0  0  0  0  0  0  0  0  0
   -4.6946   14.3502   44.6143 H   0  0  0  0  0  0  0  0  0  0  0  0
   -3.3178   14.6354   43.4964 H   0  0  0  0  0  0  0  0  0  0  0  0
   -4.1610   13.0493   43.4964 H   0  0  0  0  0  0  0  0  0  0  0  0
    4.3601    9.8671   46.8052 H   0  0  0  0  0  0  0  0  0  0  0  0
    4.1964   10.5227   45.1988 H   0  0  0  0  0  0  0  0  0  0  0  0
    6.9513    6.0531   44.4876 H   0  0  0  0  0  0  0  0  0  0  0  0
   13.3487    7.6713   42.5317 H   0  0  0  0  0  0  0  0  0  0  0  0
   12.9235    9.5669   41.3812 H   0  0  0  0  0  0  0  0  0  0  0  0
   12.6592   10.5836   43.5767 H   0  0  0  0  0  0  0  0  0  0  0  0
   10.9591    9.9701   43.6884 H   0  0  0  0  0  0  0  0  0  0  0  0
   -0.0444    7.9355   46.4804 H   0  0  0  0  0  0  0  0  0  0  0  0
    0.8240    7.5535   49.3221 H   0  0  0  0  0  0  0  0  0  0  0  0
   -0.7276    4.9144   47.6091 H   0  0  0  0  0  0  0  0  0  0  0  0
   -0.6308    8.5801   51.1892 H   0  0  0  0  0  0  0  0  0  0  0  0
   -4.3088   13.1460   46.7161 H   0  0  0  0  0  0  0  0  0  0  0  0
   -3.5346   14.7685   46.6334 H   0  0  0  0  0  0  0  0  0  0  0  0
   -1.9892   13.8801   45.0123 H   0  0  0  0  0  0  0  0  0  0  0  0
   -3.5828   11.3747   45.1937 H   0  0  0  0  0  0  0  0  0  0  0  0
   -2.2844   11.7015   43.9977 H   0  0  0  0  0  0  0  0  0  0  0  0
   -0.6492   11.9726   45.7950 H   0  0  0  0  0  0  0  0  0  0  0  0
   -1.4979   10.3841   45.9597 H   0  0  0  0  0  0  0  0  0  0  0  0
  2  1  1  0
  2 16  1  0
  2 23  1  0
  3  4  2  0
  3  7  1  0
  3 24  1  0
  4  5  1  0
  5  6  2  0
  6  9  1  0
  6 25  1  0
  7  8  1  0
  7 25  2  0
  8 23  1  0
  8 26  2  0
  9 15  1  0
  9 27  2  0
 10 27  1  0
 10 28  1  0
 10 32  2  0
 11 30  1  0
 11 31  1  0
 12 13  1  0
 12 31  1  0
 13 29  1  0
 14 15  2  0
 14 32  1  0
 15 33  1  0
 16 34  2  0
 16 35  1  0
 36 17  1  0
 17 37  1  0
 18 19  2  0
 18 39  1  0
 19 20  1  0
 20 40  2  0
 20 41  1  0
 21 41  1  0
 21 42  1  0
 43 22  1  0
 23 24  1  0
 29 28  1  0
 29 30  1  0
 35 36  1  0
 36 38  1  0
 38 39  2  0
 38 40  1  0
 41 45  1  0
 42 43  1  0
 43 44  1  0
 44 45  1  0
  1 46  1  0
  1 47  1  0
  1 48  1  0
  2 49  1  6
  4 50  1  0
  5 51  1  0
 11 52  1  0
 11 53  1  0
 12 54  1  0
 12 55  1  0
 13 56  1  0
 13 57  1  0
 14 58  1  0
 17 59  1  0
 17 60  1  0
 18 61  1  0
 19 62  1  0
 21 63  1  0
 21 64  1  0
 22 65  1  0
 22 66  1  0
 22 67  1  0
 24 68  1  0
 24 69  1  0
 25 70  1  0
 28 71  1  0
 29 72  1  6
 30 73  1  0
 30 74  1  0
 35 75  1  0
 36 76  1  1
 37 77  1  0
 39 78  1  0
 42 79  1  0
 42 80  1  0
 43 81  1  6
 44 82  1  0
 44 83  1  0
 45 84  1  0
 45 85  1  0
M  CHG  1  43   1
M  END
>  <filename_input>  (1) 
7NR8_UOE_docked.sdf

>  <pdb_id>  (1) 
7NR8_UOE

>  <pose_rank>  (1) 
0

>  <num_atoms_heavy>  (1) 
45

>  <num_torsions>  (1) 
7

>  <pose>  (1) 
[5.866185662441668, 9.129435352205055, 45.44746774839368, 0.7981648123320815, -1.568633723519562, -5.979918160738056, -0.03768821014212096, 2.4317563134035467, 0.11073133656768722, -0.012360748551283593, -0.12770365969831896, -0.03406781480570144, 1.205853070304596]

>  <energy>  (1) 
-1573.999051754945

>  <inter_energy>  (1) 
-1604.6877761456672

>  <intra_energy>  (1) 
48.71931343082524

>  <rmsd>  (1) 
0.901855

>  <sdf_rank>  (1) 
0

$$$$

     RDKit          3D

 85 90  0  0  0  0  0  0  0  0999 V2000
    1.6061    9.4776   44.2955 C   0  0  0  0  0  0  0  0  0  0  0  0
    2.2419    8.5402   45.3243 C   0  0  2  0  0  0  0  0  0  0  0  0
    5.8980    9.1121   45.5514 C   0  0  0  0  0  0  0  0  0  0  0  0
    7.1201    9.7102   45.7535 C   0  0  0  0  0  0  0  0  0  0  0  0
    8.2778    9.0620   45.3825 C   0  0  0  0  0  0  0  0  0  0  0  0
    8.2364    7.7987   44.7961 C   0  0  0  0  0  0  0  0  0  0  0  0
    5.8352    7.8579   44.9702 C   0  0  0  0  0  0  0  0  0  0  0  0
    4.4099    7.4651   44.8757 C   0  0  0  0  0  0  0  0  0  0  0  0
    9.5154    7.1116   44.4701 C   0  0  0  0  0  0  0  0  0  0  0  0
   11.5469    7.2778   43.4003 C   0  0  0  0  0  0  0  0  0  0  0  0
   12.5052   10.5993   39.8692 C   0  0  0  0  0  0  0  0  0  0  0  0
   12.0987   11.6977   41.9075 C   0  0  0  0  0  0  0  0  0  0  0  0
   12.3090   10.4358   42.7270 C   0  0  0  0  0  0  0  0  0  0  0  0
   11.2091    5.4130   44.6589 C   0  0  0  0  0  0  0  0  0  0  0  0
    9.9491    5.8884   44.9996 C   0  0  0  0  0  0  0  0  0  0  0  0
    1.7737    8.8483   46.7468 C   0  0  0  0  0  0  0  0  0  0  0  0
   -0.5805    6.8216   48.8043 C   0  0  0  0  0  0  0  0  0  0  0  0
   -2.1549   10.8319   47.6792 C   0  0  0  0  0  0  0  0  0  0  0  0
   -2.0283   11.5940   48.8062 C   0  0  0  0  0  0  0  0  0  0  0  0
   -1.1543   11.1812   49.8222 C   0  0  0  0  0  0  0  0  0  0  0  0
   -1.9071   12.8899   51.4624 C   0  0  0  0  0  0  0  0  0  0  0  0
    0.2730   14.4732   54.1346 C   0  0  0  0  0  0  0  0  0  0  0  0
    3.6935    8.5580   45.2321 N   0  0  0  0  0  0  0  0  0  0  0  0
    4.5120    9.6086   45.8299 C   0  0  0  0  0  0  0  0  0  0  0  0
    6.9866    7.1887   44.6036 C   0  0  0  0  0  0  0  0  0  0  0  0
    3.9261    6.3860   44.5500 O   0  0  0  0  0  0  0  0  0  0  0  0
   10.3331    7.8112   43.6936 N   0  0  0  0  0  0  0  0  0  0  0  0
   12.3499    7.9762   42.5816 N   0  0  0  0  0  0  0  0  0  0  0  0
   11.9936    9.1955   41.8911 C   0  0  2  0  0  0  0  0  0  0  0  0
   12.7279    9.2652   40.5542 C   0  0  0  0  0  0  0  0  0  0  0  0
   12.9010   11.6893   40.7145 O   0  0  0  0  0  0  0  0  0  0  0  0
   12.0044    6.0858   43.8392 N   0  0  0  0  0  0  0  0  0  0  0  0
    8.9660    4.9466   46.0706 Cl  0  0  0  0  0  0  0  0  0  0  0  0
    2.1287    9.8601   47.3500 O   0  0  0  0  0  0  0  0  0  0  0  0
    0.9681    7.9284   47.2709 N   0  0  0  0  0  0  0  0  0  0  0  0
    0.2850    8.0589   48.5545 C   0  0  1  0  0  0  0  0  0  0  0  0
   -1.0546    6.2857   47.5738 O   0  0  0  0  0  0  0  0  0  0  0  0
   -0.5750    9.3071   48.6070 C   0  0  0  0  0  0  0  0  0  0  0  0
   -1.4175    9.6714   47.5727 C   0  0  0  0  0  0  0  0  0  0  0  0
   -0.4308   10.0470   49.7057 N   0  0  0  0  0  0  0  0  0  0  0  0
   -0.9599   11.8762   50.9843 N   0  0  0  0  0  0  0  0  0  0  0  0
   -1.1818   13.9930   52.2052 C   0  0  0  0  0  0  0  0  0  0  0  0
   -0.3800   13.4125   53.3204 N   0  0  1  0  0  0  0  0  0  0  0  0
    0.6226   12.4490   52.7742 C   0  0  0  0  0  0  0  0  0  0  0  0
   -0.0977   11.3385   52.0399 C   0  0  0  0  0  0  0  0  0  0  0  0
    1.0624   10.2793   44.8166 H   0  0  0  0  0  0  0  0  0  0  0  0
    2.3928    9.9178   43.6651 H   0  0  0  0  0  0  0  0  0  0  0  0
    0.9062    8.9095   43.6651 H   0  0  0  0  0  0  0  0  0  0  0  0
    1.9017    7.5219   45.0845 H   0  0  0  0  0  0  0  0  0  0  0  0
    7.1731   10.7085   46.2123 H   0  0  0  0  0  0  0  0  0  0  0  0
    9.2495    9.5490   45.5519 H   0  0  0  0  0  0  0  0  0  0  0  0
   13.0975   10.6303   38.9428 H   0  0  0  0  0  0  0  0  0  0  0  0
   11.4327   10.7022   39.6475 H   0  0  0  0  0  0  0  0  0  0  0  0
   11.0380   11.7680   41.6247 H   0  0  0  0  0  0  0  0  0  0  0  0
   12.3981   12.5613   42.5194 H   0  0  0  0  0  0  0  0  0  0  0  0
   13.3564   10.3910   43.0602 H   0  0  0  0  0  0  0  0  0  0  0  0
   11.6351   10.4598   43.5960 H   0  0  0  0  0  0  0  0  0  0  0  0
   11.5547    4.4568   45.0787 H   0  0  0  0  0  0  0  0  0  0  0  0
    0.0193    6.0596   49.3234 H   0  0  0  0  0  0  0  0  0  0  0  0
   -1.4439    7.1112   49.4214 H   0  0  0  0  0  0  0  0  0  0  0  0
   -2.8339   11.1391   46.8701 H   0  0  0  0  0  0  0  0  0  0  0  0
   -2.6068   12.5232   48.9156 H   0  0  0  0  0  0  0  0  0  0  0  0
   -2.4376   13.3227   50.6015 H   0  0  0  0  0  0  0  0  0  0  0  0
   -2.6205   12.4110   52.1492 H   0  0  0  0  0  0  0  0  0  0  0  0
    0.1365   14.2514   55.2033 H   0  0  0  0  0  0  0  0  0  0  0  0
    1.3475   14.5053   53.9011 H   0  0  0  0  0  0  0  0  0  0  0  0
   -0.1822   15.4470   53.9011 H   0  0  0  0  0  0  0  0  0  0  0  0
    4.3268    9.6946   46.9108 H   0  0  0  0  0  0  0  0  0  0  0  0
    4.3096   10.6132   45.4300 H   0  0  0  0  0  0  0  0  0  0  0  0
    6.9247    6.1827   44.1629 H   0  0  0  0  0  0  0  0  0  0  0  0
   13.3017    7.6119   42.4325 H   0  0  0  0  0  0  0  0  0  0  0  0
   10.9074    9.1795   41.7180 H   0  0  0  0  0  0  0  0  0  0  0  0
   12.3583    8.4613   39.9006 H   0  0  0  0  0  0  0  0  0  0  0  0
   13.8051    9.1495   40.7446 H   0  0  0  0  0  0  0  0  0  0  0  0
    0.8155    7.0632   46.7332 H   0  0  0  0  0  0  0  0  0  0  0  0
    1.0506    8.1451   49.3396 H   0  0  0  0  0  0  0  0  0  0  0  0
   -1.6991    5.5571   47.7577 H   0  0  0  0  0  0  0  0  0  0  0  0
   -1.4988    9.0419   46.6742 H   0  0  0  0  0  0  0  0  0  0  0  0
   -0.5118   14.5209   51.5107 H   0  0  0  0  0  0  0  0  0  0  0  0
   -1.9194   14.6969   52.6181 H   0  0  0  0  0  0  0  0  0  0  0  0
   -1.0166   12.9038   53.9504 H   0  0  0  0  0  0  0  0  0  0  0  0
    1.2948   12.9732   52.0790 H   0  0  0  0  0  0  0  0  0  0  0  0
    1.2114   12.0229   53.5999 H   0  0  0  0  0  0  0  0  0  0  0  0
   -0.7147   10.7758   52.7559 H   0  0  0  0  0  0  0  0  0  0  0  0
    0.6533   10.6817   51.5766 H   0  0  0  0  0  0  0  0  0  0  0  0
  2  1  1  0
  2 16  1  0
  2 23  1  0
  3  4  2  0
  3  7  1  0
  3 24  1  0
  4  5  1  0
  5  6  2  0
  6  9  1  0
  6 25  1  0
  7  8  1  0
  7 25  2  0
  8 23  1  0
  8 26  2  0
  9 15  1  0
  9 27  2  0
 10 27  1  0
 10 28  1  0
 10 32  2  0
 11 30  1  0
 11 31  1  0
 12 13  1  0
 12 31  1  0
 13 29  1  0
 14 15  2  0
 14 32  1  0
 15 33  1  0
 16 34  2  0
 16 35  1  0
 36 17  1  0
 17 37  1  0
 18 19  2  0
 18 39  1  0
 19 20  1  0
 20 40  2  0
 20 41  1  0
 21 41  1  0
 21 42  1  0
 43 22  1  0
 23 24  1  0
 29 28  1  0
 29 30  1  0
 35 36  1  0
 36 38  1  0
 38 39  2  0
 38 40  1  0
 41 45  1  0
 42 43  1  0
 43 44  1  0
 44 45  1  0
  1 46  1  0
  1 47  1  0
  1 48  1  0
  2 49  1  6
  4 50  1  0
  5 51  1  0
 11 52  1  0
 11 53  1  0
 12 54  1  0
 12 55  1  0
 13 56  1  0
 13 57  1  0
 14 58  1  0
 17 59  1  0
 17 60  1  0
 18 61  1  0
 19 62  1  0
 21 63  1  0
 21 64  1  0
 22 65  1  0
 22 66  1  0
 22 67  1  0
 24 68  1  0
 24 69  1  0
 25 70  1  0
 28 71  1  0
 29 72  1  6
 30 73  1  0
 30 74  1  0
 35 75  1  0
 36 76  1  1
 37 77  1  0
 39 78  1  0
 42 79  1  0
 42 80  1  0
 43 81  1  1
 44 82  1  0
 44 83  1  0
 45 84  1  0
 45 85  1  0
M  CHG  1  43   1
M  END
>  <filename_input>  (2) 
7NR8_UOE_docked.sdf

>  <pdb_id>  (2) 
7NR8_UOE

>  <pose_rank>  (2) 
1

>  <num_atoms_heavy>  (2) 
45

>  <num_torsions>  (2) 
7

>  <pose>  (2) 
[5.898011169127561, 9.11205955292098, 45.5514072307085, -5.696337560054953, 2.2155825597750516, -0.04580056540437366, -0.25612544473648136, -1.2660754176959501, -5.579662600627513, 0.8857993898779599, -0.9763535464845821, 3.5472056870086712, 0.4665972000081658]

>  <energy>  (2) 
-1411.1410647403054

>  <inter_energy>  (2) 
-1452.4062312749932

>  <intra_energy>  (2) 
39.49928282956653

>  <rmsd>  (2) 
3.05914

>  <sdf_rank>  (2) 
0

$$$$

     RDKit          3D

 85 90  0  0  0  0  0  0  0  0999 V2000
    1.7245    7.5334   44.8742 C   0  0  0  0  0  0  0  0  0  0  0  0
    2.3792    8.7421   45.5465 C   0  0  2  0  0  0  0  0  0  0  0  0
    6.0312    9.3595   45.3811 C   0  0  0  0  0  0  0  0  0  0  0  0
    7.2542    9.9889   45.3768 C   0  0  0  0  0  0  0  0  0  0  0  0
    8.3917    9.2890   45.0384 C   0  0  0  0  0  0  0  0  0  0  0  0
    8.3282    7.9407   44.6925 C   0  0  0  0  0  0  0  0  0  0  0  0
    5.9466    8.0211   45.0403 C   0  0  0  0  0  0  0  0  0  0  0  0
    4.5255    7.6122   45.1294 C   0  0  0  0  0  0  0  0  0  0  0  0
    9.5907    7.2112   44.3957 C   0  0  0  0  0  0  0  0  0  0  0  0
   11.6823    7.3355   43.4423 C   0  0  0  0  0  0  0  0  0  0  0  0
   11.0175   10.4042   40.1993 C   0  0  0  0  0  0  0  0  0  0  0  0
   13.2139   11.1308   40.6165 C   0  0  0  0  0  0  0  0  0  0  0  0
   13.5565    9.8983   41.4361 C   0  0  0  0  0  0  0  0  0  0  0  0
   11.1936    5.4260   44.5784 C   0  0  0  0  0  0  0  0  0  0  0  0
    9.9398    5.9427   44.8793 C   0  0  0  0  0  0  0  0  0  0  0  0
    1.7490   10.0600   45.0953 C   0  0  0  0  0  0  0  0  0  0  0  0
   -1.3828   11.6131   46.3747 C   0  0  0  0  0  0  0  0  0  0  0  0
   -0.7924   10.5192   41.7166 C   0  0  0  0  0  0  0  0  0  0  0  0
   -1.9723   11.1709   41.4928 C   0  0  0  0  0  0  0  0  0  0  0  0
   -2.5625   11.9034   42.5329 C   0  0  0  0  0  0  0  0  0  0  0  0
   -4.6931   12.3187   41.3228 C   0  0  0  0  0  0  0  0  0  0  0  0
   -6.8822   15.3915   41.7303 C   0  0  0  0  0  0  0  0  0  0  0  0
    3.8190    8.7486   45.3395 N   0  0  0  0  0  0  0  0  0  0  0  0
    4.6618    9.8927   45.6738 C   0  0  0  0  0  0  0  0  0  0  0  0
    7.0785    7.3013   44.7105 C   0  0  0  0  0  0  0  0  0  0  0  0
    4.0376    6.4904   45.0408 O   0  0  0  0  0  0  0  0  0  0  0  0
   10.4797    7.9103   43.7015 N   0  0  0  0  0  0  0  0  0  0  0  0
   12.5588    8.0363   42.7052 N   0  0  0  0  0  0  0  0  0  0  0  0
   12.2955    9.3056   42.0649 C   0  0  2  0  0  0  0  0  0  0  0  0
   11.2128    9.1330   41.0022 C   0  0  0  0  0  0  0  0  0  0  0  0
   12.2473   10.8308   39.5954 O   0  0  0  0  0  0  0  0  0  0  0  0
   12.0613    6.1018   43.8385 N   0  0  0  0  0  0  0  0  0  0  0  0
    8.8590    4.9945   45.8455 Cl  0  0  0  0  0  0  0  0  0  0  0  0
    2.2747   10.7837   44.2506 O   0  0  0  0  0  0  0  0  0  0  0  0
    0.6017   10.3555   45.7006 N   0  0  0  0  0  0  0  0  0  0  0  0
   -0.2550   11.4839   45.3483 C   0  0  1  0  0  0  0  0  0  0  0  0
   -1.1549   10.7462   47.4805 O   0  0  0  0  0  0  0  0  0  0  0  0
   -0.8404   11.3299   43.9577 C   0  0  0  0  0  0  0  0  0  0  0  0
   -0.2130   10.5989   42.9655 C   0  0  0  0  0  0  0  0  0  0  0  0
   -1.9838   11.9817   43.7505 N   0  0  0  0  0  0  0  0  0  0  0  0
   -3.7398   12.5883   42.4052 N   0  0  0  0  0  0  0  0  0  0  0  0
   -5.4158   13.5867   40.9169 C   0  0  0  0  0  0  0  0  0  0  0  0
   -6.0815   14.1944   42.1048 N   0  0  1  0  0  0  0  0  0  0  0  0
   -5.0598   14.5244   43.1435 C   0  0  0  0  0  0  0  0  0  0  0  0
   -4.3420   13.2587   43.5605 C   0  0  0  0  0  0  0  0  0  0  0  0
    1.3506    6.8432   45.6447 H   0  0  0  0  0  0  0  0  0  0  0  0
    0.8864    7.8719   44.2473 H   0  0  0  0  0  0  0  0  0  0  0  0
    2.4658    7.0163   44.2473 H   0  0  0  0  0  0  0  0  0  0  0  0
    2.1947    8.6477   46.6268 H   0  0  0  0  0  0  0  0  0  0  0  0
    7.3243   11.0536   45.6441 H   0  0  0  0  0  0  0  0  0  0  0  0
    9.3646    9.8023   45.0414 H   0  0  0  0  0  0  0  0  0  0  0  0
   10.2750   10.2189   39.4091 H   0  0  0  0  0  0  0  0  0  0  0  0
   10.6705   11.1959   40.8796 H   0  0  0  0  0  0  0  0  0  0  0  0
   12.8012   11.9012   41.2844 H   0  0  0  0  0  0  0  0  0  0  0  0
   14.1328   11.4880   40.1286 H   0  0  0  0  0  0  0  0  0  0  0  0
   14.0224    9.1466   40.7820 H   0  0  0  0  0  0  0  0  0  0  0  0
   14.2520   10.1866   42.2381 H   0  0  0  0  0  0  0  0  0  0  0  0
   11.4726    4.4338   44.9626 H   0  0  0  0  0  0  0  0  0  0  0  0
   -1.4284   12.6520   46.7331 H   0  0  0  0  0  0  0  0  0  0  0  0
   -2.3327   11.3343   45.8951 H   0  0  0  0  0  0  0  0  0  0  0  0
   -0.3125    9.9405   40.9136 H   0  0  0  0  0  0  0  0  0  0  0  0
   -2.4551   11.1213   40.5057 H   0  0  0  0  0  0  0  0  0  0  0  0
   -4.1494   11.9192   40.4540 H   0  0  0  0  0  0  0  0  0  0  0  0
   -5.4344   11.5879   41.6785 H   0  0  0  0  0  0  0  0  0  0  0  0
   -7.2246   15.9034   42.6417 H   0  0  0  0  0  0  0  0  0  0  0  0
   -6.2604   16.0774   41.1361 H   0  0  0  0  0  0  0  0  0  0  0  0
   -7.7535   15.0787   41.1361 H   0  0  0  0  0  0  0  0  0  0  0  0
    4.5580   10.1708   46.7330 H   0  0  0  0  0  0  0  0  0  0  0  0
    4.4117   10.8082   45.1177 H   0  0  0  0  0  0  0  0  0  0  0  0
    7.0010    6.2323   44.4631 H   0  0  0  0  0  0  0  0  0  0  0  0
   13.4999    7.6352   42.5857 H   0  0  0  0  0  0  0  0  0  0  0  0
   11.9490   10.0073   42.8378 H   0  0  0  0  0  0  0  0  0  0  0  0
   10.2650    8.8725   41.4961 H   0  0  0  0  0  0  0  0  0  0  0  0
   11.5272    8.3342   40.3144 H   0  0  0  0  0  0  0  0  0  0  0  0
    0.2964    9.7452   46.4721 H   0  0  0  0  0  0  0  0  0  0  0  0
    0.3627   12.3941   45.3540 H   0  0  0  0  0  0  0  0  0  0  0  0
   -1.2864   11.2465   48.3246 H   0  0  0  0  0  0  0  0  0  0  0  0
    0.7385   10.0863   43.1704 H   0  0  0  0  0  0  0  0  0  0  0  0
   -4.6914   14.3015   40.4995 H   0  0  0  0  0  0  0  0  0  0  0  0
   -6.1765   13.3434   40.1606 H   0  0  0  0  0  0  0  0  0  0  0  0
   -6.7405   13.5070   42.4974 H   0  0  0  0  0  0  0  0  0  0  0  0
   -4.3333   15.2393   42.7299 H   0  0  0  0  0  0  0  0  0  0  0  0
   -5.5550   14.9719   44.0178 H   0  0  0  0  0  0  0  0  0  0  0  0
   -5.0627   12.5771   44.0359 H   0  0  0  0  0  0  0  0  0  0  0  0
   -3.5411   13.5274   44.2650 H   0  0  0  0  0  0  0  0  0  0  0  0
  2  1  1  0
  2 16  1  0
  2 23  1  0
  3  4  2  0
  3  7  1  0
  3 24  1  0
  4  5  1  0
  5  6  2  0
  6  9  1  0
  6 25  1  0
  7  8  1  0
  7 25  2  0
  8 23  1  0
  8 26  2  0
  9 15  1  0
  9 27  2  0
 10 27  1  0
 10 28  1  0
 10 32  2  0
 11 30  1  0
 11 31  1  0
 12 13  1  0
 12 31  1  0
 13 29  1  0
 14 15  2  0
 14 32  1  0
 15 33  1  0
 16 34  2  0
 16 35  1  0
 36 17  1  0
 17 37  1  0
 18 19  2  0
 18 39  1  0
 19 20  1  0
 20 40  2  0
 20 41  1  0
 21 41  1  0
 21 42  1  0
 43 22  1  0
 23 24  1  0
 29 28  1  0
 29 30  1  0
 35 36  1  0
 36 38  1  0
 38 39  2  0
 38 40  1  0
 41 45  1  0
 42 43  1  0
 43 44  1  0
 44 45  1  0
  1 46  1  0
  1 47  1  0
  1 48  1  0
  2 49  1  1
  4 50  1  0
  5 51  1  0
 11 52  1  0
 11 53  1  0
 12 54  1  0
 12 55  1  0
 13 56  1  0
 13 57  1  0
 14 58  1  0
 17 59  1  0
 17 60  1  0
 18 61  1  0
 19 62  1  0
 21 63  1  0
 21 64  1  0
 22 65  1  0
 22 66  1  0
 22 67  1  0
 24 68  1  0
 24 69  1  0
 25 70  1  0
 28 71  1  0
 29 72  1  1
 30 73  1  0
 30 74  1  0
 35 75  1  0
 36 76  1  6
 37 77  1  0
 39 78  1  0
 42 79  1  0
 42 80  1  0
 43 81  1  1
 44 82  1  0
 44 83  1  0
 45 84  1  0
 45 85  1  0
M  CHG  1  43   1
M  END
>  <filename_input>  (3) 
7NR8_UOE_docked.sdf

>  <pdb_id>  (3) 
7NR8_UOE

>  <pose_rank>  (3) 
2

>  <num_atoms_heavy>  (3) 
45

>  <num_torsions>  (3) 
7

>  <pose>  (3) 
[6.031198477107079, 9.359514849267363, 45.38113334064486, 4.475682987685939, -3.5943284672085216, -2.4826877648840204, 0.017661722144550685, -6.082104008920718, -4.026463658409102, 0.36854293344372485, -0.8190000199272592, 2.2796509329094383, 1.169355811704786]

>  <energy>  (3) 
-1302.3650230085436

>  <inter_energy>  (3) 
-1417.9384552931715

>  <intra_energy>  (3) 
116.07775692052144

>  <rmsd>  (3) 
3.44055

>  <sdf_rank>  (3) 
0

$$$$

     RDKit          3D

 85 90  0  0  0  0  0  0  0  0999 V2000
    1.8956    7.6208   45.9952 C   0  0  0  0  0  0  0  0  0  0  0  0
    2.3953    8.9537   45.4340 C   0  0  2  0  0  0  0  0  0  0  0  0
    6.0574    9.5262   45.3514 C   0  0  0  0  0  0  0  0  0  0  0  0
    7.2883   10.1392   45.3840 C   0  0  0  0  0  0  0  0  0  0  0  0
    8.4230    9.4318   45.0519 C   0  0  0  0  0  0  0  0  0  0  0  0
    8.3488    8.0924   44.6751 C   0  0  0  0  0  0  0  0  0  0  0  0
    5.9622    8.1968   44.9795 C   0  0  0  0  0  0  0  0  0  0  0  0
    4.5345    7.8049   45.0327 C   0  0  0  0  0  0  0  0  0  0  0  0
    9.6073    7.3528   44.3861 C   0  0  0  0  0  0  0  0  0  0  0  0
   11.7172    7.4695   43.4732 C   0  0  0  0  0  0  0  0  0  0  0  0
   11.1098   10.6195   40.3144 C   0  0  0  0  0  0  0  0  0  0  0  0
   13.3308   11.2787   40.7133 C   0  0  0  0  0  0  0  0  0  0  0  0
   13.6490   10.0255   41.5109 C   0  0  0  0  0  0  0  0  0  0  0  0
   11.1842    5.5439   44.5611 C   0  0  0  0  0  0  0  0  0  0  0  0
    9.9316    6.0705   44.8500 C   0  0  0  0  0  0  0  0  0  0  0  0
    1.6783    9.3349   44.1385 C   0  0  0  0  0  0  0  0  0  0  0  0
   -1.0860   10.0576   42.9937 C   0  0  0  0  0  0  0  0  0  0  0  0
    1.5983   10.2271   39.7319 C   0  0  0  0  0  0  0  0  0  0  0  0
    2.2417   11.4116   39.5085 C   0  0  0  0  0  0  0  0  0  0  0  0
    2.1742   12.4251   40.4754 C   0  0  0  0  0  0  0  0  0  0  0  0
    3.2330   14.1596   39.0447 C   0  0  0  0  0  0  0  0  0  0  0  0
    5.3883   17.0197   40.2997 C   0  0  0  0  0  0  0  0  0  0  0  0
    3.8387    8.9457   45.2544 N   0  0  0  0  0  0  0  0  0  0  0  0
    4.6896   10.0709   45.6298 C   0  0  0  0  0  0  0  0  0  0  0  0
    7.0909    7.4694   44.6553 C   0  0  0  0  0  0  0  0  0  0  0  0
    4.0340    6.6918   44.9101 O   0  0  0  0  0  0  0  0  0  0  0  0
   10.5174    8.0544   43.7225 N   0  0  0  0  0  0  0  0  0  0  0  0
   12.6158    8.1738   42.7664 N   0  0  0  0  0  0  0  0  0  0  0  0
   12.3800    9.4590   42.1475 C   0  0  2  0  0  0  0  0  0  0  0  0
   11.2796    9.3319   41.0967 C   0  0  0  0  0  0  0  0  0  0  0  0
   12.3435   11.0205   39.7006 O   0  0  0  0  0  0  0  0  0  0  0  0
   12.0736    6.2233   43.8509 N   0  0  0  0  0  0  0  0  0  0  0  0
    8.8217    5.1169   45.7770 Cl  0  0  0  0  0  0  0  0  0  0  0  0
    1.7440    8.6425   43.1237 O   0  0  0  0  0  0  0  0  0  0  0  0
    0.9963   10.4753   44.2036 N   0  0  0  0  0  0  0  0  0  0  0  0
    0.1244   10.9815   43.1477 C   0  0  1  0  0  0  0  0  0  0  0  0
   -2.1299   10.4487   43.8789 O   0  0  0  0  0  0  0  0  0  0  0  0
    0.8559   11.0955   41.8241 C   0  0  0  0  0  0  0  0  0  0  0  0
    0.8954   10.0613   40.9068 C   0  0  0  0  0  0  0  0  0  0  0  0
    1.4896   12.2508   41.6262 N   0  0  0  0  0  0  0  0  0  0  0  0
    2.7847   13.6421   40.3426 N   0  0  0  0  0  0  0  0  0  0  0  0
    4.4772   15.0084   39.2069 C   0  0  0  0  0  0  0  0  0  0  0  0
    4.2198   16.1056   40.1834 N   0  0  1  0  0  0  0  0  0  0  0  0
    3.8466   15.5259   41.5087 C   0  0  0  0  0  0  0  0  0  0  0  0
    2.5973   14.6853   41.3542 C   0  0  0  0  0  0  0  0  0  0  0  0
    1.9094    7.6575   47.0945 H   0  0  0  0  0  0  0  0  0  0  0  0
    0.8681    7.4385   45.6473 H   0  0  0  0  0  0  0  0  0  0  0  0
    2.5501    6.8080   45.6473 H   0  0  0  0  0  0  0  0  0  0  0  0
    2.1528    9.7266   46.1782 H   0  0  0  0  0  0  0  0  0  0  0  0
    7.3669   11.1968   45.6761 H   0  0  0  0  0  0  0  0  0  0  0  0
    9.4022    9.9320   45.0846 H   0  0  0  0  0  0  0  0  0  0  0  0
   10.3526   10.4664   39.5313 H   0  0  0  0  0  0  0  0  0  0  0  0
   10.7938   11.4107   41.0102 H   0  0  0  0  0  0  0  0  0  0  0  0
   12.9482   12.0505   41.3973 H   0  0  0  0  0  0  0  0  0  0  0  0
   14.2531   11.6172   40.2186 H   0  0  0  0  0  0  0  0  0  0  0  0
   14.0855    9.2707   40.8402 H   0  0  0  0  0  0  0  0  0  0  0  0
   14.3623   10.2827   42.3078 H   0  0  0  0  0  0  0  0  0  0  0  0
   11.4438    4.5406   44.9300 H   0  0  0  0  0  0  0  0  0  0  0  0
   -1.4518   10.1105   41.9576 H   0  0  0  0  0  0  0  0  0  0  0  0
   -0.7808    9.0293   43.2373 H   0  0  0  0  0  0  0  0  0  0  0  0
    1.6402    9.4190   38.9868 H   0  0  0  0  0  0  0  0  0  0  0  0
    2.8077   11.5688   38.5785 H   0  0  0  0  0  0  0  0  0  0  0  0
    3.4570   13.3146   38.3770 H   0  0  0  0  0  0  0  0  0  0  0  0
    2.4334   14.7825   38.6173 H   0  0  0  0  0  0  0  0  0  0  0  0
    5.6124   17.1950   41.3623 H   0  0  0  0  0  0  0  0  0  0  0  0
    6.2616   16.5625   39.8114 H   0  0  0  0  0  0  0  0  0  0  0  0
    5.1548   17.9773   39.8114 H   0  0  0  0  0  0  0  0  0  0  0  0
    4.5691   10.3272   46.6927 H   0  0  0  0  0  0  0  0  0  0  0  0
    4.4620   11.0016   45.0895 H   0  0  0  0  0  0  0  0  0  0  0  0
    7.0044    6.4071   44.3830 H   0  0  0  0  0  0  0  0  0  0  0  0
   13.5538    7.7630   42.6556 H   0  0  0  0  0  0  0  0  0  0  0  0
   12.0630   10.1588   42.9347 H   0  0  0  0  0  0  0  0  0  0  0  0
   10.3312    9.0908   41.5991 H   0  0  0  0  0  0  0  0  0  0  0  0
   11.5629    8.5347   40.3937 H   0  0  0  0  0  0  0  0  0  0  0  0
    1.0899   11.0410   45.0593 H   0  0  0  0  0  0  0  0  0  0  0  0
   -0.2081   11.9896   43.4358 H   0  0  0  0  0  0  0  0  0  0  0  0
   -1.8284   10.3357   44.8151 H   0  0  0  0  0  0  0  0  0  0  0  0
    0.3716    9.1161   41.1122 H   0  0  0  0  0  0  0  0  0  0  0  0
    5.3021   14.3799   39.5737 H   0  0  0  0  0  0  0  0  0  0  0  0
    4.7465   15.4455   38.2341 H   0  0  0  0  0  0  0  0  0  0  0  0
    3.4322   16.6725   39.8381 H   0  0  0  0  0  0  0  0  0  0  0  0
    4.6692   14.8965   41.8791 H   0  0  0  0  0  0  0  0  0  0  0  0
    3.6571   16.3383   42.2257 H   0  0  0  0  0  0  0  0  0  0  0  0
    1.7628   15.3344   41.0503 H   0  0  0  0  0  0  0  0  0  0  0  0
    2.3801   14.2019   42.3181 H   0  0  0  0  0  0  0  0  0  0  0  0
  2  1  1  0
  2 16  1  0
  2 23  1  0
  3  4  2  0
  3  7  1  0
  3 24  1  0
  4  5  1  0
  5  6  2  0
  6  9  1  0
  6 25  1  0
  7  8  1  0
  7 25  2  0
  8 23  1  0
  8 26  2  0
  9 15  1  0
  9 27  2  0
 10 27  1  0
 10 28  1  0
 10 32  2  0
 11 30  1  0
 11 31  1  0
 12 13  1  0
 12 31  1  0
 13 29  1  0
 14 15  2  0
 14 32  1  0
 15 33  1  0
 16 34  2  0
 16 35  1  0
 36 17  1  0
 17 37  1  0
 18 19  2  0
 18 39  1  0
 19 20  1  0
 20 40  2  0
 20 41  1  0
 21 41  1  0
 21 42  1  0
 43 22  1  0
 23 24  1  0
 29 28  1  0
 29 30  1  0
 35 36  1  0
 36 38  1  0
 38 39  2  0
 38 40  1  0
 41 45  1  0
 42 43  1  0
 43 44  1  0
 44 45  1  0
  1 46  1  0
  1 47  1  0
  1 48  1  0
  2 49  1  1
  4 50  1  0
  5 51  1  0
 11 52  1  0
 11 53  1  0
 12 54  1  0
 12 55  1  0
 13 56  1  0
 13 57  1  0
 14 58  1  0
 17 59  1  0
 17 60  1  0
 18 61  1  0
 19 62  1  0
 21 63  1  0
 21 64  1  0
 22 65  1  0
 22 66  1  0
 22 67  1  0
 24 68  1  0
 24 69  1  0
 25 70  1  0
 28 71  1  0
 29 72  1  1
 30 73  1  0
 30 74  1  0
 35 75  1  0
 36 76  1  1
 37 77  1  0
 39 78  1  0
 42 79  1  0
 42 80  1  0
 43 81  1  6
 44 82  1  0
 44 83  1  0
 45 84  1  0
 45 85  1  0
M  CHG  1  43   1
M  END
>  <filename_input>  (4) 
7NR8_UOE_docked.sdf

>  <pdb_id>  (4) 
7NR8_UOE

>  <pose_rank>  (4) 
3

>  <num_atoms_heavy>  (4) 
45

>  <num_torsions>  (4) 
7

>  <pose>  (4) 
[6.057402973252907, 9.526153645935066, 45.3513752730832, 2.4780473528058797, -4.829473289302048, -3.170582993266043, 0.01570132113014348, 0.23600500273086, 3.1966448243812104, 1.0474964668461748, 3.3546838424454664, -1.9572335967021108, -3.744485321601024]

>  <energy>  (4) 
-1268.447477492543

>  <inter_energy>  (4) 
-1381.0467168038983

>  <intra_energy>  (4) 
101.21922631820183

>  <rmsd>  (4) 
5.29802

>  <sdf_rank>  (4) 
0

$$$$

     RDKit          3D

 85 90  0  0  0  0  0  0  0  0999 V2000
    1.9683    8.4607   45.1895 C   0  0  0  0  0  0  0  0  0  0  0  0
    2.7174    9.7859   45.3447 C   0  0  2  0  0  0  0  0  0  0  0  0
    6.4219    9.9315   45.3063 C   0  0  0  0  0  0  0  0  0  0  0  0
    7.7145   10.4007   45.3348 C   0  0  0  0  0  0  0  0  0  0  0  0
    8.7648    9.5536   45.0565 C   0  0  0  0  0  0  0  0  0  0  0  0
    8.5422    8.2152   44.7389 C   0  0  0  0  0  0  0  0  0  0  0  0
    6.1795    8.6058   44.9929 C   0  0  0  0  0  0  0  0  0  0  0  0
    4.7156    8.3826   45.0363 C   0  0  0  0  0  0  0  0  0  0  0  0
    9.7111    7.3239   44.5076 C   0  0  0  0  0  0  0  0  0  0  0  0
   11.9147    7.2055   43.8525 C   0  0  0  0  0  0  0  0  0  0  0  0
   12.8448   10.5967   40.7682 C   0  0  0  0  0  0  0  0  0  0  0  0
   14.4238   11.2092   42.3985 C   0  0  0  0  0  0  0  0  0  0  0  0
   14.3664    9.8550   43.0848 C   0  0  0  0  0  0  0  0  0  0  0  0
   10.9846    5.2872   44.6465 C   0  0  0  0  0  0  0  0  0  0  0  0
    9.7918    5.9681   44.8540 C   0  0  0  0  0  0  0  0  0  0  0  0
    2.1908   10.8572   44.3893 C   0  0  0  0  0  0  0  0  0  0  0  0
    1.8453   11.7179   41.2982 C   0  0  0  0  0  0  0  0  0  0  0  0
    5.5341   14.3695   40.9333 C   0  0  0  0  0  0  0  0  0  0  0  0
    6.4550   13.3965   40.6646 C   0  0  0  0  0  0  0  0  0  0  0  0
    6.1566   12.0616   40.9738 C   0  0  0  0  0  0  0  0  0  0  0  0
    8.4492   11.2168   40.5190 C   0  0  0  0  0  0  0  0  0  0  0  0
    9.2904    7.7548   39.2124 C   0  0  0  0  0  0  0  0  0  0  0  0
    4.1527    9.6046   45.1932 N   0  0  0  0  0  0  0  0  0  0  0  0
    5.1221   10.6415   45.5338 C   0  0  0  0  0  0  0  0  0  0  0  0
    7.2213    7.7398   44.7233 C   0  0  0  0  0  0  0  0  0  0  0  0
    4.0921    7.3295   44.9545 O   0  0  0  0  0  0  0  0  0  0  0  0
   10.7867    7.9396   44.0334 N   0  0  0  0  0  0  0  0  0  0  0  0
   12.9847    7.8299   43.3347 N   0  0  0  0  0  0  0  0  0  0  0  0
   13.0110    9.1901   42.8453 C   0  0  2  0  0  0  0  0  0  0  0  0
   12.6749    9.2095   41.3561 C   0  0  0  0  0  0  0  0  0  0  0  0
   14.1728   11.0943   40.9876 O   0  0  0  0  0  0  0  0  0  0  0  0
   12.0427    5.8887   44.1215 N   0  0  0  0  0  0  0  0  0  0  0  0
    8.4515    5.1094   45.5373 Cl  0  0  0  0  0  0  0  0  0  0  0  0
    1.1018   11.4052   44.5537 O   0  0  0  0  0  0  0  0  0  0  0  0
    3.0012   11.1300   43.3701 N   0  0  0  0  0  0  0  0  0  0  0  0
    2.7858   12.2030   42.4038 C   0  0  1  0  0  0  0  0  0  0  0  0
    2.3400   10.5197   40.7102 O   0  0  0  0  0  0  0  0  0  0  0  0
    4.0911   12.6796   41.7961 C   0  0  0  0  0  0  0  0  0  0  0  0
    4.3319   14.0101   41.5056 C   0  0  0  0  0  0  0  0  0  0  0  0
    4.9737   11.7184   41.5273 N   0  0  0  0  0  0  0  0  0  0  0  0
    7.0123   11.0198   40.7418 N   0  0  0  0  0  0  0  0  0  0  0  0
    8.9910   10.1751   39.5619 C   0  0  0  0  0  0  0  0  0  0  0  0
    8.6912    8.8079   40.0763 N   0  0  1  0  0  0  0  0  0  0  0  0
    7.2138    8.6300   40.2083 C   0  0  0  0  0  0  0  0  0  0  0  0
    6.6688    9.6620   41.1722 C   0  0  0  0  0  0  0  0  0  0  0  0
    1.7370    8.0516   46.1841 H   0  0  0  0  0  0  0  0  0  0  0  0
    1.0328    8.6309   44.6365 H   0  0  0  0  0  0  0  0  0  0  0  0
    2.5965    7.7470   44.6365 H   0  0  0  0  0  0  0  0  0  0  0  0
    2.5293   10.1433   46.3679 H   0  0  0  0  0  0  0  0  0  0  0  0
    7.9103   11.4549   45.5804 H   0  0  0  0  0  0  0  0  0  0  0  0
    9.7945    9.9395   45.0854 H   0  0  0  0  0  0  0  0  0  0  0  0
   12.6519   10.5539   39.6861 H   0  0  0  0  0  0  0  0  0  0  0  0
   12.1330   11.2741   41.2627 H   0  0  0  0  0  0  0  0  0  0  0  0
   13.6646   11.8686   42.8443 H   0  0  0  0  0  0  0  0  0  0  0  0
   15.4327   11.6248   42.5375 H   0  0  0  0  0  0  0  0  0  0  0  0
   15.1618    9.2110   42.6817 H   0  0  0  0  0  0  0  0  0  0  0  0
   14.5060    9.9984   44.1665 H   0  0  0  0  0  0  0  0  0  0  0  0
   11.0527    4.2250   44.9241 H   0  0  0  0  0  0  0  0  0  0  0  0
    0.8509   11.5262   41.7277 H   0  0  0  0  0  0  0  0  0  0  0  0
    1.7808   12.4940   40.5214 H   0  0  0  0  0  0  0  0  0  0  0  0
    5.7481   15.4223   40.6970 H   0  0  0  0  0  0  0  0  0  0  0  0
    7.4218   13.6580   40.2098 H   0  0  0  0  0  0  0  0  0  0  0  0
    8.6147   12.2180   40.0943 H   0  0  0  0  0  0  0  0  0  0  0  0
    8.9728   11.1189   41.4814 H   0  0  0  0  0  0  0  0  0  0  0  0
    9.7358    6.9720   39.8440 H   0  0  0  0  0  0  0  0  0  0  0  0
    8.5085    7.3128   38.5773 H   0  0  0  0  0  0  0  0  0  0  0  0
   10.0698    8.2011   38.5773 H   0  0  0  0  0  0  0  0  0  0  0  0
    5.0173   10.9594   46.5816 H   0  0  0  0  0  0  0  0  0  0  0  0
    5.0105   11.5658   44.9479 H   0  0  0  0  0  0  0  0  0  0  0  0
    7.0170    6.6828   44.4974 H   0  0  0  0  0  0  0  0  0  0  0  0
   13.8625    7.2936   43.2817 H   0  0  0  0  0  0  0  0  0  0  0  0
   12.2568    9.7637   43.4040 H   0  0  0  0  0  0  0  0  0  0  0  0
   11.6314    8.8888   41.2206 H   0  0  0  0  0  0  0  0  0  0  0  0
   13.3637    8.5269   40.8369 H   0  0  0  0  0  0  0  0  0  0  0  0
    3.8395   10.5428   43.2545 H   0  0  0  0  0  0  0  0  0  0  0  0
    2.3324   13.0527   42.9352 H   0  0  0  0  0  0  0  0  0  0  0  0
    2.6018    9.8855   41.4239 H   0  0  0  0  0  0  0  0  0  0  0  0
    3.5723   14.7738   41.7287 H   0  0  0  0  0  0  0  0  0  0  0  0
    8.5201   10.3053   38.5764 H   0  0  0  0  0  0  0  0  0  0  0  0
   10.0806   10.2973   39.4728 H   0  0  0  0  0  0  0  0  0  0  0  0
    9.1197    8.7078   41.0076 H   0  0  0  0  0  0  0  0  0  0  0  0
    6.7389    8.7594   39.2246 H   0  0  0  0  0  0  0  0  0  0  0  0
    6.9971    7.6208   40.5884 H   0  0  0  0  0  0  0  0  0  0  0  0
    7.0960    9.4826   42.1699 H   0  0  0  0  0  0  0  0  0  0  0  0
    5.5729    9.5708   41.1986 H   0  0  0  0  0  0  0  0  0  0  0  0
  2  1  1  0
  2 16  1  0
  2 23  1  0
  3  4  2  0
  3  7  1  0
  3 24  1  0
  4  5  1  0
  5  6  2  0
  6  9  1  0
  6 25  1  0
  7  8  1  0
  7 25  2  0
  8 23  1  0
  8 26  2  0
  9 15  1  0
  9 27  2  0
 10 27  1  0
 10 28  1  0
 10 32  2  0
 11 30  1  0
 11 31  1  0
 12 13  1  0
 12 31  1  0
 13 29  1  0
 14 15  2  0
 14 32  1  0
 15 33  1  0
 16 34  2  0
 16 35  1  0
 36 17  1  0
 17 37  1  0
 18 19  2  0
 18 39  1  0
 19 20  1  0
 20 40  2  0
 20 41  1  0
 21 41  1  0
 21 42  1  0
 43 22  1  0
 23 24  1  0
 29 28  1  0
 29 30  1  0
 35 36  1  0
 36 38  1  0
 38 39  2  0
 38 40  1  0
 41 45  1  0
 42 43  1  0
 43 44  1  0
 44 45  1  0
  1 46  1  0
  1 47  1  0
  1 48  1  0
  2 49  1  1
  4 50  1  0
  5 51  1  0
 11 52  1  0
 11 53  1  0
 12 54  1  0
 12 55  1  0
 13 56  1  0
 13 57  1  0
 14 58  1  0
 17 59  1  0
 17 60  1  0
 18 61  1  0
 19 62  1  0
 21 63  1  0
 21 64  1  0
 22 65  1  0
 22 66  1  0
 22 67  1  0
 24 68  1  0
 24 69  1  0
 25 70  1  0
 28 71  1  0
 29 72  1  1
 30 73  1  0
 30 74  1  0
 35 75  1  0
 36 76  1  1
 37 77  1  0
 39 78  1  0
 42 79  1  0
 42 80  1  0
 43 81  1  1
 44 82  1  0
 44 83  1  0
 45 84  1  0
 45 85  1  0
M  CHG  1  43   1
M  END
>  <filename_input>  (5) 
7NR8_UOE_docked.sdf

>  <pdb_id>  (5) 
7NR8_UOE

>  <pose_rank>  (5) 
4

>  <num_atoms_heavy>  (5) 
45

>  <num_torsions>  (5) 
7

>  <pose>  (5) 
[6.421863295493227, 9.931533532256534, 45.3062880745449, -2.2814146582140933, -0.961285566735588, -5.912021820816204, -6.080559281085467, -0.26744353496967477, 2.644819775550832, 3.3942378281649113, 0.7200655170810458, 0.26098971905980617, 0.059676033795920645]

>  <energy>  (5) 
-984.7732118061989

>  <inter_energy>  (5) 
-1071.3249825041344

>  <intra_energy>  (5) 
78.17916604988238

>  <rmsd>  (5) 
6.99489

>  <sdf_rank>  (5) 
0

$$$$

     RDKit          3D

 85 90  0  0  0  0  0  0  0  0999 V2000
    2.0965    7.7022   46.0098 C   0  0  0  0  0  0  0  0  0  0  0  0
    2.5949    9.0391   45.4568 C   0  0  2  0  0  0  0  0  0  0  0  0
    6.2559    9.6165   45.3619 C   0  0  0  0  0  0  0  0  0  0  0  0
    7.4859   10.2315   45.3883 C   0  0  0  0  0  0  0  0  0  0  0  0
    8.6208    9.5242   45.0568 C   0  0  0  0  0  0  0  0  0  0  0  0
    8.5477    8.1828   44.6870 C   0  0  0  0  0  0  0  0  0  0  0  0
    6.1617    8.2851   44.9970 C   0  0  0  0  0  0  0  0  0  0  0  0
    4.7347    7.8914   45.0558 C   0  0  0  0  0  0  0  0  0  0  0  0
    9.8066    7.4435   44.3985 C   0  0  0  0  0  0  0  0  0  0  0  0
   11.8847    7.5350   43.4128 C   0  0  0  0  0  0  0  0  0  0  0  0
   10.9927   11.4846   41.9703 C   0  0  0  0  0  0  0  0  0  0  0  0
   11.5589   10.5366   39.8950 C   0  0  0  0  0  0  0  0  0  0  0  0
   12.0134    9.2288   40.5205 C   0  0  0  0  0  0  0  0  0  0  0  0
   11.4130    5.6663   44.6215 C   0  0  0  0  0  0  0  0  0  0  0  0
   10.1631    6.1928   44.9214 C   0  0  0  0  0  0  0  0  0  0  0  0
    1.8747    9.4295   44.1659 C   0  0  0  0  0  0  0  0  0  0  0  0
    0.6815   11.6090   42.2886 C   0  0  0  0  0  0  0  0  0  0  0  0
   -2.5127   12.3745   45.6364 C   0  0  0  0  0  0  0  0  0  0  0  0
   -3.4936   12.6853   44.7375 C   0  0  0  0  0  0  0  0  0  0  0  0
   -3.3238   12.3449   43.3877 C   0  0  0  0  0  0  0  0  0  0  0  0
   -5.3110   13.6091   42.5944 C   0  0  0  0  0  0  0  0  0  0  0  0
   -7.4720   12.6569   39.6239 C   0  0  0  0  0  0  0  0  0  0  0  0
    4.0378    9.0323   45.2736 N   0  0  0  0  0  0  0  0  0  0  0  0
    4.8880   10.1607   45.6411 C   0  0  0  0  0  0  0  0  0  0  0  0
    7.2906    7.5578   44.6736 C   0  0  0  0  0  0  0  0  0  0  0  0
    4.2356    6.7770   44.9402 O   0  0  0  0  0  0  0  0  0  0  0  0
   10.6854    8.1183   43.6682 N   0  0  0  0  0  0  0  0  0  0  0  0
   12.7506    8.2099   42.6397 N   0  0  0  0  0  0  0  0  0  0  0  0
   12.4776    9.4559   41.9591 C   0  0  2  0  0  0  0  0  0  0  0  0
   11.4227   10.2453   42.7306 C   0  0  0  0  0  0  0  0  0  0  0  0
   10.5083   11.1488   40.6619 O   0  0  0  0  0  0  0  0  0  0  0  0
   12.2701    6.3160   43.8466 N   0  0  0  0  0  0  0  0  0  0  0  0
    9.0964    5.2788   45.9348 Cl  0  0  0  0  0  0  0  0  0  0  0  0
    2.2128    8.9911   43.0672 O   0  0  0  0  0  0  0  0  0  0  0  0
    0.8702   10.2854   44.3348 N   0  0  0  0  0  0  0  0  0  0  0  0
   -0.0501   10.7022   43.2810 C   0  0  1  0  0  0  0  0  0  0  0  0
    0.6201   11.0652   40.9746 O   0  0  0  0  0  0  0  0  0  0  0  0
   -1.2572   11.4262   43.8457 C   0  0  0  0  0  0  0  0  0  0  0  0
   -1.3767   11.7334   45.1887 C   0  0  0  0  0  0  0  0  0  0  0  0
   -2.2111   11.7106   42.9599 N   0  0  0  0  0  0  0  0  0  0  0  0
   -4.2483   12.6132   42.4157 N   0  0  0  0  0  0  0  0  0  0  0  0
   -6.5637   13.1956   41.8497 C   0  0  0  0  0  0  0  0  0  0  0  0
   -6.2482   12.9725   40.4095 N   0  0  1  0  0  0  0  0  0  0  0  0
   -5.2221   11.8947   40.2776 C   0  0  0  0  0  0  0  0  0  0  0  0
   -3.9642   12.3078   41.0111 C   0  0  0  0  0  0  0  0  0  0  0  0
    2.1080    7.7331   47.1093 H   0  0  0  0  0  0  0  0  0  0  0  0
    1.0701    7.5200   45.6588 H   0  0  0  0  0  0  0  0  0  0  0  0
    2.7532    6.8926   45.6588 H   0  0  0  0  0  0  0  0  0  0  0  0
    2.3543    9.8068   46.2071 H   0  0  0  0  0  0  0  0  0  0  0  0
    7.5637   11.2907   45.6748 H   0  0  0  0  0  0  0  0  0  0  0  0
    9.5993   10.0259   45.0845 H   0  0  0  0  0  0  0  0  0  0  0  0
   10.1921   11.9896   42.5307 H   0  0  0  0  0  0  0  0  0  0  0  0
   11.8651   12.1455   41.8596 H   0  0  0  0  0  0  0  0  0  0  0  0
   12.4146   11.2262   39.8463 H   0  0  0  0  0  0  0  0  0  0  0  0
   11.1719   10.3221   38.8879 H   0  0  0  0  0  0  0  0  0  0  0  0
   11.1753    8.5164   40.5189 H   0  0  0  0  0  0  0  0  0  0  0  0
   12.8536    8.8275   39.9348 H   0  0  0  0  0  0  0  0  0  0  0  0
   11.6980    4.6882   45.0364 H   0  0  0  0  0  0  0  0  0  0  0  0
    0.2098   12.6027   42.2912 H   0  0  0  0  0  0  0  0  0  0  0  0
    1.7362   11.6879   42.5911 H   0  0  0  0  0  0  0  0  0  0  0  0
   -2.6272   12.6314   46.6998 H   0  0  0  0  0  0  0  0  0  0  0  0
   -4.4085   13.1979   45.0696 H   0  0  0  0  0  0  0  0  0  0  0  0
   -5.5421   13.7021   43.6658 H   0  0  0  0  0  0  0  0  0  0  0  0
   -4.9635   14.5727   42.1936 H   0  0  0  0  0  0  0  0  0  0  0  0
   -8.3037   12.4425   40.3111 H   0  0  0  0  0  0  0  0  0  0  0  0
   -7.7327   13.5172   38.9899 H   0  0  0  0  0  0  0  0  0  0  0  0
   -7.2842   11.7778   38.9899 H   0  0  0  0  0  0  0  0  0  0  0  0
    4.7699   10.4222   46.7030 H   0  0  0  0  0  0  0  0  0  0  0  0
    4.6576   11.0883   45.0966 H   0  0  0  0  0  0  0  0  0  0  0  0
    7.2051    6.4941   44.4069 H   0  0  0  0  0  0  0  0  0  0  0  0
   13.6902    7.8050   42.5213 H   0  0  0  0  0  0  0  0  0  0  0  0
   13.4151   10.0299   41.9184 H   0  0  0  0  0  0  0  0  0  0  0  0
   11.8418   10.5486   43.7014 H   0  0  0  0  0  0  0  0  0  0  0  0
   10.5417    9.6015   42.8695 H   0  0  0  0  0  0  0  0  0  0  0  0
    0.7322   10.6819   45.2754 H   0  0  0  0  0  0  0  0  0  0  0  0
   -0.4102    9.7985   42.7674 H   0  0  0  0  0  0  0  0  0  0  0  0
    0.5092   10.0829   41.0288 H   0  0  0  0  0  0  0  0  0  0  0  0
   -0.5738   11.4692   45.8927 H   0  0  0  0  0  0  0  0  0  0  0  0
   -6.9565   12.2650   42.2853 H   0  0  0  0  0  0  0  0  0  0  0  0
   -7.3161   13.9934   41.9361 H   0  0  0  0  0  0  0  0  0  0  0  0
   -5.8620   13.8446   40.0205 H   0  0  0  0  0  0  0  0  0  0  0  0
   -5.6112   10.9621   40.7121 H   0  0  0  0  0  0  0  0  0  0  0  0
   -4.9920   11.7338   39.2140 H   0  0  0  0  0  0  0  0  0  0  0  0
   -3.5433   13.2015   40.5272 H   0  0  0  0  0  0  0  0  0  0  0  0
   -3.2479   11.4738   40.9731 H   0  0  0  0  0  0  0  0  0  0  0  0
  2  1  1  0
  2 16  1  0
  2 23  1  0
  3  4  2  0
  3  7  1  0
  3 24  1  0
  4  5  1  0
  5  6  2  0
  6  9  1  0
  6 25  1  0
  7  8  1  0
  7 25  2  0
  8 23  1  0
  8 26  2  0
  9 15  1  0
  9 27  2  0
 10 27  1  0
 10 28  1  0
 10 32  2  0
 11 30  1  0
 11 31  1  0
 12 13  1  0
 12 31  1  0
 13 29  1  0
 14 15  2  0
 14 32  1  0
 15 33  1  0
 16 34  2  0
 16 35  1  0
 36 17  1  0
 17 37  1  0
 18 19  2  0
 18 39  1  0
 19 20  1  0
 20 40  2  0
 20 41  1  0
 21 41  1  0
 21 42  1  0
 43 22  1  0
 23 24  1  0
 29 28  1  0
 29 30  1  0
 35 36  1  0
 36 38  1  0
 38 39  2  0
 38 40  1  0
 41 45  1  0
 42 43  1  0
 43 44  1  0
 44 45  1  0
  1 46  1  0
  1 47  1  0
  1 48  1  0
  2 49  1  1
  4 50  1  0
  5 51  1  0
 11 52  1  0
 11 53  1  0
 12 54  1  0
 12 55  1  0
 13 56  1  0
 13 57  1  0
 14 58  1  0
 17 59  1  0
 17 60  1  0
 18 61  1  0
 19 62  1  0
 21 63  1  0
 21 64  1  0
 22 65  1  0
 22 66  1  0
 22 67  1  0
 24 68  1  0
 24 69  1  0
 25 70  1  0
 28 71  1  0
 29 72  1  6
 30 73  1  0
 30 74  1  0
 35 75  1  0
 36 76  1  6
 37 77  1  0
 39 78  1  0
 42 79  1  0
 42 80  1  0
 43 81  1  6
 44 82  1  0
 44 83  1  0
 45 84  1  0
 45 85  1  0
M  CHG  1  43   1
M  END
>  <filename_input>  (6) 
7NR8_UOE_docked.sdf

>  <pdb_id>  (6) 
7NR8_UOE

>  <pose_rank>  (6) 
5

>  <num_atoms_heavy>  (6) 
45

>  <num_torsions>  (6) 
7

>  <pose>  (6) 
[6.2558982289954095, 9.616517157584274, 45.36190274760576, -6.277950741800437, 0.31583843379357784, -0.11954800663583355, -0.0435789919762951, 1.8097270546151634, -3.0987583009415327, 0.6823663933843331, 0.9533243360271372, 2.8366841343103304, -3.1477633560726748]

>  <energy>  (6) 
-1197.5726816911888

>  <inter_energy>  (6) 
-1299.8945315667936

>  <intra_energy>  (6) 
97.63525688962615

>  <rmsd>  (6) 
3.68105

>  <sdf_rank>  (6) 
0

$$$$

     RDKit          3D

 85 90  0  0  0  0  0  0  0  0999 V2000
    3.1267   12.5227   43.9020 C   0  0  0  0  0  0  0  0  0  0  0  0
    3.2199   11.1169   43.3051 C   0  0  2  0  0  0  0  0  0  0  0  0
    5.8142    9.2111   45.1446 C   0  0  0  0  0  0  0  0  0  0  0  0
    6.5546    8.6502   46.1590 C   0  0  0  0  0  0  0  0  0  0  0  0
    7.7516    8.0278   45.8798 C   0  0  0  0  0  0  0  0  0  0  0  0
    8.2361    7.9567   44.5753 C   0  0  0  0  0  0  0  0  0  0  0  0
    6.2780    9.1516   43.8423 C   0  0  0  0  0  0  0  0  0  0  0  0
    5.2900    9.8285   42.9702 C   0  0  0  0  0  0  0  0  0  0  0  0
    9.5023    7.2197   44.3144 C   0  0  0  0  0  0  0  0  0  0  0  0
   11.6538    7.3576   43.5076 C   0  0  0  0  0  0  0  0  0  0  0  0
   11.2377   10.6406   40.4461 C   0  0  0  0  0  0  0  0  0  0  0  0
   13.4279   11.2779   41.0143 C   0  0  0  0  0  0  0  0  0  0  0  0
   13.6970    9.9893   41.7727 C   0  0  0  0  0  0  0  0  0  0  0  0
   11.0576    5.3919   44.4855 C   0  0  0  0  0  0  0  0  0  0  0  0
    9.7962    5.9161   44.7375 C   0  0  0  0  0  0  0  0  0  0  0  0
    1.9426   10.3095   43.5380 C   0  0  0  0  0  0  0  0  0  0  0  0
   -1.4569   10.8377   42.4098 C   0  0  0  0  0  0  0  0  0  0  0  0
   -1.1248   11.1933   47.2437 C   0  0  0  0  0  0  0  0  0  0  0  0
   -2.1839   12.0484   47.1251 C   0  0  0  0  0  0  0  0  0  0  0  0
   -2.6702   12.3695   45.8496 C   0  0  0  0  0  0  0  0  0  0  0  0
   -4.1979   14.1610   46.6456 C   0  0  0  0  0  0  0  0  0  0  0  0
   -7.5014   15.1015   45.0323 C   0  0  0  0  0  0  0  0  0  0  0  0
    4.3892   10.4072   43.8000 N   0  0  0  0  0  0  0  0  0  0  0  0
    4.5180    9.9619   45.1842 C   0  0  0  0  0  0  0  0  0  0  0  0
    7.4698    8.5207   43.5430 C   0  0  0  0  0  0  0  0  0  0  0  0
    5.2494    9.8818   41.7455 O   0  0  0  0  0  0  0  0  0  0  0  0
   10.4471    7.9413   43.7251 N   0  0  0  0  0  0  0  0  0  0  0  0
   12.5892    8.0839   42.8749 N   0  0  0  0  0  0  0  0  0  0  0  0
   12.3911    9.3962   42.3013 C   0  0  2  0  0  0  0  0  0  0  0  0
   11.3596    9.3185   41.1782 C   0  0  0  0  0  0  0  0  0  0  0  0
   12.5071   11.0674   39.9305 O   0  0  0  0  0  0  0  0  0  0  0  0
   11.9840    6.0935   43.8478 N   0  0  0  0  0  0  0  0  0  0  0  0
    8.6376    4.9332   45.5694 Cl  0  0  0  0  0  0  0  0  0  0  0  0
    1.9658    9.1373   43.9109 O   0  0  0  0  0  0  0  0  0  0  0  0
    0.8186   10.9771   43.2915 N   0  0  0  0  0  0  0  0  0  0  0  0
   -0.5232   10.4716   43.5659 C   0  0  1  0  0  0  0  0  0  0  0  0
   -1.0683   12.0763   41.8257 O   0  0  0  0  0  0  0  0  0  0  0  0
   -1.0745   11.0235   44.8666 C   0  0  0  0  0  0  0  0  0  0  0  0
   -0.5598   10.6689   46.1002 C   0  0  0  0  0  0  0  0  0  0  0  0
   -2.1152   11.8452   44.7359 N   0  0  0  0  0  0  0  0  0  0  0  0
   -3.7242   13.2136   45.6301 N   0  0  0  0  0  0  0  0  0  0  0  0
   -5.6955   14.3605   46.5353 C   0  0  0  0  0  0  0  0  0  0  0  0
   -6.0488   14.8025   45.1557 N   0  0  1  0  0  0  0  0  0  0  0  0
   -5.6188   13.7680   44.1675 C   0  0  0  0  0  0  0  0  0  0  0  0
   -4.1210   13.5725   44.2661 C   0  0  0  0  0  0  0  0  0  0  0  0
    3.1311   12.4559   45.0000 H   0  0  0  0  0  0  0  0  0  0  0  0
    3.9871   13.1209   43.5676 H   0  0  0  0  0  0  0  0  0  0  0  0
    2.1947   13.0020   43.5676 H   0  0  0  0  0  0  0  0  0  0  0  0
    3.3340   11.2366   42.2176 H   0  0  0  0  0  0  0  0  0  0  0  0
    6.1902    8.6988   47.1957 H   0  0  0  0  0  0  0  0  0  0  0  0
    8.3335    7.5802   46.6990 H   0  0  0  0  0  0  0  0  0  0  0  0
   10.5319   10.5242   39.6105 H   0  0  0  0  0  0  0  0  0  0  0  0
   10.8770   11.3997   41.1558 H   0  0  0  0  0  0  0  0  0  0  0  0
   13.0016   12.0184   41.7071 H   0  0  0  0  0  0  0  0  0  0  0  0
   14.3792   11.6374   40.5949 H   0  0  0  0  0  0  0  0  0  0  0  0
   14.1762    9.2652   41.0974 H   0  0  0  0  0  0  0  0  0  0  0  0
   14.3580   10.2091   42.6241 H   0  0  0  0  0  0  0  0  0  0  0  0
   11.2932    4.3717   44.8228 H   0  0  0  0  0  0  0  0  0  0  0  0
   -1.4129   10.0479   41.6455 H   0  0  0  0  0  0  0  0  0  0  0  0
   -2.4815   10.9345   42.7982 H   0  0  0  0  0  0  0  0  0  0  0  0
   -0.7293   10.9275   48.2352 H   0  0  0  0  0  0  0  0  0  0  0  0
   -2.6508   12.4811   48.0222 H   0  0  0  0  0  0  0  0  0  0  0  0
   -3.9586   13.7685   47.6450 H   0  0  0  0  0  0  0  0  0  0  0  0
   -3.6997   15.1286   46.4860 H   0  0  0  0  0  0  0  0  0  0  0  0
   -7.9436   15.1925   46.0354 H   0  0  0  0  0  0  0  0  0  0  0  0
   -7.6361   16.0462   44.4851 H   0  0  0  0  0  0  0  0  0  0  0  0
   -7.9982   14.2868   44.4851 H   0  0  0  0  0  0  0  0  0  0  0  0
    3.6837    9.3059   45.4734 H   0  0  0  0  0  0  0  0  0  0  0  0
    4.4991   10.7801   45.9193 H   0  0  0  0  0  0  0  0  0  0  0  0
    7.8168    8.4605   42.5009 H   0  0  0  0  0  0  0  0  0  0  0  0
   13.5288    7.6705   42.7908 H   0  0  0  0  0  0  0  0  0  0  0  0
   12.0238   10.0600   43.0979 H   0  0  0  0  0  0  0  0  0  0  0  0
   10.3817    9.0560   41.6081 H   0  0  0  0  0  0  0  0  0  0  0  0
   11.6881    8.5537   40.4591 H   0  0  0  0  0  0  0  0  0  0  0  0
    0.9008   11.9169   42.8779 H   0  0  0  0  0  0  0  0  0  0  0  0
   -0.4606    9.3779   43.6648 H   0  0  0  0  0  0  0  0  0  0  0  0
   -0.8636   12.7289   42.5415 H   0  0  0  0  0  0  0  0  0  0  0  0
    0.2914    9.9755   46.1686 H   0  0  0  0  0  0  0  0  0  0  0  0
   -6.2070   13.4121   46.7566 H   0  0  0  0  0  0  0  0  0  0  0  0
   -6.0120   15.1305   47.2543 H   0  0  0  0  0  0  0  0  0  0  0  0
   -5.5468   15.6791   44.9547 H   0  0  0  0  0  0  0  0  0  0  0  0
   -6.1283   12.8177   44.3854 H   0  0  0  0  0  0  0  0  0  0  0  0
   -5.8808   14.0981   43.1515 H   0  0  0  0  0  0  0  0  0  0  0  0
   -3.6172   14.5075   43.9797 H   0  0  0  0  0  0  0  0  0  0  0  0
   -3.8305   12.7541   43.5911 H   0  0  0  0  0  0  0  0  0  0  0  0
  2  1  1  0
  2 16  1  0
  2 23  1  0
  3  4  2  0
  3  7  1  0
  3 24  1  0
  4  5  1  0
  5  6  2  0
  6  9  1  0
  6 25  1  0
  7  8  1  0
  7 25  2  0
  8 23  1  0
  8 26  2  0
  9 15  1  0
  9 27  2  0
 10 27  1  0
 10 28  1  0
 10 32  2  0
 11 30  1  0
 11 31  1  0
 12 13  1  0
 12 31  1  0
 13 29  1  0
 14 15  2  0
 14 32  1  0
 15 33  1  0
 16 34  2  0
 16 35  1  0
 36 17  1  0
 17 37  1  0
 18 19  2  0
 18 39  1  0
 19 20  1  0
 20 40  2  0
 20 41  1  0
 21 41  1  0
 21 42  1  0
 43 22  1  0
 23 24  1  0
 29 28  1  0
 29 30  1  0
 35 36  1  0
 36 38  1  0
 38 39  2  0
 38 40  1  0
 41 45  1  0
 42 43  1  0
 43 44  1  0
 44 45  1  0
  1 46  1  0
  1 47  1  0
  1 48  1  0
  2 49  1  6
  4 50  1  0
  5 51  1  0
 11 52  1  0
 11 53  1  0
 12 54  1  0
 12 55  1  0
 13 56  1  0
 13 57  1  0
 14 58  1  0
 17 59  1  0
 17 60  1  0
 18 61  1  0
 19 62  1  0
 21 63  1  0
 21 64  1  0
 22 65  1  0
 22 66  1  0
 22 67  1  0
 24 68  1  0
 24 69  1  0
 25 70  1  0
 28 71  1  0
 29 72  1  1
 30 73  1  0
 30 74  1  0
 35 75  1  0
 36 76  1  1
 37 77  1  0
 39 78  1  0
 42 79  1  0
 42 80  1  0
 43 81  1  6
 44 82  1  0
 44 83  1  0
 45 84  1  0
 45 85  1  0
M  CHG  1  43   1
M  END
>  <filename_input>  (7) 
7NR8_UOE_docked.sdf

>  <pdb_id>  (7) 
7NR8_UOE

>  <pose_rank>  (7) 
6

>  <num_atoms_heavy>  (7) 
45

>  <num_torsions>  (7) 
7

>  <pose>  (7) 
[5.814166253608544, 9.211127476876419, 45.14455118218766, -4.019731131270783, 2.408216068402493, 0.8766181745007804, -1.4365668584571623, 0.2180570421372944, 0.5021063797061021, -0.23667058155011383, -0.2332906995157281, 1.5475030657284763, 0.4479468000417616]

>  <energy>  (7) 
-1320.5034318778507

>  <inter_energy>  (7) 
-1359.6480085047438

>  <intra_energy>  (7) 
37.85002447001853

>  <rmsd>  (7) 
2.92478

>  <sdf_rank>  (7) 
0

$$$$

     RDKit          3D

 85 90  0  0  0  0  0  0  0  0999 V2000
    2.0935    9.0191   46.2370 C   0  0  0  0  0  0  0  0  0  0  0  0
    2.6887   10.2223   45.5025 C   0  0  2  0  0  0  0  0  0  0  0  0
    6.3668   10.3269   45.0490 C   0  0  0  0  0  0  0  0  0  0  0  0
    7.6568   10.7834   44.9089 C   0  0  0  0  0  0  0  0  0  0  0  0
    8.6662    9.9112   44.5648 C   0  0  0  0  0  0  0  0  0  0  0  0
    8.4042    8.5597   44.3493 C   0  0  0  0  0  0  0  0  0  0  0  0
    6.0857    8.9884   44.8390 C   0  0  0  0  0  0  0  0  0  0  0  0
    4.6345    8.7833   45.0556 C   0  0  0  0  0  0  0  0  0  0  0  0
    9.5367    7.6448   44.0413 C   0  0  0  0  0  0  0  0  0  0  0  0
   11.5237    7.3896   42.9075 C   0  0  0  0  0  0  0  0  0  0  0  0
   13.3176   11.2714   40.6249 C   0  0  0  0  0  0  0  0  0  0  0  0
   11.0059   11.2734   41.0516 C   0  0  0  0  0  0  0  0  0  0  0  0
   11.0486    9.9277   41.7555 C   0  0  0  0  0  0  0  0  0  0  0  0
   10.9288    5.7009   44.3111 C   0  0  0  0  0  0  0  0  0  0  0  0
    9.7803    6.4055   44.6492 C   0  0  0  0  0  0  0  0  0  0  0  0
    1.9004   10.5698   44.2393 C   0  0  0  0  0  0  0  0  0  0  0  0
    2.6115   10.1464   40.7494 C   0  0  0  0  0  0  0  0  0  0  0  0
    2.3347   14.6733   40.5384 C   0  0  0  0  0  0  0  0  0  0  0  0
    3.5934   14.9918   40.9641 C   0  0  0  0  0  0  0  0  0  0  0  0
    4.3442   14.0389   41.6675 C   0  0  0  0  0  0  0  0  0  0  0  0
    6.1611   15.6148   42.2938 C   0  0  0  0  0  0  0  0  0  0  0  0
    9.8073   14.6779   42.7715 C   0  0  0  0  0  0  0  0  0  0  0  0
    4.0976   10.0179   45.2046 N   0  0  0  0  0  0  0  0  0  0  0  0
    5.1032   11.0619   45.3778 C   0  0  0  0  0  0  0  0  0  0  0  0
    7.0877    8.0980   44.5056 C   0  0  0  0  0  0  0  0  0  0  0  0
    4.0013    7.7338   45.1020 O   0  0  0  0  0  0  0  0  0  0  0  0
   10.4285    8.1401   43.1927 N   0  0  0  0  0  0  0  0  0  0  0  0
   12.3993    7.8832   42.0173 N   0  0  0  0  0  0  0  0  0  0  0  0
   12.2249    9.0944   41.2472 C   0  0  2  0  0  0  0  0  0  0  0  0
   13.5079    9.9212   41.2879 C   0  0  0  0  0  0  0  0  0  0  0  0
   12.2356   11.9972   41.2265 O   0  0  0  0  0  0  0  0  0  0  0  0
   11.7924    6.1707   43.4220 N   0  0  0  0  0  0  0  0  0  0  0  0
    8.6966    5.7206   45.8140 Cl  0  0  0  0  0  0  0  0  0  0  0  0
    0.6814   10.7350   44.2509 O   0  0  0  0  0  0  0  0  0  0  0  0
    2.6413   10.6633   43.1382 N   0  0  0  0  0  0  0  0  0  0  0  0
    2.1454   11.1128   41.8408 C   0  0  1  0  0  0  0  0  0  0  0  0
    2.2896   10.6552   39.4595 O   0  0  0  0  0  0  0  0  0  0  0  0
    2.6151   12.5183   41.5180 C   0  0  0  0  0  0  0  0  0  0  0  0
    1.8348   13.4182   40.8153 C   0  0  0  0  0  0  0  0  0  0  0  0
    3.8490   12.8099   41.9275 N   0  0  0  0  0  0  0  0  0  0  0  0
    5.6109   14.2640   42.1326 N   0  0  0  0  0  0  0  0  0  0  0  0
    7.6535   15.6201   42.0343 C   0  0  0  0  0  0  0  0  0  0  0  0
    8.3280   14.6354   42.9282 N   0  0  1  0  0  0  0  0  0  0  0  0
    7.7909   13.2658   42.6684 C   0  0  0  0  0  0  0  0  0  0  0  0
    6.3013   13.2524   42.9367 C   0  0  0  0  0  0  0  0  0  0  0  0
    2.1716    9.1771   47.3228 H   0  0  0  0  0  0  0  0  0  0  0  0
    1.0355    8.9059   45.9581 H   0  0  0  0  0  0  0  0  0  0  0  0
    2.6456    8.1095   45.9581 H   0  0  0  0  0  0  0  0  0  0  0  0
    2.6096   11.0843   46.1813 H   0  0  0  0  0  0  0  0  0  0  0  0
    7.8829   11.8475   45.0720 H   0  0  0  0  0  0  0  0  0  0  0  0
    9.6945   10.2873   44.4587 H   0  0  0  0  0  0  0  0  0  0  0  0
   14.2435   11.8560   40.7291 H   0  0  0  0  0  0  0  0  0  0  0  0
   13.0795   11.1078   39.5635 H   0  0  0  0  0  0  0  0  0  0  0  0
   10.8368   11.1097   39.9771 H   0  0  0  0  0  0  0  0  0  0  0  0
   10.1900   11.8670   41.4897 H   0  0  0  0  0  0  0  0  0  0  0  0
   11.1602   10.0888   42.8379 H   0  0  0  0  0  0  0  0  0  0  0  0
   10.1135    9.3873   41.5468 H   0  0  0  0  0  0  0  0  0  0  0  0
   11.1259    4.7315   44.7920 H   0  0  0  0  0  0  0  0  0  0  0  0
    3.7010   10.0145   40.8245 H   0  0  0  0  0  0  0  0  0  0  0  0
    2.1012    9.1819   40.8879 H   0  0  0  0  0  0  0  0  0  0  0  0
    1.7301   15.4060   39.9838 H   0  0  0  0  0  0  0  0  0  0  0  0
    4.0139   15.9869   40.7570 H   0  0  0  0  0  0  0  0  0  0  0  0
    5.6684   16.2927   41.5812 H   0  0  0  0  0  0  0  0  0  0  0  0
    5.9806   15.9491   43.3261 H   0  0  0  0  0  0  0  0  0  0  0  0
   10.2809   14.6915   43.7642 H   0  0  0  0  0  0  0  0  0  0  0  0
   10.1429   13.7890   42.2172 H   0  0  0  0  0  0  0  0  0  0  0  0
   10.0913   15.5846   42.2172 H   0  0  0  0  0  0  0  0  0  0  0  0
    5.1159   11.4383   46.4113 H   0  0  0  0  0  0  0  0  0  0  0  0
    4.9316   11.9535   44.7567 H   0  0  0  0  0  0  0  0  0  0  0  0
    6.8552    7.0323   44.3632 H   0  0  0  0  0  0  0  0  0  0  0  0
   13.2702    7.3533   41.8703 H   0  0  0  0  0  0  0  0  0  0  0  0
   12.0024    8.8047   40.2096 H   0  0  0  0  0  0  0  0  0  0  0  0
   14.3035    9.3733   40.7618 H   0  0  0  0  0  0  0  0  0  0  0  0
   13.7789   10.0879   42.3409 H   0  0  0  0  0  0  0  0  0  0  0  0
    3.6348   10.4001   43.2059 H   0  0  0  0  0  0  0  0  0  0  0  0
    1.0463   11.1274   41.8837 H   0  0  0  0  0  0  0  0  0  0  0  0
    1.7627   11.4879   39.5553 H   0  0  0  0  0  0  0  0  0  0  0  0
    0.8257   13.1357   40.4807 H   0  0  0  0  0  0  0  0  0  0  0  0
    7.8422   15.3490   40.9851 H   0  0  0  0  0  0  0  0  0  0  0  0
    8.0525   16.6250   42.2365 H   0  0  0  0  0  0  0  0  0  0  0  0
    8.1254   14.8890   43.9057 H   0  0  0  0  0  0  0  0  0  0  0  0
    7.9777   12.9908   41.6199 H   0  0  0  0  0  0  0  0  0  0  0  0
    8.2906   12.5429   43.3300 H   0  0  0  0  0  0  0  0  0  0  0  0
    6.1264   13.4601   44.0027 H   0  0  0  0  0  0  0  0  0  0  0  0
    5.9066   12.2620   42.6659 H   0  0  0  0  0  0  0  0  0  0  0  0
  2  1  1  0
  2 16  1  0
  2 23  1  0
  3  4  2  0
  3  7  1  0
  3 24  1  0
  4  5  1  0
  5  6  2  0
  6  9  1  0
  6 25  1  0
  7  8  1  0
  7 25  2  0
  8 23  1  0
  8 26  2  0
  9 15  1  0
  9 27  2  0
 10 27  1  0
 10 28  1  0
 10 32  2  0
 11 30  1  0
 11 31  1  0
 12 13  1  0
 12 31  1  0
 13 29  1  0
 14 15  2  0
 14 32  1  0
 15 33  1  0
 16 34  2  0
 16 35  1  0
 36 17  1  0
 17 37  1  0
 18 19  2  0
 18 39  1  0
 19 20  1  0
 20 40  2  0
 20 41  1  0
 21 41  1  0
 21 42  1  0
 43 22  1  0
 23 24  1  0
 29 28  1  0
 29 30  1  0
 35 36  1  0
 36 38  1  0
 38 39  2  0
 38 40  1  0
 41 45  1  0
 42 43  1  0
 43 44  1  0
 44 45  1  0
  1 46  1  0
  1 47  1  0
  1 48  1  0
  2 49  1  1
  4 50  1  0
  5 51  1  0
 11 52  1  0
 11 53  1  0
 12 54  1  0
 12 55  1  0
 13 56  1  0
 13 57  1  0
 14 58  1  0
 17 59  1  0
 17 60  1  0
 18 61  1  0
 19 62  1  0
 21 63  1  0
 21 64  1  0
 22 65  1  0
 22 66  1  0
 22 67  1  0
 24 68  1  0
 24 69  1  0
 25 70  1  0
 28 71  1  0
 29 72  1  6
 30 73  1  0
 30 74  1  0
 35 75  1  0
 36 76  1  1
 37 77  1  0
 39 78  1  0
 42 79  1  0
 42 80  1  0
 43 81  1  1
 44 82  1  0
 44 83  1  0
 45 84  1  0
 45 85  1  0
M  CHG  1  43   1
M  END
>  <filename_input>  (8) 
7NR8_UOE_docked.sdf

>  <pdb_id>  (8) 
7NR8_UOE

>  <pose_rank>  (8) 
7

>  <num_atoms_heavy>  (8) 
45

>  <num_torsions>  (8) 
7

>  <pose>  (8) 
[6.366822361248137, 10.326861136376433, 45.04900162203022, -3.768032222315834, 3.1023579009556945, -4.242814556529649, -0.022637100205697123, -2.6266856475131566, -3.0973968810678714, -3.2516554740194725, -0.12224757850170864, 0.2107337407615824, -2.002204713598029]

>  <energy>  (8) 
-820.0741795492298

>  <inter_energy>  (8) 
-949.321998838479

>  <intra_energy>  (8) 
124.31002539942794

>  <rmsd>  (8) 
6.26728

>  <sdf_rank>  (8) 
0

$$$$

     RDKit          3D

 85 90  0  0  0  0  0  0  0  0999 V2000
    2.6407   10.3254   41.7679 C   0  0  0  0  0  0  0  0  0  0  0  0
    3.3235   11.1067   42.8925 C   0  0  2  0  0  0  0  0  0  0  0  0
    5.7081    9.0338   44.8322 C   0  0  0  0  0  0  0  0  0  0  0  0
    6.3239    8.3664   45.8653 C   0  0  0  0  0  0  0  0  0  0  0  0
    7.5665    7.8006   45.6807 C   0  0  0  0  0  0  0  0  0  0  0  0
    8.2227    7.8945   44.4551 C   0  0  0  0  0  0  0  0  0  0  0  0
    6.3431    9.1385   43.6073 C   0  0  0  0  0  0  0  0  0  0  0  0
    5.4593    9.9001   42.6942 C   0  0  0  0  0  0  0  0  0  0  0  0
    9.5349    7.2138   44.2846 C   0  0  0  0  0  0  0  0  0  0  0  0
   11.7000    7.4152   43.5292 C   0  0  0  0  0  0  0  0  0  0  0  0
   11.2979   10.4252   40.1619 C   0  0  0  0  0  0  0  0  0  0  0  0
   13.3575   11.2921   40.8917 C   0  0  0  0  0  0  0  0  0  0  0  0
   13.6588   10.0789   41.7551 C   0  0  0  0  0  0  0  0  0  0  0  0
   11.1820    5.4949   44.6335 C   0  0  0  0  0  0  0  0  0  0  0  0
    9.8863    5.9632   44.8111 C   0  0  0  0  0  0  0  0  0  0  0  0
    3.7622   12.4992   42.4385 C   0  0  0  0  0  0  0  0  0  0  0  0
    3.0276   15.4308   41.6337 C   0  0  0  0  0  0  0  0  0  0  0  0
    2.4395   14.2371   37.0495 C   0  0  0  0  0  0  0  0  0  0  0  0
    1.1397   14.6453   37.1529 C   0  0  0  0  0  0  0  0  0  0  0  0
    0.5986   14.9066   38.4200 C   0  0  0  0  0  0  0  0  0  0  0  0
   -1.7373   15.1584   37.6097 C   0  0  0  0  0  0  0  0  0  0  0  0
   -4.3600   17.4260   39.1525 C   0  0  0  0  0  0  0  0  0  0  0  0
    4.4381   10.3607   43.4555 N   0  0  0  0  0  0  0  0  0  0  0  0
    4.3952    9.7542   44.7827 C   0  0  0  0  0  0  0  0  0  0  0  0
    7.5834    8.5667   43.4013 C   0  0  0  0  0  0  0  0  0  0  0  0
    5.5807   10.0997   41.4901 O   0  0  0  0  0  0  0  0  0  0  0  0
   10.4570    7.9435   43.6694 N   0  0  0  0  0  0  0  0  0  0  0  0
   12.6138    8.1458   42.8702 N   0  0  0  0  0  0  0  0  0  0  0  0
   12.3623    9.3996   42.1956 C   0  0  2  0  0  0  0  0  0  0  0  0
   11.4588    9.1637   40.9875 C   0  0  0  0  0  0  0  0  0  0  0  0
   12.5712   10.9366   39.7418 O   0  0  0  0  0  0  0  0  0  0  0  0
   12.0882    6.2000   43.9712 N   0  0  0  0  0  0  0  0  0  0  0  0
    8.7577    4.9789   45.6816 Cl  0  0  0  0  0  0  0  0  0  0  0  0
    4.6868   13.1047   42.9787 O   0  0  0  0  0  0  0  0  0  0  0  0
    3.0540   12.9954   41.4274 N   0  0  0  0  0  0  0  0  0  0  0  0
    3.3629   14.2410   40.7314 C   0  0  1  0  0  0  0  0  0  0  0  0
    4.0445   16.4235   41.5515 O   0  0  0  0  0  0  0  0  0  0  0  0
    2.6016   14.3560   39.4247 C   0  0  0  0  0  0  0  0  0  0  0  0
    3.1861   14.0909   38.1998 C   0  0  0  0  0  0  0  0  0  0  0  0
    1.3397   14.7679   39.5402 N   0  0  0  0  0  0  0  0  0  0  0  0
   -0.6895   15.3196   38.6242 N   0  0  0  0  0  0  0  0  0  0  0  0
   -2.7359   16.2951   37.6853 C   0  0  0  0  0  0  0  0  0  0  0  0
   -3.3038   16.3817   39.0613 N   0  0  1  0  0  0  0  0  0  0  0  0
   -2.2077   16.6268   40.0463 C   0  0  0  0  0  0  0  0  0  0  0  0
   -1.2125   15.4880   39.9825 C   0  0  0  0  0  0  0  0  0  0  0  0
    1.9755    9.5642   42.2017 H   0  0  0  0  0  0  0  0  0  0  0  0
    2.0516   11.0161   41.1468 H   0  0  0  0  0  0  0  0  0  0  0  0
    3.4041    9.8341   41.1468 H   0  0  0  0  0  0  0  0  0  0  0  0
    2.5756   11.2455   43.6871 H   0  0  0  0  0  0  0  0  0  0  0  0
    5.8232    8.2843   46.8412 H   0  0  0  0  0  0  0  0  0  0  0  0
    8.0478    7.2668   46.5134 H   0  0  0  0  0  0  0  0  0  0  0  0
   10.6918   10.1971   39.2728 H   0  0  0  0  0  0  0  0  0  0  0  0
   10.8042   11.1872   40.7829 H   0  0  0  0  0  0  0  0  0  0  0  0
   12.8021   12.0286   41.4910 H   0  0  0  0  0  0  0  0  0  0  0  0
   14.3116   11.7128   40.5415 H   0  0  0  0  0  0  0  0  0  0  0  0
   14.2635    9.3646   41.1771 H   0  0  0  0  0  0  0  0  0  0  0  0
   14.2101   10.4066   42.6489 H   0  0  0  0  0  0  0  0  0  0  0  0
   11.4623    4.5170   45.0520 H   0  0  0  0  0  0  0  0  0  0  0  0
    2.0695   15.8673   41.3154 H   0  0  0  0  0  0  0  0  0  0  0  0
    2.9584   15.0790   42.6737 H   0  0  0  0  0  0  0  0  0  0  0  0
    2.8832   14.0284   36.0648 H   0  0  0  0  0  0  0  0  0  0  0  0
    0.5231   14.7677   36.2502 H   0  0  0  0  0  0  0  0  0  0  0  0
   -1.2751   15.1497   36.6116 H   0  0  0  0  0  0  0  0  0  0  0  0
   -2.2654   14.2113   37.7943 H   0  0  0  0  0  0  0  0  0  0  0  0
   -4.5751   17.6386   40.2101 H   0  0  0  0  0  0  0  0  0  0  0  0
   -4.0114   18.3443   38.6574 H   0  0  0  0  0  0  0  0  0  0  0  0
   -5.2743   17.0670   38.6574 H   0  0  0  0  0  0  0  0  0  0  0  0
    3.5509    9.0554   44.8767 H   0  0  0  0  0  0  0  0  0  0  0  0
    4.2526   10.4777   45.5990 H   0  0  0  0  0  0  0  0  0  0  0  0
    8.0680    8.6376   42.4163 H   0  0  0  0  0  0  0  0  0  0  0  0
   13.5768    7.7816   42.8429 H   0  0  0  0  0  0  0  0  0  0  0  0
   11.8616   10.0711   42.9085 H   0  0  0  0  0  0  0  0  0  0  0  0
   10.4689    8.8376   41.3393 H   0  0  0  0  0  0  0  0  0  0  0  0
   11.9219    8.3926   40.3544 H   0  0  0  0  0  0  0  0  0  0  0  0
    2.2298   12.4633   41.1136 H   0  0  0  0  0  0  0  0  0  0  0  0
    4.4373   14.2409   40.4954 H   0  0  0  0  0  0  0  0  0  0  0  0
    4.3188   16.6913   42.4642 H   0  0  0  0  0  0  0  0  0  0  0  0
    4.2358   13.7669   38.1435 H   0  0  0  0  0  0  0  0  0  0  0  0
   -2.2311   17.2409   37.4390 H   0  0  0  0  0  0  0  0  0  0  0  0
   -3.5497   16.1101   36.9688 H   0  0  0  0  0  0  0  0  0  0  0  0
   -3.7542   15.4831   39.2863 H   0  0  0  0  0  0  0  0  0  0  0  0
   -1.7002   17.5720   39.8035 H   0  0  0  0  0  0  0  0  0  0  0  0
   -2.6308   16.6894   41.0598 H   0  0  0  0  0  0  0  0  0  0  0  0
   -1.7106   14.5579   40.2935 H   0  0  0  0  0  0  0  0  0  0  0  0
   -0.3726   15.7202   40.6538 H   0  0  0  0  0  0  0  0  0  0  0  0
  2  1  1  0
  2 16  1  0
  2 23  1  0
  3  4  2  0
  3  7  1  0
  3 24  1  0
  4  5  1  0
  5  6  2  0
  6  9  1  0
  6 25  1  0
  7  8  1  0
  7 25  2  0
  8 23  1  0
  8 26  2  0
  9 15  1  0
  9 27  2  0
 10 27  1  0
 10 28  1  0
 10 32  2  0
 11 30  1  0
 11 31  1  0
 12 13  1  0
 12 31  1  0
 13 29  1  0
 14 15  2  0
 14 32  1  0
 15 33  1  0
 16 34  2  0
 16 35  1  0
 36 17  1  0
 17 37  1  0
 18 19  2  0
 18 39  1  0
 19 20  1  0
 20 40  2  0
 20 41  1  0
 21 41  1  0
 21 42  1  0
 43 22  1  0
 23 24  1  0
 29 28  1  0
 29 30  1  0
 35 36  1  0
 36 38  1  0
 38 39  2  0
 38 40  1  0
 41 45  1  0
 42 43  1  0
 43 44  1  0
 44 45  1  0
  1 46  1  0
  1 47  1  0
  1 48  1  0
  2 49  1  1
  4 50  1  0
  5 51  1  0
 11 52  1  0
 11 53  1  0
 12 54  1  0
 12 55  1  0
 13 56  1  0
 13 57  1  0
 14 58  1  0
 17 59  1  0
 17 60  1  0
 18 61  1  0
 19 62  1  0
 21 63  1  0
 21 64  1  0
 22 65  1  0
 22 66  1  0
 22 67  1  0
 24 68  1  0
 24 69  1  0
 25 70  1  0
 28 71  1  0
 29 72  1  1
 30 73  1  0
 30 74  1  0
 35 75  1  0
 36 76  1  6
 37 77  1  0
 39 78  1  0
 42 79  1  0
 42 80  1  0
 43 81  1  1
 44 82  1  0
 44 83  1  0
 45 84  1  0
 45 85  1  0
M  CHG  1  43   1
M  END
>  <filename_input>  (9) 
7NR8_UOE_docked.sdf

>  <pdb_id>  (9) 
7NR8_UOE

>  <pose_rank>  (9) 
8

>  <num_atoms_heavy>  (9) 
45

>  <num_torsions>  (9) 
7

>  <pose>  (9) 
[5.708072132331126, 9.0337930427318, 44.83220280905671, -3.908667739094486, 2.3494231032537782, 0.609870019742442, -1.6589260782705462, 0.14145756523822292, -8.872645109977881, -6.858491920641869, -5.357881651040562, 0.9849214034009844, 3.416348487367104]

>  <energy>  (9) 
-1204.1220332783462

>  <inter_energy>  (9) 
-1222.2527901667593

>  <intra_energy>  (9) 
49.07612515976878

>  <rmsd>  (9) 
6.57808

>  <sdf_rank>  (9) 
0

$$$$

     RDKit          3D

 85 90  0  0  0  0  0  0  0  0999 V2000
    1.9296    8.4140   46.6919 C   0  0  0  0  0  0  0  0  0  0  0  0
    2.8292    9.5773   46.2691 C   0  0  2  0  0  0  0  0  0  0  0  0
    5.5662    8.7732   43.9010 C   0  0  0  0  0  0  0  0  0  0  0  0
    6.2803    8.5802   42.7414 C   0  0  0  0  0  0  0  0  0  0  0  0
    7.5259    7.9930   42.7851 C   0  0  0  0  0  0  0  0  0  0  0  0
    8.0832    7.5818   43.9942 C   0  0  0  0  0  0  0  0  0  0  0  0
    6.1018    8.3716   45.1120 C   0  0  0  0  0  0  0  0  0  0  0  0
    5.1262    8.6983   46.1779 C   0  0  0  0  0  0  0  0  0  0  0  0
    9.4571    7.0102   43.9987 C   0  0  0  0  0  0  0  0  0  0  0  0
   11.6491    7.3180   43.3666 C   0  0  0  0  0  0  0  0  0  0  0  0
   10.8961   11.2958   41.6973 C   0  0  0  0  0  0  0  0  0  0  0  0
   11.0778    9.9702   39.7644 C   0  0  0  0  0  0  0  0  0  0  0  0
   11.5482    8.7521   40.5410 C   0  0  0  0  0  0  0  0  0  0  0  0
   11.2111    5.5074   44.6727 C   0  0  0  0  0  0  0  0  0  0  0  0
    9.8710    5.8716   44.7036 C   0  0  0  0  0  0  0  0  0  0  0  0
    2.0658   10.6284   45.4628 C   0  0  0  0  0  0  0  0  0  0  0  0
   -1.5483   11.4640   45.6683 C   0  0  0  0  0  0  0  0  0  0  0  0
   -1.5614    9.7269   41.8461 C   0  0  0  0  0  0  0  0  0  0  0  0
   -0.5786   10.0666   40.9598 C   0  0  0  0  0  0  0  0  0  0  0  0
    0.4979   10.8538   41.3936 C   0  0  0  0  0  0  0  0  0  0  0  0
    1.4282   11.2205   39.1184 C   0  0  0  0  0  0  0  0  0  0  0  0
    5.1054   11.6809   38.3019 C   0  0  0  0  0  0  0  0  0  0  0  0
    4.0000    9.1065   45.5457 N   0  0  0  0  0  0  0  0  0  0  0  0
    4.2000    9.3484   44.1200 C   0  0  0  0  0  0  0  0  0  0  0  0
    7.3543    7.7926   45.1754 C   0  0  0  0  0  0  0  0  0  0  0  0
    5.2614    8.6326   47.3952 O   0  0  0  0  0  0  0  0  0  0  0  0
   10.3590    7.7416   43.3563 N   0  0  0  0  0  0  0  0  0  0  0  0
   12.5460    8.0441   42.6802 N   0  0  0  0  0  0  0  0  0  0  0  0
   12.2425    9.1771   41.8349 C   0  0  2  0  0  0  0  0  0  0  0  0
   11.3672   10.1696   42.5965 C   0  0  0  0  0  0  0  0  0  0  0  0
   10.1958   10.7875   40.5524 O   0  0  0  0  0  0  0  0  0  0  0  0
   12.1029    6.2073   43.9857 N   0  0  0  0  0  0  0  0  0  0  0  0
    8.7657    4.9006   45.6179 Cl  0  0  0  0  0  0  0  0  0  0  0  0
    2.6306   11.3987   44.6875 O   0  0  0  0  0  0  0  0  0  0  0  0
    0.7537   10.6426   45.6826 N   0  0  0  0  0  0  0  0  0  0  0  0
   -0.2027   11.4575   44.9393 C   0  0  1  0  0  0  0  0  0  0  0  0
   -1.3695   11.1800   47.0517 O   0  0  0  0  0  0  0  0  0  0  0  0
   -0.3882   10.9503   43.5220 C   0  0  0  0  0  0  0  0  0  0  0  0
   -1.4679   10.1713   43.1483 C   0  0  0  0  0  0  0  0  0  0  0  0
    0.5847   11.2782   42.6726 N   0  0  0  0  0  0  0  0  0  0  0  0
    1.5280   11.2437   40.5822 N   0  0  0  0  0  0  0  0  0  0  0  0
    2.7732   10.9104   38.4943 C   0  0  0  0  0  0  0  0  0  0  0  0
    3.7907   11.8931   38.9661 N   0  0  1  0  0  0  0  0  0  0  0  0
    3.9127   11.8203   40.4532 C   0  0  0  0  0  0  0  0  0  0  0  0
    2.5735   12.1401   41.0822 C   0  0  0  0  0  0  0  0  0  0  0  0
    1.8893    8.3619   47.7899 H   0  0  0  0  0  0  0  0  0  0  0  0
    0.9159    8.5713   46.2949 H   0  0  0  0  0  0  0  0  0  0  0  0
    2.3369    7.4725   46.2949 H   0  0  0  0  0  0  0  0  0  0  0  0
    3.1771   10.0659   47.1912 H   0  0  0  0  0  0  0  0  0  0  0  0
    5.8559    8.8954   41.7768 H   0  0  0  0  0  0  0  0  0  0  0  0
    8.0889    7.8466   41.8515 H   0  0  0  0  0  0  0  0  0  0  0  0
   10.2224   11.9523   42.2675 H   0  0  0  0  0  0  0  0  0  0  0  0
   11.7771   11.8537   41.3472 H   0  0  0  0  0  0  0  0  0  0  0  0
   11.9536   10.5681   39.4719 H   0  0  0  0  0  0  0  0  0  0  0  0
   10.5275    9.6234   38.8774 H   0  0  0  0  0  0  0  0  0  0  0  0
   10.6806    8.1219   40.7860 H   0  0  0  0  0  0  0  0  0  0  0  0
   12.2628    8.1899   39.9221 H   0  0  0  0  0  0  0  0  0  0  0  0
   11.5397    4.6183   45.2308 H   0  0  0  0  0  0  0  0  0  0  0  0
   -2.0136   12.4548   45.5598 H   0  0  0  0  0  0  0  0  0  0  0  0
   -2.1943   10.6902   45.2279 H   0  0  0  0  0  0  0  0  0  0  0  0
   -2.4133    9.1089   41.5262 H   0  0  0  0  0  0  0  0  0  0  0  0
   -0.6312    9.7258   39.9153 H   0  0  0  0  0  0  0  0  0  0  0  0
    0.7043   10.4485   38.8181 H   0  0  0  0  0  0  0  0  0  0  0  0
    1.0971   12.2103   38.7710 H   0  0  0  0  0  0  0  0  0  0  0  0
    5.8863   11.5548   39.0663 H   0  0  0  0  0  0  0  0  0  0  0  0
    5.0577   10.7788   37.6742 H   0  0  0  0  0  0  0  0  0  0  0  0
    5.3440   12.5521   37.6742 H   0  0  0  0  0  0  0  0  0  0  0  0
    4.1762   10.4236   43.8888 H   0  0  0  0  0  0  0  0  0  0  0  0
    3.4225    8.9067   43.4795 H   0  0  0  0  0  0  0  0  0  0  0  0
    7.7785    7.4980   46.1466 H   0  0  0  0  0  0  0  0  0  0  0  0
   13.5355    7.7703   42.7629 H   0  0  0  0  0  0  0  0  0  0  0  0
   13.1936    9.6559   41.5591 H   0  0  0  0  0  0  0  0  0  0  0  0
   11.9486   10.5949   43.4278 H   0  0  0  0  0  0  0  0  0  0  0  0
   10.4830    9.6339   42.9722 H   0  0  0  0  0  0  0  0  0  0  0  0
    0.3869   10.0360   46.4298 H   0  0  0  0  0  0  0  0  0  0  0  0
    0.1964   12.4808   44.8805 H   0  0  0  0  0  0  0  0  0  0  0  0
   -1.8115   11.8817   47.5924 H   0  0  0  0  0  0  0  0  0  0  0  0
   -2.2442    9.9088   43.8821 H   0  0  0  0  0  0  0  0  0  0  0  0
    3.0844    9.8959   38.7840 H   0  0  0  0  0  0  0  0  0  0  0  0
    2.6879   10.9751   37.3996 H   0  0  0  0  0  0  0  0  0  0  0  0
    3.4762   12.8391   38.7071 H   0  0  0  0  0  0  0  0  0  0  0  0
    4.2239   10.8070   40.7471 H   0  0  0  0  0  0  0  0  0  0  0  0
    4.6636   12.5469   40.7970 H   0  0  0  0  0  0  0  0  0  0  0  0
    2.3021   13.1784   40.8409 H   0  0  0  0  0  0  0  0  0  0  0  0
    2.6579   12.0053   42.1707 H   0  0  0  0  0  0  0  0  0  0  0  0
  2  1  1  0
  2 16  1  0
  2 23  1  0
  3  4  2  0
  3  7  1  0
  3 24  1  0
  4  5  1  0
  5  6  2  0
  6  9  1  0
  6 25  1  0
  7  8  1  0
  7 25  2  0
  8 23  1  0
  8 26  2  0
  9 15  1  0
  9 27  2  0
 10 27  1  0
 10 28  1  0
 10 32  2  0
 11 30  1  0
 11 31  1  0
 12 13  1  0
 12 31  1  0
 13 29  1  0
 14 15  2  0
 14 32  1  0
 15 33  1  0
 16 34  2  0
 16 35  1  0
 36 17  1  0
 17 37  1  0
 18 19  2  0
 18 39  1  0
 19 20  1  0
 20 40  2  0
 20 41  1  0
 21 41  1  0
 21 42  1  0
 43 22  1  0
 23 24  1  0
 29 28  1  0
 29 30  1  0
 35 36  1  0
 36 38  1  0
 38 39  2  0
 38 40  1  0
 41 45  1  0
 42 43  1  0
 43 44  1  0
 44 45  1  0
  1 46  1  0
  1 47  1  0
  1 48  1  0
  2 49  1  1
  4 50  1  0
  5 51  1  0
 11 52  1  0
 11 53  1  0
 12 54  1  0
 12 55  1  0
 13 56  1  0
 13 57  1  0
 14 58  1  0
 17 59  1  0
 17 60  1  0
 18 61  1  0
 19 62  1  0
 21 63  1  0
 21 64  1  0
 22 65  1  0
 22 66  1  0
 22 67  1  0
 24 68  1  0
 24 69  1  0
 25 70  1  0
 28 71  1  0
 29 72  1  6
 30 73  1  0
 30 74  1  0
 35 75  1  0
 36 76  1  6
 37 77  1  0
 39 78  1  0
 42 79  1  0
 42 80  1  0
 43 81  1  1
 44 82  1  0
 44 83  1  0
 45 84  1  0
 45 85  1  0
M  CHG  1  43   1
M  END
>  <filename_input>  (10) 
7NR8_UOE_docked.sdf

>  <pdb_id>  (10) 
7NR8_UOE

>  <pose_rank>  (10) 
9

>  <num_atoms_heavy>  (10) 
45

>  <num_torsions>  (10) 
7

>  <pose>  (10) 
[5.566193751477797, 8.773197562631983, 43.90103166996494, -1.5341759314490455, 0.5930809749705045, 0.2626896511974667, 7.86717721535206, 2.2027454868295693, 1.2351360757335552, -0.6082924009290085, -0.7212043679813716, -1.7889974307395415, 1.4233272596296216]

>  <energy>  (10) 
-1131.147907735776

>  <inter_energy>  (10) 
-1235.2469118595789

>  <intra_energy>  (10) 
91.25834626522554

>  <rmsd>  (10) 
4.87079

>  <sdf_rank>  (10) 
0

$$$$

     RDKit          3D

 85 90  0  0  0  0  0  0  0  0999 V2000
    4.3819   13.8545   44.5725 C   0  0  0  0  0  0  0  0  0  0  0  0
    4.4523   12.7786   43.4866 C   0  0  2  0  0  0  0  0  0  0  0  0
    6.0194    9.6898   44.8091 C   0  0  0  0  0  0  0  0  0  0  0  0
    6.2698    8.5687   45.5656 C   0  0  0  0  0  0  0  0  0  0  0  0
    7.4546    7.8819   45.4143 C   0  0  0  0  0  0  0  0  0  0  0  0
    8.4185    8.3066   44.5022 C   0  0  0  0  0  0  0  0  0  0  0  0
    6.9639   10.1282   43.8978 C   0  0  0  0  0  0  0  0  0  0  0  0
    6.4340   11.3415   43.2332 C   0  0  0  0  0  0  0  0  0  0  0  0
    9.6550    7.4970   44.3290 C   0  0  0  0  0  0  0  0  0  0  0  0
   11.8805    7.5226   43.7414 C   0  0  0  0  0  0  0  0  0  0  0  0
   12.5632   10.8953   40.6069 C   0  0  0  0  0  0  0  0  0  0  0  0
   14.1584   11.6287   42.1700 C   0  0  0  0  0  0  0  0  0  0  0  0
   14.1894   10.2927   42.8925 C   0  0  0  0  0  0  0  0  0  0  0  0
   11.0665    5.5621   44.5596 C   0  0  0  0  0  0  0  0  0  0  0  0
    9.8220    6.1596   44.7140 C   0  0  0  0  0  0  0  0  0  0  0  0
    3.0636   12.2932   43.0701 C   0  0  0  0  0  0  0  0  0  0  0  0
    1.5564   10.9868   40.2860 C   0  0  0  0  0  0  0  0  0  0  0  0
   -0.7056   14.8556   39.5201 C   0  0  0  0  0  0  0  0  0  0  0  0
    0.2604   15.5355   38.8334 C   0  0  0  0  0  0  0  0  0  0  0  0
    1.5965   15.1214   38.9327 C   0  0  0  0  0  0  0  0  0  0  0  0
    2.5239   17.0972   37.7441 C   0  0  0  0  0  0  0  0  0  0  0  0
    5.6511   17.0931   35.5944 C   0  0  0  0  0  0  0  0  0  0  0  0
    5.2980   11.6679   43.8948 N   0  0  0  0  0  0  0  0  0  0  0  0
    4.8446   10.6199   44.8043 C   0  0  0  0  0  0  0  0  0  0  0  0
    8.1516    9.4446   43.7246 C   0  0  0  0  0  0  0  0  0  0  0  0
    6.8899   11.9597   42.2769 O   0  0  0  0  0  0  0  0  0  0  0  0
   10.6977    8.1772   43.8697 N   0  0  0  0  0  0  0  0  0  0  0  0
   12.9185    8.2099   43.2382 N   0  0  0  0  0  0  0  0  0  0  0  0
   12.8622    9.5558   42.7133 C   0  0  2  0  0  0  0  0  0  0  0  0
   12.4804    9.5180   41.2354 C   0  0  0  0  0  0  0  0  0  0  0  0
   13.8708   11.4631   40.7711 O   0  0  0  0  0  0  0  0  0  0  0  0
   12.0944    6.2256   44.0495 N   0  0  0  0  0  0  0  0  0  0  0  0
    8.5264    5.2232   45.3810 Cl  0  0  0  0  0  0  0  0  0  0  0  0
    2.2879   11.7631   43.8644 O   0  0  0  0  0  0  0  0  0  0  0  0
    2.7788   12.4819   41.7843 N   0  0  0  0  0  0  0  0  0  0  0  0
    1.4754   12.2280   41.1778 C   0  0  1  0  0  0  0  0  0  0  0  0
    2.5212   11.1726   39.2560 O   0  0  0  0  0  0  0  0  0  0  0  0
    0.9953   13.4148   40.3647 C   0  0  0  0  0  0  0  0  0  0  0  0
   -0.3376   13.7771   40.2969 C   0  0  0  0  0  0  0  0  0  0  0  0
    1.9463   14.0596   39.6901 N   0  0  0  0  0  0  0  0  0  0  0  0
    2.6316   15.7368   38.2835 N   0  0  0  0  0  0  0  0  0  0  0  0
    3.3611   17.2443   36.4902 C   0  0  0  0  0  0  0  0  0  0  0  0
    4.7759   16.8711   36.7773 N   0  0  1  0  0  0  0  0  0  0  0  0
    4.8402   15.4538   37.2452 C   0  0  0  0  0  0  0  0  0  0  0  0
    4.0138   15.3038   38.5045 C   0  0  0  0  0  0  0  0  0  0  0  0
    4.4131   13.3779   45.5634 H   0  0  0  0  0  0  0  0  0  0  0  0
    5.2372   14.5381   44.4673 H   0  0  0  0  0  0  0  0  0  0  0  0
    3.4448   14.4208   44.4673 H   0  0  0  0  0  0  0  0  0  0  0  0
    4.9116   13.2445   42.6023 H   0  0  0  0  0  0  0  0  0  0  0  0
    5.5223    8.2196   46.2932 H   0  0  0  0  0  0  0  0  0  0  0  0
    7.6423    6.9850   46.0228 H   0  0  0  0  0  0  0  0  0  0  0  0
   12.3399   10.8135   39.5329 H   0  0  0  0  0  0  0  0  0  0  0  0
   11.8338   11.5503   41.1059 H   0  0  0  0  0  0  0  0  0  0  0  0
   13.3812   12.2621   42.6224 H   0  0  0  0  0  0  0  0  0  0  0  0
   15.1492   12.0969   42.2662 H   0  0  0  0  0  0  0  0  0  0  0  0
   15.0033    9.6775   42.4812 H   0  0  0  0  0  0  0  0  0  0  0  0
   14.3544   10.4722   43.9652 H   0  0  0  0  0  0  0  0  0  0  0  0
   11.2021    4.5149   44.8676 H   0  0  0  0  0  0  0  0  0  0  0  0
    1.8440   10.1196   40.8986 H   0  0  0  0  0  0  0  0  0  0  0  0
    0.5726   10.8167   39.8243 H   0  0  0  0  0  0  0  0  0  0  0  0
   -1.7596   15.1634   39.4543 H   0  0  0  0  0  0  0  0  0  0  0  0
   -0.0076   16.4000   38.2082 H   0  0  0  0  0  0  0  0  0  0  0  0
    1.4716   17.3074   37.5023 H   0  0  0  0  0  0  0  0  0  0  0  0
    2.8914   17.8071   38.4997 H   0  0  0  0  0  0  0  0  0  0  0  0
    6.6658   17.3505   35.9322 H   0  0  0  0  0  0  0  0  0  0  0  0
    5.6881   16.1759   34.9883 H   0  0  0  0  0  0  0  0  0  0  0  0
    5.2464   17.9170   34.9883 H   0  0  0  0  0  0  0  0  0  0  0  0
    3.9409   10.1220   44.4231 H   0  0  0  0  0  0  0  0  0  0  0  0
    4.5626   10.9870   45.8022 H   0  0  0  0  0  0  0  0  0  0  0  0
    8.8849    9.7903   42.9811 H   0  0  0  0  0  0  0  0  0  0  0  0
   13.8337    7.7375   43.2251 H   0  0  0  0  0  0  0  0  0  0  0  0
   12.0976   10.1069   43.2805 H   0  0  0  0  0  0  0  0  0  0  0  0
   11.4506    9.1431   41.1413 H   0  0  0  0  0  0  0  0  0  0  0  0
   13.1863    8.8561   40.7125 H   0  0  0  0  0  0  0  0  0  0  0  0
    3.5310   12.8318   41.1738 H   0  0  0  0  0  0  0  0  0  0  0  0
    0.7505   12.0604   41.9880 H   0  0  0  0  0  0  0  0  0  0  0  0
    3.4081   11.3435   39.6615 H   0  0  0  0  0  0  0  0  0  0  0  0
   -1.0965   13.2110   40.8568 H   0  0  0  0  0  0  0  0  0  0  0  0
    2.9619   16.5845   35.7058 H   0  0  0  0  0  0  0  0  0  0  0  0
    3.3243   18.2901   36.1510 H   0  0  0  0  0  0  0  0  0  0  0  0
    5.1294   17.4821   37.5274 H   0  0  0  0  0  0  0  0  0  0  0  0
    4.4418   14.7905   36.4633 H   0  0  0  0  0  0  0  0  0  0  0  0
    5.8852   15.1829   37.4563 H   0  0  0  0  0  0  0  0  0  0  0  0
    4.4592   15.9170   39.3016 H   0  0  0  0  0  0  0  0  0  0  0  0
    4.0053   14.2421   38.7922 H   0  0  0  0  0  0  0  0  0  0  0  0
  2  1  1  0
  2 16  1  0
  2 23  1  0
  3  4  2  0
  3  7  1  0
  3 24  1  0
  4  5  1  0
  5  6  2  0
  6  9  1  0
  6 25  1  0
  7  8  1  0
  7 25  2  0
  8 23  1  0
  8 26  2  0
  9 15  1  0
  9 27  2  0
 10 27  1  0
 10 28  1  0
 10 32  2  0
 11 30  1  0
 11 31  1  0
 12 13  1  0
 12 31  1  0
 13 29  1  0
 14 15  2  0
 14 32  1  0
 15 33  1  0
 16 34  2  0
 16 35  1  0
 36 17  1  0
 17 37  1  0
 18 19  2  0
 18 39  1  0
 19 20  1  0
 20 40  2  0
 20 41  1  0
 21 41  1  0
 21 42  1  0
 43 22  1  0
 23 24  1  0
 29 28  1  0
 29 30  1  0
 35 36  1  0
 36 38  1  0
 38 39  2  0
 38 40  1  0
 41 45  1  0
 42 43  1  0
 43 44  1  0
 44 45  1  0
  1 46  1  0
  1 47  1  0
  1 48  1  0
  2 49  1  6
  4 50  1  0
  5 51  1  0
 11 52  1  0
 11 53  1  0
 12 54  1  0
 12 55  1  0
 13 56  1  0
 13 57  1  0
 14 58  1  0
 17 59  1  0
 17 60  1  0
 18 61  1  0
 19 62  1  0
 21 63  1  0
 21 64  1  0
 22 65  1  0
 22 66  1  0
 22 67  1  0
 24 68  1  0
 24 69  1  0
 25 70  1  0
 28 71  1  0
 29 72  1  1
 30 73  1  0
 30 74  1  0
 35 75  1  0
 36 76  1  1
 37 77  1  0
 39 78  1  0
 42 79  1  0
 42 80  1  0
 43 81  1  1
 44 82  1  0
 44 83  1  0
 45 84  1  0
 45 85  1  0
M  CHG  1  43   1
M  END
>  <filename_input>  (11) 
7NR8_UOE_docked.sdf

>  <pdb_id>  (11) 
7NR8_UOE

>  <pose_rank>  (11) 
10

>  <num_atoms_heavy>  (11) 
45

>  <num_torsions>  (11) 
7

>  <pose>  (11) 
[6.019370845861733, 9.689825812787268, 44.809084530962686, 1.806881538859208, -1.1739816197491275, -0.3686053548251989, -2.005645620858297, -0.20233872639846023, 0.6787402953844254, 1.0677564629179932, 0.2982034431322056, 0.2291099340242679, -0.034171429821148576]

>  <energy>  (11) 
-972.8314073176231

>  <inter_energy>  (11) 
-1047.6878961995883

>  <intra_energy>  (11) 
43.43854168817029

>  <rmsd>  (11) 
6.90744

>  <sdf_rank>  (11) 
0

$$$$

     RDKit          3D

 85 90  0  0  0  0  0  0  0  0999 V2000
    1.9134   10.2085   44.2645 C   0  0  0  0  0  0  0  0  0  0  0  0
    3.2659   10.9213   44.2003 C   0  0  2  0  0  0  0  0  0  0  0  0
    5.6379    8.1617   43.4905 C   0  0  0  0  0  0  0  0  0  0  0  0
    6.1547    6.9388   43.1307 C   0  0  0  0  0  0  0  0  0  0  0  0
    7.4881    6.6622   43.3398 C   0  0  0  0  0  0  0  0  0  0  0  0
    8.3343    7.6056   43.9189 C   0  0  0  0  0  0  0  0  0  0  0  0
    6.4615    9.1123   44.0673 C   0  0  0  0  0  0  0  0  0  0  0  0
    5.6471   10.3174   44.3489 C   0  0  0  0  0  0  0  0  0  0  0  0
    9.7798    7.2846   44.0670 C   0  0  0  0  0  0  0  0  0  0  0  0
   11.9364    8.0155   43.7303 C   0  0  0  0  0  0  0  0  0  0  0  0
   10.9512   10.7070   40.3957 C   0  0  0  0  0  0  0  0  0  0  0  0
   13.0539   11.7265   40.6518 C   0  0  0  0  0  0  0  0  0  0  0  0
   13.5358   10.6791   41.6412 C   0  0  0  0  0  0  0  0  0  0  0  0
   11.6898    6.0680   44.8800 C   0  0  0  0  0  0  0  0  0  0  0  0
   10.3111    6.1887   44.7609 C   0  0  0  0  0  0  0  0  0  0  0  0
    3.3183   11.9504   43.0707 C   0  0  0  0  0  0  0  0  0  0  0  0
    4.2572   14.7268   42.2933 C   0  0  0  0  0  0  0  0  0  0  0  0
    3.7860   11.6023   38.6267 C   0  0  0  0  0  0  0  0  0  0  0  0
    3.3688   12.6779   37.8947 C   0  0  0  0  0  0  0  0  0  0  0  0
    3.4418   13.9617   38.4541 C   0  0  0  0  0  0  0  0  0  0  0  0
    2.1655   15.0655   36.6295 C   0  0  0  0  0  0  0  0  0  0  0  0
    2.6676   18.6387   35.4543 C   0  0  0  0  0  0  0  0  0  0  0  0
    4.3620    9.9706   44.0979 N   0  0  0  0  0  0  0  0  0  0  0  0
    4.2395    8.6929   43.4026 C   0  0  0  0  0  0  0  0  0  0  0  0
    7.8032    8.8560   44.2729 C   0  0  0  0  0  0  0  0  0  0  0  0
    6.0123   11.4246   44.7297 O   0  0  0  0  0  0  0  0  0  0  0  0
   10.6005    8.2064   43.5796 N   0  0  0  0  0  0  0  0  0  0  0  0
   12.7583    8.9344   43.1983 N   0  0  0  0  0  0  0  0  0  0  0  0
   12.3517   10.0541   42.3788 C   0  0  2  0  0  0  0  0  0  0  0  0
   11.2910    9.6028   41.3775 C   0  0  0  0  0  0  0  0  0  0  0  0
   12.1231   11.1693   39.7084 O   0  0  0  0  0  0  0  0  0  0  0  0
   12.5115    6.9603   44.3455 N   0  0  0  0  0  0  0  0  0  0  0  0
    9.3044    4.9766   45.4805 Cl  0  0  0  0  0  0  0  0  0  0  0  0
    2.3031   12.3656   42.5135 O   0  0  0  0  0  0  0  0  0  0  0  0
    4.5464   12.3414   42.7408 N   0  0  0  0  0  0  0  0  0  0  0  0
    4.8499   13.4081   41.7914 C   0  0  1  0  0  0  0  0  0  0  0  0
    5.2468   15.7500   42.3001 O   0  0  0  0  0  0  0  0  0  0  0  0
    4.3125   13.0962   40.4079 C   0  0  0  0  0  0  0  0  0  0  0  0
    4.2678   11.8100   39.9020 C   0  0  0  0  0  0  0  0  0  0  0  0
    3.9221   14.1561   39.7011 N   0  0  0  0  0  0  0  0  0  0  0  0
    3.0496   15.0975   37.8002 N   0  0  0  0  0  0  0  0  0  0  0  0
    2.5027   16.1902   35.6724 C   0  0  0  0  0  0  0  0  0  0  0  0
    2.4357   17.4994   36.3831 N   0  0  1  0  0  0  0  0  0  0  0  0
    3.4109   17.5108   37.5148 C   0  0  0  0  0  0  0  0  0  0  0  0
    3.0718   16.3953   38.4801 C   0  0  0  0  0  0  0  0  0  0  0  0
    1.6278   10.0580   45.3161 H   0  0  0  0  0  0  0  0  0  0  0  0
    1.1513   10.8222   43.7618 H   0  0  0  0  0  0  0  0  0  0  0  0
    1.9888    9.2330   43.7618 H   0  0  0  0  0  0  0  0  0  0  0  0
    3.3843   11.4713   45.1456 H   0  0  0  0  0  0  0  0  0  0  0  0
    5.5017    6.1799   42.6749 H   0  0  0  0  0  0  0  0  0  0  0  0
    7.8906    5.6818   43.0452 H   0  0  0  0  0  0  0  0  0  0  0  0
   10.2311   10.3224   39.6584 H   0  0  0  0  0  0  0  0  0  0  0  0
   10.5203   11.5503   40.9554 H   0  0  0  0  0  0  0  0  0  0  0  0
   12.5600   12.5396   41.2039 H   0  0  0  0  0  0  0  0  0  0  0  0
   13.9250   12.1040   40.0963 H   0  0  0  0  0  0  0  0  0  0  0  0
   14.0805    9.8923   41.0988 H   0  0  0  0  0  0  0  0  0  0  0  0
   14.1977   11.1615   42.3755 H   0  0  0  0  0  0  0  0  0  0  0  0
   12.1091    5.2127   45.4302 H   0  0  0  0  0  0  0  0  0  0  0  0
    3.4313   15.0271   41.6316 H   0  0  0  0  0  0  0  0  0  0  0  0
    3.8889   14.5825   43.3197 H   0  0  0  0  0  0  0  0  0  0  0  0
    3.7384   10.5872   38.2055 H   0  0  0  0  0  0  0  0  0  0  0  0
    2.9790   12.5381   36.8756 H   0  0  0  0  0  0  0  0  0  0  0  0
    2.2866   14.1025   36.1119 H   0  0  0  0  0  0  0  0  0  0  0  0
    1.1262   15.1891   36.9679 H   0  0  0  0  0  0  0  0  0  0  0  0
    2.8539   19.5537   36.0357 H   0  0  0  0  0  0  0  0  0  0  0  0
    3.5403   18.4231   34.8203 H   0  0  0  0  0  0  0  0  0  0  0  0
    1.7801   18.7813   34.8203 H   0  0  0  0  0  0  0  0  0  0  0  0
    3.9296    8.8340   42.3567 H   0  0  0  0  0  0  0  0  0  0  0  0
    3.4803    8.0227   43.8320 H   0  0  0  0  0  0  0  0  0  0  0  0
    8.4524    9.6280   44.7117 H   0  0  0  0  0  0  0  0  0  0  0  0
   13.7651    8.8330   43.3905 H   0  0  0  0  0  0  0  0  0  0  0  0
   11.9317   10.8231   43.0437 H   0  0  0  0  0  0  0  0  0  0  0  0
   10.3804    9.3180   41.9249 H   0  0  0  0  0  0  0  0  0  0  0  0
   11.6904    8.7479   40.8122 H   0  0  0  0  0  0  0  0  0  0  0  0
    5.3389   11.8574   43.1865 H   0  0  0  0  0  0  0  0  0  0  0  0
    5.9439   13.4941   41.7154 H   0  0  0  0  0  0  0  0  0  0  0  0
    5.4731   15.9839   43.2351 H   0  0  0  0  0  0  0  0  0  0  0  0
    4.6131   10.9612   40.5107 H   0  0  0  0  0  0  0  0  0  0  0  0
    3.5186   16.0410   35.2778 H   0  0  0  0  0  0  0  0  0  0  0  0
    1.7783   16.1904   34.8445 H   0  0  0  0  0  0  0  0  0  0  0  0
    1.4863   17.6158   36.7651 H   0  0  0  0  0  0  0  0  0  0  0  0
    4.4284   17.3620   37.1244 H   0  0  0  0  0  0  0  0  0  0  0  0
    3.3579   18.4778   38.0366 H   0  0  0  0  0  0  0  0  0  0  0  0
    2.0814   16.5882   38.9183 H   0  0  0  0  0  0  0  0  0  0  0  0
    3.8426   16.3656   39.2642 H   0  0  0  0  0  0  0  0  0  0  0  0
  2  1  1  0
  2 16  1  0
  2 23  1  0
  3  4  2  0
  3  7  1  0
  3 24  1  0
  4  5  1  0
  5  6  2  0
  6  9  1  0
  6 25  1  0
  7  8  1  0
  7 25  2  0
  8 23  1  0
  8 26  2  0
  9 15  1  0
  9 27  2  0
 10 27  1  0
 10 28  1  0
 10 32  2  0
 11 30  1  0
 11 31  1  0
 12 13  1  0
 12 31  1  0
 13 29  1  0
 14 15  2  0
 14 32  1  0
 15 33  1  0
 16 34  2  0
 16 35  1  0
 36 17  1  0
 17 37  1  0
 18 19  2  0
 18 39  1  0
 19 20  1  0
 20 40  2  0
 20 41  1  0
 21 41  1  0
 21 42  1  0
 43 22  1  0
 23 24  1  0
 29 28  1  0
 29 30  1  0
 35 36  1  0
 36 38  1  0
 38 39  2  0
 38 40  1  0
 41 45  1  0
 42 43  1  0
 43 44  1  0
 44 45  1  0
  1 46  1  0
  1 47  1  0
  1 48  1  0
  2 49  1  1
  4 50  1  0
  5 51  1  0
 11 52  1  0
 11 53  1  0
 12 54  1  0
 12 55  1  0
 13 56  1  0
 13 57  1  0
 14 58  1  0
 17 59  1  0
 17 60  1  0
 18 61  1  0
 19 62  1  0
 21 63  1  0
 21 64  1  0
 22 65  1  0
 22 66  1  0
 22 67  1  0
 24 68  1  0
 24 69  1  0
 25 70  1  0
 28 71  1  0
 29 72  1  1
 30 73  1  0
 30 74  1  0
 35 75  1  0
 36 76  1  6
 37 77  1  0
 39 78  1  0
 42 79  1  0
 42 80  1  0
 43 81  1  1
 44 82  1  0
 44 83  1  0
 45 84  1  0
 45 85  1  0
M  CHG  1  43   1
M  END
>  <filename_input>  (12) 
7NR8_UOE_docked.sdf

>  <pdb_id>  (12) 
7NR8_UOE

>  <pose_rank>  (12) 
11

>  <num_atoms_heavy>  (12) 
45

>  <num_torsions>  (12) 
7

>  <pose>  (12) 
[5.637895291734301, 8.161732190561645, 43.490519933069606, 3.134037155618011, -1.1696384923698053, -0.22028670651741403, 21.799240090939847, -5.7079045890124105, 6.150990893417204, 2.4086099743805063, 9.538962742744017, 2.146549122425815, -3.033759586748434]

>  <energy>  (12) 
-868.103516905315

>  <inter_energy>  (12) 
-987.6640962815192

>  <intra_energy>  (12) 
116.0754921591075

>  <rmsd>  (12) 
7.14287

>  <sdf_rank>  (12) 
0

$$$$

     RDKit          3D

 85 90  0  0  0  0  0  0  0  0999 V2000
    3.8648   13.1918   43.3583 C   0  0  0  0  0  0  0  0  0  0  0  0
    3.6159   11.7368   42.9552 C   0  0  2  0  0  0  0  0  0  0  0  0
    5.7102    9.2863   44.7867 C   0  0  0  0  0  0  0  0  0  0  0  0
    6.2001    8.4580   45.7695 C   0  0  0  0  0  0  0  0  0  0  0  0
    7.4185    7.8357   45.6065 C   0  0  0  0  0  0  0  0  0  0  0  0
    8.1763    8.0330   44.4540 C   0  0  0  0  0  0  0  0  0  0  0  0
    6.4475    9.4957   43.6348 C   0  0  0  0  0  0  0  0  0  0  0  0
    5.6868   10.4209   42.7630 C   0  0  0  0  0  0  0  0  0  0  0  0
    9.4561    7.2905   44.2954 C   0  0  0  0  0  0  0  0  0  0  0  0
   11.6251    7.3772   43.5292 C   0  0  0  0  0  0  0  0  0  0  0  0
   11.4233   10.3120   40.0511 C   0  0  0  0  0  0  0  0  0  0  0  0
   13.4584   11.1571   40.8697 C   0  0  0  0  0  0  0  0  0  0  0  0
   13.6975    9.9516   41.7629 C   0  0  0  0  0  0  0  0  0  0  0  0
   11.0261    5.5080   44.6793 C   0  0  0  0  0  0  0  0  0  0  0  0
    9.7534    6.0379   44.8498 C   0  0  0  0  0  0  0  0  0  0  0  0
    2.2132   11.2670   43.3418 C   0  0  0  0  0  0  0  0  0  0  0  0
   -0.4870    9.8266   41.6475 C   0  0  0  0  0  0  0  0  0  0  0  0
   -2.9042   13.5794   42.2233 C   0  0  0  0  0  0  0  0  0  0  0  0
   -2.3627   14.3952   41.2704 C   0  0  0  0  0  0  0  0  0  0  0  0
   -1.0964   14.0967   40.7469 C   0  0  0  0  0  0  0  0  0  0  0  0
   -0.8681   16.2350   39.5010 C   0  0  0  0  0  0  0  0  0  0  0  0
    1.0217   16.6809   36.2405 C   0  0  0  0  0  0  0  0  0  0  0  0
    4.6357   10.8539   43.4995 N   0  0  0  0  0  0  0  0  0  0  0  0
    4.4499   10.0950   44.7326 C   0  0  0  0  0  0  0  0  0  0  0  0
    7.6651    8.8701   43.4496 C   0  0  0  0  0  0  0  0  0  0  0  0
    5.9170   10.7567   41.6060 O   0  0  0  0  0  0  0  0  0  0  0  0
   10.4074    7.9637   43.6608 N   0  0  0  0  0  0  0  0  0  0  0  0
   12.5679    8.0507   42.8508 N   0  0  0  0  0  0  0  0  0  0  0  0
   12.3701    9.2987   42.1481 C   0  0  2  0  0  0  0  0  0  0  0  0
   11.5232    9.0599   40.9002 C   0  0  0  0  0  0  0  0  0  0  0  0
   12.7237   10.7977   39.6874 O   0  0  0  0  0  0  0  0  0  0  0  0
   11.9602    6.1564   43.9981 N   0  0  0  0  0  0  0  0  0  0  0  0
    8.5853    5.1253   45.7461 Cl  0  0  0  0  0  0  0  0  0  0  0  0
    1.9410   10.8772   44.4764 O   0  0  0  0  0  0  0  0  0  0  0  0
    1.3284   11.3054   42.3490 N   0  0  0  0  0  0  0  0  0  0  0  0
   -0.0988   11.0373   42.4995 C   0  0  1  0  0  0  0  0  0  0  0  0
   -0.0827   10.0156   40.2958 O   0  0  0  0  0  0  0  0  0  0  0  0
   -0.9387   12.2361   42.1025 C   0  0  0  0  0  0  0  0  0  0  0  0
   -2.1860   12.4810   42.6472 C   0  0  0  0  0  0  0  0  0  0  0  0
   -0.4038   13.0147   41.1629 N   0  0  0  0  0  0  0  0  0  0  0  0
   -0.4734   14.8518   39.7913 N   0  0  0  0  0  0  0  0  0  0  0  0
   -0.6620   16.5546   38.0346 C   0  0  0  0  0  0  0  0  0  0  0  0
    0.7543   16.2891   37.6510 N   0  0  1  0  0  0  0  0  0  0  0  0
    1.0817   14.8510   37.8892 C   0  0  0  0  0  0  0  0  0  0  0  0
    0.8877   14.5290   39.3555 C   0  0  0  0  0  0  0  0  0  0  0  0
    3.8784   13.2712   44.4554 H   0  0  0  0  0  0  0  0  0  0  0  0
    4.8328   13.5237   42.9547 H   0  0  0  0  0  0  0  0  0  0  0  0
    3.0622   13.8266   42.9547 H   0  0  0  0  0  0  0  0  0  0  0  0
    3.6820   11.6917   41.8581 H   0  0  0  0  0  0  0  0  0  0  0  0
    5.6178    8.2920   46.6879 H   0  0  0  0  0  0  0  0  0  0  0  0
    7.7986    7.1731   46.3980 H   0  0  0  0  0  0  0  0  0  0  0  0
   10.8578   10.0809   39.1363 H   0  0  0  0  0  0  0  0  0  0  0  0
   10.9122   11.0902   40.6368 H   0  0  0  0  0  0  0  0  0  0  0  0
   12.8863   11.9105   41.4311 H   0  0  0  0  0  0  0  0  0  0  0  0
   14.4352   11.5580   40.5613 H   0  0  0  0  0  0  0  0  0  0  0  0
   14.3181    9.2199   41.2249 H   0  0  0  0  0  0  0  0  0  0  0  0
   14.2095   10.2832   42.6783 H   0  0  0  0  0  0  0  0  0  0  0  0
   11.2640    4.5284   45.1194 H   0  0  0  0  0  0  0  0  0  0  0  0
    0.0048    8.9287   42.0499 H   0  0  0  0  0  0  0  0  0  0  0  0
   -1.5800    9.7073   41.6777 H   0  0  0  0  0  0  0  0  0  0  0  0
   -3.8967   13.7952   42.6455 H   0  0  0  0  0  0  0  0  0  0  0  0
   -2.9151   15.2784   40.9169 H   0  0  0  0  0  0  0  0  0  0  0  0
   -1.9304   16.3679   39.7536 H   0  0  0  0  0  0  0  0  0  0  0  0
   -0.2449   16.9138   40.1016 H   0  0  0  0  0  0  0  0  0  0  0  0
    1.6417   17.5894   36.2236 H   0  0  0  0  0  0  0  0  0  0  0  0
    1.5524   15.8652   35.7277 H   0  0  0  0  0  0  0  0  0  0  0  0
    0.0687   16.8778   35.7277 H   0  0  0  0  0  0  0  0  0  0  0  0
    3.5614    9.4489   44.6753 H   0  0  0  0  0  0  0  0  0  0  0  0
    4.2839   10.7218   45.6212 H   0  0  0  0  0  0  0  0  0  0  0  0
    8.2313    9.0271   42.5197 H   0  0  0  0  0  0  0  0  0  0  0  0
   13.5136    7.6432   42.8291 H   0  0  0  0  0  0  0  0  0  0  0  0
   11.8459    9.9879   42.8265 H   0  0  0  0  0  0  0  0  0  0  0  0
   10.5121    8.7541   41.2071 H   0  0  0  0  0  0  0  0  0  0  0  0
   12.0042    8.2729   40.3009 H   0  0  0  0  0  0  0  0  0  0  0  0
    1.6746   11.5409   41.4080 H   0  0  0  0  0  0  0  0  0  0  0  0
   -0.2947   10.8265   43.5612 H   0  0  0  0  0  0  0  0  0  0  0  0
    0.8139   10.4347   40.2750 H   0  0  0  0  0  0  0  0  0  0  0  0
   -2.6010   11.8067   43.4108 H   0  0  0  0  0  0  0  0  0  0  0  0
   -1.3285   15.9249   37.4270 H   0  0  0  0  0  0  0  0  0  0  0  0
   -0.8914   17.6161   37.8599 H   0  0  0  0  0  0  0  0  0  0  0  0
    1.3672   16.8688   38.2419 H   0  0  0  0  0  0  0  0  0  0  0  0
    0.4171   14.2178   37.2831 H   0  0  0  0  0  0  0  0  0  0  0  0
    2.1271   14.6597   37.6055 H   0  0  0  0  0  0  0  0  0  0  0  0
    1.6037   15.1157   39.9498 H   0  0  0  0  0  0  0  0  0  0  0  0
    1.0549   13.4517   39.5015 H   0  0  0  0  0  0  0  0  0  0  0  0
  2  1  1  0
  2 16  1  0
  2 23  1  0
  3  4  2  0
  3  7  1  0
  3 24  1  0
  4  5  1  0
  5  6  2  0
  6  9  1  0
  6 25  1  0
  7  8  1  0
  7 25  2  0
  8 23  1  0
  8 26  2  0
  9 15  1  0
  9 27  2  0
 10 27  1  0
 10 28  1  0
 10 32  2  0
 11 30  1  0
 11 31  1  0
 12 13  1  0
 12 31  1  0
 13 29  1  0
 14 15  2  0
 14 32  1  0
 15 33  1  0
 16 34  2  0
 16 35  1  0
 36 17  1  0
 17 37  1  0
 18 19  2  0
 18 39  1  0
 19 20  1  0
 20 40  2  0
 20 41  1  0
 21 41  1  0
 21 42  1  0
 43 22  1  0
 23 24  1  0
 29 28  1  0
 29 30  1  0
 35 36  1  0
 36 38  1  0
 38 39  2  0
 38 40  1  0
 41 45  1  0
 42 43  1  0
 43 44  1  0
 44 45  1  0
  1 46  1  0
  1 47  1  0
  1 48  1  0
  2 49  1  6
  4 50  1  0
  5 51  1  0
 11 52  1  0
 11 53  1  0
 12 54  1  0
 12 55  1  0
 13 56  1  0
 13 57  1  0
 14 58  1  0
 17 59  1  0
 17 60  1  0
 18 61  1  0
 19 62  1  0
 21 63  1  0
 21 64  1  0
 22 65  1  0
 22 66  1  0
 22 67  1  0
 24 68  1  0
 24 69  1  0
 25 70  1  0
 28 71  1  0
 29 72  1  1
 30 73  1  0
 30 74  1  0
 35 75  1  0
 36 76  1  1
 37 77  1  0
 39 78  1  0
 42 79  1  0
 42 80  1  0
 43 81  1  1
 44 82  1  0
 44 83  1  0
 45 84  1  0
 45 85  1  0
M  CHG  1  43   1
M  END
>  <filename_input>  (13) 
7NR8_UOE_docked.sdf

>  <pdb_id>  (13) 
7NR8_UOE

>  <pose_rank>  (13) 
12

>  <num_atoms_heavy>  (13) 
45

>  <num_torsions>  (13) 
7

>  <pose>  (13) 
[5.710160838385409, 9.286275682595448, 44.78674070991676, 1.5357004234558296, -0.9687769959171432, -0.27444600633491223, -1.8283554964124118, 0.08071299905524548, 0.9924701537701689, 0.6907738087926338, 0.12281095115877905, 0.09763137271244718, 0.06430966669837443]

>  <energy>  (13) 
-1131.8411116159473

>  <inter_energy>  (13) 
-1182.7223288041114

>  <intra_energy>  (13) 
56.56982184924026

>  <rmsd>  (13) 
5.26966

>  <sdf_rank>  (13) 
0

$$$$

     RDKit          3D

 85 90  0  0  0  0  0  0  0  0999 V2000
    3.1315   12.5918   44.2856 C   0  0  0  0  0  0  0  0  0  0  0  0
    3.6501   11.6403   43.2052 C   0  0  2  0  0  0  0  0  0  0  0  0
    5.9505    9.3392   44.9825 C   0  0  0  0  0  0  0  0  0  0  0  0
    6.5436    8.5803   45.9645 C   0  0  0  0  0  0  0  0  0  0  0  0
    7.7552    7.9681   45.7292 C   0  0  0  0  0  0  0  0  0  0  0  0
    8.4027    8.1061   44.5031 C   0  0  0  0  0  0  0  0  0  0  0  0
    6.5774    9.4890   43.7581 C   0  0  0  0  0  0  0  0  0  0  0  0
    5.7225   10.3472   42.9051 C   0  0  0  0  0  0  0  0  0  0  0  0
    9.6784    7.3751   44.2739 C   0  0  0  0  0  0  0  0  0  0  0  0
   11.8407    7.5169   43.4971 C   0  0  0  0  0  0  0  0  0  0  0  0
   11.5561   10.7276   40.3016 C   0  0  0  0  0  0  0  0  0  0  0  0
   13.6515   11.4633   41.0725 C   0  0  0  0  0  0  0  0  0  0  0  0
   13.9031   10.1900   41.8620 C   0  0  0  0  0  0  0  0  0  0  0  0
   11.2455    5.5633   44.4995 C   0  0  0  0  0  0  0  0  0  0  0  0
    9.9762    6.0814   44.7236 C   0  0  0  0  0  0  0  0  0  0  0  0
    2.5302   10.7895   42.6054 C   0  0  0  0  0  0  0  0  0  0  0  0
    0.8085   10.7751   39.5339 C   0  0  0  0  0  0  0  0  0  0  0  0
   -2.8283   11.9701   42.2054 C   0  0  0  0  0  0  0  0  0  0  0  0
   -2.7663   13.2831   41.8324 C   0  0  0  0  0  0  0  0  0  0  0  0
   -1.6036   13.7703   41.2182 C   0  0  0  0  0  0  0  0  0  0  0  0
   -2.2945   16.1559   41.3093 C   0  0  0  0  0  0  0  0  0  0  0  0
   -1.3350   18.8140   38.7766 C   0  0  0  0  0  0  0  0  0  0  0  0
    4.7327   10.8083   43.7067 N   0  0  0  0  0  0  0  0  0  0  0  0
    4.6738   10.1235   44.9946 C   0  0  0  0  0  0  0  0  0  0  0  0
    7.7863    8.8722   43.5011 C   0  0  0  0  0  0  0  0  0  0  0  0
    5.8413   10.6149   41.7141 O   0  0  0  0  0  0  0  0  0  0  0  0
   10.6263    8.0943   43.6865 N   0  0  0  0  0  0  0  0  0  0  0  0
   12.7797    8.2399   42.8661 N   0  0  0  0  0  0  0  0  0  0  0  0
   12.5800    9.5406   42.2672 C   0  0  2  0  0  0  0  0  0  0  0  0
   11.6654    9.4142   41.0511 C   0  0  0  0  0  0  0  0  0  0  0  0
   12.8491   11.2091   39.9070 O   0  0  0  0  0  0  0  0  0  0  0  0
   12.1758    6.2615   43.8638 N   0  0  0  0  0  0  0  0  0  0  0  0
    8.8131    5.1033   45.5549 Cl  0  0  0  0  0  0  0  0  0  0  0  0
    2.3279    9.6281   42.9574 O   0  0  0  0  0  0  0  0  0  0  0  0
    1.8120   11.4070   41.6712 N   0  0  0  0  0  0  0  0  0  0  0  0
    0.6114   10.8562   41.0494 C   0  0  1  0  0  0  0  0  0  0  0  0
    1.4335   11.9575   39.0465 O   0  0  0  0  0  0  0  0  0  0  0  0
   -0.6154   11.6902   41.3645 C   0  0  0  0  0  0  0  0  0  0  0  0
   -1.7398   11.1572   41.9679 C   0  0  0  0  0  0  0  0  0  0  0  0
   -0.5455   12.9650   40.9830 N   0  0  0  0  0  0  0  0  0  0  0  0
   -1.4478   15.0666   40.8096 N   0  0  0  0  0  0  0  0  0  0  0  0
   -2.4984   17.2097   40.2403 C   0  0  0  0  0  0  0  0  0  0  0  0
   -1.1776   17.7084   39.7603 N   0  0  1  0  0  0  0  0  0  0  0  0
   -0.3874   16.5772   39.1880 C   0  0  0  0  0  0  0  0  0  0  0  0
   -0.1716   15.5259   40.2554 C   0  0  0  0  0  0  0  0  0  0  0  0
    3.3577   12.1769   45.2789 H   0  0  0  0  0  0  0  0  0  0  0  0
    3.6207   13.5711   44.1773 H   0  0  0  0  0  0  0  0  0  0  0  0
    2.0435   12.7115   44.1773 H   0  0  0  0  0  0  0  0  0  0  0  0
    4.0530   12.2644   42.3940 H   0  0  0  0  0  0  0  0  0  0  0  0
    6.0494    8.4620   46.9401 H   0  0  0  0  0  0  0  0  0  0  0  0
    8.2184    7.3612   46.5212 H   0  0  0  0  0  0  0  0  0  0  0  0
   10.9395   10.5777   39.4031 H   0  0  0  0  0  0  0  0  0  0  0  0
   11.0959   11.4717   40.9683 H   0  0  0  0  0  0  0  0  0  0  0  0
   13.1285   12.1859   41.7162 H   0  0  0  0  0  0  0  0  0  0  0  0
   14.6218   11.8637   40.7436 H   0  0  0  0  0  0  0  0  0  0  0  0
   14.4763    9.4861   41.2406 H   0  0  0  0  0  0  0  0  0  0  0  0
   14.4691   10.4412   42.7711 H   0  0  0  0  0  0  0  0  0  0  0  0
   11.4840    4.5510   44.8577 H   0  0  0  0  0  0  0  0  0  0  0  0
    1.4420    9.9075   39.2975 H   0  0  0  0  0  0  0  0  0  0  0  0
   -0.1753   10.6698   39.0532 H   0  0  0  0  0  0  0  0  0  0  0  0
   -3.7317   11.5679   42.6872 H   0  0  0  0  0  0  0  0  0  0  0  0
   -3.6208   13.9520   42.0125 H   0  0  0  0  0  0  0  0  0  0  0  0
   -3.2722   15.7469   41.6041 H   0  0  0  0  0  0  0  0  0  0  0  0
   -1.7986   16.6209   42.1740 H   0  0  0  0  0  0  0  0  0  0  0  0
   -1.4703   19.7650   39.3125 H   0  0  0  0  0  0  0  0  0  0  0  0
   -0.4363   18.8736   38.1451 H   0  0  0  0  0  0  0  0  0  0  0  0
   -2.2146   18.6204   38.1451 H   0  0  0  0  0  0  0  0  0  0  0  0
    3.7975    9.4615   45.0566 H   0  0  0  0  0  0  0  0  0  0  0  0
    4.5749   10.8010   45.8555 H   0  0  0  0  0  0  0  0  0  0  0  0
    8.2637    8.9806   42.5160 H   0  0  0  0  0  0  0  0  0  0  0  0
   13.7238    7.8328   42.8031 H   0  0  0  0  0  0  0  0  0  0  0  0
   12.1090   10.1895   43.0204 H   0  0  0  0  0  0  0  0  0  0  0  0
   10.6633    9.1095   41.3872 H   0  0  0  0  0  0  0  0  0  0  0  0
   12.0947    8.6629   40.3720 H   0  0  0  0  0  0  0  0  0  0  0  0
    2.1250   12.3393   41.3650 H   0  0  0  0  0  0  0  0  0  0  0  0
    0.4477    9.8490   41.4602 H   0  0  0  0  0  0  0  0  0  0  0  0
    1.7278   12.5142   39.8105 H   0  0  0  0  0  0  0  0  0  0  0  0
   -1.7657   10.0958   42.2555 H   0  0  0  0  0  0  0  0  0  0  0  0
   -3.0511   16.7710   39.3965 H   0  0  0  0  0  0  0  0  0  0  0  0
   -3.0700   18.0487   40.6636 H   0  0  0  0  0  0  0  0  0  0  0  0
   -0.6631   18.0965   40.5638 H   0  0  0  0  0  0  0  0  0  0  0  0
   -0.9369   16.1356   38.3435 H   0  0  0  0  0  0  0  0  0  0  0  0
    0.5859   16.9492   38.8356 H   0  0  0  0  0  0  0  0  0  0  0  0
    0.4375   15.9553   41.0645 H   0  0  0  0  0  0  0  0  0  0  0  0
    0.3411   14.6659   39.8000 H   0  0  0  0  0  0  0  0  0  0  0  0
  2  1  1  0
  2 16  1  0
  2 23  1  0
  3  4  2  0
  3  7  1  0
  3 24  1  0
  4  5  1  0
  5  6  2  0
  6  9  1  0
  6 25  1  0
  7  8  1  0
  7 25  2  0
  8 23  1  0
  8 26  2  0
  9 15  1  0
  9 27  2  0
 10 27  1  0
 10 28  1  0
 10 32  2  0
 11 30  1  0
 11 31  1  0
 12 13  1  0
 12 31  1  0
 13 29  1  0
 14 15  2  0
 14 32  1  0
 15 33  1  0
 16 34  2  0
 16 35  1  0
 36 17  1  0
 17 37  1  0
 18 19  2  0
 18 39  1  0
 19 20  1  0
 20 40  2  0
 20 41  1  0
 21 41  1  0
 21 42  1  0
 43 22  1  0
 23 24  1  0
 29 28  1  0
 29 30  1  0
 35 36  1  0
 36 38  1  0
 38 39  2  0
 38 40  1  0
 41 45  1  0
 42 43  1  0
 43 44  1  0
 44 45  1  0
  1 46  1  0
  1 47  1  0
  1 48  1  0
  2 49  1  6
  4 50  1  0
  5 51  1  0
 11 52  1  0
 11 53  1  0
 12 54  1  0
 12 55  1  0
 13 56  1  0
 13 57  1  0
 14 58  1  0
 17 59  1  0
 17 60  1  0
 18 61  1  0
 19 62  1  0
 21 63  1  0
 21 64  1  0
 22 65  1  0
 22 66  1  0
 22 67  1  0
 24 68  1  0
 24 69  1  0
 25 70  1  0
 28 71  1  0
 29 72  1  1
 30 73  1  0
 30 74  1  0
 35 75  1  0
 36 76  1  1
 37 77  1  0
 39 78  1  0
 42 79  1  0
 42 80  1  0
 43 81  1  1
 44 82  1  0
 44 83  1  0
 45 84  1  0
 45 85  1  0
M  CHG  1  43   1
M  END
>  <filename_input>  (14) 
7NR8_UOE_docked.sdf

>  <pdb_id>  (14) 
7NR8_UOE

>  <pose_rank>  (14) 
13

>  <num_atoms_heavy>  (14) 
45

>  <num_torsions>  (14) 
7

>  <pose>  (14) 
[5.950510450312925, 9.33918635125012, 44.982495509842444, 1.4639745439562535, -0.8842808473198515, -0.29640140899023765, -1.6646574862859607, 0.12847053534270836, 0.10451153715376825, 0.389964555096498, 0.06303106351528688, 0.5970521258849262, 0.2598318380921357]

>  <energy>  (14) 
-1151.2918630236502

>  <inter_energy>  (14) 
-1192.9958049047523

>  <intra_energy>  (14) 
38.953420297834754

>  <rmsd>  (14) 
5.089

>  <sdf_rank>  (14) 
0

$$$$

     RDKit          3D

 85 90  0  0  0  0  0  0  0  0999 V2000
    1.4925    9.6644   44.7414 C   0  0  0  0  0  0  0  0  0  0  0  0
    2.4352    8.5106   45.0900 C   0  0  2  0  0  0  0  0  0  0  0  0
    5.8552    9.9419   45.0649 C   0  0  0  0  0  0  0  0  0  0  0  0
    6.9127   10.8102   45.2054 C   0  0  0  0  0  0  0  0  0  0  0  0
    8.1536   10.4757   44.7091 C   0  0  0  0  0  0  0  0  0  0  0  0
    8.3620    9.2625   44.0562 C   0  0  0  0  0  0  0  0  0  0  0  0
    6.0412    8.7322   44.4193 C   0  0  0  0  0  0  0  0  0  0  0  0
    4.7479    8.0097   44.4135 C   0  0  0  0  0  0  0  0  0  0  0  0
    9.7336    8.9181   43.5930 C   0  0  0  0  0  0  0  0  0  0  0  0
   11.3943    7.3240   43.5798 C   0  0  0  0  0  0  0  0  0  0  0  0
    9.1312    3.9911   45.5354 C   0  0  0  0  0  0  0  0  0  0  0  0
   10.0477    5.2936   47.2644 C   0  0  0  0  0  0  0  0  0  0  0  0
   10.8868    6.1246   46.3086 C   0  0  0  0  0  0  0  0  0  0  0  0
   11.7420    9.1665   42.2914 C   0  0  0  0  0  0  0  0  0  0  0  0
   10.5071    9.6616   42.6910 C   0  0  0  0  0  0  0  0  0  0  0  0
    2.2031    7.9896   46.5085 C   0  0  0  0  0  0  0  0  0  0  0  0
    0.1905    6.7824   48.6282 C   0  0  0  0  0  0  0  0  0  0  0  0
   -1.6954   10.1639   50.6487 C   0  0  0  0  0  0  0  0  0  0  0  0
   -2.2065   11.0021   49.6984 C   0  0  0  0  0  0  0  0  0  0  0  0
   -1.7441   10.9093   48.3777 C   0  0  0  0  0  0  0  0  0  0  0  0
   -2.8994   12.9673   47.5991 C   0  0  0  0  0  0  0  0  0  0  0  0
   -4.2264   13.5419   44.0907 C   0  0  0  0  0  0  0  0  0  0  0  0
    3.8266    8.8827   44.8865 N   0  0  0  0  0  0  0  0  0  0  0  0
    4.4213   10.0774   45.4782 C   0  0  0  0  0  0  0  0  0  0  0  0
    7.2815    8.3757   43.9267 C   0  0  0  0  0  0  0  0  0  0  0  0
    4.5079    6.8585   44.0651 O   0  0  0  0  0  0  0  0  0  0  0  0
   10.1745    7.7378   44.0096 N   0  0  0  0  0  0  0  0  0  0  0  0
   11.8473    6.1466   44.0394 N   0  0  0  0  0  0  0  0  0  0  0  0
   11.2016    5.3291   45.0419 C   0  0  2  0  0  0  0  0  0  0  0  0
    9.9201    4.7272   44.4703 C   0  0  0  0  0  0  0  0  0  0  0  0
    8.8287    4.8504   46.6442 O   0  0  0  0  0  0  0  0  0  0  0  0
   12.2067    8.0131   42.7504 N   0  0  0  0  0  0  0  0  0  0  0  0
    9.9734   11.1807   42.0523 Cl  0  0  0  0  0  0  0  0  0  0  0  0
    2.9753    7.2016   47.0529 O   0  0  0  0  0  0  0  0  0  0  0  0
    1.0978    8.4499   47.0885 N   0  0  0  0  0  0  0  0  0  0  0  0
    0.7289    8.2073   48.4800 C   0  0  1  0  0  0  0  0  0  0  0  0
    0.4653    6.2763   49.9300 O   0  0  0  0  0  0  0  0  0  0  0  0
   -0.3078    9.2019   48.9661 C   0  0  0  0  0  0  0  0  0  0  0  0
   -0.7330    9.2470   50.2813 C   0  0  0  0  0  0  0  0  0  0  0  0
   -0.8067   10.0032   48.0258 N   0  0  0  0  0  0  0  0  0  0  0  0
   -2.1951   11.7027   47.3586 N   0  0  0  0  0  0  0  0  0  0  0  0
   -3.9261   13.2236   46.5151 C   0  0  0  0  0  0  0  0  0  0  0  0
   -3.2686   13.1999   45.1770 N   0  0  1  0  0  0  0  0  0  0  0  0
   -2.6369   11.8657   44.9474 C   0  0  0  0  0  0  0  0  0  0  0  0
   -1.6022   11.6094   46.0220 C   0  0  0  0  0  0  0  0  0  0  0  0
    1.1171   10.1239   45.6677 H   0  0  0  0  0  0  0  0  0  0  0  0
    2.0369   10.4177   44.1530 H   0  0  0  0  0  0  0  0  0  0  0  0
    0.6458    9.2812   44.1530 H   0  0  0  0  0  0  0  0  0  0  0  0
    2.2027    7.6863   44.3998 H   0  0  0  0  0  0  0  0  0  0  0  0
    6.7672   11.7740   45.7152 H   0  0  0  0  0  0  0  0  0  0  0  0
    8.9925   11.1769   44.8301 H   0  0  0  0  0  0  0  0  0  0  0  0
    8.1905    3.6263   45.0972 H   0  0  0  0  0  0  0  0  0  0  0  0
    9.7399    3.1512   45.9016 H   0  0  0  0  0  0  0  0  0  0  0  0
   10.6291    4.4145   47.5791 H   0  0  0  0  0  0  0  0  0  0  0  0
    9.7871    5.9203   48.1301 H   0  0  0  0  0  0  0  0  0  0  0  0
   10.3312    7.0340   46.0362 H   0  0  0  0  0  0  0  0  0  0  0  0
   11.8315    6.3916   46.8049 H   0  0  0  0  0  0  0  0  0  0  0  0
   12.3478    9.7446   41.5782 H   0  0  0  0  0  0  0  0  0  0  0  0
   -0.8972    6.7880   48.4645 H   0  0  0  0  0  0  0  0  0  0  0  0
    0.6834    6.1378   47.8855 H   0  0  0  0  0  0  0  0  0  0  0  0
   -2.0458   10.2196   51.6899 H   0  0  0  0  0  0  0  0  0  0  0  0
   -2.9739   11.7430   49.9668 H   0  0  0  0  0  0  0  0  0  0  0  0
   -3.4078   12.9178   48.5734 H   0  0  0  0  0  0  0  0  0  0  0  0
   -2.1661   13.7872   47.5923 H   0  0  0  0  0  0  0  0  0  0  0  0
   -5.1754   13.8808   44.5318 H   0  0  0  0  0  0  0  0  0  0  0  0
   -3.8039   14.3448   43.4686 H   0  0  0  0  0  0  0  0  0  0  0  0
   -4.4080   12.6531   43.4686 H   0  0  0  0  0  0  0  0  0  0  0  0
    4.3181   10.0760   46.5733 H   0  0  0  0  0  0  0  0  0  0  0  0
    3.9507   11.0172   45.1534 H   0  0  0  0  0  0  0  0  0  0  0  0
    7.4218    7.4016   43.4352 H   0  0  0  0  0  0  0  0  0  0  0  0
   12.7310    5.7955   43.6435 H   0  0  0  0  0  0  0  0  0  0  0  0
   11.8981    4.5244   45.3201 H   0  0  0  0  0  0  0  0  0  0  0  0
   10.1828    4.0219   43.6681 H   0  0  0  0  0  0  0  0  0  0  0  0
    9.2966    5.5459   44.0818 H   0  0  0  0  0  0  0  0  0  0  0  0
    0.4571    9.0173   46.5153 H   0  0  0  0  0  0  0  0  0  0  0  0
    1.6306    8.3330   49.0974 H   0  0  0  0  0  0  0  0  0  0  0  0
    0.1217    6.9092   50.6093 H   0  0  0  0  0  0  0  0  0  0  0  0
   -0.3079    8.5587   51.0266 H   0  0  0  0  0  0  0  0  0  0  0  0
   -4.7006   12.4435   46.5547 H   0  0  0  0  0  0  0  0  0  0  0  0
   -4.3837   14.2108   46.6761 H   0  0  0  0  0  0  0  0  0  0  0  0
   -2.5324   13.9201   45.1617 H   0  0  0  0  0  0  0  0  0  0  0  0
   -3.4084   11.0826   44.9861 H   0  0  0  0  0  0  0  0  0  0  0  0
   -2.1528   11.8527   43.9597 H   0  0  0  0  0  0  0  0  0  0  0  0
   -0.7989   12.3555   45.9325 H   0  0  0  0  0  0  0  0  0  0  0  0
   -1.2031   10.5933   45.8872 H   0  0  0  0  0  0  0  0  0  0  0  0
  2  1  1  0
  2 16  1  0
  2 23  1  0
  3  4  2  0
  3  7  1  0
  3 24  1  0
  4  5  1  0
  5  6  2  0
  6  9  1  0
  6 25  1  0
  7  8  1  0
  7 25  2  0
  8 23  1  0
  8 26  2  0
  9 15  1  0
  9 27  2  0
 10 27  1  0
 10 28  1  0
 10 32  2  0
 11 30  1  0
 11 31  1  0
 12 13  1  0
 12 31  1  0
 13 29  1  0
 14 15  2  0
 14 32  1  0
 15 33  1  0
 16 34  2  0
 16 35  1  0
 36 17  1  0
 17 37  1  0
 18 19  2  0
 18 39  1  0
 19 20  1  0
 20 40  2  0
 20 41  1  0
 21 41  1  0
 21 42  1  0
 43 22  1  0
 23 24  1  0
 29 28  1  0
 29 30  1  0
 35 36  1  0
 36 38  1  0
 38 39  2  0
 38 40  1  0
 41 45  1  0
 42 43  1  0
 43 44  1  0
 44 45  1  0
  1 46  1  0
  1 47  1  0
  1 48  1  0
  2 49  1  6
  4 50  1  0
  5 51  1  0
 11 52  1  0
 11 53  1  0
 12 54  1  0
 12 55  1  0
 13 56  1  0
 13 57  1  0
 14 58  1  0
 17 59  1  0
 17 60  1  0
 18 61  1  0
 19 62  1  0
 21 63  1  0
 21 64  1  0
 22 65  1  0
 22 66  1  0
 22 67  1  0
 24 68  1  0
 24 69  1  0
 25 70  1  0
 28 71  1  0
 29 72  1  1
 30 73  1  0
 30 74  1  0
 35 75  1  0
 36 76  1  1
 37 77  1  0
 39 78  1  0
 42 79  1  0
 42 80  1  0
 43 81  1  1
 44 82  1  0
 44 83  1  0
 45 84  1  0
 45 85  1  0
M  CHG  1  43   1
M  END
>  <filename_input>  (15) 
7NR8_UOE_docked.sdf

>  <pdb_id>  (15) 
7NR8_UOE

>  <pose_rank>  (15) 
14

>  <num_atoms_heavy>  (15) 
45

>  <num_torsions>  (15) 
7

>  <pose>  (15) 
[5.8551717299610235, 9.941871723289147, 45.06487580182944, -3.9726088308684453, -0.77877138557507, -4.377677380118793, 2.923809369223229, 2.536288018556582, 0.2239844240489619, -0.8282902887787912, 0.8532425322505294, -0.296678389833303, -2.6572881011941956]

>  <energy>  (15) 
-972.81505368878

>  <inter_energy>  (15) 
-1000.9052006005948

>  <intra_energy>  (15) 
48.2719245686303

>  <rmsd>  (15) 
3.37537

>  <sdf_rank>  (15) 
0

$$$$

     RDKit          3D

 85 90  0  0  0  0  0  0  0  0999 V2000
    2.6876   12.2730   43.6688 C   0  0  0  0  0  0  0  0  0  0  0  0
    4.1677   12.5607   43.9297 C   0  0  2  0  0  0  0  0  0  0  0  0
    5.6667    9.2066   43.4311 C   0  0  0  0  0  0  0  0  0  0  0  0
    5.8149    7.8626   43.1787 C   0  0  0  0  0  0  0  0  0  0  0  0
    7.0328    7.2508   43.3797 C   0  0  0  0  0  0  0  0  0  0  0  0
    8.1308    7.9730   43.8427 C   0  0  0  0  0  0  0  0  0  0  0  0
    6.7448    9.9416   43.8917 C   0  0  0  0  0  0  0  0  0  0  0  0
    6.3016   11.3433   44.0756 C   0  0  0  0  0  0  0  0  0  0  0  0
    9.4415    7.2826   43.9844 C   0  0  0  0  0  0  0  0  0  0  0  0
   11.6997    7.3769   43.5482 C   0  0  0  0  0  0  0  0  0  0  0  0
   11.8315   11.5223   41.8937 C   0  0  0  0  0  0  0  0  0  0  0  0
   11.3786   10.1034   40.0750 C   0  0  0  0  0  0  0  0  0  0  0  0
   11.6293    8.8435   40.8862 C   0  0  0  0  0  0  0  0  0  0  0  0
   10.9853    5.6512   44.8470 C   0  0  0  0  0  0  0  0  0  0  0  0
    9.6862    6.1330   44.7481 C   0  0  0  0  0  0  0  0  0  0  0  0
    4.7249   13.6123   42.9699 C   0  0  0  0  0  0  0  0  0  0  0  0
    4.0793   16.8867   42.1464 C   0  0  0  0  0  0  0  0  0  0  0  0
    1.0664   16.1952   39.3054 C   0  0  0  0  0  0  0  0  0  0  0  0
    1.2429   15.2071   38.3785 C   0  0  0  0  0  0  0  0  0  0  0  0
    2.3411   14.3427   38.4940 C   0  0  0  0  0  0  0  0  0  0  0  0
    2.0065   13.2706   36.2770 C   0  0  0  0  0  0  0  0  0  0  0  0
    2.8793    9.6770   35.4259 C   0  0  0  0  0  0  0  0  0  0  0  0
    4.9595   11.3411   43.8923 N   0  0  0  0  0  0  0  0  0  0  0  0
    4.4612   10.0906   43.3277 C   0  0  0  0  0  0  0  0  0  0  0  0
    7.9760    9.3468   44.0869 C   0  0  0  0  0  0  0  0  0  0  0  0
    6.9712   12.3369   44.3376 O   0  0  0  0  0  0  0  0  0  0  0  0
   10.4594    7.9123   43.4114 N   0  0  0  0  0  0  0  0  0  0  0  0
   12.7161    8.0005   42.9309 N   0  0  0  0  0  0  0  0  0  0  0  0
   12.5928    9.1306   42.0377 C   0  0  2  0  0  0  0  0  0  0  0  0
   12.1246   10.3568   42.8179 C   0  0  0  0  0  0  0  0  0  0  0  0
   10.8629   11.1639   40.8973 O   0  0  0  0  0  0  0  0  0  0  0  0
   11.9943    6.2491   44.2294 N   0  0  0  0  0  0  0  0  0  0  0  0
    8.4207    5.2907   45.5784 Cl  0  0  0  0  0  0  0  0  0  0  0  0
    5.9120   13.6443   42.6486 O   0  0  0  0  0  0  0  0  0  0  0  0
    3.8236   14.4862   42.5296 N   0  0  0  0  0  0  0  0  0  0  0  0
    4.0787   15.4963   41.5068 C   0  0  1  0  0  0  0  0  0  0  0  0
    5.4092   17.3770   42.2770 O   0  0  0  0  0  0  0  0  0  0  0  0
    3.0474   15.4416   40.3962 C   0  0  0  0  0  0  0  0  0  0  0  0
    1.9785   16.3167   40.3326 C   0  0  0  0  0  0  0  0  0  0  0  0
    3.2250   14.4647   39.5076 N   0  0  0  0  0  0  0  0  0  0  0  0
    2.6009   13.3250   37.6175 N   0  0  0  0  0  0  0  0  0  0  0  0
    1.7712   11.8356   35.8529 C   0  0  0  0  0  0  0  0  0  0  0  0
    3.0479   11.0685   35.9258 N   0  0  1  0  0  0  0  0  0  0  0  0
    3.5691   11.0860   37.3257 C   0  0  0  0  0  0  0  0  0  0  0  0
    3.8163   12.5176   37.7507 C   0  0  0  0  0  0  0  0  0  0  0  0
    2.1593   12.1703   44.6282 H   0  0  0  0  0  0  0  0  0  0  0  0
    2.2484   13.1026   43.0953 H   0  0  0  0  0  0  0  0  0  0  0  0
    2.5911   11.3393   43.0953 H   0  0  0  0  0  0  0  0  0  0  0  0
    4.2396   12.9779   44.9450 H   0  0  0  0  0  0  0  0  0  0  0  0
    4.9589    7.2749   42.8156 H   0  0  0  0  0  0  0  0  0  0  0  0
    7.1401    6.1760   43.1715 H   0  0  0  0  0  0  0  0  0  0  0  0
   11.4413   12.3619   42.4877 H   0  0  0  0  0  0  0  0  0  0  0  0
   12.7646   11.8072   41.3857 H   0  0  0  0  0  0  0  0  0  0  0  0
   12.3255   10.4309   39.6211 H   0  0  0  0  0  0  0  0  0  0  0  0
   10.6328    9.8729   39.3000 H   0  0  0  0  0  0  0  0  0  0  0  0
   10.6748    8.4803   41.2949 H   0  0  0  0  0  0  0  0  0  0  0  0
   12.0757    8.0814   40.2306 H   0  0  0  0  0  0  0  0  0  0  0  0
   11.1811    4.7533   45.4516 H   0  0  0  0  0  0  0  0  0  0  0  0
    3.5003   17.5758   41.5141 H   0  0  0  0  0  0  0  0  0  0  0  0
    3.6268   16.8174   43.1466 H   0  0  0  0  0  0  0  0  0  0  0  0
    0.2106   16.8826   39.2336 H   0  0  0  0  0  0  0  0  0  0  0  0
    0.5300   15.0906   37.5489 H   0  0  0  0  0  0  0  0  0  0  0  0
    1.0459   13.8065   36.2860 H   0  0  0  0  0  0  0  0  0  0  0  0
    2.6995   13.7409   35.5637 H   0  0  0  0  0  0  0  0  0  0  0  0
    2.7959    8.9883   36.2795 H   0  0  0  0  0  0  0  0  0  0  0  0
    1.9671    9.6151   34.8143 H   0  0  0  0  0  0  0  0  0  0  0  0
    3.7504    9.3991   34.8143 H   0  0  0  0  0  0  0  0  0  0  0  0
    4.1480   10.2201   42.2812 H   0  0  0  0  0  0  0  0  0  0  0  0
    3.5721    9.6935   43.8394 H   0  0  0  0  0  0  0  0  0  0  0  0
    8.8311    9.9465   44.4320 H   0  0  0  0  0  0  0  0  0  0  0  0
   13.6654    7.6429   43.1092 H   0  0  0  0  0  0  0  0  0  0  0  0
   13.5835    9.3243   41.6007 H   0  0  0  0  0  0  0  0  0  0  0  0
   12.9121   10.6517   43.5271 H   0  0  0  0  0  0  0  0  0  0  0  0
   11.1979   10.0954   43.3498 H   0  0  0  0  0  0  0  0  0  0  0  0
    2.8793   14.4474   42.9391 H   0  0  0  0  0  0  0  0  0  0  0  0
    5.0630   15.2882   41.0620 H   0  0  0  0  0  0  0  0  0  0  0  0
    5.6372   17.4610   43.2368 H   0  0  0  0  0  0  0  0  0  0  0  0
    1.8571   17.1017   41.0936 H   0  0  0  0  0  0  0  0  0  0  0  0
    1.0300   11.3744   36.5221 H   0  0  0  0  0  0  0  0  0  0  0  0
    1.3985   11.8204   34.8181 H   0  0  0  0  0  0  0  0  0  0  0  0
    3.7381   11.5234   35.3114 H   0  0  0  0  0  0  0  0  0  0  0  0
    2.8306   10.6254   37.9984 H   0  0  0  0  0  0  0  0  0  0  0  0
    4.5109   10.5196   37.3749 H   0  0  0  0  0  0  0  0  0  0  0  0
    4.6054   12.9491   37.1175 H   0  0  0  0  0  0  0  0  0  0  0  0
    4.1232   12.5202   38.8070 H   0  0  0  0  0  0  0  0  0  0  0  0
  2  1  1  0
  2 16  1  0
  2 23  1  0
  3  4  2  0
  3  7  1  0
  3 24  1  0
  4  5  1  0
  5  6  2  0
  6  9  1  0
  6 25  1  0
  7  8  1  0
  7 25  2  0
  8 23  1  0
  8 26  2  0
  9 15  1  0
  9 27  2  0
 10 27  1  0
 10 28  1  0
 10 32  2  0
 11 30  1  0
 11 31  1  0
 12 13  1  0
 12 31  1  0
 13 29  1  0
 14 15  2  0
 14 32  1  0
 15 33  1  0
 16 34  2  0
 16 35  1  0
 36 17  1  0
 17 37  1  0
 18 19  2  0
 18 39  1  0
 19 20  1  0
 20 40  2  0
 20 41  1  0
 21 41  1  0
 21 42  1  0
 43 22  1  0
 23 24  1  0
 29 28  1  0
 29 30  1  0
 35 36  1  0
 36 38  1  0
 38 39  2  0
 38 40  1  0
 41 45  1  0
 42 43  1  0
 43 44  1  0
 44 45  1  0
  1 46  1  0
  1 47  1  0
  1 48  1  0
  2 49  1  1
  4 50  1  0
  5 51  1  0
 11 52  1  0
 11 53  1  0
 12 54  1  0
 12 55  1  0
 13 56  1  0
 13 57  1  0
 14 58  1  0
 17 59  1  0
 17 60  1  0
 18 61  1  0
 19 62  1  0
 21 63  1  0
 21 64  1  0
 22 65  1  0
 22 66  1  0
 22 67  1  0
 24 68  1  0
 24 69  1  0
 25 70  1  0
 28 71  1  0
 29 72  1  6
 30 73  1  0
 30 74  1  0
 35 75  1  0
 36 76  1  6
 37 77  1  0
 39 78  1  0
 42 79  1  0
 42 80  1  0
 43 81  1  6
 44 82  1  0
 44 83  1  0
 45 84  1  0
 45 85  1  0
M  CHG  1  43   1
M  END
>  <filename_input>  (16) 
7NR8_UOE_docked.sdf

>  <pdb_id>  (16) 
7NR8_UOE

>  <pose_rank>  (16) 
15

>  <num_atoms_heavy>  (16) 
45

>  <num_torsions>  (16) 
7

>  <pose>  (16) 
[5.666676018371175, 9.206639109637466, 43.4311105997129, -2.6452676576705065, 1.43819381562699, 0.1572298249276464, -3.3114978769643235, 2.49649108418227, 5.848728160560232, -6.813367905792249, -6.0143059030669095, -8.071808958797789, 2.8292765361120638]

>  <energy>  (16) 
-902.6218618464247

>  <inter_energy>  (16) 
-1011.530013775295

>  <intra_energy>  (16) 
104.63411502172904

>  <rmsd>  (16) 
7.42104

>  <sdf_rank>  (16) 
0

$$$$

     RDKit          3D

 85 90  0  0  0  0  0  0  0  0999 V2000
    2.3520   11.5260   44.1449 C   0  0  0  0  0  0  0  0  0  0  0  0
    3.8375   11.8669   44.2809 C   0  0  2  0  0  0  0  0  0  0  0  0
    5.4078    8.5437   43.7950 C   0  0  0  0  0  0  0  0  0  0  0  0
    5.5825    7.1975   43.5728 C   0  0  0  0  0  0  0  0  0  0  0  0
    6.8275    6.6270   43.7234 C   0  0  0  0  0  0  0  0  0  0  0  0
    7.9268    7.3938   44.1044 C   0  0  0  0  0  0  0  0  0  0  0  0
    6.4866    9.3226   44.1744 C   0  0  0  0  0  0  0  0  0  0  0  0
    6.0120   10.7159   44.3429 C   0  0  0  0  0  0  0  0  0  0  0  0
    9.2634    6.7458   44.1929 C   0  0  0  0  0  0  0  0  0  0  0  0
   11.5173    6.9669   43.7807 C   0  0  0  0  0  0  0  0  0  0  0  0
   11.4282   11.2218   42.4772 C   0  0  0  0  0  0  0  0  0  0  0  0
   11.1420    9.9537   40.5185 C   0  0  0  0  0  0  0  0  0  0  0  0
   11.4466    8.6419   41.2217 C   0  0  0  0  0  0  0  0  0  0  0  0
   10.8685    5.1066   44.9182 C   0  0  0  0  0  0  0  0  0  0  0  0
    9.5516    5.5438   44.8540 C   0  0  0  0  0  0  0  0  0  0  0  0
    4.2882   12.8910   43.2389 C   0  0  0  0  0  0  0  0  0  0  0  0
    3.1914   15.9454   42.0629 C   0  0  0  0  0  0  0  0  0  0  0  0
    0.4521   14.3544   39.2618 C   0  0  0  0  0  0  0  0  0  0  0  0
    0.9401   13.4747   38.3373 C   0  0  0  0  0  0  0  0  0  0  0  0
    2.2364   12.9624   38.4912 C   0  0  0  0  0  0  0  0  0  0  0  0
    2.3061   11.8760   36.2570 C   0  0  0  0  0  0  0  0  0  0  0  0
    4.2109    8.7019   35.4217 C   0  0  0  0  0  0  0  0  0  0  0  0
    4.6626   10.6699   44.2341 N   0  0  0  0  0  0  0  0  0  0  0  0
    4.1723    9.3893   43.7334 C   0  0  0  0  0  0  0  0  0  0  0  0
    7.7441    8.7693   44.3180 C   0  0  0  0  0  0  0  0  0  0  0  0
    6.6645   11.7356   44.5394 O   0  0  0  0  0  0  0  0  0  0  0  0
   10.2570    7.4631   43.6839 N   0  0  0  0  0  0  0  0  0  0  0  0
   12.5098    7.6820   43.2270 N   0  0  0  0  0  0  0  0  0  0  0  0
   12.3440    8.8808   42.4359 C   0  0  2  0  0  0  0  0  0  0  0  0
   11.7645    9.9957   43.3033 C   0  0  0  0  0  0  0  0  0  0  0  0
   10.5247   10.8972   41.4106 O   0  0  0  0  0  0  0  0  0  0  0  0
   11.8546    5.7959   44.3618 N   0  0  0  0  0  0  0  0  0  0  0  0
    8.3183    4.5824   45.5991 Cl  0  0  0  0  0  0  0  0  0  0  0  0
    5.4729   13.0588   42.9531 O   0  0  0  0  0  0  0  0  0  0  0  0
    3.2965   13.5842   42.6858 N   0  0  0  0  0  0  0  0  0  0  0  0
    3.4566   14.5190   41.5759 C   0  0  1  0  0  0  0  0  0  0  0  0
    4.4154   16.6527   42.2307 O   0  0  0  0  0  0  0  0  0  0  0  0
    2.5258   14.1871   40.4254 C   0  0  0  0  0  0  0  0  0  0  0  0
    1.2526   14.7173   40.3246 C   0  0  0  0  0  0  0  0  0  0  0  0
    3.0102   13.3179   39.5392 N   0  0  0  0  0  0  0  0  0  0  0  0
    2.8108   12.0777   37.6201 N   0  0  0  0  0  0  0  0  0  0  0  0
    2.5113   10.4413   35.8164 C   0  0  0  0  0  0  0  0  0  0  0  0
    3.9517   10.0744   35.9352 N   0  0  1  0  0  0  0  0  0  0  0  0
    4.3949   10.2187   37.3546 C   0  0  0  0  0  0  0  0  0  0  0  0
    4.2021   11.6535   37.7965 C   0  0  0  0  0  0  0  0  0  0  0  0
    1.9062   11.4237   45.1453 H   0  0  0  0  0  0  0  0  0  0  0  0
    1.8401   12.3301   43.5958 H   0  0  0  0  0  0  0  0  0  0  0  0
    2.2418   10.5793   43.5958 H   0  0  0  0  0  0  0  0  0  0  0  0
    3.9716   12.3299   45.2696 H   0  0  0  0  0  0  0  0  0  0  0  0
    4.7262    6.5750   43.2743 H   0  0  0  0  0  0  0  0  0  0  0  0
    6.9557    5.5500   43.5400 H   0  0  0  0  0  0  0  0  0  0  0  0
   10.9596   11.9751   43.1275 H   0  0  0  0  0  0  0  0  0  0  0  0
   12.3585   11.6123   42.0389 H   0  0  0  0  0  0  0  0  0  0  0  0
   12.0811   10.3824   40.1386 H   0  0  0  0  0  0  0  0  0  0  0  0
   10.4435    9.7497   39.6936 H   0  0  0  0  0  0  0  0  0  0  0  0
   10.5042    8.1816   41.5532 H   0  0  0  0  0  0  0  0  0  0  0  0
   11.9684    7.9749   40.5197 H   0  0  0  0  0  0  0  0  0  0  0  0
   11.0983    4.1673   45.4425 H   0  0  0  0  0  0  0  0  0  0  0  0
    2.5690   16.4703   41.3232 H   0  0  0  0  0  0  0  0  0  0  0  0
    2.6728   15.8989   43.0318 H   0  0  0  0  0  0  0  0  0  0  0  0
   -0.5627   14.7665   39.1601 H   0  0  0  0  0  0  0  0  0  0  0  0
    0.3216   13.1710   37.4798 H   0  0  0  0  0  0  0  0  0  0  0  0
    1.2320   12.1115   36.2313 H   0  0  0  0  0  0  0  0  0  0  0  0
    2.8587   12.5379   35.5740 H   0  0  0  0  0  0  0  0  0  0  0  0
    4.3411    8.0121   36.2686 H   0  0  0  0  0  0  0  0  0  0  0  0
    3.3590    8.3729   34.8085 H   0  0  0  0  0  0  0  0  0  0  0  0
    5.1241    8.7062   34.8085 H   0  0  0  0  0  0  0  0  0  0  0  0
    3.7988    9.4786   42.7026 H   0  0  0  0  0  0  0  0  0  0  0  0
    3.3247    8.9824   44.3045 H   0  0  0  0  0  0  0  0  0  0  0  0
    8.5982    9.4033   44.5983 H   0  0  0  0  0  0  0  0  0  0  0  0
   13.4721    7.3478   43.3790 H   0  0  0  0  0  0  0  0  0  0  0  0
   13.3352    9.1777   42.0626 H   0  0  0  0  0  0  0  0  0  0  0  0
   12.5026   10.2726   44.0704 H   0  0  0  0  0  0  0  0  0  0  0  0
   10.8381    9.6268   43.7678 H   0  0  0  0  0  0  0  0  0  0  0  0
    2.3490   13.4521   43.0675 H   0  0  0  0  0  0  0  0  0  0  0  0
    4.4896   14.4350   41.2073 H   0  0  0  0  0  0  0  0  0  0  0  0
    4.6038   16.7616   43.1964 H   0  0  0  0  0  0  0  0  0  0  0  0
    0.8821   15.4212   41.0844 H   0  0  0  0  0  0  0  0  0  0  0  0
    1.9115    9.7748   36.4537 H   0  0  0  0  0  0  0  0  0  0  0  0
    2.1963   10.3361   34.7677 H   0  0  0  0  0  0  0  0  0  0  0  0
    4.5026   10.7193   35.3508 H   0  0  0  0  0  0  0  0  0  0  0  0
    3.7974    9.5535   37.9953 H   0  0  0  0  0  0  0  0  0  0  0  0
    5.4578    9.9476   37.4376 H   0  0  0  0  0  0  0  0  0  0  0  0
    4.8550   12.3048   37.1970 H   0  0  0  0  0  0  0  0  0  0  0  0
    4.4569   11.7273   38.8641 H   0  0  0  0  0  0  0  0  0  0  0  0
  2  1  1  0
  2 16  1  0
  2 23  1  0
  3  4  2  0
  3  7  1  0
  3 24  1  0
  4  5  1  0
  5  6  2  0
  6  9  1  0
  6 25  1  0
  7  8  1  0
  7 25  2  0
  8 23  1  0
  8 26  2  0
  9 15  1  0
  9 27  2  0
 10 27  1  0
 10 28  1  0
 10 32  2  0
 11 30  1  0
 11 31  1  0
 12 13  1  0
 12 31  1  0
 13 29  1  0
 14 15  2  0
 14 32  1  0
 15 33  1  0
 16 34  2  0
 16 35  1  0
 36 17  1  0
 17 37  1  0
 18 19  2  0
 18 39  1  0
 19 20  1  0
 20 40  2  0
 20 41  1  0
 21 41  1  0
 21 42  1  0
 43 22  1  0
 23 24  1  0
 29 28  1  0
 29 30  1  0
 35 36  1  0
 36 38  1  0
 38 39  2  0
 38 40  1  0
 41 45  1  0
 42 43  1  0
 43 44  1  0
 44 45  1  0
  1 46  1  0
  1 47  1  0
  1 48  1  0
  2 49  1  1
  4 50  1  0
  5 51  1  0
 11 52  1  0
 11 53  1  0
 12 54  1  0
 12 55  1  0
 13 56  1  0
 13 57  1  0
 14 58  1  0
 17 59  1  0
 17 60  1  0
 18 61  1  0
 19 62  1  0
 21 63  1  0
 21 64  1  0
 22 65  1  0
 22 66  1  0
 22 67  1  0
 24 68  1  0
 24 69  1  0
 25 70  1  0
 28 71  1  0
 29 72  1  6
 30 73  1  0
 30 74  1  0
 35 75  1  0
 36 76  1  6
 37 77  1  0
 39 78  1  0
 42 79  1  0
 42 80  1  0
 43 81  1  6
 44 82  1  0
 44 83  1  0
 45 84  1  0
 45 85  1  0
M  CHG  1  43   1
M  END
>  <filename_input>  (17) 
7NR8_UOE_docked.sdf

>  <pdb_id>  (17) 
7NR8_UOE

>  <pose_rank>  (17) 
16

>  <num_atoms_heavy>  (17) 
45

>  <num_torsions>  (17) 
7

>  <pose>  (17) 
[5.407759303728009, 8.543672478958399, 43.795001481705, -2.7067166391041235, 1.4288718690374378, 0.21506548856557275, -3.1797002115013955, 2.451021639897412, 5.873189692017265, -6.9798996107282045, -6.04793955537777, -8.244978328136284, 2.812402182727077]

>  <energy>  (17) 
-835.1525658704066

>  <inter_energy>  (17) 
-912.5204700219524

>  <intra_energy>  (17) 
104.75703109534187

>  <rmsd>  (17) 
7.23972

>  <sdf_rank>  (17) 
0

$$$$

     RDKit          3D

 85 90  0  0  0  0  0  0  0  0999 V2000
   10.2837    8.1556   46.1212 C   0  0  0  0  0  0  0  0  0  0  0  0
    9.7217    7.2727   45.0049 C   0  0  2  0  0  0  0  0  0  0  0  0
    6.0355    6.8783   44.9548 C   0  0  0  0  0  0  0  0  0  0  0  0
    4.7784    6.3275   44.8648 C   0  0  0  0  0  0  0  0  0  0  0  0
    3.6669    7.1410   44.8328 C   0  0  0  0  0  0  0  0  0  0  0  0
    3.7910    8.5278   44.8867 C   0  0  0  0  0  0  0  0  0  0  0  0
    6.1804    8.2533   45.0091 C   0  0  0  0  0  0  0  0  0  0  0  0
    7.6267    8.5607   45.1008 C   0  0  0  0  0  0  0  0  0  0  0  0
    2.5594    9.3626   44.9127 C   0  0  0  0  0  0  0  0  0  0  0  0
    0.8068   10.1304   46.1924 C   0  0  0  0  0  0  0  0  0  0  0  0
    1.4763    6.9693   49.0285 C   0  0  0  0  0  0  0  0  0  0  0  0
   -0.5500    7.5324   50.0789 C   0  0  0  0  0  0  0  0  0  0  0  0
   -0.8732    8.6158   49.0640 C   0  0  0  0  0  0  0  0  0  0  0  0
    0.9942   10.9982   44.0978 C   0  0  0  0  0  0  0  0  0  0  0  0
    2.1263   10.2200   43.8920 C   0  0  0  0  0  0  0  0  0  0  0  0
   10.3814    7.5640   43.6568 C   0  0  0  0  0  0  0  0  0  0  0  0
   12.3582    9.0485   41.8555 C   0  0  0  0  0  0  0  0  0  0  0  0
   11.4292   13.1139   41.7428 C   0  0  0  0  0  0  0  0  0  0  0  0
   10.1283   13.5291   41.7892 C   0  0  0  0  0  0  0  0  0  0  0  0
    9.1057   12.5776   41.9135 C   0  0  0  0  0  0  0  0  0  0  0  0
    7.2585   14.1928   41.5192 C   0  0  0  0  0  0  0  0  0  0  0  0
    3.7820   13.9565   43.0222 C   0  0  0  0  0  0  0  0  0  0  0  0
    8.2740    7.3850   44.9181 N   0  0  0  0  0  0  0  0  0  0  0  0
    7.3854    6.2281   44.9731 C   0  0  0  0  0  0  0  0  0  0  0  0
    5.0762    9.0831   44.9905 C   0  0  0  0  0  0  0  0  0  0  0  0
    8.1759    9.6388   45.3017 O   0  0  0  0  0  0  0  0  0  0  0  0
    1.9084    9.3461   46.0689 N   0  0  0  0  0  0  0  0  0  0  0  0
    0.1331   10.0756   47.3526 N   0  0  0  0  0  0  0  0  0  0  0  0
    0.4099    9.1700   48.4451 C   0  0  2  0  0  0  0  0  0  0  0  0
    1.2916    8.0238   47.9550 C   0  0  0  0  0  0  0  0  0  0  0  0
    0.2121    6.4673   49.4859 O   0  0  0  0  0  0  0  0  0  0  0  0
    0.3119   10.9409   45.2328 N   0  0  0  0  0  0  0  0  0  0  0  0
    2.9585   10.3458   42.3780 Cl  0  0  0  0  0  0  0  0  0  0  0  0
   10.8447    6.6728   42.9465 O   0  0  0  0  0  0  0  0  0  0  0  0
   10.4198    8.8536   43.3317 N   0  0  0  0  0  0  0  0  0  0  0  0
   10.8740    9.3709   42.0443 C   0  0  1  0  0  0  0  0  0  0  0  0
   12.7362    9.2107   40.4927 O   0  0  0  0  0  0  0  0  0  0  0  0
   10.6548   10.8675   41.9333 C   0  0  0  0  0  0  0  0  0  0  0  0
   11.7014   11.7640   41.8178 C   0  0  0  0  0  0  0  0  0  0  0  0
    9.3824   11.2583   41.9936 N   0  0  0  0  0  0  0  0  0  0  0  0
    7.7763   12.8956   41.9690 N   0  0  0  0  0  0  0  0  0  0  0  0
    6.0602   14.6080   42.3477 C   0  0  0  0  0  0  0  0  0  0  0  0
    5.0153   13.5454   42.2978 N   0  0  1  0  0  0  0  0  0  0  0  0
    5.5669   12.2678   42.8411 C   0  0  0  0  0  0  0  0  0  0  0  0
    6.7583   11.8426   42.0098 C   0  0  0  0  0  0  0  0  0  0  0  0
   10.0121    7.7289   47.0980 H   0  0  0  0  0  0  0  0  0  0  0  0
   11.3792    8.2039   46.0340 H   0  0  0  0  0  0  0  0  0  0  0  0
    9.8639    9.1686   46.0340 H   0  0  0  0  0  0  0  0  0  0  0  0
    9.9637    6.2319   45.2660 H   0  0  0  0  0  0  0  0  0  0  0  0
    4.6601    5.2349   44.8182 H   0  0  0  0  0  0  0  0  0  0  0  0
    2.6664    6.6889   44.7638 H   0  0  0  0  0  0  0  0  0  0  0  0
    2.0649    6.1366   48.6160 H   0  0  0  0  0  0  0  0  0  0  0  0
    1.9980    7.4281   49.8813 H   0  0  0  0  0  0  0  0  0  0  0  0
    0.0325    7.9744   50.9007 H   0  0  0  0  0  0  0  0  0  0  0  0
   -1.4967    7.1143   50.4516 H   0  0  0  0  0  0  0  0  0  0  0  0
   -1.5040    8.1907   48.2694 H   0  0  0  0  0  0  0  0  0  0  0  0
   -1.4042    9.4333   49.5735 H   0  0  0  0  0  0  0  0  0  0  0  0
    0.6563   11.6771   43.3010 H   0  0  0  0  0  0  0  0  0  0  0  0
   12.9579    9.7267   42.4803 H   0  0  0  0  0  0  0  0  0  0  0  0
   12.5347    8.0036   42.1508 H   0  0  0  0  0  0  0  0  0  0  0  0
   12.2460   13.8444   41.6472 H   0  0  0  0  0  0  0  0  0  0  0  0
    9.8853   14.6003   41.7297 H   0  0  0  0  0  0  0  0  0  0  0  0
    8.0482   14.9517   41.6209 H   0  0  0  0  0  0  0  0  0  0  0  0
    6.9475   14.1039   40.4678 H   0  0  0  0  0  0  0  0  0  0  0  0
    3.9571   13.8981   44.1066 H   0  0  0  0  0  0  0  0  0  0  0  0
    3.5227   14.9896   42.7477 H   0  0  0  0  0  0  0  0  0  0  0  0
    2.9547   13.2855   42.7477 H   0  0  0  0  0  0  0  0  0  0  0  0
    7.5386    5.6487   45.8955 H   0  0  0  0  0  0  0  0  0  0  0  0
    7.5433    5.5057   44.1587 H   0  0  0  0  0  0  0  0  0  0  0  0
    5.2034   10.1737   45.0568 H   0  0  0  0  0  0  0  0  0  0  0  0
   -0.6482   10.7356   47.4748 H   0  0  0  0  0  0  0  0  0  0  0  0
    0.9374    9.7364   49.2267 H   0  0  0  0  0  0  0  0  0  0  0  0
    2.2767    8.4250   47.6743 H   0  0  0  0  0  0  0  0  0  0  0  0
    0.8000    7.5547   47.0900 H   0  0  0  0  0  0  0  0  0  0  0  0
   10.1071    9.5349   44.0380 H   0  0  0  0  0  0  0  0  0  0  0  0
   10.2818    8.8850   41.2549 H   0  0  0  0  0  0  0  0  0  0  0  0
   13.6450    9.6007   40.4465 H   0  0  0  0  0  0  0  0  0  0  0  0
   12.7404   11.4041   41.7860 H   0  0  0  0  0  0  0  0  0  0  0  0
    6.3739   14.7623   43.3907 H   0  0  0  0  0  0  0  0  0  0  0  0
    5.6458   15.5426   41.9417 H   0  0  0  0  0  0  0  0  0  0  0  0
    4.7468   13.3968   41.3146 H   0  0  0  0  0  0  0  0  0  0  0  0
    5.8818   12.4179   43.8843 H   0  0  0  0  0  0  0  0  0  0  0  0
    4.7933   11.4868   42.8020 H   0  0  0  0  0  0  0  0  0  0  0  0
    6.4226   11.6277   40.9845 H   0  0  0  0  0  0  0  0  0  0  0  0
    7.2014   10.9460   42.4676 H   0  0  0  0  0  0  0  0  0  0  0  0
  2  1  1  0
  2 16  1  0
  2 23  1  0
  3  4  2  0
  3  7  1  0
  3 24  1  0
  4  5  1  0
  5  6  2  0
  6  9  1  0
  6 25  1  0
  7  8  1  0
  7 25  2  0
  8 23  1  0
  8 26  2  0
  9 15  1  0
  9 27  2  0
 10 27  1  0
 10 28  1  0
 10 32  2  0
 11 30  1  0
 11 31  1  0
 12 13  1  0
 12 31  1  0
 13 29  1  0
 14 15  2  0
 14 32  1  0
 15 33  1  0
 16 34  2  0
 16 35  1  0
 36 17  1  0
 17 37  1  0
 18 19  2  0
 18 39  1  0
 19 20  1  0
 20 40  2  0
 20 41  1  0
 21 41  1  0
 21 42  1  0
 43 22  1  0
 23 24  1  0
 29 28  1  0
 29 30  1  0
 35 36  1  0
 36 38  1  0
 38 39  2  0
 38 40  1  0
 41 45  1  0
 42 43  1  0
 43 44  1  0
 44 45  1  0
  1 46  1  0
  1 47  1  0
  1 48  1  0
  2 49  1  1
  4 50  1  0
  5 51  1  0
 11 52  1  0
 11 53  1  0
 12 54  1  0
 12 55  1  0
 13 56  1  0
 13 57  1  0
 14 58  1  0
 17 59  1  0
 17 60  1  0
 18 61  1  0
 19 62  1  0
 21 63  1  0
 21 64  1  0
 22 65  1  0
 22 66  1  0
 22 67  1  0
 24 68  1  0
 24 69  1  0
 25 70  1  0
 28 71  1  0
 29 72  1  1
 30 73  1  0
 30 74  1  0
 35 75  1  0
 36 76  1  6
 37 77  1  0
 39 78  1  0
 42 79  1  0
 42 80  1  0
 43 81  1  6
 44 82  1  0
 44 83  1  0
 45 84  1  0
 45 85  1  0
M  CHG  1  43   1
M  END
>  <filename_input>  (18) 
7NR8_UOE_docked.sdf

>  <pdb_id>  (18) 
7NR8_UOE

>  <pose_rank>  (18) 
17

>  <num_atoms_heavy>  (18) 
45

>  <num_torsions>  (18) 
7

>  <pose>  (18) 
[6.035540778462145, 6.878302588060992, 44.95480366197023, 0.08188002095259259, -0.48695698308115476, 3.058727543607251, 1.9981292459677764, 1.0276526901536116, -2.8924166310967556, -1.8930734878791053, 1.0704510682478179, -1.5146011898783363, -2.4073107283037953]

>  <energy>  (18) 
-692.8142435578926

>  <inter_energy>  (18) 
-806.3155094820131

>  <intra_energy>  (18) 
112.63588181999252

>  <rmsd>  (18) 
10.8861

>  <sdf_rank>  (18) 
0

$$$$

     RDKit          3D

 85 90  0  0  0  0  0  0  0  0999 V2000
    2.0471   11.1344   44.6185 C   0  0  0  0  0  0  0  0  0  0  0  0
    3.3476   11.3961   43.8558 C   0  0  2  0  0  0  0  0  0  0  0  0
    5.2673    8.2915   44.5055 C   0  0  0  0  0  0  0  0  0  0  0  0
    5.6104    7.0275   44.9256 C   0  0  0  0  0  0  0  0  0  0  0  0
    6.9188    6.6030   44.8464 C   0  0  0  0  0  0  0  0  0  0  0  0
    7.9153    7.4391   44.3468 C   0  0  0  0  0  0  0  0  0  0  0  0
    6.2421    9.1374   44.0065 C   0  0  0  0  0  0  0  0  0  0  0  0
    5.5952   10.4176   43.6362 C   0  0  0  0  0  0  0  0  0  0  0  0
    9.3023    6.9148   44.2220 C   0  0  0  0  0  0  0  0  0  0  0  0
   11.4796    7.4058   43.6589 C   0  0  0  0  0  0  0  0  0  0  0  0
   10.2538   11.3589   42.5011 C   0  0  0  0  0  0  0  0  0  0  0  0
   11.3118   10.7808   40.4830 C   0  0  0  0  0  0  0  0  0  0  0  0
   11.8465    9.4722   41.0396 C   0  0  0  0  0  0  0  0  0  0  0  0
   11.0984    5.3478   44.5504 C   0  0  0  0  0  0  0  0  0  0  0  0
    9.7504    5.6628   44.6654 C   0  0  0  0  0  0  0  0  0  0  0  0
    3.1037   11.6013   42.3605 C   0  0  0  0  0  0  0  0  0  0  0  0
    4.1159   12.9325   39.6460 C   0  0  0  0  0  0  0  0  0  0  0  0
    3.5789   17.0735   40.5630 C   0  0  0  0  0  0  0  0  0  0  0  0
    2.2807   17.4989   40.5442 C   0  0  0  0  0  0  0  0  0  0  0  0
    1.2459   16.5525   40.5380 C   0  0  0  0  0  0  0  0  0  0  0  0
   -0.5589   18.2083   40.1163 C   0  0  0  0  0  0  0  0  0  0  0  0
   -4.1336   17.9177   41.3560 C   0  0  0  0  0  0  0  0  0  0  0  0
    4.3215   10.3414   44.0907 N   0  0  0  0  0  0  0  0  0  0  0  0
    3.9451    8.9965   44.5156 C   0  0  0  0  0  0  0  0  0  0  0  0
    7.5564    8.7237   43.9087 C   0  0  0  0  0  0  0  0  0  0  0  0
    6.0696   11.3783   43.0392 O   0  0  0  0  0  0  0  0  0  0  0  0
   10.1798    7.7890   43.7460 N   0  0  0  0  0  0  0  0  0  0  0  0
   12.3518    8.2841   43.1387 N   0  0  0  0  0  0  0  0  0  0  0  0
   12.0127    9.5633   42.5564 C   0  0  2  0  0  0  0  0  0  0  0  0
   10.7307   10.0963   43.1919 C   0  0  0  0  0  0  0  0  0  0  0  0
   10.0621   11.1409   41.0957 O   0  0  0  0  0  0  0  0  0  0  0  0
   11.9661    6.2005   44.0241 N   0  0  0  0  0  0  0  0  0  0  0  0
    8.6781    4.4914   45.3570 Cl  0  0  0  0  0  0  0  0  0  0  0  0
    2.7822   10.6770   41.6149 O   0  0  0  0  0  0  0  0  0  0  0  0
    3.2810   12.8516   41.9418 N   0  0  0  0  0  0  0  0  0  0  0  0
    2.9803   13.3252   40.5940 C   0  0  1  0  0  0  0  0  0  0  0  0
    3.7065   11.8748   38.7858 O   0  0  0  0  0  0  0  0  0  0  0  0
    2.7789   14.8280   40.5604 C   0  0  0  0  0  0  0  0  0  0  0  0
    3.8367   15.7187   40.5735 C   0  0  0  0  0  0  0  0  0  0  0  0
    1.5079   15.2279   40.5559 N   0  0  0  0  0  0  0  0  0  0  0  0
   -0.0821   16.8806   40.5203 N   0  0  0  0  0  0  0  0  0  0  0  0
   -1.8096   18.5849   40.8833 C   0  0  0  0  0  0  0  0  0  0  0  0
   -2.8552   17.5385   40.6954 N   0  0  1  0  0  0  0  0  0  0  0  0
   -2.3512   16.2243   41.1960 C   0  0  0  0  0  0  0  0  0  0  0  0
   -1.1071   15.8380   40.4251 C   0  0  0  0  0  0  0  0  0  0  0  0
    2.2422   11.1736   45.7003 H   0  0  0  0  0  0  0  0  0  0  0  0
    1.3049   11.9012   44.3517 H   0  0  0  0  0  0  0  0  0  0  0  0
    1.6593   10.1402   44.3517 H   0  0  0  0  0  0  0  0  0  0  0  0
    3.7665   12.3346   44.2477 H   0  0  0  0  0  0  0  0  0  0  0  0
    4.8384    6.3539   45.3258 H   0  0  0  0  0  0  0  0  0  0  0  0
    7.1807    5.5889   45.1826 H   0  0  0  0  0  0  0  0  0  0  0  0
    9.2998   11.6742   42.9487 H   0  0  0  0  0  0  0  0  0  0  0  0
   11.0197   12.1377   42.6314 H   0  0  0  0  0  0  0  0  0  0  0  0
   12.0462   11.5772   40.6736 H   0  0  0  0  0  0  0  0  0  0  0  0
   11.1438   10.6543   39.4033 H   0  0  0  0  0  0  0  0  0  0  0  0
   11.1415    8.6623   40.8008 H   0  0  0  0  0  0  0  0  0  0  0  0
   12.8275    9.2673   40.5861 H   0  0  0  0  0  0  0  0  0  0  0  0
   11.4538    4.3687   44.9042 H   0  0  0  0  0  0  0  0  0  0  0  0
    4.3972   13.8048   39.0379 H   0  0  0  0  0  0  0  0  0  0  0  0
    4.9748   12.5922   40.2430 H   0  0  0  0  0  0  0  0  0  0  0  0
    4.4051   17.7997   40.5697 H   0  0  0  0  0  0  0  0  0  0  0  0
    2.0492   18.5742   40.5340 H   0  0  0  0  0  0  0  0  0  0  0  0
    0.2266   18.9511   40.3193 H   0  0  0  0  0  0  0  0  0  0  0  0
   -0.7958   18.1870   39.0423 H   0  0  0  0  0  0  0  0  0  0  0  0
   -4.0072   17.8802   42.4481 H   0  0  0  0  0  0  0  0  0  0  0  0
   -4.4139   18.9377   41.0542 H   0  0  0  0  0  0  0  0  0  0  0  0
   -4.9247   17.2155   41.0542 H   0  0  0  0  0  0  0  0  0  0  0  0
    3.2399    8.5356   43.8084 H   0  0  0  0  0  0  0  0  0  0  0  0
    3.4299    8.9637   45.4869 H   0  0  0  0  0  0  0  0  0  0  0  0
    8.3181    9.3975   43.4894 H   0  0  0  0  0  0  0  0  0  0  0  0
   13.3483    8.0242   43.1559 H   0  0  0  0  0  0  0  0  0  0  0  0
   12.8431   10.2560   42.7581 H   0  0  0  0  0  0  0  0  0  0  0  0
   10.9226   10.3191   44.2519 H   0  0  0  0  0  0  0  0  0  0  0  0
    9.9489    9.3293   43.0893 H   0  0  0  0  0  0  0  0  0  0  0  0
    3.6568   13.5335   42.6161 H   0  0  0  0  0  0  0  0  0  0  0  0
    2.0413   12.8529   40.2696 H   0  0  0  0  0  0  0  0  0  0  0  0
    3.4081   11.1035   39.3301 H   0  0  0  0  0  0  0  0  0  0  0  0
    4.8730   15.3504   40.5921 H   0  0  0  0  0  0  0  0  0  0  0  0
   -1.5690   18.6720   41.9531 H   0  0  0  0  0  0  0  0  0  0  0  0
   -2.1886   19.5469   40.5078 H   0  0  0  0  0  0  0  0  0  0  0  0
   -3.0549   17.4530   39.6886 H   0  0  0  0  0  0  0  0  0  0  0  0
   -2.1094   16.3071   42.2659 H   0  0  0  0  0  0  0  0  0  0  0  0
   -3.1251   15.4554   41.0551 H   0  0  0  0  0  0  0  0  0  0  0  0
   -1.3714   15.6896   39.3677 H   0  0  0  0  0  0  0  0  0  0  0  0
   -0.7029   14.9105   40.8566 H   0  0  0  0  0  0  0  0  0  0  0  0
  2  1  1  0
  2 16  1  0
  2 23  1  0
  3  4  2  0
  3  7  1  0
  3 24  1  0
  4  5  1  0
  5  6  2  0
  6  9  1  0
  6 25  1  0
  7  8  1  0
  7 25  2  0
  8 23  1  0
  8 26  2  0
  9 15  1  0
  9 27  2  0
 10 27  1  0
 10 28  1  0
 10 32  2  0
 11 30  1  0
 11 31  1  0
 12 13  1  0
 12 31  1  0
 13 29  1  0
 14 15  2  0
 14 32  1  0
 15 33  1  0
 16 34  2  0
 16 35  1  0
 36 17  1  0
 17 37  1  0
 18 19  2  0
 18 39  1  0
 19 20  1  0
 20 40  2  0
 20 41  1  0
 21 41  1  0
 21 42  1  0
 43 22  1  0
 23 24  1  0
 29 28  1  0
 29 30  1  0
 35 36  1  0
 36 38  1  0
 38 39  2  0
 38 40  1  0
 41 45  1  0
 42 43  1  0
 43 44  1  0
 44 45  1  0
  1 46  1  0
  1 47  1  0
  1 48  1  0
  2 49  1  1
  4 50  1  0
  5 51  1  0
 11 52  1  0
 11 53  1  0
 12 54  1  0
 12 55  1  0
 13 56  1  0
 13 57  1  0
 14 58  1  0
 17 59  1  0
 17 60  1  0
 18 61  1  0
 19 62  1  0
 21 63  1  0
 21 64  1  0
 22 65  1  0
 22 66  1  0
 22 67  1  0
 24 68  1  0
 24 69  1  0
 25 70  1  0
 28 71  1  0
 29 72  1  6
 30 73  1  0
 30 74  1  0
 35 75  1  0
 36 76  1  6
 37 77  1  0
 39 78  1  0
 42 79  1  0
 42 80  1  0
 43 81  1  6
 44 82  1  0
 44 83  1  0
 45 84  1  0
 45 85  1  0
M  CHG  1  43   1
M  END
>  <filename_input>  (19) 
7NR8_UOE_docked.sdf

>  <pdb_id>  (19) 
7NR8_UOE

>  <pose_rank>  (19) 
18

>  <num_atoms_heavy>  (19) 
45

>  <num_torsions>  (19) 
7

>  <pose>  (19) 
[5.267315387425613, 8.291505634704505, 44.50548770362206, -3.324701457612546, 1.658559698954193, 0.42926720456826134, -2.4215479522384222, 1.8050625327445844, 5.986956795927252, -5.404987146598927, -5.483025515519783, -8.446735474096483, 2.874981264867282]

>  <energy>  (19) 
-981.3235570581442

>  <inter_energy>  (19) 
-1064.344129632787

>  <intra_energy>  (19) 
90.36080205465143

>  <rmsd>  (19) 
6.13205

>  <sdf_rank>  (19) 
0

$$$$

     RDKit          3D

 85 90  0  0  0  0  0  0  0  0999 V2000
    9.9673    4.7118   46.4004 C   0  0  0  0  0  0  0  0  0  0  0  0
    9.6139    5.5069   45.1417 C   0  0  2  0  0  0  0  0  0  0  0  0
    7.5948    8.4825   46.0442 C   0  0  0  0  0  0  0  0  0  0  0  0
    7.1866    9.6622   46.6218 C   0  0  0  0  0  0  0  0  0  0  0  0
    5.8963   10.1109   46.4422 C   0  0  0  0  0  0  0  0  0  0  0  0
    4.9834    9.3837   45.6810 C   0  0  0  0  0  0  0  0  0  0  0  0
    6.7034    7.7454   45.2848 C   0  0  0  0  0  0  0  0  0  0  0  0
    7.4062    6.5374   44.7934 C   0  0  0  0  0  0  0  0  0  0  0  0
    3.6203    9.9395   45.4631 C   0  0  0  0  0  0  0  0  0  0  0  0
    1.5373   10.2869   46.3792 C   0  0  0  0  0  0  0  0  0  0  0  0
    0.5464    6.9005   49.4555 C   0  0  0  0  0  0  0  0  0  0  0  0
    0.4016    8.7266   50.9289 C   0  0  0  0  0  0  0  0  0  0  0  0
    0.2754    9.7360   49.8005 C   0  0  0  0  0  0  0  0  0  0  0  0
    1.9248   11.2300   44.3455 C   0  0  0  0  0  0  0  0  0  0  0  0
    3.2141   10.7134   44.3673 C   0  0  0  0  0  0  0  0  0  0  0  0
   10.8509    6.1212   44.4858 C   0  0  0  0  0  0  0  0  0  0  0  0
   12.5364    9.1994   44.7816 C   0  0  0  0  0  0  0  0  0  0  0  0
   11.0645    9.7386   40.3711 C   0  0  0  0  0  0  0  0  0  0  0  0
   10.0914   10.6239   40.7403 C   0  0  0  0  0  0  0  0  0  0  0  0
    9.7174   10.7133   42.0889 C   0  0  0  0  0  0  0  0  0  0  0  0
    7.7582   12.1847   41.6727 C   0  0  0  0  0  0  0  0  0  0  0  0
    6.4397   14.8104   44.0743 C   0  0  0  0  0  0  0  0  0  0  0  0
    8.6073    6.5195   45.4194 N   0  0  0  0  0  0  0  0  0  0  0  0
    8.9106    7.7688   46.1110 C   0  0  0  0  0  0  0  0  0  0  0  0
    5.4099    8.1866   45.0843 C   0  0  0  0  0  0  0  0  0  0  0  0
    7.0249    5.6971   43.9854 O   0  0  0  0  0  0  0  0  0  0  0  0
    2.7831    9.7556   46.4762 N   0  0  0  0  0  0  0  0  0  0  0  0
    0.6858   10.0606   47.3924 N   0  0  0  0  0  0  0  0  0  0  0  0
    0.9389    9.2049   48.5300 C   0  0  2  0  0  0  0  0  0  0  0  0
    0.4437    7.7914   48.2330 C   0  0  0  0  0  0  0  0  0  0  0  0
   -0.1707    7.4586   50.5662 O   0  0  0  0  0  0  0  0  0  0  0  0
    1.0703   11.0003   45.3324 N   0  0  0  0  0  0  0  0  0  0  0  0
    4.2688   11.0517   43.0355 Cl  0  0  0  0  0  0  0  0  0  0  0  0
   11.7626    5.4324   44.0300 O   0  0  0  0  0  0  0  0  0  0  0  0
   10.8576    7.4515   44.4646 N   0  0  0  0  0  0  0  0  0  0  0  0
   11.8569    8.2647   43.7782 C   0  0  1  0  0  0  0  0  0  0  0  0
   11.7170    9.3801   45.9315 O   0  0  0  0  0  0  0  0  0  0  0  0
   11.2424    9.0764   42.6540 C   0  0  0  0  0  0  0  0  0  0  0  0
   11.6531    8.9526   41.3393 C   0  0  0  0  0  0  0  0  0  0  0  0
   10.3047    9.9446   43.0310 N   0  0  0  0  0  0  0  0  0  0  0  0
    8.7560   11.5680   42.5544 N   0  0  0  0  0  0  0  0  0  0  0  0
    7.3849   13.5662   42.1696 C   0  0  0  0  0  0  0  0  0  0  0  0
    6.9065   13.4868   43.5797 N   0  0  1  0  0  0  0  0  0  0  0  0
    7.9857   12.9291   44.4492 C   0  0  0  0  0  0  0  0  0  0  0  0
    8.3550   11.5438   43.9634 C   0  0  0  0  0  0  0  0  0  0  0  0
    9.7055    5.3008   47.2917 H   0  0  0  0  0  0  0  0  0  0  0  0
    9.4045    3.7667   46.4071 H   0  0  0  0  0  0  0  0  0  0  0  0
   11.0460    4.4963   46.4071 H   0  0  0  0  0  0  0  0  0  0  0  0
    9.1852    4.7945   44.4216 H   0  0  0  0  0  0  0  0  0  0  0  0
    7.8919   10.2488   47.2287 H   0  0  0  0  0  0  0  0  0  0  0  0
    5.5822   11.0573   46.9065 H   0  0  0  0  0  0  0  0  0  0  0  0
    0.1253    5.9129   49.2162 H   0  0  0  0  0  0  0  0  0  0  0  0
    1.6069    6.8128   49.7344 H   0  0  0  0  0  0  0  0  0  0  0  0
    1.4667    8.5841   51.1639 H   0  0  0  0  0  0  0  0  0  0  0  0
   -0.1429    9.1145   51.8024 H   0  0  0  0  0  0  0  0  0  0  0  0
   -0.7898    9.9244   49.6009 H   0  0  0  0  0  0  0  0  0  0  0  0
    0.7760   10.6686   50.1000 H   0  0  0  0  0  0  0  0  0  0  0  0
    1.6059   11.8436   43.4900 H   0  0  0  0  0  0  0  0  0  0  0  0
   13.4985    8.7631   45.0881 H   0  0  0  0  0  0  0  0  0  0  0  0
   12.6973   10.1769   44.3034 H   0  0  0  0  0  0  0  0  0  0  0  0
   11.3733    9.6543   39.3187 H   0  0  0  0  0  0  0  0  0  0  0  0
    9.6056   11.2608   39.9864 H   0  0  0  0  0  0  0  0  0  0  0  0
    8.1745   12.2664   40.6578 H   0  0  0  0  0  0  0  0  0  0  0  0
    6.8558   11.5557   41.6659 H   0  0  0  0  0  0  0  0  0  0  0  0
    6.4393   14.8114   45.1743 H   0  0  0  0  0  0  0  0  0  0  0  0
    7.1143   15.5978   43.7071 H   0  0  0  0  0  0  0  0  0  0  0  0
    5.4203   15.0004   43.7071 H   0  0  0  0  0  0  0  0  0  0  0  0
    9.6992    8.3330   45.5915 H   0  0  0  0  0  0  0  0  0  0  0  0
    9.2916    7.6311   47.1336 H   0  0  0  0  0  0  0  0  0  0  0  0
    4.7173    7.6029   44.4601 H   0  0  0  0  0  0  0  0  0  0  0  0
   -0.2263   10.5379   47.3562 H   0  0  0  0  0  0  0  0  0  0  0  0
    2.0248    9.1891   48.7046 H   0  0  0  0  0  0  0  0  0  0  0  0
    1.0531    7.3612   47.4246 H   0  0  0  0  0  0  0  0  0  0  0  0
   -0.6137    7.8505   47.9358 H   0  0  0  0  0  0  0  0  0  0  0  0
   10.1047    7.9421   44.9680 H   0  0  0  0  0  0  0  0  0  0  0  0
   12.6009    7.5864   43.3351 H   0  0  0  0  0  0  0  0  0  0  0  0
   12.2634    9.2596   46.7483 H   0  0  0  0  0  0  0  0  0  0  0  0
   12.4412    8.2345   41.0687 H   0  0  0  0  0  0  0  0  0  0  0  0
    8.2665   14.2221   42.1199 H   0  0  0  0  0  0  0  0  0  0  0  0
    6.5821   13.9735   41.5374 H   0  0  0  0  0  0  0  0  0  0  0  0
    6.0950   12.8535   43.6144 H   0  0  0  0  0  0  0  0  0  0  0  0
    8.8695   13.5824   44.4024 H   0  0  0  0  0  0  0  0  0  0  0  0
    7.6287   12.8718   45.4880 H   0  0  0  0  0  0  0  0  0  0  0  0
    7.4859   10.8794   44.0782 H   0  0  0  0  0  0  0  0  0  0  0  0
    9.2029   11.1785   44.5615 H   0  0  0  0  0  0  0  0  0  0  0  0
  2  1  1  0
  2 16  1  0
  2 23  1  0
  3  4  2  0
  3  7  1  0
  3 24  1  0
  4  5  1  0
  5  6  2  0
  6  9  1  0
  6 25  1  0
  7  8  1  0
  7 25  2  0
  8 23  1  0
  8 26  2  0
  9 15  1  0
  9 27  2  0
 10 27  1  0
 10 28  1  0
 10 32  2  0
 11 30  1  0
 11 31  1  0
 12 13  1  0
 12 31  1  0
 13 29  1  0
 14 15  2  0
 14 32  1  0
 15 33  1  0
 16 34  2  0
 16 35  1  0
 36 17  1  0
 17 37  1  0
 18 19  2  0
 18 39  1  0
 19 20  1  0
 20 40  2  0
 20 41  1  0
 21 41  1  0
 21 42  1  0
 43 22  1  0
 23 24  1  0
 29 28  1  0
 29 30  1  0
 35 36  1  0
 36 38  1  0
 38 39  2  0
 38 40  1  0
 41 45  1  0
 42 43  1  0
 43 44  1  0
 44 45  1  0
  1 46  1  0
  1 47  1  0
  1 48  1  0
  2 49  1  6
  4 50  1  0
  5 51  1  0
 11 52  1  0
 11 53  1  0
 12 54  1  0
 12 55  1  0
 13 56  1  0
 13 57  1  0
 14 58  1  0
 17 59  1  0
 17 60  1  0
 18 61  1  0
 19 62  1  0
 21 63  1  0
 21 64  1  0
 22 65  1  0
 22 66  1  0
 22 67  1  0
 24 68  1  0
 24 69  1  0
 25 70  1  0
 28 71  1  0
 29 72  1  1
 30 73  1  0
 30 74  1  0
 35 75  1  0
 36 76  1  6
 37 77  1  0
 39 78  1  0
 42 79  1  0
 42 80  1  0
 43 81  1  6
 44 82  1  0
 44 83  1  0
 45 84  1  0
 45 85  1  0
M  CHG  1  43   1
M  END
>  <filename_input>  (20) 
7NR8_UOE_docked.sdf

>  <pdb_id>  (20) 
7NR8_UOE

>  <pose_rank>  (20) 
19

>  <num_atoms_heavy>  (20) 
45

>  <num_torsions>  (20) 
7

>  <pose>  (20) 
[7.594795553768505, 8.48254300217366, 46.04417448181563, 1.1955429685797074, 2.358411073531166, 1.1425452602860908, -0.6916309184173179, -0.2783177411822841, 0.6247208793619716, 3.224099050301752, -6.221971430777759, 0.6388234436806823, 0.6345822759605335]

>  <energy>  (20) 
-793.8030919780182

>  <inter_energy>  (20) 
-847.5514119517052

>  <intra_energy>  (20) 
48.55552981323692

>  <rmsd>  (20) 
10.9452

>  <sdf_rank>  (20) 
0

$$$$

     RDKit          3D

 85 90  0  0  0  0  0  0  0  0999 V2000
    3.0757   12.6345   43.4334 C   0  0  0  0  0  0  0  0  0  0  0  0
    4.5722   12.8123   43.1683 C   0  0  2  0  0  0  0  0  0  0  0  0
    5.8309    9.3404   43.4960 C   0  0  0  0  0  0  0  0  0  0  0  0
    5.8814    7.9751   43.6552 C   0  0  0  0  0  0  0  0  0  0  0  0
    7.0932    7.3425   43.8271 C   0  0  0  0  0  0  0  0  0  0  0  0
    8.2838    8.0662   43.8472 C   0  0  0  0  0  0  0  0  0  0  0  0
    7.0020   10.0774   43.5133 C   0  0  0  0  0  0  0  0  0  0  0  0
    6.6511   11.5039   43.3222 C   0  0  0  0  0  0  0  0  0  0  0  0
    9.5725    7.3328   43.9725 C   0  0  0  0  0  0  0  0  0  0  0  0
   11.8491    7.4141   43.6417 C   0  0  0  0  0  0  0  0  0  0  0  0
   12.0167   11.6617   42.3714 C   0  0  0  0  0  0  0  0  0  0  0  0
   11.8278   10.4365   40.3741 C   0  0  0  0  0  0  0  0  0  0  0  0
   12.0294    9.1029   41.0734 C   0  0  0  0  0  0  0  0  0  0  0  0
   11.0433    5.5854   44.7290 C   0  0  0  0  0  0  0  0  0  0  0  0
    9.7600    6.1068   44.6256 C   0  0  0  0  0  0  0  0  0  0  0  0
    4.8438   13.3825   41.7758 C   0  0  0  0  0  0  0  0  0  0  0  0
    4.0549   16.2600   40.0318 C   0  0  0  0  0  0  0  0  0  0  0  0
    0.2734   14.8928   38.7117 C   0  0  0  0  0  0  0  0  0  0  0  0
    0.2462   13.7267   38.0001 C   0  0  0  0  0  0  0  0  0  0  0  0
    1.3962   12.9260   37.9457 C   0  0  0  0  0  0  0  0  0  0  0  0
    0.5047   11.3847   36.2119 C   0  0  0  0  0  0  0  0  0  0  0  0
    1.3772    7.7055   35.8922 C   0  0  0  0  0  0  0  0  0  0  0  0
    5.2994   11.5704   43.3799 N   0  0  0  0  0  0  0  0  0  0  0  0
    4.6594   10.2594   43.3281 C   0  0  0  0  0  0  0  0  0  0  0  0
    8.2263    9.4580   43.6722 C   0  0  0  0  0  0  0  0  0  0  0  0
    7.3926   12.4643   43.1425 O   0  0  0  0  0  0  0  0  0  0  0  0
   10.6272    7.9912   43.5086 N   0  0  0  0  0  0  0  0  0  0  0  0
   12.9040    8.0708   43.1332 N   0  0  0  0  0  0  0  0  0  0  0  0
   12.8430    9.2873   42.3543 C   0  0  2  0  0  0  0  0  0  0  0  0
   12.2439   10.4106   43.1972 C   0  0  0  0  0  0  0  0  0  0  0  0
   11.1827   11.3895   41.2357 O   0  0  0  0  0  0  0  0  0  0  0  0
   12.0904    6.2168   44.2172 N   0  0  0  0  0  0  0  0  0  0  0  0
    8.4424    5.2174   45.3136 Cl  0  0  0  0  0  0  0  0  0  0  0  0
    5.8688   13.1209   41.1479 O   0  0  0  0  0  0  0  0  0  0  0  0
    3.8891   14.1871   41.3163 N   0  0  0  0  0  0  0  0  0  0  0  0
    3.8525   14.7443   39.9675 C   0  0  1  0  0  0  0  0  0  0  0  0
    5.3728   16.6069   39.6208 O   0  0  0  0  0  0  0  0  0  0  0  0
    2.5448   14.4294   39.2667 C   0  0  0  0  0  0  0  0  0  0  0  0
    1.4373   15.2525   39.3580 C   0  0  0  0  0  0  0  0  0  0  0  0
    2.5291   13.2829   38.5881 N   0  0  0  0  0  0  0  0  0  0  0  0
    1.4656   11.7436   37.2612 N   0  0  0  0  0  0  0  0  0  0  0  0
    0.2729    9.8880   36.1866 C   0  0  0  0  0  0  0  0  0  0  0  0
    1.5718    9.1755   36.0174 N   0  0  1  0  0  0  0  0  0  0  0  0
    2.4839    9.5104   37.1522 C   0  0  0  0  0  0  0  0  0  0  0  0
    2.7276   11.0042   37.1753 C   0  0  0  0  0  0  0  0  0  0  0  0
    2.8956   12.6131   44.5183 H   0  0  0  0  0  0  0  0  0  0  0  0
    2.5220   13.4732   42.9862 H   0  0  0  0  0  0  0  0  0  0  0  0
    2.7338   11.6895   42.9862 H   0  0  0  0  0  0  0  0  0  0  0  0
    4.9425   13.5478   43.8976 H   0  0  0  0  0  0  0  0  0  0  0  0
    4.9519    7.3869   43.6452 H   0  0  0  0  0  0  0  0  0  0  0  0
    7.1212    6.2498   43.9504 H   0  0  0  0  0  0  0  0  0  0  0  0
   11.5304   12.4227   42.9994 H   0  0  0  0  0  0  0  0  0  0  0  0
   12.9910   12.0220   42.0097 H   0  0  0  0  0  0  0  0  0  0  0  0
   12.8081   10.8336   40.0718 H   0  0  0  0  0  0  0  0  0  0  0  0
   11.1849   10.2730   39.4966 H   0  0  0  0  0  0  0  0  0  0  0  0
   11.0481    8.6750   41.3264 H   0  0  0  0  0  0  0  0  0  0  0  0
   12.5757    8.4268   40.3993 H   0  0  0  0  0  0  0  0  0  0  0  0
   11.1941    4.6269   45.2474 H   0  0  0  0  0  0  0  0  0  0  0  0
    3.3281   16.7504   39.3675 H   0  0  0  0  0  0  0  0  0  0  0  0
    3.9073   16.5940   41.0695 H   0  0  0  0  0  0  0  0  0  0  0  0
   -0.6184   15.5342   38.7680 H   0  0  0  0  0  0  0  0  0  0  0  0
   -0.6697   13.4187   37.4745 H   0  0  0  0  0  0  0  0  0  0  0  0
   -0.4502   11.8947   36.4070 H   0  0  0  0  0  0  0  0  0  0  0  0
    0.9118   11.6958   35.2385 H   0  0  0  0  0  0  0  0  0  0  0  0
    1.3178    7.2567   36.8947 H   0  0  0  0  0  0  0  0  0  0  0  0
    0.4446    7.5044   35.3446 H   0  0  0  0  0  0  0  0  0  0  0  0
    2.2254    7.2686   35.3446 H   0  0  0  0  0  0  0  0  0  0  0  0
    4.1575   10.0965   42.3629 H   0  0  0  0  0  0  0  0  0  0  0  0
    3.8706   10.1184   44.0816 H   0  0  0  0  0  0  0  0  0  0  0  0
    9.1519   10.0523   43.6617 H   0  0  0  0  0  0  0  0  0  0  0  0
   13.8371    7.6737   43.3135 H   0  0  0  0  0  0  0  0  0  0  0  0
   13.8697    9.5507   42.0600 H   0  0  0  0  0  0  0  0  0  0  0  0
   12.9334   10.6463   44.0213 H   0  0  0  0  0  0  0  0  0  0  0  0
   11.2724   10.0713   43.5858 H   0  0  0  0  0  0  0  0  0  0  0  0
    3.1217   14.4342   41.9574 H   0  0  0  0  0  0  0  0  0  0  0  0
    4.6646   14.2823   39.3869 H   0  0  0  0  0  0  0  0  0  0  0  0
    5.9390   16.7559   40.4192 H   0  0  0  0  0  0  0  0  0  0  0  0
    1.4843   16.1846   39.9403 H   0  0  0  0  0  0  0  0  0  0  0  0
   -0.1940    9.5753   37.1323 H   0  0  0  0  0  0  0  0  0  0  0  0
   -0.3892    9.6384   35.3444 H   0  0  0  0  0  0  0  0  0  0  0  0
    2.0072    9.4935   35.1398 H   0  0  0  0  0  0  0  0  0  0  0  0
    2.0205    9.1992   38.1000 H   0  0  0  0  0  0  0  0  0  0  0  0
    3.4408    8.9834   37.0232 H   0  0  0  0  0  0  0  0  0  0  0  0
    3.2533   11.2967   36.2544 H   0  0  0  0  0  0  0  0  0  0  0  0
    3.3346   11.2453   38.0605 H   0  0  0  0  0  0  0  0  0  0  0  0
  2  1  1  0
  2 16  1  0
  2 23  1  0
  3  4  2  0
  3  7  1  0
  3 24  1  0
  4  5  1  0
  5  6  2  0
  6  9  1  0
  6 25  1  0
  7  8  1  0
  7 25  2  0
  8 23  1  0
  8 26  2  0
  9 15  1  0
  9 27  2  0
 10 27  1  0
 10 28  1  0
 10 32  2  0
 11 30  1  0
 11 31  1  0
 12 13  1  0
 12 31  1  0
 13 29  1  0
 14 15  2  0
 14 32  1  0
 15 33  1  0
 16 34  2  0
 16 35  1  0
 36 17  1  0
 17 37  1  0
 18 19  2  0
 18 39  1  0
 19 20  1  0
 20 40  2  0
 20 41  1  0
 21 41  1  0
 21 42  1  0
 43 22  1  0
 23 24  1  0
 29 28  1  0
 29 30  1  0
 35 36  1  0
 36 38  1  0
 38 39  2  0
 38 40  1  0
 41 45  1  0
 42 43  1  0
 43 44  1  0
 44 45  1  0
  1 46  1  0
  1 47  1  0
  1 48  1  0
  2 49  1  1
  4 50  1  0
  5 51  1  0
 11 52  1  0
 11 53  1  0
 12 54  1  0
 12 55  1  0
 13 56  1  0
 13 57  1  0
 14 58  1  0
 17 59  1  0
 17 60  1  0
 18 61  1  0
 19 62  1  0
 21 63  1  0
 21 64  1  0
 22 65  1  0
 22 66  1  0
 22 67  1  0
 24 68  1  0
 24 69  1  0
 25 70  1  0
 28 71  1  0
 29 72  1  6
 30 73  1  0
 30 74  1  0
 35 75  1  0
 36 76  1  6
 37 77  1  0
 39 78  1  0
 42 79  1  0
 42 80  1  0
 43 81  1  6
 44 82  1  0
 44 83  1  0
 45 84  1  0
 45 85  1  0
M  CHG  1  43   1
M  END
>  <filename_input>  (21) 
7NR8_UOE_docked.sdf

>  <pdb_id>  (21) 
7NR8_UOE

>  <pose_rank>  (21) 
20

>  <num_atoms_heavy>  (21) 
45

>  <num_torsions>  (21) 
7

>  <pose>  (21) 
[5.830931047757101, 9.340443570786189, 43.49602497149155, -2.8896948151114885, 1.733529475402567, 0.18721091464779496, -2.8370189485871276, 2.404870135780657, 5.96955201431255, -6.773670051748276, -6.057702383647946, -8.262367982605603, 2.8284620635483497]

>  <energy>  (21) 
-884.6859820628039

>  <inter_energy>  (21) 
-968.556178544859

>  <intra_energy>  (21) 
97.13323758040005

>  <rmsd>  (21) 
7.53027

>  <sdf_rank>  (21) 
0

$$$$

     RDKit          3D

 85 90  0  0  0  0  0  0  0  0999 V2000
    3.3469    7.3573   46.2036 C   0  0  0  0  0  0  0  0  0  0  0  0
    3.4676    8.4881   45.1798 C   0  0  2  0  0  0  0  0  0  0  0  0
    0.4104   10.5374   45.6262 C   0  0  0  0  0  0  0  0  0  0  0  0
   -0.6812   11.1556   46.1904 C   0  0  0  0  0  0  0  0  0  0  0  0
   -1.5968   11.8068   45.3930 C   0  0  0  0  0  0  0  0  0  0  0  0
   -1.4406   11.8497   44.0091 C   0  0  0  0  0  0  0  0  0  0  0  0
    0.5835   10.5682   44.2537 C   0  0  0  0  0  0  0  0  0  0  0  0
    1.8270    9.8308   43.9299 C   0  0  0  0  0  0  0  0  0  0  0  0
   -2.4212   12.6182   43.1953 C   0  0  0  0  0  0  0  0  0  0  0  0
   -4.4889   13.6292   43.1604 C   0  0  0  0  0  0  0  0  0  0  0  0
   -7.5956   11.5687   46.0803 C   0  0  0  0  0  0  0  0  0  0  0  0
   -7.3203   13.6280   47.1800 C   0  0  0  0  0  0  0  0  0  0  0  0
   -6.7372   14.3034   45.9504 C   0  0  0  0  0  0  0  0  0  0  0  0
   -3.1784   13.9292   41.3252 C   0  0  0  0  0  0  0  0  0  0  0  0
   -2.1862   13.1651   41.9262 C   0  0  0  0  0  0  0  0  0  0  0  0
    4.6608    9.3990   45.4701 C   0  0  0  0  0  0  0  0  0  0  0  0
    6.7089   11.4699   43.4242 C   0  0  0  0  0  0  0  0  0  0  0  0
    9.1774    7.4792   44.7029 C   0  0  0  0  0  0  0  0  0  0  0  0
   10.0771    7.8912   43.7608 C   0  0  0  0  0  0  0  0  0  0  0  0
    9.8528    9.0927   43.0732 C   0  0  0  0  0  0  0  0  0  0  0  0
   11.6897    8.7501   41.4345 C   0  0  0  0  0  0  0  0  0  0  0  0
   13.7343   11.5121   39.8248 C   0  0  0  0  0  0  0  0  0  0  0  0
    2.2331    9.2515   45.0849 N   0  0  0  0  0  0  0  0  0  0  0  0
    1.5164    9.7468   46.2562 C   0  0  0  0  0  0  0  0  0  0  0  0
   -0.3181   11.2270   43.4407 C   0  0  0  0  0  0  0  0  0  0  0  0
    2.4105    9.7352   42.8553 O   0  0  0  0  0  0  0  0  0  0  0  0
   -3.5652   12.8795   43.8149 N   0  0  0  0  0  0  0  0  0  0  0  0
   -5.6583   13.8537   43.7809 N   0  0  0  0  0  0  0  0  0  0  0  0
   -6.0685   13.2735   45.0400 C   0  0  2  0  0  0  0  0  0  0  0  0
   -7.0185   12.1056   44.7852 C   0  0  0  0  0  0  0  0  0  0  0  0
   -8.2614   12.6026   46.8199 O   0  0  0  0  0  0  0  0  0  0  0  0
   -4.3426   14.1445   41.9211 N   0  0  0  0  0  0  0  0  0  0  0  0
   -0.6947   12.9228   41.0793 Cl  0  0  0  0  0  0  0  0  0  0  0  0
    4.8634    9.8804   46.5840 O   0  0  0  0  0  0  0  0  0  0  0  0
    5.4428    9.6310   44.4191 N   0  0  0  0  0  0  0  0  0  0  0  0
    6.7098   10.3544   44.4720 C   0  0  1  0  0  0  0  0  0  0  0  0
    7.3031   12.6515   43.9507 O   0  0  0  0  0  0  0  0  0  0  0  0
    7.8913    9.4321   44.2401 C   0  0  0  0  0  0  0  0  0  0  0  0
    8.0675    8.2592   44.9512 C   0  0  0  0  0  0  0  0  0  0  0  0
    8.7668    9.8535   43.3284 N   0  0  0  0  0  0  0  0  0  0  0  0
   10.6951    9.5871   42.1153 N   0  0  0  0  0  0  0  0  0  0  0  0
   12.9229    9.5583   41.0873 C   0  0  0  0  0  0  0  0  0  0  0  0
   12.5395   10.7432   40.2672 N   0  0  1  0  0  0  0  0  0  0  0  0
   11.5904   11.6041   41.0353 C   0  0  0  0  0  0  0  0  0  0  0  0
   10.3512   10.8041   41.3755 C   0  0  0  0  0  0  0  0  0  0  0  0
    3.3916    7.7763   47.2197 H   0  0  0  0  0  0  0  0  0  0  0  0
    2.3881    6.8367   46.0636 H   0  0  0  0  0  0  0  0  0  0  0  0
    4.1742    6.6460   46.0636 H   0  0  0  0  0  0  0  0  0  0  0  0
    3.6490    8.0181   44.2020 H   0  0  0  0  0  0  0  0  0  0  0  0
   -0.8233   11.1301   47.2809 H   0  0  0  0  0  0  0  0  0  0  0  0
   -2.4642   12.3002   45.8559 H   0  0  0  0  0  0  0  0  0  0  0  0
   -8.3176   10.7718   45.8483 H   0  0  0  0  0  0  0  0  0  0  0  0
   -6.7704   11.1779   46.6938 H   0  0  0  0  0  0  0  0  0  0  0  0
   -6.5031   13.1755   47.7609 H   0  0  0  0  0  0  0  0  0  0  0  0
   -7.8480   14.3884   47.7745 H   0  0  0  0  0  0  0  0  0  0  0  0
   -7.5440   14.8060   45.3967 H   0  0  0  0  0  0  0  0  0  0  0  0
   -5.9832   15.0370   46.2715 H   0  0  0  0  0  0  0  0  0  0  0  0
   -2.9937   14.3654   40.3324 H   0  0  0  0  0  0  0  0  0  0  0  0
    7.2796   11.1396   42.5438 H   0  0  0  0  0  0  0  0  0  0  0  0
    5.6689   11.6911   43.1422 H   0  0  0  0  0  0  0  0  0  0  0  0
    9.3358    6.5407   45.2544 H   0  0  0  0  0  0  0  0  0  0  0  0
   10.9695    7.2858   43.5435 H   0  0  0  0  0  0  0  0  0  0  0  0
   11.9767    7.9198   42.0966 H   0  0  0  0  0  0  0  0  0  0  0  0
   11.2481    8.3620   40.5048 H   0  0  0  0  0  0  0  0  0  0  0  0
   14.2880   11.8684   40.7059 H   0  0  0  0  0  0  0  0  0  0  0  0
   14.3851   10.8628   39.2207 H   0  0  0  0  0  0  0  0  0  0  0  0
   13.4130   12.3734   39.2207 H   0  0  0  0  0  0  0  0  0  0  0  0
    2.1601   10.3848   46.8796 H   0  0  0  0  0  0  0  0  0  0  0  0
    1.1674    8.9536   46.9337 H   0  0  0  0  0  0  0  0  0  0  0  0
   -0.1574   11.2635   42.3531 H   0  0  0  0  0  0  0  0  0  0  0  0
   -6.3201   14.4945   43.3202 H   0  0  0  0  0  0  0  0  0  0  0  0
   -5.1657   12.9125   45.5546 H   0  0  0  0  0  0  0  0  0  0  0  0
   -6.4672   11.3001   44.2780 H   0  0  0  0  0  0  0  0  0  0  0  0
   -7.8485   12.4650   44.1592 H   0  0  0  0  0  0  0  0  0  0  0  0
    5.1324    9.2754   43.5036 H   0  0  0  0  0  0  0  0  0  0  0  0
    6.8129   10.7859   45.4785 H   0  0  0  0  0  0  0  0  0  0  0  0
    7.2858   12.6170   44.9399 H   0  0  0  0  0  0  0  0  0  0  0  0
    7.3300    7.9515   45.7071 H   0  0  0  0  0  0  0  0  0  0  0  0
   13.4091    9.8979   42.0138 H   0  0  0  0  0  0  0  0  0  0  0  0
   13.6177    8.9292   40.5116 H   0  0  0  0  0  0  0  0  0  0  0  0
   12.0670   10.4114   39.4143 H   0  0  0  0  0  0  0  0  0  0  0  0
   12.0729   11.9459   41.9628 H   0  0  0  0  0  0  0  0  0  0  0  0
   11.3098   12.4764   40.4267 H   0  0  0  0  0  0  0  0  0  0  0  0
    9.8369   10.5250   40.4440 H   0  0  0  0  0  0  0  0  0  0  0  0
    9.6979   11.4240   42.0072 H   0  0  0  0  0  0  0  0  0  0  0  0
  2  1  1  0
  2 16  1  0
  2 23  1  0
  3  4  2  0
  3  7  1  0
  3 24  1  0
  4  5  1  0
  5  6  2  0
  6  9  1  0
  6 25  1  0
  7  8  1  0
  7 25  2  0
  8 23  1  0
  8 26  2  0
  9 15  1  0
  9 27  2  0
 10 27  1  0
 10 28  1  0
 10 32  2  0
 11 30  1  0
 11 31  1  0
 12 13  1  0
 12 31  1  0
 13 29  1  0
 14 15  2  0
 14 32  1  0
 15 33  1  0
 16 34  2  0
 16 35  1  0
 36 17  1  0
 17 37  1  0
 18 19  2  0
 18 39  1  0
 19 20  1  0
 20 40  2  0
 20 41  1  0
 21 41  1  0
 21 42  1  0
 43 22  1  0
 23 24  1  0
 29 28  1  0
 29 30  1  0
 35 36  1  0
 36 38  1  0
 38 39  2  0
 38 40  1  0
 41 45  1  0
 42 43  1  0
 43 44  1  0
 44 45  1  0
  1 46  1  0
  1 47  1  0
  1 48  1  0
  2 49  1  6
  4 50  1  0
  5 51  1  0
 11 52  1  0
 11 53  1  0
 12 54  1  0
 12 55  1  0
 13 56  1  0
 13 57  1  0
 14 58  1  0
 17 59  1  0
 17 60  1  0
 18 61  1  0
 19 62  1  0
 21 63  1  0
 21 64  1  0
 22 65  1  0
 22 66  1  0
 22 67  1  0
 24 68  1  0
 24 69  1  0
 25 70  1  0
 28 71  1  0
 29 72  1  1
 30 73  1  0
 30 74  1  0
 35 75  1  0
 36 76  1  1
 37 77  1  0
 39 78  1  0
 42 79  1  0
 42 80  1  0
 43 81  1  6
 44 82  1  0
 44 83  1  0
 45 84  1  0
 45 85  1  0
M  CHG  1  43   1
M  END
>  <filename_input>  (22) 
7NR8_UOE_docked.sdf

>  <pdb_id>  (22) 
7NR8_UOE

>  <pose_rank>  (22) 
21

>  <num_atoms_heavy>  (22) 
45

>  <num_torsions>  (22) 
7

>  <pose>  (22) 
[0.41036292738149677, 10.537389522255133, 45.62619865365379, -0.6921482937525945, -2.0665434486324514, -2.989721109822589, -5.891072618020545, -0.4387971525768097, -6.143704639068051, 1.2530469068913777, -0.041473253242771006, -4.4323708867924205, -2.8441194434037107]

>  <energy>  (22) 
-653.580829308828

>  <inter_energy>  (22) 
-668.0913195382791

>  <intra_energy>  (22) 
23.469121183615698

>  <rmsd>  (22) 
13.3869

>  <sdf_rank>  (22) 
0

$$$$

     RDKit          3D

 85 90  0  0  0  0  0  0  0  0999 V2000
    4.9223    7.1767   45.0161 C   0  0  0  0  0  0  0  0  0  0  0  0
    4.4560    8.5785   44.6174 C   0  0  2  0  0  0  0  0  0  0  0  0
    1.4506    9.0341   46.7401 C   0  0  0  0  0  0  0  0  0  0  0  0
    0.4747    8.8350   47.6887 C   0  0  0  0  0  0  0  0  0  0  0  0
   -0.6345    9.6515   47.7227 C   0  0  0  0  0  0  0  0  0  0  0  0
   -0.7926   10.6857   46.8024 C   0  0  0  0  0  0  0  0  0  0  0  0
    1.3124   10.0555   45.8169 C   0  0  0  0  0  0  0  0  0  0  0  0
    2.4970   10.0357   44.9275 C   0  0  0  0  0  0  0  0  0  0  0  0
   -1.9761   11.5804   46.9178 C   0  0  0  0  0  0  0  0  0  0  0  0
   -3.6829   12.6345   45.7890 C   0  0  0  0  0  0  0  0  0  0  0  0
   -4.1946   11.5643   41.1014 C   0  0  0  0  0  0  0  0  0  0  0  0
   -2.0463   11.2842   42.0139 C   0  0  0  0  0  0  0  0  0  0  0  0
   -2.4850   11.7250   43.4000 C   0  0  0  0  0  0  0  0  0  0  0  0
   -3.7176   12.7865   48.0587 C   0  0  0  0  0  0  0  0  0  0  0  0
   -2.5629   12.0163   48.1138 C   0  0  0  0  0  0  0  0  0  0  0  0
    5.5148    9.6408   44.9145 C   0  0  0  0  0  0  0  0  0  0  0  0
    7.6187   11.7209   43.4952 C   0  0  0  0  0  0  0  0  0  0  0  0
   10.4675    7.7906   43.7635 C   0  0  0  0  0  0  0  0  0  0  0  0
   11.3080    8.5005   42.9533 C   0  0  0  0  0  0  0  0  0  0  0  0
   10.9719    9.8136   42.5937 C   0  0  0  0  0  0  0  0  0  0  0  0
   12.7892   10.0499   40.9151 C   0  0  0  0  0  0  0  0  0  0  0  0
   14.5671   13.2892   40.0509 C   0  0  0  0  0  0  0  0  0  0  0  0
    3.1854    8.9123   45.2419 N   0  0  0  0  0  0  0  0  0  0  0  0
    2.7167    8.2793   46.4710 C   0  0  0  0  0  0  0  0  0  0  0  0
    0.2128   10.8911   45.8444 C   0  0  0  0  0  0  0  0  0  0  0  0
    2.8323   10.8456   44.0696 O   0  0  0  0  0  0  0  0  0  0  0  0
   -2.5597   11.8719   45.7623 N   0  0  0  0  0  0  0  0  0  0  0  0
   -4.2422   12.9565   44.6116 N   0  0  0  0  0  0  0  0  0  0  0  0
   -3.6918   12.6586   43.3083 C   0  0  2  0  0  0  0  0  0  0  0  0
   -4.7688   12.0359   42.4231 C   0  0  0  0  0  0  0  0  0  0  0  0
   -3.1171   10.6385   41.3044 O   0  0  0  0  0  0  0  0  0  0  0  0
   -4.2700   13.1239   46.9019 N   0  0  0  0  0  0  0  0  0  0  0  0
   -1.8974   11.6241   49.6643 Cl  0  0  0  0  0  0  0  0  0  0  0  0
    5.3804   10.4675   45.8156 O   0  0  0  0  0  0  0  0  0  0  0  0
    6.5752    9.5984   44.1121 N   0  0  0  0  0  0  0  0  0  0  0  0
    7.7738   10.4151   44.2783 C   0  0  1  0  0  0  0  0  0  0  0  0
    7.9505   12.8375   44.3133 O   0  0  0  0  0  0  0  0  0  0  0  0
    9.0189    9.6829   43.8158 C   0  0  0  0  0  0  0  0  0  0  0  0
    9.3054    8.3874   44.2055 C   0  0  0  0  0  0  0  0  0  0  0  0
    9.8353   10.3922   43.0375 N   0  0  0  0  0  0  0  0  0  0  0  0
   11.7482   10.6022   41.7895 N   0  0  0  0  0  0  0  0  0  0  0  0
   13.9453   11.0194   40.7797 C   0  0  0  0  0  0  0  0  0  0  0  0
   13.4486   12.3368   40.2883 N   0  0  1  0  0  0  0  0  0  0  0  0
   12.4531   12.8938   41.2530 C   0  0  0  0  0  0  0  0  0  0  0  0
   11.2904   11.9335   41.3838 C   0  0  0  0  0  0  0  0  0  0  0  0
    4.9487    7.0972   46.1129 H   0  0  0  0  0  0  0  0  0  0  0  0
    4.2244    6.4291   44.6110 H   0  0  0  0  0  0  0  0  0  0  0  0
    5.9289    6.9961   44.6110 H   0  0  0  0  0  0  0  0  0  0  0  0
    4.3036    8.5686   43.5281 H   0  0  0  0  0  0  0  0  0  0  0  0
    0.5801    8.0218   48.4219 H   0  0  0  0  0  0  0  0  0  0  0  0
   -1.4069    9.4844   48.4879 H   0  0  0  0  0  0  0  0  0  0  0  0
   -4.9879   11.0700   40.5216 H   0  0  0  0  0  0  0  0  0  0  0  0
   -3.8051   12.4386   40.5592 H   0  0  0  0  0  0  0  0  0  0  0  0
   -1.7209   12.1670   41.4441 H   0  0  0  0  0  0  0  0  0  0  0  0
   -1.2217   10.5647   42.1247 H   0  0  0  0  0  0  0  0  0  0  0  0
   -2.7570   10.8389   43.9924 H   0  0  0  0  0  0  0  0  0  0  0  0
   -1.6549   12.2629   43.8814 H   0  0  0  0  0  0  0  0  0  0  0  0
   -4.1841   13.1239   48.9960 H   0  0  0  0  0  0  0  0  0  0  0  0
    8.2878   11.7007   42.6223 H   0  0  0  0  0  0  0  0  0  0  0  0
    6.5723   11.8176   43.1701 H   0  0  0  0  0  0  0  0  0  0  0  0
   10.7136    6.7598   44.0584 H   0  0  0  0  0  0  0  0  0  0  0  0
   12.2401    8.0460   42.5864 H   0  0  0  0  0  0  0  0  0  0  0  0
   13.1577    9.1064   41.3439 H   0  0  0  0  0  0  0  0  0  0  0  0
   12.3572    9.8737   39.9189 H   0  0  0  0  0  0  0  0  0  0  0  0
   14.9687   13.6311   41.0162 H   0  0  0  0  0  0  0  0  0  0  0  0
   15.3620   12.7864   39.4805 H   0  0  0  0  0  0  0  0  0  0  0  0
   14.1975   14.1541   39.4805 H   0  0  0  0  0  0  0  0  0  0  0  0
    3.4410    8.4073   47.2889 H   0  0  0  0  0  0  0  0  0  0  0  0
    2.5779    7.1913   46.3872 H   0  0  0  0  0  0  0  0  0  0  0  0
    0.1254   11.7135   45.1191 H   0  0  0  0  0  0  0  0  0  0  0  0
   -5.1409   13.4591   44.6393 H   0  0  0  0  0  0  0  0  0  0  0  0
   -3.3468   13.6040   42.8643 H   0  0  0  0  0  0  0  0  0  0  0  0
   -5.5488   12.7863   42.2269 H   0  0  0  0  0  0  0  0  0  0  0  0
   -5.1878   11.1651   42.9486 H   0  0  0  0  0  0  0  0  0  0  0  0
    6.5485    8.9433   43.3177 H   0  0  0  0  0  0  0  0  0  0  0  0
    7.8907   10.6328   45.3502 H   0  0  0  0  0  0  0  0  0  0  0  0
    7.8746   12.5821   45.2668 H   0  0  0  0  0  0  0  0  0  0  0  0
    8.6136    7.8386   44.8614 H   0  0  0  0  0  0  0  0  0  0  0  0
   14.4255   11.1535   41.7602 H   0  0  0  0  0  0  0  0  0  0  0  0
   14.6735   10.6161   40.0607 H   0  0  0  0  0  0  0  0  0  0  0  0
   12.9832   12.1928   39.3808 H   0  0  0  0  0  0  0  0  0  0  0  0
   12.9297   13.0294   42.2351 H   0  0  0  0  0  0  0  0  0  0  0  0
   12.0891   13.8649   40.8866 H   0  0  0  0  0  0  0  0  0  0  0  0
   10.7771   11.8567   40.4139 H   0  0  0  0  0  0  0  0  0  0  0  0
   10.6056   12.3172   42.1544 H   0  0  0  0  0  0  0  0  0  0  0  0
  2  1  1  0
  2 16  1  0
  2 23  1  0
  3  4  2  0
  3  7  1  0
  3 24  1  0
  4  5  1  0
  5  6  2  0
  6  9  1  0
  6 25  1  0
  7  8  1  0
  7 25  2  0
  8 23  1  0
  8 26  2  0
  9 15  1  0
  9 27  2  0
 10 27  1  0
 10 28  1  0
 10 32  2  0
 11 30  1  0
 11 31  1  0
 12 13  1  0
 12 31  1  0
 13 29  1  0
 14 15  2  0
 14 32  1  0
 15 33  1  0
 16 34  2  0
 16 35  1  0
 36 17  1  0
 17 37  1  0
 18 19  2  0
 18 39  1  0
 19 20  1  0
 20 40  2  0
 20 41  1  0
 21 41  1  0
 21 42  1  0
 43 22  1  0
 23 24  1  0
 29 28  1  0
 29 30  1  0
 35 36  1  0
 36 38  1  0
 38 39  2  0
 38 40  1  0
 41 45  1  0
 42 43  1  0
 43 44  1  0
 44 45  1  0
  1 46  1  0
  1 47  1  0
  1 48  1  0
  2 49  1  6
  4 50  1  0
  5 51  1  0
 11 52  1  0
 11 53  1  0
 12 54  1  0
 12 55  1  0
 13 56  1  0
 13 57  1  0
 14 58  1  0
 17 59  1  0
 17 60  1  0
 18 61  1  0
 19 62  1  0
 21 63  1  0
 21 64  1  0
 22 65  1  0
 22 66  1  0
 22 67  1  0
 24 68  1  0
 24 69  1  0
 25 70  1  0
 28 71  1  0
 29 72  1  6
 30 73  1  0
 30 74  1  0
 35 75  1  0
 36 76  1  1
 37 77  1  0
 39 78  1  0
 42 79  1  0
 42 80  1  0
 43 81  1  6
 44 82  1  0
 44 83  1  0
 45 84  1  0
 45 85  1  0
M  CHG  1  43   1
M  END
>  <filename_input>  (23) 
7NR8_UOE_docked.sdf

>  <pdb_id>  (23) 
7NR8_UOE

>  <pose_rank>  (23) 
22

>  <num_atoms_heavy>  (23) 
45

>  <num_torsions>  (23) 
7

>  <pose>  (23) 
[1.4506224484217927, 9.034148287638866, 46.740074616382586, 0.9080037328582264, 0.6687870771053918, 2.7701455428481245, -1.6884715114562965, 3.6119908408445944, -0.28676739208027746, 0.22019431284312624, 0.6082868245331288, 1.9022353569005694, 3.292146649207893]

>  <energy>  (23) 
-673.8280016934191

>  <inter_energy>  (23) 
-767.4946502995867

>  <intra_energy>  (23) 
90.09762394721974

>  <rmsd>  (23) 
12.718

>  <sdf_rank>  (23) 
0

$$$$

     RDKit          3D

 85 90  0  0  0  0  0  0  0  0999 V2000
    5.7690    9.0280   42.4124 C   0  0  0  0  0  0  0  0  0  0  0  0
    6.1844    9.5030   43.8064 C   0  0  2  0  0  0  0  0  0  0  0  0
    3.7994    9.3264   46.6394 C   0  0  0  0  0  0  0  0  0  0  0  0
    3.2236    9.0156   47.8493 C   0  0  0  0  0  0  0  0  0  0  0  0
    1.9143    9.3622   48.1022 C   0  0  0  0  0  0  0  0  0  0  0  0
    1.1502   10.0262   47.1447 C   0  0  0  0  0  0  0  0  0  0  0  0
    3.0574    9.9852   45.6750 C   0  0  0  0  0  0  0  0  0  0  0  0
    3.9207   10.1870   44.4881 C   0  0  0  0  0  0  0  0  0  0  0  0
   -0.2390   10.4356   47.4866 C   0  0  0  0  0  0  0  0  0  0  0  0
   -2.2107   11.3237   46.6974 C   0  0  0  0  0  0  0  0  0  0  0  0
   -2.5863   13.8658   42.4695 C   0  0  0  0  0  0  0  0  0  0  0  0
   -1.8706   11.6684   42.0390 C   0  0  0  0  0  0  0  0  0  0  0  0
   -2.3075   11.1679   43.4053 C   0  0  0  0  0  0  0  0  0  0  0  0
   -2.2234   10.5628   48.8413 C   0  0  0  0  0  0  0  0  0  0  0  0
   -0.8931   10.1882   48.7013 C   0  0  0  0  0  0  0  0  0  0  0  0
    7.3600    8.6971   44.3597 C   0  0  0  0  0  0  0  0  0  0  0  0
    8.3603    6.1369   45.4698 C   0  0  0  0  0  0  0  0  0  0  0  0
   12.4041    7.0664   44.4208 C   0  0  0  0  0  0  0  0  0  0  0  0
   12.5383    8.2774   43.8025 C   0  0  0  0  0  0  0  0  0  0  0  0
   11.4035    8.9117   43.2768 C   0  0  0  0  0  0  0  0  0  0  0  0
   12.6767   10.6942   42.1028 C   0  0  0  0  0  0  0  0  0  0  0  0
   11.4411   14.2297   41.4907 C   0  0  0  0  0  0  0  0  0  0  0  0
    5.0587    9.4925   44.7275 N   0  0  0  0  0  0  0  0  0  0  0  0
    5.1710    9.0373   46.1100 C   0  0  0  0  0  0  0  0  0  0  0  0
    1.7475   10.3510   45.9165 C   0  0  0  0  0  0  0  0  0  0  0  0
    3.6990   10.8402   43.4739 O   0  0  0  0  0  0  0  0  0  0  0  0
   -0.9151   10.9787   46.4821 N   0  0  0  0  0  0  0  0  0  0  0  0
   -2.8730   11.9088   45.6866 N   0  0  0  0  0  0  0  0  0  0  0  0
   -2.2970   12.3091   44.4223 C   0  0  2  0  0  0  0  0  0  0  0  0
   -3.0563   13.5117   43.8667 C   0  0  0  0  0  0  0  0  0  0  0  0
   -2.7067   12.7449   41.5816 O   0  0  0  0  0  0  0  0  0  0  0  0
   -2.8830   11.1554   47.8561 N   0  0  0  0  0  0  0  0  0  0  0  0
   -0.0982    9.4257   50.0383 Cl  0  0  0  0  0  0  0  0  0  0  0  0
    7.9721    9.0387   45.3707 O   0  0  0  0  0  0  0  0  0  0  0  0
    7.6651    7.6137   43.6503 N   0  0  0  0  0  0  0  0  0  0  0  0
    8.6538    6.6150   44.0458 C   0  0  1  0  0  0  0  0  0  0  0  0
    8.0516    4.7474   45.4775 O   0  0  0  0  0  0  0  0  0  0  0  0
   10.0657    7.1634   43.9683 C   0  0  0  0  0  0  0  0  0  0  0  0
   11.1507    6.4981   44.5093 C   0  0  0  0  0  0  0  0  0  0  0  0
   10.1790    8.3509   43.3747 N   0  0  0  0  0  0  0  0  0  0  0  0
   11.4373   10.1233   42.6423 N   0  0  0  0  0  0  0  0  0  0  0  0
   12.6557   12.2060   42.1970 C   0  0  0  0  0  0  0  0  0  0  0  0
   11.4495   12.7416   41.5031 N   0  0  1  0  0  0  0  0  0  0  0  0
   10.2144   12.1943   42.1409 C   0  0  0  0  0  0  0  0  0  0  0  0
   10.2251   10.6840   42.0398 C   0  0  0  0  0  0  0  0  0  0  0  0
    5.0475    8.2031   42.5060 H   0  0  0  0  0  0  0  0  0  0  0  0
    5.3044    9.8611   41.8645 H   0  0  0  0  0  0  0  0  0  0  0  0
    6.6565    8.6785   41.8645 H   0  0  0  0  0  0  0  0  0  0  0  0
    6.5251   10.5438   43.7028 H   0  0  0  0  0  0  0  0  0  0  0  0
    3.8098    8.4890   48.6168 H   0  0  0  0  0  0  0  0  0  0  0  0
    1.4656    9.1110   49.0746 H   0  0  0  0  0  0  0  0  0  0  0  0
   -3.1976   14.6955   42.0848 H   0  0  0  0  0  0  0  0  0  0  0  0
   -1.5266   14.1565   42.5216 H   0  0  0  0  0  0  0  0  0  0  0  0
   -0.8320   12.0249   42.1039 H   0  0  0  0  0  0  0  0  0  0  0  0
   -1.9546   10.8373   41.3233 H   0  0  0  0  0  0  0  0  0  0  0  0
   -3.3256   10.7578   43.3320 H   0  0  0  0  0  0  0  0  0  0  0  0
   -1.6074   10.3879   43.7389 H   0  0  0  0  0  0  0  0  0  0  0  0
   -2.7410   10.3633   49.7912 H   0  0  0  0  0  0  0  0  0  0  0  0
    9.2440    6.3146   46.1002 H   0  0  0  0  0  0  0  0  0  0  0  0
    7.4963    6.6946   45.8603 H   0  0  0  0  0  0  0  0  0  0  0  0
   13.2815    6.5531   44.8411 H   0  0  0  0  0  0  0  0  0  0  0  0
   13.5277    8.7506   43.7178 H   0  0  0  0  0  0  0  0  0  0  0  0
   13.5318   10.3085   42.6772 H   0  0  0  0  0  0  0  0  0  0  0  0
   12.7667   10.4073   41.0447 H   0  0  0  0  0  0  0  0  0  0  0  0
   11.4389   14.6050   42.5247 H   0  0  0  0  0  0  0  0  0  0  0  0
   12.3371   14.5970   40.9691 H   0  0  0  0  0  0  0  0  0  0  0  0
   10.5409   14.5869   40.9691 H   0  0  0  0  0  0  0  0  0  0  0  0
    5.9392    9.6036   46.6570 H   0  0  0  0  0  0  0  0  0  0  0  0
    5.4746    7.9847   46.2095 H   0  0  0  0  0  0  0  0  0  0  0  0
    1.1752   10.8943   45.1501 H   0  0  0  0  0  0  0  0  0  0  0  0
   -3.8780   12.0880   45.8236 H   0  0  0  0  0  0  0  0  0  0  0  0
   -1.2471   12.5834   44.6023 H   0  0  0  0  0  0  0  0  0  0  0  0
   -2.8929   14.3749   44.5287 H   0  0  0  0  0  0  0  0  0  0  0  0
   -4.1245   13.2539   43.8175 H   0  0  0  0  0  0  0  0  0  0  0  0
    7.1689    7.4694   42.7594 H   0  0  0  0  0  0  0  0  0  0  0  0
    8.5825    5.7702   43.3449 H   0  0  0  0  0  0  0  0  0  0  0  0
    7.9811    4.4302   46.4127 H   0  0  0  0  0  0  0  0  0  0  0  0
   11.0153    5.5255   45.0051 H   0  0  0  0  0  0  0  0  0  0  0  0
   12.6305   12.5051   43.2553 H   0  0  0  0  0  0  0  0  0  0  0  0
   13.5590   12.6111   41.7174 H   0  0  0  0  0  0  0  0  0  0  0  0
   11.4755   12.4363   40.5197 H   0  0  0  0  0  0  0  0  0  0  0  0
   10.1853   12.4913   43.1997 H   0  0  0  0  0  0  0  0  0  0  0  0
    9.3272   12.5914   41.6259 H   0  0  0  0  0  0  0  0  0  0  0  0
   10.1842   10.3948   40.9793 H   0  0  0  0  0  0  0  0  0  0  0  0
    9.3520   10.2915   42.5818 H   0  0  0  0  0  0  0  0  0  0  0  0
  2  1  1  0
  2 16  1  0
  2 23  1  0
  3  4  2  0
  3  7  1  0
  3 24  1  0
  4  5  1  0
  5  6  2  0
  6  9  1  0
  6 25  1  0
  7  8  1  0
  7 25  2  0
  8 23  1  0
  8 26  2  0
  9 15  1  0
  9 27  2  0
 10 27  1  0
 10 28  1  0
 10 32  2  0
 11 30  1  0
 11 31  1  0
 12 13  1  0
 12 31  1  0
 13 29  1  0
 14 15  2  0
 14 32  1  0
 15 33  1  0
 16 34  2  0
 16 35  1  0
 36 17  1  0
 17 37  1  0
 18 19  2  0
 18 39  1  0
 19 20  1  0
 20 40  2  0
 20 41  1  0
 21 41  1  0
 21 42  1  0
 43 22  1  0
 23 24  1  0
 29 28  1  0
 29 30  1  0
 35 36  1  0
 36 38  1  0
 38 39  2  0
 38 40  1  0
 41 45  1  0
 42 43  1  0
 43 44  1  0
 44 45  1  0
  1 46  1  0
  1 47  1  0
  1 48  1  0
  2 49  1  6
  4 50  1  0
  5 51  1  0
 11 52  1  0
 11 53  1  0
 12 54  1  0
 12 55  1  0
 13 56  1  0
 13 57  1  0
 14 58  1  0
 17 59  1  0
 17 60  1  0
 18 61  1  0
 19 62  1  0
 21 63  1  0
 21 64  1  0
 22 65  1  0
 22 66  1  0
 22 67  1  0
 24 68  1  0
 24 69  1  0
 25 70  1  0
 28 71  1  0
 29 72  1  1
 30 73  1  0
 30 74  1  0
 35 75  1  0
 36 76  1  6
 37 77  1  0
 39 78  1  0
 42 79  1  0
 42 80  1  0
 43 81  1  6
 44 82  1  0
 44 83  1  0
 45 84  1  0
 45 85  1  0
M  CHG  1  43   1
M  END
>  <filename_input>  (24) 
7NR8_UOE_docked.sdf

>  <pdb_id>  (24) 
7NR8_UOE

>  <pose_rank>  (24) 
23

>  <num_atoms_heavy>  (24) 
45

>  <num_torsions>  (24) 
7

>  <pose>  (24) 
[3.7993852414728524, 9.326365225670877, 46.639415281145595, 1.2310791231994722, 1.2586399196933067, 2.8693885002899853, -14.919914125168381, -1.3099809126076163, -10.842667013303188, 11.36089650966826, 3.1008622769036918, -0.5954618627874428, 3.0543946537815994]

>  <energy>  (24) 
-728.4368820794527

>  <inter_energy>  (24) 
-790.5137320751682

>  <intra_energy>  (24) 
95.45107379543305

>  <rmsd>  (24) 
11.8985

>  <sdf_rank>  (24) 
0

$$$$

     RDKit          3D

 85 90  0  0  0  0  0  0  0  0999 V2000
    6.4083    4.6185   45.2690 C   0  0  0  0  0  0  0  0  0  0  0  0
    6.0085    6.0447   45.6532 C   0  0  2  0  0  0  0  0  0  0  0  0
    8.6628    8.5794   45.1284 C   0  0  0  0  0  0  0  0  0  0  0  0
    9.5494    9.6100   45.3375 C   0  0  0  0  0  0  0  0  0  0  0  0
   10.2675   10.1301   44.2830 C   0  0  0  0  0  0  0  0  0  0  0  0
   10.1099    9.6304   42.9919 C   0  0  0  0  0  0  0  0  0  0  0  0
    8.4915    8.0692   43.8536 C   0  0  0  0  0  0  0  0  0  0  0  0
    7.4880    6.9816   43.9240 C   0  0  0  0  0  0  0  0  0  0  0  0
   10.9530   10.1815   41.8965 C   0  0  0  0  0  0  0  0  0  0  0  0
   13.0925   10.6755   41.2055 C   0  0  0  0  0  0  0  0  0  0  0  0
   16.5876   11.4978   44.5009 C   0  0  0  0  0  0  0  0  0  0  0  0
   16.5292    9.1664   44.2052 C   0  0  0  0  0  0  0  0  0  0  0  0
   15.7910    9.2674   42.8812 C   0  0  0  0  0  0  0  0  0  0  0  0
   11.4390   10.9411   39.6658 C   0  0  0  0  0  0  0  0  0  0  0  0
   10.5125   10.5118   40.6075 C   0  0  0  0  0  0  0  0  0  0  0  0
    4.6010    6.3953   45.1695 C   0  0  0  0  0  0  0  0  0  0  0  0
    2.6593    9.2762   44.9883 C   0  0  0  0  0  0  0  0  0  0  0  0
    1.3469    6.9832   49.0488 C   0  0  0  0  0  0  0  0  0  0  0  0
    0.4265    7.9828   49.1916 C   0  0  0  0  0  0  0  0  0  0  0  0
    0.2653    8.9226   48.1633 C   0  0  0  0  0  0  0  0  0  0  0  0
   -1.2218   10.4228   49.4727 C   0  0  0  0  0  0  0  0  0  0  0  0
   -3.9845   12.5819   48.0215 C   0  0  0  0  0  0  0  0  0  0  0  0
    6.9844    7.0144   45.1810 N   0  0  0  0  0  0  0  0  0  0  0  0
    7.7509    7.8695   46.0822 C   0  0  0  0  0  0  0  0  0  0  0  0
    9.2123    8.5706   42.7873 C   0  0  0  0  0  0  0  0  0  0  0  0
    7.1485    6.1866   43.0539 O   0  0  0  0  0  0  0  0  0  0  0  0
   12.2488   10.2405   42.1765 N   0  0  0  0  0  0  0  0  0  0  0  0
   14.3962   10.7690   41.5128 N   0  0  0  0  0  0  0  0  0  0  0  0
   14.9702   10.5556   42.8225 C   0  0  2  0  0  0  0  0  0  0  0  0
   15.8422   11.7493   43.2048 C   0  0  0  0  0  0  0  0  0  0  0  0
   17.3808   10.3045   44.4204 O   0  0  0  0  0  0  0  0  0  0  0  0
   12.7262   11.0525   39.9620 N   0  0  0  0  0  0  0  0  0  0  0  0
    8.8468   10.4003   40.1453 Cl  0  0  0  0  0  0  0  0  0  0  0  0
    4.0410    5.7694   44.2705 O   0  0  0  0  0  0  0  0  0  0  0  0
    4.0492    7.4333   45.7923 N   0  0  0  0  0  0  0  0  0  0  0  0
    2.6706    7.8755   45.6049 C   0  0  1  0  0  0  0  0  0  0  0  0
    3.6738   10.0875   45.5705 O   0  0  0  0  0  0  0  0  0  0  0  0
    1.9022    7.8831   46.9124 C   0  0  0  0  0  0  0  0  0  0  0  0
    2.0968    6.9273   47.8927 C   0  0  0  0  0  0  0  0  0  0  0  0
    0.9990    8.8554   47.0316 N   0  0  0  0  0  0  0  0  0  0  0  0
   -0.6291    9.9565   48.2139 N   0  0  0  0  0  0  0  0  0  0  0  0
   -2.6324   10.9265   49.2466 C   0  0  0  0  0  0  0  0  0  0  0  0
   -2.6300   11.9936   48.2051 N   0  0  1  0  0  0  0  0  0  0  0  0
   -2.0940   11.4470   46.9222 C   0  0  0  0  0  0  0  0  0  0  0  0
   -0.6803   10.9521   47.1401 C   0  0  0  0  0  0  0  0  0  0  0  0
    6.5744    4.0261   46.1809 H   0  0  0  0  0  0  0  0  0  0  0  0
    5.6041    4.1597   44.6751 H   0  0  0  0  0  0  0  0  0  0  0  0
    7.3338    4.6445   44.6751 H   0  0  0  0  0  0  0  0  0  0  0  0
    5.9940    6.0892   46.7522 H   0  0  0  0  0  0  0  0  0  0  0  0
    9.6854   10.0199   46.3492 H   0  0  0  0  0  0  0  0  0  0  0  0
   10.9759   10.9522   44.4631 H   0  0  0  0  0  0  0  0  0  0  0  0
   17.2471   12.3536   44.7074 H   0  0  0  0  0  0  0  0  0  0  0  0
   15.8507   11.3723   45.3078 H   0  0  0  0  0  0  0  0  0  0  0  0
   15.7938    9.1105   45.0214 H   0  0  0  0  0  0  0  0  0  0  0  0
   17.1575    8.2638   44.1828 H   0  0  0  0  0  0  0  0  0  0  0  0
   16.5213    9.2658   42.0586 H   0  0  0  0  0  0  0  0  0  0  0  0
   15.1111    8.4079   42.7866 H   0  0  0  0  0  0  0  0  0  0  0  0
   11.0969   11.1941   38.6514 H   0  0  0  0  0  0  0  0  0  0  0  0
    2.8372    9.1963   43.9057 H   0  0  0  0  0  0  0  0  0  0  0  0
    1.6805    9.7403   45.1796 H   0  0  0  0  0  0  0  0  0  0  0  0
    1.4876    6.2353   49.8430 H   0  0  0  0  0  0  0  0  0  0  0  0
   -0.1827    8.0499   50.1050 H   0  0  0  0  0  0  0  0  0  0  0  0
   -1.2466    9.5896   50.1904 H   0  0  0  0  0  0  0  0  0  0  0  0
   -0.6106   11.2482   49.8667 H   0  0  0  0  0  0  0  0  0  0  0  0
   -4.4357   12.7778   49.0054 H   0  0  0  0  0  0  0  0  0  0  0  0
   -3.9018   13.5252   47.4616 H   0  0  0  0  0  0  0  0  0  0  0  0
   -4.6174   11.8775   47.4616 H   0  0  0  0  0  0  0  0  0  0  0  0
    8.3194    7.2746   46.8122 H   0  0  0  0  0  0  0  0  0  0  0  0
    7.1312    8.5437   46.6917 H   0  0  0  0  0  0  0  0  0  0  0  0
    9.0836    8.1415   41.7826 H   0  0  0  0  0  0  0  0  0  0  0  0
   15.0432   11.0139   40.7497 H   0  0  0  0  0  0  0  0  0  0  0  0
   14.1429   10.4548   43.5405 H   0  0  0  0  0  0  0  0  0  0  0  0
   15.2021   12.6356   43.3264 H   0  0  0  0  0  0  0  0  0  0  0  0
   16.5813   11.9079   42.4057 H   0  0  0  0  0  0  0  0  0  0  0  0
    4.6360    7.9623   46.4532 H   0  0  0  0  0  0  0  0  0  0  0  0
    2.1748    7.1643   44.9278 H   0  0  0  0  0  0  0  0  0  0  0  0
    3.6108   10.0371   46.5573 H   0  0  0  0  0  0  0  0  0  0  0  0
    2.8420    6.1305   47.7518 H   0  0  0  0  0  0  0  0  0  0  0  0
   -3.2682   10.0930   48.9133 H   0  0  0  0  0  0  0  0  0  0  0  0
   -3.0242   11.3400   50.1876 H   0  0  0  0  0  0  0  0  0  0  0  0
   -2.0148   12.7570   48.5207 H   0  0  0  0  0  0  0  0  0  0  0  0
   -2.7273   10.6131   46.5853 H   0  0  0  0  0  0  0  0  0  0  0  0
   -2.0935   12.2373   46.1571 H   0  0  0  0  0  0  0  0  0  0  0  0
   -0.0389   11.8042   47.4095 H   0  0  0  0  0  0  0  0  0  0  0  0
   -0.3279   10.4814   46.2104 H   0  0  0  0  0  0  0  0  0  0  0  0
  2  1  1  0
  2 16  1  0
  2 23  1  0
  3  4  2  0
  3  7  1  0
  3 24  1  0
  4  5  1  0
  5  6  2  0
  6  9  1  0
  6 25  1  0
  7  8  1  0
  7 25  2  0
  8 23  1  0
  8 26  2  0
  9 15  1  0
  9 27  2  0
 10 27  1  0
 10 28  1  0
 10 32  2  0
 11 30  1  0
 11 31  1  0
 12 13  1  0
 12 31  1  0
 13 29  1  0
 14 15  2  0
 14 32  1  0
 15 33  1  0
 16 34  2  0
 16 35  1  0
 36 17  1  0
 17 37  1  0
 18 19  2  0
 18 39  1  0
 19 20  1  0
 20 40  2  0
 20 41  1  0
 21 41  1  0
 21 42  1  0
 43 22  1  0
 23 24  1  0
 29 28  1  0
 29 30  1  0
 35 36  1  0
 36 38  1  0
 38 39  2  0
 38 40  1  0
 41 45  1  0
 42 43  1  0
 43 44  1  0
 44 45  1  0
  1 46  1  0
  1 47  1  0
  1 48  1  0
  2 49  1  1
  4 50  1  0
  5 51  1  0
 11 52  1  0
 11 53  1  0
 12 54  1  0
 12 55  1  0
 13 56  1  0
 13 57  1  0
 14 58  1  0
 17 59  1  0
 17 60  1  0
 18 61  1  0
 19 62  1  0
 21 63  1  0
 21 64  1  0
 22 65  1  0
 22 66  1  0
 22 67  1  0
 24 68  1  0
 24 69  1  0
 25 70  1  0
 28 71  1  0
 29 72  1  1
 30 73  1  0
 30 74  1  0
 35 75  1  0
 36 76  1  6
 37 77  1  0
 39 78  1  0
 42 79  1  0
 42 80  1  0
 43 81  1  1
 44 82  1  0
 44 83  1  0
 45 84  1  0
 45 85  1  0
M  CHG  1  43   1
M  END
>  <filename_input>  (25) 
7NR8_UOE_docked.sdf

>  <pdb_id>  (25) 
7NR8_UOE

>  <pose_rank>  (25) 
24

>  <num_atoms_heavy>  (25) 
45

>  <num_torsions>  (25) 
7

>  <pose>  (25) 
[8.662779716719404, 8.5794155942772, 45.128370485504554, 0.946689446137066, 0.5867732297729027, 0.45079577311508867, 1.5656919604071786, -0.9154238849032246, -2.757607023887254, -4.498956087438235, -6.113023564755707, 2.1130710419699805, 0.3012370479755853]

>  <energy>  (25) 
-726.8371438226682

>  <inter_energy>  (25) 
-728.5978916912412

>  <intra_energy>  (25) 
28.976202651724762

>  <rmsd>  (25) 
4.373

>  <sdf_rank>  (25) 
0

$$$$

     RDKit          3D

 85 90  0  0  0  0  0  0  0  0999 V2000
    1.8820   10.4180   45.1120 C   0  0  0  0  0  0  0  0  0  0  0  0
    2.4830    9.0550   45.4620 C   0  0  2  0  0  0  0  0  0  0  0  0
    6.1440    9.6330   45.3700 C   0  0  0  0  0  0  0  0  0  0  0  0
    7.3740   10.2480   45.3990 C   0  0  0  0  0  0  0  0  0  0  0  0
    8.5090    9.5420   45.0650 C   0  0  0  0  0  0  0  0  0  0  0  0
    8.4360    8.2020   44.6900 C   0  0  0  0  0  0  0  0  0  0  0  0
    6.0500    8.3030   45.0000 C   0  0  0  0  0  0  0  0  0  0  0  0
    4.6230    7.9090   45.0570 C   0  0  0  0  0  0  0  0  0  0  0  0
    9.6950    7.4640   44.3990 C   0  0  0  0  0  0  0  0  0  0  0  0
   11.7950    7.5770   43.4630 C   0  0  0  0  0  0  0  0  0  0  0  0
   11.4300   10.6370   40.0700 C   0  0  0  0  0  0  0  0  0  0  0  0
   13.4450   11.5080   40.9110 C   0  0  0  0  0  0  0  0  0  0  0  0
   13.7350   10.2670   41.7380 C   0  0  0  0  0  0  0  0  0  0  0  0
   11.2820    5.6650   44.5840 C   0  0  0  0  0  0  0  0  0  0  0  0
   10.0300    6.1900   44.8780 C   0  0  0  0  0  0  0  0  0  0  0  0
    2.1020    8.6060   46.8730 C   0  0  0  0  0  0  0  0  0  0  0  0
   -0.7450    7.0120   48.2580 C   0  0  0  0  0  0  0  0  0  0  0  0
   -1.6240   10.6930   50.6310 C   0  0  0  0  0  0  0  0  0  0  0  0
   -2.0580   11.5750   49.6820 C   0  0  0  0  0  0  0  0  0  0  0  0
   -1.7480   11.3440   48.3340 C   0  0  0  0  0  0  0  0  0  0  0  0
   -2.5690   13.5520   47.5420 C   0  0  0  0  0  0  0  0  0  0  0  0
   -4.0920   14.2300   44.1330 C   0  0  0  0  0  0  0  0  0  0  0  0
    3.9260    9.0490   45.2790 N   0  0  0  0  0  0  0  0  0  0  0  0
    4.7760   10.1760   45.6510 C   0  0  0  0  0  0  0  0  0  0  0  0
    7.1790    7.5770   44.6740 C   0  0  0  0  0  0  0  0  0  0  0  0
    4.1240    6.7950   44.9370 O   0  0  0  0  0  0  0  0  0  0  0  0
   10.5950    8.1600   43.7160 N   0  0  0  0  0  0  0  0  0  0  0  0
   12.6830    8.2750   42.7370 N   0  0  0  0  0  0  0  0  0  0  0  0
   12.4350    9.5500   42.1020 C   0  0  2  0  0  0  0  0  0  0  0  0
   11.5820    9.3470   40.8520 C   0  0  0  0  0  0  0  0  0  0  0  0
   12.7090   11.1850   39.7190 O   0  0  0  0  0  0  0  0  0  0  0  0
   12.1610    6.3380   43.8550 N   0  0  0  0  0  0  0  0  0  0  0  0
    8.9340    5.2450   45.8300 Cl  0  0  0  0  0  0  0  0  0  0  0  0
    2.9460    8.3510   47.7310 O   0  0  0  0  0  0  0  0  0  0  0  0
    0.7920    8.5050   47.0820 N   0  0  0  0  0  0  0  0  0  0  0  0
    0.1780    8.2270   48.3770 C   0  0  1  0  0  0  0  0  0  0  0  0
   -1.7420    7.2360   47.2670 O   0  0  0  0  0  0  0  0  0  0  0  0
   -0.6050    9.4190   48.8930 C   0  0  0  0  0  0  0  0  0  0  0  0
   -0.8880    9.5960   50.2350 C   0  0  0  0  0  0  0  0  0  0  0  0
   -1.0330   10.2630   47.9550 N   0  0  0  0  0  0  0  0  0  0  0  0
   -2.1380   12.1680   47.3140 N   0  0  0  0  0  0  0  0  0  0  0  0
   -3.6280   13.9560   46.5370 C   0  0  0  0  0  0  0  0  0  0  0  0
   -3.1160   13.7550   45.1510 N   0  0  1  0  0  0  0  0  0  0  0  0
   -2.7680   12.3170   44.9440 C   0  0  0  0  0  0  0  0  0  0  0  0
   -1.7020   11.9110   45.9390 C   0  0  0  0  0  0  0  0  0  0  0  0
    1.6423   10.9616   46.0377 H   0  0  0  0  0  0  0  0  0  0  0  0
    2.6076   10.9984   44.5233 H   0  0  0  0  0  0  0  0  0  0  0  0
    0.9640   10.2737   44.5233 H   0  0  0  0  0  0  0  0  0  0  0  0
    2.0517    8.3245   44.7618 H   0  0  0  0  0  0  0  0  0  0  0  0
    7.4517   11.3061   45.6896 H   0  0  0  0  0  0  0  0  0  0  0  0
    9.4875   10.0437   45.0948 H   0  0  0  0  0  0  0  0  0  0  0  0
   10.8619   10.4341   39.1501 H   0  0  0  0  0  0  0  0  0  0  0  0
   10.8999   11.3661   40.7005 H   0  0  0  0  0  0  0  0  0  0  0  0
   12.8545   12.2114   41.5164 H   0  0  0  0  0  0  0  0  0  0  0  0
   14.4040   11.9575   40.6140 H   0  0  0  0  0  0  0  0  0  0  0  0
   14.3735    9.5857   41.1566 H   0  0  0  0  0  0  0  0  0  0  0  0
   14.2463   10.5683   42.6642 H   0  0  0  0  0  0  0  0  0  0  0  0
   11.5500    4.6684   44.9647 H   0  0  0  0  0  0  0  0  0  0  0  0
   -0.1487    6.1309   47.9784 H   0  0  0  0  0  0  0  0  0  0  0  0
   -1.2387    6.8452   49.2267 H   0  0  0  0  0  0  0  0  0  0  0  0
   -1.8578   10.8553   51.6935 H   0  0  0  0  0  0  0  0  0  0  0  0
   -2.6454   12.4584   49.9728 H   0  0  0  0  0  0  0  0  0  0  0  0
   -2.9832   13.6385   48.5574 H   0  0  0  0  0  0  0  0  0  0  0  0
   -1.7000   14.2164   47.4262 H   0  0  0  0  0  0  0  0  0  0  0  0
   -4.9704   14.6575   44.6386 H   0  0  0  0  0  0  0  0  0  0  0  0
   -3.6205   14.9994   43.5040 H   0  0  0  0  0  0  0  0  0  0  0  0
   -4.4066   13.3842   43.5040 H   0  0  0  0  0  0  0  0  0  0  0  0
    4.6576   10.4334   46.7139 H   0  0  0  0  0  0  0  0  0  0  0  0
    4.5456   11.1057   45.1101 H   0  0  0  0  0  0  0  0  0  0  0  0
    7.0936    6.5143   44.4032 H   0  0  0  0  0  0  0  0  0  0  0  0
   13.6218    7.8670   42.6226 H   0  0  0  0  0  0  0  0  0  0  0  0
   11.8960   10.1849   42.8205 H   0  0  0  0  0  0  0  0  0  0  0  0
   10.5855    8.9913   41.1527 H   0  0  0  0  0  0  0  0  0  0  0  0
   12.0822    8.6088   40.2079 H   0  0  0  0  0  0  0  0  0  0  0  0
    0.1670    8.6319   46.2732 H   0  0  0  0  0  0  0  0  0  0  0  0
    0.9830    8.0168   49.0965 H   0  0  0  0  0  0  0  0  0  0  0  0
   -2.6071    7.4304   47.7073 H   0  0  0  0  0  0  0  0  0  0  0  0
   -0.5297    8.8693   50.9790 H   0  0  0  0  0  0  0  0  0  0  0  0
   -4.5268   13.3397   46.6867 H   0  0  0  0  0  0  0  0  0  0  0  0
   -3.8768   15.0178   46.6805 H   0  0  0  0  0  0  0  0  0  0  0  0
   -2.2636   14.3208   45.0322 H   0  0  0  0  0  0  0  0  0  0  0  0
   -3.6644   11.6971   45.0928 H   0  0  0  0  0  0  0  0  0  0  0  0
   -2.3904   12.1733   43.9209 H   0  0  0  0  0  0  0  0  0  0  0  0
   -0.7862   12.4866   45.7391 H   0  0  0  0  0  0  0  0  0  0  0  0
   -1.5133   10.8330   45.8282 H   0  0  0  0  0  0  0  0  0  0  0  0
  2  1  1  0
  2 16  1  0
  2 23  1  0
  3  4  2  0
  3  7  1  0
  3 24  1  0
  4  5  1  0
  5  6  2  0
  6  9  1  0
  6 25  1  0
  7  8  1  0
  7 25  2  0
  8 23  1  0
  8 26  2  0
  9 15  1  0
  9 27  2  0
 10 27  1  0
 10 28  1  0
 10 32  2  0
 11 30  1  0
 11 31  1  0
 12 13  1  0
 12 31  1  0
 13 29  1  0
 14 15  2  0
 14 32  1  0
 15 33  1  0
 16 34  2  0
 16 35  1  0
 36 17  1  0
 17 37  1  0
 18 19  2  0
 18 39  1  0
 19 20  1  0
 20 40  2  0
 20 41  1  0
 21 41  1  0
 21 42  1  0
 43 22  1  0
 23 24  1  0
 29 28  1  0
 29 30  1  0
 35 36  1  0
 36 38  1  0
 38 39  2  0
 38 40  1  0
 41 45  1  0
 42 43  1  0
 43 44  1  0
 44 45  1  0
  1 46  1  0
  1 47  1  0
  1 48  1  0
  2 49  1  6
  4 50  1  0
  5 51  1  0
 11 52  1  0
 11 53  1  0
 12 54  1  0
 12 55  1  0
 13 56  1  0
 13 57  1  0
 14 58  1  0
 17 59  1  0
 17 60  1  0
 18 61  1  0
 19 62  1  0
 21 63  1  0
 21 64  1  0
 22 65  1  0
 22 66  1  0
 22 67  1  0
 24 68  1  0
 24 69  1  0
 25 70  1  0
 28 71  1  0
 29 72  1  1
 30 73  1  0
 30 74  1  0
 35 75  1  0
 36 76  1  1
 37 77  1  0
 39 78  1  0
 42 79  1  0
 42 80  1  0
 43 81  1  1
 44 82  1  0
 44 83  1  0
 45 84  1  0
 45 85  1  0
M  CHG  1  43   1
M  END
>  <filename_input>  (26) 
7NR8_UOE_docked.sdf

>  <pdb_id>  (26) 
7NR8_UOE

>  <pose_rank>  (26) 
25

>  <num_atoms_heavy>  (26) 
45

>  <num_torsions>  (26) 
7

>  <pose>  (26) 
[6.144, 9.633, 45.37, 1e-06, 1e-06, 1e-06, 0.0, 0.0, 0.0, 0.0, 0.0, 0.0, 0.0]

>  <energy>  (26) 
-1588.6409269078954

>  <inter_energy>  (26) 
-1633.1689157213027

>  <intra_energy>  (26) 
28.035163525275586

>  <rmsd>  (26) 
0.0

>  <sdf_rank>  (26) 
0

$$$$
