
     RDKit          3D

 19 19  0  0  0  0  0  0  0  0999 V2000
   63.1195   42.1259   29.0117 C   0  0  0  0  0  0  0  0  0  0  0  0
   62.0562   41.7316   28.5361 O   0  0  0  0  0  0  0  0  0  0  0  0
   63.6365   41.6306   30.0273 O   0  0  0  0  0  0  0  0  0  0  0  0
   63.8059   43.2852   28.3351 C   0  0  0  0  0  0  0  0  0  0  0  0
   63.6366   43.5892   27.0388 C   0  0  0  0  0  0  0  0  0  0  0  0
   64.4185   44.4963   26.1956 C   0  0  0  0  0  0  0  0  0  0  0  0
   64.9707   45.6718   26.7248 C   0  0  0  0  0  0  0  0  0  0  0  0
   65.6454   46.5830   25.9302 C   0  0  0  0  0  0  0  0  0  0  0  0
   65.8083   46.3310   24.5723 C   0  0  0  0  0  0  0  0  0  0  0  0
   65.2957   45.1645   24.0276 C   0  0  0  0  0  0  0  0  0  0  0  0
   64.5770   44.2848   24.8211 C   0  0  0  0  0  0  0  0  0  0  0  0
   66.4853   47.1987   23.7749 O   0  0  0  0  0  0  0  0  0  0  0  0
   64.4802   43.9143   28.9348 H   0  0  0  0  0  0  0  0  0  0  0  0
   62.7938   43.0876   26.5407 H   0  0  0  0  0  0  0  0  0  0  0  0
   64.8650   45.8753   27.8006 H   0  0  0  0  0  0  0  0  0  0  0  0
   66.0518   47.5046   26.3722 H   0  0  0  0  0  0  0  0  0  0  0  0
   65.4596   44.9365   22.9640 H   0  0  0  0  0  0  0  0  0  0  0  0
   64.1194   43.3976   24.3591 H   0  0  0  0  0  0  0  0  0  0  0  0
   66.5921   47.0041   22.8101 H   0  0  0  0  0  0  0  0  0  0  0  0
  1  2  2  0
  1  3  1  0
  1  4  1  0
  4  5  2  3
  5  6  1  0
  6  7  2  0
  6 11  1  0
  7  8  1  0
  8  9  2  0
  9 10  1  0
  9 12  1  0
 10 11  2  0
  4 13  1  0
  5 14  1  0
  7 15  1  0
  8 16  1  0
 10 17  1  0
 11 18  1  0
 12 19  1  0
M  CHG  1   3  -1
M  END
>  <filename_input>  (1) 
7NSW_HC4_docked.sdf

>  <pdb_id>  (1) 
7NSW_HC4

>  <pose_rank>  (1) 
0

>  <num_atoms_heavy>  (1) 
12

>  <num_torsions>  (1) 
2

>  <pose>  (1) 
[64.41852623772148, 44.496339461668256, 26.195579204337747, 1.4129452116935484, 1.7642921427051501, -1.605020914168938, -3.3347558270798134, -0.5474686272666833]

>  <energy>  (1) 
-731.6339376204069

>  <inter_energy>  (1) 
-705.5145094856812

>  <intra_energy>  (1) 
0.0

>  <rmsd>  (1) 
0.388978

>  <sdf_rank>  (1) 
0

$$$$

     RDKit          3D

 19 19  0  0  0  0  0  0  0  0999 V2000
   61.8130   41.5134   27.4450 C   0  0  0  0  0  0  0  0  0  0  0  0
   62.0503   41.3698   28.6430 O   0  0  0  0  0  0  0  0  0  0  0  0
   60.8321   41.0020   26.8790 O   0  0  0  0  0  0  0  0  0  0  0  0
   62.7821   42.3304   26.6288 C   0  0  0  0  0  0  0  0  0  0  0  0
   63.2151   43.5465   26.9963 C   0  0  0  0  0  0  0  0  0  0  0  0
   63.9284   44.5493   26.2019 C   0  0  0  0  0  0  0  0  0  0  0  0
   63.7619   44.6148   24.8110 C   0  0  0  0  0  0  0  0  0  0  0  0
   64.4848   45.5009   24.0306 C   0  0  0  0  0  0  0  0  0  0  0  0
   65.3888   46.3724   24.6284 C   0  0  0  0  0  0  0  0  0  0  0  0
   65.5541   46.3477   26.0040 C   0  0  0  0  0  0  0  0  0  0  0  0
   64.8645   45.4213   26.7698 C   0  0  0  0  0  0  0  0  0  0  0  0
   66.0945   47.2668   23.8873 O   0  0  0  0  0  0  0  0  0  0  0  0
   63.1534   41.9080   25.6834 H   0  0  0  0  0  0  0  0  0  0  0  0
   63.0054   43.8292   28.0385 H   0  0  0  0  0  0  0  0  0  0  0  0
   63.0372   43.9437   24.3268 H   0  0  0  0  0  0  0  0  0  0  0  0
   64.3443   45.5157   22.9398 H   0  0  0  0  0  0  0  0  0  0  0  0
   66.2335   47.0643   26.4887 H   0  0  0  0  0  0  0  0  0  0  0  0
   65.0577   45.3698   27.8514 H   0  0  0  0  0  0  0  0  0  0  0  0
   66.7342   47.8800   24.3288 H   0  0  0  0  0  0  0  0  0  0  0  0
  1  2  2  0
  1  3  1  0
  1  4  1  0
  4  5  2  3
  5  6  1  0
  6  7  2  0
  6 11  1  0
  7  8  1  0
  8  9  2  0
  9 10  1  0
  9 12  1  0
 10 11  2  0
  4 13  1  0
  5 14  1  0
  7 15  1  0
  8 16  1  0
 10 17  1  0
 11 18  1  0
 12 19  1  0
M  CHG  1   3  -1
M  END
>  <filename_input>  (2) 
7NSW_HC4_docked.sdf

>  <pdb_id>  (2) 
7NSW_HC4

>  <pose_rank>  (2) 
1

>  <num_atoms_heavy>  (2) 
12

>  <num_torsions>  (2) 
2

>  <pose>  (2) 
[63.92835435368779, 44.54932884831175, 26.201943518806704, 6.2538423827673855, -0.38852837553607306, 0.8781499881607645, -8.516742921075755, -0.9661001196237993]

>  <energy>  (2) 
-556.6216183265619

>  <inter_energy>  (2) 
-523.0966840984845

>  <intra_energy>  (2) 
0.0

>  <rmsd>  (2) 
1.33399

>  <sdf_rank>  (2) 
0

$$$$

     RDKit          3D

 19 19  0  0  0  0  0  0  0  0999 V2000
   62.1317   42.0947   28.0872 C   0  0  0  0  0  0  0  0  0  0  0  0
   62.4640   42.0535   29.2704 O   0  0  0  0  0  0  0  0  0  0  0  0
   61.0747   41.6012   27.6590 O   0  0  0  0  0  0  0  0  0  0  0  0
   63.0746   42.7559   27.1143 C   0  0  0  0  0  0  0  0  0  0  0  0
   63.7327   43.8947   27.3818 C   0  0  0  0  0  0  0  0  0  0  0  0
   64.4561   44.7780   26.4643 C   0  0  0  0  0  0  0  0  0  0  0  0
   64.2787   44.6732   25.0771 C   0  0  0  0  0  0  0  0  0  0  0  0
   65.0099   45.4422   24.1879 C   0  0  0  0  0  0  0  0  0  0  0  0
   65.9341   46.3645   24.6667 C   0  0  0  0  0  0  0  0  0  0  0  0
   66.1109   46.5079   26.0337 C   0  0  0  0  0  0  0  0  0  0  0  0
   65.4121   45.6965   26.9131 C   0  0  0  0  0  0  0  0  0  0  0  0
   66.6486   47.1469   23.8156 O   0  0  0  0  0  0  0  0  0  0  0  0
   63.2314   42.2806   26.1348 H   0  0  0  0  0  0  0  0  0  0  0  0
   63.7280   44.2082   28.4362 H   0  0  0  0  0  0  0  0  0  0  0  0
   63.5383   43.9604   24.6848 H   0  0  0  0  0  0  0  0  0  0  0  0
   64.8601   45.3239   23.1046 H   0  0  0  0  0  0  0  0  0  0  0  0
   66.8068   47.2666   26.4210 H   0  0  0  0  0  0  0  0  0  0  0  0
   65.6139   45.7763   27.9915 H   0  0  0  0  0  0  0  0  0  0  0  0
   67.3026   47.7985   24.1732 H   0  0  0  0  0  0  0  0  0  0  0  0
  1  2  2  0
  1  3  1  0
  1  4  1  0
  4  5  2  3
  5  6  1  0
  6  7  2  0
  6 11  1  0
  7  8  1  0
  8  9  2  0
  9 10  1  0
  9 12  1  0
 10 11  2  0
  4 13  1  0
  5 14  1  0
  7 15  1  0
  8 16  1  0
 10 17  1  0
 11 18  1  0
 12 19  1  0
M  CHG  1   3  -1
M  END
>  <filename_input>  (3) 
7NSW_HC4_docked.sdf

>  <pdb_id>  (3) 
7NSW_HC4

>  <pose_rank>  (3) 
2

>  <num_atoms_heavy>  (3) 
12

>  <num_torsions>  (3) 
2

>  <pose>  (3) 
[64.45612877110447, 44.77797390518531, 26.46425188989165, 6.126443312495511, -0.37320658102799437, 0.8832605746974895, -8.74134225221891, -0.8282567552725171]

>  <energy>  (3) 
-619.5831255930811

>  <inter_energy>  (3) 
-636.1130591814191

>  <intra_energy>  (3) 
0.0

>  <rmsd>  (3) 
0.926502

>  <sdf_rank>  (3) 
0

$$$$

     RDKit          3D

 19 19  0  0  0  0  0  0  0  0999 V2000
   63.3041   41.9415   29.0095 C   0  0  0  0  0  0  0  0  0  0  0  0
   63.6473   41.6898   30.1632 O   0  0  0  0  0  0  0  0  0  0  0  0
   62.3017   41.4405   28.4726 O   0  0  0  0  0  0  0  0  0  0  0  0
   64.1652   42.8853   28.2092 C   0  0  0  0  0  0  0  0  0  0  0  0
   63.6999   44.0104   27.6444 C   0  0  0  0  0  0  0  0  0  0  0  0
   64.3343   44.8676   26.6403 C   0  0  0  0  0  0  0  0  0  0  0  0
   64.1204   44.6496   25.2716 C   0  0  0  0  0  0  0  0  0  0  0  0
   64.7709   45.3957   24.3036 C   0  0  0  0  0  0  0  0  0  0  0  0
   65.6469   46.4077   24.6812 C   0  0  0  0  0  0  0  0  0  0  0  0
   65.8570   46.6624   26.0271 C   0  0  0  0  0  0  0  0  0  0  0  0
   65.2413   45.8755   26.9872 C   0  0  0  0  0  0  0  0  0  0  0  0
   66.2811   47.1688   23.7509 O   0  0  0  0  0  0  0  0  0  0  0  0
   65.2297   42.6391   28.0817 H   0  0  0  0  0  0  0  0  0  0  0  0
   62.7043   44.3335   27.9823 H   0  0  0  0  0  0  0  0  0  0  0  0
   63.4166   43.8643   24.9585 H   0  0  0  0  0  0  0  0  0  0  0  0
   64.5951   45.1885   23.2377 H   0  0  0  0  0  0  0  0  0  0  0  0
   66.5132   47.4903   26.3336 H   0  0  0  0  0  0  0  0  0  0  0  0
   65.4714   46.0474   28.0490 H   0  0  0  0  0  0  0  0  0  0  0  0
   66.9017   47.8852   24.0369 H   0  0  0  0  0  0  0  0  0  0  0  0
  1  2  2  0
  1  3  1  0
  1  4  1  0
  4  5  2  3
  5  6  1  0
  6  7  2  0
  6 11  1  0
  7  8  1  0
  8  9  2  0
  9 10  1  0
  9 12  1  0
 10 11  2  0
  4 13  1  0
  5 14  1  0
  7 15  1  0
  8 16  1  0
 10 17  1  0
 11 18  1  0
 12 19  1  0
M  CHG  1   3  -1
M  END
>  <filename_input>  (4) 
7NSW_HC4_docked.sdf

>  <pdb_id>  (4) 
7NSW_HC4

>  <pose_rank>  (4) 
3

>  <num_atoms_heavy>  (4) 
12

>  <num_torsions>  (4) 
2

>  <pose>  (4) 
[64.33426739363397, 44.8675923700385, 26.64026271284356, -5.943929756440772, 1.3821348402121478, 2.0906505172248986, -7.417703140865192, -2.2562498780169014]

>  <energy>  (4) 
-676.0433381787658

>  <inter_energy>  (4) 
-664.9573719817382

>  <intra_energy>  (4) 
0.0

>  <rmsd>  (4) 
0.331221

>  <sdf_rank>  (4) 
0

$$$$

     RDKit          3D

 19 19  0  0  0  0  0  0  0  0999 V2000
   63.1626   42.0596   28.9433 C   0  0  0  0  0  0  0  0  0  0  0  0
   62.0442   41.8547   28.4751 O   0  0  0  0  0  0  0  0  0  0  0  0
   63.5427   41.5906   30.0294 O   0  0  0  0  0  0  0  0  0  0  0  0
   64.0998   42.9468   28.1640 C   0  0  0  0  0  0  0  0  0  0  0  0
   63.7277   44.1151   27.6180 C   0  0  0  0  0  0  0  0  0  0  0  0
   64.4330   44.9376   26.6324 C   0  0  0  0  0  0  0  0  0  0  0  0
   64.2360   44.7387   25.2583 C   0  0  0  0  0  0  0  0  0  0  0  0
   64.9501   45.4492   24.3085 C   0  0  0  0  0  0  0  0  0  0  0  0
   65.8763   46.4057   24.7103 C   0  0  0  0  0  0  0  0  0  0  0  0
   66.0722   46.6416   26.0617 C   0  0  0  0  0  0  0  0  0  0  0  0
   65.3906   45.8884   27.0041 C   0  0  0  0  0  0  0  0  0  0  0  0
   66.5742   47.1319   23.7979 O   0  0  0  0  0  0  0  0  0  0  0  0
   65.1423   42.6198   28.0362 H   0  0  0  0  0  0  0  0  0  0  0  0
   62.7587   44.5096   27.9579 H   0  0  0  0  0  0  0  0  0  0  0  0
   63.4937   43.9980   24.9260 H   0  0  0  0  0  0  0  0  0  0  0  0
   64.7852   45.2575   23.2380 H   0  0  0  0  0  0  0  0  0  0  0  0
   66.7697   47.4277   26.3867 H   0  0  0  0  0  0  0  0  0  0  0  0
   65.6076   46.0415   28.0716 H   0  0  0  0  0  0  0  0  0  0  0  0
   67.2299   47.8089   24.1010 H   0  0  0  0  0  0  0  0  0  0  0  0
  1  2  2  0
  1  3  1  0
  1  4  1  0
  4  5  2  3
  5  6  1  0
  6  7  2  0
  6 11  1  0
  7  8  1  0
  8  9  2  0
  9 10  1  0
  9 12  1  0
 10 11  2  0
  4 13  1  0
  5 14  1  0
  7 15  1  0
  8 16  1  0
 10 17  1  0
 11 18  1  0
 12 19  1  0
M  CHG  1   3  -1
M  END
>  <filename_input>  (5) 
7NSW_HC4_docked.sdf

>  <pdb_id>  (5) 
7NSW_HC4

>  <pose_rank>  (5) 
4

>  <num_atoms_heavy>  (5) 
12

>  <num_torsions>  (5) 
2

>  <pose>  (5) 
[64.43304783846773, 44.9375904398686, 26.632425975080437, 6.077440057701902, -0.7806271806779673, 0.26545706026461596, -7.446471893380565, 0.6892985266823879]

>  <energy>  (5) 
-694.4801065905687

>  <inter_energy>  (5) 
-688.6093012179903

>  <intra_energy>  (5) 
0.0

>  <rmsd>  (5) 
0.409503

>  <sdf_rank>  (5) 
0

$$$$

     RDKit          3D

 19 19  0  0  0  0  0  0  0  0999 V2000
   62.7439   41.5579   27.8445 C   0  0  0  0  0  0  0  0  0  0  0  0
   61.7768   41.1526   27.2022 O   0  0  0  0  0  0  0  0  0  0  0  0
   62.9025   41.3272   29.0552 O   0  0  0  0  0  0  0  0  0  0  0  0
   63.7668   42.3971   27.1218 C   0  0  0  0  0  0  0  0  0  0  0  0
   63.7564   43.7393   27.1252 C   0  0  0  0  0  0  0  0  0  0  0  0
   64.5035   44.6685   26.2746 C   0  0  0  0  0  0  0  0  0  0  0  0
   64.3369   44.6597   24.8822 C   0  0  0  0  0  0  0  0  0  0  0  0
   65.0896   45.4730   24.0522 C   0  0  0  0  0  0  0  0  0  0  0  0
   66.0253   46.3445   24.5989 C   0  0  0  0  0  0  0  0  0  0  0  0
   66.1922   46.3931   25.9737 C   0  0  0  0  0  0  0  0  0  0  0  0
   65.4713   45.5376   26.7914 C   0  0  0  0  0  0  0  0  0  0  0  0
   66.7612   47.1688   23.8077 O   0  0  0  0  0  0  0  0  0  0  0  0
   64.5626   41.8830   26.5630 H   0  0  0  0  0  0  0  0  0  0  0  0
   63.0951   44.2060   27.8701 H   0  0  0  0  0  0  0  0  0  0  0  0
   63.5878   43.9882   24.4373 H   0  0  0  0  0  0  0  0  0  0  0  0
   64.9476   45.4300   22.9622 H   0  0  0  0  0  0  0  0  0  0  0  0
   66.8977   47.1116   26.4165 H   0  0  0  0  0  0  0  0  0  0  0  0
   65.6646   45.5416   27.8743 H   0  0  0  0  0  0  0  0  0  0  0  0
   67.4232   47.7832   24.2132 H   0  0  0  0  0  0  0  0  0  0  0  0
  1  2  2  0
  1  3  1  0
  1  4  1  0
  4  5  2  3
  5  6  1  0
  6  7  2  0
  6 11  1  0
  7  8  1  0
  8  9  2  0
  9 10  1  0
  9 12  1  0
 10 11  2  0
  4 13  1  0
  5 14  1  0
  7 15  1  0
  8 16  1  0
 10 17  1  0
 11 18  1  0
 12 19  1  0
M  CHG  1   3  -1
M  END
>  <filename_input>  (6) 
7NSW_HC4_docked.sdf

>  <pdb_id>  (6) 
7NSW_HC4

>  <pose_rank>  (6) 
5

>  <num_atoms_heavy>  (6) 
12

>  <num_torsions>  (6) 
2

>  <pose>  (6) 
[64.50352121623784, 44.66850869770236, 26.27458005806167, -2.72525828229531, -0.47090422676121774, -5.678498530486171, -1.6681992912333858, 1.560316520027027]

>  <energy>  (6) 
-612.4893647834294

>  <inter_energy>  (6) 
-607.1973414272279

>  <intra_energy>  (6) 
0.0

>  <rmsd>  (6) 
0.878439

>  <sdf_rank>  (6) 
0

$$$$

     RDKit          3D

 19 19  0  0  0  0  0  0  0  0999 V2000
   61.6879   41.9905   27.8666 C   0  0  0  0  0  0  0  0  0  0  0  0
   60.9108   41.1475   27.4219 O   0  0  0  0  0  0  0  0  0  0  0  0
   61.9833   42.0766   29.0705 O   0  0  0  0  0  0  0  0  0  0  0  0
   62.2840   42.9789   26.8968 C   0  0  0  0  0  0  0  0  0  0  0  0
   63.6053   43.1322   26.7173 C   0  0  0  0  0  0  0  0  0  0  0  0
   64.3227   44.2068   26.0274 C   0  0  0  0  0  0  0  0  0  0  0  0
   64.1651   44.4053   24.6482 C   0  0  0  0  0  0  0  0  0  0  0  0
   64.8922   45.3624   23.9611 C   0  0  0  0  0  0  0  0  0  0  0  0
   65.7917   46.1728   24.6455 C   0  0  0  0  0  0  0  0  0  0  0  0
   65.9481   46.0162   26.0135 C   0  0  0  0  0  0  0  0  0  0  0  0
   65.2544   45.0205   26.6823 C   0  0  0  0  0  0  0  0  0  0  0  0
   66.5014   47.1343   23.9982 O   0  0  0  0  0  0  0  0  0  0  0  0
   61.6009   43.6067   26.3058 H   0  0  0  0  0  0  0  0  0  0  0  0
   64.2369   42.3413   27.1480 H   0  0  0  0  0  0  0  0  0  0  0  0
   63.4442   43.7835   24.0971 H   0  0  0  0  0  0  0  0  0  0  0  0
   64.7587   45.4817   22.8757 H   0  0  0  0  0  0  0  0  0  0  0  0
   66.6237   46.6832   26.5690 H   0  0  0  0  0  0  0  0  0  0  0  0
   65.4407   44.8656   27.7553 H   0  0  0  0  0  0  0  0  0  0  0  0
   67.1376   47.7025   24.5006 H   0  0  0  0  0  0  0  0  0  0  0  0
  1  2  2  0
  1  3  1  0
  1  4  1  0
  4  5  2  3
  5  6  1  0
  6  7  2  0
  6 11  1  0
  7  8  1  0
  8  9  2  0
  9 10  1  0
  9 12  1  0
 10 11  2  0
  4 13  1  0
  5 14  1  0
  7 15  1  0
  8 16  1  0
 10 17  1  0
 11 18  1  0
 12 19  1  0
M  CHG  1   3  -1
M  END
>  <filename_input>  (7) 
7NSW_HC4_docked.sdf

>  <pdb_id>  (7) 
7NSW_HC4

>  <pose_rank>  (7) 
6

>  <num_atoms_heavy>  (7) 
12

>  <num_torsions>  (7) 
2

>  <pose>  (7) 
[64.32269422006493, 44.20680373109629, 26.027419629379104, 6.401119561157018, -0.43412988417307, 0.3064962993027796, -10.135254543862727, -2.2382963270686433]

>  <energy>  (7) 
-564.7664537305928

>  <inter_energy>  (7) 
-553.785358383148

>  <intra_energy>  (7) 
0.0

>  <rmsd>  (7) 
1.21385

>  <sdf_rank>  (7) 
0

$$$$

     RDKit          3D

 19 19  0  0  0  0  0  0  0  0999 V2000
   71.8397   38.7833   23.8778 C   0  0  0  0  0  0  0  0  0  0  0  0
   72.1123   39.9593   23.6432 O   0  0  0  0  0  0  0  0  0  0  0  0
   72.5629   38.0401   24.5624 O   0  0  0  0  0  0  0  0  0  0  0  0
   70.5766   38.2206   23.2772 C   0  0  0  0  0  0  0  0  0  0  0  0
   70.4160   36.9221   22.9780 C   0  0  0  0  0  0  0  0  0  0  0  0
   69.3768   36.2857   22.1654 C   0  0  0  0  0  0  0  0  0  0  0  0
   69.0039   36.8247   20.9256 C   0  0  0  0  0  0  0  0  0  0  0  0
   67.9707   36.2869   20.1773 C   0  0  0  0  0  0  0  0  0  0  0  0
   67.2876   35.1683   20.6423 C   0  0  0  0  0  0  0  0  0  0  0  0
   67.6525   34.5990   21.8519 C   0  0  0  0  0  0  0  0  0  0  0  0
   68.6528   35.1763   22.6174 C   0  0  0  0  0  0  0  0  0  0  0  0
   66.2843   34.6082   19.9167 O   0  0  0  0  0  0  0  0  0  0  0  0
   69.7437   38.9098   23.0738 H   0  0  0  0  0  0  0  0  0  0  0  0
   71.1692   36.2416   23.4017 H   0  0  0  0  0  0  0  0  0  0  0  0
   69.5473   37.6987   20.5371 H   0  0  0  0  0  0  0  0  0  0  0  0
   67.6905   36.7436   19.2166 H   0  0  0  0  0  0  0  0  0  0  0  0
   67.1474   33.6878   22.2048 H   0  0  0  0  0  0  0  0  0  0  0  0
   68.8839   34.7519   23.6056 H   0  0  0  0  0  0  0  0  0  0  0  0
   65.8082   33.8120   20.2624 H   0  0  0  0  0  0  0  0  0  0  0  0
  1  2  2  0
  1  3  1  0
  1  4  1  0
  4  5  2  3
  5  6  1  0
  6  7  2  0
  6 11  1  0
  7  8  1  0
  8  9  2  0
  9 10  1  0
  9 12  1  0
 10 11  2  0
  4 13  1  0
  5 14  1  0
  7 15  1  0
  8 16  1  0
 10 17  1  0
 11 18  1  0
 12 19  1  0
M  CHG  1   3  -1
M  END
>  <filename_input>  (8) 
7NSW_HC4_docked.sdf

>  <pdb_id>  (8) 
7NSW_HC4

>  <pose_rank>  (8) 
7

>  <num_atoms_heavy>  (8) 
12

>  <num_torsions>  (8) 
2

>  <pose>  (8) 
[69.3767636132847, 36.28565752077445, 22.165382171853174, 0.6198643230651734, -0.6305039803086957, 3.0336410926865756, 4.361464181059075, 2.5511069752148563]

>  <energy>  (8) 
-162.67805780276018

>  <inter_energy>  (8) 
-133.2927009924642

>  <intra_energy>  (8) 
0.0

>  <rmsd>  (8) 
11.1907

>  <sdf_rank>  (8) 
0

$$$$

     RDKit          3D

 19 19  0  0  0  0  0  0  0  0999 V2000
   66.1066   35.9956   19.5263 C   0  0  0  0  0  0  0  0  0  0  0  0
   65.5660   37.0350   19.8997 O   0  0  0  0  0  0  0  0  0  0  0  0
   65.6785   35.3050   18.5861 O   0  0  0  0  0  0  0  0  0  0  0  0
   67.3330   35.5334   20.2713 C   0  0  0  0  0  0  0  0  0  0  0  0
   67.9009   36.2341   21.2653 C   0  0  0  0  0  0  0  0  0  0  0  0
   69.2141   36.0513   21.8880 C   0  0  0  0  0  0  0  0  0  0  0  0
   69.6312   34.7860   22.3259 C   0  0  0  0  0  0  0  0  0  0  0  0
   70.8332   34.6029   22.9881 C   0  0  0  0  0  0  0  0  0  0  0  0
   71.6723   35.6887   23.2140 C   0  0  0  0  0  0  0  0  0  0  0  0
   71.2973   36.9462   22.7686 C   0  0  0  0  0  0  0  0  0  0  0  0
   70.0688   37.1273   22.1537 C   0  0  0  0  0  0  0  0  0  0  0  0
   72.8673   35.5321   23.8421 O   0  0  0  0  0  0  0  0  0  0  0  0
   67.7858   34.5725   19.9856 H   0  0  0  0  0  0  0  0  0  0  0  0
   67.2965   37.0601   21.6682 H   0  0  0  0  0  0  0  0  0  0  0  0
   68.9858   33.9153   22.1382 H   0  0  0  0  0  0  0  0  0  0  0  0
   71.1241   33.6004   23.3349 H   0  0  0  0  0  0  0  0  0  0  0  0
   71.9756   37.8017   22.9033 H   0  0  0  0  0  0  0  0  0  0  0  0
   69.7573   38.1427   21.8671 H   0  0  0  0  0  0  0  0  0  0  0  0
   73.4526   36.3157   23.9950 H   0  0  0  0  0  0  0  0  0  0  0  0
  1  2  2  0
  1  3  1  0
  1  4  1  0
  4  5  2  3
  5  6  1  0
  6  7  2  0
  6 11  1  0
  7  8  1  0
  8  9  2  0
  9 10  1  0
  9 12  1  0
 10 11  2  0
  4 13  1  0
  5 14  1  0
  7 15  1  0
  8 16  1  0
 10 17  1  0
 11 18  1  0
 12 19  1  0
M  CHG  1   3  -1
M  END
>  <filename_input>  (9) 
7NSW_HC4_docked.sdf

>  <pdb_id>  (9) 
7NSW_HC4

>  <pose_rank>  (9) 
8

>  <num_atoms_heavy>  (9) 
12

>  <num_torsions>  (9) 
2

>  <pose>  (9) 
[69.21405230460071, 36.05127472374906, 21.88798257929596, 2.898037213920183, 2.824102638810328, 1.0320050913355479, 2.701497622734422, -0.1691953322656427]

>  <energy>  (9) 
-150.67305009855295

>  <inter_energy>  (9) 
-137.74716144046175

>  <intra_energy>  (9) 
0.0

>  <rmsd>  (9) 
11.6818

>  <sdf_rank>  (9) 
0

$$$$

     RDKit          3D

 19 19  0  0  0  0  0  0  0  0999 V2000
   61.1248   40.3487   27.9414 C   0  0  0  0  0  0  0  0  0  0  0  0
   61.5967   39.8089   28.9404 O   0  0  0  0  0  0  0  0  0  0  0  0
   60.1606   39.8861   27.3086 O   0  0  0  0  0  0  0  0  0  0  0  0
   61.7740   41.6195   27.4554 C   0  0  0  0  0  0  0  0  0  0  0  0
   62.9080   42.1149   27.9750 C   0  0  0  0  0  0  0  0  0  0  0  0
   63.5006   43.4424   27.7958 C   0  0  0  0  0  0  0  0  0  0  0  0
   62.8381   44.4302   27.0529 C   0  0  0  0  0  0  0  0  0  0  0  0
   63.4138   45.6644   26.8034 C   0  0  0  0  0  0  0  0  0  0  0  0
   64.6735   45.9574   27.3145 C   0  0  0  0  0  0  0  0  0  0  0  0
   65.3399   45.0094   28.0745 C   0  0  0  0  0  0  0  0  0  0  0  0
   64.7774   43.7588   28.2740 C   0  0  0  0  0  0  0  0  0  0  0  0
   65.2512   47.1692   27.1026 O   0  0  0  0  0  0  0  0  0  0  0  0
   61.2936   42.1691   26.6324 H   0  0  0  0  0  0  0  0  0  0  0  0
   63.4702   41.4290   28.6258 H   0  0  0  0  0  0  0  0  0  0  0  0
   61.8337   44.2186   26.6575 H   0  0  0  0  0  0  0  0  0  0  0  0
   62.8757   46.4119   26.2020 H   0  0  0  0  0  0  0  0  0  0  0  0
   66.3165   45.2499   28.5200 H   0  0  0  0  0  0  0  0  0  0  0  0
   65.3490   42.9954   28.8221 H   0  0  0  0  0  0  0  0  0  0  0  0
   66.1487   47.3614   27.4736 H   0  0  0  0  0  0  0  0  0  0  0  0
  1  2  2  0
  1  3  1  0
  1  4  1  0
  4  5  2  3
  5  6  1  0
  6  7  2  0
  6 11  1  0
  7  8  1  0
  8  9  2  0
  9 10  1  0
  9 12  1  0
 10 11  2  0
  4 13  1  0
  5 14  1  0
  7 15  1  0
  8 16  1  0
 10 17  1  0
 11 18  1  0
 12 19  1  0
M  CHG  1   3  -1
M  END
>  <filename_input>  (10) 
7NSW_HC4_docked.sdf

>  <pdb_id>  (10) 
7NSW_HC4

>  <pose_rank>  (10) 
9

>  <num_atoms_heavy>  (10) 
12

>  <num_torsions>  (10) 
2

>  <pose>  (10) 
[63.50064775220319, 43.44235485543597, 27.795770245120988, -4.557384127716803, -2.706607174723799, 0.6359062910566413, -8.939739609862542, -6.2694398174856945]

>  <energy>  (10) 
-259.6925676271404

>  <inter_energy>  (10) 
-263.401092205392

>  <intra_energy>  (10) 
0.0

>  <rmsd>  (10) 
2.63675

>  <sdf_rank>  (10) 
0

$$$$

     RDKit          3D

 19 19  0  0  0  0  0  0  0  0999 V2000
   55.1649   48.7505   24.8904 C   0  0  0  0  0  0  0  0  0  0  0  0
   54.7618   47.6657   24.4748 O   0  0  0  0  0  0  0  0  0  0  0  0
   54.9088   49.1823   26.0271 O   0  0  0  0  0  0  0  0  0  0  0  0
   55.9872   49.6006   23.9554 C   0  0  0  0  0  0  0  0  0  0  0  0
   55.5290   50.0621   22.7814 C   0  0  0  0  0  0  0  0  0  0  0  0
   56.2755   50.6589   21.6714 C   0  0  0  0  0  0  0  0  0  0  0  0
   56.5860   49.9076   20.5287 C   0  0  0  0  0  0  0  0  0  0  0  0
   57.3579   50.4255   19.5026 C   0  0  0  0  0  0  0  0  0  0  0  0
   57.8280   51.7320   19.5808 C   0  0  0  0  0  0  0  0  0  0  0  0
   57.5142   52.5060   20.6866 C   0  0  0  0  0  0  0  0  0  0  0  0
   56.7853   51.9610   21.7315 C   0  0  0  0  0  0  0  0  0  0  0  0
   58.5691   52.2712   18.5773 O   0  0  0  0  0  0  0  0  0  0  0  0
   57.0157   49.8557   24.2507 H   0  0  0  0  0  0  0  0  0  0  0  0
   54.4422   49.9810   22.6320 H   0  0  0  0  0  0  0  0  0  0  0  0
   56.2059   48.8788   20.4453 H   0  0  0  0  0  0  0  0  0  0  0  0
   57.5989   49.8047   18.6271 H   0  0  0  0  0  0  0  0  0  0  0  0
   57.8441   53.5543   20.7349 H   0  0  0  0  0  0  0  0  0  0  0  0
   56.6027   52.5672   22.6310 H   0  0  0  0  0  0  0  0  0  0  0  0
   58.8960   53.2029   18.6489 H   0  0  0  0  0  0  0  0  0  0  0  0
  1  2  2  0
  1  3  1  0
  1  4  1  0
  4  5  2  3
  5  6  1  0
  6  7  2  0
  6 11  1  0
  7  8  1  0
  8  9  2  0
  9 10  1  0
  9 12  1  0
 10 11  2  0
  4 13  1  0
  5 14  1  0
  7 15  1  0
  8 16  1  0
 10 17  1  0
 11 18  1  0
 12 19  1  0
M  CHG  1   3  -1
M  END
>  <filename_input>  (11) 
7NSW_HC4_docked.sdf

>  <pdb_id>  (11) 
7NSW_HC4

>  <pose_rank>  (11) 
10

>  <num_atoms_heavy>  (11) 
12

>  <num_torsions>  (11) 
2

>  <pose>  (11) 
[56.2754802957942, 50.65889622744312, 21.671420219273074, 4.569684087014254, 2.120008373806332, -2.3677553423738207, -0.9540597326073996, 0.9575061723226679]

>  <energy>  (11) 
-148.69760770247495

>  <inter_energy>  (11) 
-121.79093345908288

>  <intra_energy>  (11) 
0.0

>  <rmsd>  (11) 
11.1431

>  <sdf_rank>  (11) 
0

$$$$

     RDKit          3D

 19 19  0  0  0  0  0  0  0  0999 V2000
   63.4380   42.0475   29.1006 C   0  0  0  0  0  0  0  0  0  0  0  0
   62.2406   42.0605   29.3800 O   0  0  0  0  0  0  0  0  0  0  0  0
   64.1753   41.0690   29.3081 O   0  0  0  0  0  0  0  0  0  0  0  0
   64.0343   43.2960   28.5019 C   0  0  0  0  0  0  0  0  0  0  0  0
   63.6740   43.7860   27.3054 C   0  0  0  0  0  0  0  0  0  0  0  0
   64.3344   44.8098   26.4923 C   0  0  0  0  0  0  0  0  0  0  0  0
   64.1532   44.8502   25.1023 C   0  0  0  0  0  0  0  0  0  0  0  0
   64.8286   45.7581   24.3046 C   0  0  0  0  0  0  0  0  0  0  0  0
   65.6975   46.6768   24.8833 C   0  0  0  0  0  0  0  0  0  0  0  0
   65.8756   46.6769   26.2576 C   0  0  0  0  0  0  0  0  0  0  0  0
   65.2351   45.7301   27.0409 C   0  0  0  0  0  0  0  0  0  0  0  0
   66.3558   47.5927   24.1250 O   0  0  0  0  0  0  0  0  0  0  0  0
   64.8043   43.8331   29.0751 H   0  0  0  0  0  0  0  0  0  0  0  0
   62.7555   43.3595   26.8758 H   0  0  0  0  0  0  0  0  0  0  0  0
   63.4554   44.1411   24.6330 H   0  0  0  0  0  0  0  0  0  0  0  0
   64.6782   45.7528   23.2149 H   0  0  0  0  0  0  0  0  0  0  0  0
   66.5261   47.4294   26.7273 H   0  0  0  0  0  0  0  0  0  0  0  0
   65.4397   45.7010   28.1213 H   0  0  0  0  0  0  0  0  0  0  0  0
   66.9708   48.2396   24.5531 H   0  0  0  0  0  0  0  0  0  0  0  0
  1  2  2  0
  1  3  1  0
  1  4  1  0
  4  5  2  3
  5  6  1  0
  6  7  2  0
  6 11  1  0
  7  8  1  0
  8  9  2  0
  9 10  1  0
  9 12  1  0
 10 11  2  0
  4 13  1  0
  5 14  1  0
  7 15  1  0
  8 16  1  0
 10 17  1  0
 11 18  1  0
 12 19  1  0
M  CHG  1   3  -1
M  END
>  <filename_input>  (12) 
7NSW_HC4_docked.sdf

>  <pdb_id>  (12) 
7NSW_HC4

>  <pose_rank>  (12) 
11

>  <num_atoms_heavy>  (12) 
12

>  <num_torsions>  (12) 
2

>  <pose>  (12) 
[64.33438973959636, 44.80982796137795, 26.49231685942166, 3.280502288359555, 0.7590782802946933, 5.375910191293388, -0.011467902801215957, -1.226215587121416]

>  <energy>  (12) 
-618.082341979922

>  <inter_energy>  (12) 
-614.7482975429622

>  <intra_energy>  (12) 
0.0

>  <rmsd>  (12) 
0.604765

>  <sdf_rank>  (12) 
0

$$$$

     RDKit          3D

 19 19  0  0  0  0  0  0  0  0999 V2000
   71.3685   53.1598   33.5536 C   0  0  0  0  0  0  0  0  0  0  0  0
   70.5393   54.0469   33.7475 O   0  0  0  0  0  0  0  0  0  0  0  0
   71.8093   52.4302   34.4578 O   0  0  0  0  0  0  0  0  0  0  0  0
   71.8873   52.9763   32.1501 C   0  0  0  0  0  0  0  0  0  0  0  0
   72.2820   53.9945   31.3697 C   0  0  0  0  0  0  0  0  0  0  0  0
   72.5500   54.0013   29.9297 C   0  0  0  0  0  0  0  0  0  0  0  0
   73.7945   54.4147   29.4329 C   0  0  0  0  0  0  0  0  0  0  0  0
   74.0441   54.5051   28.0740 C   0  0  0  0  0  0  0  0  0  0  0  0
   73.0521   54.1592   27.1628 C   0  0  0  0  0  0  0  0  0  0  0  0
   71.8213   53.7220   27.6259 C   0  0  0  0  0  0  0  0  0  0  0  0
   71.5647   53.6854   28.9871 C   0  0  0  0  0  0  0  0  0  0  0  0
   73.2789   54.2181   25.8241 O   0  0  0  0  0  0  0  0  0  0  0  0
   71.9455   51.9553   31.7448 H   0  0  0  0  0  0  0  0  0  0  0  0
   72.4238   54.9572   31.8825 H   0  0  0  0  0  0  0  0  0  0  0  0
   74.5942   54.6743   30.1421 H   0  0  0  0  0  0  0  0  0  0  0  0
   75.0253   54.8498   27.7158 H   0  0  0  0  0  0  0  0  0  0  0  0
   71.0473   53.4037   26.9122 H   0  0  0  0  0  0  0  0  0  0  0  0
   70.5610   53.4007   29.3358 H   0  0  0  0  0  0  0  0  0  0  0  0
   72.5617   53.9684   25.1891 H   0  0  0  0  0  0  0  0  0  0  0  0
  1  2  2  0
  1  3  1  0
  1  4  1  0
  4  5  2  3
  5  6  1  0
  6  7  2  0
  6 11  1  0
  7  8  1  0
  8  9  2  0
  9 10  1  0
  9 12  1  0
 10 11  2  0
  4 13  1  0
  5 14  1  0
  7 15  1  0
  8 16  1  0
 10 17  1  0
 11 18  1  0
 12 19  1  0
M  CHG  1   3  -1
M  END
>  <filename_input>  (13) 
7NSW_HC4_docked.sdf

>  <pdb_id>  (13) 
7NSW_HC4

>  <pose_rank>  (13) 
12

>  <num_atoms_heavy>  (13) 
12

>  <num_torsions>  (13) 
2

>  <pose>  (13) 
[72.54997124867614, 54.00128131731195, 29.92969943135046, -1.2208891378042093, -0.8953662404643336, 2.336732852054361, 1.4056738072822033, 0.6980866294569661]

>  <energy>  (13) 
-130.99574118949081

>  <inter_energy>  (13) 
-114.64017500818377

>  <intra_energy>  (13) 
0.0

>  <rmsd>  (13) 
12.9766

>  <sdf_rank>  (13) 
0

$$$$

     RDKit          3D

 19 19  0  0  0  0  0  0  0  0999 V2000
   55.6822   35.2261   30.4154 C   0  0  0  0  0  0  0  0  0  0  0  0
   54.4698   35.4307   30.4369 O   0  0  0  0  0  0  0  0  0  0  0  0
   56.3168   35.0032   29.3707 O   0  0  0  0  0  0  0  0  0  0  0  0
   56.4184   35.2220   31.7310 C   0  0  0  0  0  0  0  0  0  0  0  0
   56.3968   36.2510   32.5926 C   0  0  0  0  0  0  0  0  0  0  0  0
   57.2530   36.4972   33.7552 C   0  0  0  0  0  0  0  0  0  0  0  0
   57.7627   37.7779   34.0132 C   0  0  0  0  0  0  0  0  0  0  0  0
   58.6371   38.0179   35.0595 C   0  0  0  0  0  0  0  0  0  0  0  0
   59.0135   36.9765   35.9008 C   0  0  0  0  0  0  0  0  0  0  0  0
   58.5043   35.7058   35.6850 C   0  0  0  0  0  0  0  0  0  0  0  0
   57.6714   35.4658   34.6039 C   0  0  0  0  0  0  0  0  0  0  0  0
   59.8531   37.1901   36.9480 O   0  0  0  0  0  0  0  0  0  0  0  0
   57.0034   34.3297   31.9986 H   0  0  0  0  0  0  0  0  0  0  0  0
   55.6298   37.0152   32.3987 H   0  0  0  0  0  0  0  0  0  0  0  0
   57.4596   38.6146   33.3667 H   0  0  0  0  0  0  0  0  0  0  0  0
   59.0334   39.0306   35.2251 H   0  0  0  0  0  0  0  0  0  0  0  0
   58.7615   34.8868   36.3728 H   0  0  0  0  0  0  0  0  0  0  0  0
   57.3304   34.4386   34.4077 H   0  0  0  0  0  0  0  0  0  0  0  0
   60.1110   36.4375   37.5372 H   0  0  0  0  0  0  0  0  0  0  0  0
  1  2  2  0
  1  3  1  0
  1  4  1  0
  4  5  2  3
  5  6  1  0
  6  7  2  0
  6 11  1  0
  7  8  1  0
  8  9  2  0
  9 10  1  0
  9 12  1  0
 10 11  2  0
  4 13  1  0
  5 14  1  0
  7 15  1  0
  8 16  1  0
 10 17  1  0
 11 18  1  0
 12 19  1  0
M  CHG  1   3  -1
M  END
>  <filename_input>  (14) 
7NSW_HC4_docked.sdf

>  <pdb_id>  (14) 
7NSW_HC4

>  <pose_rank>  (14) 
13

>  <num_atoms_heavy>  (14) 
12

>  <num_torsions>  (14) 
2

>  <pose>  (14) 
[57.25302194425968, 36.49717863802402, 33.755179693103514, -4.230972292578274, 1.2812859384350308, 0.7531033790498219, -0.3267824050716489, -1.0827744529908032]

>  <energy>  (14) 
-96.44392903473525

>  <inter_energy>  (14) 
-92.67448109707338

>  <intra_energy>  (14) 
0.0

>  <rmsd>  (14) 
13.3613

>  <sdf_rank>  (14) 
0

$$$$

     RDKit          3D

 19 19  0  0  0  0  0  0  0  0999 V2000
   61.3922   35.2163   20.9133 C   0  0  0  0  0  0  0  0  0  0  0  0
   61.2032   34.6330   21.9792 O   0  0  0  0  0  0  0  0  0  0  0  0
   60.4892   35.7905   20.2817 O   0  0  0  0  0  0  0  0  0  0  0  0
   62.7874   35.2040   20.3423 C   0  0  0  0  0  0  0  0  0  0  0  0
   63.8680   35.6152   21.0241 C   0  0  0  0  0  0  0  0  0  0  0  0
   65.2146   35.9072   20.5273 C   0  0  0  0  0  0  0  0  0  0  0  0
   66.0313   34.8848   20.0230 C   0  0  0  0  0  0  0  0  0  0  0  0
   67.3349   35.1232   19.6220 C   0  0  0  0  0  0  0  0  0  0  0  0
   67.8576   36.4100   19.6939 C   0  0  0  0  0  0  0  0  0  0  0  0
   67.0641   37.4445   20.1635 C   0  0  0  0  0  0  0  0  0  0  0  0
   65.7786   37.1854   20.6113 C   0  0  0  0  0  0  0  0  0  0  0  0
   69.1268   36.6745   19.2861 O   0  0  0  0  0  0  0  0  0  0  0  0
   62.9271   34.8391   19.3140 H   0  0  0  0  0  0  0  0  0  0  0  0
   63.7220   35.7519   22.1057 H   0  0  0  0  0  0  0  0  0  0  0  0
   65.6252   33.8656   19.9438 H   0  0  0  0  0  0  0  0  0  0  0  0
   67.9560   34.2963   19.2473 H   0  0  0  0  0  0  0  0  0  0  0  0
   67.4552   38.4724   20.1809 H   0  0  0  0  0  0  0  0  0  0  0  0
   65.1863   38.0053   21.0437 H   0  0  0  0  0  0  0  0  0  0  0  0
   69.4833   37.5962   19.3441 H   0  0  0  0  0  0  0  0  0  0  0  0
  1  2  2  0
  1  3  1  0
  1  4  1  0
  4  5  2  3
  5  6  1  0
  6  7  2  0
  6 11  1  0
  7  8  1  0
  8  9  2  0
  9 10  1  0
  9 12  1  0
 10 11  2  0
  4 13  1  0
  5 14  1  0
  7 15  1  0
  8 16  1  0
 10 17  1  0
 11 18  1  0
 12 19  1  0
M  CHG  1   3  -1
M  END
>  <filename_input>  (15) 
7NSW_HC4_docked.sdf

>  <pdb_id>  (15) 
7NSW_HC4

>  <pose_rank>  (15) 
14

>  <num_atoms_heavy>  (15) 
12

>  <num_torsions>  (15) 
2

>  <pose>  (15) 
[65.21460785580618, 35.90719167892053, 20.527327533330162, 3.6972326747304667, 3.3560884568002995, -0.2216640537047038, 2.3889213019352584, -1.055455111372077]

>  <energy>  (15) 
-129.79229443260394

>  <inter_energy>  (15) 
-121.34136732631555

>  <intra_energy>  (15) 
0.0

>  <rmsd>  (15) 
10.9268

>  <sdf_rank>  (15) 
0

$$$$

     RDKit          3D

 19 19  0  0  0  0  0  0  0  0999 V2000
   66.8500   35.5398   20.2116 C   0  0  0  0  0  0  0  0  0  0  0  0
   65.8884   36.1732   20.6433 O   0  0  0  0  0  0  0  0  0  0  0  0
   66.8003   34.3288   19.9377 O   0  0  0  0  0  0  0  0  0  0  0  0
   68.1546   36.2744   20.0357 C   0  0  0  0  0  0  0  0  0  0  0  0
   69.2511   36.0176   20.7660 C   0  0  0  0  0  0  0  0  0  0  0  0
   70.4790   36.8059   20.8930 C   0  0  0  0  0  0  0  0  0  0  0  0
   71.0061   37.4963   19.7920 C   0  0  0  0  0  0  0  0  0  0  0  0
   72.2064   38.1822   19.8676 C   0  0  0  0  0  0  0  0  0  0  0  0
   72.9108   38.2163   21.0663 C   0  0  0  0  0  0  0  0  0  0  0  0
   72.3999   37.5648   22.1776 C   0  0  0  0  0  0  0  0  0  0  0  0
   71.2246   36.8378   22.0771 C   0  0  0  0  0  0  0  0  0  0  0  0
   74.0801   38.9006   21.1726 O   0  0  0  0  0  0  0  0  0  0  0  0
   68.2109   37.0615   19.2693 H   0  0  0  0  0  0  0  0  0  0  0  0
   69.2237   35.0859   21.3502 H   0  0  0  0  0  0  0  0  0  0  0  0
   70.4508   37.4927   18.8425 H   0  0  0  0  0  0  0  0  0  0  0  0
   72.6023   38.6992   18.9810 H   0  0  0  0  0  0  0  0  0  0  0  0
   72.9281   37.6250   23.1406 H   0  0  0  0  0  0  0  0  0  0  0  0
   70.8685   36.2713   22.9501 H   0  0  0  0  0  0  0  0  0  0  0  0
   74.5689   38.9146   22.0334 H   0  0  0  0  0  0  0  0  0  0  0  0
  1  2  2  0
  1  3  1  0
  1  4  1  0
  4  5  2  3
  5  6  1  0
  6  7  2  0
  6 11  1  0
  7  8  1  0
  8  9  2  0
  9 10  1  0
  9 12  1  0
 10 11  2  0
  4 13  1  0
  5 14  1  0
  7 15  1  0
  8 16  1  0
 10 17  1  0
 11 18  1  0
 12 19  1  0
M  CHG  1   3  -1
M  END
>  <filename_input>  (16) 
7NSW_HC4_docked.sdf

>  <pdb_id>  (16) 
7NSW_HC4

>  <pose_rank>  (16) 
15

>  <num_atoms_heavy>  (16) 
12

>  <num_torsions>  (16) 
2

>  <pose>  (16) 
[70.47898224641881, 36.80590022660709, 20.892995210856032, 0.5732957058670631, -0.42256108795404246, -0.3796386680092972, 2.922980804445946, 1.8709719137691123]

>  <energy>  (16) 
-122.98591995699282

>  <inter_energy>  (16) 
-97.16548871108928

>  <intra_energy>  (16) 
0.0

>  <rmsd>  (16) 
11.5013

>  <sdf_rank>  (16) 
0

$$$$

     RDKit          3D

 19 19  0  0  0  0  0  0  0  0999 V2000
   71.0068   36.1997   20.2405 C   0  0  0  0  0  0  0  0  0  0  0  0
   69.9202   36.0361   19.6886 O   0  0  0  0  0  0  0  0  0  0  0  0
   71.4710   35.4082   21.0785 O   0  0  0  0  0  0  0  0  0  0  0  0
   71.7923   37.4390   19.8943 C   0  0  0  0  0  0  0  0  0  0  0  0
   71.2254   38.6365   19.6791 C   0  0  0  0  0  0  0  0  0  0  0  0
   71.8128   39.8409   19.0879 C   0  0  0  0  0  0  0  0  0  0  0  0
   73.1696   40.1434   19.2731 C   0  0  0  0  0  0  0  0  0  0  0  0
   73.7282   41.3150   18.7913 C   0  0  0  0  0  0  0  0  0  0  0  0
   72.9421   42.2175   18.0831 C   0  0  0  0  0  0  0  0  0  0  0  0
   71.6042   41.9316   17.8624 C   0  0  0  0  0  0  0  0  0  0  0  0
   71.0430   40.7815   18.3939 C   0  0  0  0  0  0  0  0  0  0  0  0
   73.4712   43.3641   17.5809 O   0  0  0  0  0  0  0  0  0  0  0  0
   72.8863   37.3577   19.8139 H   0  0  0  0  0  0  0  0  0  0  0  0
   70.1740   38.7256   19.9899 H   0  0  0  0  0  0  0  0  0  0  0  0
   73.8074   39.4303   19.8160 H   0  0  0  0  0  0  0  0  0  0  0  0
   74.7920   41.5317   18.9684 H   0  0  0  0  0  0  0  0  0  0  0  0
   70.9870   42.6185   17.2647 H   0  0  0  0  0  0  0  0  0  0  0  0
   69.9649   40.6032   18.2671 H   0  0  0  0  0  0  0  0  0  0  0  0
   72.8974   43.9958   17.0791 H   0  0  0  0  0  0  0  0  0  0  0  0
  1  2  2  0
  1  3  1  0
  1  4  1  0
  4  5  2  3
  5  6  1  0
  6  7  2  0
  6 11  1  0
  7  8  1  0
  8  9  2  0
  9 10  1  0
  9 12  1  0
 10 11  2  0
  4 13  1  0
  5 14  1  0
  7 15  1  0
  8 16  1  0
 10 17  1  0
 11 18  1  0
 12 19  1  0
M  CHG  1   3  -1
M  END
>  <filename_input>  (17) 
7NSW_HC4_docked.sdf

>  <pdb_id>  (17) 
7NSW_HC4

>  <pose_rank>  (17) 
16

>  <num_atoms_heavy>  (17) 
12

>  <num_torsions>  (17) 
2

>  <pose>  (17) 
[71.81282873505417, 39.84091527275267, 19.0878556247126, -0.8863474895234222, -1.6799199982912456, 1.1737705907301548, 2.98333349590416, 0.5577002251207055]

>  <energy>  (17) 
-121.49454570337933

>  <inter_energy>  (17) 
-108.21929643774833

>  <intra_energy>  (17) 
0.0

>  <rmsd>  (17) 
11.8344

>  <sdf_rank>  (17) 
0

$$$$

     RDKit          3D

 19 19  0  0  0  0  0  0  0  0999 V2000
   55.3811   41.6248   22.0751 C   0  0  0  0  0  0  0  0  0  0  0  0
   55.0810   41.8976   23.2360 O   0  0  0  0  0  0  0  0  0  0  0  0
   55.4427   40.4613   21.6431 O   0  0  0  0  0  0  0  0  0  0  0  0
   55.7141   42.7657   21.1478 C   0  0  0  0  0  0  0  0  0  0  0  0
   55.0368   43.9244   21.1296 C   0  0  0  0  0  0  0  0  0  0  0  0
   55.0693   44.9949   20.1305 C   0  0  0  0  0  0  0  0  0  0  0  0
   54.5605   44.7884   18.8401 C   0  0  0  0  0  0  0  0  0  0  0  0
   54.6520   45.7580   17.8560 C   0  0  0  0  0  0  0  0  0  0  0  0
   55.2416   46.9842   18.1441 C   0  0  0  0  0  0  0  0  0  0  0  0
   55.7291   47.2252   19.4186 C   0  0  0  0  0  0  0  0  0  0  0  0
   55.6798   46.2293   20.3808 C   0  0  0  0  0  0  0  0  0  0  0  0
   55.3241   47.9605   17.2022 O   0  0  0  0  0  0  0  0  0  0  0  0
   56.5556   42.6424   20.4501 H   0  0  0  0  0  0  0  0  0  0  0  0
   54.3642   44.0934   21.9834 H   0  0  0  0  0  0  0  0  0  0  0  0
   54.0756   43.8299   18.6032 H   0  0  0  0  0  0  0  0  0  0  0  0
   54.2590   45.5589   16.8481 H   0  0  0  0  0  0  0  0  0  0  0  0
   56.1558   48.2082   19.6668 H   0  0  0  0  0  0  0  0  0  0  0  0
   56.1319   46.4135   21.3666 H   0  0  0  0  0  0  0  0  0  0  0  0
   55.7471   48.8277   17.4240 H   0  0  0  0  0  0  0  0  0  0  0  0
  1  2  2  0
  1  3  1  0
  1  4  1  0
  4  5  2  3
  5  6  1  0
  6  7  2  0
  6 11  1  0
  7  8  1  0
  8  9  2  0
  9 10  1  0
  9 12  1  0
 10 11  2  0
  4 13  1  0
  5 14  1  0
  7 15  1  0
  8 16  1  0
 10 17  1  0
 11 18  1  0
 12 19  1  0
M  CHG  1   3  -1
M  END
>  <filename_input>  (18) 
7NSW_HC4_docked.sdf

>  <pdb_id>  (18) 
7NSW_HC4

>  <pose_rank>  (18) 
17

>  <num_atoms_heavy>  (18) 
12

>  <num_torsions>  (18) 
2

>  <pose>  (18) 
[55.06925523068637, 44.994907900783204, 20.130467588666583, 0.6045094283483806, -3.2379735560727276, -4.757657090064286, -1.5410409933020335, -0.8156329589564768]

>  <energy>  (18) 
-115.54684402444197

>  <inter_energy>  (18) 
-107.75519889005727

>  <intra_energy>  (18) 
0.0

>  <rmsd>  (18) 
11.4171

>  <sdf_rank>  (18) 
0

$$$$

     RDKit          3D

 19 19  0  0  0  0  0  0  0  0999 V2000
   61.4025   36.7317   19.3832 C   0  0  0  0  0  0  0  0  0  0  0  0
   62.3888   36.8884   18.6658 O   0  0  0  0  0  0  0  0  0  0  0  0
   61.4702   36.3205   20.5539 O   0  0  0  0  0  0  0  0  0  0  0  0
   60.0482   37.0314   18.7926 C   0  0  0  0  0  0  0  0  0  0  0  0
   59.6134   38.2750   18.5357 C   0  0  0  0  0  0  0  0  0  0  0  0
   58.2572   38.7302   18.2213 C   0  0  0  0  0  0  0  0  0  0  0  0
   57.4810   38.0652   17.2613 C   0  0  0  0  0  0  0  0  0  0  0  0
   56.2283   38.5239   16.8906 C   0  0  0  0  0  0  0  0  0  0  0  0
   55.7008   39.6611   17.4926 C   0  0  0  0  0  0  0  0  0  0  0  0
   56.4351   40.3232   18.4637 C   0  0  0  0  0  0  0  0  0  0  0  0
   57.7091   39.8861   18.7893 C   0  0  0  0  0  0  0  0  0  0  0  0
   54.4647   40.1194   17.1625 O   0  0  0  0  0  0  0  0  0  0  0  0
   59.3820   36.1875   18.5603 H   0  0  0  0  0  0  0  0  0  0  0  0
   60.3822   39.0612   18.5653 H   0  0  0  0  0  0  0  0  0  0  0  0
   57.8782   37.1542   16.7898 H   0  0  0  0  0  0  0  0  0  0  0  0
   55.6513   37.9897   16.1214 H   0  0  0  0  0  0  0  0  0  0  0  0
   56.0062   41.1967   18.9765 H   0  0  0  0  0  0  0  0  0  0  0  0
   58.3048   40.4621   19.5127 H   0  0  0  0  0  0  0  0  0  0  0  0
   54.1041   40.9306   17.6007 H   0  0  0  0  0  0  0  0  0  0  0  0
  1  2  2  0
  1  3  1  0
  1  4  1  0
  4  5  2  3
  5  6  1  0
  6  7  2  0
  6 11  1  0
  7  8  1  0
  8  9  2  0
  9 10  1  0
  9 12  1  0
 10 11  2  0
  4 13  1  0
  5 14  1  0
  7 15  1  0
  8 16  1  0
 10 17  1  0
 11 18  1  0
 12 19  1  0
M  CHG  1   3  -1
M  END
>  <filename_input>  (19) 
7NSW_HC4_docked.sdf

>  <pdb_id>  (19) 
7NSW_HC4

>  <pose_rank>  (19) 
18

>  <num_atoms_heavy>  (19) 
12

>  <num_torsions>  (19) 
2

>  <pose>  (19) 
[58.25722802416926, 38.730243914285154, 18.221314819810516, -0.4904880540510954, -2.1334708392287385, -4.003050953414341, -16.11756923985007, -7.644744697768593]

>  <energy>  (19) 
-93.82066917567634

>  <inter_energy>  (19) 
-86.25525191779595

>  <intra_energy>  (19) 
0.0

>  <rmsd>  (19) 
12.4783

>  <sdf_rank>  (19) 
0

$$$$

     RDKit          3D

 19 19  0  0  0  0  0  0  0  0999 V2000
   55.4066   38.6536   18.9141 C   0  0  0  0  0  0  0  0  0  0  0  0
   54.4370   38.0514   18.4566 O   0  0  0  0  0  0  0  0  0  0  0  0
   55.3092   39.5584   19.7603 O   0  0  0  0  0  0  0  0  0  0  0  0
   56.7730   38.2846   18.3948 C   0  0  0  0  0  0  0  0  0  0  0  0
   57.5201   37.2995   18.9171 C   0  0  0  0  0  0  0  0  0  0  0  0
   58.9388   37.0059   18.7012 C   0  0  0  0  0  0  0  0  0  0  0  0
   59.4264   36.7238   17.4170 C   0  0  0  0  0  0  0  0  0  0  0  0
   60.7462   36.3660   17.2001 C   0  0  0  0  0  0  0  0  0  0  0  0
   61.6315   36.3012   18.2707 C   0  0  0  0  0  0  0  0  0  0  0  0
   61.1830   36.6006   19.5472 C   0  0  0  0  0  0  0  0  0  0  0  0
   59.8484   36.9064   19.7604 C   0  0  0  0  0  0  0  0  0  0  0  0
   62.9370   35.9739   18.0815 O   0  0  0  0  0  0  0  0  0  0  0  0
   57.1785   38.8520   17.5441 H   0  0  0  0  0  0  0  0  0  0  0  0
   56.9942   36.6182   19.6021 H   0  0  0  0  0  0  0  0  0  0  0  0
   58.7417   36.7885   16.5586 H   0  0  0  0  0  0  0  0  0  0  0  0
   61.0939   36.1335   16.1827 H   0  0  0  0  0  0  0  0  0  0  0  0
   61.8872   36.5956   20.3922 H   0  0  0  0  0  0  0  0  0  0  0  0
   59.4948   37.0752   20.7882 H   0  0  0  0  0  0  0  0  0  0  0  0
   63.5538   35.9323   18.8547 H   0  0  0  0  0  0  0  0  0  0  0  0
  1  2  2  0
  1  3  1  0
  1  4  1  0
  4  5  2  3
  5  6  1  0
  6  7  2  0
  6 11  1  0
  7  8  1  0
  8  9  2  0
  9 10  1  0
  9 12  1  0
 10 11  2  0
  4 13  1  0
  5 14  1  0
  7 15  1  0
  8 16  1  0
 10 17  1  0
 11 18  1  0
 12 19  1  0
M  CHG  1   3  -1
M  END
>  <filename_input>  (20) 
7NSW_HC4_docked.sdf

>  <pdb_id>  (20) 
7NSW_HC4

>  <pose_rank>  (20) 
19

>  <num_atoms_heavy>  (20) 
12

>  <num_torsions>  (20) 
2

>  <pose>  (20) 
[58.93880686056217, 37.00590911504154, 18.70124072380587, -0.4620978052240389, -3.5004155225867084, -6.5380422575709565, -16.33007796468405, -7.912735681464488]

>  <energy>  (20) 
-116.56322584469864

>  <inter_energy>  (20) 
-117.35077470396845

>  <intra_energy>  (20) 
0.0

>  <rmsd>  (20) 
12.6918

>  <sdf_rank>  (20) 
0

$$$$

     RDKit          3D

 19 19  0  0  0  0  0  0  0  0999 V2000
   71.8081   44.2504   35.8319 C   0  0  0  0  0  0  0  0  0  0  0  0
   70.5907   44.1563   35.6858 O   0  0  0  0  0  0  0  0  0  0  0  0
   72.3406   44.6091   36.8958 O   0  0  0  0  0  0  0  0  0  0  0  0
   72.6852   43.9379   34.6463 C   0  0  0  0  0  0  0  0  0  0  0  0
   72.2470   43.9582   33.3778 C   0  0  0  0  0  0  0  0  0  0  0  0
   72.8910   43.4318   32.1721 C   0  0  0  0  0  0  0  0  0  0  0  0
   74.0377   44.0433   31.6453 C   0  0  0  0  0  0  0  0  0  0  0  0
   74.6169   43.6124   30.4638 C   0  0  0  0  0  0  0  0  0  0  0  0
   74.0726   42.5310   29.7794 C   0  0  0  0  0  0  0  0  0  0  0  0
   72.9551   41.8911   30.2911 C   0  0  0  0  0  0  0  0  0  0  0  0
   72.3525   42.3631   31.4462 C   0  0  0  0  0  0  0  0  0  0  0  0
   74.6350   42.0747   28.6294 O   0  0  0  0  0  0  0  0  0  0  0  0
   73.7386   43.6799   34.8303 H   0  0  0  0  0  0  0  0  0  0  0  0
   71.2687   44.4364   33.2221 H   0  0  0  0  0  0  0  0  0  0  0  0
   74.4894   44.8885   32.1854 H   0  0  0  0  0  0  0  0  0  0  0  0
   75.5060   44.1245   30.0672 H   0  0  0  0  0  0  0  0  0  0  0  0
   72.5459   41.0073   29.7798 H   0  0  0  0  0  0  0  0  0  0  0  0
   71.4273   41.8859   31.8016 H   0  0  0  0  0  0  0  0  0  0  0  0
   74.2347   41.3037   28.1546 H   0  0  0  0  0  0  0  0  0  0  0  0
  1  2  2  0
  1  3  1  0
  1  4  1  0
  4  5  2  3
  5  6  1  0
  6  7  2  0
  6 11  1  0
  7  8  1  0
  8  9  2  0
  9 10  1  0
  9 12  1  0
 10 11  2  0
  4 13  1  0
  5 14  1  0
  7 15  1  0
  8 16  1  0
 10 17  1  0
 11 18  1  0
 12 19  1  0
M  CHG  1   3  -1
M  END
>  <filename_input>  (21) 
7NSW_HC4_docked.sdf

>  <pdb_id>  (21) 
7NSW_HC4

>  <pose_rank>  (21) 
20

>  <num_atoms_heavy>  (21) 
12

>  <num_torsions>  (21) 
2

>  <pose>  (21) 
[72.89099005804881, 43.4317847363449, 32.17214061372688, 1.377885340976609, 0.5421378182074335, -2.4766371224031727, 2.337631684208665, 0.25770345959328667]

>  <energy>  (21) 
-101.81766464636556

>  <inter_energy>  (21) 
-84.22883828745508

>  <intra_energy>  (21) 
0.0

>  <rmsd>  (21) 
10.7155

>  <sdf_rank>  (21) 
0

$$$$

     RDKit          3D

 19 19  0  0  0  0  0  0  0  0999 V2000
   72.3226   40.9653   18.0951 C   0  0  0  0  0  0  0  0  0  0  0  0
   73.3008   40.4078   18.5895 O   0  0  0  0  0  0  0  0  0  0  0  0
   71.2547   40.3783   17.8522 O   0  0  0  0  0  0  0  0  0  0  0  0
   72.4473   42.4268   17.7468 C   0  0  0  0  0  0  0  0  0  0  0  0
   73.4336   43.2136   18.2048 C   0  0  0  0  0  0  0  0  0  0  0  0
   73.5369   44.6743   18.1727 C   0  0  0  0  0  0  0  0  0  0  0  0
   73.0173   45.4075   17.0962 C   0  0  0  0  0  0  0  0  0  0  0  0
   73.1729   46.7802   17.0057 C   0  0  0  0  0  0  0  0  0  0  0  0
   73.8410   47.4697   18.0119 C   0  0  0  0  0  0  0  0  0  0  0  0
   74.3418   46.7737   19.1005 C   0  0  0  0  0  0  0  0  0  0  0  0
   74.2264   45.3939   19.1555 C   0  0  0  0  0  0  0  0  0  0  0  0
   73.9881   48.8197   17.9577 O   0  0  0  0  0  0  0  0  0  0  0  0
   71.6909   42.8712   17.0832 H   0  0  0  0  0  0  0  0  0  0  0  0
   74.2818   42.6886   18.6684 H   0  0  0  0  0  0  0  0  0  0  0  0
   72.4711   44.8775   16.3020 H   0  0  0  0  0  0  0  0  0  0  0  0
   72.7689   47.3246   16.1394 H   0  0  0  0  0  0  0  0  0  0  0  0
   74.8315   47.3172   19.9220 H   0  0  0  0  0  0  0  0  0  0  0  0
   74.6885   44.8504   19.9928 H   0  0  0  0  0  0  0  0  0  0  0  0
   74.4666   49.2950   18.6824 H   0  0  0  0  0  0  0  0  0  0  0  0
  1  2  2  0
  1  3  1  0
  1  4  1  0
  4  5  2  3
  5  6  1  0
  6  7  2  0
  6 11  1  0
  7  8  1  0
  8  9  2  0
  9 10  1  0
  9 12  1  0
 10 11  2  0
  4 13  1  0
  5 14  1  0
  7 15  1  0
  8 16  1  0
 10 17  1  0
 11 18  1  0
 12 19  1  0
M  CHG  1   3  -1
M  END
>  <filename_input>  (22) 
7NSW_HC4_docked.sdf

>  <pdb_id>  (22) 
7NSW_HC4

>  <pose_rank>  (22) 
21

>  <num_atoms_heavy>  (22) 
12

>  <num_torsions>  (22) 
2

>  <pose>  (22) 
[73.53692277151083, 44.67426009119238, 18.172749845575243, 0.6760505299171825, 0.13932715261041922, 0.42814099310704395, 2.95749963817358, -0.3680990443693623]

>  <energy>  (22) 
-99.08249330786707

>  <inter_energy>  (22) 
-87.9414539082408

>  <intra_energy>  (22) 
0.0

>  <rmsd>  (22) 
12.5718

>  <sdf_rank>  (22) 
0

$$$$

     RDKit          3D

 19 19  0  0  0  0  0  0  0  0999 V2000
   55.8383   35.5714   32.0454 C   0  0  0  0  0  0  0  0  0  0  0  0
   55.3510   34.8508   31.1764 O   0  0  0  0  0  0  0  0  0  0  0  0
   55.3906   36.6956   32.3279 O   0  0  0  0  0  0  0  0  0  0  0  0
   57.0547   35.0654   32.7785 C   0  0  0  0  0  0  0  0  0  0  0  0
   57.3040   35.3349   34.0695 C   0  0  0  0  0  0  0  0  0  0  0  0
   58.5424   35.1441   34.8279 C   0  0  0  0  0  0  0  0  0  0  0  0
   59.7337   34.7875   34.1797 C   0  0  0  0  0  0  0  0  0  0  0  0
   60.8967   34.5245   34.8834 C   0  0  0  0  0  0  0  0  0  0  0  0
   60.9075   34.6337   36.2697 C   0  0  0  0  0  0  0  0  0  0  0  0
   59.7512   35.0102   36.9344 C   0  0  0  0  0  0  0  0  0  0  0  0
   58.5795   35.2199   36.2250 C   0  0  0  0  0  0  0  0  0  0  0  0
   62.0415   34.4024   36.9821 O   0  0  0  0  0  0  0  0  0  0  0  0
   57.7749   34.4434   32.2268 H   0  0  0  0  0  0  0  0  0  0  0  0
   56.4615   35.7575   34.6366 H   0  0  0  0  0  0  0  0  0  0  0  0
   59.7445   34.7147   33.0821 H   0  0  0  0  0  0  0  0  0  0  0  0
   61.8107   34.2298   34.3468 H   0  0  0  0  0  0  0  0  0  0  0  0
   59.7636   35.1426   38.0263 H   0  0  0  0  0  0  0  0  0  0  0  0
   57.6549   35.4519   36.7739 H   0  0  0  0  0  0  0  0  0  0  0  0
   62.0318   34.4845   37.9686 H   0  0  0  0  0  0  0  0  0  0  0  0
  1  2  2  0
  1  3  1  0
  1  4  1  0
  4  5  2  3
  5  6  1  0
  6  7  2  0
  6 11  1  0
  7  8  1  0
  8  9  2  0
  9 10  1  0
  9 12  1  0
 10 11  2  0
  4 13  1  0
  5 14  1  0
  7 15  1  0
  8 16  1  0
 10 17  1  0
 11 18  1  0
 12 19  1  0
M  CHG  1   3  -1
M  END
>  <filename_input>  (23) 
7NSW_HC4_docked.sdf

>  <pdb_id>  (23) 
7NSW_HC4

>  <pose_rank>  (23) 
22

>  <num_atoms_heavy>  (23) 
12

>  <num_torsions>  (23) 
2

>  <pose>  (23) 
[58.542441992959354, 35.14409388128946, 34.82791191375121, 0.19002692665993137, -1.2174709258074847, -0.941375984527284, 3.714367951439308, -2.6558299344892005]

>  <energy>  (23) 
-97.67594397564899

>  <inter_energy>  (23) 
-87.60176782828945

>  <intra_energy>  (23) 
0.0

>  <rmsd>  (23) 
14.0691

>  <sdf_rank>  (23) 
0

$$$$

     RDKit          3D

 19 19  0  0  0  0  0  0  0  0999 V2000
   56.8946   37.2368   35.6858 C   0  0  0  0  0  0  0  0  0  0  0  0
   57.7799   38.0679   35.8798 O   0  0  0  0  0  0  0  0  0  0  0  0
   56.4250   36.5195   36.5853 O   0  0  0  0  0  0  0  0  0  0  0  0
   56.3813   37.0710   34.2781 C   0  0  0  0  0  0  0  0  0  0  0  0
   56.4968   35.9309   33.5794 C   0  0  0  0  0  0  0  0  0  0  0  0
   56.2935   35.7037   32.1467 C   0  0  0  0  0  0  0  0  0  0  0  0
   55.5939   34.5772   31.6905 C   0  0  0  0  0  0  0  0  0  0  0  0
   55.4579   34.3001   30.3408 C   0  0  0  0  0  0  0  0  0  0  0  0
   56.0047   35.1635   29.3977 C   0  0  0  0  0  0  0  0  0  0  0  0
   56.6786   36.2984   29.8199 C   0  0  0  0  0  0  0  0  0  0  0  0
   56.8542   36.5386   31.1732 C   0  0  0  0  0  0  0  0  0  0  0  0
   55.8663   34.9259   28.0667 O   0  0  0  0  0  0  0  0  0  0  0  0
   55.8866   37.9287   33.7988 H   0  0  0  0  0  0  0  0  0  0  0  0
   56.7840   35.0442   34.1636 H   0  0  0  0  0  0  0  0  0  0  0  0
   55.1409   33.8951   32.4250 H   0  0  0  0  0  0  0  0  0  0  0  0
   54.9182   33.3986   30.0151 H   0  0  0  0  0  0  0  0  0  0  0  0
   57.0745   37.0094   29.0798 H   0  0  0  0  0  0  0  0  0  0  0  0
   57.4493   37.4075   31.4906 H   0  0  0  0  0  0  0  0  0  0  0  0
   56.2619   35.5507   27.4085 H   0  0  0  0  0  0  0  0  0  0  0  0
  1  2  2  0
  1  3  1  0
  1  4  1  0
  4  5  2  3
  5  6  1  0
  6  7  2  0
  6 11  1  0
  7  8  1  0
  8  9  2  0
  9 10  1  0
  9 12  1  0
 10 11  2  0
  4 13  1  0
  5 14  1  0
  7 15  1  0
  8 16  1  0
 10 17  1  0
 11 18  1  0
 12 19  1  0
M  CHG  1   3  -1
M  END
>  <filename_input>  (24) 
7NSW_HC4_docked.sdf

>  <pdb_id>  (24) 
7NSW_HC4

>  <pose_rank>  (24) 
23

>  <num_atoms_heavy>  (24) 
12

>  <num_torsions>  (24) 
2

>  <pose>  (24) 
[56.293513329217326, 35.70370686397521, 32.1467309624868, 4.180754037771704, -2.7518470255748686, -0.9642463272562279, 1.1735161838380208, 1.9427827949543222]

>  <energy>  (24) 
-75.19926350972037

>  <inter_energy>  (24) 
-79.75671739102384

>  <intra_energy>  (24) 
0.0

>  <rmsd>  (24) 
13.2397

>  <sdf_rank>  (24) 
0

$$$$

     RDKit          3D

 19 19  0  0  0  0  0  0  0  0999 V2000
   74.2509   39.8353   32.4460 C   0  0  0  0  0  0  0  0  0  0  0  0
   73.8668   40.8297   33.0589 O   0  0  0  0  0  0  0  0  0  0  0  0
   74.3372   38.7083   32.9622 O   0  0  0  0  0  0  0  0  0  0  0  0
   74.6596   40.0110   31.0056 C   0  0  0  0  0  0  0  0  0  0  0  0
   73.9126   40.6620   30.1002 C   0  0  0  0  0  0  0  0  0  0  0  0
   74.0445   40.6842   28.6416 C   0  0  0  0  0  0  0  0  0  0  0  0
   73.9995   39.4958   27.8984 C   0  0  0  0  0  0  0  0  0  0  0  0
   74.2009   39.4839   26.5286 C   0  0  0  0  0  0  0  0  0  0  0  0
   74.4336   40.6765   25.8521 C   0  0  0  0  0  0  0  0  0  0  0  0
   74.4571   41.8689   26.5578 C   0  0  0  0  0  0  0  0  0  0  0  0
   74.3066   41.8638   27.9352 C   0  0  0  0  0  0  0  0  0  0  0  0
   74.6126   40.6945   24.5050 O   0  0  0  0  0  0  0  0  0  0  0  0
   75.6194   39.5836   30.6798 H   0  0  0  0  0  0  0  0  0  0  0  0
   73.0869   41.2620   30.5104 H   0  0  0  0  0  0  0  0  0  0  0  0
   73.7987   38.5472   28.4178 H   0  0  0  0  0  0  0  0  0  0  0  0
   74.1770   38.5329   25.9764 H   0  0  0  0  0  0  0  0  0  0  0  0
   74.5955   42.8206   26.0238 H   0  0  0  0  0  0  0  0  0  0  0  0
   74.3953   42.8108   28.4877 H   0  0  0  0  0  0  0  0  0  0  0  0
   74.7773   41.5523   24.0390 H   0  0  0  0  0  0  0  0  0  0  0  0
  1  2  2  0
  1  3  1  0
  1  4  1  0
  4  5  2  3
  5  6  1  0
  6  7  2  0
  6 11  1  0
  7  8  1  0
  8  9  2  0
  9 10  1  0
  9 12  1  0
 10 11  2  0
  4 13  1  0
  5 14  1  0
  7 15  1  0
  8 16  1  0
 10 17  1  0
 11 18  1  0
 12 19  1  0
M  CHG  1   3  -1
M  END
>  <filename_input>  (25) 
7NSW_HC4_docked.sdf

>  <pdb_id>  (25) 
7NSW_HC4

>  <pose_rank>  (25) 
24

>  <num_atoms_heavy>  (25) 
12

>  <num_torsions>  (25) 
2

>  <pose>  (25) 
[74.04447818344477, 40.68417611781912, 28.641599118471483, 4.3390835356350435, -0.9708716525323723, -2.6234769082044043, -1.7166730075189762, -0.9541418982349684]

>  <energy>  (25) 
-87.95237301063347

>  <inter_energy>  (25) 
-81.5309111578641

>  <intra_energy>  (25) 
0.0

>  <rmsd>  (25) 
11.0433

>  <sdf_rank>  (25) 
0

$$$$

     RDKit          3D

 19 19  0  0  0  0  0  0  0  0999 V2000
   63.2050   41.9350   29.1250 C   0  0  0  0  0  0  0  0  0  0  0  0
   62.4090   41.2910   28.4440 O   0  0  0  0  0  0  0  0  0  0  0  0
   63.4700   41.6580   30.3070 O   0  0  0  0  0  0  0  0  0  0  0  0
   63.8650   43.1330   28.4910 C   0  0  0  0  0  0  0  0  0  0  0  0
   63.5440   43.5940   27.2720 C   0  0  0  0  0  0  0  0  0  0  0  0
   64.2610   44.5570   26.4330 C   0  0  0  0  0  0  0  0  0  0  0  0
   64.0910   44.5630   25.0410 C   0  0  0  0  0  0  0  0  0  0  0  0
   64.8170   45.4100   24.2210 C   0  0  0  0  0  0  0  0  0  0  0  0
   65.7280   46.3010   24.7780 C   0  0  0  0  0  0  0  0  0  0  0  0
   65.8970   46.3350   26.1530 C   0  0  0  0  0  0  0  0  0  0  0  0
   65.2040   45.4470   26.9600 C   0  0  0  0  0  0  0  0  0  0  0  0
   66.4370   47.1580   23.9970 O   0  0  0  0  0  0  0  0  0  0  0  0
   64.6501   43.6563   29.0566 H   0  0  0  0  0  0  0  0  0  0  0  0
   62.6135   43.1930   26.8437 H   0  0  0  0  0  0  0  0  0  0  0  0
   63.3609   43.8760   24.5882 H   0  0  0  0  0  0  0  0  0  0  0  0
   64.6735   45.3783   23.1309 H   0  0  0  0  0  0  0  0  0  0  0  0
   66.5821   47.0678   26.6043 H   0  0  0  0  0  0  0  0  0  0  0  0
   65.4000   45.4414   28.0424 H   0  0  0  0  0  0  0  0  0  0  0  0
   67.0816   47.7859   24.4098 H   0  0  0  0  0  0  0  0  0  0  0  0
  1  2  2  0
  1  3  1  0
  1  4  1  0
  4  5  2  3
  5  6  1  0
  6  7  2  0
  6 11  1  0
  7  8  1  0
  8  9  2  0
  9 10  1  0
  9 12  1  0
 10 11  2  0
  4 13  1  0
  5 14  1  0
  7 15  1  0
  8 16  1  0
 10 17  1  0
 11 18  1  0
 12 19  1  0
M  CHG  1   3  -1
M  END
>  <filename_input>  (26) 
7NSW_HC4_docked.sdf

>  <pdb_id>  (26) 
7NSW_HC4

>  <pose_rank>  (26) 
25

>  <num_atoms_heavy>  (26) 
12

>  <num_torsions>  (26) 
2

>  <pose>  (26) 
[64.261, 44.557, 26.433, 1e-06, 1e-06, 1e-06, 0.0, 0.0]

>  <energy>  (26) 
-663.6679617302517

>  <inter_energy>  (26) 
-667.0906607579482

>  <intra_energy>  (26) 
0.0

>  <rmsd>  (26) 
0.0

>  <sdf_rank>  (26) 
0

$$$$
