
     RDKit          3D

 24 23  0  0  0  0  0  0  0  0999 V2000
   24.1237  -14.0087  -26.7091 N   0  0  0  0  0  0  0  0  0  0  0  0
   22.8937  -13.2953  -26.3382 C   0  0  2  0  0  0  0  0  0  0  0  0
   21.8358  -14.3437  -26.0225 C   0  0  0  0  0  0  0  0  0  0  0  0
   22.4340  -12.3632  -27.4532 C   0  0  0  0  0  0  0  0  0  0  0  0
   23.5354  -11.5722  -28.1477 C   0  0  1  0  0  0  0  0  0  0  0  0
   23.1814  -11.4243  -29.6190 C   0  0  0  0  0  0  0  0  0  0  0  0
   23.7033  -10.1920  -27.4923 C   0  0  0  0  0  0  0  0  0  0  0  0
   20.5662  -13.7350  -25.8521 O   0  0  0  0  0  0  0  0  0  0  0  0
   24.6230  -14.2984  -25.8561 H   0  0  0  0  0  0  0  0  0  0  0  0
   23.8831  -14.8414  -27.2655 H   0  0  0  0  0  0  0  0  0  0  0  0
   24.7270  -13.3864  -27.2655 H   0  0  0  0  0  0  0  0  0  0  0  0
   23.0741  -12.6587  -25.4594 H   0  0  0  0  0  0  0  0  0  0  0  0
   21.7828  -15.0649  -26.8514 H   0  0  0  0  0  0  0  0  0  0  0  0
   22.1117  -14.8567  -25.0894 H   0  0  0  0  0  0  0  0  0  0  0  0
   21.9236  -12.9720  -28.2140 H   0  0  0  0  0  0  0  0  0  0  0  0
   21.7856  -11.6162  -26.9719 H   0  0  0  0  0  0  0  0  0  0  0  0
   24.4905  -12.1093  -28.0513 H   0  0  0  0  0  0  0  0  0  0  0  0
   22.1701  -11.0017  -29.7121 H   0  0  0  0  0  0  0  0  0  0  0  0
   23.9054  -10.7534  -30.1046 H   0  0  0  0  0  0  0  0  0  0  0  0
   23.2127  -12.4108  -30.1046 H   0  0  0  0  0  0  0  0  0  0  0  0
   23.6900  -10.3017  -26.3979 H   0  0  0  0  0  0  0  0  0  0  0  0
   24.6617   -9.7518  -27.8051 H   0  0  0  0  0  0  0  0  0  0  0  0
   22.8785   -9.5348  -27.8051 H   0  0  0  0  0  0  0  0  0  0  0  0
   20.3720  -13.6419  -24.8858 H   0  0  0  0  0  0  0  0  0  0  0  0
  2  1  1  0
  2  3  1  0
  2  4  1  0
  3  8  1  0
  4  5  1  0
  5  6  1  0
  5  7  1  0
  1  9  1  0
  1 10  1  0
  1 11  1  0
  2 12  1  1
  3 13  1  0
  3 14  1  0
  4 15  1  0
  4 16  1  0
  5 17  1  6
  6 18  1  0
  6 19  1  0
  6 20  1  0
  7 21  1  0
  7 22  1  0
  7 23  1  0
  8 24  1  0
M  CHG  1   1   1
M  END
>  <filename_input>  (1) 
7NU0_DCL_docked.sdf

>  <pdb_id>  (1) 
7NU0_DCL

>  <pose_rank>  (1) 
0

>  <num_atoms_heavy>  (1) 
8

>  <num_torsions>  (1) 
3

>  <pose>  (1) 
[24.12365036644627, -14.008730243214313, -26.709061585473883, -5.3144014148189, -1.8064651014518678, -1.9911289512169674, 0.5794224104141678, 0.47795217042968907, -0.5033147178923149]

>  <energy>  (1) 
-432.38909511817195

>  <inter_energy>  (1) 
-423.00483716261385

>  <intra_energy>  (1) 
0.0

>  <rmsd>  (1) 
0.401336

>  <sdf_rank>  (1) 
0

$$$$

     RDKit          3D

 24 23  0  0  0  0  0  0  0  0999 V2000
   24.3234  -10.0840  -27.5393 N   0  0  0  0  0  0  0  0  0  0  0  0
   23.9473  -11.4947  -27.7063 C   0  0  2  0  0  0  0  0  0  0  0  0
   23.2136  -11.6170  -29.0346 C   0  0  0  0  0  0  0  0  0  0  0  0
   23.0820  -11.9801  -26.5491 C   0  0  0  0  0  0  0  0  0  0  0  0
   22.4779  -13.3690  -26.7146 C   0  0  1  0  0  0  0  0  0  0  0  0
   23.5060  -14.4059  -26.2909 C   0  0  0  0  0  0  0  0  0  0  0  0
   21.1981  -13.5040  -25.8740 C   0  0  0  0  0  0  0  0  0  0  0  0
   24.1239  -11.5184  -30.1177 O   0  0  0  0  0  0  0  0  0  0  0  0
   24.3828   -9.8611  -26.5355 H   0  0  0  0  0  0  0  0  0  0  0  0
   25.2381   -9.9177  -27.9827 H   0  0  0  0  0  0  0  0  0  0  0  0
   23.6129   -9.4845  -27.9827 H   0  0  0  0  0  0  0  0  0  0  0  0
   24.8454  -12.1298  -27.7066 H   0  0  0  0  0  0  0  0  0  0  0  0
   22.7039  -12.5908  -29.0780 H   0  0  0  0  0  0  0  0  0  0  0  0
   22.4804  -10.8006  -29.1117 H   0  0  0  0  0  0  0  0  0  0  0  0
   23.7039  -11.9878  -25.6418 H   0  0  0  0  0  0  0  0  0  0  0  0
   22.2301  -11.2860  -26.4994 H   0  0  0  0  0  0  0  0  0  0  0  0
   22.2069  -13.5289  -27.7687 H   0  0  0  0  0  0  0  0  0  0  0  0
   23.5504  -14.4507  -25.1927 H   0  0  0  0  0  0  0  0  0  0  0  0
   23.2179  -15.3910  -26.6867 H   0  0  0  0  0  0  0  0  0  0  0  0
   24.4935  -14.1263  -26.6867 H   0  0  0  0  0  0  0  0  0  0  0  0
   21.4569  -13.4767  -24.8052 H   0  0  0  0  0  0  0  0  0  0  0  0
   20.5166  -12.6728  -26.1076 H   0  0  0  0  0  0  0  0  0  0  0  0
   20.7051  -14.4591  -26.1076 H   0  0  0  0  0  0  0  0  0  0  0  0
   25.0444  -11.4187  -29.7671 H   0  0  0  0  0  0  0  0  0  0  0  0
  2  1  1  0
  2  3  1  0
  2  4  1  0
  3  8  1  0
  4  5  1  0
  5  6  1  0
  5  7  1  0
  1  9  1  0
  1 10  1  0
  1 11  1  0
  2 12  1  6
  3 13  1  0
  3 14  1  0
  4 15  1  0
  4 16  1  0
  5 17  1  6
  6 18  1  0
  6 19  1  0
  6 20  1  0
  7 21  1  0
  7 22  1  0
  7 23  1  0
  8 24  1  0
M  CHG  1   1   1
M  END
>  <filename_input>  (2) 
7NU0_DCL_docked.sdf

>  <pdb_id>  (2) 
7NU0_DCL

>  <pose_rank>  (2) 
1

>  <num_atoms_heavy>  (2) 
8

>  <num_torsions>  (2) 
3

>  <pose>  (2) 
[24.323380692516317, -10.084028674603214, -27.539275212111157, -3.117730892534196, -0.9655666057035251, -1.1720914028264668, -1.428042184356534, -2.075398696276707, -7.855677132763636]

>  <energy>  (2) 
-408.8096094993847

>  <inter_energy>  (2) 
-388.0171113507847

>  <intra_energy>  (2) 
0.0

>  <rmsd>  (2) 
3.9875

>  <sdf_rank>  (2) 
0

$$$$

     RDKit          3D

 24 23  0  0  0  0  0  0  0  0999 V2000
   21.4109  -13.0232  -25.3530 N   0  0  0  0  0  0  0  0  0  0  0  0
   22.4649  -12.9582  -26.3748 C   0  0  2  0  0  0  0  0  0  0  0  0
   23.4089  -14.1277  -26.1315 C   0  0  0  0  0  0  0  0  0  0  0  0
   23.2071  -11.6278  -26.3240 C   0  0  0  0  0  0  0  0  0  0  0  0
   23.1069  -10.7684  -27.5781 C   0  0  1  0  0  0  0  0  0  0  0  0
   24.2140   -9.7265  -27.5498 C   0  0  0  0  0  0  0  0  0  0  0  0
   23.2190  -11.6398  -28.8393 C   0  0  0  0  0  0  0  0  0  0  0  0
   22.7073  -15.2267  -25.5736 O   0  0  0  0  0  0  0  0  0  0  0  0
   21.8386  -12.9969  -24.4164 H   0  0  0  0  0  0  0  0  0  0  0  0
   20.7758  -12.2198  -25.4632 H   0  0  0  0  0  0  0  0  0  0  0  0
   20.8794  -13.8986  -25.4632 H   0  0  0  0  0  0  0  0  0  0  0  0
   22.0240  -13.0266  -27.3803 H   0  0  0  0  0  0  0  0  0  0  0  0
   23.8594  -14.4337  -27.0872 H   0  0  0  0  0  0  0  0  0  0  0  0
   24.1916  -13.8113  -25.4264 H   0  0  0  0  0  0  0  0  0  0  0  0
   22.8022  -11.0466  -25.4825 H   0  0  0  0  0  0  0  0  0  0  0  0
   24.2721  -11.8819  -26.2184 H   0  0  0  0  0  0  0  0  0  0  0  0
   22.1289  -10.2654  -27.6020 H   0  0  0  0  0  0  0  0  0  0  0  0
   24.4669   -9.4885  -26.5060 H   0  0  0  0  0  0  0  0  0  0  0  0
   25.1035  -10.1227  -28.0614 H   0  0  0  0  0  0  0  0  0  0  0  0
   23.8725   -8.8146  -28.0614 H   0  0  0  0  0  0  0  0  0  0  0  0
   23.3543  -12.6917  -28.5473 H   0  0  0  0  0  0  0  0  0  0  0  0
   22.3007  -11.5402  -29.4366 H   0  0  0  0  0  0  0  0  0  0  0  0
   24.0823  -11.3111  -29.4366 H   0  0  0  0  0  0  0  0  0  0  0  0
   22.7416  -15.1729  -24.5856 H   0  0  0  0  0  0  0  0  0  0  0  0
  2  1  1  0
  2  3  1  0
  2  4  1  0
  3  8  1  0
  4  5  1  0
  5  6  1  0
  5  7  1  0
  1  9  1  0
  1 10  1  0
  1 11  1  0
  2 12  1  6
  3 13  1  0
  3 14  1  0
  4 15  1  0
  4 16  1  0
  5 17  1  6
  6 18  1  0
  6 19  1  0
  6 20  1  0
  7 21  1  0
  7 22  1  0
  7 23  1  0
  8 24  1  0
M  CHG  1   1   1
M  END
>  <filename_input>  (3) 
7NU0_DCL_docked.sdf

>  <pdb_id>  (3) 
7NU0_DCL

>  <pose_rank>  (3) 
2

>  <num_atoms_heavy>  (3) 
8

>  <num_torsions>  (3) 
3

>  <pose>  (3) 
[21.410885199030453, -13.023248071608693, -25.35299669624305, -0.2549253983651842, -2.4083049041169704, 1.4024230121847474, -8.462980981097495, 5.43306886808922, 6.699794386803889]

>  <energy>  (3) 
-353.597525717791

>  <inter_energy>  (3) 
-333.74366267596855

>  <intra_energy>  (3) 
0.4171603839013969

>  <rmsd>  (3) 
1.86153

>  <sdf_rank>  (3) 
0

$$$$

     RDKit          3D

 24 23  0  0  0  0  0  0  0  0999 V2000
   23.9636  -13.7618  -27.4506 N   0  0  0  0  0  0  0  0  0  0  0  0
   22.6074  -13.2240  -27.2753 C   0  0  2  0  0  0  0  0  0  0  0  0
   22.3677  -12.2180  -28.3926 C   0  0  0  0  0  0  0  0  0  0  0  0
   22.4379  -12.5797  -25.9043 C   0  0  0  0  0  0  0  0  0  0  0  0
   22.3477  -11.0588  -25.8970 C   0  0  1  0  0  0  0  0  0  0  0  0
   21.9155  -10.5986  -24.5137 C   0  0  0  0  0  0  0  0  0  0  0  0
   23.7019  -10.4366  -26.2733 C   0  0  0  0  0  0  0  0  0  0  0  0
   23.4661  -12.1983  -29.2895 O   0  0  0  0  0  0  0  0  0  0  0  0
   24.3882  -13.9302  -26.5275 H   0  0  0  0  0  0  0  0  0  0  0  0
   23.9166  -14.6479  -27.9737 H   0  0  0  0  0  0  0  0  0  0  0  0
   24.5367  -13.0844  -27.9737 H   0  0  0  0  0  0  0  0  0  0  0  0
   21.8671  -14.0359  -27.3276 H   0  0  0  0  0  0  0  0  0  0  0  0
   21.4569  -12.4981  -28.9422 H   0  0  0  0  0  0  0  0  0  0  0  0
   22.2523  -11.2174  -27.9506 H   0  0  0  0  0  0  0  0  0  0  0  0
   21.5143  -12.9753  -25.4566 H   0  0  0  0  0  0  0  0  0  0  0  0
   23.3487  -12.8293  -25.3404 H   0  0  0  0  0  0  0  0  0  0  0  0
   21.6077  -10.7307  -26.6417 H   0  0  0  0  0  0  0  0  0  0  0  0
   22.4572  -11.1754  -23.7496 H   0  0  0  0  0  0  0  0  0  0  0  0
   22.1430   -9.5289  -24.3955 H   0  0  0  0  0  0  0  0  0  0  0  0
   20.8337  -10.7587  -24.3955 H   0  0  0  0  0  0  0  0  0  0  0  0
   24.2557  -10.1822  -25.3575 H   0  0  0  0  0  0  0  0  0  0  0  0
   24.2846  -11.1573  -26.8658 H   0  0  0  0  0  0  0  0  0  0  0  0
   23.5347   -9.5250  -26.8658 H   0  0  0  0  0  0  0  0  0  0  0  0
   24.3119  -12.1831  -28.7753 H   0  0  0  0  0  0  0  0  0  0  0  0
  2  1  1  0
  2  3  1  0
  2  4  1  0
  3  8  1  0
  4  5  1  0
  5  6  1  0
  5  7  1  0
  1  9  1  0
  1 10  1  0
  1 11  1  0
  2 12  1  6
  3 13  1  0
  3 14  1  0
  4 15  1  0
  4 16  1  0
  5 17  1  6
  6 18  1  0
  6 19  1  0
  6 20  1  0
  7 21  1  0
  7 22  1  0
  7 23  1  0
  8 24  1  0
M  CHG  1   1   1
M  END
>  <filename_input>  (4) 
7NU0_DCL_docked.sdf

>  <pdb_id>  (4) 
7NU0_DCL

>  <pose_rank>  (4) 
3

>  <num_atoms_heavy>  (4) 
8

>  <num_torsions>  (4) 
3

>  <pose>  (4) 
[23.96363587363207, -13.761847335196064, -27.45063865838217, 2.203437863041106, -1.208168067050717, -0.04676576094156075, -2.6367839359762257, 3.0960123311639163, 6.2039939815516325]

>  <energy>  (4) 
-281.37545022089006

>  <inter_energy>  (4) 
-299.70609263338815

>  <intra_energy>  (4) 
16.932108758742057

>  <rmsd>  (4) 
2.99789

>  <sdf_rank>  (4) 
0

$$$$

     RDKit          3D

 24 23  0  0  0  0  0  0  0  0999 V2000
   22.8932  -13.0598  -28.9422 N   0  0  0  0  0  0  0  0  0  0  0  0
   22.9027  -11.7505  -28.2752 C   0  0  2  0  0  0  0  0  0  0  0  0
   24.0293  -10.9328  -28.8915 C   0  0  0  0  0  0  0  0  0  0  0  0
   23.0839  -11.8954  -26.7686 C   0  0  0  0  0  0  0  0  0  0  0  0
   21.9115  -12.5170  -26.0201 C   0  0  1  0  0  0  0  0  0  0  0  0
   22.1144  -14.0223  -25.9517 C   0  0  0  0  0  0  0  0  0  0  0  0
   21.7986  -11.9236  -24.6067 C   0  0  0  0  0  0  0  0  0  0  0  0
   24.1891  -11.2584  -30.2626 O   0  0  0  0  0  0  0  0  0  0  0  0
   22.8878  -13.8065  -28.2328 H   0  0  0  0  0  0  0  0  0  0  0  0
   22.0517  -13.1393  -29.5307 H   0  0  0  0  0  0  0  0  0  0  0  0
   23.7336  -13.1514  -29.5307 H   0  0  0  0  0  0  0  0  0  0  0  0
   21.9381  -11.2425  -28.4218 H   0  0  0  0  0  0  0  0  0  0  0  0
   23.7918   -9.8627  -28.7992 H   0  0  0  0  0  0  0  0  0  0  0  0
   24.9654  -11.1614  -28.3609 H   0  0  0  0  0  0  0  0  0  0  0  0
   23.9689  -12.5248  -26.5934 H   0  0  0  0  0  0  0  0  0  0  0  0
   23.1810  -10.8717  -26.3779 H   0  0  0  0  0  0  0  0  0  0  0  0
   20.9755  -12.2958  -26.5540 H   0  0  0  0  0  0  0  0  0  0  0  0
   22.1571  -14.3391  -24.8991 H   0  0  0  0  0  0  0  0  0  0  0  0
   21.2763  -14.5284  -26.4532 H   0  0  0  0  0  0  0  0  0  0  0  0
   23.0565  -14.2885  -26.4532 H   0  0  0  0  0  0  0  0  0  0  0  0
   21.9499  -12.7189  -23.8620 H   0  0  0  0  0  0  0  0  0  0  0  0
   22.5650  -11.1458  -24.4733 H   0  0  0  0  0  0  0  0  0  0  0  0
   20.8003  -11.4813  -24.4733 H   0  0  0  0  0  0  0  0  0  0  0  0
   24.6238  -12.1443  -30.3428 H   0  0  0  0  0  0  0  0  0  0  0  0
  2  1  1  0
  2  3  1  0
  2  4  1  0
  3  8  1  0
  4  5  1  0
  5  6  1  0
  5  7  1  0
  1  9  1  0
  1 10  1  0
  1 11  1  0
  2 12  1  1
  3 13  1  0
  3 14  1  0
  4 15  1  0
  4 16  1  0
  5 17  1  6
  6 18  1  0
  6 19  1  0
  6 20  1  0
  7 21  1  0
  7 22  1  0
  7 23  1  0
  8 24  1  0
M  CHG  1   1   1
M  END
>  <filename_input>  (5) 
7NU0_DCL_docked.sdf

>  <pdb_id>  (5) 
7NU0_DCL

>  <pose_rank>  (5) 
4

>  <num_atoms_heavy>  (5) 
8

>  <num_torsions>  (5) 
3

>  <pose>  (5) 
[22.89324846432805, -13.059837915472233, -28.942201401347113, -1.4744202708487633, 2.7375579085026027, 0.9314782129219876, -2.1374929288447646, 31.42180374544718, 11.122561234692892]

>  <energy>  (5) 
-327.3692930823255

>  <inter_energy>  (5) 
-332.77411326885505

>  <intra_energy>  (5) 
6.439104567736637

>  <rmsd>  (5) 
3.97558

>  <sdf_rank>  (5) 
0

$$$$

     RDKit          3D

 24 23  0  0  0  0  0  0  0  0999 V2000
   22.4789  -11.0056  -25.1893 N   0  0  0  0  0  0  0  0  0  0  0  0
   22.5817  -11.7417  -26.4569 C   0  0  2  0  0  0  0  0  0  0  0  0
   22.9627  -13.1770  -26.1213 C   0  0  0  0  0  0  0  0  0  0  0  0
   23.6029  -11.1016  -27.3902 C   0  0  0  0  0  0  0  0  0  0  0  0
   23.9632  -11.9121  -28.6289 C   0  0  1  0  0  0  0  0  0  0  0  0
   22.7713  -12.7725  -29.0174 C   0  0  0  0  0  0  0  0  0  0  0  0
   24.3560  -10.9809  -29.7871 C   0  0  0  0  0  0  0  0  0  0  0  0
   21.8367  -14.0315  -26.2366 O   0  0  0  0  0  0  0  0  0  0  0  0
   22.5708  -11.6633  -24.4019 H   0  0  0  0  0  0  0  0  0  0  0  0
   23.2298  -10.3024  -25.1387 H   0  0  0  0  0  0  0  0  0  0  0  0
   21.5640  -10.5352  -25.1387 H   0  0  0  0  0  0  0  0  0  0  0  0
   21.6197  -11.7170  -26.9897 H   0  0  0  0  0  0  0  0  0  0  0  0
   23.7460  -13.5151  -26.8157 H   0  0  0  0  0  0  0  0  0  0  0  0
   23.3314  -13.2135  -25.0855 H   0  0  0  0  0  0  0  0  0  0  0  0
   23.1966  -10.1356  -27.7245 H   0  0  0  0  0  0  0  0  0  0  0  0
   24.5313  -11.0164  -26.8064 H   0  0  0  0  0  0  0  0  0  0  0  0
   24.8263  -12.5574  -28.4080 H   0  0  0  0  0  0  0  0  0  0  0  0
   22.2691  -13.1351  -28.1083 H   0  0  0  0  0  0  0  0  0  0  0  0
   22.0656  -12.1743  -29.6124 H   0  0  0  0  0  0  0  0  0  0  0  0
   23.1170  -13.6307  -29.6124 H   0  0  0  0  0  0  0  0  0  0  0  0
   24.7533  -10.0388  -29.3814 H   0  0  0  0  0  0  0  0  0  0  0  0
   25.1254  -11.4678  -30.4043 H   0  0  0  0  0  0  0  0  0  0  0  0
   23.4703  -10.7698  -30.4043 H   0  0  0  0  0  0  0  0  0  0  0  0
   21.5142  -14.2762  -25.3332 H   0  0  0  0  0  0  0  0  0  0  0  0
  2  1  1  0
  2  3  1  0
  2  4  1  0
  3  8  1  0
  4  5  1  0
  5  6  1  0
  5  7  1  0
  1  9  1  0
  1 10  1  0
  1 11  1  0
  2 12  1  6
  3 13  1  0
  3 14  1  0
  4 15  1  0
  4 16  1  0
  5 17  1  1
  6 18  1  0
  6 19  1  0
  6 20  1  0
  7 21  1  0
  7 22  1  0
  7 23  1  0
  8 24  1  0
M  CHG  1   1   1
M  END
>  <filename_input>  (6) 
7NU0_DCL_docked.sdf

>  <pdb_id>  (6) 
7NU0_DCL

>  <pose_rank>  (6) 
5

>  <num_atoms_heavy>  (6) 
8

>  <num_torsions>  (6) 
3

>  <pose>  (6) 
[22.478856708966756, -11.005595568088076, -25.18926492917721, -0.44668523606518434, -1.4360232374465765, 1.3964088554136278, -0.9063331653166977, -2.109601273214649, -2.5260613299631105]

>  <energy>  (6) 
-315.3123422557527

>  <inter_energy>  (6) 
-337.2221467576957

>  <intra_energy>  (6) 
27.66918064305684

>  <rmsd>  (6) 
2.0959

>  <sdf_rank>  (6) 
0

$$$$

     RDKit          3D

 24 23  0  0  0  0  0  0  0  0999 V2000
   24.7247  -12.3323  -27.1242 N   0  0  0  0  0  0  0  0  0  0  0  0
   23.3705  -12.0087  -27.5943 C   0  0  2  0  0  0  0  0  0  0  0  0
   23.3848  -10.5607  -28.0643 C   0  0  0  0  0  0  0  0  0  0  0  0
   22.3348  -12.2243  -26.4969 C   0  0  0  0  0  0  0  0  0  0  0  0
   21.8752  -13.6631  -26.2972 C   0  0  1  0  0  0  0  0  0  0  0  0
   20.7053  -13.6752  -25.3261 C   0  0  0  0  0  0  0  0  0  0  0  0
   21.4674  -14.2901  -27.6401 C   0  0  0  0  0  0  0  0  0  0  0  0
   24.1008   -9.7469  -27.1497 O   0  0  0  0  0  0  0  0  0  0  0  0
   24.7389  -12.3358  -26.0943 H   0  0  0  0  0  0  0  0  0  0  0  0
   24.9966  -13.2620  -27.4745 H   0  0  0  0  0  0  0  0  0  0  0  0
   25.3876  -11.6261  -27.4745 H   0  0  0  0  0  0  0  0  0  0  0  0
   23.0860  -12.6756  -28.4215 H   0  0  0  0  0  0  0  0  0  0  0  0
   23.8669  -10.5057  -29.0515 H   0  0  0  0  0  0  0  0  0  0  0  0
   22.3484  -10.1975  -28.1267 H   0  0  0  0  0  0  0  0  0  0  0  0
   22.7684  -11.8732  -25.5489 H   0  0  0  0  0  0  0  0  0  0  0  0
   21.4419  -11.6648  -26.8125 H   0  0  0  0  0  0  0  0  0  0  0  0
   22.7022  -14.2594  -25.8844 H   0  0  0  0  0  0  0  0  0  0  0  0
   21.0856  -13.6713  -24.2939 H   0  0  0  0  0  0  0  0  0  0  0  0
   20.0827  -12.7835  -25.4909 H   0  0  0  0  0  0  0  0  0  0  0  0
   20.1013  -14.5797  -25.4909 H   0  0  0  0  0  0  0  0  0  0  0  0
   20.8762  -15.1992  -27.4558 H   0  0  0  0  0  0  0  0  0  0  0  0
   20.8642  -13.5702  -28.2127 H   0  0  0  0  0  0  0  0  0  0  0  0
   22.3701  -14.5496  -28.2127 H   0  0  0  0  0  0  0  0  0  0  0  0
   23.8698  -10.0094  -26.2236 H   0  0  0  0  0  0  0  0  0  0  0  0
  2  1  1  0
  2  3  1  0
  2  4  1  0
  3  8  1  0
  4  5  1  0
  5  6  1  0
  5  7  1  0
  1  9  1  0
  1 10  1  0
  1 11  1  0
  2 12  1  6
  3 13  1  0
  3 14  1  0
  4 15  1  0
  4 16  1  0
  5 17  1  1
  6 18  1  0
  6 19  1  0
  6 20  1  0
  7 21  1  0
  7 22  1  0
  7 23  1  0
  8 24  1  0
M  CHG  1   1   1
M  END
>  <filename_input>  (7) 
7NU0_DCL_docked.sdf

>  <pdb_id>  (7) 
7NU0_DCL

>  <pose_rank>  (7) 
6

>  <num_atoms_heavy>  (7) 
8

>  <num_torsions>  (7) 
3

>  <pose>  (7) 
[24.724651757536936, -12.332346193158102, -27.124242836726687, 2.9527142812618847, -1.389771530951115, 0.477230769890681, 2.8121710221423166, -0.20857701081450628, 0.2573485805528544]

>  <energy>  (7) 
-353.6958666903052

>  <inter_energy>  (7) 
-346.4964300545701

>  <intra_energy>  (7) 
0.0

>  <rmsd>  (7) 
3.67871

>  <sdf_rank>  (7) 
0

$$$$

     RDKit          3D

 24 23  0  0  0  0  0  0  0  0999 V2000
   23.4061  -12.9678  -28.4097 N   0  0  0  0  0  0  0  0  0  0  0  0
   22.8306  -11.6279  -28.2283 C   0  0  2  0  0  0  0  0  0  0  0  0
   23.6990  -10.6492  -29.0066 C   0  0  0  0  0  0  0  0  0  0  0  0
   22.7559  -11.2500  -26.7534 C   0  0  0  0  0  0  0  0  0  0  0  0
   22.0831  -12.2708  -25.8443 C   0  0  1  0  0  0  0  0  0  0  0  0
   21.6152  -11.5692  -24.5791 C   0  0  0  0  0  0  0  0  0  0  0  0
   20.8972  -12.9339  -26.5629 C   0  0  0  0  0  0  0  0  0  0  0  0
   24.0895  -11.2091  -30.2498 O   0  0  0  0  0  0  0  0  0  0  0  0
   23.5879  -13.3910  -27.4884 H   0  0  0  0  0  0  0  0  0  0  0  0
   22.7442  -13.5576  -28.9339 H   0  0  0  0  0  0  0  0  0  0  0  0
   24.2897  -12.8938  -28.9339 H   0  0  0  0  0  0  0  0  0  0  0  0
   21.7974  -11.6041  -28.6049 H   0  0  0  0  0  0  0  0  0  0  0  0
   23.1294   -9.7260  -29.1887 H   0  0  0  0  0  0  0  0  0  0  0  0
   24.6014  -10.4291  -28.4173 H   0  0  0  0  0  0  0  0  0  0  0  0
   23.7834  -11.0992  -26.3905 H   0  0  0  0  0  0  0  0  0  0  0  0
   22.1298  -10.3469  -26.7061 H   0  0  0  0  0  0  0  0  0  0  0  0
   22.8026  -13.0606  -25.5823 H   0  0  0  0  0  0  0  0  0  0  0  0
   21.9812  -12.1180  -23.6988 H   0  0  0  0  0  0  0  0  0  0  0  0
   22.0102  -10.5427  -24.5616 H   0  0  0  0  0  0  0  0  0  0  0  0
   20.5158  -11.5394  -24.5616 H   0  0  0  0  0  0  0  0  0  0  0  0
   20.1910  -13.3286  -25.8175 H   0  0  0  0  0  0  0  0  0  0  0  0
   20.3875  -12.1898  -27.1927 H   0  0  0  0  0  0  0  0  0  0  0  0
   21.2641  -13.7577  -27.1927 H   0  0  0  0  0  0  0  0  0  0  0  0
   24.6483  -12.0105  -30.0898 H   0  0  0  0  0  0  0  0  0  0  0  0
  2  1  1  0
  2  3  1  0
  2  4  1  0
  3  8  1  0
  4  5  1  0
  5  6  1  0
  5  7  1  0
  1  9  1  0
  1 10  1  0
  1 11  1  0
  2 12  1  6
  3 13  1  0
  3 14  1  0
  4 15  1  0
  4 16  1  0
  5 17  1  1
  6 18  1  0
  6 19  1  0
  6 20  1  0
  7 21  1  0
  7 22  1  0
  7 23  1  0
  8 24  1  0
M  CHG  1   1   1
M  END
>  <filename_input>  (8) 
7NU0_DCL_docked.sdf

>  <pdb_id>  (8) 
7NU0_DCL

>  <pose_rank>  (8) 
7

>  <num_atoms_heavy>  (8) 
8

>  <num_torsions>  (8) 
3

>  <pose>  (8) 
[23.406125853646554, -12.967770887416398, -28.409709610013895, 1.7815175205817613, -2.266777863519128, -0.2892555288325094, 4.270662372316763, 0.3075131572485723, 0.482249849111588]

>  <energy>  (8) 
-298.8723010552548

>  <inter_energy>  (8) 
-299.80093997706393

>  <intra_energy>  (8) 
10.246274417281066

>  <rmsd>  (8) 
3.89247

>  <sdf_rank>  (8) 
0

$$$$

     RDKit          3D

 24 23  0  0  0  0  0  0  0  0999 V2000
   24.7964  -10.9942  -26.1732 N   0  0  0  0  0  0  0  0  0  0  0  0
   23.6893  -11.3945  -27.0527 C   0  0  2  0  0  0  0  0  0  0  0  0
   23.0524  -10.1213  -27.5924 C   0  0  0  0  0  0  0  0  0  0  0  0
   22.6707  -12.2510  -26.3096 C   0  0  0  0  0  0  0  0  0  0  0  0
   22.3405  -13.5914  -26.9543 C   0  0  1  0  0  0  0  0  0  0  0  0
   21.5175  -14.4170  -25.9781 C   0  0  0  0  0  0  0  0  0  0  0  0
   21.5692  -13.3826  -28.2674 C   0  0  0  0  0  0  0  0  0  0  0  0
   22.7227   -9.2403  -26.5309 O   0  0  0  0  0  0  0  0  0  0  0  0
   24.5084  -11.0983  -25.1897 H   0  0  0  0  0  0  0  0  0  0  0  0
   25.6142  -11.5928  -26.3566 H   0  0  0  0  0  0  0  0  0  0  0  0
   25.0424  -10.0110  -26.3566 H   0  0  0  0  0  0  0  0  0  0  0  0
   24.0663  -12.0130  -27.8805 H   0  0  0  0  0  0  0  0  0  0  0  0
   23.7603   -9.6220  -28.2702 H   0  0  0  0  0  0  0  0  0  0  0  0
   22.1316  -10.3864  -28.1326 H   0  0  0  0  0  0  0  0  0  0  0  0
   23.0657  -12.4486  -25.3021 H   0  0  0  0  0  0  0  0  0  0  0  0
   21.7331  -11.6758  -26.3155 H   0  0  0  0  0  0  0  0  0  0  0  0
   23.2727  -14.1245  -27.1923 H   0  0  0  0  0  0  0  0  0  0  0  0
   21.7891  -14.1445  -24.9476 H   0  0  0  0  0  0  0  0  0  0  0  0
   20.4479  -14.2179  -26.1403 H   0  0  0  0  0  0  0  0  0  0  0  0
   21.7202  -15.4860  -26.1403 H   0  0  0  0  0  0  0  0  0  0  0  0
   20.5300  -13.1013  -28.0415 H   0  0  0  0  0  0  0  0  0  0  0  0
   22.0475  -12.5816  -28.8502 H   0  0  0  0  0  0  0  0  0  0  0  0
   21.5781  -14.3155  -28.8502 H   0  0  0  0  0  0  0  0  0  0  0  0
   22.8908   -9.6896  -25.6649 H   0  0  0  0  0  0  0  0  0  0  0  0
  2  1  1  0
  2  3  1  0
  2  4  1  0
  3  8  1  0
  4  5  1  0
  5  6  1  0
  5  7  1  0
  1  9  1  0
  1 10  1  0
  1 11  1  0
  2 12  1  6
  3 13  1  0
  3 14  1  0
  4 15  1  0
  4 16  1  0
  5 17  1  6
  6 18  1  0
  6 19  1  0
  6 20  1  0
  7 21  1  0
  7 22  1  0
  7 23  1  0
  8 24  1  0
M  CHG  1   1   1
M  END
>  <filename_input>  (9) 
7NU0_DCL_docked.sdf

>  <pdb_id>  (9) 
7NU0_DCL

>  <pose_rank>  (9) 
8

>  <num_atoms_heavy>  (9) 
8

>  <num_torsions>  (9) 
3

>  <pose>  (9) 
[24.796355442100683, -10.99424706501891, -26.173152199187232, 3.377568595360684, -0.47684292723043403, 0.8959309614086586, 2.6560836386291644, -0.9994293736059503, -0.06597670025589658]

>  <energy>  (9) 
-313.66693241761084

>  <inter_energy>  (9) 
-321.56677044420667

>  <intra_energy>  (9) 
0.7137556504531247

>  <rmsd>  (9) 
3.52567

>  <sdf_rank>  (9) 
0

$$$$

     RDKit          3D

 24 23  0  0  0  0  0  0  0  0999 V2000
   22.5154  -10.7160  -26.8291 N   0  0  0  0  0  0  0  0  0  0  0  0
   23.6941  -11.2537  -27.5227 C   0  0  2  0  0  0  0  0  0  0  0  0
   23.8978  -10.4262  -28.7843 C   0  0  0  0  0  0  0  0  0  0  0  0
   23.5190  -12.7316  -27.8521 C   0  0  0  0  0  0  0  0  0  0  0  0
   22.4557  -13.4658  -27.0449 C   0  0  1  0  0  0  0  0  0  0  0  0
   21.3370  -13.8950  -27.9810 C   0  0  0  0  0  0  0  0  0  0  0  0
   23.0640  -14.6869  -26.3367 C   0  0  0  0  0  0  0  0  0  0  0  0
   23.2667  -11.0451  -29.8935 O   0  0  0  0  0  0  0  0  0  0  0  0
   22.6571  -10.7806  -25.8109 H   0  0  0  0  0  0  0  0  0  0  0  0
   22.3806   -9.7301  -27.0951 H   0  0  0  0  0  0  0  0  0  0  0  0
   21.6825  -11.2603  -27.0951 H   0  0  0  0  0  0  0  0  0  0  0  0
   24.5802  -11.1856  -26.8745 H   0  0  0  0  0  0  0  0  0  0  0  0
   23.4659   -9.4258  -28.6343 H   0  0  0  0  0  0  0  0  0  0  0  0
   24.9760  -10.3482  -28.9874 H   0  0  0  0  0  0  0  0  0  0  0  0
   23.2511  -12.8115  -28.9160 H   0  0  0  0  0  0  0  0  0  0  0  0
   24.4751  -13.2116  -27.5963 H   0  0  0  0  0  0  0  0  0  0  0  0
   22.0519  -12.7949  -26.2724 H   0  0  0  0  0  0  0  0  0  0  0  0
   20.4711  -14.2271  -27.3895 H   0  0  0  0  0  0  0  0  0  0  0  0
   21.0437  -13.0456  -28.6154 H   0  0  0  0  0  0  0  0  0  0  0  0
   21.6870  -14.7227  -28.6154 H   0  0  0  0  0  0  0  0  0  0  0  0
   22.9960  -14.5504  -25.2473 H   0  0  0  0  0  0  0  0  0  0  0  0
   22.5117  -15.5925  -26.6280 H   0  0  0  0  0  0  0  0  0  0  0  0
   24.1196  -14.7915  -26.6280 H   0  0  0  0  0  0  0  0  0  0  0  0
   22.5986  -11.7002  -29.5698 H   0  0  0  0  0  0  0  0  0  0  0  0
  2  1  1  0
  2  3  1  0
  2  4  1  0
  3  8  1  0
  4  5  1  0
  5  6  1  0
  5  7  1  0
  1  9  1  0
  1 10  1  0
  1 11  1  0
  2 12  1  1
  3 13  1  0
  3 14  1  0
  4 15  1  0
  4 16  1  0
  5 17  1  1
  6 18  1  0
  6 19  1  0
  6 20  1  0
  7 21  1  0
  7 22  1  0
  7 23  1  0
  8 24  1  0
M  CHG  1   1   1
M  END
>  <filename_input>  (10) 
7NU0_DCL_docked.sdf

>  <pdb_id>  (10) 
7NU0_DCL

>  <pose_rank>  (10) 
9

>  <num_atoms_heavy>  (10) 
8

>  <num_torsions>  (10) 
3

>  <pose>  (10) 
[22.515444281760402, -10.715962492172475, -26.82906793377493, 1.7496487975426422, 1.4698101205560319, 2.7959377038361577, 1.9219634226649984, 7.150357096288386, 5.246762060717425]

>  <energy>  (10) 
-322.92653955938454

>  <inter_energy>  (10) 
-326.87606876808934

>  <intra_energy>  (10) 
0.4266540713715351

>  <rmsd>  (10) 
3.85948

>  <sdf_rank>  (10) 
0

$$$$

     RDKit          3D

 24 23  0  0  0  0  0  0  0  0999 V2000
   24.1655  -10.7706  -26.9871 N   0  0  0  0  0  0  0  0  0  0  0  0
   23.7351  -11.8991  -27.8240 C   0  0  2  0  0  0  0  0  0  0  0  0
   23.7899  -11.4386  -29.2741 C   0  0  0  0  0  0  0  0  0  0  0  0
   22.3357  -12.3701  -27.4453 C   0  0  0  0  0  0  0  0  0  0  0  0
   22.2420  -13.2029  -26.1729 C   0  0  1  0  0  0  0  0  0  0  0  0
   20.7890  -13.5876  -25.9431 C   0  0  0  0  0  0  0  0  0  0  0  0
   23.1208  -14.4590  -26.2847 C   0  0  0  0  0  0  0  0  0  0  0  0
   22.6520  -10.6538  -29.5912 O   0  0  0  0  0  0  0  0  0  0  0  0
   24.0690  -11.0237  -25.9934 H   0  0  0  0  0  0  0  0  0  0  0  0
   25.1504  -10.5482  -27.1907 H   0  0  0  0  0  0  0  0  0  0  0  0
   23.5789   -9.9488  -27.1907 H   0  0  0  0  0  0  0  0  0  0  0  0
   24.4016  -12.7608  -27.6719 H   0  0  0  0  0  0  0  0  0  0  0  0
   24.6982  -10.8377  -29.4286 H   0  0  0  0  0  0  0  0  0  0  0  0
   23.8040  -12.3236  -29.9273 H   0  0  0  0  0  0  0  0  0  0  0  0
   21.7032  -11.4798  -27.3141 H   0  0  0  0  0  0  0  0  0  0  0  0
   22.0101  -13.0314  -28.2618 H   0  0  0  0  0  0  0  0  0  0  0  0
   22.6056  -12.6123  -25.3192 H   0  0  0  0  0  0  0  0  0  0  0  0
   20.5901  -13.6403  -24.8625 H   0  0  0  0  0  0  0  0  0  0  0  0
   20.1330  -12.8322  -26.4003 H   0  0  0  0  0  0  0  0  0  0  0  0
   20.5927  -14.5687  -26.4003 H   0  0  0  0  0  0  0  0  0  0  0  0
   23.3737  -14.8204  -25.2770 H   0  0  0  0  0  0  0  0  0  0  0  0
   22.5730  -15.2426  -26.8285 H   0  0  0  0  0  0  0  0  0  0  0  0
   24.0447  -14.2128  -26.8285 H   0  0  0  0  0  0  0  0  0  0  0  0
   22.2154  -10.3527  -28.7552 H   0  0  0  0  0  0  0  0  0  0  0  0
  2  1  1  0
  2  3  1  0
  2  4  1  0
  3  8  1  0
  4  5  1  0
  5  6  1  0
  5  7  1  0
  1  9  1  0
  1 10  1  0
  1 11  1  0
  2 12  1  6
  3 13  1  0
  3 14  1  0
  4 15  1  0
  4 16  1  0
  5 17  1  1
  6 18  1  0
  6 19  1  0
  6 20  1  0
  7 21  1  0
  7 22  1  0
  7 23  1  0
  8 24  1  0
M  CHG  1   1   1
M  END
>  <filename_input>  (11) 
7NU0_DCL_docked.sdf

>  <pdb_id>  (11) 
7NU0_DCL

>  <pose_rank>  (11) 
10

>  <num_atoms_heavy>  (11) 
8

>  <num_torsions>  (11) 
3

>  <pose>  (11) 
[24.165505861001005, -10.770581978503047, -26.987105805930092, 2.3877362970116494, 0.16209359833987463, 1.6623117762596913, 2.185744483000928, -0.12855718640902258, 0.11038250867237259]

>  <energy>  (11) 
-387.10501668258627

>  <inter_energy>  (11) 
-373.58858406191047

>  <intra_energy>  (11) 
0.0

>  <rmsd>  (11) 
3.85582

>  <sdf_rank>  (11) 
0

$$$$

     RDKit          3D

 24 23  0  0  0  0  0  0  0  0999 V2000
   24.2372  -12.3474  -26.5973 N   0  0  0  0  0  0  0  0  0  0  0  0
   22.9003  -11.7869  -26.3566 C   0  0  2  0  0  0  0  0  0  0  0  0
   21.9487  -12.9549  -26.1370 C   0  0  0  0  0  0  0  0  0  0  0  0
   22.4457  -10.9137  -27.5203 C   0  0  0  0  0  0  0  0  0  0  0  0
   22.4265  -11.5911  -28.8849 C   0  0  1  0  0  0  0  0  0  0  0  0
   23.7839  -11.4062  -29.5446 C   0  0  0  0  0  0  0  0  0  0  0  0
   22.0965  -13.0853  -28.7405 C   0  0  0  0  0  0  0  0  0  0  0  0
   21.4733  -12.9659  -24.8008 O   0  0  0  0  0  0  0  0  0  0  0  0
   24.6962  -12.5399  -25.6956 H   0  0  0  0  0  0  0  0  0  0  0  0
   24.1510  -13.2232  -27.1326 H   0  0  0  0  0  0  0  0  0  0  0  0
   24.8013  -11.6720  -27.1326 H   0  0  0  0  0  0  0  0  0  0  0  0
   22.9155  -11.1353  -25.4704 H   0  0  0  0  0  0  0  0  0  0  0  0
   21.0949  -12.8598  -26.8239 H   0  0  0  0  0  0  0  0  0  0  0  0
   22.4887  -13.8937  -26.3294 H   0  0  0  0  0  0  0  0  0  0  0  0
   21.4260  -10.5635  -27.3023 H   0  0  0  0  0  0  0  0  0  0  0  0
   23.1876  -10.1051  -27.5968 H   0  0  0  0  0  0  0  0  0  0  0  0
   21.6474  -11.1331  -29.5119 H   0  0  0  0  0  0  0  0  0  0  0  0
   24.5571  -11.3010  -28.7693 H   0  0  0  0  0  0  0  0  0  0  0  0
   24.0095  -12.2820  -30.1709 H   0  0  0  0  0  0  0  0  0  0  0  0
   23.7672  -10.5021  -30.1709 H   0  0  0  0  0  0  0  0  0  0  0  0
   22.0388  -13.3467  -27.6736 H   0  0  0  0  0  0  0  0  0  0  0  0
   21.1302  -13.2957  -29.2223 H   0  0  0  0  0  0  0  0  0  0  0  0
   22.8843  -13.6831  -29.2223 H   0  0  0  0  0  0  0  0  0  0  0  0
   22.2417  -12.9481  -24.1769 H   0  0  0  0  0  0  0  0  0  0  0  0
  2  1  1  0
  2  3  1  0
  2  4  1  0
  3  8  1  0
  4  5  1  0
  5  6  1  0
  5  7  1  0
  1  9  1  0
  1 10  1  0
  1 11  1  0
  2 12  1  1
  3 13  1  0
  3 14  1  0
  4 15  1  0
  4 16  1  0
  5 17  1  6
  6 18  1  0
  6 19  1  0
  6 20  1  0
  7 21  1  0
  7 22  1  0
  7 23  1  0
  8 24  1  0
M  CHG  1   1   1
M  END
>  <filename_input>  (12) 
7NU0_DCL_docked.sdf

>  <pdb_id>  (12) 
7NU0_DCL

>  <pose_rank>  (12) 
11

>  <num_atoms_heavy>  (12) 
8

>  <num_torsions>  (12) 
3

>  <pose>  (12) 
[24.237153640098505, -12.347417389571287, -26.59731875154906, 4.997591773340616, 0.3308248665918019, 4.376755044972591, -0.7409961582759971, 8.476986191227024, 1.6869618855259814]

>  <energy>  (12) 
-270.7394615121945

>  <inter_energy>  (12) 
-330.41651917620993

>  <intra_energy>  (12) 
62.43463745611333

>  <rmsd>  (12) 
1.77561

>  <sdf_rank>  (12) 
0

$$$$

     RDKit          3D

 24 23  0  0  0  0  0  0  0  0999 V2000
   25.8074  -16.8069  -36.9209 N   0  0  0  0  0  0  0  0  0  0  0  0
   25.0770  -17.4020  -35.7933 C   0  0  2  0  0  0  0  0  0  0  0  0
   26.0984  -17.7422  -34.7168 C   0  0  0  0  0  0  0  0  0  0  0  0
   24.2967  -18.6378  -36.2264 C   0  0  0  0  0  0  0  0  0  0  0  0
   24.0477  -19.6753  -35.1388 C   0  0  1  0  0  0  0  0  0  0  0  0
   22.6657  -19.4459  -34.5478 C   0  0  0  0  0  0  0  0  0  0  0  0
   24.1589  -21.0964  -35.7138 C   0  0  0  0  0  0  0  0  0  0  0  0
   27.3824  -17.9291  -35.2893 O   0  0  0  0  0  0  0  0  0  0  0  0
   26.5558  -16.1972  -36.5617 H   0  0  0  0  0  0  0  0  0  0  0  0
   26.2204  -17.5552  -37.4957 H   0  0  0  0  0  0  0  0  0  0  0  0
   25.1580  -16.2512  -37.4957 H   0  0  0  0  0  0  0  0  0  0  0  0
   24.3345  -16.6901  -35.4035 H   0  0  0  0  0  0  0  0  0  0  0  0
   26.1435  -16.9193  -33.9881 H   0  0  0  0  0  0  0  0  0  0  0  0
   25.7925  -18.6742  -34.2190 H   0  0  0  0  0  0  0  0  0  0  0  0
   23.3196  -18.3048  -36.6063 H   0  0  0  0  0  0  0  0  0  0  0  0
   24.9212  -19.1379  -36.9813 H   0  0  0  0  0  0  0  0  0  0  0  0
   24.8071  -19.5707  -34.3500 H   0  0  0  0  0  0  0  0  0  0  0  0
   22.7301  -19.4566  -33.4498 H   0  0  0  0  0  0  0  0  0  0  0  0
   22.2806  -18.4716  -34.8831 H   0  0  0  0  0  0  0  0  0  0  0  0
   21.9865  -20.2436  -34.8831 H   0  0  0  0  0  0  0  0  0  0  0  0
   24.2157  -21.8222  -34.8892 H   0  0  0  0  0  0  0  0  0  0  0  0
   23.2749  -21.3121  -36.3319 H   0  0  0  0  0  0  0  0  0  0  0  0
   25.0657  -21.1720  -36.3319 H   0  0  0  0  0  0  0  0  0  0  0  0
   28.0540  -18.0268  -34.5686 H   0  0  0  0  0  0  0  0  0  0  0  0
  2  1  1  0
  2  3  1  0
  2  4  1  0
  3  8  1  0
  4  5  1  0
  5  6  1  0
  5  7  1  0
  1  9  1  0
  1 10  1  0
  1 11  1  0
  2 12  1  1
  3 13  1  0
  3 14  1  0
  4 15  1  0
  4 16  1  0
  5 17  1  1
  6 18  1  0
  6 19  1  0
  6 20  1  0
  7 21  1  0
  7 22  1  0
  7 23  1  0
  8 24  1  0
M  CHG  1   1   1
M  END
>  <filename_input>  (13) 
7NU0_DCL_docked.sdf

>  <pdb_id>  (13) 
7NU0_DCL

>  <pose_rank>  (13) 
12

>  <num_atoms_heavy>  (13) 
8

>  <num_torsions>  (13) 
3

>  <pose>  (13) 
[25.807431361432574, -16.806896538587225, -36.920932109130035, -0.5915875462080071, 0.9244777250642228, 1.4696589110779585, 3.13696670238839, -2.408298787132776, -1.3521259836202013]

>  <energy>  (13) 
-118.11013139423544

>  <inter_energy>  (13) 
-107.68283057044883

>  <intra_energy>  (13) 
0.0

>  <rmsd>  (13) 
11.0961

>  <sdf_rank>  (13) 
0

$$$$

     RDKit          3D

 24 23  0  0  0  0  0  0  0  0999 V2000
   28.9865  -18.7582  -34.5999 N   0  0  0  0  0  0  0  0  0  0  0  0
   28.3441  -18.5224  -35.9004 C   0  0  2  0  0  0  0  0  0  0  0  0
   29.4114  -17.9897  -36.8464 C   0  0  0  0  0  0  0  0  0  0  0  0
   27.1784  -17.5482  -35.7761 C   0  0  0  0  0  0  0  0  0  0  0  0
   25.8145  -18.1801  -35.5274 C   0  0  1  0  0  0  0  0  0  0  0  0
   25.8725  -19.6467  -35.9242 C   0  0  0  0  0  0  0  0  0  0  0  0
   25.4152  -18.0368  -34.0500 C   0  0  0  0  0  0  0  0  0  0  0  0
   29.8761  -16.7226  -36.4107 O   0  0  0  0  0  0  0  0  0  0  0  0
   28.3298  -18.5171  -33.8439 H   0  0  0  0  0  0  0  0  0  0  0  0
   29.2502  -19.7508  -34.5222 H   0  0  0  0  0  0  0  0  0  0  0  0
   29.8297  -18.1718  -34.5222 H   0  0  0  0  0  0  0  0  0  0  0  0
   27.9216  -19.4599  -36.2909 H   0  0  0  0  0  0  0  0  0  0  0  0
   30.2553  -18.6948  -36.8734 H   0  0  0  0  0  0  0  0  0  0  0  0
   28.9742  -17.8816  -37.8500 H   0  0  0  0  0  0  0  0  0  0  0  0
   27.3937  -16.8681  -34.9388 H   0  0  0  0  0  0  0  0  0  0  0  0
   27.1027  -17.0444  -36.7510 H   0  0  0  0  0  0  0  0  0  0  0  0
   25.0545  -17.6648  -36.1333 H   0  0  0  0  0  0  0  0  0  0  0  0
   25.8971  -20.2708  -35.0187 H   0  0  0  0  0  0  0  0  0  0  0  0
   24.9837  -19.9007  -36.5204 H   0  0  0  0  0  0  0  0  0  0  0  0
   26.7785  -19.8297  -36.5204 H   0  0  0  0  0  0  0  0  0  0  0  0
   26.2581  -18.3393  -33.4114 H   0  0  0  0  0  0  0  0  0  0  0  0
   25.1542  -16.9889  -33.8407 H   0  0  0  0  0  0  0  0  0  0  0  0
   24.5474  -18.6796  -33.8407 H   0  0  0  0  0  0  0  0  0  0  0  0
   29.8855  -16.6970  -35.4211 H   0  0  0  0  0  0  0  0  0  0  0  0
  2  1  1  0
  2  3  1  0
  2  4  1  0
  3  8  1  0
  4  5  1  0
  5  6  1  0
  5  7  1  0
  1  9  1  0
  1 10  1  0
  1 11  1  0
  2 12  1  6
  3 13  1  0
  3 14  1  0
  4 15  1  0
  4 16  1  0
  5 17  1  6
  6 18  1  0
  6 19  1  0
  6 20  1  0
  7 21  1  0
  7 22  1  0
  7 23  1  0
  8 24  1  0
M  CHG  1   1   1
M  END
>  <filename_input>  (14) 
7NU0_DCL_docked.sdf

>  <pdb_id>  (14) 
7NU0_DCL

>  <pose_rank>  (14) 
13

>  <num_atoms_heavy>  (14) 
8

>  <num_torsions>  (14) 
3

>  <pose>  (14) 
[28.986479608532377, -18.75816921689236, -34.59994491758891, -2.277629045281656, 1.8862954748720395, -1.8544069688950102, 2.4324225095569982, -0.3906056386184641, -3.3620580439156544]

>  <energy>  (14) 
-111.66153885126388

>  <inter_energy>  (14) 
-105.33281031632323

>  <intra_energy>  (14) 
1.2238248343634697

>  <rmsd>  (14) 
11.6647

>  <sdf_rank>  (14) 
0

$$$$

     RDKit          3D

 24 23  0  0  0  0  0  0  0  0999 V2000
   25.9078  -20.4659  -35.7398 N   0  0  0  0  0  0  0  0  0  0  0  0
   25.8267  -20.2466  -34.2890 C   0  0  2  0  0  0  0  0  0  0  0  0
   24.5789  -20.9612  -33.7887 C   0  0  0  0  0  0  0  0  0  0  0  0
   25.7858  -18.7604  -33.9529 C   0  0  0  0  0  0  0  0  0  0  0  0
   26.3792  -17.8300  -35.0034 C   0  0  1  0  0  0  0  0  0  0  0  0
   25.2883  -16.8987  -35.5078 C   0  0  0  0  0  0  0  0  0  0  0  0
   27.5457  -17.0229  -34.4116 C   0  0  0  0  0  0  0  0  0  0  0  0
   23.5909  -21.0093  -34.8050 O   0  0  0  0  0  0  0  0  0  0  0  0
   26.2592  -21.4164  -35.9242 H   0  0  0  0  0  0  0  0  0  0  0  0
   24.9717  -20.3592  -36.1560 H   0  0  0  0  0  0  0  0  0  0  0  0
   26.5493  -19.7759  -36.1560 H   0  0  0  0  0  0  0  0  0  0  0  0
   26.7220  -20.6499  -33.7932 H   0  0  0  0  0  0  0  0  0  0  0  0
   24.8438  -21.9871  -33.4930 H   0  0  0  0  0  0  0  0  0  0  0  0
   24.1753  -20.4094  -32.9269 H   0  0  0  0  0  0  0  0  0  0  0  0
   24.7335  -18.4760  -33.8049 H   0  0  0  0  0  0  0  0  0  0  0  0
   26.4106  -18.6380  -33.0559 H   0  0  0  0  0  0  0  0  0  0  0  0
   26.7718  -18.4246  -35.8414 H   0  0  0  0  0  0  0  0  0  0  0  0
   24.7635  -16.4508  -34.6511 H   0  0  0  0  0  0  0  0  0  0  0  0
   25.7391  -16.1027  -36.1186 H   0  0  0  0  0  0  0  0  0  0  0  0
   24.5729  -17.4689  -36.1186 H   0  0  0  0  0  0  0  0  0  0  0  0
   27.4956  -17.0576  -33.3132 H   0  0  0  0  0  0  0  0  0  0  0  0
   28.4992  -17.4554  -34.7489 H   0  0  0  0  0  0  0  0  0  0  0  0
   27.4772  -15.9782  -34.7489 H   0  0  0  0  0  0  0  0  0  0  0  0
   22.6929  -21.0530  -34.3904 H   0  0  0  0  0  0  0  0  0  0  0  0
  2  1  1  0
  2  3  1  0
  2  4  1  0
  3  8  1  0
  4  5  1  0
  5  6  1  0
  5  7  1  0
  1  9  1  0
  1 10  1  0
  1 11  1  0
  2 12  1  1
  3 13  1  0
  3 14  1  0
  4 15  1  0
  4 16  1  0
  5 17  1  6
  6 18  1  0
  6 19  1  0
  6 20  1  0
  7 21  1  0
  7 22  1  0
  7 23  1  0
  8 24  1  0
M  CHG  1   1   1
M  END
>  <filename_input>  (15) 
7NU0_DCL_docked.sdf

>  <pdb_id>  (15) 
7NU0_DCL

>  <pose_rank>  (15) 
14

>  <num_atoms_heavy>  (15) 
8

>  <num_torsions>  (15) 
3

>  <pose>  (15) 
[25.90776313023659, -20.46591780656436, -35.73975641317669, -3.757363133553823, -2.3853008849196238, 1.6869616494368633, 3.056925379488635, 7.077621438265645, -0.9682940010116597]

>  <energy>  (15) 
-110.72275961279799

>  <inter_energy>  (15) 
-105.61824807842261

>  <intra_energy>  (15) 
0.15545198713462158

>  <rmsd>  (15) 
10.4142

>  <sdf_rank>  (15) 
0

$$$$

     RDKit          3D

 24 23  0  0  0  0  0  0  0  0999 V2000
   25.4309  -20.9058  -33.4670 N   0  0  0  0  0  0  0  0  0  0  0  0
   25.6045  -20.0948  -34.6801 C   0  0  2  0  0  0  0  0  0  0  0  0
   25.8404  -21.0530  -35.8394 C   0  0  0  0  0  0  0  0  0  0  0  0
   26.7595  -19.1115  -34.5307 C   0  0  0  0  0  0  0  0  0  0  0  0
   26.5748  -17.7670  -35.2232 C   0  0  1  0  0  0  0  0  0  0  0  0
   27.0585  -17.8834  -36.6599 C   0  0  0  0  0  0  0  0  0  0  0  0
   25.0991  -17.3388  -35.1844 C   0  0  0  0  0  0  0  0  0  0  0  0
   26.1568  -22.3491  -35.3583 O   0  0  0  0  0  0  0  0  0  0  0  0
   25.5581  -20.3114  -32.6355 H   0  0  0  0  0  0  0  0  0  0  0  0
   24.4840  -21.3112  -33.4576 H   0  0  0  0  0  0  0  0  0  0  0  0
   26.1287  -21.6633  -33.4576 H   0  0  0  0  0  0  0  0  0  0  0  0
   24.7054  -19.4882  -34.8633 H   0  0  0  0  0  0  0  0  0  0  0  0
   24.9300  -21.1078  -36.4544 H   0  0  0  0  0  0  0  0  0  0  0  0
   26.6835  -20.6819  -36.4407 H   0  0  0  0  0  0  0  0  0  0  0  0
   26.9055  -18.9217  -33.4571 H   0  0  0  0  0  0  0  0  0  0  0  0
   27.6228  -19.5855  -35.0206 H   0  0  0  0  0  0  0  0  0  0  0  0
   27.1622  -16.9992  -34.6983 H   0  0  0  0  0  0  0  0  0  0  0  0
   28.1280  -18.1409  -36.6670 H   0  0  0  0  0  0  0  0  0  0  0  0
   26.4886  -18.6700  -37.1761 H   0  0  0  0  0  0  0  0  0  0  0  0
   26.9090  -16.9236  -37.1761 H   0  0  0  0  0  0  0  0  0  0  0  0
   24.7722  -17.2439  -34.1384 H   0  0  0  0  0  0  0  0  0  0  0  0
   24.9847  -16.3704  -35.6935 H   0  0  0  0  0  0  0  0  0  0  0  0
   24.4842  -18.0956  -35.6935 H   0  0  0  0  0  0  0  0  0  0  0  0
   26.1553  -22.3431  -34.3683 H   0  0  0  0  0  0  0  0  0  0  0  0
  2  1  1  0
  2  3  1  0
  2  4  1  0
  3  8  1  0
  4  5  1  0
  5  6  1  0
  5  7  1  0
  1  9  1  0
  1 10  1  0
  1 11  1  0
  2 12  1  6
  3 13  1  0
  3 14  1  0
  4 15  1  0
  4 16  1  0
  5 17  1  1
  6 18  1  0
  6 19  1  0
  6 20  1  0
  7 21  1  0
  7 22  1  0
  7 23  1  0
  8 24  1  0
M  CHG  1   1   1
M  END
>  <filename_input>  (16) 
7NU0_DCL_docked.sdf

>  <pdb_id>  (16) 
7NU0_DCL

>  <pose_rank>  (16) 
15

>  <num_atoms_heavy>  (16) 
8

>  <num_torsions>  (16) 
3

>  <pose>  (16) 
[25.430864918689124, -20.905811536429507, -33.466993098007386, 0.16708479380477753, -1.9249364709798809, 0.32464327114334085, -2.9752998225564764, -1.3288495164865552, -4.554476521002679]

>  <energy>  (16) 
-106.98110860497546

>  <inter_energy>  (16) 
-104.07513478003058

>  <intra_energy>  (16) 
2.8214761479972963

>  <rmsd>  (16) 
11.1791

>  <sdf_rank>  (16) 
0

$$$$

     RDKit          3D

 24 23  0  0  0  0  0  0  0  0999 V2000
   28.5067  -15.8219  -35.6068 N   0  0  0  0  0  0  0  0  0  0  0  0
   29.8927  -15.7168  -36.0838 C   0  0  2  0  0  0  0  0  0  0  0  0
   30.4235  -17.1329  -36.2588 C   0  0  0  0  0  0  0  0  0  0  0  0
   30.7554  -14.9181  -35.1136 C   0  0  0  0  0  0  0  0  0  0  0  0
   31.8829  -14.1108  -35.7446 C   0  0  1  0  0  0  0  0  0  0  0  0
   31.2922  -13.1683  -36.7812 C   0  0  0  0  0  0  0  0  0  0  0  0
   32.6466  -13.3200  -34.6703 C   0  0  0  0  0  0  0  0  0  0  0  0
   30.9651  -17.6162  -35.0404 O   0  0  0  0  0  0  0  0  0  0  0  0
   28.4972  -15.8226  -34.5768 H   0  0  0  0  0  0  0  0  0  0  0  0
   27.9622  -15.0198  -35.9546 H   0  0  0  0  0  0  0  0  0  0  0  0
   28.0894  -16.6969  -35.9546 H   0  0  0  0  0  0  0  0  0  0  0  0
   29.9249  -15.1762  -37.0412 H   0  0  0  0  0  0  0  0  0  0  0  0
   29.6008  -17.7910  -36.5751 H   0  0  0  0  0  0  0  0  0  0  0  0
   31.2168  -17.1231  -37.0207 H   0  0  0  0  0  0  0  0  0  0  0  0
   30.0994  -14.2188  -34.5746 H   0  0  0  0  0  0  0  0  0  0  0  0
   31.2439  -15.6603  -34.4651 H   0  0  0  0  0  0  0  0  0  0  0  0
   32.5957  -14.7927  -36.2313 H   0  0  0  0  0  0  0  0  0  0  0  0
   30.7742  -12.3419  -36.2725 H   0  0  0  0  0  0  0  0  0  0  0  0
   32.0985  -12.7635  -37.4106 H   0  0  0  0  0  0  0  0  0  0  0  0
   30.5765  -13.7175  -37.4106 H   0  0  0  0  0  0  0  0  0  0  0  0
   32.3252  -13.6528  -33.6723 H   0  0  0  0  0  0  0  0  0  0  0  0
   33.7266  -13.4946  -34.7849 H   0  0  0  0  0  0  0  0  0  0  0  0
   32.4344  -12.2468  -34.7849 H   0  0  0  0  0  0  0  0  0  0  0  0
   30.4928  -17.1948  -34.2791 H   0  0  0  0  0  0  0  0  0  0  0  0
  2  1  1  0
  2  3  1  0
  2  4  1  0
  3  8  1  0
  4  5  1  0
  5  6  1  0
  5  7  1  0
  1  9  1  0
  1 10  1  0
  1 11  1  0
  2 12  1  6
  3 13  1  0
  3 14  1  0
  4 15  1  0
  4 16  1  0
  5 17  1  6
  6 18  1  0
  6 19  1  0
  6 20  1  0
  7 21  1  0
  7 22  1  0
  7 23  1  0
  8 24  1  0
M  CHG  1   1   1
M  END
>  <filename_input>  (17) 
7NU0_DCL_docked.sdf

>  <pdb_id>  (17) 
7NU0_DCL

>  <pose_rank>  (17) 
16

>  <num_atoms_heavy>  (17) 
8

>  <num_torsions>  (17) 
3

>  <pose>  (17) 
[28.50674150508588, -15.821885452386299, -35.60679904481746, -0.7606819105803982, -2.7944735353280317, 0.5923896451384145, -4.232448620366095, -1.3775349928774472, -2.0429300682342464]

>  <energy>  (17) 
-103.41148535854934

>  <inter_energy>  (17) 
-83.79786059976877

>  <intra_energy>  (17) 
0.0

>  <rmsd>  (17) 
12.0607

>  <sdf_rank>  (17) 
0

$$$$

     RDKit          3D

 24 23  0  0  0  0  0  0  0  0999 V2000
   26.2840  -16.1364  -35.3544 N   0  0  0  0  0  0  0  0  0  0  0  0
   25.9988  -17.5610  -35.1340 C   0  0  2  0  0  0  0  0  0  0  0  0
   24.7199  -17.6484  -34.3127 C   0  0  0  0  0  0  0  0  0  0  0  0
   27.1575  -18.2574  -34.4299 C   0  0  0  0  0  0  0  0  0  0  0  0
   27.9209  -19.2766  -35.2665 C   0  0  1  0  0  0  0  0  0  0  0  0
   28.8489  -18.5364  -36.2167 C   0  0  0  0  0  0  0  0  0  0  0  0
   28.7220  -20.2258  -34.3611 C   0  0  0  0  0  0  0  0  0  0  0  0
   23.9330  -18.7515  -34.7317 O   0  0  0  0  0  0  0  0  0  0  0  0
   26.3792  -15.6607  -34.4458 H   0  0  0  0  0  0  0  0  0  0  0  0
   27.1610  -16.0400  -35.8860 H   0  0  0  0  0  0  0  0  0  0  0  0
   25.5117  -15.7099  -35.8860 H   0  0  0  0  0  0  0  0  0  0  0  0
   25.8696  -18.0760  -36.0974 H   0  0  0  0  0  0  0  0  0  0  0  0
   24.9796  -17.7718  -33.2510 H   0  0  0  0  0  0  0  0  0  0  0  0
   24.1412  -16.7242  -34.4575 H   0  0  0  0  0  0  0  0  0  0  0  0
   27.8699  -17.4846  -34.1056 H   0  0  0  0  0  0  0  0  0  0  0  0
   26.7083  -18.8249  -33.6016 H   0  0  0  0  0  0  0  0  0  0  0  0
   27.2096  -19.8838  -35.8456 H   0  0  0  0  0  0  0  0  0  0  0  0
   29.5794  -17.9538  -35.6362 H   0  0  0  0  0  0  0  0  0  0  0  0
   29.3794  -19.2622  -36.8507 H   0  0  0  0  0  0  0  0  0  0  0  0
   28.2594  -17.8578  -36.8507 H   0  0  0  0  0  0  0  0  0  0  0  0
   28.5191  -19.9854  -33.3071 H   0  0  0  0  0  0  0  0  0  0  0  0
   28.4237  -21.2650  -34.5641 H   0  0  0  0  0  0  0  0  0  0  0  0
   29.7965  -20.1065  -34.5641 H   0  0  0  0  0  0  0  0  0  0  0  0
   23.5898  -19.2326  -33.9374 H   0  0  0  0  0  0  0  0  0  0  0  0
  2  1  1  0
  2  3  1  0
  2  4  1  0
  3  8  1  0
  4  5  1  0
  5  6  1  0
  5  7  1  0
  1  9  1  0
  1 10  1  0
  1 11  1  0
  2 12  1  6
  3 13  1  0
  3 14  1  0
  4 15  1  0
  4 16  1  0
  5 17  1  6
  6 18  1  0
  6 19  1  0
  6 20  1  0
  7 21  1  0
  7 22  1  0
  7 23  1  0
  8 24  1  0
M  CHG  1   1   1
M  END
>  <filename_input>  (18) 
7NU0_DCL_docked.sdf

>  <pdb_id>  (18) 
7NU0_DCL

>  <pose_rank>  (18) 
17

>  <num_atoms_heavy>  (18) 
8

>  <num_torsions>  (18) 
3

>  <pose>  (18) 
[26.284007226108823, -16.136377547491502, -35.354414056791136, -2.439690485912218, -0.8155369078911685, 1.1418679129209544, -0.22226698464118955, -0.7434429227931473, -1.6818721195719817]

>  <energy>  (18) 
-101.91421645486967

>  <inter_energy>  (18) 
-98.14192675225466

>  <intra_energy>  (18) 
0.20669618677054075

>  <rmsd>  (18) 
10.7182

>  <sdf_rank>  (18) 
0

$$$$

     RDKit          3D

 24 23  0  0  0  0  0  0  0  0999 V2000
   30.9265  -17.9673  -17.4178 N   0  0  0  0  0  0  0  0  0  0  0  0
   29.9021  -17.1502  -18.0830 C   0  0  2  0  0  0  0  0  0  0  0  0
   28.7112  -18.0549  -18.3678 C   0  0  0  0  0  0  0  0  0  0  0  0
   30.4381  -16.5210  -19.3637 C   0  0  0  0  0  0  0  0  0  0  0  0
   29.8572  -17.0691  -20.6611 C   0  0  1  0  0  0  0  0  0  0  0  0
   29.4300  -15.9038  -21.5394 C   0  0  0  0  0  0  0  0  0  0  0  0
   30.8923  -17.9416  -21.3891 C   0  0  0  0  0  0  0  0  0  0  0  0
   28.1414  -18.5247  -17.1569 O   0  0  0  0  0  0  0  0  0  0  0  0
   30.8222  -17.8841  -16.3965 H   0  0  0  0  0  0  0  0  0  0  0  0
   30.8133  -18.9527  -17.6954 H   0  0  0  0  0  0  0  0  0  0  0  0
   31.8621  -17.6377  -17.6954 H   0  0  0  0  0  0  0  0  0  0  0  0
   29.6006  -16.3158  -17.4328 H   0  0  0  0  0  0  0  0  0  0  0  0
   27.9529  -17.4888  -18.9286 H   0  0  0  0  0  0  0  0  0  0  0  0
   29.0540  -18.9181  -18.9572 H   0  0  0  0  0  0  0  0  0  0  0  0
   30.2238  -15.4427  -19.3261 H   0  0  0  0  0  0  0  0  0  0  0  0
   31.5113  -16.7611  -19.3900 H   0  0  0  0  0  0  0  0  0  0  0  0
   28.9842  -17.6993  -20.4358 H   0  0  0  0  0  0  0  0  0  0  0  0
   29.1208  -15.0603  -20.9047 H   0  0  0  0  0  0  0  0  0  0  0  0
   30.2733  -15.5949  -22.1745 H   0  0  0  0  0  0  0  0  0  0  0  0
   28.5868  -16.2132  -22.1745 H   0  0  0  0  0  0  0  0  0  0  0  0
   31.5148  -18.4663  -20.6494 H   0  0  0  0  0  0  0  0  0  0  0  0
   30.3726  -18.6782  -22.0195 H   0  0  0  0  0  0  0  0  0  0  0  0
   31.5303  -17.3047  -22.0195 H   0  0  0  0  0  0  0  0  0  0  0  0
   28.6237  -18.1270  -16.3892 H   0  0  0  0  0  0  0  0  0  0  0  0
  2  1  1  0
  2  3  1  0
  2  4  1  0
  3  8  1  0
  4  5  1  0
  5  6  1  0
  5  7  1  0
  1  9  1  0
  1 10  1  0
  1 11  1  0
  2 12  1  1
  3 13  1  0
  3 14  1  0
  4 15  1  0
  4 16  1  0
  5 17  1  1
  6 18  1  0
  6 19  1  0
  6 20  1  0
  7 21  1  0
  7 22  1  0
  7 23  1  0
  8 24  1  0
M  CHG  1   1   1
M  END
>  <filename_input>  (19) 
7NU0_DCL_docked.sdf

>  <pdb_id>  (19) 
7NU0_DCL

>  <pose_rank>  (19) 
18

>  <num_atoms_heavy>  (19) 
8

>  <num_torsions>  (19) 
3

>  <pose>  (19) 
[30.926549873505063, -17.967250351698976, -17.417839614143602, -0.09204108545055611, 5.621956723423172, -0.722835286494556, 4.679110543861425, 3.134783870541021, -7.023223966150012]

>  <energy>  (19) 
-100.96629042177912

>  <inter_energy>  (19) 
-90.04355571108827

>  <intra_energy>  (19) 
0.1551430888154282

>  <rmsd>  (19) 
11.6024

>  <sdf_rank>  (19) 
0

$$$$

     RDKit          3D

 24 23  0  0  0  0  0  0  0  0999 V2000
   16.1732   -5.2002  -34.5959 N   0  0  0  0  0  0  0  0  0  0  0  0
   15.2583   -6.2231  -34.0705 C   0  0  2  0  0  0  0  0  0  0  0  0
   14.9472   -7.1849  -35.2089 C   0  0  0  0  0  0  0  0  0  0  0  0
   13.9860   -5.5967  -33.5116 C   0  0  0  0  0  0  0  0  0  0  0  0
   14.1917   -4.4549  -32.5241 C   0  0  1  0  0  0  0  0  0  0  0  0
   13.5739   -3.1902  -33.0992 C   0  0  0  0  0  0  0  0  0  0  0  0
   13.5570   -4.7955  -31.1662 C   0  0  0  0  0  0  0  0  0  0  0  0
   13.7350   -7.8773  -34.9591 O   0  0  0  0  0  0  0  0  0  0  0  0
   16.6184   -4.7024  -33.8117 H   0  0  0  0  0  0  0  0  0  0  0  0
   16.8981   -5.6513  -35.1721 H   0  0  0  0  0  0  0  0  0  0  0  0
   15.6444   -4.5300  -35.1721 H   0  0  0  0  0  0  0  0  0  0  0  0
   15.7295   -6.7609  -33.2346 H   0  0  0  0  0  0  0  0  0  0  0  0
   14.8530   -6.6173  -36.1464 H   0  0  0  0  0  0  0  0  0  0  0  0
   15.7644   -7.9171  -35.2883 H   0  0  0  0  0  0  0  0  0  0  0  0
   13.3994   -5.2102  -34.3581 H   0  0  0  0  0  0  0  0  0  0  0  0
   13.4812   -6.3946  -32.9473 H   0  0  0  0  0  0  0  0  0  0  0  0
   15.2684   -4.2978  -32.3627 H   0  0  0  0  0  0  0  0  0  0  0  0
   13.2527   -2.5328  -32.2778 H   0  0  0  0  0  0  0  0  0  0  0  0
   14.3180   -2.6672  -33.7179 H   0  0  0  0  0  0  0  0  0  0  0  0
   12.7040   -3.4557  -33.7179 H   0  0  0  0  0  0  0  0  0  0  0  0
   14.2129   -4.4436  -30.3563 H   0  0  0  0  0  0  0  0  0  0  0  0
   12.5773   -4.3020  -31.0853 H   0  0  0  0  0  0  0  0  0  0  0  0
   13.4266   -5.8848  -31.0853 H   0  0  0  0  0  0  0  0  0  0  0  0
   13.5956   -7.9569  -33.9822 H   0  0  0  0  0  0  0  0  0  0  0  0
  2  1  1  0
  2  3  1  0
  2  4  1  0
  3  8  1  0
  4  5  1  0
  5  6  1  0
  5  7  1  0
  1  9  1  0
  1 10  1  0
  1 11  1  0
  2 12  1  1
  3 13  1  0
  3 14  1  0
  4 15  1  0
  4 16  1  0
  5 17  1  1
  6 18  1  0
  6 19  1  0
  6 20  1  0
  7 21  1  0
  7 22  1  0
  7 23  1  0
  8 24  1  0
M  CHG  1   1   1
M  END
>  <filename_input>  (20) 
7NU0_DCL_docked.sdf

>  <pdb_id>  (20) 
7NU0_DCL

>  <pose_rank>  (20) 
19

>  <num_atoms_heavy>  (20) 
8

>  <num_torsions>  (20) 
3

>  <pose>  (20) 
[16.17320695890284, -5.200234969659688, -34.59587139859651, 1.6217775841015996, 0.4331777863925553, 0.8514513896118312, -11.761154992535289, -12.243981654379672, -13.535981105106996]

>  <energy>  (20) 
-76.53951187069912

>  <inter_energy>  (20) 
-82.89422539974521

>  <intra_energy>  (20) 
0.23965424492610443

>  <rmsd>  (20) 
13.1297

>  <sdf_rank>  (20) 
0

$$$$

     RDKit          3D

 24 23  0  0  0  0  0  0  0  0999 V2000
   15.8467  -19.3165  -31.6939 N   0  0  0  0  0  0  0  0  0  0  0  0
   14.5177  -19.2473  -32.3170 C   0  0  2  0  0  0  0  0  0  0  0  0
   14.4070  -17.8944  -33.0063 C   0  0  0  0  0  0  0  0  0  0  0  0
   13.4102  -19.4360  -31.2868 C   0  0  0  0  0  0  0  0  0  0  0  0
   13.8297  -19.2768  -29.8308 C   0  0  1  0  0  0  0  0  0  0  0  0
   12.9909  -18.1798  -29.1946 C   0  0  0  0  0  0  0  0  0  0  0  0
   13.6516  -20.6008  -29.0705 C   0  0  0  0  0  0  0  0  0  0  0  0
   15.2784  -17.8315  -34.1235 O   0  0  0  0  0  0  0  0  0  0  0  0
   15.7460  -19.3113  -30.6688 H   0  0  0  0  0  0  0  0  0  0  0  0
   16.3191  -20.1833  -31.9880 H   0  0  0  0  0  0  0  0  0  0  0  0
   16.4066  -18.5036  -31.9880 H   0  0  0  0  0  0  0  0  0  0  0  0
   14.3987  -20.0595  -33.0492 H   0  0  0  0  0  0  0  0  0  0  0  0
   13.3716  -17.7453  -33.3463 H   0  0  0  0  0  0  0  0  0  0  0  0
   14.6892  -17.1075  -32.2912 H   0  0  0  0  0  0  0  0  0  0  0  0
   12.6245  -18.6950  -31.4953 H   0  0  0  0  0  0  0  0  0  0  0  0
   13.0776  -20.4793  -31.3911 H   0  0  0  0  0  0  0  0  0  0  0  0
   14.8935  -19.0012  -29.7826 H   0  0  0  0  0  0  0  0  0  0  0  0
   13.0521  -18.2599  -28.0993 H   0  0  0  0  0  0  0  0  0  0  0  0
   13.3703  -17.1973  -29.5122 H   0  0  0  0  0  0  0  0  0  0  0  0
   11.9433  -18.2884  -29.5122 H   0  0  0  0  0  0  0  0  0  0  0  0
   13.6775  -20.4083  -27.9878 H   0  0  0  0  0  0  0  0  0  0  0  0
   12.6848  -21.0511  -29.3398 H   0  0  0  0  0  0  0  0  0  0  0  0
   14.4651  -21.2906  -29.3398 H   0  0  0  0  0  0  0  0  0  0  0  0
   16.2145  -17.7639  -33.8085 H   0  0  0  0  0  0  0  0  0  0  0  0
  2  1  1  0
  2  3  1  0
  2  4  1  0
  3  8  1  0
  4  5  1  0
  5  6  1  0
  5  7  1  0
  1  9  1  0
  1 10  1  0
  1 11  1  0
  2 12  1  6
  3 13  1  0
  3 14  1  0
  4 15  1  0
  4 16  1  0
  5 17  1  6
  6 18  1  0
  6 19  1  0
  6 20  1  0
  7 21  1  0
  7 22  1  0
  7 23  1  0
  8 24  1  0
M  CHG  1   1   1
M  END
>  <filename_input>  (21) 
7NU0_DCL_docked.sdf

>  <pdb_id>  (21) 
7NU0_DCL

>  <pose_rank>  (21) 
20

>  <num_atoms_heavy>  (21) 
8

>  <num_torsions>  (21) 
3

>  <pose>  (21) 
[15.846740841754645, -19.31653305070778, -31.693861601908992, 2.940169491098058, -1.1160543343410905, 0.6798038658440834, 11.04919393898445, -4.798533086704291, -0.8991746503600686]

>  <energy>  (21) 
-97.05171458997822

>  <inter_energy>  (21) 
-99.80845072260863

>  <intra_energy>  (21) 
0.06417316849862605

>  <rmsd>  (21) 
12.1159

>  <sdf_rank>  (21) 
0

$$$$

     RDKit          3D

 24 23  0  0  0  0  0  0  0  0999 V2000
   23.6219  -17.9836  -35.3415 N   0  0  0  0  0  0  0  0  0  0  0  0
   24.1733  -19.3378  -35.4881 C   0  0  2  0  0  0  0  0  0  0  0  0
   25.5987  -19.1966  -36.0040 C   0  0  0  0  0  0  0  0  0  0  0  0
   23.3250  -20.1845  -36.4299 C   0  0  0  0  0  0  0  0  0  0  0  0
   23.5095  -21.6920  -36.3083 C   0  0  1  0  0  0  0  0  0  0  0  0
   23.4636  -22.0758  -34.8377 C   0  0  0  0  0  0  0  0  0  0  0  0
   22.4160  -22.4341  -37.0933 C   0  0  0  0  0  0  0  0  0  0  0  0
   26.5202  -19.1868  -34.9259 O   0  0  0  0  0  0  0  0  0  0  0  0
   23.5296  -17.7570  -34.3410 H   0  0  0  0  0  0  0  0  0  0  0  0
   24.2537  -17.3052  -35.7904 H   0  0  0  0  0  0  0  0  0  0  0  0
   22.6959  -17.9395  -35.7904 H   0  0  0  0  0  0  0  0  0  0  0  0
   24.1682  -19.8571  -34.5184 H   0  0  0  0  0  0  0  0  0  0  0  0
   25.8283  -20.0426  -36.6685 H   0  0  0  0  0  0  0  0  0  0  0  0
   25.6850  -18.2475  -36.5533 H   0  0  0  0  0  0  0  0  0  0  0  0
   22.2677  -19.9560  -36.2303 H   0  0  0  0  0  0  0  0  0  0  0  0
   23.6531  -19.9229  -37.4467 H   0  0  0  0  0  0  0  0  0  0  0  0
   24.4827  -21.9788  -36.7332 H   0  0  0  0  0  0  0  0  0  0  0  0
   23.5715  -21.1724  -34.2195 H   0  0  0  0  0  0  0  0  0  0  0  0
   22.5013  -22.5598  -34.6149 H   0  0  0  0  0  0  0  0  0  0  0  0
   24.2849  -22.7728  -34.6149 H   0  0  0  0  0  0  0  0  0  0  0  0
   21.7169  -22.9085  -36.3889 H   0  0  0  0  0  0  0  0  0  0  0  0
   21.8700  -21.7192  -37.7264 H   0  0  0  0  0  0  0  0  0  0  0  0
   22.8787  -23.2055  -37.7264 H   0  0  0  0  0  0  0  0  0  0  0  0
   26.0251  -19.1921  -34.0686 H   0  0  0  0  0  0  0  0  0  0  0  0
  2  1  1  0
  2  3  1  0
  2  4  1  0
  3  8  1  0
  4  5  1  0
  5  6  1  0
  5  7  1  0
  1  9  1  0
  1 10  1  0
  1 11  1  0
  2 12  1  1
  3 13  1  0
  3 14  1  0
  4 15  1  0
  4 16  1  0
  5 17  1  6
  6 18  1  0
  6 19  1  0
  6 20  1  0
  7 21  1  0
  7 22  1  0
  7 23  1  0
  8 24  1  0
M  CHG  1   1   1
M  END
>  <filename_input>  (22) 
7NU0_DCL_docked.sdf

>  <pdb_id>  (22) 
7NU0_DCL

>  <pose_rank>  (22) 
21

>  <num_atoms_heavy>  (22) 
8

>  <num_torsions>  (22) 
3

>  <pose>  (22) 
[23.621877201585633, -17.983639653570155, -35.341500870493256, 0.7978803757541296, 0.42696224966199225, 2.52008563623703, -1.081799117256189, 4.688224451536581, -8.492506474102258]

>  <energy>  (22) 
-64.23284806175967

>  <inter_energy>  (22) 
-62.27210054583101

>  <intra_energy>  (22) 
0.028077227759011066

>  <rmsd>  (22) 
12.1379

>  <sdf_rank>  (22) 
0

$$$$

     RDKit          3D

 24 23  0  0  0  0  0  0  0  0999 V2000
   15.8118   -9.2745  -33.6408 N   0  0  0  0  0  0  0  0  0  0  0  0
   14.7167   -8.3038  -33.5073 C   0  0  2  0  0  0  0  0  0  0  0  0
   13.4532   -8.9655  -34.0399 C   0  0  0  0  0  0  0  0  0  0  0  0
   15.0237   -7.0127  -34.2571 C   0  0  0  0  0  0  0  0  0  0  0  0
   14.8367   -5.7272  -33.4609 C   0  0  1  0  0  0  0  0  0  0  0  0
   14.5368   -6.0845  -32.0137 C   0  0  0  0  0  0  0  0  0  0  0  0
   16.0957   -4.8500  -33.5497 C   0  0  0  0  0  0  0  0  0  0  0  0
   12.9645   -8.2668  -35.1732 O   0  0  0  0  0  0  0  0  0  0  0  0
   16.1337   -9.5599  -32.7049 H   0  0  0  0  0  0  0  0  0  0  0  0
   15.4768  -10.1014  -34.1555 H   0  0  0  0  0  0  0  0  0  0  0  0
   16.5925   -8.8427  -34.1555 H   0  0  0  0  0  0  0  0  0  0  0  0
   14.5845   -8.0230  -32.4519 H   0  0  0  0  0  0  0  0  0  0  0  0
   13.6811  -10.0031  -34.3252 H   0  0  0  0  0  0  0  0  0  0  0  0
   12.6845   -8.9477  -33.2532 H   0  0  0  0  0  0  0  0  0  0  0  0
   16.0716   -7.0555  -34.5891 H   0  0  0  0  0  0  0  0  0  0  0  0
   14.2969   -6.9640  -35.0813 H   0  0  0  0  0  0  0  0  0  0  0  0
   13.9965   -5.1541  -33.8800 H   0  0  0  0  0  0  0  0  0  0  0  0
   15.0991   -5.4146  -31.3466 H   0  0  0  0  0  0  0  0  0  0  0  0
   13.4593   -5.9714  -31.8238 H   0  0  0  0  0  0  0  0  0  0  0  0
   14.8352   -7.1261  -31.8238 H   0  0  0  0  0  0  0  0  0  0  0  0
   16.4452   -4.6065  -32.5356 H   0  0  0  0  0  0  0  0  0  0  0  0
   16.8849   -5.3948  -34.0886 H   0  0  0  0  0  0  0  0  0  0  0  0
   15.8580   -3.9210  -34.0886 H   0  0  0  0  0  0  0  0  0  0  0  0
   12.4234   -7.4930  -34.8758 H   0  0  0  0  0  0  0  0  0  0  0  0
  2  1  1  0
  2  3  1  0
  2  4  1  0
  3  8  1  0
  4  5  1  0
  5  6  1  0
  5  7  1  0
  1  9  1  0
  1 10  1  0
  1 11  1  0
  2 12  1  1
  3 13  1  0
  3 14  1  0
  4 15  1  0
  4 16  1  0
  5 17  1  6
  6 18  1  0
  6 19  1  0
  6 20  1  0
  7 21  1  0
  7 22  1  0
  7 23  1  0
  8 24  1  0
M  CHG  1   1   1
M  END
>  <filename_input>  (23) 
7NU0_DCL_docked.sdf

>  <pdb_id>  (23) 
7NU0_DCL

>  <pose_rank>  (23) 
22

>  <num_atoms_heavy>  (23) 
8

>  <num_torsions>  (23) 
3

>  <pose>  (23) 
[15.811814418758523, -9.274526638335631, -33.64078713798666, -4.566873083596601, 3.040120930664974, 0.7254728076172622, 1.5268853143976777, -1.060282533594581, -2.9115759818792957]

>  <energy>  (23) 
-96.09770848186152

>  <inter_energy>  (23) 
-84.39866979779653

>  <intra_energy>  (23) 
0.3997587455781063

>  <rmsd>  (23) 
11.9664

>  <sdf_rank>  (23) 
0

$$$$

     RDKit          3D

 24 23  0  0  0  0  0  0  0  0999 V2000
   16.3005   -9.4385  -34.7355 N   0  0  0  0  0  0  0  0  0  0  0  0
   15.5666   -8.5106  -33.8639 C   0  0  2  0  0  0  0  0  0  0  0  0
   14.6466   -9.3439  -32.9824 C   0  0  0  0  0  0  0  0  0  0  0  0
   14.7791   -7.4895  -34.6767 C   0  0  0  0  0  0  0  0  0  0  0  0
   14.4362   -7.9041  -36.1021 C   0  0  1  0  0  0  0  0  0  0  0  0
   13.1722   -8.7489  -36.0778 C   0  0  0  0  0  0  0  0  0  0  0  0
   14.2399   -6.6658  -36.9914 C   0  0  0  0  0  0  0  0  0  0  0  0
   14.2620   -8.6112  -31.8305 O   0  0  0  0  0  0  0  0  0  0  0  0
   16.8292  -10.1071  -34.1573 H   0  0  0  0  0  0  0  0  0  0  0  0
   15.6336   -9.9511  -35.3301 H   0  0  0  0  0  0  0  0  0  0  0  0
   16.9529   -8.9078  -35.3301 H   0  0  0  0  0  0  0  0  0  0  0  0
   16.2699   -7.9347  -33.2445 H   0  0  0  0  0  0  0  0  0  0  0  0
   13.7475   -9.6169  -33.5542 H   0  0  0  0  0  0  0  0  0  0  0  0
   15.1842  -10.2492  -32.6641 H   0  0  0  0  0  0  0  0  0  0  0  0
   13.8362   -7.2898  -34.1465 H   0  0  0  0  0  0  0  0  0  0  0  0
   15.4333   -6.6100  -34.7689 H   0  0  0  0  0  0  0  0  0  0  0  0
   15.2644   -8.4932  -36.5231 H   0  0  0  0  0  0  0  0  0  0  0  0
   12.8812   -8.9434  -35.0350 H   0  0  0  0  0  0  0  0  0  0  0  0
   12.3615   -8.2105  -36.5904 H   0  0  0  0  0  0  0  0  0  0  0  0
   13.3596   -9.7039  -36.5904 H   0  0  0  0  0  0  0  0  0  0  0  0
   14.0991   -5.7779  -36.3575 H   0  0  0  0  0  0  0  0  0  0  0  0
   15.1271   -6.5260  -37.6264 H   0  0  0  0  0  0  0  0  0  0  0  0
   13.3529   -6.8074  -37.6264 H   0  0  0  0  0  0  0  0  0  0  0  0
   14.5248   -9.1119  -31.0179 H   0  0  0  0  0  0  0  0  0  0  0  0
  2  1  1  0
  2  3  1  0
  2  4  1  0
  3  8  1  0
  4  5  1  0
  5  6  1  0
  5  7  1  0
  1  9  1  0
  1 10  1  0
  1 11  1  0
  2 12  1  1
  3 13  1  0
  3 14  1  0
  4 15  1  0
  4 16  1  0
  5 17  1  6
  6 18  1  0
  6 19  1  0
  6 20  1  0
  7 21  1  0
  7 22  1  0
  7 23  1  0
  8 24  1  0
M  CHG  1   1   1
M  END
>  <filename_input>  (24) 
7NU0_DCL_docked.sdf

>  <pdb_id>  (24) 
7NU0_DCL

>  <pose_rank>  (24) 
23

>  <num_atoms_heavy>  (24) 
8

>  <num_torsions>  (24) 
3

>  <pose>  (24) 
[16.300472128607105, -9.438524277834134, -34.73551428108332, 0.2896193217623911, 0.5918581580569303, -0.16162255974982973, -6.210474966047869, -4.6736994093383215, -7.851091319231817]

>  <energy>  (24) 
-53.55325597320971

>  <inter_energy>  (24) 
-51.983772289132745

>  <intra_energy>  (24) 
4.617269126849623

>  <rmsd>  (24) 
12.0767

>  <sdf_rank>  (24) 
0

$$$$

     RDKit          3D

 24 23  0  0  0  0  0  0  0  0999 V2000
   30.7017   -3.0410  -25.8415 N   0  0  0  0  0  0  0  0  0  0  0  0
   31.8259   -2.8304  -24.9188 C   0  0  2  0  0  0  0  0  0  0  0  0
   33.1039   -3.1759  -25.6706 C   0  0  0  0  0  0  0  0  0  0  0  0
   31.6779   -3.6771  -23.6600 C   0  0  0  0  0  0  0  0  0  0  0  0
   31.3362   -2.9124  -22.3873 C   0  0  1  0  0  0  0  0  0  0  0  0
   29.8531   -2.5776  -22.3982 C   0  0  0  0  0  0  0  0  0  0  0  0
   31.6914   -3.7460  -21.1457 C   0  0  0  0  0  0  0  0  0  0  0  0
   33.0945   -4.5366  -26.0703 O   0  0  0  0  0  0  0  0  0  0  0  0
   29.8398   -3.2025  -25.3013 H   0  0  0  0  0  0  0  0  0  0  0  0
   30.5839   -2.2074  -26.4350 H   0  0  0  0  0  0  0  0  0  0  0  0
   30.8936   -3.8607  -26.4350 H   0  0  0  0  0  0  0  0  0  0  0  0
   31.8514   -1.7829  -24.5841 H   0  0  0  0  0  0  0  0  0  0  0  0
   33.1825   -2.5374  -26.5628 H   0  0  0  0  0  0  0  0  0  0  0  0
   33.9636   -3.0072  -25.0055 H   0  0  0  0  0  0  0  0  0  0  0  0
   30.8785   -4.4113  -23.8383 H   0  0  0  0  0  0  0  0  0  0  0  0
   32.6656   -4.1279  -23.4835 H   0  0  0  0  0  0  0  0  0  0  0  0
   31.9229   -1.9828  -22.3480 H   0  0  0  0  0  0  0  0  0  0  0  0
   29.4881   -2.4952  -21.3638 H   0  0  0  0  0  0  0  0  0  0  0  0
   29.6968   -1.6215  -22.9193 H   0  0  0  0  0  0  0  0  0  0  0  0
   29.3012   -3.3737  -22.9193 H   0  0  0  0  0  0  0  0  0  0  0  0
   31.4477   -3.1741  -20.2381 H   0  0  0  0  0  0  0  0  0  0  0  0
   31.1140   -4.6823  -21.1552 H   0  0  0  0  0  0  0  0  0  0  0  0
   32.7666   -3.9781  -21.1552 H   0  0  0  0  0  0  0  0  0  0  0  0
   33.0905   -5.1163  -25.2678 H   0  0  0  0  0  0  0  0  0  0  0  0
  2  1  1  0
  2  3  1  0
  2  4  1  0
  3  8  1  0
  4  5  1  0
  5  6  1  0
  5  7  1  0
  1  9  1  0
  1 10  1  0
  1 11  1  0
  2 12  1  1
  3 13  1  0
  3 14  1  0
  4 15  1  0
  4 16  1  0
  5 17  1  1
  6 18  1  0
  6 19  1  0
  6 20  1  0
  7 21  1  0
  7 22  1  0
  7 23  1  0
  8 24  1  0
M  CHG  1   1   1
M  END
>  <filename_input>  (25) 
7NU0_DCL_docked.sdf

>  <pdb_id>  (25) 
7NU0_DCL

>  <pose_rank>  (25) 
24

>  <num_atoms_heavy>  (25) 
8

>  <num_torsions>  (25) 
3

>  <pose>  (25) 
[30.701731303279377, -3.040975073783371, -25.841537070060998, -0.25162243017730324, -2.966543422620726, -1.6229268338157057, 2.4922509061750886, -0.6875646671425135, -1.6656616024970934]

>  <energy>  (25) 
-94.73396177882606

>  <inter_energy>  (25) 
-80.59812069026184

>  <intra_energy>  (25) 
0.4572361232397767

>  <rmsd>  (25) 
13.6975

>  <sdf_rank>  (25) 
0

$$$$

     RDKit          3D

 24 23  0  0  0  0  0  0  0  0999 V2000
   24.1350  -14.2160  -26.4340 N   0  0  0  0  0  0  0  0  0  0  0  0
   22.9750  -13.3140  -26.4210 C   0  0  2  0  0  0  0  0  0  0  0  0
   21.7750  -14.1210  -25.9450 C   0  0  0  0  0  0  0  0  0  0  0  0
   22.7250  -12.7100  -27.7980 C   0  0  0  0  0  0  0  0  0  0  0  0
   23.7690  -11.7100  -28.2790 C   0  0  1  0  0  0  0  0  0  0  0  0
   23.4570  -11.3270  -29.7170 C   0  0  0  0  0  0  0  0  0  0  0  0
   23.7770  -10.4640  -27.3790 C   0  0  0  0  0  0  0  0  0  0  0  0
   20.7940  -13.2680  -25.3780 O   0  0  0  0  0  0  0  0  0  0  0  0
   24.4128  -14.4320  -25.4660 H   0  0  0  0  0  0  0  0  0  0  0  0
   23.8864  -15.0880  -26.9226 H   0  0  0  0  0  0  0  0  0  0  0  0
   24.9189  -13.7602  -26.9226 H   0  0  0  0  0  0  0  0  0  0  0  0
   23.1592  -12.4680  -25.7425 H   0  0  0  0  0  0  0  0  0  0  0  0
   21.3375  -14.6571  -26.8001 H   0  0  0  0  0  0  0  0  0  0  0  0
   22.1094  -14.8360  -25.1788 H   0  0  0  0  0  0  0  0  0  0  0  0
   22.6847  -13.5334  -28.5262 H   0  0  0  0  0  0  0  0  0  0  0  0
   21.7851  -12.1450  -27.7120 H   0  0  0  0  0  0  0  0  0  0  0  0
   24.7677  -12.1683  -28.2288 H   0  0  0  0  0  0  0  0  0  0  0  0
   22.7623  -10.4742  -29.7268 H   0  0  0  0  0  0  0  0  0  0  0  0
   24.3878  -11.0476  -30.2322 H   0  0  0  0  0  0  0  0  0  0  0  0
   22.9952  -12.1821  -30.2322 H   0  0  0  0  0  0  0  0  0  0  0  0
   23.7750  -10.7740  -26.3236 H   0  0  0  0  0  0  0  0  0  0  0  0
   24.6790   -9.8689  -27.5847 H   0  0  0  0  0  0  0  0  0  0  0  0
   22.8827   -9.8574  -27.5847 H   0  0  0  0  0  0  0  0  0  0  0  0
   20.8473  -13.3144  -24.3905 H   0  0  0  0  0  0  0  0  0  0  0  0
  2  1  1  0
  2  3  1  0
  2  4  1  0
  3  8  1  0
  4  5  1  0
  5  6  1  0
  5  7  1  0
  1  9  1  0
  1 10  1  0
  1 11  1  0
  2 12  1  1
  3 13  1  0
  3 14  1  0
  4 15  1  0
  4 16  1  0
  5 17  1  6
  6 18  1  0
  6 19  1  0
  6 20  1  0
  7 21  1  0
  7 22  1  0
  7 23  1  0
  8 24  1  0
M  CHG  1   1   1
M  END
>  <filename_input>  (26) 
7NU0_DCL_docked.sdf

>  <pdb_id>  (26) 
7NU0_DCL

>  <pose_rank>  (26) 
25

>  <num_atoms_heavy>  (26) 
8

>  <num_torsions>  (26) 
3

>  <pose>  (26) 
[24.135, -14.216, -26.434, 1e-06, 1e-06, 1e-06, 0.0, 0.0, 0.0]

>  <energy>  (26) 
-375.8356195885803

>  <inter_energy>  (26) 
-376.73046214490097

>  <intra_energy>  (26) 
0.0

>  <rmsd>  (26) 
0.0

>  <sdf_rank>  (26) 
0

$$$$
