
     RDKit          3D

 29 29  0  0  0  0  0  0  0  0999 V2000
    2.9031    4.9733  -35.7373 C   0  0  1  0  0  0  0  0  0  0  0  0
    4.1433    5.8067  -35.4544 C   0  0  1  0  0  0  0  0  0  0  0  0
    5.3550    5.1893  -36.0693 C   0  0  2  0  0  0  0  0  0  0  0  0
    5.4817    3.7479  -35.6902 C   0  0  1  0  0  0  0  0  0  0  0  0
    4.1877    2.9864  -36.0187 C   0  0  1  0  0  0  0  0  0  0  0  0
    4.2973    1.5213  -35.7005 C   0  0  0  0  0  0  0  0  0  0  0  0
    2.6931    4.9113  -37.0682 O   0  0  0  0  0  0  0  0  0  0  0  0
    3.9253    7.1522  -36.0080 N   0  0  0  0  0  0  0  0  0  0  0  0
    6.5415    5.9056  -35.6125 O   0  0  0  0  0  0  0  0  0  0  0  0
    6.5706    3.1406  -36.3845 O   0  0  0  0  0  0  0  0  0  0  0  0
    3.0910    3.5662  -35.2492 O   0  0  0  0  0  0  0  0  0  0  0  0
    3.4573    0.8004  -36.5495 O   0  0  0  0  0  0  0  0  0  0  0  0
    3.2634   -0.7755  -36.1144 P   0  0  2  0  0  0  0  0  0  0  0  0
    4.2594   -1.1250  -34.9861 O   0  0  0  0  0  0  0  0  0  0  0  0
    3.5602   -1.6787  -37.3231 O   0  0  0  0  0  0  0  0  0  0  0  0
    1.7889   -0.9031  -35.6504 O   0  0  0  0  0  0  0  0  0  0  0  0
    2.0531    5.4447  -35.2224 H   0  0  0  0  0  0  0  0  0  0  0  0
    4.3125    5.8593  -34.3688 H   0  0  0  0  0  0  0  0  0  0  0  0
    5.2590    5.2552  -37.1631 H   0  0  0  0  0  0  0  0  0  0  0  0
    5.6674    3.6995  -34.6070 H   0  0  0  0  0  0  0  0  0  0  0  0
    4.0022    3.0793  -37.0990 H   0  0  0  0  0  0  0  0  0  0  0  0
    5.3365    1.1908  -35.8446 H   0  0  0  0  0  0  0  0  0  0  0  0
    4.0009    1.3483  -34.6554 H   0  0  0  0  0  0  0  0  0  0  0  0
    1.7584    4.6354  -37.2423 H   0  0  0  0  0  0  0  0  0  0  0  0
    3.8160    7.8269  -35.2375 H   0  0  0  0  0  0  0  0  0  0  0  0
    4.7339    7.4203  -36.5871 H   0  0  0  0  0  0  0  0  0  0  0  0
    3.0735    7.1513  -36.5871 H   0  0  0  0  0  0  0  0  0  0  0  0
    6.5597    5.9166  -34.6227 H   0  0  0  0  0  0  0  0  0  0  0  0
    7.2190    2.7789  -35.7296 H   0  0  0  0  0  0  0  0  0  0  0  0
  1  2  1  0
  1  7  1  0
  1 11  1  0
  2  3  1  0
  2  8  1  0
  3  4  1  0
  3  9  1  0
  4  5  1  0
  4 10  1  0
  5  6  1  0
  5 11  1  0
  6 12  1  0
 12 13  1  0
 13 14  2  0
 13 15  1  6
 13 16  1  0
  1 17  1  1
  2 18  1  1
  3 19  1  6
  4 20  1  1
  5 21  1  6
  6 22  1  0
  6 23  1  0
  7 24  1  0
  8 25  1  0
  8 26  1  0
  8 27  1  0
  9 28  1  0
 10 29  1  0
M  CHG  3   8   1  15  -1  16  -1
M  END
>  <filename_input>  (1) 
7NUT_GLP_docked.sdf

>  <pdb_id>  (1) 
7NUT_GLP

>  <pose_rank>  (1) 
0

>  <num_atoms_heavy>  (1) 
16

>  <num_torsions>  (1) 
3

>  <pose>  (1) 
[2.903128900756892, 4.973318825304051, -35.7373362288586, -0.411144575063845, 0.5145940337704421, 0.29968339055711307, 2.7027316773513355, -6.009531221591531, 5.3929557465186395]

>  <energy>  (1) 
-611.3603971844947

>  <inter_energy>  (1) 
-605.8103283034144

>  <intra_energy>  (1) 
0.0

>  <rmsd>  (1) 
1.4482

>  <sdf_rank>  (1) 
0

$$$$

     RDKit          3D

 29 29  0  0  0  0  0  0  0  0999 V2000
    4.0199    4.9197  -35.0988 C   0  0  1  0  0  0  0  0  0  0  0  0
    4.3932    5.8520  -36.2408 C   0  0  1  0  0  0  0  0  0  0  0  0
    3.7358    5.4304  -37.5127 C   0  0  2  0  0  0  0  0  0  0  0  0
    3.9789    3.9819  -37.7954 C   0  0  1  0  0  0  0  0  0  0  0  0
    3.5663    3.1193  -36.5921 C   0  0  1  0  0  0  0  0  0  0  0  0
    3.7463    1.6511  -36.8604 C   0  0  0  0  0  0  0  0  0  0  0  0
    2.6869    4.9617  -34.8972 O   0  0  0  0  0  0  0  0  0  0  0  0
    3.9664    7.2122  -35.8779 N   0  0  0  0  0  0  0  0  0  0  0  0
    4.2707    6.2246  -38.6140 O   0  0  0  0  0  0  0  0  0  0  0  0
    3.2421    3.5646  -38.9442 O   0  0  0  0  0  0  0  0  0  0  0  0
    4.3753    3.5013  -35.4386 O   0  0  0  0  0  0  0  0  0  0  0  0
    3.2093    0.9190  -35.8013 O   0  0  0  0  0  0  0  0  0  0  0  0
    3.0151   -0.6825  -36.1292 P   0  0  2  0  0  0  0  0  0  0  0  0
    4.4007   -1.3521  -36.2673 O   0  0  0  0  0  0  0  0  0  0  0  0
    2.2618   -0.8432  -37.4602 O   0  0  0  0  0  0  0  0  0  0  0  0
    2.2058   -1.2584  -34.9380 O   0  0  0  0  0  0  0  0  0  0  0  0
    4.5679    5.2453  -34.2023 H   0  0  0  0  0  0  0  0  0  0  0  0
    5.4807    5.8195  -36.4029 H   0  0  0  0  0  0  0  0  0  0  0  0
    2.6521    5.5890  -37.4105 H   0  0  0  0  0  0  0  0  0  0  0  0
    5.0546    3.8515  -37.9849 H   0  0  0  0  0  0  0  0  0  0  0  0
    2.4977    3.2935  -36.3980 H   0  0  0  0  0  0  0  0  0  0  0  0
    3.2285    1.3819  -37.7929 H   0  0  0  0  0  0  0  0  0  0  0  0
    4.8180    1.4236  -36.9593 H   0  0  0  0  0  0  0  0  0  0  0  0
    2.5002    4.9676  -33.9250 H   0  0  0  0  0  0  0  0  0  0  0  0
    3.9386    7.3011  -34.8521 H   0  0  0  0  0  0  0  0  0  0  0  0
    4.6334    7.8957  -36.2637 H   0  0  0  0  0  0  0  0  0  0  0  0
    3.0286    7.3923  -36.2637 H   0  0  0  0  0  0  0  0  0  0  0  0
    4.7851    6.9884  -38.2507 H   0  0  0  0  0  0  0  0  0  0  0  0
    2.4179    3.0979  -38.6561 H   0  0  0  0  0  0  0  0  0  0  0  0
  1  2  1  0
  1  7  1  0
  1 11  1  0
  2  3  1  0
  2  8  1  0
  3  4  1  0
  3  9  1  0
  4  5  1  0
  4 10  1  0
  5  6  1  0
  5 11  1  0
  6 12  1  0
 12 13  1  0
 13 14  2  0
 13 15  1  6
 13 16  1  0
  1 17  1  1
  2 18  1  6
  3 19  1  1
  4 20  1  6
  5 21  1  1
  6 22  1  0
  6 23  1  0
  7 24  1  0
  8 25  1  0
  8 26  1  0
  8 27  1  0
  9 28  1  0
 10 29  1  0
M  CHG  3   8   1  15  -1  16  -1
M  END
>  <filename_input>  (2) 
7NUT_GLP_docked.sdf

>  <pdb_id>  (2) 
7NUT_GLP

>  <pose_rank>  (2) 
1

>  <num_atoms_heavy>  (2) 
16

>  <num_torsions>  (2) 
3

>  <pose>  (2) 
[4.019872998445434, 4.9196886127223936, -35.09882703502828, -0.12993704892105107, -3.9775769056515746, -1.2929292937748091, 2.3284080982379822, -0.16540193127420533, 0.4616845478856547]

>  <energy>  (2) 
-621.569426893704

>  <inter_energy>  (2) 
-614.8466413262865

>  <intra_energy>  (2) 
0.0

>  <rmsd>  (2) 
2.25182

>  <sdf_rank>  (2) 
0

$$$$

     RDKit          3D

 29 29  0  0  0  0  0  0  0  0999 V2000
    5.5321    1.2129  -35.5645 C   0  0  1  0  0  0  0  0  0  0  0  0
    4.6382    0.0829  -36.0508 C   0  0  1  0  0  0  0  0  0  0  0  0
    3.8561    0.4981  -37.2523 C   0  0  2  0  0  0  0  0  0  0  0  0
    3.1414    1.7904  -37.0148 C   0  0  1  0  0  0  0  0  0  0  0  0
    4.1230    2.8713  -36.5348 C   0  0  1  0  0  0  0  0  0  0  0  0
    3.4487    4.2002  -36.3373 C   0  0  0  0  0  0  0  0  0  0  0  0
    6.4169    1.5376  -36.5294 O   0  0  0  0  0  0  0  0  0  0  0  0
    5.4941   -1.0680  -36.3778 N   0  0  0  0  0  0  0  0  0  0  0  0
    2.8749   -0.5357  -37.5655 O   0  0  0  0  0  0  0  0  0  0  0  0
    2.5024    2.2370  -38.2103 O   0  0  0  0  0  0  0  0  0  0  0  0
    4.7186    2.4406  -35.2735 O   0  0  0  0  0  0  0  0  0  0  0  0
    3.9755    4.8213  -35.2046 O   0  0  0  0  0  0  0  0  0  0  0  0
    4.9045    6.1388  -35.5385 P   0  0  2  0  0  0  0  0  0  0  0  0
    6.3925    5.7243  -35.5754 O   0  0  0  0  0  0  0  0  0  0  0  0
    4.7186    7.1883  -34.4300 O   0  0  0  0  0  0  0  0  0  0  0  0
    4.4109    6.6614  -36.9129 O   0  0  0  0  0  0  0  0  0  0  0  0
    6.0452    0.8713  -34.6534 H   0  0  0  0  0  0  0  0  0  0  0  0
    3.9187   -0.1834  -35.2625 H   0  0  0  0  0  0  0  0  0  0  0  0
    4.5561    0.6352  -38.0896 H   0  0  0  0  0  0  0  0  0  0  0  0
    2.3819    1.6176  -36.2381 H   0  0  0  0  0  0  0  0  0  0  0  0
    4.8932    3.0007  -37.3094 H   0  0  0  0  0  0  0  0  0  0  0  0
    3.6226    4.8350  -37.2186 H   0  0  0  0  0  0  0  0  0  0  0  0
    2.3674    4.0484  -36.2046 H   0  0  0  0  0  0  0  0  0  0  0  0
    7.2602    1.8471  -36.1133 H   0  0  0  0  0  0  0  0  0  0  0  0
    5.8227   -1.5098  -35.5073 H   0  0  0  0  0  0  0  0  0  0  0  0
    4.9547   -1.7519  -36.9275 H   0  0  0  0  0  0  0  0  0  0  0  0
    6.3043   -0.7482  -36.9275 H   0  0  0  0  0  0  0  0  0  0  0  0
    2.5151   -0.9147  -36.7247 H   0  0  0  0  0  0  0  0  0  0  0  0
    1.7138    2.7882  -37.9768 H   0  0  0  0  0  0  0  0  0  0  0  0
  1  2  1  0
  1  7  1  0
  1 11  1  0
  2  3  1  0
  2  8  1  0
  3  4  1  0
  3  9  1  0
  4  5  1  0
  4 10  1  0
  5  6  1  0
  5 11  1  0
  6 12  1  0
 12 13  1  0
 13 14  2  0
 13 15  1  1
 13 16  1  0
  1 17  1  1
  2 18  1  1
  3 19  1  6
  4 20  1  1
  5 21  1  6
  6 22  1  0
  6 23  1  0
  7 24  1  0
  8 25  1  0
  8 26  1  0
  8 27  1  0
  9 28  1  0
 10 29  1  0
M  CHG  3   8   1  15  -1  16  -1
M  END
>  <filename_input>  (3) 
7NUT_GLP_docked.sdf

>  <pdb_id>  (3) 
7NUT_GLP

>  <pose_rank>  (3) 
2

>  <num_atoms_heavy>  (3) 
16

>  <num_torsions>  (3) 
3

>  <pose>  (3) 
[5.532120088559567, 1.212925834424357, -35.564527013103664, 1.3105763605377883, 0.5809461069992119, -2.051069476234395, 1.5322126598266121, 5.137215582312501, -2.4031207165782837]

>  <energy>  (3) 
-469.93670794543704

>  <inter_energy>  (3) 
-466.5228441062082

>  <intra_energy>  (3) 
0.23065350681435762

>  <rmsd>  (3) 
5.71495

>  <sdf_rank>  (3) 
0

$$$$

     RDKit          3D

 29 29  0  0  0  0  0  0  0  0999 V2000
    5.9900    0.9525  -36.4656 C   0  0  1  0  0  0  0  0  0  0  0  0
    5.2648   -0.3778  -36.5969 C   0  0  1  0  0  0  0  0  0  0  0  0
    3.8468   -0.1755  -37.0160 C   0  0  2  0  0  0  0  0  0  0  0  0
    3.1570    0.8180  -36.1359 C   0  0  1  0  0  0  0  0  0  0  0  0
    3.9562    2.1291  -36.0702 C   0  0  1  0  0  0  0  0  0  0  0  0
    3.2650    3.1717  -35.2365 C   0  0  0  0  0  0  0  0  0  0  0  0
    6.0078    1.5784  -37.6603 O   0  0  0  0  0  0  0  0  0  0  0  0
    5.9766   -1.1891  -37.5965 N   0  0  0  0  0  0  0  0  0  0  0  0
    3.1385   -1.4491  -36.9390 O   0  0  0  0  0  0  0  0  0  0  0  0
    1.8447    1.0944  -36.6242 O   0  0  0  0  0  0  0  0  0  0  0  0
    5.2717    1.8515  -35.5015 O   0  0  0  0  0  0  0  0  0  0  0  0
    4.1231    4.2552  -35.0474 O   0  0  0  0  0  0  0  0  0  0  0  0
    3.7839    5.5493  -36.0068 P   0  0  2  0  0  0  0  0  0  0  0  0
    2.2958    5.5081  -36.4206 O   0  0  0  0  0  0  0  0  0  0  0  0
    4.6452    5.4810  -37.2789 O   0  0  0  0  0  0  0  0  0  0  0  0
    4.1173    6.8012  -35.1540 O   0  0  0  0  0  0  0  0  0  0  0  0
    7.0102    0.7487  -36.1084 H   0  0  0  0  0  0  0  0  0  0  0  0
    5.2531   -0.8891  -35.6230 H   0  0  0  0  0  0  0  0  0  0  0  0
    3.8427    0.2092  -38.0465 H   0  0  0  0  0  0  0  0  0  0  0  0
    3.0869    0.3835  -35.1278 H   0  0  0  0  0  0  0  0  0  0  0  0
    4.0455    2.5258  -37.0923 H   0  0  0  0  0  0  0  0  0  0  0  0
    2.3543    3.5102  -35.7524 H   0  0  0  0  0  0  0  0  0  0  0  0
    2.9934    2.7424  -34.2608 H   0  0  0  0  0  0  0  0  0  0  0  0
    6.0356    2.5579  -37.5193 H   0  0  0  0  0  0  0  0  0  0  0  0
    6.5779   -1.8745  -37.1174 H   0  0  0  0  0  0  0  0  0  0  0  0
    5.2929   -1.6851  -38.1861 H   0  0  0  0  0  0  0  0  0  0  0  0
    6.5573   -0.5758  -38.1861 H   0  0  0  0  0  0  0  0  0  0  0  0
    3.0023   -1.6941  -35.9896 H   0  0  0  0  0  0  0  0  0  0  0  0
    1.2288    1.2242  -35.8601 H   0  0  0  0  0  0  0  0  0  0  0  0
  1  2  1  0
  1  7  1  0
  1 11  1  0
  2  3  1  0
  2  8  1  0
  3  4  1  0
  3  9  1  0
  4  5  1  0
  4 10  1  0
  5  6  1  0
  5 11  1  0
  6 12  1  0
 12 13  1  0
 13 14  2  0
 13 15  1  6
 13 16  1  0
  1 17  1  1
  2 18  1  1
  3 19  1  6
  4 20  1  1
  5 21  1  6
  6 22  1  0
  6 23  1  0
  7 24  1  0
  8 25  1  0
  8 26  1  0
  8 27  1  0
  9 28  1  0
 10 29  1  0
M  CHG  3   8   1  15  -1  16  -1
M  END
>  <filename_input>  (4) 
7NUT_GLP_docked.sdf

>  <pdb_id>  (4) 
7NUT_GLP

>  <pose_rank>  (4) 
3

>  <num_atoms_heavy>  (4) 
16

>  <num_torsions>  (4) 
3

>  <pose>  (4) 
[5.989982129352184, 0.9524626085194013, -36.46560140036063, -0.8372956829920624, -1.6958198371112285, 3.241843672012304, 2.05011515666031, 5.003268149795508, -0.30048689645088494]

>  <energy>  (4) 
-490.56349290598246

>  <inter_energy>  (4) 
-466.8253919008309

>  <intra_energy>  (4) 
0.0

>  <rmsd>  (4) 
5.66288

>  <sdf_rank>  (4) 
0

$$$$

     RDKit          3D

 29 29  0  0  0  0  0  0  0  0999 V2000
    3.2059    5.8668  -37.0634 C   0  0  1  0  0  0  0  0  0  0  0  0
    3.9416    6.1010  -35.7532 C   0  0  1  0  0  0  0  0  0  0  0  0
    4.9831    5.0556  -35.5297 C   0  0  2  0  0  0  0  0  0  0  0  0
    4.4132    3.6808  -35.6790 C   0  0  1  0  0  0  0  0  0  0  0  0
    3.6979    3.5357  -37.0316 C   0  0  1  0  0  0  0  0  0  0  0  0
    3.1582    2.1481  -37.2401 C   0  0  0  0  0  0  0  0  0  0  0  0
    4.0768    5.9388  -38.0909 O   0  0  0  0  0  0  0  0  0  0  0  0
    4.5655    7.4320  -35.8115 N   0  0  0  0  0  0  0  0  0  0  0  0
    5.5252    5.2003  -34.1826 O   0  0  0  0  0  0  0  0  0  0  0  0
    5.4441    2.6980  -35.5876 O   0  0  0  0  0  0  0  0  0  0  0  0
    2.5983    4.4942  -37.0887 O   0  0  0  0  0  0  0  0  0  0  0  0
    3.2559    1.4308  -36.0476 O   0  0  0  0  0  0  0  0  0  0  0  0
    2.8338   -0.1543  -36.1870 P   0  0  2  0  0  0  0  0  0  0  0  0
    4.1000   -1.0052  -36.4317 O   0  0  0  0  0  0  0  0  0  0  0  0
    1.8909   -0.3273  -37.3894 O   0  0  0  0  0  0  0  0  0  0  0  0
    2.1348   -0.5202  -34.8517 O   0  0  0  0  0  0  0  0  0  0  0  0
    2.4211    6.6323  -37.1532 H   0  0  0  0  0  0  0  0  0  0  0  0
    3.2304    6.0450  -34.9159 H   0  0  0  0  0  0  0  0  0  0  0  0
    5.7738    5.1893  -36.2827 H   0  0  0  0  0  0  0  0  0  0  0  0
    3.6888    3.5262  -34.8658 H   0  0  0  0  0  0  0  0  0  0  0  0
    4.4312    3.7306  -37.8279 H   0  0  0  0  0  0  0  0  0  0  0  0
    2.1039    2.2065  -37.5483 H   0  0  0  0  0  0  0  0  0  0  0  0
    3.7399    1.6407  -38.0237 H   0  0  0  0  0  0  0  0  0  0  0  0
    4.9984    6.0150  -37.7376 H   0  0  0  0  0  0  0  0  0  0  0  0
    4.7275    7.7774  -34.8548 H   0  0  0  0  0  0  0  0  0  0  0  0
    5.4644    7.3682  -36.3103 H   0  0  0  0  0  0  0  0  0  0  0  0
    3.9415    8.0821  -36.3103 H   0  0  0  0  0  0  0  0  0  0  0  0
    4.8153    5.0109  -33.5191 H   0  0  0  0  0  0  0  0  0  0  0  0
    5.6392    2.5120  -34.6350 H   0  0  0  0  0  0  0  0  0  0  0  0
  1  2  1  0
  1  7  1  0
  1 11  1  0
  2  3  1  0
  2  8  1  0
  3  4  1  0
  3  9  1  0
  4  5  1  0
  4 10  1  0
  5  6  1  0
  5 11  1  0
  6 12  1  0
 12 13  1  0
 13 14  2  0
 13 15  1  6
 13 16  1  0
  1 17  1  6
  2 18  1  1
  3 19  1  6
  4 20  1  1
  5 21  1  6
  6 22  1  0
  6 23  1  0
  7 24  1  0
  8 25  1  0
  8 26  1  0
  8 27  1  0
  9 28  1  0
 10 29  1  0
M  CHG  3   8   1  15  -1  16  -1
M  END
>  <filename_input>  (5) 
7NUT_GLP_docked.sdf

>  <pdb_id>  (5) 
7NUT_GLP

>  <pose_rank>  (5) 
4

>  <num_atoms_heavy>  (5) 
16

>  <num_torsions>  (5) 
3

>  <pose>  (5) 
[3.2058985016561214, 5.86677681738142, -37.06342312171013, 2.916109777524962, 4.104903139257064, 3.067064245849832, -7.043039656595984, -6.105165525474264, -5.358804725806708]

>  <energy>  (5) 
-506.7975697857756

>  <inter_energy>  (5) 
-532.1059067998301

>  <intra_energy>  (5) 
20.662304716062216

>  <rmsd>  (5) 
0.866608

>  <sdf_rank>  (5) 
0

$$$$

     RDKit          3D

 29 29  0  0  0  0  0  0  0  0999 V2000
    4.7743    1.2439  -38.5467 C   0  0  1  0  0  0  0  0  0  0  0  0
    5.5248    0.0014  -38.0932 C   0  0  1  0  0  0  0  0  0  0  0  0
    5.4273   -0.1729  -36.6142 C   0  0  2  0  0  0  0  0  0  0  0  0
    5.8154    1.0787  -35.8931 C   0  0  1  0  0  0  0  0  0  0  0  0
    5.0024    2.2757  -36.4112 C   0  0  1  0  0  0  0  0  0  0  0  0
    5.3276    3.5432  -35.6712 C   0  0  0  0  0  0  0  0  0  0  0  0
    3.4666    1.1200  -38.2405 O   0  0  0  0  0  0  0  0  0  0  0  0
    4.9398   -1.1612  -38.7790 N   0  0  0  0  0  0  0  0  0  0  0  0
    6.3161   -1.2537  -36.1999 O   0  0  0  0  0  0  0  0  0  0  0  0
    5.5969    0.9374  -34.4899 O   0  0  0  0  0  0  0  0  0  0  0  0
    5.2870    2.4599  -37.8311 O   0  0  0  0  0  0  0  0  0  0  0  0
    4.1423    4.1812  -35.3051 O   0  0  0  0  0  0  0  0  0  0  0  0
    4.0178    5.7258  -35.8609 P   0  0  2  0  0  0  0  0  0  0  0  0
    4.7726    6.6790  -34.9074 O   0  0  0  0  0  0  0  0  0  0  0  0
    2.5370    6.1393  -35.8913 O   0  0  0  0  0  0  0  0  0  0  0  0
    4.6392    5.7106  -37.2819 O   0  0  0  0  0  0  0  0  0  0  0  0
    4.9200    1.3509  -39.6318 H   0  0  0  0  0  0  0  0  0  0  0  0
    6.5907    0.1017  -38.3457 H   0  0  0  0  0  0  0  0  0  0  0  0
    4.3833   -0.4111  -36.3625 H   0  0  0  0  0  0  0  0  0  0  0  0
    6.8848    1.2571  -36.0795 H   0  0  0  0  0  0  0  0  0  0  0  0
    3.9361    2.0597  -36.2487 H   0  0  0  0  0  0  0  0  0  0  0  0
    5.9092    3.3029  -34.7690 H   0  0  0  0  0  0  0  0  0  0  0  0
    5.9180    4.2071  -36.3198 H   0  0  0  0  0  0  0  0  0  0  0  0
    3.3576    1.1097  -37.2566 H   0  0  0  0  0  0  0  0  0  0  0  0
    4.5997   -1.8369  -38.0799 H   0  0  0  0  0  0  0  0  0  0  0  0
    4.1537   -0.8523  -39.3686 H   0  0  0  0  0  0  0  0  0  0  0  0
    5.6562   -1.6084  -39.3686 H   0  0  0  0  0  0  0  0  0  0  0  0
    6.3488   -1.2934  -35.2112 H   0  0  0  0  0  0  0  0  0  0  0  0
    6.3170    1.4030  -33.9952 H   0  0  0  0  0  0  0  0  0  0  0  0
  1  2  1  0
  1  7  1  0
  1 11  1  0
  2  3  1  0
  2  8  1  0
  3  4  1  0
  3  9  1  0
  4  5  1  0
  4 10  1  0
  5  6  1  0
  5 11  1  0
  6 12  1  0
 12 13  1  0
 13 14  2  0
 13 15  1  6
 13 16  1  0
  1 17  1  6
  2 18  1  1
  3 19  1  6
  4 20  1  1
  5 21  1  6
  6 22  1  0
  6 23  1  0
  7 24  1  0
  8 25  1  0
  8 26  1  0
  8 27  1  0
  9 28  1  0
 10 29  1  0
M  CHG  3   8   1  15  -1  16  -1
M  END
>  <filename_input>  (6) 
7NUT_GLP_docked.sdf

>  <pdb_id>  (6) 
7NUT_GLP

>  <pose_rank>  (6) 
5

>  <num_atoms_heavy>  (6) 
16

>  <num_torsions>  (6) 
3

>  <pose>  (6) 
[4.774321900221209, 1.243859552254459, -38.54671110013189, 2.1389248520105104, -1.3948315238194815, 2.1291604895074436, 3.0317384163322085, 1.0658245169418414, 4.107735519305541]

>  <energy>  (6) 
-414.3023033353323

>  <inter_energy>  (6) 
-408.1153843353316

>  <intra_energy>  (6) 
0.09187341196164218

>  <rmsd>  (6) 
5.49899

>  <sdf_rank>  (6) 
0

$$$$

     RDKit          3D

 29 29  0  0  0  0  0  0  0  0999 V2000
    3.5202   -1.2363  -36.8886 C   0  0  1  0  0  0  0  0  0  0  0  0
    4.7342   -2.0950  -37.2072 C   0  0  1  0  0  0  0  0  0  0  0  0
    5.9875   -1.4563  -36.7084 C   0  0  2  0  0  0  0  0  0  0  0  0
    6.0966   -0.0387  -37.1728 C   0  0  1  0  0  0  0  0  0  0  0  0
    4.8316    0.7512  -36.8012 C   0  0  1  0  0  0  0  0  0  0  0  0
    4.9278    2.1959  -37.2051 C   0  0  0  0  0  0  0  0  0  0  0  0
    3.3996   -1.1008  -35.5521 O   0  0  0  0  0  0  0  0  0  0  0  0
    4.5462   -3.4066  -36.5681 N   0  0  0  0  0  0  0  0  0  0  0  0
    7.1370   -2.2070  -37.2031 O   0  0  0  0  0  0  0  0  0  0  0  0
    7.2327    0.5952  -36.5860 O   0  0  0  0  0  0  0  0  0  0  0  0
    3.6830    0.1408  -37.4639 O   0  0  0  0  0  0  0  0  0  0  0  0
    5.1779    2.9754  -36.0756 O   0  0  0  0  0  0  0  0  0  0  0  0
    4.6960    4.5422  -36.2272 P   0  0  2  0  0  0  0  0  0  0  0  0
    3.9421    4.7226  -37.5637 O   0  0  0  0  0  0  0  0  0  0  0  0
    5.9318    5.4574  -36.2378 O   0  0  0  0  0  0  0  0  0  0  0  0
    3.7858    4.8204  -35.0025 O   0  0  0  0  0  0  0  0  0  0  0  0
    2.6352   -1.7269  -37.3199 H   0  0  0  0  0  0  0  0  0  0  0  0
    4.8305   -2.2075  -38.2972 H   0  0  0  0  0  0  0  0  0  0  0  0
    5.9642   -1.4624  -35.6086 H   0  0  0  0  0  0  0  0  0  0  0  0
    6.2101   -0.0504  -38.2669 H   0  0  0  0  0  0  0  0  0  0  0  0
    4.7179    0.7182  -35.7076 H   0  0  0  0  0  0  0  0  0  0  0  0
    5.7481    2.3216  -37.9272 H   0  0  0  0  0  0  0  0  0  0  0  0
    3.9819    2.5124  -37.6688 H   0  0  0  0  0  0  0  0  0  0  0  0
    3.9851   -1.7584  -35.0995 H   0  0  0  0  0  0  0  0  0  0  0  0
    4.5622   -3.2951  -35.5443 H   0  0  0  0  0  0  0  0  0  0  0  0
    3.6399   -3.8021  -36.8563 H   0  0  0  0  0  0  0  0  0  0  0  0
    5.3048   -4.0409  -36.8563 H   0  0  0  0  0  0  0  0  0  0  0  0
    7.6619   -2.5498  -36.4368 H   0  0  0  0  0  0  0  0  0  0  0  0
    7.1603    0.5548  -35.5995 H   0  0  0  0  0  0  0  0  0  0  0  0
  1  2  1  0
  1  7  1  0
  1 11  1  0
  2  3  1  0
  2  8  1  0
  3  4  1  0
  3  9  1  0
  4  5  1  0
  4 10  1  0
  5  6  1  0
  5 11  1  0
  6 12  1  0
 12 13  1  0
 13 14  2  0
 13 15  1  6
 13 16  1  0
  1 17  1  6
  2 18  1  6
  3 19  1  1
  4 20  1  6
  5 21  1  1
  6 22  1  0
  6 23  1  0
  7 24  1  0
  8 25  1  0
  8 26  1  0
  8 27  1  0
  9 28  1  0
 10 29  1  0
M  CHG  3   8   1  15  -1  16  -1
M  END
>  <filename_input>  (7) 
7NUT_GLP_docked.sdf

>  <pdb_id>  (7) 
7NUT_GLP

>  <pose_rank>  (7) 
6

>  <num_atoms_heavy>  (7) 
16

>  <num_torsions>  (7) 
3

>  <pose>  (7) 
[3.520234906998252, -1.2362758873417903, -36.88862499146006, 2.574469425193611, -0.3748159102304051, 0.6146750943380078, -9.033286832087436, -5.782583416746997, -0.6276583336730053]

>  <energy>  (7) 
-367.51603458112083

>  <inter_energy>  (7) 
-365.99169423102506

>  <intra_energy>  (7) 
1.379072526088437

>  <rmsd>  (7) 
6.15553

>  <sdf_rank>  (7) 
0

$$$$

     RDKit          3D

 29 29  0  0  0  0  0  0  0  0999 V2000
    5.9384   -0.7115  -37.1911 C   0  0  1  0  0  0  0  0  0  0  0  0
    5.0176   -1.6253  -36.3975 C   0  0  1  0  0  0  0  0  0  0  0  0
    3.5848   -1.3211  -36.6836 C   0  0  2  0  0  0  0  0  0  0  0  0
    3.2962    0.1374  -36.5197 C   0  0  1  0  0  0  0  0  0  0  0  0
    4.2682    0.9792  -37.3617 C   0  0  1  0  0  0  0  0  0  0  0  0
    3.9735    2.4500  -37.2639 C   0  0  0  0  0  0  0  0  0  0  0  0
    5.7407   -0.9052  -38.5113 O   0  0  0  0  0  0  0  0  0  0  0  0
    5.3232   -3.0156  -36.7689 N   0  0  0  0  0  0  0  0  0  0  0  0
    2.7418   -2.0775  -35.7634 O   0  0  0  0  0  0  0  0  0  0  0  0
    1.9576    0.4315  -36.9176 O   0  0  0  0  0  0  0  0  0  0  0  0
    5.6303    0.7287  -36.9003 O   0  0  0  0  0  0  0  0  0  0  0  0
    5.0759    3.1063  -36.7161 O   0  0  0  0  0  0  0  0  0  0  0  0
    4.7671    4.6562  -36.2548 P   0  0  2  0  0  0  0  0  0  0  0  0
    5.9990    5.2304  -35.5200 O   0  0  0  0  0  0  0  0  0  0  0  0
    3.5718    4.6721  -35.2875 O   0  0  0  0  0  0  0  0  0  0  0  0
    4.4571    5.4284  -37.5637 O   0  0  0  0  0  0  0  0  0  0  0  0
    6.9750   -0.9442  -36.9062 H   0  0  0  0  0  0  0  0  0  0  0  0
    5.1813   -1.4690  -35.3210 H   0  0  0  0  0  0  0  0  0  0  0  0
    3.3730   -1.6038  -37.7254 H   0  0  0  0  0  0  0  0  0  0  0  0
    3.4241    0.3887  -35.4564 H   0  0  0  0  0  0  0  0  0  0  0  0
    4.1495    0.6853  -38.4150 H   0  0  0  0  0  0  0  0  0  0  0  0
    3.7686    2.8511  -38.2675 H   0  0  0  0  0  0  0  0  0  0  0  0
    3.0945    2.6075  -36.6215 H   0  0  0  0  0  0  0  0  0  0  0  0
    5.0397   -1.5919  -38.6427 H   0  0  0  0  0  0  0  0  0  0  0  0
    5.4471   -3.5795  -35.9159 H   0  0  0  0  0  0  0  0  0  0  0  0
    4.5468   -3.4009  -37.3254 H   0  0  0  0  0  0  0  0  0  0  0  0
    6.1896   -3.0399  -37.3254 H   0  0  0  0  0  0  0  0  0  0  0  0
    2.9893   -1.8554  -34.8309 H   0  0  0  0  0  0  0  0  0  0  0  0
    1.3938    0.5554  -36.1133 H   0  0  0  0  0  0  0  0  0  0  0  0
  1  2  1  0
  1  7  1  0
  1 11  1  0
  2  3  1  0
  2  8  1  0
  3  4  1  0
  3  9  1  0
  4  5  1  0
  4 10  1  0
  5  6  1  0
  5 11  1  0
  6 12  1  0
 12 13  1  0
 13 14  2  0
 13 15  1  1
 13 16  1  0
  1 17  1  6
  2 18  1  1
  3 19  1  6
  4 20  1  1
  5 21  1  6
  6 22  1  0
  6 23  1  0
  7 24  1  0
  8 25  1  0
  8 26  1  0
  8 27  1  0
  9 28  1  0
 10 29  1  0
M  CHG  3   8   1  15  -1  16  -1
M  END
>  <filename_input>  (8) 
7NUT_GLP_docked.sdf

>  <pdb_id>  (8) 
7NUT_GLP

>  <pose_rank>  (8) 
7

>  <num_atoms_heavy>  (8) 
16

>  <num_torsions>  (8) 
3

>  <pose>  (8) 
[5.938385220273268, -0.7115469659514976, -37.191146467643755, 0.19704891293496266, 0.4218127798003315, -2.6685803389685336, 1.1331964145315918, 0.2969528034321272, -3.981724632140599]

>  <energy>  (8) 
-408.9066064040433

>  <inter_energy>  (8) 
-403.9950296340618

>  <intra_energy>  (8) 
0.0

>  <rmsd>  (8) 
6.2175

>  <sdf_rank>  (8) 
0

$$$$

     RDKit          3D

 29 29  0  0  0  0  0  0  0  0999 V2000
    3.4058    5.4751  -37.2457 C   0  0  1  0  0  0  0  0  0  0  0  0
    3.9694    6.0300  -35.9468 C   0  0  1  0  0  0  0  0  0  0  0  0
    4.9641    5.0906  -35.3503 C   0  0  2  0  0  0  0  0  0  0  0  0
    4.4056    3.7076  -35.2385 C   0  0  1  0  0  0  0  0  0  0  0  0
    3.8683    3.2297  -36.5968 C   0  0  1  0  0  0  0  0  0  0  0  0
    3.3472    1.8209  -36.5350 C   0  0  0  0  0  0  0  0  0  0  0  0
    4.4019    5.3199  -38.1418 O   0  0  0  0  0  0  0  0  0  0  0  0
    4.6078    7.3222  -36.2412 N   0  0  0  0  0  0  0  0  0  0  0  0
    5.3302    5.5631  -34.0190 O   0  0  0  0  0  0  0  0  0  0  0  0
    5.4072    2.7974  -34.7855 O   0  0  0  0  0  0  0  0  0  0  0  0
    2.7940    4.1230  -37.0197 O   0  0  0  0  0  0  0  0  0  0  0  0
    4.2418    1.0290  -35.8149 O   0  0  0  0  0  0  0  0  0  0  0  0
    3.9947   -0.5885  -35.9962 P   0  0  2  0  0  0  0  0  0  0  0  0
    5.3430   -1.3329  -35.8725 O   0  0  0  0  0  0  0  0  0  0  0  0
    3.4135   -0.8625  -37.3932 O   0  0  0  0  0  0  0  0  0  0  0  0
    3.0030   -0.9888  -34.8728 O   0  0  0  0  0  0  0  0  0  0  0  0
    2.6460    6.1801  -37.6141 H   0  0  0  0  0  0  0  0  0  0  0  0
    3.1563    6.1591  -35.2173 H   0  0  0  0  0  0  0  0  0  0  0  0
    5.8460    5.0588  -36.0070 H   0  0  0  0  0  0  0  0  0  0  0  0
    3.5815    3.7349  -34.5103 H   0  0  0  0  0  0  0  0  0  0  0  0
    4.6995    3.2457  -37.3171 H   0  0  0  0  0  0  0  0  0  0  0  0
    2.3666    1.8135  -36.0367 H   0  0  0  0  0  0  0  0  0  0  0  0
    3.2412    1.4225  -37.5549 H   0  0  0  0  0  0  0  0  0  0  0  0
    5.2583    5.1864  -37.6634 H   0  0  0  0  0  0  0  0  0  0  0  0
    4.8429    7.7981  -35.3585 H   0  0  0  0  0  0  0  0  0  0  0  0
    5.4678    7.1642  -36.7857 H   0  0  0  0  0  0  0  0  0  0  0  0
    3.9598    7.9092  -36.7857 H   0  0  0  0  0  0  0  0  0  0  0  0
    4.8914    4.9969  -33.3357 H   0  0  0  0  0  0  0  0  0  0  0  0
    5.4195    2.7862  -33.7956 H   0  0  0  0  0  0  0  0  0  0  0  0
  1  2  1  0
  1  7  1  0
  1 11  1  0
  2  3  1  0
  2  8  1  0
  3  4  1  0
  3  9  1  0
  4  5  1  0
  4 10  1  0
  5  6  1  0
  5 11  1  0
  6 12  1  0
 12 13  1  0
 13 14  2  0
 13 15  1  6
 13 16  1  0
  1 17  1  6
  2 18  1  1
  3 19  1  6
  4 20  1  1
  5 21  1  6
  6 22  1  0
  6 23  1  0
  7 24  1  0
  8 25  1  0
  8 26  1  0
  8 27  1  0
  9 28  1  0
 10 29  1  0
M  CHG  3   8   1  15  -1  16  -1
M  END
>  <filename_input>  (9) 
7NUT_GLP_docked.sdf

>  <pdb_id>  (9) 
7NUT_GLP

>  <pose_rank>  (9) 
8

>  <num_atoms_heavy>  (9) 
16

>  <num_torsions>  (9) 
3

>  <pose>  (9) 
[3.4057984273967117, 5.475147055756519, -37.24567310240544, -0.41731360970612874, -0.4231993174584988, -0.1749404438985628, -7.987784208021882, -5.94740427547939, -4.409611993153131]

>  <energy>  (9) 
-498.0003186652969

>  <inter_energy>  (9) 
-528.5219640549373

>  <intra_energy>  (9) 
32.76999390877761

>  <rmsd>  (9) 
1.42712

>  <sdf_rank>  (9) 
0

$$$$

     RDKit          3D

 29 29  0  0  0  0  0  0  0  0999 V2000
    4.2364   -0.9164  -37.6132 C   0  0  1  0  0  0  0  0  0  0  0  0
    5.6696   -0.8985  -37.1049 C   0  0  1  0  0  0  0  0  0  0  0  0
    5.7624   -0.1997  -35.7894 C   0  0  2  0  0  0  0  0  0  0  0  0
    5.1105    1.1455  -35.8420 C   0  0  1  0  0  0  0  0  0  0  0  0
    3.6677    1.0276  -36.3584 C   0  0  1  0  0  0  0  0  0  0  0  0
    2.9622    2.3550  -36.3738 C   0  0  0  0  0  0  0  0  0  0  0  0
    3.4557   -1.5892  -36.7430 O   0  0  0  0  0  0  0  0  0  0  0  0
    6.1239   -2.2912  -36.9707 N   0  0  0  0  0  0  0  0  0  0  0  0
    7.1679   -0.0318  -35.4347 O   0  0  0  0  0  0  0  0  0  0  0  0
    5.0960    1.7466  -34.5477 O   0  0  0  0  0  0  0  0  0  0  0  0
    3.6944    0.4801  -37.7114 O   0  0  0  0  0  0  0  0  0  0  0  0
    3.8292    3.3330  -36.8616 O   0  0  0  0  0  0  0  0  0  0  0  0
    3.6734    4.7929  -36.1170 P   0  0  2  0  0  0  0  0  0  0  0  0
    3.7938    4.6071  -34.5878 O   0  0  0  0  0  0  0  0  0  0  0  0
    2.2863    5.3791  -36.4286 O   0  0  0  0  0  0  0  0  0  0  0  0
    4.8122    5.6775  -36.6880 O   0  0  0  0  0  0  0  0  0  0  0  0
    4.2336   -1.3964  -38.6029 H   0  0  0  0  0  0  0  0  0  0  0  0
    6.3063   -0.3521  -37.8163 H   0  0  0  0  0  0  0  0  0  0  0  0
    5.2424   -0.8103  -35.0366 H   0  0  0  0  0  0  0  0  0  0  0  0
    5.6931    1.7755  -36.5302 H   0  0  0  0  0  0  0  0  0  0  0  0
    3.1146    0.3646  -35.6768 H   0  0  0  0  0  0  0  0  0  0  0  0
    2.0763    2.2926  -37.0229 H   0  0  0  0  0  0  0  0  0  0  0  0
    2.6485    2.6171  -35.3526 H   0  0  0  0  0  0  0  0  0  0  0  0
    3.7208   -1.3608  -35.8170 H   0  0  0  0  0  0  0  0  0  0  0  0
    6.2025   -2.5321  -35.9724 H   0  0  0  0  0  0  0  0  0  0  0  0
    5.4442   -2.9192  -37.4229 H   0  0  0  0  0  0  0  0  0  0  0  0
    7.0432   -2.3976  -37.4229 H   0  0  0  0  0  0  0  0  0  0  0  0
    7.2605   -0.0207  -34.4491 H   0  0  0  0  0  0  0  0  0  0  0  0
    5.1130    1.0394  -33.8551 H   0  0  0  0  0  0  0  0  0  0  0  0
  1  2  1  0
  1  7  1  0
  1 11  1  0
  2  3  1  0
  2  8  1  0
  3  4  1  0
  3  9  1  0
  4  5  1  0
  4 10  1  0
  5  6  1  0
  5 11  1  0
  6 12  1  0
 12 13  1  0
 13 14  2  0
 13 15  1  1
 13 16  1  0
  1 17  1  6
  2 18  1  6
  3 19  1  1
  4 20  1  6
  5 21  1  1
  6 22  1  0
  6 23  1  0
  7 24  1  0
  8 25  1  0
  8 26  1  0
  8 27  1  0
  9 28  1  0
 10 29  1  0
M  CHG  3   8   1  15  -1  16  -1
M  END
>  <filename_input>  (10) 
7NUT_GLP_docked.sdf

>  <pdb_id>  (10) 
7NUT_GLP

>  <pose_rank>  (10) 
9

>  <num_atoms_heavy>  (10) 
16

>  <num_torsions>  (10) 
3

>  <pose>  (10) 
[4.236397553497502, -0.9164355599053864, -37.61319783900174, -2.4552633566053537, -0.12832106427162915, -1.635310372735675, 6.089816178502732, 7.006859927294023, 0.199810327754937]

>  <energy>  (10) 
-444.56393354159593

>  <inter_energy>  (10) 
-436.0423309474843

>  <intra_energy>  (10) 
5.4747399166533715

>  <rmsd>  (10) 
5.60198

>  <sdf_rank>  (10) 
0

$$$$

     RDKit          3D

 29 29  0  0  0  0  0  0  0  0999 V2000
    2.7466    4.9559  -36.8372 C   0  0  1  0  0  0  0  0  0  0  0  0
    3.7142    5.1720  -35.6841 C   0  0  1  0  0  0  0  0  0  0  0  0
    4.9422    4.3406  -35.8527 C   0  0  2  0  0  0  0  0  0  0  0  0
    4.5970    2.9076  -36.1071 C   0  0  1  0  0  0  0  0  0  0  0  0
    3.6237    2.7875  -37.2906 C   0  0  1  0  0  0  0  0  0  0  0  0
    3.2959    1.3556  -37.6102 C   0  0  0  0  0  0  0  0  0  0  0  0
    3.3305    5.3290  -37.9943 O   0  0  0  0  0  0  0  0  0  0  0  0
    4.0707    6.5988  -35.6483 N   0  0  0  0  0  0  0  0  0  0  0  0
    5.7483    4.4258  -34.6393 O   0  0  0  0  0  0  0  0  0  0  0  0
    5.7735    2.1511  -36.3908 O   0  0  0  0  0  0  0  0  0  0  0  0
    2.3936    3.5023  -36.9638 O   0  0  0  0  0  0  0  0  0  0  0  0
    2.5291    0.8159  -36.5774 O   0  0  0  0  0  0  0  0  0  0  0  0
    2.9099   -0.7428  -36.2093 P   0  0  2  0  0  0  0  0  0  0  0  0
    2.5104   -1.0394  -34.7465 O   0  0  0  0  0  0  0  0  0  0  0  0
    4.4279   -0.9441  -36.3499 O   0  0  0  0  0  0  0  0  0  0  0  0
    2.1189   -1.6162  -37.2179 O   0  0  0  0  0  0  0  0  0  0  0  0
    1.8432    5.5512  -36.6379 H   0  0  0  0  0  0  0  0  0  0  0  0
    3.2365    4.8702  -34.7403 H   0  0  0  0  0  0  0  0  0  0  0  0
    5.5024    4.7236  -36.7185 H   0  0  0  0  0  0  0  0  0  0  0  0
    4.1179    2.5104  -35.2001 H   0  0  0  0  0  0  0  0  0  0  0  0
    4.1085    3.2237  -38.1764 H   0  0  0  0  0  0  0  0  0  0  0  0
    2.7285    1.3100  -38.5515 H   0  0  0  0  0  0  0  0  0  0  0  0
    4.2270    0.7798  -37.7172 H   0  0  0  0  0  0  0  0  0  0  0  0
    4.1482    5.8514  -37.7979 H   0  0  0  0  0  0  0  0  0  0  0  0
    4.1482    6.9089  -34.6692 H   0  0  0  0  0  0  0  0  0  0  0  0
    4.9727    6.7394  -36.1254 H   0  0  0  0  0  0  0  0  0  0  0  0
    3.3408    7.1471  -36.1254 H   0  0  0  0  0  0  0  0  0  0  0  0
    5.1588    4.3635  -33.8464 H   0  0  0  0  0  0  0  0  0  0  0  0
    6.2016    1.8759  -35.5416 H   0  0  0  0  0  0  0  0  0  0  0  0
  1  2  1  0
  1  7  1  0
  1 11  1  0
  2  3  1  0
  2  8  1  0
  3  4  1  0
  3  9  1  0
  4  5  1  0
  4 10  1  0
  5  6  1  0
  5 11  1  0
  6 12  1  0
 12 13  1  0
 13 14  2  0
 13 15  1  1
 13 16  1  0
  1 17  1  1
  2 18  1  1
  3 19  1  6
  4 20  1  1
  5 21  1  6
  6 22  1  0
  6 23  1  0
  7 24  1  0
  8 25  1  0
  8 26  1  0
  8 27  1  0
  9 28  1  0
 10 29  1  0
M  CHG  3   8   1  15  -1  16  -1
M  END
>  <filename_input>  (11) 
7NUT_GLP_docked.sdf

>  <pdb_id>  (11) 
7NUT_GLP

>  <pose_rank>  (11) 
10

>  <num_atoms_heavy>  (11) 
16

>  <num_torsions>  (11) 
3

>  <pose>  (11) 
[2.7465594298019305, 4.955940464186907, -36.83716202989856, -3.942231439096716, -4.885994454987542, -0.9540051727122074, -6.018306255144887, -5.523858505302253, -4.303060259214964]

>  <energy>  (11) 
-543.4205255409569

>  <inter_energy>  (11) 
-541.8010205764436

>  <intra_energy>  (11) 
0.018370339013899728

>  <rmsd>  (11) 
1.30101

>  <sdf_rank>  (11) 
0

$$$$

     RDKit          3D

 29 29  0  0  0  0  0  0  0  0999 V2000
    2.8791    5.0254  -36.9983 C   0  0  1  0  0  0  0  0  0  0  0  0
    3.6477    5.3434  -35.7252 C   0  0  1  0  0  0  0  0  0  0  0  0
    4.7922    4.4033  -35.5419 C   0  0  2  0  0  0  0  0  0  0  0  0
    4.3485    2.9793  -35.6542 C   0  0  1  0  0  0  0  0  0  0  0  0
    3.5898    2.7514  -36.9713 C   0  0  1  0  0  0  0  0  0  0  0  0
    3.1746    1.3169  -37.1439 C   0  0  0  0  0  0  0  0  0  0  0  0
    3.6920    5.1666  -38.0654 O   0  0  0  0  0  0  0  0  0  0  0  0
    4.1400    6.7263  -35.8225 N   0  0  0  0  0  0  0  0  0  0  0  0
    5.3785    4.6144  -34.2223 O   0  0  0  0  0  0  0  0  0  0  0  0
    5.4706    2.0989  -35.6028 O   0  0  0  0  0  0  0  0  0  0  0  0
    2.4032    3.6016  -36.9851 O   0  0  0  0  0  0  0  0  0  0  0  0
    3.8424    0.5271  -36.2077 O   0  0  0  0  0  0  0  0  0  0  0  0
    4.1064   -1.0190  -36.7075 P   0  0  2  0  0  0  0  0  0  0  0  0
    5.1530   -1.0217  -37.8441 O   0  0  0  0  0  0  0  0  0  0  0  0
    2.7952   -1.6104  -37.2513 O   0  0  0  0  0  0  0  0  0  0  0  0
    4.6054   -1.7844  -35.4542 O   0  0  0  0  0  0  0  0  0  0  0  0
    2.0222    5.7127  -37.0578 H   0  0  0  0  0  0  0  0  0  0  0  0
    2.9835    5.2309  -34.8556 H   0  0  0  0  0  0  0  0  0  0  0  0
    5.5320    4.6016  -36.3315 H   0  0  0  0  0  0  0  0  0  0  0  0
    3.6794    2.7671  -34.8073 H   0  0  0  0  0  0  0  0  0  0  0  0
    4.2648    3.0048  -37.8020 H   0  0  0  0  0  0  0  0  0  0  0  0
    2.0888    1.2279  -36.9919 H   0  0  0  0  0  0  0  0  0  0  0  0
    3.4298    0.9794  -38.1593 H   0  0  0  0  0  0  0  0  0  0  0  0
    4.6184    5.3274  -37.7554 H   0  0  0  0  0  0  0  0  0  0  0  0
    4.2764    7.1095  -34.8762 H   0  0  0  0  0  0  0  0  0  0  0  0
    5.0364    6.7368  -36.3297 H   0  0  0  0  0  0  0  0  0  0  0  0
    3.4518    7.3009  -36.3297 H   0  0  0  0  0  0  0  0  0  0  0  0
    4.7170    4.3762  -33.5254 H   0  0  0  0  0  0  0  0  0  0  0  0
    5.7036    1.9160  -34.6582 H   0  0  0  0  0  0  0  0  0  0  0  0
  1  2  1  0
  1  7  1  0
  1 11  1  0
  2  3  1  0
  2  8  1  0
  3  4  1  0
  3  9  1  0
  4  5  1  0
  4 10  1  0
  5  6  1  0
  5 11  1  0
  6 12  1  0
 12 13  1  0
 13 14  2  0
 13 15  1  6
 13 16  1  0
  1 17  1  6
  2 18  1  1
  3 19  1  6
  4 20  1  1
  5 21  1  6
  6 22  1  0
  6 23  1  0
  7 24  1  0
  8 25  1  0
  8 26  1  0
  8 27  1  0
  9 28  1  0
 10 29  1  0
M  CHG  3   8   1  15  -1  16  -1
M  END
>  <filename_input>  (12) 
7NUT_GLP_docked.sdf

>  <pdb_id>  (12) 
7NUT_GLP

>  <pose_rank>  (12) 
11

>  <num_atoms_heavy>  (12) 
16

>  <num_torsions>  (12) 
3

>  <pose>  (12) 
[2.8790565593805986, 5.025407631135894, -36.99833772570642, 3.5923531461381657, 4.361534640674501, 1.9066941423781705, -7.445564732154786, -5.695168315716465, -5.800175408731849]

>  <energy>  (12) 
-461.4021150836425

>  <inter_energy>  (12) 
-495.92498159399344

>  <intra_energy>  (12) 
35.02646255883524

>  <rmsd>  (12) 
1.49449

>  <sdf_rank>  (12) 
0

$$$$

     RDKit          3D

 29 29  0  0  0  0  0  0  0  0999 V2000
    3.6274    5.5772  -37.5282 C   0  0  1  0  0  0  0  0  0  0  0  0
    4.1470    5.8942  -36.1346 C   0  0  1  0  0  0  0  0  0  0  0  0
    5.0708    4.8260  -35.6519 C   0  0  2  0  0  0  0  0  0  0  0  0
    4.4510    3.4712  -35.7850 C   0  0  1  0  0  0  0  0  0  0  0  0
    3.9639    3.2381  -37.2240 C   0  0  1  0  0  0  0  0  0  0  0  0
    3.3829    1.8641  -37.4089 C   0  0  0  0  0  0  0  0  0  0  0  0
    4.6603    5.5159  -38.3935 O   0  0  0  0  0  0  0  0  0  0  0  0
    4.8520    7.1840  -36.1925 N   0  0  0  0  0  0  0  0  0  0  0  0
    5.3882    5.0661  -34.2479 O   0  0  0  0  0  0  0  0  0  0  0  0
    5.3902    2.4539  -35.4389 O   0  0  0  0  0  0  0  0  0  0  0  0
    2.9499    4.2377  -37.5462 O   0  0  0  0  0  0  0  0  0  0  0  0
    3.3517    1.2066  -36.1789 O   0  0  0  0  0  0  0  0  0  0  0  0
    3.5927   -0.4184  -36.2857 P   0  0  2  0  0  0  0  0  0  0  0  0
    4.7611   -0.8280  -35.3613 O   0  0  0  0  0  0  0  0  0  0  0  0
    3.9643   -0.7851  -37.7321 O   0  0  0  0  0  0  0  0  0  0  0  0
    2.2526   -1.0693  -35.8543 O   0  0  0  0  0  0  0  0  0  0  0  0
    2.9168    6.3672  -37.8130 H   0  0  0  0  0  0  0  0  0  0  0  0
    3.3039    5.9469  -35.4299 H   0  0  0  0  0  0  0  0  0  0  0  0
    5.9827    4.8544  -36.2663 H   0  0  0  0  0  0  0  0  0  0  0  0
    3.5930    3.4243  -35.0982 H   0  0  0  0  0  0  0  0  0  0  0  0
    4.8304    3.3263  -37.8958 H   0  0  0  0  0  0  0  0  0  0  0  0
    2.3608    1.9479  -37.8067 H   0  0  0  0  0  0  0  0  0  0  0  0
    4.0039    1.2938  -38.1155 H   0  0  0  0  0  0  0  0  0  0  0  0
    5.5107    5.4653  -37.8892 H   0  0  0  0  0  0  0  0  0  0  0  0
    5.0348    7.5186  -35.2357 H   0  0  0  0  0  0  0  0  0  0  0  0
    5.7453    7.0650  -36.6912 H   0  0  0  0  0  0  0  0  0  0  0  0
    4.2694    7.8716  -36.6912 H   0  0  0  0  0  0  0  0  0  0  0  0
    4.7439    4.5787  -33.6758 H   0  0  0  0  0  0  0  0  0  0  0  0
    5.4538    2.3849  -34.4533 H   0  0  0  0  0  0  0  0  0  0  0  0
  1  2  1  0
  1  7  1  0
  1 11  1  0
  2  3  1  0
  2  8  1  0
  3  4  1  0
  3  9  1  0
  4  5  1  0
  4 10  1  0
  5  6  1  0
  5 11  1  0
  6 12  1  0
 12 13  1  0
 13 14  2  0
 13 15  1  6
 13 16  1  0
  1 17  1  6
  2 18  1  1
  3 19  1  6
  4 20  1  1
  5 21  1  6
  6 22  1  0
  6 23  1  0
  7 24  1  0
  8 25  1  0
  8 26  1  0
  8 27  1  0
  9 28  1  0
 10 29  1  0
M  CHG  3   8   1  15  -1  16  -1
M  END
>  <filename_input>  (13) 
7NUT_GLP_docked.sdf

>  <pdb_id>  (13) 
7NUT_GLP

>  <pose_rank>  (13) 
12

>  <num_atoms_heavy>  (13) 
16

>  <num_torsions>  (13) 
3

>  <pose>  (13) 
[3.6273964441315, 5.5772420515709795, -37.52823566177061, 2.634194787706637, 4.360989947558338, 2.5637628667415617, -7.138386009317254, -5.621393900428652, -4.820991825522915]

>  <energy>  (13) 
-503.90291644703143

>  <inter_energy>  (13) 
-527.3587491289297

>  <intra_energy>  (13) 
27.141784118529245

>  <rmsd>  (13) 
1.16057

>  <sdf_rank>  (13) 
0

$$$$

     RDKit          3D

 29 29  0  0  0  0  0  0  0  0999 V2000
    2.6378    6.1260  -35.9900 C   0  0  1  0  0  0  0  0  0  0  0  0
    3.8013    6.2207  -35.0153 C   0  0  1  0  0  0  0  0  0  0  0  0
    4.9918    5.4817  -35.5293 C   0  0  2  0  0  0  0  0  0  0  0  0
    4.6337    4.0851  -35.9274 C   0  0  1  0  0  0  0  0  0  0  0  0
    3.4570    4.0893  -36.9162 C   0  0  1  0  0  0  0  0  0  0  0  0
    3.1037    2.7040  -37.3807 C   0  0  0  0  0  0  0  0  0  0  0  0
    2.9851    6.6885  -37.1657 O   0  0  0  0  0  0  0  0  0  0  0  0
    4.1293    7.6431  -34.8326 N   0  0  0  0  0  0  0  0  0  0  0  0
    6.0108    5.4307  -34.4859 O   0  0  0  0  0  0  0  0  0  0  0  0
    5.7504    3.4342  -36.5324 O   0  0  0  0  0  0  0  0  0  0  0  0
    2.2966    4.6903  -36.2656 O   0  0  0  0  0  0  0  0  0  0  0  0
    2.6911    1.9417  -36.2876 O   0  0  0  0  0  0  0  0  0  0  0  0
    2.6495    0.3225  -36.5821 P   0  0  2  0  0  0  0  0  0  0  0  0
    2.4865   -0.4399  -35.2482 O   0  0  0  0  0  0  0  0  0  0  0  0
    3.9734   -0.1119  -37.2328 O   0  0  0  0  0  0  0  0  0  0  0  0
    1.4430    0.1007  -37.5312 O   0  0  0  0  0  0  0  0  0  0  0  0
    1.7766    6.6427  -35.5413 H   0  0  0  0  0  0  0  0  0  0  0  0
    3.5166    5.7645  -34.0558 H   0  0  0  0  0  0  0  0  0  0  0  0
    5.3706    6.0111  -36.4160 H   0  0  0  0  0  0  0  0  0  0  0  0
    4.3426    3.5396  -35.0176 H   0  0  0  0  0  0  0  0  0  0  0  0
    3.7569    4.6705  -37.8006 H   0  0  0  0  0  0  0  0  0  0  0  0
    2.2890    2.7603  -38.1177 H   0  0  0  0  0  0  0  0  0  0  0  0
    3.9840    2.2355  -37.8450 H   0  0  0  0  0  0  0  0  0  0  0  0
    3.4975    7.5184  -36.9960 H   0  0  0  0  0  0  0  0  0  0  0  0
    4.1788    7.8576  -33.8264 H   0  0  0  0  0  0  0  0  0  0  0  0
    5.0389    7.8449  -35.2718 H   0  0  0  0  0  0  0  0  0  0  0  0
    3.4000    8.2228  -35.2718 H   0  0  0  0  0  0  0  0  0  0  0  0
    5.5746    5.4526  -33.5974 H   0  0  0  0  0  0  0  0  0  0  0  0
    6.3505    3.0844  -35.8270 H   0  0  0  0  0  0  0  0  0  0  0  0
  1  2  1  0
  1  7  1  0
  1 11  1  0
  2  3  1  0
  2  8  1  0
  3  4  1  0
  3  9  1  0
  4  5  1  0
  4 10  1  0
  5  6  1  0
  5 11  1  0
  6 12  1  0
 12 13  1  0
 13 14  2  0
 13 15  1  6
 13 16  1  0
  1 17  1  1
  2 18  1  1
  3 19  1  6
  4 20  1  1
  5 21  1  6
  6 22  1  0
  6 23  1  0
  7 24  1  0
  8 25  1  0
  8 26  1  0
  8 27  1  0
  9 28  1  0
 10 29  1  0
M  CHG  3   8   1  15  -1  16  -1
M  END
>  <filename_input>  (14) 
7NUT_GLP_docked.sdf

>  <pdb_id>  (14) 
7NUT_GLP

>  <pose_rank>  (14) 
13

>  <num_atoms_heavy>  (14) 
16

>  <num_torsions>  (14) 
3

>  <pose>  (14) 
[2.63784074572132, 6.12603163501041, -35.98999276407933, -3.711624394475639, -4.776225321755007, -0.850719877839655, -6.128096400930367, -5.944654875714208, -4.084046230082247]

>  <energy>  (14) 
-567.3454619879617

>  <inter_energy>  (14) 
-562.8752164279729

>  <intra_energy>  (14) 
0.0

>  <rmsd>  (14) 
0.749033

>  <sdf_rank>  (14) 
0

$$$$

     RDKit          3D

 29 29  0  0  0  0  0  0  0  0999 V2000
    2.2965   -4.1773  -45.5581 C   0  0  1  0  0  0  0  0  0  0  0  0
    3.5244   -4.9474  -45.0978 C   0  0  1  0  0  0  0  0  0  0  0  0
    3.7557   -4.7616  -43.6351 C   0  0  2  0  0  0  0  0  0  0  0  0
    3.7636   -3.3120  -43.2665 C   0  0  1  0  0  0  0  0  0  0  0  0
    2.4847   -2.6202  -43.7645 C   0  0  1  0  0  0  0  0  0  0  0  0
    2.4327   -1.1720  -43.3647 C   0  0  0  0  0  0  0  0  0  0  0  0
    1.2047   -4.6396  -44.9152 O   0  0  0  0  0  0  0  0  0  0  0  0
    3.3097   -6.3713  -45.3989 N   0  0  0  0  0  0  0  0  0  0  0  0
    5.0421   -5.3493  -43.2754 O   0  0  0  0  0  0  0  0  0  0  0  0
    3.8592   -3.1550  -41.8512 O   0  0  0  0  0  0  0  0  0  0  0  0
    2.4303   -2.7208  -45.2198 O   0  0  0  0  0  0  0  0  0  0  0  0
    3.3055   -0.4393  -44.1693 O   0  0  0  0  0  0  0  0  0  0  0  0
    2.5515    0.6272  -45.1713 P   0  0  2  0  0  0  0  0  0  0  0  0
    2.9506    0.3307  -46.6342 O   0  0  0  0  0  0  0  0  0  0  0  0
    2.9991    2.0570  -44.8246 O   0  0  0  0  0  0  0  0  0  0  0  0
    1.0326    0.4264  -44.9296 O   0  0  0  0  0  0  0  0  0  0  0  0
    2.2022   -4.3084  -46.6462 H   0  0  0  0  0  0  0  0  0  0  0  0
    4.4141   -4.5719  -45.6246 H   0  0  0  0  0  0  0  0  0  0  0  0
    2.9375   -5.2557  -43.0906 H   0  0  0  0  0  0  0  0  0  0  0  0
    4.6385   -2.8476  -43.7448 H   0  0  0  0  0  0  0  0  0  0  0  0
    1.6226   -3.1240  -43.3030 H   0  0  0  0  0  0  0  0  0  0  0  0
    1.4084   -0.7920  -43.4930 H   0  0  0  0  0  0  0  0  0  0  0  0
    2.7304   -1.0701  -42.3106 H   0  0  0  0  0  0  0  0  0  0  0  0
    1.3472   -4.5792  -43.9374 H   0  0  0  0  0  0  0  0  0  0  0  0
    3.2300   -6.9001  -44.5186 H   0  0  0  0  0  0  0  0  0  0  0  0
    2.4428   -6.4800  -45.9444 H   0  0  0  0  0  0  0  0  0  0  0  0
    4.1060   -6.7308  -45.9444 H   0  0  0  0  0  0  0  0  0  0  0  0
    5.1237   -5.3866  -42.2895 H   0  0  0  0  0  0  0  0  0  0  0  0
    3.4000   -3.9094  -41.4037 H   0  0  0  0  0  0  0  0  0  0  0  0
  1  2  1  0
  1  7  1  0
  1 11  1  0
  2  3  1  0
  2  8  1  0
  3  4  1  0
  3  9  1  0
  4  5  1  0
  4 10  1  0
  5  6  1  0
  5 11  1  0
  6 12  1  0
 12 13  1  0
 13 14  2  0
 13 15  1  1
 13 16  1  0
  1 17  1  6
  2 18  1  6
  3 19  1  1
  4 20  1  6
  5 21  1  1
  6 22  1  0
  6 23  1  0
  7 24  1  0
  8 25  1  0
  8 26  1  0
  8 27  1  0
  9 28  1  0
 10 29  1  0
M  CHG  3   8   1  15  -1  16  -1
M  END
>  <filename_input>  (15) 
7NUT_GLP_docked.sdf

>  <pdb_id>  (15) 
7NUT_GLP

>  <pose_rank>  (15) 
14

>  <num_atoms_heavy>  (15) 
16

>  <num_torsions>  (15) 
3

>  <pose>  (15) 
[2.2965222782624943, -4.177303194823688, -45.55812988174321, 2.588692673558906, -0.7636274228394886, 1.9280233920173544, 0.3785244970625368, -1.0831426556165735, -2.8780473932423014]

>  <energy>  (15) 
-156.3021050102437

>  <inter_energy>  (15) 
-149.99275926900512

>  <intra_energy>  (15) 
6.085296219157311

>  <rmsd>  (15) 
11.2121

>  <sdf_rank>  (15) 
0

$$$$

     RDKit          3D

 29 29  0  0  0  0  0  0  0  0999 V2000
    1.3306    8.6275  -45.4178 C   0  0  1  0  0  0  0  0  0  0  0  0
    2.2818    9.6629  -45.9973 C   0  0  1  0  0  0  0  0  0  0  0  0
    1.8312   11.0472  -45.6686 C   0  0  2  0  0  0  0  0  0  0  0  0
    0.3966   11.2534  -46.0383 C   0  0  1  0  0  0  0  0  0  0  0  0
   -0.4871   10.1680  -45.4032 C   0  0  1  0  0  0  0  0  0  0  0  0
   -1.9443   10.3745  -45.7092 C   0  0  0  0  0  0  0  0  0  0  0  0
    1.3078    8.7358  -44.0735 O   0  0  0  0  0  0  0  0  0  0  0  0
    3.6192    9.4196  -45.4349 N   0  0  0  0  0  0  0  0  0  0  0  0
    2.6522   12.0048  -46.4025 O   0  0  0  0  0  0  0  0  0  0  0  0
   -0.0538   12.5361  -45.6039 O   0  0  0  0  0  0  0  0  0  0  0  0
   -0.0684    8.8640  -45.9083 O   0  0  0  0  0  0  0  0  0  0  0  0
   -2.6804   10.2927  -44.5269 O   0  0  0  0  0  0  0  0  0  0  0  0
   -4.2998   10.5035  -44.7344 P   0  0  2  0  0  0  0  0  0  0  0  0
   -4.7856   11.6709  -43.8464 O   0  0  0  0  0  0  0  0  0  0  0  0
   -5.0397    9.2252  -44.3061 O   0  0  0  0  0  0  0  0  0  0  0  0
   -4.4931   10.8004  -46.2444 O   0  0  0  0  0  0  0  0  0  0  0  0
    1.6807    7.6327  -45.7304 H   0  0  0  0  0  0  0  0  0  0  0  0
    2.3022    9.5722  -47.0934 H   0  0  0  0  0  0  0  0  0  0  0  0
    1.9370   11.1965  -44.5839 H   0  0  0  0  0  0  0  0  0  0  0  0
    0.3187   11.1913  -47.1337 H   0  0  0  0  0  0  0  0  0  0  0  0
   -0.3650   10.2245  -44.3114 H   0  0  0  0  0  0  0  0  0  0  0  0
   -2.0874   11.3661  -46.1632 H   0  0  0  0  0  0  0  0  0  0  0  0
   -2.2867    9.5992  -46.4104 H   0  0  0  0  0  0  0  0  0  0  0  0
    1.4939    7.8521  -43.6680 H   0  0  0  0  0  0  0  0  0  0  0  0
    3.5661    9.4293  -44.4064 H   0  0  0  0  0  0  0  0  0  0  0  0
    3.9635    8.5022  -45.7524 H   0  0  0  0  0  0  0  0  0  0  0  0
    4.2645   10.1570  -45.7524 H   0  0  0  0  0  0  0  0  0  0  0  0
    3.1434   12.5777  -45.7618 H   0  0  0  0  0  0  0  0  0  0  0  0
   -0.0638   12.5647  -44.6144 H   0  0  0  0  0  0  0  0  0  0  0  0
  1  2  1  0
  1  7  1  0
  1 11  1  0
  2  3  1  0
  2  8  1  0
  3  4  1  0
  3  9  1  0
  4  5  1  0
  4 10  1  0
  5  6  1  0
  5 11  1  0
  6 12  1  0
 12 13  1  0
 13 14  2  0
 13 15  1  1
 13 16  1  0
  1 17  1  1
  2 18  1  6
  3 19  1  1
  4 20  1  6
  5 21  1  1
  6 22  1  0
  6 23  1  0
  7 24  1  0
  8 25  1  0
  8 26  1  0
  8 27  1  0
  9 28  1  0
 10 29  1  0
M  CHG  3   8   1  15  -1  16  -1
M  END
>  <filename_input>  (16) 
7NUT_GLP_docked.sdf

>  <pdb_id>  (16) 
7NUT_GLP

>  <pose_rank>  (16) 
15

>  <num_atoms_heavy>  (16) 
16

>  <num_torsions>  (16) 
3

>  <pose>  (16) 
[1.3305802477939093, 8.627530204626929, -45.417757531905465, 2.4181434565965123, 1.6482959021783397, 0.7312834582003249, -3.2172733228446866, 0.0775359683968156, -2.8804446865511744]

>  <energy>  (16) 
-73.30688917210844

>  <inter_energy>  (16) 
-67.29970004801814

>  <intra_energy>  (16) 
0.0

>  <rmsd>  (16) 
12.6352

>  <sdf_rank>  (16) 
0

$$$$

     RDKit          3D

 29 29  0  0  0  0  0  0  0  0999 V2000
   -5.1499   12.0671  -34.3672 C   0  0  1  0  0  0  0  0  0  0  0  0
   -3.9322   12.0427  -35.2779 C   0  0  1  0  0  0  0  0  0  0  0  0
   -3.0316   10.9025  -34.9371 C   0  0  2  0  0  0  0  0  0  0  0  0
   -2.7091   10.8830  -33.4766 C   0  0  1  0  0  0  0  0  0  0  0  0
   -3.9970   10.9019  -32.6380 C   0  0  1  0  0  0  0  0  0  0  0  0
   -3.7130   10.8287  -31.1636 C   0  0  0  0  0  0  0  0  0  0  0  0
   -5.8588   10.9310  -34.5283 O   0  0  0  0  0  0  0  0  0  0  0  0
   -4.4028   11.9178  -36.6661 N   0  0  0  0  0  0  0  0  0  0  0  0
   -1.7909   11.0294  -35.6948 O   0  0  0  0  0  0  0  0  0  0  0  0
   -1.9528    9.7189  -33.1455 O   0  0  0  0  0  0  0  0  0  0  0  0
   -4.7300   12.1307  -32.9273 O   0  0  0  0  0  0  0  0  0  0  0  0
   -4.8150   11.3102  -30.4567 O   0  0  0  0  0  0  0  0  0  0  0  0
   -4.4223   12.0925  -29.0624 P   0  0  2  0  0  0  0  0  0  0  0  0
   -4.4003   13.6166  -29.3152 O   0  0  0  0  0  0  0  0  0  0  0  0
   -3.0200   11.6537  -28.6088 O   0  0  0  0  0  0  0  0  0  0  0  0
   -5.5112   11.6879  -28.0347 O   0  0  0  0  0  0  0  0  0  0  0  0
   -5.7508   12.9508  -34.6280 H   0  0  0  0  0  0  0  0  0  0  0  0
   -3.3561   12.9707  -35.1482 H   0  0  0  0  0  0  0  0  0  0  0  0
   -3.5484    9.9657  -35.1928 H   0  0  0  0  0  0  0  0  0  0  0  0
   -2.1146   11.7806  -33.2509 H   0  0  0  0  0  0  0  0  0  0  0  0
   -4.5920   10.0166  -32.9067 H   0  0  0  0  0  0  0  0  0  0  0  0
   -3.5212    9.7839  -30.8779 H   0  0  0  0  0  0  0  0  0  0  0  0
   -2.8290   11.4395  -30.9281 H   0  0  0  0  0  0  0  0  0  0  0  0
   -6.0913   10.5584  -33.6411 H   0  0  0  0  0  0  0  0  0  0  0  0
   -5.3983   11.6536  -36.6688 H   0  0  0  0  0  0  0  0  0  0  0  0
   -4.2855   12.8191  -37.1508 H   0  0  0  0  0  0  0  0  0  0  0  0
   -3.8540   11.1934  -37.1508 H   0  0  0  0  0  0  0  0  0  0  0  0
   -1.0282   11.1074  -35.0685 H   0  0  0  0  0  0  0  0  0  0  0  0
   -1.8959    9.6313  -32.1611 H   0  0  0  0  0  0  0  0  0  0  0  0
  1  2  1  0
  1  7  1  0
  1 11  1  0
  2  3  1  0
  2  8  1  0
  3  4  1  0
  3  9  1  0
  4  5  1  0
  4 10  1  0
  5  6  1  0
  5 11  1  0
  6 12  1  0
 12 13  1  0
 13 14  2  0
 13 15  1  1
 13 16  1  0
  1 17  1  6
  2 18  1  6
  3 19  1  6
  4 20  1  1
  5 21  1  6
  6 22  1  0
  6 23  1  0
  7 24  1  0
  8 25  1  0
  8 26  1  0
  8 27  1  0
  9 28  1  0
 10 29  1  0
M  CHG  3   8   1  15  -1  16  -1
M  END
>  <filename_input>  (17) 
7NUT_GLP_docked.sdf

>  <pdb_id>  (17) 
7NUT_GLP

>  <pose_rank>  (17) 
16

>  <num_atoms_heavy>  (17) 
16

>  <num_torsions>  (17) 
3

>  <pose>  (17) 
[-5.1499144591987225, 12.067130668813526, -34.36719611501695, 3.553546872752263, -2.4171795462823473, 0.58392732135693, 1.8455598568396512, 0.664084478533627, 0.9723026381969926]

>  <energy>  (17) 
-144.46064581730528

>  <inter_energy>  (17) 
-126.81491959822476

>  <intra_energy>  (17) 
0.0

>  <rmsd>  (17) 
12.7525

>  <sdf_rank>  (17) 
0

$$$$

     RDKit          3D

 29 29  0  0  0  0  0  0  0  0999 V2000
   10.2748   11.8971  -42.4606 C   0  0  1  0  0  0  0  0  0  0  0  0
   10.0587   11.5776  -43.9316 C   0  0  1  0  0  0  0  0  0  0  0  0
   10.0679   10.1037  -44.1663 C   0  0  2  0  0  0  0  0  0  0  0  0
   11.2823    9.4664  -43.5693 C   0  0  1  0  0  0  0  0  0  0  0  0
   11.4136    9.8384  -42.0838 C   0  0  1  0  0  0  0  0  0  0  0  0
   12.5949    9.1715  -41.4360 C   0  0  0  0  0  0  0  0  0  0  0  0
    9.2731   11.3661  -41.7299 O   0  0  0  0  0  0  0  0  0  0  0  0
    8.7637   12.1460  -44.3369 N   0  0  0  0  0  0  0  0  0  0  0  0
   10.0558    9.8476  -45.6029 O   0  0  0  0  0  0  0  0  0  0  0  0
   11.2145    8.0461  -43.6913 O   0  0  0  0  0  0  0  0  0  0  0  0
   11.5562   11.2869  -41.9713 O   0  0  0  0  0  0  0  0  0  0  0  0
   13.1655   10.0430  -40.5081 O   0  0  0  0  0  0  0  0  0  0  0  0
   12.5592    9.8856  -38.9857 P   0  0  2  0  0  0  0  0  0  0  0  0
   12.0018    8.4568  -38.7980 O   0  0  0  0  0  0  0  0  0  0  0  0
   11.4088   10.8869  -38.7887 O   0  0  0  0  0  0  0  0  0  0  0  0
   13.7455   10.1785  -38.0305 O   0  0  0  0  0  0  0  0  0  0  0  0
   10.3086   12.9913  -42.3527 H   0  0  0  0  0  0  0  0  0  0  0  0
   10.8743   12.0133  -44.5273 H   0  0  0  0  0  0  0  0  0  0  0  0
    9.1764    9.6722  -43.6876 H   0  0  0  0  0  0  0  0  0  0  0  0
   12.1612    9.8379  -44.1166 H   0  0  0  0  0  0  0  0  0  0  0  0
   10.5087    9.4908  -41.5639 H   0  0  0  0  0  0  0  0  0  0  0  0
   12.2646    8.2553  -40.9247 H   0  0  0  0  0  0  0  0  0  0  0  0
   13.3386    8.9129  -42.2041 H   0  0  0  0  0  0  0  0  0  0  0  0
    9.4748   11.4730  -40.7666 H   0  0  0  0  0  0  0  0  0  0  0  0
    8.2166   12.3861  -43.4979 H   0  0  0  0  0  0  0  0  0  0  0  0
    8.9220   12.9949  -44.8982 H   0  0  0  0  0  0  0  0  0  0  0  0
    8.2460   11.4548  -44.8982 H   0  0  0  0  0  0  0  0  0  0  0  0
   10.0098    8.8719  -45.7637 H   0  0  0  0  0  0  0  0  0  0  0  0
   11.1950    7.6380  -42.7895 H   0  0  0  0  0  0  0  0  0  0  0  0
  1  2  1  0
  1  7  1  0
  1 11  1  0
  2  3  1  0
  2  8  1  0
  3  4  1  0
  3  9  1  0
  4  5  1  0
  4 10  1  0
  5  6  1  0
  5 11  1  0
  6 12  1  0
 12 13  1  0
 13 14  2  0
 13 15  1  1
 13 16  1  0
  1 17  1  6
  2 18  1  6
  3 19  1  1
  4 20  1  6
  5 21  1  1
  6 22  1  0
  6 23  1  0
  7 24  1  0
  8 25  1  0
  8 26  1  0
  8 27  1  0
  9 28  1  0
 10 29  1  0
M  CHG  3   8   1  15  -1  16  -1
M  END
>  <filename_input>  (18) 
7NUT_GLP_docked.sdf

>  <pdb_id>  (18) 
7NUT_GLP

>  <pose_rank>  (18) 
17

>  <num_atoms_heavy>  (18) 
16

>  <num_torsions>  (18) 
3

>  <pose>  (18) 
[10.27479490187321, 11.89714606584372, -42.46060035363878, -1.2667504007517627, 2.327389459389556, 0.15907901471440858, 1.5720424629630743, -1.4730288319336389, -0.2865973304657362]

>  <energy>  (18) 
-144.3821583290835

>  <inter_energy>  (18) 
-120.4072460120538

>  <intra_energy>  (18) 
5.408619362474322

>  <rmsd>  (18) 
11.9056

>  <sdf_rank>  (18) 
0

$$$$

     RDKit          3D

 29 29  0  0  0  0  0  0  0  0999 V2000
   13.8485    9.5618  -37.2388 C   0  0  1  0  0  0  0  0  0  0  0  0
   12.8099    9.7475  -36.1436 C   0  0  1  0  0  0  0  0  0  0  0  0
   11.6079    8.8996  -36.3963 C   0  0  2  0  0  0  0  0  0  0  0  0
   11.0838    9.1002  -37.7828 C   0  0  1  0  0  0  0  0  0  0  0  0
   12.1984    8.8851  -38.8189 C   0  0  1  0  0  0  0  0  0  0  0  0
   11.6953    9.0257  -40.2285 C   0  0  0  0  0  0  0  0  0  0  0  0
   14.2585    8.2770  -37.2610 O   0  0  0  0  0  0  0  0  0  0  0  0
   13.4282    9.3785  -34.8607 N   0  0  0  0  0  0  0  0  0  0  0  0
   10.5640    9.2517  -35.4394 O   0  0  0  0  0  0  0  0  0  0  0  0
   10.0150    8.1932  -38.0510 O   0  0  0  0  0  0  0  0  0  0  0  0
   13.2555    9.8643  -38.5844 O   0  0  0  0  0  0  0  0  0  0  0  0
   11.8853   10.3395  -40.6576 O   0  0  0  0  0  0  0  0  0  0  0  0
   12.4119   10.4629  -42.2125 P   0  0  2  0  0  0  0  0  0  0  0  0
   13.8853   10.9279  -42.2223 O   0  0  0  0  0  0  0  0  0  0  0  0
   11.5658   11.5098  -42.9561 O   0  0  0  0  0  0  0  0  0  0  0  0
   12.2434    9.0479  -42.8249 O   0  0  0  0  0  0  0  0  0  0  0  0
   14.6867   10.2429  -37.0303 H   0  0  0  0  0  0  0  0  0  0  0  0
   12.4780   10.7960  -36.1241 H   0  0  0  0  0  0  0  0  0  0  0  0
   11.8990    7.8450  -36.2825 H   0  0  0  0  0  0  0  0  0  0  0  0
   10.7127   10.1331  -37.8565 H   0  0  0  0  0  0  0  0  0  0  0  0
   12.5793    7.8598  -38.7022 H   0  0  0  0  0  0  0  0  0  0  0  0
   12.2498    8.3405  -40.8865 H   0  0  0  0  0  0  0  0  0  0  0  0
   10.6240    8.7783  -40.2635 H   0  0  0  0  0  0  0  0  0  0  0  0
   14.3635    7.9480  -36.3332 H   0  0  0  0  0  0  0  0  0  0  0  0
   12.8453    9.7263  -34.0860 H   0  0  0  0  0  0  0  0  0  0  0  0
   13.5051    8.3532  -34.7990 H   0  0  0  0  0  0  0  0  0  0  0  0
   14.3671    9.7975  -34.7990 H   0  0  0  0  0  0  0  0  0  0  0  0
   10.9079    9.1358  -34.5183 H   0  0  0  0  0  0  0  0  0  0  0  0
    9.6341    7.8700  -37.1962 H   0  0  0  0  0  0  0  0  0  0  0  0
  1  2  1  0
  1  7  1  0
  1 11  1  0
  2  3  1  0
  2  8  1  0
  3  4  1  0
  3  9  1  0
  4  5  1  0
  4 10  1  0
  5  6  1  0
  5 11  1  0
  6 12  1  0
 12 13  1  0
 13 14  2  0
 13 15  1  6
 13 16  1  0
  1 17  1  1
  2 18  1  1
  3 19  1  6
  4 20  1  1
  5 21  1  6
  6 22  1  0
  6 23  1  0
  7 24  1  0
  8 25  1  0
  8 26  1  0
  8 27  1  0
  9 28  1  0
 10 29  1  0
M  CHG  3   8   1  15  -1  16  -1
M  END
>  <filename_input>  (19) 
7NUT_GLP_docked.sdf

>  <pdb_id>  (19) 
7NUT_GLP

>  <pose_rank>  (19) 
18

>  <num_atoms_heavy>  (19) 
16

>  <num_torsions>  (19) 
3

>  <pose>  (19) 
[13.848493666613157, 9.561777281852963, -37.238827691191744, 0.009512939559430281, -1.2797591948179337, -1.9093006478741497, 0.6921056970446222, 5.64567170759127, 3.6532873211222396]

>  <energy>  (19) 
-106.39428053049738

>  <inter_energy>  (19) 
-107.43623002158337

>  <intra_energy>  (19) 
0.022441280884050355

>  <rmsd>  (19) 
11.3483

>  <sdf_rank>  (19) 
0

$$$$

     RDKit          3D

 29 29  0  0  0  0  0  0  0  0999 V2000
   -0.2133    6.5442  -26.8817 C   0  0  1  0  0  0  0  0  0  0  0  0
    0.8592    5.5485  -26.4682 C   0  0  1  0  0  0  0  0  0  0  0  0
    0.5466    4.1817  -26.9797 C   0  0  2  0  0  0  0  0  0  0  0  0
   -0.8461    3.7723  -26.6190 C   0  0  1  0  0  0  0  0  0  0  0  0
   -1.8584    4.8322  -27.0815 C   0  0  1  0  0  0  0  0  0  0  0  0
   -3.2756    4.4289  -26.7835 C   0  0  0  0  0  0  0  0  0  0  0  0
   -0.2667    6.6195  -28.2274 O   0  0  0  0  0  0  0  0  0  0  0  0
    2.1454    6.0102  -27.0130 N   0  0  0  0  0  0  0  0  0  0  0  0
    1.4863    3.2273  -26.4004 O   0  0  0  0  0  0  0  0  0  0  0  0
   -1.1724    2.5201  -27.2209 O   0  0  0  0  0  0  0  0  0  0  0  0
   -1.5636    6.0923  -26.4061 O   0  0  0  0  0  0  0  0  0  0  0  0
   -3.8576    3.9013  -27.9364 O   0  0  0  0  0  0  0  0  0  0  0  0
   -4.8541    4.9515  -28.7201 P   0  0  2  0  0  0  0  0  0  0  0  0
   -4.0317    5.7919  -29.7224 O   0  0  0  0  0  0  0  0  0  0  0  0
   -5.4969    5.9040  -27.6982 O   0  0  0  0  0  0  0  0  0  0  0  0
   -5.9148    4.0707  -29.4306 O   0  0  0  0  0  0  0  0  0  0  0  0
    0.0399    7.5187  -26.4389 H   0  0  0  0  0  0  0  0  0  0  0  0
    0.9043    5.4896  -25.3707 H   0  0  0  0  0  0  0  0  0  0  0  0
    0.6335    4.1950  -28.0762 H   0  0  0  0  0  0  0  0  0  0  0  0
   -0.8957    3.6748  -25.5244 H   0  0  0  0  0  0  0  0  0  0  0  0
   -1.7654    4.9396  -28.1723 H   0  0  0  0  0  0  0  0  0  0  0  0
   -3.2817    3.6690  -25.9882 H   0  0  0  0  0  0  0  0  0  0  0  0
   -3.8468    5.3086  -26.4521 H   0  0  0  0  0  0  0  0  0  0  0  0
   -0.8186    7.3973  -28.4927 H   0  0  0  0  0  0  0  0  0  0  0  0
    2.7840    6.2395  -26.2381 H   0  0  0  0  0  0  0  0  0  0  0  0
    2.5605    5.2657  -27.5912 H   0  0  0  0  0  0  0  0  0  0  0  0
    1.9921    6.8488  -27.5912 H   0  0  0  0  0  0  0  0  0  0  0  0
    1.4389    3.2755  -25.4127 H   0  0  0  0  0  0  0  0  0  0  0  0
   -1.3472    1.8496  -26.5137 H   0  0  0  0  0  0  0  0  0  0  0  0
  1  2  1  0
  1  7  1  0
  1 11  1  0
  2  3  1  0
  2  8  1  0
  3  4  1  0
  3  9  1  0
  4  5  1  0
  4 10  1  0
  5  6  1  0
  5 11  1  0
  6 12  1  0
 12 13  1  0
 13 14  2  0
 13 15  1  1
 13 16  1  0
  1 17  1  1
  2 18  1  1
  3 19  1  6
  4 20  1  1
  5 21  1  6
  6 22  1  0
  6 23  1  0
  7 24  1  0
  8 25  1  0
  8 26  1  0
  8 27  1  0
  9 28  1  0
 10 29  1  0
M  CHG  3   8   1  15  -1  16  -1
M  END
>  <filename_input>  (20) 
7NUT_GLP_docked.sdf

>  <pdb_id>  (20) 
7NUT_GLP

>  <pose_rank>  (20) 
19

>  <num_atoms_heavy>  (20) 
16

>  <num_torsions>  (20) 
3

>  <pose>  (20) 
[-0.213297553693622, 6.544164339632422, -26.8817158930868, -0.05559895871851066, 0.6055082572291903, -1.025109783816661, 3.617886675182613, -4.834653410985271, 0.811888545063597]

>  <energy>  (20) 
-119.09234713256656

>  <inter_energy>  (20) 
-110.37461190700037

>  <intra_energy>  (20) 
2.7110899735483596

>  <rmsd>  (20) 
11.4153

>  <sdf_rank>  (20) 
0

$$$$

     RDKit          3D

 29 29  0  0  0  0  0  0  0  0999 V2000
   12.3183    7.4939  -43.4245 C   0  0  1  0  0  0  0  0  0  0  0  0
   12.9755    6.7584  -44.5821 C   0  0  1  0  0  0  0  0  0  0  0  0
   13.8021    7.6879  -45.4067 C   0  0  2  0  0  0  0  0  0  0  0  0
   13.0200    8.8975  -45.8099 C   0  0  1  0  0  0  0  0  0  0  0  0
   12.4014    9.5771  -44.5780 C   0  0  1  0  0  0  0  0  0  0  0  0
   11.6516   10.8289  -44.9394 C   0  0  0  0  0  0  0  0  0  0  0  0
   13.2684    8.0114  -42.6190 O   0  0  0  0  0  0  0  0  0  0  0  0
   13.8198    5.6907  -44.0242 N   0  0  0  0  0  0  0  0  0  0  0  0
   14.2509    6.9915  -46.6081 O   0  0  0  0  0  0  0  0  0  0  0  0
   13.8575    9.8329  -46.4885 O   0  0  0  0  0  0  0  0  0  0  0  0
   11.4896    8.6390  -43.9301 O   0  0  0  0  0  0  0  0  0  0  0  0
   11.5301   11.6370  -43.8087 O   0  0  0  0  0  0  0  0  0  0  0  0
    9.9729   11.9182  -43.3549 P   0  0  2  0  0  0  0  0  0  0  0  0
    9.4331   10.6957  -42.5795 O   0  0  0  0  0  0  0  0  0  0  0  0
    9.1051   12.1220  -44.6081 O   0  0  0  0  0  0  0  0  0  0  0  0
   10.0177   13.1938  -42.4737 O   0  0  0  0  0  0  0  0  0  0  0  0
   11.6853    6.7761  -42.8823 H   0  0  0  0  0  0  0  0  0  0  0  0
   12.2002    6.3342  -45.2371 H   0  0  0  0  0  0  0  0  0  0  0  0
   14.6619    8.0136  -44.8029 H   0  0  0  0  0  0  0  0  0  0  0  0
   12.2170    8.5694  -46.4863 H   0  0  0  0  0  0  0  0  0  0  0  0
   13.2189    9.8629  -43.8997 H   0  0  0  0  0  0  0  0  0  0  0  0
   12.2005   11.3728  -45.7223 H   0  0  0  0  0  0  0  0  0  0  0  0
   10.6511   10.5642  -45.3120 H   0  0  0  0  0  0  0  0  0  0  0  0
   13.0113    7.8713  -41.6733 H   0  0  0  0  0  0  0  0  0  0  0  0
   13.7884    5.7304  -42.9954 H   0  0  0  0  0  0  0  0  0  0  0  0
   13.4715    4.7754  -44.3432 H   0  0  0  0  0  0  0  0  0  0  0  0
   14.7908    5.8188  -44.3432 H   0  0  0  0  0  0  0  0  0  0  0  0
   14.7687    6.1882  -46.3498 H   0  0  0  0  0  0  0  0  0  0  0  0
   14.3472   10.3798  -45.8243 H   0  0  0  0  0  0  0  0  0  0  0  0
  1  2  1  0
  1  7  1  0
  1 11  1  0
  2  3  1  0
  2  8  1  0
  3  4  1  0
  3  9  1  0
  4  5  1  0
  4 10  1  0
  5  6  1  0
  5 11  1  0
  6 12  1  0
 12 13  1  0
 13 14  2  0
 13 15  1  6
 13 16  1  0
  1 17  1  1
  2 18  1  6
  3 19  1  1
  4 20  1  6
  5 21  1  1
  6 22  1  0
  6 23  1  0
  7 24  1  0
  8 25  1  0
  8 26  1  0
  8 27  1  0
  9 28  1  0
 10 29  1  0
M  CHG  3   8   1  15  -1  16  -1
M  END
>  <filename_input>  (21) 
7NUT_GLP_docked.sdf

>  <pdb_id>  (21) 
7NUT_GLP

>  <pose_rank>  (21) 
20

>  <num_atoms_heavy>  (21) 
16

>  <num_torsions>  (21) 
3

>  <pose>  (21) 
[12.318295887166931, 7.493878882859001, -43.42453455364127, -3.6769961058961766, -0.5763431059490858, 0.8272974522074796, -9.994240943467487, 7.43117438228067, -5.622502128405559]

>  <energy>  (21) 
-88.1012637237034

>  <inter_energy>  (21) 
-79.7744961301639

>  <intra_energy>  (21) 
1.721715410446133

>  <rmsd>  (21) 
13.5391

>  <sdf_rank>  (21) 
0

$$$$

     RDKit          3D

 29 29  0  0  0  0  0  0  0  0999 V2000
   -0.7011    7.1716  -26.5219 C   0  0  1  0  0  0  0  0  0  0  0  0
    0.8075    6.9800  -26.5261 C   0  0  1  0  0  0  0  0  0  0  0  0
    1.2515    6.2538  -27.7520 C   0  0  2  0  0  0  0  0  0  0  0  0
    0.4699    4.9939  -27.9497 C   0  0  1  0  0  0  0  0  0  0  0  0
   -1.0390    5.2860  -27.9387 C   0  0  1  0  0  0  0  0  0  0  0  0
   -1.8563    4.0494  -28.1888 C   0  0  0  0  0  0  0  0  0  0  0  0
   -1.0661    7.9157  -27.5860 O   0  0  0  0  0  0  0  0  0  0  0  0
    1.4367    8.3086  -26.4698 N   0  0  0  0  0  0  0  0  0  0  0  0
    2.6661    5.9189  -27.6241 O   0  0  0  0  0  0  0  0  0  0  0  0
    0.8176    4.3773  -29.1890 O   0  0  0  0  0  0  0  0  0  0  0  0
   -1.4008    5.8488  -26.6412 O   0  0  0  0  0  0  0  0  0  0  0  0
   -2.7742    3.8850  -27.1512 O   0  0  0  0  0  0  0  0  0  0  0  0
   -4.3319    3.7234  -27.6588 P   0  0  2  0  0  0  0  0  0  0  0  0
   -4.6544    2.2264  -27.8641 O   0  0  0  0  0  0  0  0  0  0  0  0
   -4.5080    4.4485  -29.0035 O   0  0  0  0  0  0  0  0  0  0  0  0
   -5.2032    4.3599  -26.5447 O   0  0  0  0  0  0  0  0  0  0  0  0
   -0.9776    7.6649  -25.5783 H   0  0  0  0  0  0  0  0  0  0  0  0
    1.1049    6.3755  -25.6565 H   0  0  0  0  0  0  0  0  0  0  0  0
    1.0846    6.9079  -28.6205 H   0  0  0  0  0  0  0  0  0  0  0  0
    0.7148    4.3121  -27.1219 H   0  0  0  0  0  0  0  0  0  0  0  0
   -1.2546    5.9971  -28.7497 H   0  0  0  0  0  0  0  0  0  0  0  0
   -2.3946    4.1516  -29.1426 H   0  0  0  0  0  0  0  0  0  0  0  0
   -1.1932    3.1730  -28.2361 H   0  0  0  0  0  0  0  0  0  0  0  0
   -1.4796    8.7589  -27.2728 H   0  0  0  0  0  0  0  0  0  0  0  0
    1.5676    8.5851  -25.4863 H   0  0  0  0  0  0  0  0  0  0  0  0
    2.3515    8.2755  -26.9419 H   0  0  0  0  0  0  0  0  0  0  0  0
    0.8314    8.9954  -26.9419 H   0  0  0  0  0  0  0  0  0  0  0  0
    2.9064    5.8620  -26.6653 H   0  0  0  0  0  0  0  0  0  0  0  0
    1.2961    3.5288  -29.0126 H   0  0  0  0  0  0  0  0  0  0  0  0
  1  2  1  0
  1  7  1  0
  1 11  1  0
  2  3  1  0
  2  8  1  0
  3  4  1  0
  3  9  1  0
  4  5  1  0
  4 10  1  0
  5  6  1  0
  5 11  1  0
  6 12  1  0
 12 13  1  0
 13 14  2  0
 13 15  1  6
 13 16  1  0
  1 17  1  1
  2 18  1  1
  3 19  1  6
  4 20  1  1
  5 21  1  6
  6 22  1  0
  6 23  1  0
  7 24  1  0
  8 25  1  0
  8 26  1  0
  8 27  1  0
  9 28  1  0
 10 29  1  0
M  CHG  3   8   1  15  -1  16  -1
M  END
>  <filename_input>  (22) 
7NUT_GLP_docked.sdf

>  <pdb_id>  (22) 
7NUT_GLP

>  <pose_rank>  (22) 
21

>  <num_atoms_heavy>  (22) 
16

>  <num_torsions>  (22) 
3

>  <pose>  (22) 
[-0.7010975989780708, 7.171632055253216, -26.521851542330786, -1.6959244181776556, -5.04369905799032, 0.9399121679800384, 1.2499365579632948, -0.8573653616657958, 0.8633845610756123]

>  <energy>  (22) 
-116.80504998032961

>  <inter_energy>  (22) 
-106.74140073921254

>  <intra_energy>  (22) 
0.04599471942342849

>  <rmsd>  (22) 
10.9016

>  <sdf_rank>  (22) 
0

$$$$

     RDKit          3D

 29 29  0  0  0  0  0  0  0  0999 V2000
   12.8926    8.8070  -42.8369 C   0  0  1  0  0  0  0  0  0  0  0  0
   13.2743    8.5447  -44.2854 C   0  0  1  0  0  0  0  0  0  0  0  0
   13.9809    9.7201  -44.8741 C   0  0  2  0  0  0  0  0  0  0  0  0
   13.2070   10.9821  -44.6598 C   0  0  1  0  0  0  0  0  0  0  0  0
   12.8740   11.1662  -43.1707 C   0  0  1  0  0  0  0  0  0  0  0  0
   12.1421   12.4530  -42.9096 C   0  0  0  0  0  0  0  0  0  0  0  0
   14.0066    9.0159  -42.1057 O   0  0  0  0  0  0  0  0  0  0  0  0
   14.1468    7.3608  -44.3204 N   0  0  0  0  0  0  0  0  0  0  0  0
   14.1523    9.5069  -46.3075 O   0  0  0  0  0  0  0  0  0  0  0  0
   13.9523   12.1108  -45.1151 O   0  0  0  0  0  0  0  0  0  0  0  0
   12.0499   10.0448  -42.7297 O   0  0  0  0  0  0  0  0  0  0  0  0
   12.8490   13.2037  -41.9700 O   0  0  0  0  0  0  0  0  0  0  0  0
   12.4754   12.8396  -40.4086 P   0  0  2  0  0  0  0  0  0  0  0  0
   12.5793   11.3127  -40.1964 O   0  0  0  0  0  0  0  0  0  0  0  0
   11.0299   13.2748  -40.1151 O   0  0  0  0  0  0  0  0  0  0  0  0
   13.4974   13.6195  -39.5410 O   0  0  0  0  0  0  0  0  0  0  0  0
   12.3342    7.9333  -42.4697 H   0  0  0  0  0  0  0  0  0  0  0  0
   12.3656    8.3717  -44.8806 H   0  0  0  0  0  0  0  0  0  0  0  0
   14.9571    9.8208  -44.3772 H   0  0  0  0  0  0  0  0  0  0  0  0
   12.2725   10.9060  -45.2350 H   0  0  0  0  0  0  0  0  0  0  0  0
   13.8206   11.2023  -42.6115 H   0  0  0  0  0  0  0  0  0  0  0  0
   12.0565   13.0234  -43.8463 H   0  0  0  0  0  0  0  0  0  0  0  0
   11.1361   12.2326  -42.5233 H   0  0  0  0  0  0  0  0  0  0  0  0
   13.7818    8.9737  -41.1424 H   0  0  0  0  0  0  0  0  0  0  0  0
   14.3642    7.0659  -43.3577 H   0  0  0  0  0  0  0  0  0  0  0  0
   13.6666    6.5949  -44.8140 H   0  0  0  0  0  0  0  0  0  0  0  0
   15.0206    7.5927  -44.8140 H   0  0  0  0  0  0  0  0  0  0  0  0
   14.7656    8.7442  -46.4567 H   0  0  0  0  0  0  0  0  0  0  0  0
   14.2887   12.6203  -44.3358 H   0  0  0  0  0  0  0  0  0  0  0  0
  1  2  1  0
  1  7  1  0
  1 11  1  0
  2  3  1  0
  2  8  1  0
  3  4  1  0
  3  9  1  0
  4  5  1  0
  4 10  1  0
  5  6  1  0
  5 11  1  0
  6 12  1  0
 12 13  1  0
 13 14  2  0
 13 15  1  1
 13 16  1  0
  1 17  1  1
  2 18  1  6
  3 19  1  1
  4 20  1  6
  5 21  1  1
  6 22  1  0
  6 23  1  0
  7 24  1  0
  8 25  1  0
  8 26  1  0
  8 27  1  0
  9 28  1  0
 10 29  1  0
M  CHG  3   8   1  15  -1  16  -1
M  END
>  <filename_input>  (23) 
7NUT_GLP_docked.sdf

>  <pdb_id>  (23) 
7NUT_GLP

>  <pose_rank>  (23) 
22

>  <num_atoms_heavy>  (23) 
16

>  <num_torsions>  (23) 
3

>  <pose>  (23) 
[12.892595982512617, 8.807039575350677, -42.83685844754476, -3.2213962434133654, -0.6903840487961287, 0.9277799161166307, -9.374621677340231, 7.987141428627224, -6.117604992667982]

>  <energy>  (23) 
-106.80146784562388

>  <inter_energy>  (23) 
-127.86798169884771

>  <intra_energy>  (23) 
19.975187920792237

>  <rmsd>  (23) 
14.1456

>  <sdf_rank>  (23) 
0

$$$$

     RDKit          3D

 29 29  0  0  0  0  0  0  0  0999 V2000
   -4.4570   -2.9734  -27.6614 C   0  0  1  0  0  0  0  0  0  0  0  0
   -5.1067   -3.5896  -28.8906 C   0  0  1  0  0  0  0  0  0  0  0  0
   -5.1550   -2.6122  -30.0174 C   0  0  2  0  0  0  0  0  0  0  0  0
   -5.7610   -1.3148  -29.5852 C   0  0  1  0  0  0  0  0  0  0  0  0
   -5.0371   -0.7660  -28.3454 C   0  0  1  0  0  0  0  0  0  0  0  0
   -5.5849    0.5657  -27.9139 C   0  0  0  0  0  0  0  0  0  0  0  0
   -3.1859   -2.6249  -27.9478 O   0  0  0  0  0  0  0  0  0  0  0  0
   -4.3204   -4.7707  -29.2791 N   0  0  0  0  0  0  0  0  0  0  0  0
   -5.9554   -3.1712  -31.1021 O   0  0  0  0  0  0  0  0  0  0  0  0
   -5.6851   -0.3514  -30.6354 O   0  0  0  0  0  0  0  0  0  0  0  0
   -5.1813   -1.7235  -27.2530 O   0  0  0  0  0  0  0  0  0  0  0  0
   -4.8056    1.5849  -28.4616 O   0  0  0  0  0  0  0  0  0  0  0  0
   -4.4558    2.7975  -27.4046 P   0  0  2  0  0  0  0  0  0  0  0  0
   -3.2899    2.3625  -26.4887 O   0  0  0  0  0  0  0  0  0  0  0  0
   -5.6861    3.0794  -26.5262 O   0  0  0  0  0  0  0  0  0  0  0  0
   -4.0829    4.0218  -28.2808 O   0  0  0  0  0  0  0  0  0  0  0  0
   -4.4924   -3.7162  -26.8508 H   0  0  0  0  0  0  0  0  0  0  0  0
   -6.1424   -3.8763  -28.6556 H   0  0  0  0  0  0  0  0  0  0  0  0
   -4.1251   -2.4215  -30.3536 H   0  0  0  0  0  0  0  0  0  0  0  0
   -6.8163   -1.5018  -29.3375 H   0  0  0  0  0  0  0  0  0  0  0  0
   -3.9779   -0.6219  -28.6048 H   0  0  0  0  0  0  0  0  0  0  0  0
   -6.6224    0.6674  -28.2651 H   0  0  0  0  0  0  0  0  0  0  0  0
   -5.5628    0.6347  -26.8162 H   0  0  0  0  0  0  0  0  0  0  0  0
   -2.6837   -2.4872  -27.1058 H   0  0  0  0  0  0  0  0  0  0  0  0
   -3.9947   -5.2598  -28.4332 H   0  0  0  0  0  0  0  0  0  0  0  0
   -4.9080   -5.4056  -29.8381 H   0  0  0  0  0  0  0  0  0  0  0  0
   -3.5079   -4.4735  -29.8381 H   0  0  0  0  0  0  0  0  0  0  0  0
   -6.7051   -3.6949  -30.7229 H   0  0  0  0  0  0  0  0  0  0  0  0
   -5.6136    0.5561  -30.2462 H   0  0  0  0  0  0  0  0  0  0  0  0
  1  2  1  0
  1  7  1  0
  1 11  1  0
  2  3  1  0
  2  8  1  0
  3  4  1  0
  3  9  1  0
  4  5  1  0
  4 10  1  0
  5  6  1  0
  5 11  1  0
  6 12  1  0
 12 13  1  0
 13 14  2  0
 13 15  1  1
 13 16  1  0
  1 17  1  1
  2 18  1  1
  3 19  1  6
  4 20  1  1
  5 21  1  6
  6 22  1  0
  6 23  1  0
  7 24  1  0
  8 25  1  0
  8 26  1  0
  8 27  1  0
  9 28  1  0
 10 29  1  0
M  CHG  3   8   1  15  -1  16  -1
M  END
>  <filename_input>  (24) 
7NUT_GLP_docked.sdf

>  <pdb_id>  (24) 
7NUT_GLP

>  <pose_rank>  (24) 
23

>  <num_atoms_heavy>  (24) 
16

>  <num_torsions>  (24) 
3

>  <pose>  (24) 
[-4.456980633342279, -2.973449347722795, -27.661427485907005, 2.0921706975748178, 0.6611308598513128, -1.7217747286427036, -2.6012792915389626, 0.8374074765752749, 0.6656435294168467]

>  <energy>  (24) 
-93.58976074914773

>  <inter_energy>  (24) 
-98.23351593471627

>  <intra_energy>  (24) 
3.864982160608087

>  <rmsd>  (24) 
13.9952

>  <sdf_rank>  (24) 
0

$$$$

     RDKit          3D

 29 29  0  0  0  0  0  0  0  0999 V2000
    8.8128   -6.3259  -44.5587 C   0  0  1  0  0  0  0  0  0  0  0  0
    9.2876   -5.5626  -45.7853 C   0  0  1  0  0  0  0  0  0  0  0  0
    9.7358   -4.1868  -45.4194 C   0  0  2  0  0  0  0  0  0  0  0  0
    8.6967   -3.4735  -44.6139 C   0  0  1  0  0  0  0  0  0  0  0  0
    8.2854   -4.3146  -43.3951 C   0  0  1  0  0  0  0  0  0  0  0  0
    7.2803   -3.6050  -42.5313 C   0  0  0  0  0  0  0  0  0  0  0  0
    9.8302   -6.4528  -43.6824 O   0  0  0  0  0  0  0  0  0  0  0  0
   10.4001   -6.3132  -46.3879 N   0  0  0  0  0  0  0  0  0  0  0  0
    9.9943   -3.4275  -46.6385 O   0  0  0  0  0  0  0  0  0  0  0  0
    9.1889   -2.2110  -44.1660 O   0  0  0  0  0  0  0  0  0  0  0  0
    7.7152   -5.5746  -43.8625 O   0  0  0  0  0  0  0  0  0  0  0  0
    6.1326   -3.3419  -43.2794 O   0  0  0  0  0  0  0  0  0  0  0  0
    4.7372   -3.4233  -42.4098 P   0  0  2  0  0  0  0  0  0  0  0  0
    5.0315   -3.0884  -40.9304 O   0  0  0  0  0  0  0  0  0  0  0  0
    4.1731   -4.8520  -42.4828 O   0  0  0  0  0  0  0  0  0  0  0  0
    3.7778   -2.3930  -43.0607 O   0  0  0  0  0  0  0  0  0  0  0  0
    8.4495   -7.3095  -44.8910 H   0  0  0  0  0  0  0  0  0  0  0  0
    8.4582   -5.4619  -46.5008 H   0  0  0  0  0  0  0  0  0  0  0  0
   10.6500   -4.2711  -44.8135 H   0  0  0  0  0  0  0  0  0  0  0  0
    7.8202   -3.3151  -45.2594 H   0  0  0  0  0  0  0  0  0  0  0  0
    9.1830   -4.4918  -42.7844 H   0  0  0  0  0  0  0  0  0  0  0  0
    7.0209   -4.2406  -41.6718 H   0  0  0  0  0  0  0  0  0  0  0  0
    7.7088   -2.6588  -42.1693 H   0  0  0  0  0  0  0  0  0  0  0  0
    9.4774   -6.4088  -42.7584 H   0  0  0  0  0  0  0  0  0  0  0  0
   10.9894   -6.7109  -45.6426 H   0  0  0  0  0  0  0  0  0  0  0  0
   10.0245   -7.0743  -46.9714 H   0  0  0  0  0  0  0  0  0  0  0  0
   10.9652   -5.6800  -46.9714 H   0  0  0  0  0  0  0  0  0  0  0  0
   10.3042   -2.5177  -46.4012 H   0  0  0  0  0  0  0  0  0  0  0  0
    9.1962   -2.1920  -43.1762 H   0  0  0  0  0  0  0  0  0  0  0  0
  1  2  1  0
  1  7  1  0
  1 11  1  0
  2  3  1  0
  2  8  1  0
  3  4  1  0
  3  9  1  0
  4  5  1  0
  4 10  1  0
  5  6  1  0
  5 11  1  0
  6 12  1  0
 12 13  1  0
 13 14  2  0
 13 15  1  1
 13 16  1  0
  1 17  1  6
  2 18  1  6
  3 19  1  1
  4 20  1  6
  5 21  1  1
  6 22  1  0
  6 23  1  0
  7 24  1  0
  8 25  1  0
  8 26  1  0
  8 27  1  0
  9 28  1  0
 10 29  1  0
M  CHG  3   8   1  15  -1  16  -1
M  END
>  <filename_input>  (25) 
7NUT_GLP_docked.sdf

>  <pdb_id>  (25) 
7NUT_GLP

>  <pose_rank>  (25) 
24

>  <num_atoms_heavy>  (25) 
16

>  <num_torsions>  (25) 
3

>  <pose>  (25) 
[8.812763688448126, -6.325889561661746, -44.55867768328672, 3.1527972289362305, 1.244710955667593, -0.4297479023708459, 6.4003271444899035, -13.087313222789815, 6.035987553178743]

>  <energy>  (25) 
-101.95071120523461

>  <inter_energy>  (25) 
-92.4398250420311

>  <intra_energy>  (25) 
0.015589407118998802

>  <rmsd>  (25) 
12.1781

>  <sdf_rank>  (25) 
0

$$$$

     RDKit          3D

 29 29  0  0  0  0  0  0  0  0999 V2000
    3.2300    6.0310  -36.8020 C   0  0  1  0  0  0  0  0  0  0  0  0
    4.2540    6.2100  -35.6920 C   0  0  1  0  0  0  0  0  0  0  0  0
    5.4790    5.4000  -35.9580 C   0  0  2  0  0  0  0  0  0  0  0  0
    5.1340    3.9750  -36.2540 C   0  0  1  0  0  0  0  0  0  0  0  0
    4.1020    3.8930  -37.3900 C   0  0  1  0  0  0  0  0  0  0  0  0
    3.7710    2.4720  -37.7520 C   0  0  0  0  0  0  0  0  0  0  0  0
    3.7500    6.4580  -37.9710 O   0  0  0  0  0  0  0  0  0  0  0  0
    4.5990    7.6380  -35.6150 N   0  0  0  0  0  0  0  0  0  0  0  0
    6.3460    5.4440  -34.7850 O   0  0  0  0  0  0  0  0  0  0  0  0
    6.3010    3.2440  -36.6290 O   0  0  0  0  0  0  0  0  0  0  0  0
    2.8840    4.5800  -36.9710 O   0  0  0  0  0  0  0  0  0  0  0  0
    3.3810    1.7820  -36.6040 O   0  0  0  0  0  0  0  0  0  0  0  0
    2.8810    0.2400  -36.8910 P   0  0  2  0  0  0  0  0  0  0  0  0
    3.8190   -0.4220  -37.9250 O   0  0  0  0  0  0  0  0  0  0  0  0
    1.4570    0.2650  -37.4710 O   0  0  0  0  0  0  0  0  0  0  0  0
    2.9290   -0.4780  -35.5170 O   0  0  0  0  0  0  0  0  0  0  0  0
    2.3329    6.6074  -36.5319 H   0  0  0  0  0  0  0  0  0  0  0  0
    3.8284    5.8643  -34.7384 H   0  0  0  0  0  0  0  0  0  0  0  0
    5.9902    5.8246  -36.8346 H   0  0  0  0  0  0  0  0  0  0  0  0
    4.7060    3.5354  -35.3410 H   0  0  0  0  0  0  0  0  0  0  0  0
    4.5364    4.3707  -38.2805 H   0  0  0  0  0  0  0  0  0  0  0  0
    2.9499    2.4611  -38.4839 H   0  0  0  0  0  0  0  0  0  0  0  0
    4.6564    1.9877  -38.1897 H   0  0  0  0  0  0  0  0  0  0  0  0
    4.5024    7.0758  -37.7914 H   0  0  0  0  0  0  0  0  0  0  0  0
    4.6676    7.9219  -34.6273 H   0  0  0  0  0  0  0  0  0  0  0  0
    5.5030    7.7985  -36.0819 H   0  0  0  0  0  0  0  0  0  0  0  0
    3.8680    8.1935  -36.0819 H   0  0  0  0  0  0  0  0  0  0  0  0
    5.7928    5.4159  -33.9645 H   0  0  0  0  0  0  0  0  0  0  0  0
    6.7787    2.9448  -35.8151 H   0  0  0  0  0  0  0  0  0  0  0  0
  1  2  1  0
  1  7  1  0
  1 11  1  0
  2  3  1  0
  2  8  1  0
  3  4  1  0
  3  9  1  0
  4  5  1  0
  4 10  1  0
  5  6  1  0
  5 11  1  0
  6 12  1  0
 12 13  1  0
 13 14  2  0
 13 15  1  6
 13 16  1  0
  1 17  1  1
  2 18  1  1
  3 19  1  6
  4 20  1  1
  5 21  1  6
  6 22  1  0
  6 23  1  0
  7 24  1  0
  8 25  1  0
  8 26  1  0
  8 27  1  0
  9 28  1  0
 10 29  1  0
M  CHG  3   8   1  15  -1  16  -1
M  END
>  <filename_input>  (26) 
7NUT_GLP_docked.sdf

>  <pdb_id>  (26) 
7NUT_GLP

>  <pose_rank>  (26) 
25

>  <num_atoms_heavy>  (26) 
16

>  <num_torsions>  (26) 
3

>  <pose>  (26) 
[3.23, 6.031, -36.802, 1e-06, 1e-06, 1e-06, 0.0, 0.0, 0.0]

>  <energy>  (26) 
-532.9616038034941

>  <inter_energy>  (26) 
-544.855060514641

>  <intra_energy>  (26) 
0.5414989832322717

>  <rmsd>  (26) 
0.0

>  <sdf_rank>  (26) 
0

$$$$
