
     RDKit          3D

 50 53  0  0  0  0  0  0  0  0999 V2000
   40.6727   -1.6748   11.1245 N   0  0  0  0  0  0  0  0  0  0  0  0
   40.1176   -2.5884   10.2221 C   0  0  0  0  0  0  0  0  0  0  0  0
   39.4222   -3.7095   10.6801 C   0  0  0  0  0  0  0  0  0  0  0  0
   39.2772   -3.9088   12.0488 C   0  0  0  0  0  0  0  0  0  0  0  0
   39.8106   -2.9980   12.9571 N   0  0  0  0  0  0  0  0  0  0  0  0
   40.5077   -1.8738   12.4967 C   0  0  0  0  0  0  0  0  0  0  0  0
   40.6438    0.6735   10.5004 C   0  0  0  0  0  0  0  0  0  0  0  0
   41.2792    1.8210   10.0006 C   0  0  0  0  0  0  0  0  0  0  0  0
   43.3214    0.5458    9.7653 C   0  0  0  0  0  0  0  0  0  0  0  0
   45.4556    0.5931   11.6537 C   0  0  0  0  0  0  0  0  0  0  0  0
   47.8502    0.6506   11.9821 C   0  0  0  0  0  0  0  0  0  0  0  0
   46.9516    0.4660    9.7551 C   0  0  0  0  0  0  0  0  0  0  0  0
   47.1878    0.3505    8.2422 C   0  0  0  0  0  0  0  0  0  0  0  0
   48.0472    0.5463   10.6083 C   0  0  0  0  0  0  0  0  0  0  0  0
   46.5599    0.6756   12.5024 C   0  0  0  0  0  0  0  0  0  0  0  0
   45.6550    0.4910   10.2755 C   0  0  0  0  0  0  0  0  0  0  0  0
   44.6269    0.4106    9.3896 O   0  0  0  0  0  0  0  0  0  0  0  0
   42.6804   -0.5917   10.2556 C   0  0  0  0  0  0  0  0  0  0  0  0
   42.6192    1.7510    9.6317 C   0  0  0  0  0  0  0  0  0  0  0  0
   43.2734    2.9186    9.1245 C   0  0  0  0  0  0  0  0  0  0  0  0
   43.7596    3.8677    8.7304 N   0  0  0  0  0  0  0  0  0  0  0  0
   39.3501    0.7412   10.8664 F   0  0  0  0  0  0  0  0  0  0  0  0
   41.3456   -0.5294   10.6385 C   0  0  0  0  0  0  0  0  0  0  0  0
   40.2461   -2.4100    9.0136 O   0  0  0  0  0  0  0  0  0  0  0  0
   40.9810   -1.0677   13.2970 O   0  0  0  0  0  0  0  0  0  0  0  0
   38.3928   -5.2893   12.6915 S   0  0  1  0  0  0  0  0  0  0  0  0
   38.0594   -6.1663   11.5330 O   0  0  0  0  0  0  0  0  0  0  0  0
   39.2568   -5.8868   13.7534 O   0  0  0  0  0  0  0  0  0  0  0  0
   36.9912   -4.5748   13.3712 C   0  0  0  0  0  0  0  0  0  0  0  0
   36.8132   -4.5808   14.7486 C   0  0  0  0  0  0  0  0  0  0  0  0
   35.6944   -3.9581   15.2818 C   0  0  0  0  0  0  0  0  0  0  0  0
   34.7657   -3.3282   14.4543 C   0  0  0  0  0  0  0  0  0  0  0  0
   34.9655   -3.3215   13.0800 C   0  0  0  0  0  0  0  0  0  0  0  0
   36.0839   -3.9380   12.5316 C   0  0  0  0  0  0  0  0  0  0  0  0
   38.9935   -4.4277    9.9656 H   0  0  0  0  0  0  0  0  0  0  0  0
   39.6924   -3.1512   13.9687 H   0  0  0  0  0  0  0  0  0  0  0  0
   40.7239    2.7653    9.9017 H   0  0  0  0  0  0  0  0  0  0  0  0
   44.4363    0.6084   12.0669 H   0  0  0  0  0  0  0  0  0  0  0  0
   48.7160    0.7133   12.6578 H   0  0  0  0  0  0  0  0  0  0  0  0
   48.1623   -0.1256    8.0585 H   0  0  0  0  0  0  0  0  0  0  0  0
   46.3909   -0.2597    7.7922 H   0  0  0  0  0  0  0  0  0  0  0  0
   47.1795    1.3542    7.7922 H   0  0  0  0  0  0  0  0  0  0  0  0
   49.0676    0.5274   10.1979 H   0  0  0  0  0  0  0  0  0  0  0  0
   46.4097    0.7608   13.5887 H   0  0  0  0  0  0  0  0  0  0  0  0
   43.2320   -1.5397   10.3396 H   0  0  0  0  0  0  0  0  0  0  0  0
   37.5469   -5.0710   15.4054 H   0  0  0  0  0  0  0  0  0  0  0  0
   35.5379   -3.9611   16.3707 H   0  0  0  0  0  0  0  0  0  0  0  0
   33.8803   -2.8397   14.8872 H   0  0  0  0  0  0  0  0  0  0  0  0
   34.2355   -2.8263   12.4228 H   0  0  0  0  0  0  0  0  0  0  0  0
   36.2498   -3.9223   11.4443 H   0  0  0  0  0  0  0  0  0  0  0  0
  1  2  1  0
  1  6  1  0
  1 23  1  0
  2  3  1  0
  2 24  2  0
  3  4  2  0
  4  5  1  0
 26  4  1  6
  5  6  1  0
  6 25  2  0
  7  8  2  0
  7 22  1  0
  7 23  1  0
  8 19  1  0
  9 17  1  0
  9 18  1  0
  9 19  2  0
 10 15  2  0
 10 16  1  0
 11 14  2  0
 11 15  1  0
 12 13  1  0
 12 14  1  0
 12 16  2  0
 16 17  1  0
 18 23  2  0
 19 20  1  0
 20 21  3  0
 26 27  2  0
 26 28  2  0
 26 29  1  0
 29 30  2  0
 29 34  1  0
 30 31  1  0
 31 32  2  0
 32 33  1  0
 33 34  2  0
  3 35  1  0
  5 36  1  0
  8 37  1  0
 10 38  1  0
 11 39  1  0
 13 40  1  0
 13 41  1  0
 13 42  1  0
 14 43  1  0
 15 44  1  0
 18 45  1  0
 30 46  1  0
 31 47  1  0
 32 48  1  0
 33 49  1  0
 34 50  1  0
M  END
>  <filename_input>  (1) 
7NXO_UU8_docked.sdf

>  <pdb_id>  (1) 
7NXO_UU8

>  <pose_rank>  (1) 
0

>  <num_atoms_heavy>  (1) 
34

>  <num_torsions>  (1) 
6

>  <pose>  (1) 
[40.672704948328956, -1.6747899586178816, 11.124511723522835, -0.0962630269753028, 0.028813954914147354, 0.10542809494946974, -0.3257756130554037, -3.0789029978003177, -5.873488081704747, 6.1998253180346765, 0.1406267216444192, -0.2517631760325675]

>  <energy>  (1) 
-894.2859698471461

>  <inter_energy>  (1) 
-905.9993378157162

>  <intra_energy>  (1) 
15.36073684510611

>  <rmsd>  (1) 
0.795926

>  <sdf_rank>  (1) 
0

$$$$

     RDKit          3D

 50 53  0  0  0  0  0  0  0  0999 V2000
   40.6060   -1.6317   11.1398 N   0  0  0  0  0  0  0  0  0  0  0  0
   40.0127   -2.4687   10.1888 C   0  0  0  0  0  0  0  0  0  0  0  0
   39.2680   -3.5818   10.5848 C   0  0  0  0  0  0  0  0  0  0  0  0
   39.1123   -3.8498   11.9406 C   0  0  0  0  0  0  0  0  0  0  0  0
   39.6839   -3.0149   12.8972 N   0  0  0  0  0  0  0  0  0  0  0  0
   40.4303   -1.8987   12.4991 C   0  0  0  0  0  0  0  0  0  0  0  0
   40.6545    0.7194   10.5273 C   0  0  0  0  0  0  0  0  0  0  0  0
   41.3416    1.8617   10.0879 C   0  0  0  0  0  0  0  0  0  0  0  0
   43.3824    0.5647   10.0165 C   0  0  0  0  0  0  0  0  0  0  0  0
   44.4244   -0.7698    7.6629 C   0  0  0  0  0  0  0  0  0  0  0  0
   46.2437   -0.7209    6.0713 C   0  0  0  0  0  0  0  0  0  0  0  0
   46.4579    0.4414    8.1700 C   0  0  0  0  0  0  0  0  0  0  0  0
   47.2956    1.3146    9.1154 C   0  0  0  0  0  0  0  0  0  0  0  0
   46.9904    0.0697    6.9400 C   0  0  0  0  0  0  0  0  0  0  0  0
   44.9669   -1.1402    6.4320 C   0  0  0  0  0  0  0  0  0  0  0  0
   45.1758    0.0213    8.5342 C   0  0  0  0  0  0  0  0  0  0  0  0
   44.7131    0.4165    9.7499 O   0  0  0  0  0  0  0  0  0  0  0  0
   42.6906   -0.5675   10.4462 C   0  0  0  0  0  0  0  0  0  0  0  0
   42.7068    1.7783    9.8312 C   0  0  0  0  0  0  0  0  0  0  0  0
   43.4135    2.9406    9.3861 C   0  0  0  0  0  0  0  0  0  0  0  0
   44.0098    3.8432    9.0365 N   0  0  0  0  0  0  0  0  0  0  0  0
   39.3356    0.8000   10.7849 F   0  0  0  0  0  0  0  0  0  0  0  0
   41.3293   -0.4919   10.7172 C   0  0  0  0  0  0  0  0  0  0  0  0
   40.1507   -2.2297    8.9919 O   0  0  0  0  0  0  0  0  0  0  0  0
   40.9374   -1.1596   13.3422 O   0  0  0  0  0  0  0  0  0  0  0  0
   38.1671   -5.2235   12.5068 S   0  0  1  0  0  0  0  0  0  0  0  0
   37.6671   -5.9330   11.2948 O   0  0  0  0  0  0  0  0  0  0  0  0
   39.0593   -6.0036   13.4159 O   0  0  0  0  0  0  0  0  0  0  0  0
   36.8916   -4.4870   13.3830 C   0  0  0  0  0  0  0  0  0  0  0  0
   35.8375   -3.8949   12.6993 C   0  0  0  0  0  0  0  0  0  0  0  0
   34.7931   -3.3438   13.4266 C   0  0  0  0  0  0  0  0  0  0  0  0
   34.7924   -3.3881   14.8202 C   0  0  0  0  0  0  0  0  0  0  0  0
   35.8486   -3.9945   15.4874 C   0  0  0  0  0  0  0  0  0  0  0  0
   36.9003   -4.5545   14.7718 C   0  0  0  0  0  0  0  0  0  0  0  0
   38.8092   -4.2399    9.8321 H   0  0  0  0  0  0  0  0  0  0  0  0
   39.5575   -3.2184   13.8990 H   0  0  0  0  0  0  0  0  0  0  0  0
   40.8067    2.8127    9.9480 H   0  0  0  0  0  0  0  0  0  0  0  0
   43.4132   -1.0984    7.9447 H   0  0  0  0  0  0  0  0  0  0  0  0
   46.6636   -1.0147    5.0980 H   0  0  0  0  0  0  0  0  0  0  0  0
   47.0536    1.0623   10.1584 H   0  0  0  0  0  0  0  0  0  0  0  0
   48.3647    1.1316    8.9325 H   0  0  0  0  0  0  0  0  0  0  0  0
   47.0685    2.3752    8.9325 H   0  0  0  0  0  0  0  0  0  0  0  0
   47.9999    0.4000    6.6543 H   0  0  0  0  0  0  0  0  0  0  0  0
   44.3820   -1.7671    5.7429 H   0  0  0  0  0  0  0  0  0  0  0  0
   43.2230   -1.5220   10.5708 H   0  0  0  0  0  0  0  0  0  0  0  0
   35.8312   -3.8637   11.5997 H   0  0  0  0  0  0  0  0  0  0  0  0
   33.9552   -2.8660   12.8977 H   0  0  0  0  0  0  0  0  0  0  0  0
   33.9605   -2.9454   15.3877 H   0  0  0  0  0  0  0  0  0  0  0  0
   35.8530   -4.0317   16.5868 H   0  0  0  0  0  0  0  0  0  0  0  0
   37.7312   -5.0464   15.2989 H   0  0  0  0  0  0  0  0  0  0  0  0
  1  2  1  0
  1  6  1  0
  1 23  1  0
  2  3  1  0
  2 24  2  0
  3  4  2  0
  4  5  1  0
 26  4  1  6
  5  6  1  0
  6 25  2  0
  7  8  2  0
  7 22  1  0
  7 23  1  0
  8 19  1  0
  9 17  1  0
  9 18  1  0
  9 19  2  0
 10 15  2  0
 10 16  1  0
 11 14  2  0
 11 15  1  0
 12 13  1  0
 12 14  1  0
 12 16  2  0
 16 17  1  0
 18 23  2  0
 19 20  1  0
 20 21  3  0
 26 27  2  0
 26 28  2  0
 26 29  1  0
 29 30  2  0
 29 34  1  0
 30 31  1  0
 31 32  2  0
 32 33  1  0
 33 34  2  0
  3 35  1  0
  5 36  1  0
  8 37  1  0
 10 38  1  0
 11 39  1  0
 13 40  1  0
 13 41  1  0
 13 42  1  0
 14 43  1  0
 15 44  1  0
 18 45  1  0
 30 46  1  0
 31 47  1  0
 32 48  1  0
 33 49  1  0
 34 50  1  0
M  END
>  <filename_input>  (2) 
7NXO_UU8_docked.sdf

>  <pdb_id>  (2) 
7NXO_UU8

>  <pose_rank>  (2) 
1

>  <num_atoms_heavy>  (2) 
34

>  <num_torsions>  (2) 
6

>  <pose>  (2) 
[40.606017773805675, -1.631661433590946, 11.13977884952537, 3.165836154988797, -2.168875718975771, -4.874761709973244, 5.854850289492538, -0.1869534904369181, 3.3975243039705383, -0.6644341765497107, 6.314087883443248, 3.038115535801325]

>  <energy>  (2) 
-875.150725920709

>  <inter_energy>  (2) 
-874.224074631225

>  <intra_energy>  (2) 
15.826462717960219

>  <rmsd>  (2) 
1.72771

>  <sdf_rank>  (2) 
0

$$$$

     RDKit          3D

 50 53  0  0  0  0  0  0  0  0999 V2000
   41.2071   -1.6623   10.1586 N   0  0  0  0  0  0  0  0  0  0  0  0
   40.8145   -2.9160    9.6779 C   0  0  0  0  0  0  0  0  0  0  0  0
   39.7811   -3.6243   10.2950 C   0  0  0  0  0  0  0  0  0  0  0  0
   39.1350   -3.0673   11.3934 C   0  0  0  0  0  0  0  0  0  0  0  0
   39.5052   -1.8129   11.8713 N   0  0  0  0  0  0  0  0  0  0  0  0
   40.5415   -1.1034   11.2515 C   0  0  0  0  0  0  0  0  0  0  0  0
   42.4548   -1.1640    8.1337 C   0  0  0  0  0  0  0  0  0  0  0  0
   43.4808   -0.4862    7.4570 C   0  0  0  0  0  0  0  0  0  0  0  0
   44.0732    0.6141    9.5284 C   0  0  0  0  0  0  0  0  0  0  0  0
   44.3471    3.7075    9.5812 C   0  0  0  0  0  0  0  0  0  0  0  0
   46.1878    5.1328    8.9287 C   0  0  0  0  0  0  0  0  0  0  0  0
   46.6178    2.8707    9.6351 C   0  0  0  0  0  0  0  0  0  0  0  0
   47.6228    1.7429    9.9110 C   0  0  0  0  0  0  0  0  0  0  0  0
   47.0855    4.1001    9.1828 C   0  0  0  0  0  0  0  0  0  0  0  0
   44.8243    4.9368    9.1255 C   0  0  0  0  0  0  0  0  0  0  0  0
   45.2489    2.6717    9.8333 C   0  0  0  0  0  0  0  0  0  0  0  0
   44.8553    1.4477   10.2749 O   0  0  0  0  0  0  0  0  0  0  0  0
   43.0563   -0.0692   10.1947 C   0  0  0  0  0  0  0  0  0  0  0  0
   44.2898    0.4011    8.1604 C   0  0  0  0  0  0  0  0  0  0  0  0
   45.3356    1.0976    7.4751 C   0  0  0  0  0  0  0  0  0  0  0  0
   46.1883    1.6165    6.9308 N   0  0  0  0  0  0  0  0  0  0  0  0
   41.6651   -2.0160    7.4535 F   0  0  0  0  0  0  0  0  0  0  0  0
   42.2347   -0.9484    9.4989 C   0  0  0  0  0  0  0  0  0  0  0  0
   41.3859   -3.4057    8.7070 O   0  0  0  0  0  0  0  0  0  0  0  0
   40.8715    0.0050   11.6721 O   0  0  0  0  0  0  0  0  0  0  0  0
   37.8098   -3.8977   12.2029 S   0  0  1  0  0  0  0  0  0  0  0  0
   36.7304   -2.8903   12.4093 O   0  0  0  0  0  0  0  0  0  0  0  0
   37.4679   -5.0767   11.3518 O   0  0  0  0  0  0  0  0  0  0  0  0
   38.5071   -4.3945   13.6874 C   0  0  0  0  0  0  0  0  0  0  0  0
   39.7169   -3.8493   14.0974 C   0  0  0  0  0  0  0  0  0  0  0  0
   40.2424   -4.2312   15.3229 C   0  0  0  0  0  0  0  0  0  0  0  0
   39.5675   -5.1401   16.1368 C   0  0  0  0  0  0  0  0  0  0  0  0
   38.3531   -5.6664   15.7166 C   0  0  0  0  0  0  0  0  0  0  0  0
   37.8123   -5.2901   14.4928 C   0  0  0  0  0  0  0  0  0  0  0  0
   39.4813   -4.6125    9.9162 H   0  0  0  0  0  0  0  0  0  0  0  0
   39.0163   -1.4063   12.6815 H   0  0  0  0  0  0  0  0  0  0  0  0
   43.6436   -0.6546    6.3823 H   0  0  0  0  0  0  0  0  0  0  0  0
   43.2694    3.5555    9.7406 H   0  0  0  0  0  0  0  0  0  0  0  0
   46.5567    6.1057    8.5717 H   0  0  0  0  0  0  0  0  0  0  0  0
   47.7387    1.6128   10.9971 H   0  0  0  0  0  0  0  0  0  0  0  0
   47.2542    0.8066    9.4668 H   0  0  0  0  0  0  0  0  0  0  0  0
   48.5953    2.0016    9.4668 H   0  0  0  0  0  0  0  0  0  0  0  0
   48.1631    4.2558    9.0261 H   0  0  0  0  0  0  0  0  0  0  0  0
   44.1188    5.7555    8.9206 H   0  0  0  0  0  0  0  0  0  0  0  0
   42.9041    0.0879   11.2728 H   0  0  0  0  0  0  0  0  0  0  0  0
   40.2493   -3.1270   13.4611 H   0  0  0  0  0  0  0  0  0  0  0  0
   41.2030   -3.8119   15.6567 H   0  0  0  0  0  0  0  0  0  0  0  0
   39.9944   -5.4385   17.1057 H   0  0  0  0  0  0  0  0  0  0  0  0
   37.8170   -6.3842   16.3549 H   0  0  0  0  0  0  0  0  0  0  0  0
   36.8442   -5.6966   14.1647 H   0  0  0  0  0  0  0  0  0  0  0  0
  1  2  1  0
  1  6  1  0
  1 23  1  0
  2  3  1  0
  2 24  2  0
  3  4  2  0
  4  5  1  0
 26  4  1  6
  5  6  1  0
  6 25  2  0
  7  8  2  0
  7 22  1  0
  7 23  1  0
  8 19  1  0
  9 17  1  0
  9 18  1  0
  9 19  2  0
 10 15  2  0
 10 16  1  0
 11 14  2  0
 11 15  1  0
 12 13  1  0
 12 14  1  0
 12 16  2  0
 16 17  1  0
 18 23  2  0
 19 20  1  0
 20 21  3  0
 26 27  2  0
 26 28  2  0
 26 29  1  0
 29 30  2  0
 29 34  1  0
 30 31  1  0
 31 32  2  0
 32 33  1  0
 33 34  2  0
  3 35  1  0
  5 36  1  0
  8 37  1  0
 10 38  1  0
 11 39  1  0
 13 40  1  0
 13 41  1  0
 13 42  1  0
 14 43  1  0
 15 44  1  0
 18 45  1  0
 30 46  1  0
 31 47  1  0
 32 48  1  0
 33 49  1  0
 34 50  1  0
M  END
>  <filename_input>  (3) 
7NXO_UU8_docked.sdf

>  <pdb_id>  (3) 
7NXO_UU8

>  <pose_rank>  (3) 
2

>  <num_atoms_heavy>  (3) 
34

>  <num_torsions>  (3) 
6

>  <pose>  (3) 
[41.20710558582055, -1.6623004617440589, 10.158604717134079, 4.904807802868357, 2.5444128892493656, 0.30904343244501087, -1.495300172756346, 1.7703735033590966, -0.5422025977718916, 0.9346602558540477, -2.317888104033987, -4.328754062335284]

>  <energy>  (3) 
-472.8310616911542

>  <inter_energy>  (3) 
-696.3712234153403

>  <intra_energy>  (3) 
227.53720042517932

>  <rmsd>  (3) 
3.15334

>  <sdf_rank>  (3) 
0

$$$$

     RDKit          3D

 50 53  0  0  0  0  0  0  0  0999 V2000
   41.9995   -0.9060   10.3813 N   0  0  0  0  0  0  0  0  0  0  0  0
   42.9965   -0.5142   11.2810 C   0  0  0  0  0  0  0  0  0  0  0  0
   43.8662    0.5331   10.9692 C   0  0  0  0  0  0  0  0  0  0  0  0
   43.7283    1.1938    9.7532 C   0  0  0  0  0  0  0  0  0  0  0  0
   42.7294    0.8243    8.8563 N   0  0  0  0  0  0  0  0  0  0  0  0
   41.8576   -0.2260    9.1700 C   0  0  0  0  0  0  0  0  0  0  0  0
   40.8706   -2.9834    9.8198 C   0  0  0  0  0  0  0  0  0  0  0  0
   39.9762   -4.0196   10.1302 C   0  0  0  0  0  0  0  0  0  0  0  0
   39.5510   -2.9666   12.2662 C   0  0  0  0  0  0  0  0  0  0  0  0
   36.7236   -2.2194   12.6733 C   0  0  0  0  0  0  0  0  0  0  0  0
   34.7895   -2.9807   13.9081 C   0  0  0  0  0  0  0  0  0  0  0  0
   36.9979   -3.6065   14.6379 C   0  0  0  0  0  0  0  0  0  0  0  0
   37.8961   -4.3522   15.6354 C   0  0  0  0  0  0  0  0  0  0  0  0
   35.6176   -3.6506   14.8039 C   0  0  0  0  0  0  0  0  0  0  0  0
   35.3403   -2.2668   12.8483 C   0  0  0  0  0  0  0  0  0  0  0  0
   37.5531   -2.8900   13.5744 C   0  0  0  0  0  0  0  0  0  0  0  0
   38.9084   -2.8841   13.4679 O   0  0  0  0  0  0  0  0  0  0  0  0
   40.4357   -1.9368   11.9468 C   0  0  0  0  0  0  0  0  0  0  0  0
   39.3162   -4.0052   11.3552 C   0  0  0  0  0  0  0  0  0  0  0  0
   38.4054   -5.0608   11.6787 C   0  0  0  0  0  0  0  0  0  0  0  0
   37.7093   -5.9262   11.9216 N   0  0  0  0  0  0  0  0  0  0  0  0
   41.5170   -3.0000    8.6391 F   0  0  0  0  0  0  0  0  0  0  0  0
   41.1093   -1.9482   10.7309 C   0  0  0  0  0  0  0  0  0  0  0  0
   43.1159   -1.0985   12.3549 O   0  0  0  0  0  0  0  0  0  0  0  0
   40.9744   -0.5554    8.3789 O   0  0  0  0  0  0  0  0  0  0  0  0
   44.7772    2.5367    9.3089 S   0  0  1  0  0  0  0  0  0  0  0  0
   43.9927    3.7865    9.5213 O   0  0  0  0  0  0  0  0  0  0  0  0
   46.0228    2.3853   10.1193 O   0  0  0  0  0  0  0  0  0  0  0  0
   45.0889    2.2572    7.6471 C   0  0  0  0  0  0  0  0  0  0  0  0
   44.6057    3.1465    6.6960 C   0  0  0  0  0  0  0  0  0  0  0  0
   44.9067    2.9268    5.3600 C   0  0  0  0  0  0  0  0  0  0  0  0
   45.6876    1.8381    4.9739 C   0  0  0  0  0  0  0  0  0  0  0  0
   46.1724    0.9655    5.9393 C   0  0  0  0  0  0  0  0  0  0  0  0
   45.8823    1.1751    7.2823 C   0  0  0  0  0  0  0  0  0  0  0  0
   44.6523    0.8324   11.6782 H   0  0  0  0  0  0  0  0  0  0  0  0
   42.6315    1.3240    7.9610 H   0  0  0  0  0  0  0  0  0  0  0  0
   39.7988   -4.8343    9.4127 H   0  0  0  0  0  0  0  0  0  0  0  0
   37.1573   -1.6583   11.8324 H   0  0  0  0  0  0  0  0  0  0  0  0
   33.6978   -3.0157   14.0380 H   0  0  0  0  0  0  0  0  0  0  0  0
   37.5922   -4.0999   16.6621 H   0  0  0  0  0  0  0  0  0  0  0  0
   37.7961   -5.4364   15.4794 H   0  0  0  0  0  0  0  0  0  0  0  0
   38.9435   -4.0543   15.4794 H   0  0  0  0  0  0  0  0  0  0  0  0
   35.1812   -4.2141   15.6418 H   0  0  0  0  0  0  0  0  0  0  0  0
   34.6815   -1.7369   12.1447 H   0  0  0  0  0  0  0  0  0  0  0  0
   40.6006   -1.1142   12.6582 H   0  0  0  0  0  0  0  0  0  0  0  0
   43.9947    4.0102    6.9971 H   0  0  0  0  0  0  0  0  0  0  0  0
   44.5248    3.6198    4.5958 H   0  0  0  0  0  0  0  0  0  0  0  0
   45.9181    1.6714    3.9113 H   0  0  0  0  0  0  0  0  0  0  0  0
   46.7886    0.1049    5.6398 H   0  0  0  0  0  0  0  0  0  0  0  0
   46.2764    0.4918    8.0489 H   0  0  0  0  0  0  0  0  0  0  0  0
  1  2  1  0
  1  6  1  0
  1 23  1  0
  2  3  1  0
  2 24  2  0
  3  4  2  0
  4  5  1  0
 26  4  1  1
  5  6  1  0
  6 25  2  0
  7  8  2  0
  7 22  1  0
  7 23  1  0
  8 19  1  0
  9 17  1  0
  9 18  1  0
  9 19  2  0
 10 15  2  0
 10 16  1  0
 11 14  2  0
 11 15  1  0
 12 13  1  0
 12 14  1  0
 12 16  2  0
 16 17  1  0
 18 23  2  0
 19 20  1  0
 20 21  3  0
 26 27  2  0
 26 28  2  0
 26 29  1  0
 29 30  2  0
 29 34  1  0
 30 31  1  0
 31 32  2  0
 32 33  1  0
 33 34  2  0
  3 35  1  0
  5 36  1  0
  8 37  1  0
 10 38  1  0
 11 39  1  0
 13 40  1  0
 13 41  1  0
 13 42  1  0
 14 43  1  0
 15 44  1  0
 18 45  1  0
 30 46  1  0
 31 47  1  0
 32 48  1  0
 33 49  1  0
 34 50  1  0
M  END
>  <filename_input>  (4) 
7NXO_UU8_docked.sdf

>  <pdb_id>  (4) 
7NXO_UU8

>  <pose_rank>  (4) 
3

>  <num_atoms_heavy>  (4) 
34

>  <num_torsions>  (4) 
6

>  <pose>  (4) 
[41.999501166668175, -0.9060362821562464, 10.381276180467028, -2.2705357694359063, 2.01979866486708, 0.7031755152132848, 2.014154075533825, -2.4096851162265964, 4.022042029514533, -0.8751841441557513, -1.768178553516106, 3.6878158580349703]

>  <energy>  (4) 
-713.922611790425

>  <inter_energy>  (4) 
-805.9176663510768

>  <intra_energy>  (4) 
89.7669381435693

>  <rmsd>  (4) 
9.79988

>  <sdf_rank>  (4) 
0

$$$$

     RDKit          3D

 50 53  0  0  0  0  0  0  0  0999 V2000
   40.2183   -2.3946   11.0513 N   0  0  0  0  0  0  0  0  0  0  0  0
   40.8433   -1.3622   11.7588 C   0  0  0  0  0  0  0  0  0  0  0  0
   41.7957   -0.5493   11.1402 C   0  0  0  0  0  0  0  0  0  0  0  0
   42.1150   -0.7695    9.8047 C   0  0  0  0  0  0  0  0  0  0  0  0
   41.4878   -1.7832    9.0849 N   0  0  0  0  0  0  0  0  0  0  0  0
   40.5326   -2.5977    9.7061 C   0  0  0  0  0  0  0  0  0  0  0  0
   39.5792   -4.4483   12.1823 C   0  0  0  0  0  0  0  0  0  0  0  0
   38.6185   -5.2643   12.7999 C   0  0  0  0  0  0  0  0  0  0  0  0
   36.9598   -3.5468   12.4110 C   0  0  0  0  0  0  0  0  0  0  0  0
   35.1022   -0.7383   12.1408 C   0  0  0  0  0  0  0  0  0  0  0  0
   34.7988    0.6356   14.1069 C   0  0  0  0  0  0  0  0  0  0  0  0
   35.3755   -1.6903   14.3494 C   0  0  0  0  0  0  0  0  0  0  0  0
   35.6842   -2.8850   15.2634 C   0  0  0  0  0  0  0  0  0  0  0  0
   35.0815   -0.4570   14.9214 C   0  0  0  0  0  0  0  0  0  0  0  0
   34.8107    0.4958   12.7225 C   0  0  0  0  0  0  0  0  0  0  0  0
   35.3881   -1.8328   12.9593 C   0  0  0  0  0  0  0  0  0  0  0  0
   35.6842   -3.0630   12.4623 O   0  0  0  0  0  0  0  0  0  0  0  0
   37.9189   -2.7455   11.7921 C   0  0  0  0  0  0  0  0  0  0  0  0
   37.3080   -4.8093   12.9096 C   0  0  0  0  0  0  0  0  0  0  0  0
   36.3247   -5.6355   13.5412 C   0  0  0  0  0  0  0  0  0  0  0  0
   35.5727   -6.3193   14.0505 N   0  0  0  0  0  0  0  0  0  0  0  0
   40.8496   -4.8826   12.0831 F   0  0  0  0  0  0  0  0  0  0  0  0
   39.2335   -3.1854   11.6883 C   0  0  0  0  0  0  0  0  0  0  0  0
   40.5592   -1.1688   12.9380 O   0  0  0  0  0  0  0  0  0  0  0  0
   39.9773   -3.4949    9.0728 O   0  0  0  0  0  0  0  0  0  0  0  0
   43.2900    0.2335    8.9595 S   0  0  1  0  0  0  0  0  0  0  0  0
   43.6329   -0.4759    7.6940 O   0  0  0  0  0  0  0  0  0  0  0  0
   42.6684    1.5845    8.8195 O   0  0  0  0  0  0  0  0  0  0  0  0
   44.6176    0.2784   10.0423 C   0  0  0  0  0  0  0  0  0  0  0  0
   45.9140    0.2358    9.5456 C   0  0  0  0  0  0  0  0  0  0  0  0
   46.9748    0.3184   10.4353 C   0  0  0  0  0  0  0  0  0  0  0  0
   46.7492    0.4504   11.8048 C   0  0  0  0  0  0  0  0  0  0  0  0
   45.4465    0.5033   12.2831 C   0  0  0  0  0  0  0  0  0  0  0  0
   44.3734    0.4258   11.4032 C   0  0  0  0  0  0  0  0  0  0  0  0
   42.2884    0.2568   11.7037 H   0  0  0  0  0  0  0  0  0  0  0  0
   41.7266   -1.9342    8.0944 H   0  0  0  0  0  0  0  0  0  0  0  0
   38.8986   -6.2528   13.1928 H   0  0  0  0  0  0  0  0  0  0  0  0
   35.1069   -0.8482   11.0463 H   0  0  0  0  0  0  0  0  0  0  0  0
   34.5654    1.6111   14.5583 H   0  0  0  0  0  0  0  0  0  0  0  0
   35.6034   -2.5725   16.3150 H   0  0  0  0  0  0  0  0  0  0  0  0
   34.9656   -3.6938   15.0650 H   0  0  0  0  0  0  0  0  0  0  0  0
   36.7047   -3.2443   15.0650 H   0  0  0  0  0  0  0  0  0  0  0  0
   35.0726   -0.3453   16.0157 H   0  0  0  0  0  0  0  0  0  0  0  0
   34.5891    1.3632   12.0833 H   0  0  0  0  0  0  0  0  0  0  0  0
   37.6347   -1.7638   11.3853 H   0  0  0  0  0  0  0  0  0  0  0  0
   46.0962    0.1382    8.4652 H   0  0  0  0  0  0  0  0  0  0  0  0
   48.0066    0.2792   10.0558 H   0  0  0  0  0  0  0  0  0  0  0  0
   47.5977    0.5122   12.5021 H   0  0  0  0  0  0  0  0  0  0  0  0
   45.2632    0.6071   13.3627 H   0  0  0  0  0  0  0  0  0  0  0  0
   43.3413    0.4804   11.7797 H   0  0  0  0  0  0  0  0  0  0  0  0
  1  2  1  0
  1  6  1  0
  1 23  1  0
  2  3  1  0
  2 24  2  0
  3  4  2  0
  4  5  1  0
 26  4  1  1
  5  6  1  0
  6 25  2  0
  7  8  2  0
  7 22  1  0
  7 23  1  0
  8 19  1  0
  9 17  1  0
  9 18  1  0
  9 19  2  0
 10 15  2  0
 10 16  1  0
 11 14  2  0
 11 15  1  0
 12 13  1  0
 12 14  1  0
 12 16  2  0
 16 17  1  0
 18 23  2  0
 19 20  1  0
 20 21  3  0
 26 27  2  0
 26 28  2  0
 26 29  1  0
 29 30  2  0
 29 34  1  0
 30 31  1  0
 31 32  2  0
 32 33  1  0
 33 34  2  0
  3 35  1  0
  5 36  1  0
  8 37  1  0
 10 38  1  0
 11 39  1  0
 13 40  1  0
 13 41  1  0
 13 42  1  0
 14 43  1  0
 15 44  1  0
 18 45  1  0
 30 46  1  0
 31 47  1  0
 32 48  1  0
 33 49  1  0
 34 50  1  0
M  END
>  <filename_input>  (5) 
7NXO_UU8_docked.sdf

>  <pdb_id>  (5) 
7NXO_UU8

>  <pose_rank>  (5) 
4

>  <num_atoms_heavy>  (5) 
34

>  <num_torsions>  (5) 
6

>  <pose>  (5) 
[40.21828271431227, -2.3946488217131803, 11.051349027165461, -2.555704927740558, 2.181535626117699, -0.43260289387414536, 2.5657212632239697, 3.1305118522538473, 0.9529241048050114, 1.6033290740960033, 2.9175967720305995, -2.1071393835695194]

>  <energy>  (5) 
-677.566104752657

>  <inter_energy>  (5) 
-737.9539795249797

>  <intra_energy>  (5) 
64.26727645387211

>  <rmsd>  (5) 
9.50307

>  <sdf_rank>  (5) 
0

$$$$

     RDKit          3D

 50 53  0  0  0  0  0  0  0  0999 V2000
   41.0215   -1.5612   10.4935 N   0  0  0  0  0  0  0  0  0  0  0  0
   40.7070   -2.5138    9.5184 C   0  0  0  0  0  0  0  0  0  0  0  0
   39.8988   -3.6100    9.8275 C   0  0  0  0  0  0  0  0  0  0  0  0
   39.3985   -3.7449   11.1181 C   0  0  0  0  0  0  0  0  0  0  0  0
   39.6905   -2.7947   12.0933 N   0  0  0  0  0  0  0  0  0  0  0  0
   40.5010   -1.6956   11.7822 C   0  0  0  0  0  0  0  0  0  0  0  0
   42.8956   -0.0888   10.9673 C   0  0  0  0  0  0  0  0  0  0  0  0
   43.6882    1.0292   10.6642 C   0  0  0  0  0  0  0  0  0  0  0  0
   42.3005    1.4450    8.7269 C   0  0  0  0  0  0  0  0  0  0  0  0
   43.3566    1.0338    6.0452 C   0  0  0  0  0  0  0  0  0  0  0  0
   44.0454    2.2416    4.0673 C   0  0  0  0  0  0  0  0  0  0  0  0
   42.6280    3.3150    5.6921 C   0  0  0  0  0  0  0  0  0  0  0  0
   41.8436    4.5550    6.1447 C   0  0  0  0  0  0  0  0  0  0  0  0
   43.3300    3.3573    4.4921 C   0  0  0  0  0  0  0  0  0  0  0  0
   44.0599    1.0854    4.8414 C   0  0  0  0  0  0  0  0  0  0  0  0
   42.6414    2.1549    6.4711 C   0  0  0  0  0  0  0  0  0  0  0  0
   41.9371    2.1775    7.6336 O   0  0  0  0  0  0  0  0  0  0  0  0
   41.5133    0.3369    9.0395 C   0  0  0  0  0  0  0  0  0  0  0  0
   43.3846    1.7952    9.5428 C   0  0  0  0  0  0  0  0  0  0  0  0
   44.1912    2.9345    9.2268 C   0  0  0  0  0  0  0  0  0  0  0  0
   44.8111    3.8609    9.0034 N   0  0  0  0  0  0  0  0  0  0  0  0
   43.1929   -0.8365   12.0466 F   0  0  0  0  0  0  0  0  0  0  0  0
   41.8156   -0.4420   10.1504 C   0  0  0  0  0  0  0  0  0  0  0  0
   41.1492   -2.3923    8.3789 O   0  0  0  0  0  0  0  0  0  0  0  0
   40.7614   -0.8548   12.6421 O   0  0  0  0  0  0  0  0  0  0  0  0
   38.3556   -5.0909   11.5673 S   0  0  1  0  0  0  0  0  0  0  0  0
   37.7988   -5.6473   10.3013 O   0  0  0  0  0  0  0  0  0  0  0  0
   39.1909   -6.0151   12.3915 O   0  0  0  0  0  0  0  0  0  0  0  0
   37.1425   -4.3454   12.5210 C   0  0  0  0  0  0  0  0  0  0  0  0
   36.1206   -3.6350   11.9046 C   0  0  0  0  0  0  0  0  0  0  0  0
   35.1240   -3.0769   12.6914 C   0  0  0  0  0  0  0  0  0  0  0  0
   35.1386   -3.2307   14.0772 C   0  0  0  0  0  0  0  0  0  0  0  0
   36.1615   -3.9543   14.6759 C   0  0  0  0  0  0  0  0  0  0  0  0
   37.1649   -4.5225   13.9000 C   0  0  0  0  0  0  0  0  0  0  0  0
   39.6603   -4.3591    9.0581 H   0  0  0  0  0  0  0  0  0  0  0  0
   39.3100   -2.9003   13.0446 H   0  0  0  0  0  0  0  0  0  0  0  0
   44.5404    1.2970   11.3062 H   0  0  0  0  0  0  0  0  0  0  0  0
   43.3654    0.1175    6.6538 H   0  0  0  0  0  0  0  0  0  0  0  0
   44.6003    2.2738    3.1180 H   0  0  0  0  0  0  0  0  0  0  0  0
   41.8197    4.5928    7.2438 H   0  0  0  0  0  0  0  0  0  0  0  0
   42.3337    5.4604    5.7573 H   0  0  0  0  0  0  0  0  0  0  0  0
   40.8156    4.5002    5.7573 H   0  0  0  0  0  0  0  0  0  0  0  0
   43.3198    4.2711    3.8798 H   0  0  0  0  0  0  0  0  0  0  0  0
   44.6291    0.2073    4.5024 H   0  0  0  0  0  0  0  0  0  0  0  0
   40.6519    0.0789    8.4059 H   0  0  0  0  0  0  0  0  0  0  0  0
   36.1020   -3.5169   10.8111 H   0  0  0  0  0  0  0  0  0  0  0  0
   34.3123   -2.5063   12.2165 H   0  0  0  0  0  0  0  0  0  0  0  0
   34.3448   -2.7817   14.6923 H   0  0  0  0  0  0  0  0  0  0  0  0
   36.1778   -4.0782   15.7688 H   0  0  0  0  0  0  0  0  0  0  0  0
   37.9687   -5.1066   14.3721 H   0  0  0  0  0  0  0  0  0  0  0  0
  1  2  1  0
  1  6  1  0
  1 23  1  0
  2  3  1  0
  2 24  2  0
  3  4  2  0
  4  5  1  0
 26  4  1  6
  5  6  1  0
  6 25  2  0
  7  8  2  0
  7 22  1  0
  7 23  1  0
  8 19  1  0
  9 17  1  0
  9 18  1  0
  9 19  2  0
 10 15  2  0
 10 16  1  0
 11 14  2  0
 11 15  1  0
 12 13  1  0
 12 14  1  0
 12 16  2  0
 16 17  1  0
 18 23  2  0
 19 20  1  0
 20 21  3  0
 26 27  2  0
 26 28  2  0
 26 29  1  0
 29 30  2  0
 29 34  1  0
 30 31  1  0
 31 32  2  0
 32 33  1  0
 33 34  2  0
  3 35  1  0
  5 36  1  0
  8 37  1  0
 10 38  1  0
 11 39  1  0
 13 40  1  0
 13 41  1  0
 13 42  1  0
 14 43  1  0
 15 44  1  0
 18 45  1  0
 30 46  1  0
 31 47  1  0
 32 48  1  0
 33 49  1  0
 34 50  1  0
M  END
>  <filename_input>  (6) 
7NXO_UU8_docked.sdf

>  <pdb_id>  (6) 
7NXO_UU8

>  <pose_rank>  (6) 
5

>  <num_atoms_heavy>  (6) 
34

>  <num_torsions>  (6) 
6

>  <pose>  (6) 
[41.021457148346876, -1.5612166987792302, 10.493480161905039, 3.1937544203417425, 4.7826101329966795, -1.6828663512665918, 8.288860952803748, 1.6784381231091718, 6.282523391222736, 0.33754081203058595, 5.963931496502295, 3.056362914714712]

>  <energy>  (6) 
-666.2307760430002

>  <inter_energy>  (6) 
-725.6563356073051

>  <intra_energy>  (6) 
72.4290694782118

>  <rmsd>  (6) 
3.28194

>  <sdf_rank>  (6) 
0

$$$$

     RDKit          3D

 50 53  0  0  0  0  0  0  0  0999 V2000
   41.7370   -1.9197    9.7598 N   0  0  0  0  0  0  0  0  0  0  0  0
   42.9504   -1.3058   10.0881 C   0  0  0  0  0  0  0  0  0  0  0  0
   43.9469   -1.1359    9.1244 C   0  0  0  0  0  0  0  0  0  0  0  0
   43.7199   -1.5770    7.8251 C   0  0  0  0  0  0  0  0  0  0  0  0
   42.5100   -2.1745    7.4817 N   0  0  0  0  0  0  0  0  0  0  0  0
   41.5113   -2.3441    8.4488 C   0  0  0  0  0  0  0  0  0  0  0  0
   40.3619   -0.9388   11.5068 C   0  0  0  0  0  0  0  0  0  0  0  0
   39.3807   -1.0454   12.5047 C   0  0  0  0  0  0  0  0  0  0  0  0
   39.1490   -3.3951   11.9778 C   0  0  0  0  0  0  0  0  0  0  0  0
   39.1536   -5.1502   14.4848 C   0  0  0  0  0  0  0  0  0  0  0  0
   37.3891   -6.0124   15.8949 C   0  0  0  0  0  0  0  0  0  0  0  0
   36.9262   -5.4725   13.5937 C   0  0  0  0  0  0  0  0  0  0  0  0
   35.9255   -5.3974   12.4315 C   0  0  0  0  0  0  0  0  0  0  0  0
   36.4947   -5.9389   14.8311 C   0  0  0  0  0  0  0  0  0  0  0  0
   38.7132   -5.6214   15.7220 C   0  0  0  0  0  0  0  0  0  0  0  0
   38.2556   -5.0793   13.4179 C   0  0  0  0  0  0  0  0  0  0  0  0
   38.6153   -4.6345   12.1847 O   0  0  0  0  0  0  0  0  0  0  0  0
   40.1303   -3.2821   10.9932 C   0  0  0  0  0  0  0  0  0  0  0  0
   38.7783   -2.2780   12.7383 C   0  0  0  0  0  0  0  0  0  0  0  0
   37.7748   -2.3922   13.7523 C   0  0  0  0  0  0  0  0  0  0  0  0
   37.0022   -2.5081   14.5783 N   0  0  0  0  0  0  0  0  0  0  0  0
   40.9395    0.2545   11.2730 F   0  0  0  0  0  0  0  0  0  0  0  0
   40.7294   -2.0528   10.7436 C   0  0  0  0  0  0  0  0  0  0  0  0
   43.1484   -0.9162   11.2361 O   0  0  0  0  0  0  0  0  0  0  0  0
   40.4413   -2.8726    8.1484 O   0  0  0  0  0  0  0  0  0  0  0  0
   44.9255   -1.3727    6.5578 S   0  0  1  0  0  0  0  0  0  0  0  0
   46.2115   -1.9016    7.0954 O   0  0  0  0  0  0  0  0  0  0  0  0
   44.3806   -2.0512    5.3438 O   0  0  0  0  0  0  0  0  0  0  0  0
   44.9796    0.3261    6.3387 C   0  0  0  0  0  0  0  0  0  0  0  0
   44.2948    0.9067    5.2789 C   0  0  0  0  0  0  0  0  0  0  0  0
   44.3144    2.2870    5.1449 C   0  0  0  0  0  0  0  0  0  0  0  0
   45.0014    3.0833    6.0605 C   0  0  0  0  0  0  0  0  0  0  0  0
   45.6708    2.4870    7.1210 C   0  0  0  0  0  0  0  0  0  0  0  0
   45.6567    1.1052    7.2704 C   0  0  0  0  0  0  0  0  0  0  0  0
   44.9014   -0.6582    9.3903 H   0  0  0  0  0  0  0  0  0  0  0  0
   42.3493   -2.4920    6.5151 H   0  0  0  0  0  0  0  0  0  0  0  0
   39.0910   -0.1642   13.0959 H   0  0  0  0  0  0  0  0  0  0  0  0
   40.1996   -4.8372   14.3510 H   0  0  0  0  0  0  0  0  0  0  0  0
   37.0486   -6.3804   16.8740 H   0  0  0  0  0  0  0  0  0  0  0  0
   34.9038   -5.3207   12.8318 H   0  0  0  0  0  0  0  0  0  0  0  0
   36.1451   -4.5132   11.8151 H   0  0  0  0  0  0  0  0  0  0  0  0
   36.0107   -6.3045   11.8151 H   0  0  0  0  0  0  0  0  0  0  0  0
   35.4484   -6.2490   14.9686 H   0  0  0  0  0  0  0  0  0  0  0  0
   39.4167   -5.6840   16.5653 H   0  0  0  0  0  0  0  0  0  0  0  0
   40.4307   -4.1671   10.4132 H   0  0  0  0  0  0  0  0  0  0  0  0
   43.7464    0.2824    4.5582 H   0  0  0  0  0  0  0  0  0  0  0  0
   43.7817    2.7592    4.3064 H   0  0  0  0  0  0  0  0  0  0  0  0
   45.0129    4.1770    5.9435 H   0  0  0  0  0  0  0  0  0  0  0  0
   46.2145    3.1107    7.8458 H   0  0  0  0  0  0  0  0  0  0  0  0
   46.1760    0.6327    8.1172 H   0  0  0  0  0  0  0  0  0  0  0  0
  1  2  1  0
  1  6  1  0
  1 23  1  0
  2  3  1  0
  2 24  2  0
  3  4  2  0
  4  5  1  0
 26  4  1  1
  5  6  1  0
  6 25  2  0
  7  8  2  0
  7 22  1  0
  7 23  1  0
  8 19  1  0
  9 17  1  0
  9 18  1  0
  9 19  2  0
 10 15  2  0
 10 16  1  0
 11 14  2  0
 11 15  1  0
 12 13  1  0
 12 14  1  0
 12 16  2  0
 16 17  1  0
 18 23  2  0
 19 20  1  0
 20 21  3  0
 26 27  2  0
 26 28  2  0
 26 29  1  0
 29 30  2  0
 29 34  1  0
 30 31  1  0
 31 32  2  0
 32 33  1  0
 33 34  2  0
  3 35  1  0
  5 36  1  0
  8 37  1  0
 10 38  1  0
 11 39  1  0
 13 40  1  0
 13 41  1  0
 13 42  1  0
 14 43  1  0
 15 44  1  0
 18 45  1  0
 30 46  1  0
 31 47  1  0
 32 48  1  0
 33 49  1  0
 34 50  1  0
M  END
>  <filename_input>  (7) 
7NXO_UU8_docked.sdf

>  <pdb_id>  (7) 
7NXO_UU8

>  <pose_rank>  (7) 
6

>  <num_atoms_heavy>  (7) 
34

>  <num_torsions>  (7) 
6

>  <pose>  (7) 
[41.73698112551679, -1.9196981510211364, 9.75979132160925, 1.4908412218059723, -2.075334745011452, 0.09328384308241426, -7.392142940728274, 1.0693258021344352, 4.391121642551288, 5.086804040294579, 0.9016330763765912, -0.04260704302180571]

>  <energy>  (7) 
-511.7954172776845

>  <inter_energy>  (7) 
-663.3988803410759

>  <intra_energy>  (7) 
151.31139658975104

>  <rmsd>  (7) 
9.37477

>  <sdf_rank>  (7) 
0

$$$$

     RDKit          3D

 50 53  0  0  0  0  0  0  0  0999 V2000
   40.7181   -1.5641   10.3032 N   0  0  0  0  0  0  0  0  0  0  0  0
   39.9680   -1.3788   11.4694 C   0  0  0  0  0  0  0  0  0  0  0  0
   39.1819   -2.4125   11.9829 C   0  0  0  0  0  0  0  0  0  0  0  0
   39.1560   -3.6387   11.3272 C   0  0  0  0  0  0  0  0  0  0  0  0
   39.9112   -3.8411   10.1749 N   0  0  0  0  0  0  0  0  0  0  0  0
   40.6994   -2.8038    9.6608 C   0  0  0  0  0  0  0  0  0  0  0  0
   42.1097    0.3830   10.7243 C   0  0  0  0  0  0  0  0  0  0  0  0
   42.9044    1.4476   10.2715 C   0  0  0  0  0  0  0  0  0  0  0  0
   42.5260    0.7173    7.9965 C   0  0  0  0  0  0  0  0  0  0  0  0
   44.7343   -0.3733    6.3790 C   0  0  0  0  0  0  0  0  0  0  0  0
   46.2391    0.3176    4.6173 C   0  0  0  0  0  0  0  0  0  0  0  0
   44.1572    1.4852    4.9394 C   0  0  0  0  0  0  0  0  0  0  0  0
   43.1906    2.6006    4.5158 C   0  0  0  0  0  0  0  0  0  0  0  0
   45.3524    1.3242    4.2464 C   0  0  0  0  0  0  0  0  0  0  0  0
   45.9320   -0.5264    5.6801 C   0  0  0  0  0  0  0  0  0  0  0  0
   43.8470    0.6387    6.0071 C   0  0  0  0  0  0  0  0  0  0  0  0
   42.6648    0.8486    6.6447 O   0  0  0  0  0  0  0  0  0  0  0  0
   41.7315   -0.3335    8.4546 C   0  0  0  0  0  0  0  0  0  0  0  0
   43.1077    1.6120    8.9046 C   0  0  0  0  0  0  0  0  0  0  0  0
   43.9198    2.6938    8.4370 C   0  0  0  0  0  0  0  0  0  0  0  0
   44.5880    3.5492    8.0988 N   0  0  0  0  0  0  0  0  0  0  0  0
   41.9190    0.2167   12.0466 F   0  0  0  0  0  0  0  0  0  0  0  0
   41.5322   -0.5138    9.8184 C   0  0  0  0  0  0  0  0  0  0  0  0
   39.9930   -0.2953   12.0475 O   0  0  0  0  0  0  0  0  0  0  0  0
   41.3671   -2.9795    8.6422 O   0  0  0  0  0  0  0  0  0  0  0  0
   38.2039   -4.9898   11.9346 S   0  0  1  0  0  0  0  0  0  0  0  0
   37.2043   -5.3228   10.8800 O   0  0  0  0  0  0  0  0  0  0  0  0
   39.1774   -6.0642   12.2939 O   0  0  0  0  0  0  0  0  0  0  0  0
   37.4577   -4.3446   13.3360 C   0  0  0  0  0  0  0  0  0  0  0  0
   37.8732   -4.7636   14.5932 C   0  0  0  0  0  0  0  0  0  0  0  0
   37.2876   -4.1965   15.7154 C   0  0  0  0  0  0  0  0  0  0  0  0
   36.3042   -3.2163   15.5890 C   0  0  0  0  0  0  0  0  0  0  0  0
   35.9091   -2.8006   14.3242 C   0  0  0  0  0  0  0  0  0  0  0  0
   36.4897   -3.3569   13.1907 C   0  0  0  0  0  0  0  0  0  0  0  0
   38.5892   -2.2586   12.8968 H   0  0  0  0  0  0  0  0  0  0  0  0
   39.8901   -4.7549    9.7001 H   0  0  0  0  0  0  0  0  0  0  0  0
   43.3616    2.1445   10.9893 H   0  0  0  0  0  0  0  0  0  0  0  0
   44.4909   -1.0442    7.2160 H   0  0  0  0  0  0  0  0  0  0  0  0
   47.1842    0.1890    4.0693 H   0  0  0  0  0  0  0  0  0  0  0  0
   42.7725    3.0831    5.4116 H   0  0  0  0  0  0  0  0  0  0  0  0
   43.7322    3.3471    3.9163 H   0  0  0  0  0  0  0  0  0  0  0  0
   42.3747    2.1707    3.9163 H   0  0  0  0  0  0  0  0  0  0  0  0
   45.5965    1.9914    3.4066 H   0  0  0  0  0  0  0  0  0  0  0  0
   46.6375   -1.3188    5.9708 H   0  0  0  0  0  0  0  0  0  0  0  0
   41.2617   -1.0206    7.7354 H   0  0  0  0  0  0  0  0  0  0  0  0
   38.6534   -5.5321   14.6973 H   0  0  0  0  0  0  0  0  0  0  0  0
   37.6029   -4.5240   16.7171 H   0  0  0  0  0  0  0  0  0  0  0  0
   35.8442   -2.7749   16.4854 H   0  0  0  0  0  0  0  0  0  0  0  0
   35.1334   -2.0278   14.2192 H   0  0  0  0  0  0  0  0  0  0  0  0
   36.1866   -3.0193   12.1886 H   0  0  0  0  0  0  0  0  0  0  0  0
  1  2  1  0
  1  6  1  0
  1 23  1  0
  2  3  1  0
  2 24  2  0
  3  4  2  0
  4  5  1  0
 26  4  1  6
  5  6  1  0
  6 25  2  0
  7  8  2  0
  7 22  1  0
  7 23  1  0
  8 19  1  0
  9 17  1  0
  9 18  1  0
  9 19  2  0
 10 15  2  0
 10 16  1  0
 11 14  2  0
 11 15  1  0
 12 13  1  0
 12 14  1  0
 12 16  2  0
 16 17  1  0
 18 23  2  0
 19 20  1  0
 20 21  3  0
 26 27  2  0
 26 28  2  0
 26 29  1  0
 29 30  2  0
 29 34  1  0
 30 31  1  0
 31 32  2  0
 32 33  1  0
 33 34  2  0
  3 35  1  0
  5 36  1  0
  8 37  1  0
 10 38  1  0
 11 39  1  0
 13 40  1  0
 13 41  1  0
 13 42  1  0
 14 43  1  0
 15 44  1  0
 18 45  1  0
 30 46  1  0
 31 47  1  0
 32 48  1  0
 33 49  1  0
 34 50  1  0
M  END
>  <filename_input>  (8) 
7NXO_UU8_docked.sdf

>  <pdb_id>  (8) 
7NXO_UU8

>  <pose_rank>  (8) 
7

>  <num_atoms_heavy>  (8) 
34

>  <num_torsions>  (8) 
6

>  <pose>  (8) 
[40.71814520646194, -1.5641185927533119, 10.303200438506773, -2.120299695333439, -2.9307027344364784, 1.1476990581801503, -1.424990428507053, -2.601735093182624, -0.08903393188557707, 0.47349255221272285, 2.088906779848396, -0.19157620271841716]

>  <energy>  (8) 
-552.2217412054815

>  <inter_energy>  (8) 
-692.8597157248704

>  <intra_energy>  (8) 
148.38166866563472

>  <rmsd>  (8) 
3.00804

>  <sdf_rank>  (8) 
0

$$$$

     RDKit          3D

 50 53  0  0  0  0  0  0  0  0999 V2000
   40.4620   -1.5649   10.4977 N   0  0  0  0  0  0  0  0  0  0  0  0
   40.6072   -2.7612    9.7871 C   0  0  0  0  0  0  0  0  0  0  0  0
   39.7882   -3.8582   10.0635 C   0  0  0  0  0  0  0  0  0  0  0  0
   38.8151   -3.7498   11.0511 C   0  0  0  0  0  0  0  0  0  0  0  0
   38.6495   -2.5592   11.7540 N   0  0  0  0  0  0  0  0  0  0  0  0
   39.4712   -1.4597   11.4759 C   0  0  0  0  0  0  0  0  0  0  0  0
   41.0137    0.2872    9.0244 C   0  0  0  0  0  0  0  0  0  0  0  0
   41.8218    1.3792    8.6716 C   0  0  0  0  0  0  0  0  0  0  0  0
   43.1757    0.9672   10.6336 C   0  0  0  0  0  0  0  0  0  0  0  0
   45.7314   -0.2147   10.2037 C   0  0  0  0  0  0  0  0  0  0  0  0
   47.9859   -0.4959   11.0306 C   0  0  0  0  0  0  0  0  0  0  0  0
   46.4469    0.9309   12.2124 C   0  0  0  0  0  0  0  0  0  0  0  0
   46.1605    1.8748   13.3893 C   0  0  0  0  0  0  0  0  0  0  0  0
   47.7100    0.3611   12.0919 C   0  0  0  0  0  0  0  0  0  0  0  0
   47.0003   -0.7838   10.0915 C   0  0  0  0  0  0  0  0  0  0  0  0
   45.4556    0.6430   11.2705 C   0  0  0  0  0  0  0  0  0  0  0  0
   44.2418    1.2299   11.4449 O   0  0  0  0  0  0  0  0  0  0  0  0
   42.3721   -0.1211   10.9729 C   0  0  0  0  0  0  0  0  0  0  0  0
   42.9044    1.7140    9.4793 C   0  0  0  0  0  0  0  0  0  0  0  0
   43.7302    2.8284    9.1265 C   0  0  0  0  0  0  0  0  0  0  0  0
   44.3565    3.7269    8.8215 N   0  0  0  0  0  0  0  0  0  0  0  0
   39.9605   -0.0330    8.2495 F   0  0  0  0  0  0  0  0  0  0  0  0
   41.2809   -0.4563   10.1796 C   0  0  0  0  0  0  0  0  0  0  0  0
   41.4667   -2.8544    8.9145 O   0  0  0  0  0  0  0  0  0  0  0  0
   39.3278   -0.4065   12.0960 O   0  0  0  0  0  0  0  0  0  0  0  0
   37.7352   -5.0874   11.4328 S   0  0  1  0  0  0  0  0  0  0  0  0
   36.4519   -4.8233   10.7215 O   0  0  0  0  0  0  0  0  0  0  0  0
   38.4617   -6.3370   11.0560 O   0  0  0  0  0  0  0  0  0  0  0  0
   37.5543   -4.9721   13.1331 C   0  0  0  0  0  0  0  0  0  0  0  0
   38.5920   -5.3713   13.9654 C   0  0  0  0  0  0  0  0  0  0  0  0
   38.4431   -5.2282   15.3369 C   0  0  0  0  0  0  0  0  0  0  0  0
   37.2769   -4.6858   15.8755 C   0  0  0  0  0  0  0  0  0  0  0  0
   36.2541   -4.2809   15.0280 C   0  0  0  0  0  0  0  0  0  0  0  0
   36.3907   -4.4145   13.6513 C   0  0  0  0  0  0  0  0  0  0  0  0
   39.9115   -4.7982    9.5057 H   0  0  0  0  0  0  0  0  0  0  0  0
   37.9217   -2.4871   12.4793 H   0  0  0  0  0  0  0  0  0  0  0  0
   41.6017    1.9641    7.7664 H   0  0  0  0  0  0  0  0  0  0  0  0
   44.9548   -0.4397    9.4580 H   0  0  0  0  0  0  0  0  0  0  0  0
   48.9847   -0.9464   10.9340 H   0  0  0  0  0  0  0  0  0  0  0  0
   46.3229    1.3395   14.3365 H   0  0  0  0  0  0  0  0  0  0  0  0
   46.8363    2.7412   13.3373 H   0  0  0  0  0  0  0  0  0  0  0  0
   45.1173    2.2197   13.3373 H   0  0  0  0  0  0  0  0  0  0  0  0
   48.4896    0.5875   12.8342 H   0  0  0  0  0  0  0  0  0  0  0  0
   47.2227   -1.4639    9.2560 H   0  0  0  0  0  0  0  0  0  0  0  0
   42.6021   -0.7151   11.8696 H   0  0  0  0  0  0  0  0  0  0  0  0
   39.5162   -5.7936   13.5441 H   0  0  0  0  0  0  0  0  0  0  0  0
   39.2547   -5.5464   16.0078 H   0  0  0  0  0  0  0  0  0  0  0  0
   37.1679   -4.5793   16.9649 H   0  0  0  0  0  0  0  0  0  0  0  0
   35.3320   -3.8528   15.4480 H   0  0  0  0  0  0  0  0  0  0  0  0
   35.5863   -4.0824   12.9785 H   0  0  0  0  0  0  0  0  0  0  0  0
  1  2  1  0
  1  6  1  0
  1 23  1  0
  2  3  1  0
  2 24  2  0
  3  4  2  0
  4  5  1  0
 26  4  1  6
  5  6  1  0
  6 25  2  0
  7  8  2  0
  7 22  1  0
  7 23  1  0
  8 19  1  0
  9 17  1  0
  9 18  1  0
  9 19  2  0
 10 15  2  0
 10 16  1  0
 11 14  2  0
 11 15  1  0
 12 13  1  0
 12 14  1  0
 12 16  2  0
 16 17  1  0
 18 23  2  0
 19 20  1  0
 20 21  3  0
 26 27  2  0
 26 28  2  0
 26 29  1  0
 29 30  2  0
 29 34  1  0
 30 31  1  0
 31 32  2  0
 32 33  1  0
 33 34  2  0
  3 35  1  0
  5 36  1  0
  8 37  1  0
 10 38  1  0
 11 39  1  0
 13 40  1  0
 13 41  1  0
 13 42  1  0
 14 43  1  0
 15 44  1  0
 18 45  1  0
 30 46  1  0
 31 47  1  0
 32 48  1  0
 33 49  1  0
 34 50  1  0
M  END
>  <filename_input>  (9) 
7NXO_UU8_docked.sdf

>  <pdb_id>  (9) 
7NXO_UU8

>  <pose_rank>  (9) 
8

>  <num_atoms_heavy>  (9) 
34

>  <num_torsions>  (9) 
6

>  <pose>  (9) 
[40.46204213375134, -1.5649489585292984, 10.497664065511184, -0.43347916762347716, -0.6363353800475717, 0.1807809972555203, 5.632287850759985, -2.8887904982378756, -2.885024315686324, -0.12371942843714988, 4.5756552606470695, -5.883798049042172]

>  <energy>  (9) 
-698.1466597980568

>  <inter_energy>  (9) 
-714.8255874806582

>  <intra_energy>  (9) 
21.02169569723036

>  <rmsd>  (9) 
2.21477

>  <sdf_rank>  (9) 
0

$$$$

     RDKit          3D

 50 53  0  0  0  0  0  0  0  0999 V2000
   40.7608   -1.6962   10.4968 N   0  0  0  0  0  0  0  0  0  0  0  0
   39.8775   -1.3630   11.5292 C   0  0  0  0  0  0  0  0  0  0  0  0
   38.8138   -2.2065   11.8570 C   0  0  0  0  0  0  0  0  0  0  0  0
   38.6422   -3.3921   11.1507 C   0  0  0  0  0  0  0  0  0  0  0  0
   39.5243   -3.7432   10.1321 N   0  0  0  0  0  0  0  0  0  0  0  0
   40.5909   -2.8967    9.8043 C   0  0  0  0  0  0  0  0  0  0  0  0
   42.7724   -0.5334   11.2086 C   0  0  0  0  0  0  0  0  0  0  0  0
   43.8509    0.3274   10.9523 C   0  0  0  0  0  0  0  0  0  0  0  0
   43.0664    0.5774    8.6776 C   0  0  0  0  0  0  0  0  0  0  0  0
   41.8648    3.1339    7.8296 C   0  0  0  0  0  0  0  0  0  0  0  0
   42.4609    5.1179    6.5830 C   0  0  0  0  0  0  0  0  0  0  0  0
   43.6863    3.0735    6.2367 C   0  0  0  0  0  0  0  0  0  0  0  0
   44.8104    2.3146    5.5166 C   0  0  0  0  0  0  0  0  0  0  0  0
   43.4751    4.4156    5.9387 C   0  0  0  0  0  0  0  0  0  0  0  0
   41.6581    4.4793    7.5232 C   0  0  0  0  0  0  0  0  0  0  0  0
   42.8812    2.4302    7.1805 C   0  0  0  0  0  0  0  0  0  0  0  0
   43.1370    1.1178    7.4259 O   0  0  0  0  0  0  0  0  0  0  0  0
   41.9932   -0.2730    8.9429 C   0  0  0  0  0  0  0  0  0  0  0  0
   43.9922    0.8829    9.6842 C   0  0  0  0  0  0  0  0  0  0  0  0
   45.0918    1.7588    9.4159 C   0  0  0  0  0  0  0  0  0  0  0  0
   45.9906    2.4229    9.2068 N   0  0  0  0  0  0  0  0  0  0  0  0
   42.6388   -1.0790   12.4321 F   0  0  0  0  0  0  0  0  0  0  0  0
   41.8499   -0.8428   10.2027 C   0  0  0  0  0  0  0  0  0  0  0  0
   40.0314   -0.3157   12.1524 O   0  0  0  0  0  0  0  0  0  0  0  0
   41.3715   -3.2039    8.9040 O   0  0  0  0  0  0  0  0  0  0  0  0
   37.3354   -4.5103   11.5289 S   0  0  1  0  0  0  0  0  0  0  0  0
   36.0856   -3.9189   10.9715 O   0  0  0  0  0  0  0  0  0  0  0  0
   37.7457   -5.8389   10.9832 O   0  0  0  0  0  0  0  0  0  0  0  0
   37.3197   -4.5295   13.2425 C   0  0  0  0  0  0  0  0  0  0  0  0
   38.4595   -4.9112   13.9381 C   0  0  0  0  0  0  0  0  0  0  0  0
   38.4406   -4.8770   15.3246 C   0  0  0  0  0  0  0  0  0  0  0  0
   37.3021   -4.4595   16.0128 C   0  0  0  0  0  0  0  0  0  0  0  0
   36.1751   -4.0699   15.3011 C   0  0  0  0  0  0  0  0  0  0  0  0
   36.1806   -4.0951   13.9115 C   0  0  0  0  0  0  0  0  0  0  0  0
   38.1188   -1.9358   12.6656 H   0  0  0  0  0  0  0  0  0  0  0  0
   39.3923   -4.6265    9.6191 H   0  0  0  0  0  0  0  0  0  0  0  0
   44.5768    0.5605   11.7453 H   0  0  0  0  0  0  0  0  0  0  0  0
   41.2323    2.6318    8.5764 H   0  0  0  0  0  0  0  0  0  0  0  0
   42.2936    6.1795    6.3486 H   0  0  0  0  0  0  0  0  0  0  0  0
   45.4819    1.8613    6.2607 H   0  0  0  0  0  0  0  0  0  0  0  0
   44.3748    1.5251    4.8867 H   0  0  0  0  0  0  0  0  0  0  0  0
   45.3798    3.0139    4.8867 H   0  0  0  0  0  0  0  0  0  0  0  0
   44.1087    4.9211    5.1950 H   0  0  0  0  0  0  0  0  0  0  0  0
   40.8562    5.0382    8.0277 H   0  0  0  0  0  0  0  0  0  0  0  0
   41.2591   -0.4932    8.1540 H   0  0  0  0  0  0  0  0  0  0  0  0
   39.3619   -5.2350   13.3988 H   0  0  0  0  0  0  0  0  0  0  0  0
   39.3345   -5.1830   15.8880 H   0  0  0  0  0  0  0  0  0  0  0  0
   37.2967   -4.4388   17.1126 H   0  0  0  0  0  0  0  0  0  0  0  0
   35.2743   -3.7401   15.8394 H   0  0  0  0  0  0  0  0  0  0  0  0
   35.2929   -3.7747   13.3465 H   0  0  0  0  0  0  0  0  0  0  0  0
  1  2  1  0
  1  6  1  0
  1 23  1  0
  2  3  1  0
  2 24  2  0
  3  4  2  0
  4  5  1  0
 26  4  1  1
  5  6  1  0
  6 25  2  0
  7  8  2  0
  7 22  1  0
  7 23  1  0
  8 19  1  0
  9 17  1  0
  9 18  1  0
  9 19  2  0
 10 15  2  0
 10 16  1  0
 11 14  2  0
 11 15  1  0
 12 13  1  0
 12 14  1  0
 12 16  2  0
 16 17  1  0
 18 23  2  0
 19 20  1  0
 20 21  3  0
 26 27  2  0
 26 28  2  0
 26 29  1  0
 29 30  2  0
 29 34  1  0
 30 31  1  0
 31 32  2  0
 32 33  1  0
 33 34  2  0
  3 35  1  0
  5 36  1  0
  8 37  1  0
 10 38  1  0
 11 39  1  0
 13 40  1  0
 13 41  1  0
 13 42  1  0
 14 43  1  0
 15 44  1  0
 18 45  1  0
 30 46  1  0
 31 47  1  0
 32 48  1  0
 33 49  1  0
 34 50  1  0
M  END
>  <filename_input>  (10) 
7NXO_UU8_docked.sdf

>  <pdb_id>  (10) 
7NXO_UU8

>  <pose_rank>  (10) 
9

>  <num_atoms_heavy>  (10) 
34

>  <num_torsions>  (10) 
6

>  <pose>  (10) 
[40.76081477161052, -1.696161448462699, 10.496830433604941, 1.6434271991109592, 1.6735875866153447, -0.6840469179653115, -0.9724398649453387, 4.275724585938472, -2.520730177368844, -0.8639504769066381, -4.938437474215718, 0.6799311293406474]

>  <energy>  (10) 
-667.1946378983221

>  <inter_energy>  (10) 
-725.8314058585141

>  <intra_energy>  (10) 
55.89341124488935

>  <rmsd>  (10) 
3.51764

>  <sdf_rank>  (10) 
0

$$$$

     RDKit          3D

 50 53  0  0  0  0  0  0  0  0999 V2000
   39.2379   -2.5278   11.3571 N   0  0  0  0  0  0  0  0  0  0  0  0
   38.0859   -3.1675   10.8874 C   0  0  0  0  0  0  0  0  0  0  0  0
   37.0751   -3.5539   11.7702 C   0  0  0  0  0  0  0  0  0  0  0  0
   37.2188   -3.2893   13.1280 C   0  0  0  0  0  0  0  0  0  0  0  0
   38.3531   -2.6382   13.6059 N   0  0  0  0  0  0  0  0  0  0  0  0
   39.3661   -2.2509   12.7197 C   0  0  0  0  0  0  0  0  0  0  0  0
   41.1572   -3.0537    9.9626 C   0  0  0  0  0  0  0  0  0  0  0  0
   42.1706   -2.6707    9.0701 C   0  0  0  0  0  0  0  0  0  0  0  0
   41.3376   -0.4009    9.1521 C   0  0  0  0  0  0  0  0  0  0  0  0
   43.0460    1.6304   10.4366 C   0  0  0  0  0  0  0  0  0  0  0  0
   44.5329    3.4348    9.8213 C   0  0  0  0  0  0  0  0  0  0  0  0
   42.8654    2.6725    8.2593 C   0  0  0  0  0  0  0  0  0  0  0  0
   42.1980    2.7870    6.8811 C   0  0  0  0  0  0  0  0  0  0  0  0
   43.9167    3.5262    8.5767 C   0  0  0  0  0  0  0  0  0  0  0  0
   44.0982    2.4920   10.7478 C   0  0  0  0  0  0  0  0  0  0  0  0
   42.4273    1.7251    9.1884 C   0  0  0  0  0  0  0  0  0  0  0  0
   41.3949    0.9217    8.8186 O   0  0  0  0  0  0  0  0  0  0  0  0
   40.3384   -0.7885   10.0446 C   0  0  0  0  0  0  0  0  0  0  0  0
   42.2580   -1.3409    8.6694 C   0  0  0  0  0  0  0  0  0  0  0  0
   43.2872   -0.9450    7.7570 C   0  0  0  0  0  0  0  0  0  0  0  0
   44.0850   -0.6504    7.0025 N   0  0  0  0  0  0  0  0  0  0  0  0
   41.0652   -4.3412   10.3446 F   0  0  0  0  0  0  0  0  0  0  0  0
   40.2347   -2.1166   10.4416 C   0  0  0  0  0  0  0  0  0  0  0  0
   37.9605   -3.3995    9.6877 O   0  0  0  0  0  0  0  0  0  0  0  0
   40.3701   -1.6762   13.1393 O   0  0  0  0  0  0  0  0  0  0  0  0
   35.9718   -3.7297   14.2907 S   0  0  1  0  0  0  0  0  0  0  0  0
   35.3984   -2.4564   14.8126 O   0  0  0  0  0  0  0  0  0  0  0  0
   35.0299   -4.6412   13.5744 O   0  0  0  0  0  0  0  0  0  0  0  0
   36.8441   -4.5757   15.4992 C   0  0  0  0  0  0  0  0  0  0  0  0
   36.6991   -5.9519   15.6180 C   0  0  0  0  0  0  0  0  0  0  0  0
   37.4476   -6.6240   16.5729 C   0  0  0  0  0  0  0  0  0  0  0  0
   38.3378   -5.9358   17.3963 C   0  0  0  0  0  0  0  0  0  0  0  0
   38.4789   -4.5614   17.2559 C   0  0  0  0  0  0  0  0  0  0  0  0
   37.7385   -3.8750   16.3007 C   0  0  0  0  0  0  0  0  0  0  0  0
   36.1744   -4.0624   11.3955 H   0  0  0  0  0  0  0  0  0  0  0  0
   38.4473   -2.4412   14.6125 H   0  0  0  0  0  0  0  0  0  0  0  0
   42.8879   -3.4137    8.6915 H   0  0  0  0  0  0  0  0  0  0  0  0
   42.7065    0.8826   11.1685 H   0  0  0  0  0  0  0  0  0  0  0  0
   45.3649    4.1089   10.0729 H   0  0  0  0  0  0  0  0  0  0  0  0
   41.1212    2.9717    7.0094 H   0  0  0  0  0  0  0  0  0  0  0  0
   42.6492    3.6208    6.3234 H   0  0  0  0  0  0  0  0  0  0  0  0
   42.3454    1.8504    6.3234 H   0  0  0  0  0  0  0  0  0  0  0  0
   44.2606    4.2723    7.8452 H   0  0  0  0  0  0  0  0  0  0  0  0
   44.5869    2.4257   11.7311 H   0  0  0  0  0  0  0  0  0  0  0  0
   39.6311   -0.0419   10.4350 H   0  0  0  0  0  0  0  0  0  0  0  0
   36.0027   -6.4994   14.9659 H   0  0  0  0  0  0  0  0  0  0  0  0
   37.3376   -7.7131   16.6819 H   0  0  0  0  0  0  0  0  0  0  0  0
   38.9246   -6.4780   18.1523 H   0  0  0  0  0  0  0  0  0  0  0  0
   39.1796   -4.0138   17.9033 H   0  0  0  0  0  0  0  0  0  0  0  0
   37.8589   -2.7883   16.1800 H   0  0  0  0  0  0  0  0  0  0  0  0
  1  2  1  0
  1  6  1  0
  1 23  1  0
  2  3  1  0
  2 24  2  0
  3  4  2  0
  4  5  1  0
 26  4  1  6
  5  6  1  0
  6 25  2  0
  7  8  2  0
  7 22  1  0
  7 23  1  0
  8 19  1  0
  9 17  1  0
  9 18  1  0
  9 19  2  0
 10 15  2  0
 10 16  1  0
 11 14  2  0
 11 15  1  0
 12 13  1  0
 12 14  1  0
 12 16  2  0
 16 17  1  0
 18 23  2  0
 19 20  1  0
 20 21  3  0
 26 27  2  0
 26 28  2  0
 26 29  1  0
 29 30  2  0
 29 34  1  0
 30 31  1  0
 31 32  2  0
 32 33  1  0
 33 34  2  0
  3 35  1  0
  5 36  1  0
  8 37  1  0
 10 38  1  0
 11 39  1  0
 13 40  1  0
 13 41  1  0
 13 42  1  0
 14 43  1  0
 15 44  1  0
 18 45  1  0
 30 46  1  0
 31 47  1  0
 32 48  1  0
 33 49  1  0
 34 50  1  0
M  END
>  <filename_input>  (11) 
7NXO_UU8_docked.sdf

>  <pdb_id>  (11) 
7NXO_UU8

>  <pose_rank>  (11) 
10

>  <num_atoms_heavy>  (11) 
34

>  <num_torsions>  (11) 
6

>  <pose>  (11) 
[39.23789320714562, -2.5277717254807737, 11.35708716942538, 3.374849045233469, -2.207181238860578, 3.911755573323665, 2.9050319941761873, -1.947727350460102, 3.842137839371591, -0.8615663601135047, 4.3364808964235, -0.18684690844306362]

>  <energy>  (11) 
-662.4832272005222

>  <inter_energy>  (11) 
-695.7296790334916

>  <intra_energy>  (11) 
38.98557330732919

>  <rmsd>  (11) 
3.80503

>  <sdf_rank>  (11) 
0

$$$$

     RDKit          3D

 50 53  0  0  0  0  0  0  0  0999 V2000
   40.3489   -2.4765   10.3717 N   0  0  0  0  0  0  0  0  0  0  0  0
   39.7370   -3.4813    9.6147 C   0  0  0  0  0  0  0  0  0  0  0  0
   39.0103   -4.4992   10.2363 C   0  0  0  0  0  0  0  0  0  0  0  0
   38.8915   -4.5027   11.6219 C   0  0  0  0  0  0  0  0  0  0  0  0
   39.4818   -3.4989   12.3854 N   0  0  0  0  0  0  0  0  0  0  0  0
   40.2101   -2.4784   11.7611 C   0  0  0  0  0  0  0  0  0  0  0  0
   42.1830   -1.7475    8.9541 C   0  0  0  0  0  0  0  0  0  0  0  0
   42.9146   -0.7356    8.3131 C   0  0  0  0  0  0  0  0  0  0  0  0
   41.3828    0.9008    9.2231 C   0  0  0  0  0  0  0  0  0  0  0  0
   38.6895    2.8268    9.9467 C   0  0  0  0  0  0  0  0  0  0  0  0
   38.1125    3.1467   12.2727 C   0  0  0  0  0  0  0  0  0  0  0  0
   40.3545    2.5020   11.6734 C   0  0  0  0  0  0  0  0  0  0  0  0
   41.7850    2.1469   12.1039 C   0  0  0  0  0  0  0  0  0  0  0  0
   39.4136    2.8232   12.6462 C   0  0  0  0  0  0  0  0  0  0  0  0
   37.7525    3.1501   10.9286 C   0  0  0  0  0  0  0  0  0  0  0  0
   39.9950    2.5049   10.3231 C   0  0  0  0  0  0  0  0  0  0  0  0
   40.9603    2.1838    9.4212 O   0  0  0  0  0  0  0  0  0  0  0  0
   40.6659   -0.1102    9.8628 C   0  0  0  0  0  0  0  0  0  0  0  0
   42.5112    0.5889    8.4530 C   0  0  0  0  0  0  0  0  0  0  0  0
   43.2512    1.6248    7.7991 C   0  0  0  0  0  0  0  0  0  0  0  0
   43.8360    2.4703    7.3135 N   0  0  0  0  0  0  0  0  0  0  0  0
   42.5661   -3.0303    8.8129 F   0  0  0  0  0  0  0  0  0  0  0  0
   41.0532   -1.4375    9.7196 C   0  0  0  0  0  0  0  0  0  0  0  0
   39.8425   -3.4758    8.3909 O   0  0  0  0  0  0  0  0  0  0  0  0
   40.7336   -1.5905   12.4333 O   0  0  0  0  0  0  0  0  0  0  0  0
   37.9706   -5.7441   12.4657 S   0  0  1  0  0  0  0  0  0  0  0  0
   37.4616   -6.6852   11.4275 O   0  0  0  0  0  0  0  0  0  0  0  0
   38.8849   -6.3198   13.4972 O   0  0  0  0  0  0  0  0  0  0  0  0
   36.6993   -4.8588   13.1984 C   0  0  0  0  0  0  0  0  0  0  0  0
   35.7547   -4.2227   12.4034 C   0  0  0  0  0  0  0  0  0  0  0  0
   34.7085   -3.5488   13.0159 C   0  0  0  0  0  0  0  0  0  0  0  0
   34.5977   -3.5147   14.4054 C   0  0  0  0  0  0  0  0  0  0  0  0
   35.5445   -4.1663   15.1848 C   0  0  0  0  0  0  0  0  0  0  0  0
   36.5962   -4.8489   14.5851 C   0  0  0  0  0  0  0  0  0  0  0  0
   38.5369   -5.2901    9.6360 H   0  0  0  0  0  0  0  0  0  0  0  0
   39.3827   -3.5069   13.4106 H   0  0  0  0  0  0  0  0  0  0  0  0
   43.7973   -0.9868    7.7067 H   0  0  0  0  0  0  0  0  0  0  0  0
   38.4021    2.8255    8.8849 H   0  0  0  0  0  0  0  0  0  0  0  0
   37.3675    3.4001   13.0413 H   0  0  0  0  0  0  0  0  0  0  0  0
   41.8445    2.1321   13.2022 H   0  0  0  0  0  0  0  0  0  0  0  0
   42.0513    1.1553   11.7089 H   0  0  0  0  0  0  0  0  0  0  0  0
   42.4841    2.8987   11.7089 H   0  0  0  0  0  0  0  0  0  0  0  0
   39.6974    2.8216   13.7089 H   0  0  0  0  0  0  0  0  0  0  0  0
   36.7235    3.4091   10.6386 H   0  0  0  0  0  0  0  0  0  0  0  0
   39.7927    0.1432   10.4819 H   0  0  0  0  0  0  0  0  0  0  0  0
   35.8350   -4.2527   11.3067 H   0  0  0  0  0  0  0  0  0  0  0  0
   33.9572   -3.0352   12.3981 H   0  0  0  0  0  0  0  0  0  0  0  0
   33.7656   -2.9751   14.8811 H   0  0  0  0  0  0  0  0  0  0  0  0
   35.4617   -4.1420   16.2815 H   0  0  0  0  0  0  0  0  0  0  0  0
   37.3395   -5.3760   15.2012 H   0  0  0  0  0  0  0  0  0  0  0  0
  1  2  1  0
  1  6  1  0
  1 23  1  0
  2  3  1  0
  2 24  2  0
  3  4  2  0
  4  5  1  0
 26  4  1  6
  5  6  1  0
  6 25  2  0
  7  8  2  0
  7 22  1  0
  7 23  1  0
  8 19  1  0
  9 17  1  0
  9 18  1  0
  9 19  2  0
 10 15  2  0
 10 16  1  0
 11 14  2  0
 11 15  1  0
 12 13  1  0
 12 14  1  0
 12 16  2  0
 16 17  1  0
 18 23  2  0
 19 20  1  0
 20 21  3  0
 26 27  2  0
 26 28  2  0
 26 29  1  0
 29 30  2  0
 29 34  1  0
 30 31  1  0
 31 32  2  0
 32 33  1  0
 33 34  2  0
  3 35  1  0
  5 36  1  0
  8 37  1  0
 10 38  1  0
 11 39  1  0
 13 40  1  0
 13 41  1  0
 13 42  1  0
 14 43  1  0
 15 44  1  0
 18 45  1  0
 30 46  1  0
 31 47  1  0
 32 48  1  0
 33 49  1  0
 34 50  1  0
M  END
>  <filename_input>  (12) 
7NXO_UU8_docked.sdf

>  <pdb_id>  (12) 
7NXO_UU8

>  <pose_rank>  (12) 
11

>  <num_atoms_heavy>  (12) 
34

>  <num_torsions>  (12) 
6

>  <pose>  (12) 
[40.34886216232183, -2.4764732051849094, 10.37168410871399, 5.644919766486603, -1.454723862137653, -1.56113892122813, 3.2177474696093005, 0.6921633833922933, 2.015238798166777, 4.2706293073516495, 0.045470044225096706, 9.122967921589801]

>  <energy>  (12) 
-557.1190233854929

>  <inter_energy>  (12) 
-613.3811300400054

>  <intra_energy>  (12) 
65.25617370019376

>  <rmsd>  (12) 
4.39656

>  <sdf_rank>  (12) 
0

$$$$

     RDKit          3D

 50 53  0  0  0  0  0  0  0  0999 V2000
   41.4743   -0.5424   10.0178 N   0  0  0  0  0  0  0  0  0  0  0  0
   41.1572    0.7960   10.2730 C   0  0  0  0  0  0  0  0  0  0  0  0
   41.9933    1.8234    9.8305 C   0  0  0  0  0  0  0  0  0  0  0  0
   43.1472    1.5051    9.1226 C   0  0  0  0  0  0  0  0  0  0  0  0
   43.4654    0.1776    8.8477 N   0  0  0  0  0  0  0  0  0  0  0  0
   42.6262   -0.8519    9.2917 C   0  0  0  0  0  0  0  0  0  0  0  0
   40.1966   -2.5537    9.5410 C   0  0  0  0  0  0  0  0  0  0  0  0
   39.3101   -3.5690    9.9325 C   0  0  0  0  0  0  0  0  0  0  0  0
   39.2177   -2.5890   12.1423 C   0  0  0  0  0  0  0  0  0  0  0  0
   37.8818   -4.5017   14.5275 C   0  0  0  0  0  0  0  0  0  0  0  0
   39.3075   -5.6179   16.1296 C   0  0  0  0  0  0  0  0  0  0  0  0
   40.1016   -3.6524   14.9862 C   0  0  0  0  0  0  0  0  0  0  0  0
   41.2190   -2.6272   14.7449 C   0  0  0  0  0  0  0  0  0  0  0  0
   40.3099   -4.6802   15.9000 C   0  0  0  0  0  0  0  0  0  0  0  0
   38.0980   -5.5280   15.4475 C   0  0  0  0  0  0  0  0  0  0  0  0
   38.8877   -3.5603   14.3002 C   0  0  0  0  0  0  0  0  0  0  0  0
   38.7454   -2.5324   13.4220 O   0  0  0  0  0  0  0  0  0  0  0  0
   40.0930   -1.5793   11.7429 C   0  0  0  0  0  0  0  0  0  0  0  0
   38.8210   -3.5807   11.2353 C   0  0  0  0  0  0  0  0  0  0  0  0
   37.9193   -4.6154   11.6413 C   0  0  0  0  0  0  0  0  0  0  0  0
   37.1731   -5.4180   11.9439 N   0  0  0  0  0  0  0  0  0  0  0  0
   40.6781   -2.5455    8.2839 F   0  0  0  0  0  0  0  0  0  0  0  0
   40.5971   -1.5655   10.4475 C   0  0  0  0  0  0  0  0  0  0  0  0
   40.1370    1.0749   10.8977 O   0  0  0  0  0  0  0  0  0  0  0  0
   42.9053   -2.0260    9.0510 O   0  0  0  0  0  0  0  0  0  0  0  0
   44.2319    2.7534    8.5172 S   0  0  1  0  0  0  0  0  0  0  0  0
   43.8622    4.0204    9.2103 O   0  0  0  0  0  0  0  0  0  0  0  0
   45.6205    2.2509    8.7416 O   0  0  0  0  0  0  0  0  0  0  0  0
   43.8645    2.8141    6.8444 C   0  0  0  0  0  0  0  0  0  0  0  0
   42.8963    3.6964    6.3828 C   0  0  0  0  0  0  0  0  0  0  0  0
   42.6454    3.7622    5.0203 C   0  0  0  0  0  0  0  0  0  0  0  0
   43.3559    2.9643    4.1243 C   0  0  0  0  0  0  0  0  0  0  0  0
   44.3288    2.0962    4.6020 C   0  0  0  0  0  0  0  0  0  0  0  0
   44.5940    2.0223    5.9644 C   0  0  0  0  0  0  0  0  0  0  0  0
   41.7417    2.8736   10.0399 H   0  0  0  0  0  0  0  0  0  0  0  0
   44.3191   -0.0474    8.3171 H   0  0  0  0  0  0  0  0  0  0  0  0
   39.0053   -4.3471    9.2173 H   0  0  0  0  0  0  0  0  0  0  0  0
   36.9268   -4.4346   13.9858 H   0  0  0  0  0  0  0  0  0  0  0  0
   39.4716   -6.4315   16.8515 H   0  0  0  0  0  0  0  0  0  0  0  0
   41.6059   -2.2723   15.7115 H   0  0  0  0  0  0  0  0  0  0  0  0
   42.0330   -3.0993   14.1752 H   0  0  0  0  0  0  0  0  0  0  0  0
   40.8186   -1.7757   14.1752 H   0  0  0  0  0  0  0  0  0  0  0  0
   41.2654   -4.7517   16.4403 H   0  0  0  0  0  0  0  0  0  0  0  0
   37.3080   -6.2702   15.6346 H   0  0  0  0  0  0  0  0  0  0  0  0
   40.3851   -0.7926   12.4541 H   0  0  0  0  0  0  0  0  0  0  0  0
   42.3381    4.3323    7.0857 H   0  0  0  0  0  0  0  0  0  0  0  0
   41.8766    4.4520    4.6420 H   0  0  0  0  0  0  0  0  0  0  0  0
   43.1471    3.0222    3.0459 H   0  0  0  0  0  0  0  0  0  0  0  0
   44.8919    1.4644    3.8994 H   0  0  0  0  0  0  0  0  0  0  0  0
   45.3733    1.3443    6.3426 H   0  0  0  0  0  0  0  0  0  0  0  0
  1  2  1  0
  1  6  1  0
  1 23  1  0
  2  3  1  0
  2 24  2  0
  3  4  2  0
  4  5  1  0
 26  4  1  1
  5  6  1  0
  6 25  2  0
  7  8  2  0
  7 22  1  0
  7 23  1  0
  8 19  1  0
  9 17  1  0
  9 18  1  0
  9 19  2  0
 10 15  2  0
 10 16  1  0
 11 14  2  0
 11 15  1  0
 12 13  1  0
 12 14  1  0
 12 16  2  0
 16 17  1  0
 18 23  2  0
 19 20  1  0
 20 21  3  0
 26 27  2  0
 26 28  2  0
 26 29  1  0
 29 30  2  0
 29 34  1  0
 30 31  1  0
 31 32  2  0
 32 33  1  0
 33 34  2  0
  3 35  1  0
  5 36  1  0
  8 37  1  0
 10 38  1  0
 11 39  1  0
 13 40  1  0
 13 41  1  0
 13 42  1  0
 14 43  1  0
 15 44  1  0
 18 45  1  0
 30 46  1  0
 31 47  1  0
 32 48  1  0
 33 49  1  0
 34 50  1  0
M  END
>  <filename_input>  (13) 
7NXO_UU8_docked.sdf

>  <pdb_id>  (13) 
7NXO_UU8

>  <pose_rank>  (13) 
12

>  <num_atoms_heavy>  (13) 
34

>  <num_torsions>  (13) 
6

>  <pose>  (13) 
[41.47434653089636, -0.5424468395197048, 10.017837034099493, 2.314597439351534, -1.2554658165679211, 1.5478761085117034, 0.2978695427661154, 1.747091083227208, -0.2916544059598422, -1.879173605155575, 0.27314413787205977, -2.9841418210862964]

>  <energy>  (13) 
-553.1415190409891

>  <inter_energy>  (13) 
-704.4886234830748

>  <intra_energy>  (13) 
152.8877371613348

>  <rmsd>  (13) 
9.29149

>  <sdf_rank>  (13) 
0

$$$$

     RDKit          3D

 50 53  0  0  0  0  0  0  0  0999 V2000
   40.7311   -1.8922   10.6090 N   0  0  0  0  0  0  0  0  0  0  0  0
   40.5841   -3.2817   10.6781 C   0  0  0  0  0  0  0  0  0  0  0  0
   39.6698   -3.8586   11.5623 C   0  0  0  0  0  0  0  0  0  0  0  0
   38.8953   -3.0363   12.3735 C   0  0  0  0  0  0  0  0  0  0  0  0
   39.0202   -1.6513   12.3022 N   0  0  0  0  0  0  0  0  0  0  0  0
   39.9373   -1.0738   11.4150 C   0  0  0  0  0  0  0  0  0  0  0  0
   41.3883   -1.4472    8.3122 C   0  0  0  0  0  0  0  0  0  0  0  0
   42.2832   -0.9165    7.3701 C   0  0  0  0  0  0  0  0  0  0  0  0
   43.6915   -0.1592    9.1854 C   0  0  0  0  0  0  0  0  0  0  0  0
   44.0599    2.7241    9.5828 C   0  0  0  0  0  0  0  0  0  0  0  0
   45.7147    4.4536    9.2429 C   0  0  0  0  0  0  0  0  0  0  0  0
   46.3991    2.1468    9.3499 C   0  0  0  0  0  0  0  0  0  0  0  0
   47.5213    1.0997    9.3026 C   0  0  0  0  0  0  0  0  0  0  0  0
   46.7201    3.4920    9.2018 C   0  0  0  0  0  0  0  0  0  0  0  0
   44.3902    4.0711    9.4309 C   0  0  0  0  0  0  0  0  0  0  0  0
   45.0695    1.7605    9.5388 C   0  0  0  0  0  0  0  0  0  0  0  0
   44.8209    0.4309    9.6753 O   0  0  0  0  0  0  0  0  0  0  0  0
   42.8008   -0.6961   10.1147 C   0  0  0  0  0  0  0  0  0  0  0  0
   43.4361   -0.2748    7.8124 C   0  0  0  0  0  0  0  0  0  0  0  0
   44.3507    0.2713    6.8566 C   0  0  0  0  0  0  0  0  0  0  0  0
   45.0504    0.6965    6.0678 N   0  0  0  0  0  0  0  0  0  0  0  0
   40.2679   -2.0605    7.8868 F   0  0  0  0  0  0  0  0  0  0  0  0
   41.6402   -1.3282    9.6837 C   0  0  0  0  0  0  0  0  0  0  0  0
   41.2686   -4.0061    9.9600 O   0  0  0  0  0  0  0  0  0  0  0  0
   40.0505    0.1499   11.3505 O   0  0  0  0  0  0  0  0  0  0  0  0
   37.7083   -3.6986   13.4931 S   0  0  1  0  0  0  0  0  0  0  0  0
   36.6860   -2.6370   13.7170 O   0  0  0  0  0  0  0  0  0  0  0  0
   37.2230   -4.9748   12.8873 O   0  0  0  0  0  0  0  0  0  0  0  0
   38.6292   -4.0017   14.9063 C   0  0  0  0  0  0  0  0  0  0  0  0
   40.0143   -3.9120   14.8589 C   0  0  0  0  0  0  0  0  0  0  0  0
   40.7388   -4.1171   16.0238 C   0  0  0  0  0  0  0  0  0  0  0  0
   40.0919   -4.4005   17.2260 C   0  0  0  0  0  0  0  0  0  0  0  0
   38.7056   -4.4748   17.2577 C   0  0  0  0  0  0  0  0  0  0  0  0
   37.9661   -4.2677   16.0992 C   0  0  0  0  0  0  0  0  0  0  0  0
   39.5634   -4.9521   11.6165 H   0  0  0  0  0  0  0  0  0  0  0  0
   38.4375   -1.0507   12.9027 H   0  0  0  0  0  0  0  0  0  0  0  0
   42.0754   -1.0068    6.2937 H   0  0  0  0  0  0  0  0  0  0  0  0
   43.0128    2.4237    9.7358 H   0  0  0  0  0  0  0  0  0  0  0  0
   45.9677    5.5178    9.1266 H   0  0  0  0  0  0  0  0  0  0  0  0
   47.8126    0.8279   10.3280 H   0  0  0  0  0  0  0  0  0  0  0  0
   47.1648    0.2039    8.7731 H   0  0  0  0  0  0  0  0  0  0  0  0
   48.3903    1.5173    8.7731 H   0  0  0  0  0  0  0  0  0  0  0  0
   47.7668    3.7954    9.0523 H   0  0  0  0  0  0  0  0  0  0  0  0
   43.5991    4.8348    9.4601 H   0  0  0  0  0  0  0  0  0  0  0  0
   43.0171   -0.6192   11.1904 H   0  0  0  0  0  0  0  0  0  0  0  0
   40.5281   -3.6823   13.9138 H   0  0  0  0  0  0  0  0  0  0  0  0
   41.8368   -4.0554   15.9989 H   0  0  0  0  0  0  0  0  0  0  0  0
   40.6761   -4.5642   18.1436 H   0  0  0  0  0  0  0  0  0  0  0  0
   38.1905   -4.6984   18.2036 H   0  0  0  0  0  0  0  0  0  0  0  0
   36.8674   -4.3137   16.1258 H   0  0  0  0  0  0  0  0  0  0  0  0
  1  2  1  0
  1  6  1  0
  1 23  1  0
  2  3  1  0
  2 24  2  0
  3  4  2  0
  4  5  1  0
 26  4  1  6
  5  6  1  0
  6 25  2  0
  7  8  2  0
  7 22  1  0
  7 23  1  0
  8 19  1  0
  9 17  1  0
  9 18  1  0
  9 19  2  0
 10 15  2  0
 10 16  1  0
 11 14  2  0
 11 15  1  0
 12 13  1  0
 12 14  1  0
 12 16  2  0
 16 17  1  0
 18 23  2  0
 19 20  1  0
 20 21  3  0
 26 27  2  0
 26 28  2  0
 26 29  1  0
 29 30  2  0
 29 34  1  0
 30 31  1  0
 31 32  2  0
 32 33  1  0
 33 34  2  0
  3 35  1  0
  5 36  1  0
  8 37  1  0
 10 38  1  0
 11 39  1  0
 13 40  1  0
 13 41  1  0
 13 42  1  0
 14 43  1  0
 15 44  1  0
 18 45  1  0
 30 46  1  0
 31 47  1  0
 32 48  1  0
 33 49  1  0
 34 50  1  0
M  END
>  <filename_input>  (14) 
7NXO_UU8_docked.sdf

>  <pdb_id>  (14) 
7NXO_UU8

>  <pose_rank>  (14) 
13

>  <num_atoms_heavy>  (14) 
34

>  <num_torsions>  (14) 
6

>  <pose>  (14) 
[40.73110664603847, -1.8922433047330323, 10.608956937243113, 4.693833331802724, 1.8946967362690708, -0.9435853352556604, -0.8045434818305007, -3.065815602856799, -6.411557546925518, 0.42704684125143677, -2.6872936243559, 1.5238891759614905]

>  <energy>  (14) 
-676.5443964553785

>  <inter_energy>  (14) 
-715.5463778973443

>  <intra_energy>  (14) 
43.75454493462501

>  <rmsd>  (14) 
3.25318

>  <sdf_rank>  (14) 
0

$$$$

     RDKit          3D

 50 53  0  0  0  0  0  0  0  0999 V2000
   39.6068   -2.8655   11.1668 N   0  0  0  0  0  0  0  0  0  0  0  0
   38.4247   -3.1472   10.4737 C   0  0  0  0  0  0  0  0  0  0  0  0
   37.3191   -3.6823   11.1383 C   0  0  0  0  0  0  0  0  0  0  0  0
   37.3990   -3.9274   12.5050 C   0  0  0  0  0  0  0  0  0  0  0  0
   38.5642   -3.6358   13.2094 N   0  0  0  0  0  0  0  0  0  0  0  0
   39.6724   -3.0989   12.5420 C   0  0  0  0  0  0  0  0  0  0  0  0
   40.9754   -2.6925    9.1663 C   0  0  0  0  0  0  0  0  0  0  0  0
   42.0693   -2.1591    8.4671 C   0  0  0  0  0  0  0  0  0  0  0  0
   42.6248   -0.8358   10.4145 C   0  0  0  0  0  0  0  0  0  0  0  0
   45.3268    1.2052   10.1692 C   0  0  0  0  0  0  0  0  0  0  0  0
   44.9835    3.4312    9.2903 C   0  0  0  0  0  0  0  0  0  0  0  0
   43.1267    2.2130   10.2227 C   0  0  0  0  0  0  0  0  0  0  0  0
   41.6339    2.1507   10.5774 C   0  0  0  0  0  0  0  0  0  0  0  0
   43.6330    3.3591    9.6188 C   0  0  0  0  0  0  0  0  0  0  0  0
   45.8271    2.3594    9.5659 C   0  0  0  0  0  0  0  0  0  0  0  0
   43.9721    1.1356   10.5004 C   0  0  0  0  0  0  0  0  0  0  0  0
   43.4170    0.0452   11.0929 O   0  0  0  0  0  0  0  0  0  0  0  0
   41.5401   -1.3764   11.1046 C   0  0  0  0  0  0  0  0  0  0  0  0
   42.8935   -1.2317    9.0974 C   0  0  0  0  0  0  0  0  0  0  0  0
   44.0086   -0.6819    8.3885 C   0  0  0  0  0  0  0  0  0  0  0  0
   44.8698   -0.2160    7.8107 N   0  0  0  0  0  0  0  0  0  0  0  0
   40.1715   -3.5830    8.5555 F   0  0  0  0  0  0  0  0  0  0  0  0
   40.7035   -2.2942   10.4801 C   0  0  0  0  0  0  0  0  0  0  0  0
   38.3560   -2.9291    9.2668 O   0  0  0  0  0  0  0  0  0  0  0  0
   40.7037   -2.8410   13.1617 O   0  0  0  0  0  0  0  0  0  0  0  0
   36.0341   -4.5795   13.4066 S   0  0  1  0  0  0  0  0  0  0  0  0
   35.3417   -3.4212   14.0402 O   0  0  0  0  0  0  0  0  0  0  0  0
   35.2340   -5.3856   12.4364 O   0  0  0  0  0  0  0  0  0  0  0  0
   36.7812   -5.5885   14.5731 C   0  0  0  0  0  0  0  0  0  0  0  0
   36.5290   -6.9542   14.5661 C   0  0  0  0  0  0  0  0  0  0  0  0
   37.1780   -7.7597   15.4901 C   0  0  0  0  0  0  0  0  0  0  0  0
   38.0755   -7.2137   16.4069 C   0  0  0  0  0  0  0  0  0  0  0  0
   38.3250   -5.8477   16.3921 C   0  0  0  0  0  0  0  0  0  0  0  0
   37.6850   -5.0287   15.4694 C   0  0  0  0  0  0  0  0  0  0  0  0
   36.3946   -3.9077   10.5865 H   0  0  0  0  0  0  0  0  0  0  0  0
   38.6112   -3.8151   14.2225 H   0  0  0  0  0  0  0  0  0  0  0  0
   42.2730   -2.4708    7.4321 H   0  0  0  0  0  0  0  0  0  0  0  0
   45.9941    0.3571   10.3823 H   0  0  0  0  0  0  0  0  0  0  0  0
   45.3847    4.3369    8.8119 H   0  0  0  0  0  0  0  0  0  0  0  0
   41.5169    2.1459   11.6711 H   0  0  0  0  0  0  0  0  0  0  0  0
   41.1204    3.0282   10.1576 H   0  0  0  0  0  0  0  0  0  0  0  0
   41.1952    1.2335   10.1576 H   0  0  0  0  0  0  0  0  0  0  0  0
   42.9671    4.2072    9.4012 H   0  0  0  0  0  0  0  0  0  0  0  0
   46.8942    2.4226    9.3066 H   0  0  0  0  0  0  0  0  0  0  0  0
   41.3463   -1.0761   12.1449 H   0  0  0  0  0  0  0  0  0  0  0  0
   35.8265   -7.3897   13.8403 H   0  0  0  0  0  0  0  0  0  0  0  0
   36.9823   -8.8421   15.4998 H   0  0  0  0  0  0  0  0  0  0  0  0
   38.5829   -7.8611   17.1374 H   0  0  0  0  0  0  0  0  0  0  0  0
   39.0319   -5.4121   17.1135 H   0  0  0  0  0  0  0  0  0  0  0  0
   37.8914   -3.9484   15.4484 H   0  0  0  0  0  0  0  0  0  0  0  0
  1  2  1  0
  1  6  1  0
  1 23  1  0
  2  3  1  0
  2 24  2  0
  3  4  2  0
  4  5  1  0
 26  4  1  6
  5  6  1  0
  6 25  2  0
  7  8  2  0
  7 22  1  0
  7 23  1  0
  8 19  1  0
  9 17  1  0
  9 18  1  0
  9 19  2  0
 10 15  2  0
 10 16  1  0
 11 14  2  0
 11 15  1  0
 12 13  1  0
 12 14  1  0
 12 16  2  0
 16 17  1  0
 18 23  2  0
 19 20  1  0
 20 21  3  0
 26 27  2  0
 26 28  2  0
 26 29  1  0
 29 30  2  0
 29 34  1  0
 30 31  1  0
 31 32  2  0
 32 33  1  0
 33 34  2  0
  3 35  1  0
  5 36  1  0
  8 37  1  0
 10 38  1  0
 11 39  1  0
 13 40  1  0
 13 41  1  0
 13 42  1  0
 14 43  1  0
 15 44  1  0
 18 45  1  0
 30 46  1  0
 31 47  1  0
 32 48  1  0
 33 49  1  0
 34 50  1  0
M  END
>  <filename_input>  (15) 
7NXO_UU8_docked.sdf

>  <pdb_id>  (15) 
7NXO_UU8

>  <pose_rank>  (15) 
14

>  <num_atoms_heavy>  (15) 
34

>  <num_torsions>  (15) 
6

>  <pose>  (15) 
[39.60680578473273, -2.865491630628198, 11.16680936584755, -0.021248330366102953, 0.3179410074707295, -0.5347185870948121, 3.6637161051819973, -1.6627385563779529, -6.902787101883254, -2.0277456577310744, -1.6787899070937247, -0.3464190177928639]

>  <energy>  (15) 
-536.327844907272

>  <inter_energy>  (15) 
-782.051358798779

>  <intra_energy>  (15) 
249.00915426981572

>  <rmsd>  (15) 
3.56604

>  <sdf_rank>  (15) 
0

$$$$

     RDKit          3D

 50 53  0  0  0  0  0  0  0  0999 V2000
   40.5082   -1.9188   10.6221 N   0  0  0  0  0  0  0  0  0  0  0  0
   40.1097   -3.2533   10.4906 C   0  0  0  0  0  0  0  0  0  0  0  0
   39.0483   -3.7578   11.2452 C   0  0  0  0  0  0  0  0  0  0  0  0
   38.3803   -2.9165   12.1285 C   0  0  0  0  0  0  0  0  0  0  0  0
   38.7565   -1.5820   12.2563 N   0  0  0  0  0  0  0  0  0  0  0  0
   39.8209   -1.0769   11.4989 C   0  0  0  0  0  0  0  0  0  0  0  0
   41.6169   -1.7520    8.4662 C   0  0  0  0  0  0  0  0  0  0  0  0
   42.6650   -1.2900    7.6550 C   0  0  0  0  0  0  0  0  0  0  0  0
   43.6163   -0.1737    9.5788 C   0  0  0  0  0  0  0  0  0  0  0  0
   44.0061    2.8378    9.5917 C   0  0  0  0  0  0  0  0  0  0  0  0
   45.7856    4.3097    8.8760 C   0  0  0  0  0  0  0  0  0  0  0  0
   46.2878    2.0360    9.4919 C   0  0  0  0  0  0  0  0  0  0  0  0
   47.3229    0.9171    9.6778 C   0  0  0  0  0  0  0  0  0  0  0  0
   46.7111    3.2847    9.0489 C   0  0  0  0  0  0  0  0  0  0  0  0
   44.4387    4.0866    9.1447 C   0  0  0  0  0  0  0  0  0  0  0  0
   44.9356    1.8099    9.7623 C   0  0  0  0  0  0  0  0  0  0  0  0
   44.5855    0.5680   10.1905 O   0  0  0  0  0  0  0  0  0  0  0  0
   42.5752   -0.6432   10.3794 C   0  0  0  0  0  0  0  0  0  0  0  0
   43.6649   -0.5023    8.2174 C   0  0  0  0  0  0  0  0  0  0  0  0
   44.7345   -0.0256    7.3946 C   0  0  0  0  0  0  0  0  0  0  0  0
   45.5647    0.3381    6.7083 N   0  0  0  0  0  0  0  0  0  0  0  0
   40.6438   -2.5066    7.9223 F   0  0  0  0  0  0  0  0  0  0  0  0
   41.5650   -1.4205    9.8249 C   0  0  0  0  0  0  0  0  0  0  0  0
   40.7005   -3.9944    9.7092 O   0  0  0  0  0  0  0  0  0  0  0  0
   40.1562    0.1018   11.6104 O   0  0  0  0  0  0  0  0  0  0  0  0
   37.0198   -3.4836   13.0922 S   0  0  1  0  0  0  0  0  0  0  0  0
   36.1182   -2.3142   13.2972 O   0  0  0  0  0  0  0  0  0  0  0  0
   36.4423   -4.6510   12.3609 O   0  0  0  0  0  0  0  0  0  0  0  0
   37.7576   -3.9812   14.5568 C   0  0  0  0  0  0  0  0  0  0  0  0
   39.0663   -3.6062   14.8316 C   0  0  0  0  0  0  0  0  0  0  0  0
   39.6301   -3.9813   16.0421 C   0  0  0  0  0  0  0  0  0  0  0  0
   38.8971   -4.7151   16.9739 C   0  0  0  0  0  0  0  0  0  0  0  0
   37.5858   -5.0713   16.6878 C   0  0  0  0  0  0  0  0  0  0  0  0
   37.0062   -4.6992   15.4806 C   0  0  0  0  0  0  0  0  0  0  0  0
   38.7438   -4.8098   11.1420 H   0  0  0  0  0  0  0  0  0  0  0  0
   38.2513   -0.9654   12.9086 H   0  0  0  0  0  0  0  0  0  0  0  0
   42.6958   -1.5480    6.5861 H   0  0  0  0  0  0  0  0  0  0  0  0
   42.9416    2.6644    9.8080 H   0  0  0  0  0  0  0  0  0  0  0  0
   46.1195    5.2978    8.5264 H   0  0  0  0  0  0  0  0  0  0  0  0
   47.4849    0.7421   10.7516 H   0  0  0  0  0  0  0  0  0  0  0  0
   46.9534   -0.0061    9.2074 H   0  0  0  0  0  0  0  0  0  0  0  0
   48.2720    1.2138    9.2074 H   0  0  0  0  0  0  0  0  0  0  0  0
   47.7756    3.4618    8.8355 H   0  0  0  0  0  0  0  0  0  0  0  0
   43.7109    4.8994    9.0038 H   0  0  0  0  0  0  0  0  0  0  0  0
   42.5535   -0.3979   11.4515 H   0  0  0  0  0  0  0  0  0  0  0  0
   39.6458   -3.0218   14.1018 H   0  0  0  0  0  0  0  0  0  0  0  0
   40.6680   -3.6965   16.2696 H   0  0  0  0  0  0  0  0  0  0  0  0
   39.3547   -5.0099   17.9298 H   0  0  0  0  0  0  0  0  0  0  0  0
   37.0034   -5.6505   17.4195 H   0  0  0  0  0  0  0  0  0  0  0  0
   35.9634   -4.9699   15.2582 H   0  0  0  0  0  0  0  0  0  0  0  0
  1  2  1  0
  1  6  1  0
  1 23  1  0
  2  3  1  0
  2 24  2  0
  3  4  2  0
  4  5  1  0
 26  4  1  6
  5  6  1  0
  6 25  2  0
  7  8  2  0
  7 22  1  0
  7 23  1  0
  8 19  1  0
  9 17  1  0
  9 18  1  0
  9 19  2  0
 10 15  2  0
 10 16  1  0
 11 14  2  0
 11 15  1  0
 12 13  1  0
 12 14  1  0
 12 16  2  0
 16 17  1  0
 18 23  2  0
 19 20  1  0
 20 21  3  0
 26 27  2  0
 26 28  2  0
 26 29  1  0
 29 30  2  0
 29 34  1  0
 30 31  1  0
 31 32  2  0
 32 33  1  0
 33 34  2  0
  3 35  1  0
  5 36  1  0
  8 37  1  0
 10 38  1  0
 11 39  1  0
 13 40  1  0
 13 41  1  0
 13 42  1  0
 14 43  1  0
 15 44  1  0
 18 45  1  0
 30 46  1  0
 31 47  1  0
 32 48  1  0
 33 49  1  0
 34 50  1  0
M  END
>  <filename_input>  (16) 
7NXO_UU8_docked.sdf

>  <pdb_id>  (16) 
7NXO_UU8

>  <pose_rank>  (16) 
15

>  <num_atoms_heavy>  (16) 
34

>  <num_torsions>  (16) 
6

>  <pose>  (16) 
[40.5081829309558, -1.9187785984036732, 10.622107396386637, 4.886492723586599, 1.9693125114789447, 0.07899443495835251, -1.2135420563424777, -3.0731068818026803, -6.597292543835408, 0.7514647631894557, -2.5868851413063108, 1.9463742567222133]

>  <energy>  (16) 
-671.7177406408615

>  <inter_energy>  (16) 
-781.079040847504

>  <intra_energy>  (16) 
120.06331819803545

>  <rmsd>  (16) 
3.10248

>  <sdf_rank>  (16) 
0

$$$$

     RDKit          3D

 50 53  0  0  0  0  0  0  0  0999 V2000
   39.8347   -2.3878   11.4769 N   0  0  0  0  0  0  0  0  0  0  0  0
   38.7254   -3.0462   10.9356 C   0  0  0  0  0  0  0  0  0  0  0  0
   37.7194   -3.5470   11.7648 C   0  0  0  0  0  0  0  0  0  0  0  0
   37.8246   -3.3784   13.1413 C   0  0  0  0  0  0  0  0  0  0  0  0
   38.9155   -2.7102   13.6912 N   0  0  0  0  0  0  0  0  0  0  0  0
   39.9237   -2.2082   12.8588 C   0  0  0  0  0  0  0  0  0  0  0  0
   41.3207   -2.6497    9.5720 C   0  0  0  0  0  0  0  0  0  0  0  0
   42.3198   -2.1615    8.7156 C   0  0  0  0  0  0  0  0  0  0  0  0
   42.3346   -0.0921    9.9686 C   0  0  0  0  0  0  0  0  0  0  0  0
   44.8585    0.6312   11.4178 C   0  0  0  0  0  0  0  0  0  0  0  0
   46.8098    1.9851   10.9651 C   0  0  0  0  0  0  0  0  0  0  0  0
   44.7407    2.4475    9.8221 C   0  0  0  0  0  0  0  0  0  0  0  0
   43.9516    3.2931    8.8120 C   0  0  0  0  0  0  0  0  0  0  0  0
   46.0802    2.7424   10.0533 C   0  0  0  0  0  0  0  0  0  0  0  0
   46.2010    0.9351   11.6457 C   0  0  0  0  0  0  0  0  0  0  0  0
   44.1274    1.3935   10.5045 C   0  0  0  0  0  0  0  0  0  0  0  0
   42.8160    1.1572   10.2356 O   0  0  0  0  0  0  0  0  0  0  0  0
   41.3470   -0.5879   10.8196 C   0  0  0  0  0  0  0  0  0  0  0  0
   42.8258   -0.8813    8.9199 C   0  0  0  0  0  0  0  0  0  0  0  0
   43.8424   -0.3768    8.0480 C   0  0  0  0  0  0  0  0  0  0  0  0
   44.6777    0.0152    7.3838 N   0  0  0  0  0  0  0  0  0  0  0  0
   40.8233   -3.8843    9.3707 F   0  0  0  0  0  0  0  0  0  0  0  0
   40.8261   -1.8605   10.6166 C   0  0  0  0  0  0  0  0  0  0  0  0
   38.6341   -3.1932    9.7196 O   0  0  0  0  0  0  0  0  0  0  0  0
   40.8894   -1.6181   13.3420 O   0  0  0  0  0  0  0  0  0  0  0  0
   36.5802   -3.9657   14.2403 S   0  0  1  0  0  0  0  0  0  0  0  0
   36.5310   -3.0131   15.3860 O   0  0  0  0  0  0  0  0  0  0  0  0
   35.3320   -4.1008   13.4311 O   0  0  0  0  0  0  0  0  0  0  0  0
   37.1716   -5.5020   14.7168 C   0  0  0  0  0  0  0  0  0  0  0  0
   38.5240   -5.6667   14.9867 C   0  0  0  0  0  0  0  0  0  0  0  0
   38.9753   -6.9067   15.4141 C   0  0  0  0  0  0  0  0  0  0  0  0
   38.0892   -7.9705   15.5794 C   0  0  0  0  0  0  0  0  0  0  0  0
   36.7384   -7.7849   15.3164 C   0  0  0  0  0  0  0  0  0  0  0  0
   36.2710   -6.5469   14.8913 C   0  0  0  0  0  0  0  0  0  0  0  0
   36.8527   -4.0694   11.3336 H   0  0  0  0  0  0  0  0  0  0  0  0
   38.9810   -2.5850   14.7115 H   0  0  0  0  0  0  0  0  0  0  0  0
   42.6988   -2.7841    7.8917 H   0  0  0  0  0  0  0  0  0  0  0  0
   44.3799   -0.2020   11.9533 H   0  0  0  0  0  0  0  0  0  0  0  0
   47.8694    2.2170   11.1481 H   0  0  0  0  0  0  0  0  0  0  0  0
   43.2977    3.9937    9.3520 H   0  0  0  0  0  0  0  0  0  0  0  0
   44.6525    3.8584    8.1803 H   0  0  0  0  0  0  0  0  0  0  0  0
   43.3393    2.6328    8.1803 H   0  0  0  0  0  0  0  0  0  0  0  0
   46.5622    3.5727    9.5164 H   0  0  0  0  0  0  0  0  0  0  0  0
   46.7814    0.3414   12.3672 H   0  0  0  0  0  0  0  0  0  0  0  0
   40.9798    0.0293   11.6528 H   0  0  0  0  0  0  0  0  0  0  0  0
   39.2252   -4.8282   14.8637 H   0  0  0  0  0  0  0  0  0  0  0  0
   40.0449   -7.0525   15.6250 H   0  0  0  0  0  0  0  0  0  0  0  0
   38.4580   -8.9506   15.9161 H   0  0  0  0  0  0  0  0  0  0  0  0
   36.0354   -8.6211   15.4450 H   0  0  0  0  0  0  0  0  0  0  0  0
   35.1993   -6.3953   14.6949 H   0  0  0  0  0  0  0  0  0  0  0  0
  1  2  1  0
  1  6  1  0
  1 23  1  0
  2  3  1  0
  2 24  2  0
  3  4  2  0
  4  5  1  0
 26  4  1  6
  5  6  1  0
  6 25  2  0
  7  8  2  0
  7 22  1  0
  7 23  1  0
  8 19  1  0
  9 17  1  0
  9 18  1  0
  9 19  2  0
 10 15  2  0
 10 16  1  0
 11 14  2  0
 11 15  1  0
 12 13  1  0
 12 14  1  0
 12 16  2  0
 16 17  1  0
 18 23  2  0
 19 20  1  0
 20 21  3  0
 26 27  2  0
 26 28  2  0
 26 29  1  0
 29 30  2  0
 29 34  1  0
 30 31  1  0
 31 32  2  0
 32 33  1  0
 33 34  2  0
  3 35  1  0
  5 36  1  0
  8 37  1  0
 10 38  1  0
 11 39  1  0
 13 40  1  0
 13 41  1  0
 13 42  1  0
 14 43  1  0
 15 44  1  0
 18 45  1  0
 30 46  1  0
 31 47  1  0
 32 48  1  0
 33 49  1  0
 34 50  1  0
M  END
>  <filename_input>  (17) 
7NXO_UU8_docked.sdf

>  <pdb_id>  (17) 
7NXO_UU8

>  <pose_rank>  (17) 
16

>  <num_atoms_heavy>  (17) 
34

>  <num_torsions>  (17) 
6

>  <pose>  (17) 
[39.83474821987055, -2.3877757726383964, 11.476867853765903, 3.2315599489448683, -2.4443400743118326, 4.01620987584913, 3.496968593716855, 1.3360781953336622, 3.976111290491012, -1.0234516893909462, -2.54792816257949, -3.870257346995231]

>  <energy>  (17) 
-640.6380055947992

>  <inter_energy>  (17) 
-747.7661894115249

>  <intra_energy>  (17) 
111.98926061866851

>  <rmsd>  (17) 
3.23286

>  <sdf_rank>  (17) 
0

$$$$

     RDKit          3D

 50 53  0  0  0  0  0  0  0  0999 V2000
   40.9700   -2.0706   10.0597 N   0  0  0  0  0  0  0  0  0  0  0  0
   40.1337   -3.0669    9.5449 C   0  0  0  0  0  0  0  0  0  0  0  0
   39.1220   -3.6241   10.3301 C   0  0  0  0  0  0  0  0  0  0  0  0
   38.9451   -3.1729   11.6337 C   0  0  0  0  0  0  0  0  0  0  0  0
   39.7601   -2.1701   12.1522 N   0  0  0  0  0  0  0  0  0  0  0  0
   40.7743   -1.6118   11.3639 C   0  0  0  0  0  0  0  0  0  0  0  0
   42.1202   -1.9537    7.9223 C   0  0  0  0  0  0  0  0  0  0  0  0
   43.1153   -1.4194    7.0891 C   0  0  0  0  0  0  0  0  0  0  0  0
   43.8126    0.0212    8.9031 C   0  0  0  0  0  0  0  0  0  0  0  0
   46.9375    0.2298    9.5014 C   0  0  0  0  0  0  0  0  0  0  0  0
   48.0082    0.0014   11.6571 C   0  0  0  0  0  0  0  0  0  0  0  0
   45.7162    0.7309   11.5303 C   0  0  0  0  0  0  0  0  0  0  0  0
   44.4338    1.1825   12.2440 C   0  0  0  0  0  0  0  0  0  0  0  0
   46.8377    0.4117   12.2886 C   0  0  0  0  0  0  0  0  0  0  0  0
   48.0572   -0.0907   10.2695 C   0  0  0  0  0  0  0  0  0  0  0  0
   45.7633    0.6390   10.1368 C   0  0  0  0  0  0  0  0  0  0  0  0
   44.6339    0.9630    9.4530 O   0  0  0  0  0  0  0  0  0  0  0  0
   42.8261   -0.5205    9.7268 C   0  0  0  0  0  0  0  0  0  0  0  0
   43.9616   -0.4326    7.5857 C   0  0  0  0  0  0  0  0  0  0  0  0
   44.9761    0.1183    6.7397 C   0  0  0  0  0  0  0  0  0  0  0  0
   45.8098    0.5348    6.0886 N   0  0  0  0  0  0  0  0  0  0  0  0
   41.2945   -2.9019    7.4412 F   0  0  0  0  0  0  0  0  0  0  0  0
   41.9676   -1.4978    9.2367 C   0  0  0  0  0  0  0  0  0  0  0  0
   40.2911   -3.4633    8.3930 O   0  0  0  0  0  0  0  0  0  0  0  0
   41.4966   -0.7260   11.8198 O   0  0  0  0  0  0  0  0  0  0  0  0
   37.6742   -3.8173   12.6684 S   0  0  1  0  0  0  0  0  0  0  0  0
   36.6130   -2.7735   12.7505 O   0  0  0  0  0  0  0  0  0  0  0  0
   37.2744   -5.1299   12.0780 O   0  0  0  0  0  0  0  0  0  0  0  0
   38.4667   -4.0369   14.1719 C   0  0  0  0  0  0  0  0  0  0  0  0
   39.7495   -3.5369   14.3545 C   0  0  0  0  0  0  0  0  0  0  0  0
   40.3562   -3.6859   15.5929 C   0  0  0  0  0  0  0  0  0  0  0  0
   39.6907   -4.3185   16.6422 C   0  0  0  0  0  0  0  0  0  0  0  0
   38.4039   -4.8020   16.4456 C   0  0  0  0  0  0  0  0  0  0  0  0
   37.7817   -4.6565   15.2113 C   0  0  0  0  0  0  0  0  0  0  0  0
   38.4718   -4.4118    9.9216 H   0  0  0  0  0  0  0  0  0  0  0  0
   39.6170   -1.8384   13.1168 H   0  0  0  0  0  0  0  0  0  0  0  0
   43.2250   -1.7768    6.0545 H   0  0  0  0  0  0  0  0  0  0  0  0
   46.9793    0.1608    8.4044 H   0  0  0  0  0  0  0  0  0  0  0  0
   48.8959   -0.2504   12.2558 H   0  0  0  0  0  0  0  0  0  0  0  0
   44.5822    1.1302   13.3327 H   0  0  0  0  0  0  0  0  0  0  0  0
   44.1985    2.2175   11.9553 H   0  0  0  0  0  0  0  0  0  0  0  0
   43.6019    0.5232   11.9553 H   0  0  0  0  0  0  0  0  0  0  0  0
   46.7997    0.4835   13.3856 H   0  0  0  0  0  0  0  0  0  0  0  0
   48.9839   -0.4180    9.7755 H   0  0  0  0  0  0  0  0  0  0  0  0
   42.7271   -0.1738   10.7660 H   0  0  0  0  0  0  0  0  0  0  0  0
   40.2754   -3.0315   13.5311 H   0  0  0  0  0  0  0  0  0  0  0  0
   41.3745   -3.3003   15.7491 H   0  0  0  0  0  0  0  0  0  0  0  0
   40.1820   -4.4340   17.6196 H   0  0  0  0  0  0  0  0  0  0  0  0
   37.8748   -5.3022   17.2701 H   0  0  0  0  0  0  0  0  0  0  0  0
   36.7576   -5.0278   15.0582 H   0  0  0  0  0  0  0  0  0  0  0  0
  1  2  1  0
  1  6  1  0
  1 23  1  0
  2  3  1  0
  2 24  2  0
  3  4  2  0
  4  5  1  0
 26  4  1  6
  5  6  1  0
  6 25  2  0
  7  8  2  0
  7 22  1  0
  7 23  1  0
  8 19  1  0
  9 17  1  0
  9 18  1  0
  9 19  2  0
 10 15  2  0
 10 16  1  0
 11 14  2  0
 11 15  1  0
 12 13  1  0
 12 14  1  0
 12 16  2  0
 16 17  1  0
 18 23  2  0
 19 20  1  0
 20 21  3  0
 26 27  2  0
 26 28  2  0
 26 29  1  0
 29 30  2  0
 29 34  1  0
 30 31  1  0
 31 32  2  0
 32 33  1  0
 33 34  2  0
  3 35  1  0
  5 36  1  0
  8 37  1  0
 10 38  1  0
 11 39  1  0
 13 40  1  0
 13 41  1  0
 13 42  1  0
 14 43  1  0
 15 44  1  0
 18 45  1  0
 30 46  1  0
 31 47  1  0
 32 48  1  0
 33 49  1  0
 34 50  1  0
M  END
>  <filename_input>  (18) 
7NXO_UU8_docked.sdf

>  <pdb_id>  (18) 
7NXO_UU8

>  <pose_rank>  (18) 
17

>  <num_atoms_heavy>  (18) 
34

>  <num_torsions>  (18) 
6

>  <pose>  (18) 
[40.96997454230643, -2.070619946678334, 10.059709327079837, 5.218256774442004, -0.12622484213685517, 2.3078478370845117, 4.294092285159579, 1.2422493110509343, 3.383809087537451, 1.1389662914972145, -1.8231263281822232, -4.422376130864803]

>  <energy>  (18) 
-456.39484051026767

>  <inter_energy>  (18) 
-705.7697419769981

>  <intra_energy>  (18) 
248.12705893127003

>  <rmsd>  (18) 
3.12101

>  <sdf_rank>  (18) 
0

$$$$

     RDKit          3D

 50 53  0  0  0  0  0  0  0  0999 V2000
   38.7038    2.6205   12.3891 N   0  0  0  0  0  0  0  0  0  0  0  0
   37.7579    3.3579   11.6690 C   0  0  0  0  0  0  0  0  0  0  0  0
   36.9783    4.3283   12.3022 C   0  0  0  0  0  0  0  0  0  0  0  0
   37.1556    4.5640   13.6614 C   0  0  0  0  0  0  0  0  0  0  0  0
   38.1055    3.8484   14.3857 N   0  0  0  0  0  0  0  0  0  0  0  0
   38.8869    2.8755   13.7497 C   0  0  0  0  0  0  0  0  0  0  0  0
   40.7000    2.0709   11.1171 C   0  0  0  0  0  0  0  0  0  0  0  0
   41.5047    1.1495   10.4290 C   0  0  0  0  0  0  0  0  0  0  0  0
   39.8988   -0.5851   10.9432 C   0  0  0  0  0  0  0  0  0  0  0  0
   40.1044   -2.4377   13.1152 C   0  0  0  0  0  0  0  0  0  0  0  0
   39.2666   -4.5008   14.0569 C   0  0  0  0  0  0  0  0  0  0  0  0
   38.6389   -3.8643   11.8204 C   0  0  0  0  0  0  0  0  0  0  0  0
   37.8632   -4.1682   10.5305 C   0  0  0  0  0  0  0  0  0  0  0  0
   38.5700   -4.7619   12.8806 C   0  0  0  0  0  0  0  0  0  0  0  0
   40.0318   -3.3445   14.1730 C   0  0  0  0  0  0  0  0  0  0  0  0
   39.4069   -2.7024   11.9349 C   0  0  0  0  0  0  0  0  0  0  0  0
   39.4347   -1.8665   10.8632 O   0  0  0  0  0  0  0  0  0  0  0  0
   39.1014    0.3386   11.6186 C   0  0  0  0  0  0  0  0  0  0  0  0
   41.0979   -0.1785   10.3427 C   0  0  0  0  0  0  0  0  0  0  0  0
   41.9158   -1.1233    9.6450 C   0  0  0  0  0  0  0  0  0  0  0  0
   42.5674   -1.8962    9.1249 N   0  0  0  0  0  0  0  0  0  0  0  0
   41.0961    3.3542   11.2096 F   0  0  0  0  0  0  0  0  0  0  0  0
   39.5047    1.6648   11.7212 C   0  0  0  0  0  0  0  0  0  0  0  0
   37.6035    3.1487   10.4685 O   0  0  0  0  0  0  0  0  0  0  0  0
   39.7264    2.2410   14.3875 O   0  0  0  0  0  0  0  0  0  0  0  0
   36.2214    5.7887   14.5148 S   0  0  1  0  0  0  0  0  0  0  0  0
   36.9570    6.0927   15.7754 O   0  0  0  0  0  0  0  0  0  0  0  0
   36.0389    6.9221   13.5592 O   0  0  0  0  0  0  0  0  0  0  0  0
   34.7313    5.0005   14.8233 C   0  0  0  0  0  0  0  0  0  0  0  0
   33.6061    5.3390   14.0829 C   0  0  0  0  0  0  0  0  0  0  0  0
   32.4207    4.6581   14.3172 C   0  0  0  0  0  0  0  0  0  0  0  0
   32.3565    3.6448   15.2727 C   0  0  0  0  0  0  0  0  0  0  0  0
   33.4942    3.3111   15.9957 C   0  0  0  0  0  0  0  0  0  0  0  0
   34.6902    3.9819   15.7691 C   0  0  0  0  0  0  0  0  0  0  0  0
   36.2317    4.9004   11.7319 H   0  0  0  0  0  0  0  0  0  0  0  0
   38.2335    4.0348   15.3906 H   0  0  0  0  0  0  0  0  0  0  0  0
   42.4469    1.4737    9.9629 H   0  0  0  0  0  0  0  0  0  0  0  0
   40.7061   -1.5218   13.2102 H   0  0  0  0  0  0  0  0  0  0  0  0
   39.2121   -5.2098   14.8962 H   0  0  0  0  0  0  0  0  0  0  0  0
   36.8669   -4.5586   10.7852 H   0  0  0  0  0  0  0  0  0  0  0  0
   37.7559   -3.2456    9.9412 H   0  0  0  0  0  0  0  0  0  0  0  0
   38.4112   -4.9181    9.9412 H   0  0  0  0  0  0  0  0  0  0  0  0
   37.9660   -5.6767   12.7896 H   0  0  0  0  0  0  0  0  0  0  0  0
   40.5825   -3.1442   15.1039 H   0  0  0  0  0  0  0  0  0  0  0  0
   38.1517    0.0169   12.0709 H   0  0  0  0  0  0  0  0  0  0  0  0
   33.6543    6.1335   13.3236 H   0  0  0  0  0  0  0  0  0  0  0  0
   31.5204    4.9208   13.7423 H   0  0  0  0  0  0  0  0  0  0  0  0
   31.4106    3.1129   15.4527 H   0  0  0  0  0  0  0  0  0  0  0  0
   33.4486    2.5126   16.7509 H   0  0  0  0  0  0  0  0  0  0  0  0
   35.5951    3.7098   16.3322 H   0  0  0  0  0  0  0  0  0  0  0  0
  1  2  1  0
  1  6  1  0
  1 23  1  0
  2  3  1  0
  2 24  2  0
  3  4  2  0
  4  5  1  0
 26  4  1  6
  5  6  1  0
  6 25  2  0
  7  8  2  0
  7 22  1  0
  7 23  1  0
  8 19  1  0
  9 17  1  0
  9 18  1  0
  9 19  2  0
 10 15  2  0
 10 16  1  0
 11 14  2  0
 11 15  1  0
 12 13  1  0
 12 14  1  0
 12 16  2  0
 16 17  1  0
 18 23  2  0
 19 20  1  0
 20 21  3  0
 26 27  2  0
 26 28  2  0
 26 29  1  0
 29 30  2  0
 29 34  1  0
 30 31  1  0
 31 32  2  0
 32 33  1  0
 33 34  2  0
  3 35  1  0
  5 36  1  0
  8 37  1  0
 10 38  1  0
 11 39  1  0
 13 40  1  0
 13 41  1  0
 13 42  1  0
 14 43  1  0
 15 44  1  0
 18 45  1  0
 30 46  1  0
 31 47  1  0
 32 48  1  0
 33 49  1  0
 34 50  1  0
M  END
>  <filename_input>  (19) 
7NXO_UU8_docked.sdf

>  <pdb_id>  (19) 
7NXO_UU8

>  <pose_rank>  (19) 
18

>  <num_atoms_heavy>  (19) 
34

>  <num_torsions>  (19) 
6

>  <pose>  (19) 
[38.70377327455336, 2.6204563406242105, 12.389101323503702, 0.7144532641145948, -0.6704595771707708, 4.428924587550744, -0.45319684766638546, -1.053245167367674, 0.6183635917514884, -0.44101546798661473, -2.796510607027791, -0.14073201697508894]

>  <energy>  (19) 
-417.30323879883235

>  <inter_energy>  (19) 
-434.1846232961695

>  <intra_energy>  (19) 
12.951859266268734

>  <rmsd>  (19) 
7.65807

>  <sdf_rank>  (19) 
0

$$$$

     RDKit          3D

 50 53  0  0  0  0  0  0  0  0999 V2000
   35.2557   -0.5418   13.8824 N   0  0  0  0  0  0  0  0  0  0  0  0
   34.9840    0.0025   12.6227 C   0  0  0  0  0  0  0  0  0  0  0  0
   34.7542    1.3719   12.4725 C   0  0  0  0  0  0  0  0  0  0  0  0
   34.8057    2.1977   13.5904 C   0  0  0  0  0  0  0  0  0  0  0  0
   35.0917    1.6706   14.8471 N   0  0  0  0  0  0  0  0  0  0  0  0
   35.3222    0.2972   14.9966 C   0  0  0  0  0  0  0  0  0  0  0  0
   34.4904   -2.7860   14.4145 C   0  0  0  0  0  0  0  0  0  0  0  0
   34.7252   -4.1613   14.5675 C   0  0  0  0  0  0  0  0  0  0  0  0
   37.0274   -3.8059   13.9148 C   0  0  0  0  0  0  0  0  0  0  0  0
   39.9762   -2.5749   13.1709 C   0  0  0  0  0  0  0  0  0  0  0  0
   40.7989   -2.4631   10.9002 C   0  0  0  0  0  0  0  0  0  0  0  0
   39.1331   -4.0995   11.4904 C   0  0  0  0  0  0  0  0  0  0  0  0
   38.2183   -5.2605   11.0744 C   0  0  0  0  0  0  0  0  0  0  0  0
   39.9633   -3.5159   10.5392 C   0  0  0  0  0  0  0  0  0  0  0  0
   40.8041   -1.9935   12.2101 C   0  0  0  0  0  0  0  0  0  0  0  0
   39.1367   -3.6294   12.8064 C   0  0  0  0  0  0  0  0  0  0  0  0
   38.3015   -4.2405   13.6880 O   0  0  0  0  0  0  0  0  0  0  0  0
   36.7873   -2.4394   13.7724 C   0  0  0  0  0  0  0  0  0  0  0  0
   35.9978   -4.6665   14.3185 C   0  0  0  0  0  0  0  0  0  0  0  0
   36.2425   -6.0685   14.4697 C   0  0  0  0  0  0  0  0  0  0  0  0
   36.4605   -7.1739   14.6220 N   0  0  0  0  0  0  0  0  0  0  0  0
   33.2580   -2.2963   14.6461 F   0  0  0  0  0  0  0  0  0  0  0  0
   35.5168   -1.9264   14.0068 C   0  0  0  0  0  0  0  0  0  0  0  0
   34.9399   -0.7285   11.6366 O   0  0  0  0  0  0  0  0  0  0  0  0
   35.5742   -0.1715   16.1061 O   0  0  0  0  0  0  0  0  0  0  0  0
   34.5480    3.9353   13.4663 S   0  0  1  0  0  0  0  0  0  0  0  0
   35.8889    4.5586   13.2766 O   0  0  0  0  0  0  0  0  0  0  0  0
   33.5570    4.1374   12.3671 O   0  0  0  0  0  0  0  0  0  0  0  0
   33.8687    4.3402   14.9867 C   0  0  0  0  0  0  0  0  0  0  0  0
   32.5136    4.1363   15.2126 C   0  0  0  0  0  0  0  0  0  0  0  0
   31.9921    4.4286   16.4642 C   0  0  0  0  0  0  0  0  0  0  0  0
   32.8115    4.9110   17.4840 C   0  0  0  0  0  0  0  0  0  0  0  0
   34.1666    5.0977   17.2442 C   0  0  0  0  0  0  0  0  0  0  0  0
   34.7041    4.8055   15.9963 C   0  0  0  0  0  0  0  0  0  0  0  0
   34.5347    1.7929   11.4803 H   0  0  0  0  0  0  0  0  0  0  0  0
   35.1337    2.2915   15.6678 H   0  0  0  0  0  0  0  0  0  0  0  0
   33.9121   -4.8325   14.8810 H   0  0  0  0  0  0  0  0  0  0  0  0
   39.9847   -2.2055   14.2070 H   0  0  0  0  0  0  0  0  0  0  0  0
   41.4564   -2.0014   10.1488 H   0  0  0  0  0  0  0  0  0  0  0  0
   37.8260   -5.7585   11.9734 H   0  0  0  0  0  0  0  0  0  0  0  0
   37.3814   -4.8716   10.4759 H   0  0  0  0  0  0  0  0  0  0  0  0
   38.7923   -5.9833   10.4759 H   0  0  0  0  0  0  0  0  0  0  0  0
   39.9594   -3.8858    9.5033 H   0  0  0  0  0  0  0  0  0  0  0  0
   41.4645   -1.1594   12.4895 H   0  0  0  0  0  0  0  0  0  0  0  0
   37.6048   -1.7665   13.4742 H   0  0  0  0  0  0  0  0  0  0  0  0
   31.8651    3.7498   14.4127 H   0  0  0  0  0  0  0  0  0  0  0  0
   30.9192    4.2779   16.6546 H   0  0  0  0  0  0  0  0  0  0  0  0
   32.3873    5.1423   18.4721 H   0  0  0  0  0  0  0  0  0  0  0  0
   34.8172    5.4784   18.0453 H   0  0  0  0  0  0  0  0  0  0  0  0
   35.7796    4.9409   15.8091 H   0  0  0  0  0  0  0  0  0  0  0  0
  1  2  1  0
  1  6  1  0
  1 23  1  0
  2  3  1  0
  2 24  2  0
  3  4  2  0
  4  5  1  0
 26  4  1  1
  5  6  1  0
  6 25  2  0
  7  8  2  0
  7 22  1  0
  7 23  1  0
  8 19  1  0
  9 17  1  0
  9 18  1  0
  9 19  2  0
 10 15  2  0
 10 16  1  0
 11 14  2  0
 11 15  1  0
 12 13  1  0
 12 14  1  0
 12 16  2  0
 16 17  1  0
 18 23  2  0
 19 20  1  0
 20 21  3  0
 26 27  2  0
 26 28  2  0
 26 29  1  0
 29 30  2  0
 29 34  1  0
 30 31  1  0
 31 32  2  0
 32 33  1  0
 33 34  2  0
  3 35  1  0
  5 36  1  0
  8 37  1  0
 10 38  1  0
 11 39  1  0
 13 40  1  0
 13 41  1  0
 13 42  1  0
 14 43  1  0
 15 44  1  0
 18 45  1  0
 30 46  1  0
 31 47  1  0
 32 48  1  0
 33 49  1  0
 34 50  1  0
M  END
>  <filename_input>  (20) 
7NXO_UU8_docked.sdf

>  <pdb_id>  (20) 
7NXO_UU8

>  <pose_rank>  (20) 
19

>  <num_atoms_heavy>  (20) 
34

>  <num_torsions>  (20) 
6

>  <pose>  (20) 
[35.25574339456959, -0.5418166183758925, 13.88242315338947, 0.5366249650833217, 0.6284278230945594, 3.867290276438579, -3.6929638801154656, 1.1423030912359096, 1.3418542841019396, 1.3623537091786004, -1.5867651529141313, 0.28254276929342653]

>  <energy>  (20) 
-453.19559571520483

>  <inter_energy>  (20) 
-482.3292791125818

>  <intra_energy>  (20) 
24.564093676576224

>  <rmsd>  (20) 
8.88305

>  <sdf_rank>  (20) 
0

$$$$

     RDKit          3D

 50 53  0  0  0  0  0  0  0  0999 V2000
   34.9422    1.4394   14.2095 N   0  0  0  0  0  0  0  0  0  0  0  0
   35.1232    0.6143   15.3246 C   0  0  0  0  0  0  0  0  0  0  0  0
   35.2009   -0.7726   15.1798 C   0  0  0  0  0  0  0  0  0  0  0  0
   35.1046   -1.3312   13.9098 C   0  0  0  0  0  0  0  0  0  0  0  0
   34.9411   -0.5196   12.7902 N   0  0  0  0  0  0  0  0  0  0  0  0
   34.8635    0.8711   12.9365 C   0  0  0  0  0  0  0  0  0  0  0  0
   35.9392    3.6291   13.8680 C   0  0  0  0  0  0  0  0  0  0  0  0
   35.9336    5.0225   14.0363 C   0  0  0  0  0  0  0  0  0  0  0  0
   33.8422    4.8346   15.2375 C   0  0  0  0  0  0  0  0  0  0  0  0
   33.4825    4.6104   18.1433 C   0  0  0  0  0  0  0  0  0  0  0  0
   32.8584    5.9627   20.0478 C   0  0  0  0  0  0  0  0  0  0  0  0
   32.2203    6.6519   17.8299 C   0  0  0  0  0  0  0  0  0  0  0  0
   31.5192    7.6650   16.9134 C   0  0  0  0  0  0  0  0  0  0  0  0
   32.2266    6.8710   19.2034 C   0  0  0  0  0  0  0  0  0  0  0  0
   33.4822    4.8364   19.5200 C   0  0  0  0  0  0  0  0  0  0  0  0
   32.8461    5.5214   17.2978 C   0  0  0  0  0  0  0  0  0  0  0  0
   32.8034    5.3634   15.9483 O   0  0  0  0  0  0  0  0  0  0  0  0
   33.8594    3.4498   15.0724 C   0  0  0  0  0  0  0  0  0  0  0  0
   34.8827    5.6209   14.7248 C   0  0  0  0  0  0  0  0  0  0  0  0
   34.8698    7.0417   14.8968 C   0  0  0  0  0  0  0  0  0  0  0  0
   34.8283    8.1724   15.0073 N   0  0  0  0  0  0  0  0  0  0  0  0
   36.9502    3.0490   13.1945 F   0  0  0  0  0  0  0  0  0  0  0  0
   34.8981    2.8435   14.3756 C   0  0  0  0  0  0  0  0  0  0  0  0
   35.2089    1.1098   16.4453 O   0  0  0  0  0  0  0  0  0  0  0  0
   34.7181    1.5908   11.9489 O   0  0  0  0  0  0  0  0  0  0  0  0
   35.2175   -3.0701   13.6559 S   0  0  1  0  0  0  0  0  0  0  0  0
   34.4629   -3.7188   14.7659 O   0  0  0  0  0  0  0  0  0  0  0  0
   34.7199   -3.3275   12.2713 O   0  0  0  0  0  0  0  0  0  0  0  0
   36.9003   -3.3742   13.7693 C   0  0  0  0  0  0  0  0  0  0  0  0
   37.7526   -2.9138   12.7740 C   0  0  0  0  0  0  0  0  0  0  0  0
   39.1160   -3.1313   12.9067 C   0  0  0  0  0  0  0  0  0  0  0  0
   39.6280   -3.7929   14.0222 C   0  0  0  0  0  0  0  0  0  0  0  0
   38.7625   -4.2360   15.0136 C   0  0  0  0  0  0  0  0  0  0  0  0
   37.3943   -4.0218   14.8963 C   0  0  0  0  0  0  0  0  0  0  0  0
   35.3369   -1.4165   16.0612 H   0  0  0  0  0  0  0  0  0  0  0  0
   34.8772   -0.9426   11.8533 H   0  0  0  0  0  0  0  0  0  0  0  0
   36.7511    5.6350   13.6283 H   0  0  0  0  0  0  0  0  0  0  0  0
   33.9799    3.7219   17.7273 H   0  0  0  0  0  0  0  0  0  0  0  0
   32.8646    6.1356   21.1341 H   0  0  0  0  0  0  0  0  0  0  0  0
   30.9995    8.4159   17.5266 H   0  0  0  0  0  0  0  0  0  0  0  0
   32.2664    8.1636   16.2785 H   0  0  0  0  0  0  0  0  0  0  0  0
   30.7893    7.1413   16.2785 H   0  0  0  0  0  0  0  0  0  0  0  0
   31.7331    7.7607   19.6216 H   0  0  0  0  0  0  0  0  0  0  0  0
   33.9778    4.1203   20.1920 H   0  0  0  0  0  0  0  0  0  0  0  0
   33.0496    2.8365   15.4943 H   0  0  0  0  0  0  0  0  0  0  0  0
   37.3532   -2.3858   11.8956 H   0  0  0  0  0  0  0  0  0  0  0  0
   39.8016   -2.7776   12.1225 H   0  0  0  0  0  0  0  0  0  0  0  0
   40.7108   -3.9627   14.1163 H   0  0  0  0  0  0  0  0  0  0  0  0
   39.1614   -4.7588   15.8954 H   0  0  0  0  0  0  0  0  0  0  0  0
   36.7090   -4.3611   15.6870 H   0  0  0  0  0  0  0  0  0  0  0  0
  1  2  1  0
  1  6  1  0
  1 23  1  0
  2  3  1  0
  2 24  2  0
  3  4  2  0
  4  5  1  0
 26  4  1  1
  5  6  1  0
  6 25  2  0
  7  8  2  0
  7 22  1  0
  7 23  1  0
  8 19  1  0
  9 17  1  0
  9 18  1  0
  9 19  2  0
 10 15  2  0
 10 16  1  0
 11 14  2  0
 11 15  1  0
 12 13  1  0
 12 14  1  0
 12 16  2  0
 16 17  1  0
 18 23  2  0
 19 20  1  0
 20 21  3  0
 26 27  2  0
 26 28  2  0
 26 29  1  0
 29 30  2  0
 29 34  1  0
 30 31  1  0
 31 32  2  0
 32 33  1  0
 33 34  2  0
  3 35  1  0
  5 36  1  0
  8 37  1  0
 10 38  1  0
 11 39  1  0
 13 40  1  0
 13 41  1  0
 13 42  1  0
 14 43  1  0
 15 44  1  0
 18 45  1  0
 30 46  1  0
 31 47  1  0
 32 48  1  0
 33 49  1  0
 34 50  1  0
M  END
>  <filename_input>  (21) 
7NXO_UU8_docked.sdf

>  <pdb_id>  (21) 
7NXO_UU8

>  <pose_rank>  (21) 
20

>  <num_atoms_heavy>  (21) 
34

>  <num_torsions>  (21) 
6

>  <pose>  (21) 
[34.94220711914366, 1.4394434121196575, 14.209531468107137, -0.8865378599755835, -2.967723794308815, 0.24263542205415267, -0.018932481365795662, -1.2759014191603752, 3.4298145654698464, -0.817752583286837, 0.7206932801846209, 0.49226238746986667]

>  <energy>  (21) 
-405.8768783993726

>  <inter_energy>  (21) 
-448.46160801367995

>  <intra_energy>  (21) 
35.10941290945902

>  <rmsd>  (21) 
10.55

>  <sdf_rank>  (21) 
0

$$$$

     RDKit          3D

 50 53  0  0  0  0  0  0  0  0999 V2000
   42.7122   -1.0672    7.0156 N   0  0  0  0  0  0  0  0  0  0  0  0
   43.5544   -2.0361    6.4599 C   0  0  0  0  0  0  0  0  0  0  0  0
   43.8525   -2.0235    5.0956 C   0  0  0  0  0  0  0  0  0  0  0  0
   43.3090   -1.0295    4.2889 C   0  0  0  0  0  0  0  0  0  0  0  0
   42.4826   -0.0496    4.8330 N   0  0  0  0  0  0  0  0  0  0  0  0
   42.1845   -0.0630    6.2014 C   0  0  0  0  0  0  0  0  0  0  0  0
   41.3314   -1.7704    8.8875 C   0  0  0  0  0  0  0  0  0  0  0  0
   41.0329   -1.7830   10.2590 C   0  0  0  0  0  0  0  0  0  0  0  0
   42.9738   -0.3955   10.6591 C   0  0  0  0  0  0  0  0  0  0  0  0
   45.5837    0.7976    9.9133 C   0  0  0  0  0  0  0  0  0  0  0  0
   47.8432    0.8811   10.7695 C   0  0  0  0  0  0  0  0  0  0  0  0
   46.0126    0.4208   12.2656 C   0  0  0  0  0  0  0  0  0  0  0  0
   45.5134    0.1152   13.6852 C   0  0  0  0  0  0  0  0  0  0  0  0
   47.3746    0.6027   12.0501 C   0  0  0  0  0  0  0  0  0  0  0  0
   46.9517    0.9764    9.7054 C   0  0  0  0  0  0  0  0  0  0  0  0
   45.1156    0.5160   11.1983 C   0  0  0  0  0  0  0  0  0  0  0  0
   43.7979    0.3263   11.4737 O   0  0  0  0  0  0  0  0  0  0  0  0
   43.2589   -0.3819    9.2939 C   0  0  0  0  0  0  0  0  0  0  0  0
   41.8570   -1.0910   11.1414 C   0  0  0  0  0  0  0  0  0  0  0  0
   41.5596   -1.1028   12.5413 C   0  0  0  0  0  0  0  0  0  0  0  0
   41.3633   -1.1148   13.6611 N   0  0  0  0  0  0  0  0  0  0  0  0
   40.5408   -2.4465    8.0331 F   0  0  0  0  0  0  0  0  0  0  0  0
   42.4492   -1.0800    8.4054 C   0  0  0  0  0  0  0  0  0  0  0  0
   44.0342   -2.9126    7.1744 O   0  0  0  0  0  0  0  0  0  0  0  0
   41.4538    0.8011    6.6848 O   0  0  0  0  0  0  0  0  0  0  0  0
   43.6629   -0.9434    2.5660 S   0  0  1  0  0  0  0  0  0  0  0  0
   43.7281   -2.3469    2.0676 O   0  0  0  0  0  0  0  0  0  0  0  0
   42.6126   -0.0694    1.9626 O   0  0  0  0  0  0  0  0  0  0  0  0
   45.1970   -0.1808    2.5188 C   0  0  0  0  0  0  0  0  0  0  0  0
   46.1648   -0.6334    1.6314 C   0  0  0  0  0  0  0  0  0  0  0  0
   47.3840    0.0256    1.5772 C   0  0  0  0  0  0  0  0  0  0  0  0
   47.6358    1.1291    2.3914 C   0  0  0  0  0  0  0  0  0  0  0  0
   46.6524    1.5755    3.2645 C   0  0  0  0  0  0  0  0  0  0  0  0
   45.4244    0.9276    3.3270 C   0  0  0  0  0  0  0  0  0  0  0  0
   44.5104   -2.7919    4.6634 H   0  0  0  0  0  0  0  0  0  0  0  0
   42.0901    0.6860    4.2282 H   0  0  0  0  0  0  0  0  0  0  0  0
   40.1570   -2.3339   10.6322 H   0  0  0  0  0  0  0  0  0  0  0  0
   44.8798    0.8778    9.0718 H   0  0  0  0  0  0  0  0  0  0  0  0
   48.9201    1.0259   10.5983 H   0  0  0  0  0  0  0  0  0  0  0  0
   46.2120    0.5428   14.4195 H   0  0  0  0  0  0  0  0  0  0  0  0
   44.5164    0.5580   13.8265 H   0  0  0  0  0  0  0  0  0  0  0  0
   45.4543   -0.9741   13.8265 H   0  0  0  0  0  0  0  0  0  0  0  0
   48.0803    0.5268   12.8905 H   0  0  0  0  0  0  0  0  0  0  0  0
   47.3275    1.1939    8.6948 H   0  0  0  0  0  0  0  0  0  0  0  0
   44.1259    0.1821    8.9196 H   0  0  0  0  0  0  0  0  0  0  0  0
   45.9677   -1.4997    0.9827 H   0  0  0  0  0  0  0  0  0  0  0  0
   48.1617   -0.3266    0.8834 H   0  0  0  0  0  0  0  0  0  0  0  0
   48.6072    1.6428    2.3425 H   0  0  0  0  0  0  0  0  0  0  0  0
   46.8462    2.4454    3.9092 H   0  0  0  0  0  0  0  0  0  0  0  0
   44.6402    1.2881    4.0090 H   0  0  0  0  0  0  0  0  0  0  0  0
  1  2  1  0
  1  6  1  0
  1 23  1  0
  2  3  1  0
  2 24  2  0
  3  4  2  0
  4  5  1  0
 26  4  1  1
  5  6  1  0
  6 25  2  0
  7  8  2  0
  7 22  1  0
  7 23  1  0
  8 19  1  0
  9 17  1  0
  9 18  1  0
  9 19  2  0
 10 15  2  0
 10 16  1  0
 11 14  2  0
 11 15  1  0
 12 13  1  0
 12 14  1  0
 12 16  2  0
 16 17  1  0
 18 23  2  0
 19 20  1  0
 20 21  3  0
 26 27  2  0
 26 28  2  0
 26 29  1  0
 29 30  2  0
 29 34  1  0
 30 31  1  0
 31 32  2  0
 32 33  1  0
 33 34  2  0
  3 35  1  0
  5 36  1  0
  8 37  1  0
 10 38  1  0
 11 39  1  0
 13 40  1  0
 13 41  1  0
 13 42  1  0
 14 43  1  0
 15 44  1  0
 18 45  1  0
 30 46  1  0
 31 47  1  0
 32 48  1  0
 33 49  1  0
 34 50  1  0
M  END
>  <filename_input>  (22) 
7NXO_UU8_docked.sdf

>  <pdb_id>  (22) 
7NXO_UU8

>  <pose_rank>  (22) 
21

>  <num_atoms_heavy>  (22) 
34

>  <num_torsions>  (22) 
6

>  <pose>  (22) 
[42.712150224707436, -1.0671665195784636, 7.015649562110385, 0.0969916505297532, -2.197707720147449, -1.3517129839069137, 2.7002301591969484, -0.7283685757054252, -4.949416428545771, 0.5364647158160989, 0.6699582569911652, 4.1248273243753175]

>  <energy>  (22) 
-452.80956036900074

>  <inter_energy>  (22) 
-492.2443768300757

>  <intra_energy>  (22) 
44.864416195215384

>  <rmsd>  (22) 
8.78167

>  <sdf_rank>  (22) 
0

$$$$

     RDKit          3D

 50 53  0  0  0  0  0  0  0  0999 V2000
   45.8042    1.3776    9.8555 N   0  0  0  0  0  0  0  0  0  0  0  0
   45.7966    2.5901    9.1578 C   0  0  0  0  0  0  0  0  0  0  0  0
   46.9921    3.2462    8.8561 C   0  0  0  0  0  0  0  0  0  0  0  0
   48.1989    2.6779    9.2496 C   0  0  0  0  0  0  0  0  0  0  0  0
   48.2207    1.4632    9.9299 N   0  0  0  0  0  0  0  0  0  0  0  0
   47.0213    0.8059   10.2318 C   0  0  0  0  0  0  0  0  0  0  0  0
   43.9416    0.9228   11.3484 C   0  0  0  0  0  0  0  0  0  0  0  0
   42.7406    0.2620   11.6503 C   0  0  0  0  0  0  0  0  0  0  0  0
   42.8385   -0.8287    9.4932 C   0  0  0  0  0  0  0  0  0  0  0  0
   44.0232   -2.6535    7.0758 C   0  0  0  0  0  0  0  0  0  0  0  0
   43.9799   -1.9902    4.7513 C   0  0  0  0  0  0  0  0  0  0  0  0
   42.3570   -1.0863    6.2843 C   0  0  0  0  0  0  0  0  0  0  0  0
   41.1478   -0.1750    6.5401 C   0  0  0  0  0  0  0  0  0  0  0  0
   42.8846   -1.1684    4.9999 C   0  0  0  0  0  0  0  0  0  0  0  0
   44.5478   -2.7283    5.7852 C   0  0  0  0  0  0  0  0  0  0  0  0
   42.9258   -1.8266    7.3240 C   0  0  0  0  0  0  0  0  0  0  0  0
   42.3654   -1.7017    8.5563 O   0  0  0  0  0  0  0  0  0  0  0  0
   44.0355   -0.1738    9.2044 C   0  0  0  0  0  0  0  0  0  0  0  0
   42.1938   -0.6157   10.7190 C   0  0  0  0  0  0  0  0  0  0  0  0
   40.9677   -1.2899   11.0198 C   0  0  0  0  0  0  0  0  0  0  0  0
   39.9811   -1.7921   11.2784 N   0  0  0  0  0  0  0  0  0  0  0  0
   44.4677    1.7792   12.2440 F   0  0  0  0  0  0  0  0  0  0  0  0
   44.5837    0.7143   10.1225 C   0  0  0  0  0  0  0  0  0  0  0  0
   44.7297    3.0898    8.8104 O   0  0  0  0  0  0  0  0  0  0  0  0
   47.0374   -0.2673   10.8337 O   0  0  0  0  0  0  0  0  0  0  0  0
   49.7420    3.4421    8.8808 S   0  0  1  0  0  0  0  0  0  0  0  0
   49.4333    4.7444    8.2243 O   0  0  0  0  0  0  0  0  0  0  0  0
   50.4990    3.5063   10.1669 O   0  0  0  0  0  0  0  0  0  0  0  0
   50.4747    2.3399    7.7922 C   0  0  0  0  0  0  0  0  0  0  0  0
   51.7764    1.9110    8.0173 C   0  0  0  0  0  0  0  0  0  0  0  0
   52.3356    0.9846    7.1496 C   0  0  0  0  0  0  0  0  0  0  0  0
   51.6050    0.4832    6.0731 C   0  0  0  0  0  0  0  0  0  0  0  0
   50.3006    0.9140    5.8698 C   0  0  0  0  0  0  0  0  0  0  0  0
   49.7256    1.8389    6.7333 C   0  0  0  0  0  0  0  0  0  0  0  0
   46.9792    4.2026    8.3128 H   0  0  0  0  0  0  0  0  0  0  0  0
   49.1200    1.0475   10.2116 H   0  0  0  0  0  0  0  0  0  0  0  0
   42.2370    0.4361   12.6126 H   0  0  0  0  0  0  0  0  0  0  0  0
   44.4705   -3.2411    7.8911 H   0  0  0  0  0  0  0  0  0  0  0  0
   44.3974   -2.0564    3.7357 H   0  0  0  0  0  0  0  0  0  0  0  0
   40.9971   -0.0614    7.6238 H   0  0  0  0  0  0  0  0  0  0  0  0
   41.3306    0.8118    6.0899 H   0  0  0  0  0  0  0  0  0  0  0  0
   40.2495   -0.6227    6.0899 H   0  0  0  0  0  0  0  0  0  0  0  0
   42.4369   -0.5847    4.1821 H   0  0  0  0  0  0  0  0  0  0  0  0
   45.4151   -3.3743    5.5838 H   0  0  0  0  0  0  0  0  0  0  0  0
   44.5467   -0.3604    8.2484 H   0  0  0  0  0  0  0  0  0  0  0  0
   52.3539    2.2993    8.8692 H   0  0  0  0  0  0  0  0  0  0  0  0
   53.3679    0.6414    7.3127 H   0  0  0  0  0  0  0  0  0  0  0  0
   52.0590   -0.2491    5.3893 H   0  0  0  0  0  0  0  0  0  0  0  0
   49.7201    0.5217    5.0218 H   0  0  0  0  0  0  0  0  0  0  0  0
   48.6882    2.1713    6.5805 H   0  0  0  0  0  0  0  0  0  0  0  0
  1  2  1  0
  1  6  1  0
  1 23  1  0
  2  3  1  0
  2 24  2  0
  3  4  2  0
  4  5  1  0
 26  4  1  1
  5  6  1  0
  6 25  2  0
  7  8  2  0
  7 22  1  0
  7 23  1  0
  8 19  1  0
  9 17  1  0
  9 18  1  0
  9 19  2  0
 10 15  2  0
 10 16  1  0
 11 14  2  0
 11 15  1  0
 12 13  1  0
 12 14  1  0
 12 16  2  0
 16 17  1  0
 18 23  2  0
 19 20  1  0
 20 21  3  0
 26 27  2  0
 26 28  2  0
 26 29  1  0
 29 30  2  0
 29 34  1  0
 30 31  1  0
 31 32  2  0
 32 33  1  0
 33 34  2  0
  3 35  1  0
  5 36  1  0
  8 37  1  0
 10 38  1  0
 11 39  1  0
 13 40  1  0
 13 41  1  0
 13 42  1  0
 14 43  1  0
 15 44  1  0
 18 45  1  0
 30 46  1  0
 31 47  1  0
 32 48  1  0
 33 49  1  0
 34 50  1  0
M  END
>  <filename_input>  (23) 
7NXO_UU8_docked.sdf

>  <pdb_id>  (23) 
7NXO_UU8

>  <pose_rank>  (23) 
22

>  <num_atoms_heavy>  (23) 
34

>  <num_torsions>  (23) 
6

>  <pose>  (23) 
[45.804179108817735, 1.3775576308621518, 9.855465173447397, 1.396158159301819, -0.784247659644654, 2.3070109325144053, 2.6615448537296955, -2.5724840441015244, 1.7396468561057927, 1.2931763305428032, 0.09080708901654247, -0.5611548197026803]

>  <energy>  (23) 
-490.85413299238456

>  <inter_energy>  (23) 
-504.3152608246912

>  <intra_energy>  (23) 
20.91250033412091

>  <rmsd>  (23) 
10.1714

>  <sdf_rank>  (23) 
0

$$$$

     RDKit          3D

 50 53  0  0  0  0  0  0  0  0999 V2000
   45.2742    1.7016    9.1986 N   0  0  0  0  0  0  0  0  0  0  0  0
   46.5416    1.1136    9.1272 C   0  0  0  0  0  0  0  0  0  0  0  0
   47.6681    1.8826    8.8270 C   0  0  0  0  0  0  0  0  0  0  0  0
   47.5215    3.2478    8.6059 C   0  0  0  0  0  0  0  0  0  0  0  0
   46.2679    3.8479    8.6905 N   0  0  0  0  0  0  0  0  0  0  0  0
   45.1388    3.0759    8.9919 C   0  0  0  0  0  0  0  0  0  0  0  0
   43.8264    0.7154   10.8828 C   0  0  0  0  0  0  0  0  0  0  0  0
   42.7311   -0.0827   11.2481 C   0  0  0  0  0  0  0  0  0  0  0  0
   42.2985   -0.5014    8.9051 C   0  0  0  0  0  0  0  0  0  0  0  0
   42.9466   -2.8057    6.8207 C   0  0  0  0  0  0  0  0  0  0  0  0
   43.4348   -2.5521    4.4664 C   0  0  0  0  0  0  0  0  0  0  0  0
   42.1043   -0.8938    5.5983 C   0  0  0  0  0  0  0  0  0  0  0  0
   41.3086    0.4186    5.5483 C   0  0  0  0  0  0  0  0  0  0  0  0
   42.7106   -1.3639    4.4381 C   0  0  0  0  0  0  0  0  0  0  0  0
   43.5536   -3.2690    5.6531 C   0  0  0  0  0  0  0  0  0  0  0  0
   42.2225   -1.6122    6.7911 C   0  0  0  0  0  0  0  0  0  0  0  0
   41.6084   -1.0993    7.8902 O   0  0  0  0  0  0  0  0  0  0  0  0
   43.3931    0.2871    8.5510 C   0  0  0  0  0  0  0  0  0  0  0  0
   41.9709   -0.6917   10.2542 C   0  0  0  0  0  0  0  0  0  0  0  0
   40.8509   -1.5040   10.6205 C   0  0  0  0  0  0  0  0  0  0  0  0
   39.9635   -2.1341   10.9492 N   0  0  0  0  0  0  0  0  0  0  0  0
   44.5578    1.3127   11.8422 F   0  0  0  0  0  0  0  0  0  0  0  0
   44.1515    0.9098    9.5355 C   0  0  0  0  0  0  0  0  0  0  0  0
   46.6689   -0.0922    9.3238 O   0  0  0  0  0  0  0  0  0  0  0  0
   44.0295    3.6033    9.0664 O   0  0  0  0  0  0  0  0  0  0  0  0
   48.9038    4.2776    8.2457 S   0  0  1  0  0  0  0  0  0  0  0  0
   48.5772    5.6365    8.7644 O   0  0  0  0  0  0  0  0  0  0  0  0
   50.0974    3.6054    8.8413 O   0  0  0  0  0  0  0  0  0  0  0  0
   48.9761    4.2517    6.5336 C   0  0  0  0  0  0  0  0  0  0  0  0
   48.5394    5.3528    5.8085 C   0  0  0  0  0  0  0  0  0  0  0  0
   48.6478    5.3298    4.4259 C   0  0  0  0  0  0  0  0  0  0  0  0
   49.1927    4.2261    3.7710 C   0  0  0  0  0  0  0  0  0  0  0  0
   49.6353    3.1385    4.5124 C   0  0  0  0  0  0  0  0  0  0  0  0
   49.5368    3.1489    5.8987 C   0  0  0  0  0  0  0  0  0  0  0  0
   48.6611    1.4133    8.7660 H   0  0  0  0  0  0  0  0  0  0  0  0
   46.1707    4.8609    8.5312 H   0  0  0  0  0  0  0  0  0  0  0  0
   42.4764   -0.2253   12.3087 H   0  0  0  0  0  0  0  0  0  0  0  0
   43.0377   -3.3760    7.7569 H   0  0  0  0  0  0  0  0  0  0  0  0
   43.9140   -2.9250    3.5492 H   0  0  0  0  0  0  0  0  0  0  0  0
   41.1011    0.7608    6.5729 H   0  0  0  0  0  0  0  0  0  0  0  0
   41.8954    1.1831    5.0181 H   0  0  0  0  0  0  0  0  0  0  0  0
   40.3594    0.2518    5.0181 H   0  0  0  0  0  0  0  0  0  0  0  0
   42.6180   -0.7974    3.4997 H   0  0  0  0  0  0  0  0  0  0  0  0
   44.1293   -4.2061    5.6706 H   0  0  0  0  0  0  0  0  0  0  0  0
   43.6566    0.4164    7.4909 H   0  0  0  0  0  0  0  0  0  0  0  0
   48.1149    6.2282    6.3219 H   0  0  0  0  0  0  0  0  0  0  0  0
   48.2996    6.1927    3.8391 H   0  0  0  0  0  0  0  0  0  0  0  0
   49.2714    4.2169    2.6738 H   0  0  0  0  0  0  0  0  0  0  0  0
   50.0656    2.2652    4.0004 H   0  0  0  0  0  0  0  0  0  0  0  0
   49.8987    2.2934    6.4878 H   0  0  0  0  0  0  0  0  0  0  0  0
  1  2  1  0
  1  6  1  0
  1 23  1  0
  2  3  1  0
  2 24  2  0
  3  4  2  0
  4  5  1  0
 26  4  1  6
  5  6  1  0
  6 25  2  0
  7  8  2  0
  7 22  1  0
  7 23  1  0
  8 19  1  0
  9 17  1  0
  9 18  1  0
  9 19  2  0
 10 15  2  0
 10 16  1  0
 11 14  2  0
 11 15  1  0
 12 13  1  0
 12 14  1  0
 12 16  2  0
 16 17  1  0
 18 23  2  0
 19 20  1  0
 20 21  3  0
 26 27  2  0
 26 28  2  0
 26 29  1  0
 29 30  2  0
 29 34  1  0
 30 31  1  0
 31 32  2  0
 32 33  1  0
 33 34  2  0
  3 35  1  0
  5 36  1  0
  8 37  1  0
 10 38  1  0
 11 39  1  0
 13 40  1  0
 13 41  1  0
 13 42  1  0
 14 43  1  0
 15 44  1  0
 18 45  1  0
 30 46  1  0
 31 47  1  0
 32 48  1  0
 33 49  1  0
 34 50  1  0
M  END
>  <filename_input>  (24) 
7NXO_UU8_docked.sdf

>  <pdb_id>  (24) 
7NXO_UU8

>  <pose_rank>  (24) 
23

>  <num_atoms_heavy>  (24) 
34

>  <num_torsions>  (24) 
6

>  <pose>  (24) 
[45.274205998666, 1.7015729229095136, 9.198644831350391, -1.1270710484174957, 1.8516010708538297, 1.942874596687086, -0.454745795218732, -2.9605285751033596, 2.5385599547162756, 1.1039242238456564, -2.61199740671763, -2.758603143988892]

>  <energy>  (24) 
-431.13166093505197

>  <inter_energy>  (24) 
-444.52481785121824

>  <intra_energy>  (24) 
12.96590268262965

>  <rmsd>  (24) 
10.3448

>  <sdf_rank>  (24) 
0

$$$$

     RDKit          3D

 50 53  0  0  0  0  0  0  0  0999 V2000
   43.4644    3.1105    7.4791 N   0  0  0  0  0  0  0  0  0  0  0  0
   43.1579    2.7229    6.1703 C   0  0  0  0  0  0  0  0  0  0  0  0
   43.4608    3.5559    5.0909 C   0  0  0  0  0  0  0  0  0  0  0  0
   44.0808    4.7782    5.3270 C   0  0  0  0  0  0  0  0  0  0  0  0
   44.4061    5.1680    6.6236 N   0  0  0  0  0  0  0  0  0  0  0  0
   44.1021    4.3319    7.7053 C   0  0  0  0  0  0  0  0  0  0  0  0
   41.8987    2.2432    9.1227 C   0  0  0  0  0  0  0  0  0  0  0  0
   41.5911    1.4036   10.2046 C   0  0  0  0  0  0  0  0  0  0  0  0
   43.8591    0.5635   10.1532 C   0  0  0  0  0  0  0  0  0  0  0  0
   46.9523   -0.0283    9.4159 C   0  0  0  0  0  0  0  0  0  0  0  0
   48.8434    0.9689   10.5448 C   0  0  0  0  0  0  0  0  0  0  0  0
   46.7386    0.7557   11.6960 C   0  0  0  0  0  0  0  0  0  0  0  0
   45.8999    0.9734   12.9637 C   0  0  0  0  0  0  0  0  0  0  0  0
   48.0699    1.1585   11.6861 C   0  0  0  0  0  0  0  0  0  0  0  0
   48.2874    0.3765    9.4151 C   0  0  0  0  0  0  0  0  0  0  0  0
   46.1783    0.1604   10.5627 C   0  0  0  0  0  0  0  0  0  0  0  0
   44.8731   -0.2126   10.6363 O   0  0  0  0  0  0  0  0  0  0  0  0
   44.1585    1.4064    9.0831 C   0  0  0  0  0  0  0  0  0  0  0  0
   42.5768    0.5664   10.7185 C   0  0  0  0  0  0  0  0  0  0  0  0
   42.2682   -0.2942   11.8195 C   0  0  0  0  0  0  0  0  0  0  0  0
   41.9881   -0.9879   12.6757 N   0  0  0  0  0  0  0  0  0  0  0  0
   40.9442    3.0473    8.6182 F   0  0  0  0  0  0  0  0  0  0  0  0
   43.1777    2.2375    8.5545 C   0  0  0  0  0  0  0  0  0  0  0  0
   42.6111    1.6425    5.9640 O   0  0  0  0  0  0  0  0  0  0  0  0
   44.3877    4.6742    8.8523 O   0  0  0  0  0  0  0  0  0  0  0  0
   44.5100    5.8645    4.0092 S   0  0  1  0  0  0  0  0  0  0  0  0
   45.1541    7.0590    4.6262 O   0  0  0  0  0  0  0  0  0  0  0  0
   45.3482    5.0691    3.0626 O   0  0  0  0  0  0  0  0  0  0  0  0
   42.9938    6.2506    3.3100 C   0  0  0  0  0  0  0  0  0  0  0  0
   41.9252    6.5947    4.1277 C   0  0  0  0  0  0  0  0  0  0  0  0
   40.7191    6.9472    3.5404 C   0  0  0  0  0  0  0  0  0  0  0  0
   40.5791    6.9654    2.1532 C   0  0  0  0  0  0  0  0  0  0  0  0
   41.6614    6.6300    1.3504 C   0  0  0  0  0  0  0  0  0  0  0  0
   42.8774    6.2786    1.9246 C   0  0  0  0  0  0  0  0  0  0  0  0
   43.2115    3.2483    4.0647 H   0  0  0  0  0  0  0  0  0  0  0  0
   44.8709    6.0725    6.7873 H   0  0  0  0  0  0  0  0  0  0  0  0
   40.5817    1.4074   10.6417 H   0  0  0  0  0  0  0  0  0  0  0  0
   46.5130   -0.4924    8.5206 H   0  0  0  0  0  0  0  0  0  0  0  0
   49.8961    1.2879   10.5357 H   0  0  0  0  0  0  0  0  0  0  0  0
   46.5284    0.8102   13.8517 H   0  0  0  0  0  0  0  0  0  0  0  0
   45.5110    2.0024   12.9739 H   0  0  0  0  0  0  0  0  0  0  0  0
   45.0596    0.2637   12.9739 H   0  0  0  0  0  0  0  0  0  0  0  0
   48.5105    1.6263   12.5789 H   0  0  0  0  0  0  0  0  0  0  0  0
   48.9039    0.2265    8.5166 H   0  0  0  0  0  0  0  0  0  0  0  0
   45.1724    1.4134    8.6568 H   0  0  0  0  0  0  0  0  0  0  0  0
   42.0334    6.5877    5.2223 H   0  0  0  0  0  0  0  0  0  0  0  0
   39.8628    7.2155    4.1766 H   0  0  0  0  0  0  0  0  0  0  0  0
   39.6173    7.2438    1.6977 H   0  0  0  0  0  0  0  0  0  0  0  0
   41.5560    6.6426    0.2556 H   0  0  0  0  0  0  0  0  0  0  0  0
   43.7390    6.0251    1.2895 H   0  0  0  0  0  0  0  0  0  0  0  0
  1  2  1  0
  1  6  1  0
  1 23  1  0
  2  3  1  0
  2 24  2  0
  3  4  2  0
  4  5  1  0
 26  4  1  1
  5  6  1  0
  6 25  2  0
  7  8  2  0
  7 22  1  0
  7 23  1  0
  8 19  1  0
  9 17  1  0
  9 18  1  0
  9 19  2  0
 10 15  2  0
 10 16  1  0
 11 14  2  0
 11 15  1  0
 12 13  1  0
 12 14  1  0
 12 16  2  0
 16 17  1  0
 18 23  2  0
 19 20  1  0
 20 21  3  0
 26 27  2  0
 26 28  2  0
 26 29  1  0
 29 30  2  0
 29 34  1  0
 30 31  1  0
 31 32  2  0
 32 33  1  0
 33 34  2  0
  3 35  1  0
  5 36  1  0
  8 37  1  0
 10 38  1  0
 11 39  1  0
 13 40  1  0
 13 41  1  0
 13 42  1  0
 14 43  1  0
 15 44  1  0
 18 45  1  0
 30 46  1  0
 31 47  1  0
 32 48  1  0
 33 49  1  0
 34 50  1  0
M  END
>  <filename_input>  (25) 
7NXO_UU8_docked.sdf

>  <pdb_id>  (25) 
7NXO_UU8

>  <pose_rank>  (25) 
24

>  <num_atoms_heavy>  (25) 
34

>  <num_torsions>  (25) 
6

>  <pose>  (25) 
[43.464373871465895, 3.1104812455737423, 7.479070425881745, 1.0714769861286029, 1.4493267989545588, 2.8221351653760305, 2.8264424173541145, -2.413528551946105, 2.3757420862851935, -1.630644196353526, -3.119277508517757, -3.7806770057696224]

>  <energy>  (25) 
-439.6969066961811

>  <inter_energy>  (25) 
-455.157378316487

>  <intra_energy>  (25) 
24.06290143640827

>  <rmsd>  (25) 
9.53961

>  <sdf_rank>  (25) 
0

$$$$

     RDKit          3D

 50 53  0  0  0  0  0  0  0  0999 V2000
   40.8200   -1.4200   11.1720 N   0  0  0  0  0  0  0  0  0  0  0  0
   40.2040   -2.1800   10.1720 C   0  0  0  0  0  0  0  0  0  0  0  0
   39.3810   -3.2590   10.5020 C   0  0  0  0  0  0  0  0  0  0  0  0
   39.1700   -3.5700   11.8410 C   0  0  0  0  0  0  0  0  0  0  0  0
   39.7640   -2.8110   12.8460 N   0  0  0  0  0  0  0  0  0  0  0  0
   40.5890   -1.7290   12.5140 C   0  0  0  0  0  0  0  0  0  0  0  0
   41.2000    0.9800   11.1470 C   0  0  0  0  0  0  0  0  0  0  0  0
   41.9660    2.1000   10.7880 C   0  0  0  0  0  0  0  0  0  0  0  0
   43.5770    0.6230    9.7510 C   0  0  0  0  0  0  0  0  0  0  0  0
   46.1680    0.6510   10.9520 C   0  0  0  0  0  0  0  0  0  0  0  0
   48.5530    0.7270   10.5630 C   0  0  0  0  0  0  0  0  0  0  0  0
   47.0450    0.4600    8.7040 C   0  0  0  0  0  0  0  0  0  0  0  0
   46.8300    0.2910    7.1930 C   0  0  0  0  0  0  0  0  0  0  0  0
   48.3410    0.5740    9.1960 C   0  0  0  0  0  0  0  0  0  0  0  0
   47.4710    0.7670   11.4370 C   0  0  0  0  0  0  0  0  0  0  0  0
   45.9570    0.5000    9.5800 C   0  0  0  0  0  0  0  0  0  0  0  0
   44.7160    0.3850    9.0370 O   0  0  0  0  0  0  0  0  0  0  0  0
   42.8060   -0.4840   10.1050 C   0  0  0  0  0  0  0  0  0  0  0  0
   43.1540    1.9160   10.0870 C   0  0  0  0  0  0  0  0  0  0  0  0
   43.9410    3.0540    9.7210 C   0  0  0  0  0  0  0  0  0  0  0  0
   44.5920    3.9330    9.4110 N   0  0  0  0  0  0  0  0  0  0  0  0
   40.0550    1.1550   11.8330 F   0  0  0  0  0  0  0  0  0  0  0  0
   41.6240   -0.3120   10.8160 C   0  0  0  0  0  0  0  0  0  0  0  0
   40.3910   -1.9030    8.9900 O   0  0  0  0  0  0  0  0  0  0  0  0
   41.1160   -1.0570   13.4000 O   0  0  0  0  0  0  0  0  0  0  0  0
   38.1260   -4.9030   12.3250 S   0  0  1  0  0  0  0  0  0  0  0  0
   37.5840   -5.5040   11.0730 O   0  0  0  0  0  0  0  0  0  0  0  0
   38.9550   -5.7960   13.1890 O   0  0  0  0  0  0  0  0  0  0  0  0
   36.9010   -4.1290   13.2400 C   0  0  0  0  0  0  0  0  0  0  0  0
   36.9870   -4.1050   14.6260 C   0  0  0  0  0  0  0  0  0  0  0  0
   36.0090   -3.4350   15.3460 C   0  0  0  0  0  0  0  0  0  0  0  0
   34.9600   -2.7880   14.6940 C   0  0  0  0  0  0  0  0  0  0  0  0
   34.8960   -2.8120   13.3070 C   0  0  0  0  0  0  0  0  0  0  0  0
   35.8710   -3.4760   12.5720 C   0  0  0  0  0  0  0  0  0  0  0  0
   38.9046   -3.8567    9.7110 H   0  0  0  0  0  0  0  0  0  0  0  0
   39.5964   -3.0456   13.8348 H   0  0  0  0  0  0  0  0  0  0  0  0
   41.6309    3.1124   11.0579 H   0  0  0  0  0  0  0  0  0  0  0  0
   45.3140    0.6783   11.6447 H   0  0  0  0  0  0  0  0  0  0  0  0
   49.5776    0.8165   10.9531 H   0  0  0  0  0  0  0  0  0  0  0  0
   45.9763   -0.3800    7.0169 H   0  0  0  0  0  0  0  0  0  0  0  0
   46.6248    1.2721    6.7398 H   0  0  0  0  0  0  0  0  0  0  0  0
   47.7348   -0.1401    6.7398 H   0  0  0  0  0  0  0  0  0  0  0  0
   49.1970    0.5433    8.5058 H   0  0  0  0  0  0  0  0  0  0  0  0
   47.6439    0.8908   12.5162 H   0  0  0  0  0  0  0  0  0  0  0  0
   43.1338   -1.4949    9.8211 H   0  0  0  0  0  0  0  0  0  0  0  0
   37.8165   -4.6087   15.1438 H   0  0  0  0  0  0  0  0  0  0  0  0
   36.0616   -3.4138   16.4445 H   0  0  0  0  0  0  0  0  0  0  0  0
   34.1880   -2.2619   15.2747 H   0  0  0  0  0  0  0  0  0  0  0  0
   34.0703   -2.3034   12.7879 H   0  0  0  0  0  0  0  0  0  0  0  0
   35.8283   -3.4849   11.4729 H   0  0  0  0  0  0  0  0  0  0  0  0
  1  2  1  0
  1  6  1  0
  1 23  1  0
  2  3  1  0
  2 24  2  0
  3  4  2  0
  4  5  1  0
 26  4  1  6
  5  6  1  0
  6 25  2  0
  7  8  2  0
  7 22  1  0
  7 23  1  0
  8 19  1  0
  9 17  1  0
  9 18  1  0
  9 19  2  0
 10 15  2  0
 10 16  1  0
 11 14  2  0
 11 15  1  0
 12 13  1  0
 12 14  1  0
 12 16  2  0
 16 17  1  0
 18 23  2  0
 19 20  1  0
 20 21  3  0
 26 27  2  0
 26 28  2  0
 26 29  1  0
 29 30  2  0
 29 34  1  0
 30 31  1  0
 31 32  2  0
 32 33  1  0
 33 34  2  0
  3 35  1  0
  5 36  1  0
  8 37  1  0
 10 38  1  0
 11 39  1  0
 13 40  1  0
 13 41  1  0
 13 42  1  0
 14 43  1  0
 15 44  1  0
 18 45  1  0
 30 46  1  0
 31 47  1  0
 32 48  1  0
 33 49  1  0
 34 50  1  0
M  END
>  <filename_input>  (26) 
7NXO_UU8_docked.sdf

>  <pdb_id>  (26) 
7NXO_UU8

>  <pose_rank>  (26) 
25

>  <num_atoms_heavy>  (26) 
34

>  <num_torsions>  (26) 
6

>  <pose>  (26) 
[40.82, -1.42, 11.172, 1e-06, 1e-06, 1e-06, 0.0, 0.0, 0.0, 0.0, 0.0, 0.0]

>  <energy>  (26) 
-811.9232129203231

>  <inter_energy>  (26) 
-849.3827257833511

>  <intra_energy>  (26) 
45.01914153855211

>  <rmsd>  (26) 
0.0

>  <sdf_rank>  (26) 
0

$$$$
