
     RDKit          3D

 37 38  0  0  0  0  0  0  0  0999 V2000
    8.1750   24.6169   29.8789 O   0  0  0  0  0  0  0  0  0  0  0  0
    9.4841   23.9458   30.2612 P   0  0  1  0  0  0  0  0  0  0  0  0
   10.5677   24.9575   30.2324 O   0  0  0  0  0  0  0  0  0  0  0  0
    9.2854   23.3556   31.6406 O   0  0  0  0  0  0  0  0  0  0  0  0
    9.6655   22.7188   29.2093 O   0  0  0  0  0  0  0  0  0  0  0  0
    8.8194   22.3811   27.8712 P   0  0  2  0  0  0  0  0  0  0  0  0
    8.9757   23.3582   26.7556 O   0  0  0  0  0  0  0  0  0  0  0  0
    7.3982   22.2504   28.3133 O   0  0  0  0  0  0  0  0  0  0  0  0
    9.3539   20.9294   27.2897 O   0  0  0  0  0  0  0  0  0  0  0  0
    9.3938   19.8352   28.1593 C   0  0  0  0  0  0  0  0  0  0  0  0
   10.5980   19.8610   28.8760 C   0  0  1  0  0  0  0  0  0  0  0  0
   10.4528   19.0083   30.0964 O   0  0  0  0  0  0  0  0  0  0  0  0
   11.8191   19.1925   28.0871 C   0  0  1  0  0  0  0  0  0  0  0  0
   13.0344   20.0449   28.3540 O   0  0  0  0  0  0  0  0  0  0  0  0
   11.9191   18.0044   28.5498 C   0  0  1  0  0  0  0  0  0  0  0  0
   13.2953   17.4569   28.5322 O   0  0  0  0  0  0  0  0  0  0  0  0
   11.5103   18.2274   30.1208 C   0  0  2  0  0  0  0  0  0  0  0  0
   11.1055   17.0953   30.8558 N   0  0  0  0  0  0  0  0  0  0  0  0
   11.7192   16.9058   32.1845 C   0  0  0  0  0  0  0  0  0  0  0  0
   12.5577   17.6485   32.5783 O   0  0  0  0  0  0  0  0  0  0  0  0
   11.2907   15.7712   33.0041 N   0  0  0  0  0  0  0  0  0  0  0  0
   10.2832   14.8639   32.5508 C   0  0  0  0  0  0  0  0  0  0  0  0
    9.8903   13.7772   33.3862 N   0  0  0  0  0  0  0  0  0  0  0  0
    9.6481   15.0631   31.2305 C   0  0  0  0  0  0  0  0  0  0  0  0
   10.0807   16.1892   30.4144 C   0  0  0  0  0  0  0  0  0  0  0  0
    8.5474   19.8907   28.8597 H   0  0  0  0  0  0  0  0  0  0  0  0
    9.3267   18.9013   27.5821 H   0  0  0  0  0  0  0  0  0  0  0  0
   10.8019   20.9234   29.0750 H   0  0  0  0  0  0  0  0  0  0  0  0
   11.6914   19.1354   26.9960 H   0  0  0  0  0  0  0  0  0  0  0  0
   13.1650   20.1365   29.3311 H   0  0  0  0  0  0  0  0  0  0  0  0
   11.3121   17.3025   27.9592 H   0  0  0  0  0  0  0  0  0  0  0  0
   13.6122   17.3308   29.4616 H   0  0  0  0  0  0  0  0  0  0  0  0
   12.4203   18.6007   30.6133 H   0  0  0  0  0  0  0  0  0  0  0  0
    9.1651   13.1187   33.0676 H   0  0  0  0  0  0  0  0  0  0  0  0
   10.3316   13.6506   34.3082 H   0  0  0  0  0  0  0  0  0  0  0  0
    8.8668   14.3763   30.8727 H   0  0  0  0  0  0  0  0  0  0  0  0
    9.6103   16.3508   29.4332 H   0  0  0  0  0  0  0  0  0  0  0  0
  2  1  1  6
  2  3  2  0
  2  4  1  0
  2  5  1  0
  5  6  1  0
  6  7  2  0
  6  8  1  1
  6  9  1  0
  9 10  1  0
 11 10  1  0
 11 12  1  0
 11 13  1  0
 12 17  1  0
 13 14  1  0
 13 15  1  0
 15 16  1  0
 15 17  1  0
 17 18  1  0
 18 19  1  0
 18 25  1  0
 19 20  2  0
 19 21  1  0
 21 22  2  0
 22 23  1  0
 22 24  1  0
 24 25  2  0
 10 26  1  0
 10 27  1  0
 11 28  1  1
 13 29  1  6
 14 30  1  0
 15 31  1  6
 16 32  1  0
 17 33  1  1
 23 34  1  0
 23 35  1  0
 24 36  1  0
 25 37  1  0
M  CHG  3   1  -1   4  -1   8  -1
M  END
>  <filename_input>  (1) 
7O0N_CDP_docked.sdf

>  <pdb_id>  (1) 
7O0N_CDP

>  <pose_rank>  (1) 
0

>  <num_atoms_heavy>  (1) 
25

>  <num_torsions>  (1) 
6

>  <pose>  (1) 
[10.597999663792098, 19.860964231128747, 28.875962362332913, 0.9231159906709984, 4.218274216297184, -3.925115771009847, -0.23954726147830965, -6.492591285868308, 7.491613668598172, 0.049452797826018316, 2.2496941833970516, -2.0355273095194764]

>  <energy>  (1) 
-1048.9033027865132

>  <inter_energy>  (1) 
-1060.3792680495903

>  <intra_energy>  (1) 
16.228000487410732

>  <rmsd>  (1) 
0.678723

>  <sdf_rank>  (1) 
0

$$$$

     RDKit          3D

 37 38  0  0  0  0  0  0  0  0999 V2000
    6.2828   22.5855   27.3869 O   0  0  0  0  0  0  0  0  0  0  0  0
    7.7320   22.2802   27.7282 P   0  0  1  0  0  0  0  0  0  0  0  0
    7.9017   20.8105   27.8277 O   0  0  0  0  0  0  0  0  0  0  0  0
    8.5762   22.8827   26.6260 O   0  0  0  0  0  0  0  0  0  0  0  0
    8.0358   23.0984   29.1005 O   0  0  0  0  0  0  0  0  0  0  0  0
    9.0584   22.7404   30.3033 P   0  0  2  0  0  0  0  0  0  0  0  0
    8.4893   21.8951   31.3922 O   0  0  0  0  0  0  0  0  0  0  0  0
    9.5616   24.0525   30.8107 O   0  0  0  0  0  0  0  0  0  0  0  0
   10.3124   21.8782   29.6592 O   0  0  0  0  0  0  0  0  0  0  0  0
   10.0676   20.5765   29.2111 C   0  0  0  0  0  0  0  0  0  0  0  0
   11.2727   19.8611   29.1952 C   0  0  1  0  0  0  0  0  0  0  0  0
   11.2849   18.9085   30.3485 O   0  0  0  0  0  0  0  0  0  0  0  0
   11.4299   18.9129   27.9159 C   0  0  1  0  0  0  0  0  0  0  0  0
   12.8693   19.0040   27.4753 O   0  0  0  0  0  0  0  0  0  0  0  0
   11.0911   17.7443   28.3097 C   0  0  1  0  0  0  0  0  0  0  0  0
   11.7788   16.6392   27.6026 O   0  0  0  0  0  0  0  0  0  0  0  0
   11.6417   17.7441   29.8529 C   0  0  2  0  0  0  0  0  0  0  0  0
   11.0973   16.7932   30.7390 N   0  0  0  0  0  0  0  0  0  0  0  0
   11.6736   16.7368   32.0965 C   0  0  0  0  0  0  0  0  0  0  0  0
   12.5928   17.4262   32.3957 O   0  0  0  0  0  0  0  0  0  0  0  0
   11.1047   15.7991   33.0658 N   0  0  0  0  0  0  0  0  0  0  0  0
    9.9983   14.9593   32.7282 C   0  0  0  0  0  0  0  0  0  0  0  0
    9.4704   14.0667   33.7070 N   0  0  0  0  0  0  0  0  0  0  0  0
    9.4020   15.0288   31.3770 C   0  0  0  0  0  0  0  0  0  0  0  0
    9.9738   15.9583   30.4124 C   0  0  0  0  0  0  0  0  0  0  0  0
    9.3550   20.0822   29.8878 H   0  0  0  0  0  0  0  0  0  0  0  0
    9.6428   20.6081   28.1969 H   0  0  0  0  0  0  0  0  0  0  0  0
   12.0684   20.6204   29.2134 H   0  0  0  0  0  0  0  0  0  0  0  0
   10.8046   19.1888   27.0540 H   0  0  0  0  0  0  0  0  0  0  0  0
   13.4565   19.0411   28.2715 H   0  0  0  0  0  0  0  0  0  0  0  0
   10.0157   17.5750   28.1515 H   0  0  0  0  0  0  0  0  0  0  0  0
   12.1675   16.0148   28.2652 H   0  0  0  0  0  0  0  0  0  0  0  0
   12.7156   17.5162   29.7839 H   0  0  0  0  0  0  0  0  0  0  0  0
    8.6733   13.4580   33.4723 H   0  0  0  0  0  0  0  0  0  0  0  0
    9.8862   14.0306   34.6486 H   0  0  0  0  0  0  0  0  0  0  0  0
    8.5460   14.3931   31.1064 H   0  0  0  0  0  0  0  0  0  0  0  0
    9.5337   16.0232   29.4063 H   0  0  0  0  0  0  0  0  0  0  0  0
  2  1  1  6
  2  3  2  0
  2  4  1  0
  2  5  1  0
  5  6  1  0
  6  7  2  0
  6  8  1  1
  6  9  1  0
  9 10  1  0
 11 10  1  0
 11 12  1  0
 11 13  1  0
 12 17  1  0
 13 14  1  0
 13 15  1  0
 15 16  1  0
 15 17  1  0
 17 18  1  0
 18 19  1  0
 18 25  1  0
 19 20  2  0
 19 21  1  0
 21 22  2  0
 22 23  1  0
 22 24  1  0
 24 25  2  0
 10 26  1  0
 10 27  1  0
 11 28  1  1
 13 29  1  6
 14 30  1  0
 15 31  1  1
 16 32  1  0
 17 33  1  6
 23 34  1  0
 23 35  1  0
 24 36  1  0
 25 37  1  0
M  CHG  3   1  -1   4  -1   8  -1
M  END
>  <filename_input>  (2) 
7O0N_CDP_docked.sdf

>  <pdb_id>  (2) 
7O0N_CDP

>  <pose_rank>  (2) 
1

>  <num_atoms_heavy>  (2) 
25

>  <num_torsions>  (2) 
6

>  <pose>  (2) 
[11.272705607342898, 19.8611346625642, 29.195232504219373, -0.5944401938754449, -3.9794889899895525, 4.379075006689644, 0.5143629523584585, -1.1768605678359296, -0.059330829884015765, 4.20109451164634, -0.4812648761959763, 0.41021387604071524]

>  <energy>  (2) 
-903.8918104335618

>  <inter_energy>  (2) 
-960.9792681722282

>  <intra_energy>  (2) 
59.48616569291987

>  <rmsd>  (2) 
2.21218

>  <sdf_rank>  (2) 
0

$$$$

     RDKit          3D

 37 38  0  0  0  0  0  0  0  0999 V2000
   11.1342   21.6741   26.8364 O   0  0  0  0  0  0  0  0  0  0  0  0
   11.8580   22.8136   27.5348 P   0  0  1  0  0  0  0  0  0  0  0  0
   13.2252   22.3652   27.8929 O   0  0  0  0  0  0  0  0  0  0  0  0
   11.8698   23.9796   26.5701 O   0  0  0  0  0  0  0  0  0  0  0  0
   10.9166   23.2147   28.7990 O   0  0  0  0  0  0  0  0  0  0  0  0
    9.3592   22.8658   29.0698 P   0  0  2  0  0  0  0  0  0  0  0  0
    8.5076   22.7668   27.8497 O   0  0  0  0  0  0  0  0  0  0  0  0
    8.8692   23.9113   30.0180 O   0  0  0  0  0  0  0  0  0  0  0  0
    9.2939   21.3837   29.7980 O   0  0  0  0  0  0  0  0  0  0  0  0
    9.6058   20.2519   29.0385 C   0  0  0  0  0  0  0  0  0  0  0  0
   10.9186   19.8533   29.3248 C   0  0  1  0  0  0  0  0  0  0  0  0
   10.8985   18.9341   30.5048 O   0  0  0  0  0  0  0  0  0  0  0  0
   11.5798   18.9706   28.1654 C   0  0  1  0  0  0  0  0  0  0  0  0
   13.0172   19.4106   28.0433 O   0  0  0  0  0  0  0  0  0  0  0  0
   11.4498   17.7551   28.5412 C   0  0  1  0  0  0  0  0  0  0  0  0
   12.5215   16.8510   28.0635 O   0  0  0  0  0  0  0  0  0  0  0  0
   11.6242   17.8918   30.1647 C   0  0  2  0  0  0  0  0  0  0  0  0
   11.1377   16.8379   30.9635 N   0  0  0  0  0  0  0  0  0  0  0  0
   11.7338   16.6848   32.3048 C   0  0  0  0  0  0  0  0  0  0  0  0
   12.6229   17.3877   32.6587 O   0  0  0  0  0  0  0  0  0  0  0  0
   11.2233   15.6350   33.1880 N   0  0  0  0  0  0  0  0  0  0  0  0
   10.1540   14.7768   32.7836 C   0  0  0  0  0  0  0  0  0  0  0  0
    9.6824   13.7731   33.6799 N   0  0  0  0  0  0  0  0  0  0  0  0
    9.5372   14.9415   31.4499 C   0  0  0  0  0  0  0  0  0  0  0  0
   10.0511   15.9828   30.5707 C   0  0  0  0  0  0  0  0  0  0  0  0
    8.9107   19.4372   29.2895 H   0  0  0  0  0  0  0  0  0  0  0  0
    9.5161   20.4886   27.9680 H   0  0  0  0  0  0  0  0  0  0  0  0
   11.4855   20.7842   29.4726 H   0  0  0  0  0  0  0  0  0  0  0  0
   11.1164   19.0838   27.1742 H   0  0  0  0  0  0  0  0  0  0  0  0
   13.4040   19.5290   28.9468 H   0  0  0  0  0  0  0  0  0  0  0  0
   10.5094   17.3275   28.1632 H   0  0  0  0  0  0  0  0  0  0  0  0
   12.9903   16.4555   28.8405 H   0  0  0  0  0  0  0  0  0  0  0  0
   12.7088   17.9336   30.3433 H   0  0  0  0  0  0  0  0  0  0  0  0
    8.9123   13.1504   33.3968 H   0  0  0  0  0  0  0  0  0  0  0  0
   10.1118   13.6707   34.6105 H   0  0  0  0  0  0  0  0  0  0  0  0
    8.7092   14.2923   31.1290 H   0  0  0  0  0  0  0  0  0  0  0  0
    9.5953   16.1185   29.5788 H   0  0  0  0  0  0  0  0  0  0  0  0
  2  1  1  6
  2  3  2  0
  2  4  1  0
  2  5  1  0
  5  6  1  0
  6  7  2  0
  6  8  1  1
  6  9  1  0
  9 10  1  0
 11 10  1  0
 11 12  1  0
 11 13  1  0
 12 17  1  0
 13 14  1  0
 13 15  1  0
 15 16  1  0
 15 17  1  0
 17 18  1  0
 18 19  1  0
 18 25  1  0
 19 20  2  0
 19 21  1  0
 21 22  2  0
 22 23  1  0
 22 24  1  0
 24 25  2  0
 10 26  1  0
 10 27  1  0
 11 28  1  1
 13 29  1  6
 14 30  1  0
 15 31  1  1
 16 32  1  0
 17 33  1  6
 23 34  1  0
 23 35  1  0
 24 36  1  0
 25 37  1  0
M  CHG  3   1  -1   4  -1   8  -1
M  END
>  <filename_input>  (3) 
7O0N_CDP_docked.sdf

>  <pdb_id>  (3) 
7O0N_CDP

>  <pose_rank>  (3) 
2

>  <num_atoms_heavy>  (3) 
25

>  <num_torsions>  (3) 
6

>  <pose>  (3) 
[10.918596295663551, 19.85326259480066, 29.32476119346977, 6.026517435396946, 1.038983774550554, -1.4618925502970064, 0.18358638479068332, -1.491765558257066, -1.8402953450539659, -2.0971862469244473, 0.5128173458203593, -2.5076370843757227]

>  <energy>  (3) 
-948.1770847176384

>  <inter_energy>  (3) 
-994.1390275858947

>  <intra_energy>  (3) 
49.40722165975803

>  <rmsd>  (3) 
2.13667

>  <sdf_rank>  (3) 
0

$$$$

     RDKit          3D

 37 38  0  0  0  0  0  0  0  0999 V2000
   10.3338   23.8622   31.5142 O   0  0  0  0  0  0  0  0  0  0  0  0
    9.0706   23.0348   31.3417 P   0  0  1  0  0  0  0  0  0  0  0  0
    8.4458   22.8308   32.6708 O   0  0  0  0  0  0  0  0  0  0  0  0
    8.1721   23.8022   30.3961 O   0  0  0  0  0  0  0  0  0  0  0  0
    9.5444   21.6716   30.5919 O   0  0  0  0  0  0  0  0  0  0  0  0
    8.6486   20.4486   30.0242 P   0  0  2  0  0  0  0  0  0  0  0  0
    7.5914   20.8346   29.0458 O   0  0  0  0  0  0  0  0  0  0  0  0
    8.0833   19.7680   31.2282 O   0  0  0  0  0  0  0  0  0  0  0  0
    9.6583   19.4123   29.2256 O   0  0  0  0  0  0  0  0  0  0  0  0
   10.6769   19.9503   28.4330 C   0  0  0  0  0  0  0  0  0  0  0  0
   11.9076   19.4197   28.8429 C   0  0  1  0  0  0  0  0  0  0  0  0
   11.7085   18.6673   30.1204 O   0  0  0  0  0  0  0  0  0  0  0  0
   12.4887   18.3181   27.8384 C   0  0  1  0  0  0  0  0  0  0  0  0
   13.9774   18.5439   27.7514 O   0  0  0  0  0  0  0  0  0  0  0  0
   12.1743   17.1877   28.3474 C   0  0  1  0  0  0  0  0  0  0  0  0
   13.1291   16.0962   28.0456 O   0  0  0  0  0  0  0  0  0  0  0  0
   12.2957   17.5033   29.9507 C   0  0  2  0  0  0  0  0  0  0  0  0
   11.6329   16.6324   30.8383 N   0  0  0  0  0  0  0  0  0  0  0  0
   11.9912   16.7329   32.2665 C   0  0  0  0  0  0  0  0  0  0  0  0
   12.8429   17.4766   32.6286 O   0  0  0  0  0  0  0  0  0  0  0  0
   11.2910   15.8829   33.2308 N   0  0  0  0  0  0  0  0  0  0  0  0
   10.2623   14.9801   32.8181 C   0  0  0  0  0  0  0  0  0  0  0  0
    9.6005   14.1772   33.7931 N   0  0  0  0  0  0  0  0  0  0  0  0
    9.8831   14.8928   31.3916 C   0  0  0  0  0  0  0  0  0  0  0  0
   10.5856   15.7352   30.4333 C   0  0  0  0  0  0  0  0  0  0  0  0
   10.4978   19.6927   27.3787 H   0  0  0  0  0  0  0  0  0  0  0  0
   10.6912   21.0448   28.5417 H   0  0  0  0  0  0  0  0  0  0  0  0
   12.5919   20.2781   28.9129 H   0  0  0  0  0  0  0  0  0  0  0  0
   12.0890   18.3663   26.8147 H   0  0  0  0  0  0  0  0  0  0  0  0
   14.3563   18.6014   28.6642 H   0  0  0  0  0  0  0  0  0  0  0  0
   11.2007   16.8450   27.9671 H   0  0  0  0  0  0  0  0  0  0  0  0
   13.4670   15.7099   28.8922 H   0  0  0  0  0  0  0  0  0  0  0  0
   13.3668   17.4225   30.1879 H   0  0  0  0  0  0  0  0  0  0  0  0
    8.8582   13.5241   33.5046 H   0  0  0  0  0  0  0  0  0  0  0  0
    9.8648   14.2504   34.7860 H   0  0  0  0  0  0  0  0  0  0  0  0
    9.0886   14.2073   31.0617 H   0  0  0  0  0  0  0  0  0  0  0  0
   10.3070   15.6833   29.3704 H   0  0  0  0  0  0  0  0  0  0  0  0
  2  1  1  1
  2  3  2  0
  2  4  1  0
  2  5  1  0
  5  6  1  0
  6  7  2  0
  6  8  1  1
  6  9  1  0
  9 10  1  0
 11 10  1  0
 11 12  1  0
 11 13  1  0
 12 17  1  0
 13 14  1  0
 13 15  1  0
 15 16  1  0
 15 17  1  0
 17 18  1  0
 18 19  1  0
 18 25  1  0
 19 20  2  0
 19 21  1  0
 21 22  2  0
 22 23  1  0
 22 24  1  0
 24 25  2  0
 10 26  1  0
 10 27  1  0
 11 28  1  1
 13 29  1  6
 14 30  1  0
 15 31  1  1
 16 32  1  0
 17 33  1  1
 23 34  1  0
 23 35  1  0
 24 36  1  0
 25 37  1  0
M  CHG  3   1  -1   4  -1   8  -1
M  END
>  <filename_input>  (4) 
7O0N_CDP_docked.sdf

>  <pdb_id>  (4) 
7O0N_CDP

>  <pose_rank>  (4) 
3

>  <num_atoms_heavy>  (4) 
25

>  <num_torsions>  (4) 
6

>  <pose>  (4) 
[11.907616614678151, 19.419713180670247, 28.84290697340859, 3.8205609670037175, 1.6608728383209428, 4.447596852124909, -12.21048613737642, -28.322167717667195, -39.11211210778174, -14.128341007034102, -16.798792432246028, 1.0328430895564178]

>  <energy>  (4) 
-818.8769369999936

>  <inter_energy>  (4) 
-826.7020995153454

>  <intra_energy>  (4) 
9.900653227317704

>  <rmsd>  (4) 
1.85529

>  <sdf_rank>  (4) 
0

$$$$

     RDKit          3D

 37 38  0  0  0  0  0  0  0  0999 V2000
   11.0388   24.9011   29.8668 O   0  0  0  0  0  0  0  0  0  0  0  0
    9.7036   24.1818   29.9662 P   0  0  1  0  0  0  0  0  0  0  0  0
    9.8479   23.0280   30.8863 O   0  0  0  0  0  0  0  0  0  0  0  0
    8.6983   25.1953   30.4686 O   0  0  0  0  0  0  0  0  0  0  0  0
    9.3062   23.7925   28.4379 O   0  0  0  0  0  0  0  0  0  0  0  0
    8.9199   22.3495   27.8142 P   0  0  2  0  0  0  0  0  0  0  0  0
    9.9227   21.7740   26.8723 O   0  0  0  0  0  0  0  0  0  0  0  0
    7.5819   22.5303   27.1743 O   0  0  0  0  0  0  0  0  0  0  0  0
    8.7948   21.2767   29.0650 O   0  0  0  0  0  0  0  0  0  0  0  0
    9.2014   19.9555   28.8550 C   0  0  0  0  0  0  0  0  0  0  0  0
   10.5436   19.8212   29.2358 C   0  0  1  0  0  0  0  0  0  0  0  0
   10.6133   18.9888   30.4767 O   0  0  0  0  0  0  0  0  0  0  0  0
   11.4233   19.0036   28.1785 C   0  0  1  0  0  0  0  0  0  0  0  0
   12.7640   19.6896   28.0980 O   0  0  0  0  0  0  0  0  0  0  0  0
   11.4887   17.8104   28.6342 C   0  0  1  0  0  0  0  0  0  0  0  0
   12.7324   17.0888   28.2783 O   0  0  0  0  0  0  0  0  0  0  0  0
   11.5332   18.0770   30.2503 C   0  0  2  0  0  0  0  0  0  0  0  0
   11.1930   17.0037   31.0975 N   0  0  0  0  0  0  0  0  0  0  0  0
   11.5059   15.6448   30.6143 C   0  0  0  0  0  0  0  0  0  0  0  0
   11.9689   15.4754   29.5341 O   0  0  0  0  0  0  0  0  0  0  0  0
   11.2163   14.5030   31.4833 N   0  0  0  0  0  0  0  0  0  0  0  0
   10.6589   14.6826   32.7874 C   0  0  0  0  0  0  0  0  0  0  0  0
   10.4011   13.5421   33.6035 N   0  0  0  0  0  0  0  0  0  0  0  0
   10.3657   16.0435   33.2856 C   0  0  0  0  0  0  0  0  0  0  0  0
   10.6490   17.1774   32.4166 C   0  0  0  0  0  0  0  0  0  0  0  0
    8.5783   19.2784   29.4578 H   0  0  0  0  0  0  0  0  0  0  0  0
    9.0913   19.6992   27.7910 H   0  0  0  0  0  0  0  0  0  0  0  0
   10.9250   20.8472   29.3444 H   0  0  0  0  0  0  0  0  0  0  0  0
   11.0107   18.9688   27.1594 H   0  0  0  0  0  0  0  0  0  0  0  0
   13.1017   19.8624   29.0125 H   0  0  0  0  0  0  0  0  0  0  0  0
   10.6654   17.1961   28.2409 H   0  0  0  0  0  0  0  0  0  0  0  0
   13.2035   16.8155   29.1050 H   0  0  0  0  0  0  0  0  0  0  0  0
   12.5795   18.3267   30.4803 H   0  0  0  0  0  0  0  0  0  0  0  0
    9.9997   13.6622   34.5444 H   0  0  0  0  0  0  0  0  0  0  0  0
   10.6164   12.5981   33.2521 H   0  0  0  0  0  0  0  0  0  0  0  0
    9.9431   16.1960   34.2897 H   0  0  0  0  0  0  0  0  0  0  0  0
   10.4410   18.1947   32.7796 H   0  0  0  0  0  0  0  0  0  0  0  0
  2  1  1  6
  2  3  2  0
  2  4  1  0
  2  5  1  0
  5  6  1  0
  6  7  2  0
  6  8  1  6
  6  9  1  0
  9 10  1  0
 11 10  1  0
 11 12  1  0
 11 13  1  0
 12 17  1  0
 13 14  1  0
 13 15  1  0
 15 16  1  0
 15 17  1  0
 17 18  1  0
 18 19  1  0
 18 25  1  0
 19 20  2  0
 19 21  1  0
 21 22  2  0
 22 23  1  0
 22 24  1  0
 24 25  2  0
 10 26  1  0
 10 27  1  0
 11 28  1  1
 13 29  1  6
 14 30  1  0
 15 31  1  1
 16 32  1  0
 17 33  1  1
 23 34  1  0
 23 35  1  0
 24 36  1  0
 25 37  1  0
M  CHG  3   1  -1   4  -1   8  -1
M  END
>  <filename_input>  (5) 
7O0N_CDP_docked.sdf

>  <pdb_id>  (5) 
7O0N_CDP

>  <pose_rank>  (5) 
4

>  <num_atoms_heavy>  (5) 
25

>  <num_torsions>  (5) 
6

>  <pose>  (5) 
[10.543572700411541, 19.821176282294637, 29.235792122310382, 1.933222368600008, 1.7155279948859292, -5.507460219414047, -2.0065116895281356, 5.189104217483858, -1.9771027627181401, -3.393630954857794, 5.419322275276145, -0.007246802954914797]

>  <energy>  (5) 
-744.803166898112

>  <inter_energy>  (5) 
-845.6742764566058

>  <intra_energy>  (5) 
109.11244615069583

>  <rmsd>  (5) 
1.33578

>  <sdf_rank>  (5) 
0

$$$$

     RDKit          3D

 37 38  0  0  0  0  0  0  0  0999 V2000
   15.9540   21.6480   23.4565 O   0  0  0  0  0  0  0  0  0  0  0  0
   16.5711   20.2710   23.2749 P   0  0  1  0  0  0  0  0  0  0  0  0
   16.1388   19.7204   21.9678 O   0  0  0  0  0  0  0  0  0  0  0  0
   18.0716   20.4512   23.3546 O   0  0  0  0  0  0  0  0  0  0  0  0
   16.0974   19.4095   24.5705 O   0  0  0  0  0  0  0  0  0  0  0  0
   15.0806   19.8218   25.7607 P   0  0  2  0  0  0  0  0  0  0  0  0
   13.6917   20.1483   25.3268 O   0  0  0  0  0  0  0  0  0  0  0  0
   15.7328   20.9614   26.4736 O   0  0  0  0  0  0  0  0  0  0  0  0
   14.9514   18.5302   26.7835 O   0  0  0  0  0  0  0  0  0  0  0  0
   13.6781   18.0253   27.0645 C   0  0  0  0  0  0  0  0  0  0  0  0
   13.4399   18.1191   28.4425 C   0  0  1  0  0  0  0  0  0  0  0  0
   12.7805   19.4304   28.7312 O   0  0  0  0  0  0  0  0  0  0  0  0
   12.3892   17.0379   28.9788 C   0  0  1  0  0  0  0  0  0  0  0  0
   12.8959   16.5580   30.3158 O   0  0  0  0  0  0  0  0  0  0  0  0
   11.2693   17.6514   29.0493 C   0  0  1  0  0  0  0  0  0  0  0  0
   10.3652   17.1505   30.1104 O   0  0  0  0  0  0  0  0  0  0  0  0
   11.7449   19.1553   29.4930 C   0  0  2  0  0  0  0  0  0  0  0  0
   10.8433   20.2155   29.2724 N   0  0  0  0  0  0  0  0  0  0  0  0
   11.2905   21.2981   28.3745 C   0  0  0  0  0  0  0  0  0  0  0  0
   12.3846   21.2922   27.9132 O   0  0  0  0  0  0  0  0  0  0  0  0
   10.3671   22.3941   28.0767 N   0  0  0  0  0  0  0  0  0  0  0  0
    9.0454   22.4225   28.6205 C   0  0  0  0  0  0  0  0  0  0  0  0
    8.1763   23.5056   28.2965 N   0  0  0  0  0  0  0  0  0  0  0  0
    8.5842   21.3283   29.5016 C   0  0  0  0  0  0  0  0  0  0  0  0
    9.5071   20.2420   29.8013 C   0  0  0  0  0  0  0  0  0  0  0  0
   12.9220   18.6096   26.5197 H   0  0  0  0  0  0  0  0  0  0  0  0
   13.6197   16.9729   26.7497 H   0  0  0  0  0  0  0  0  0  0  0  0
   14.4192   17.9775   28.9229 H   0  0  0  0  0  0  0  0  0  0  0  0
   12.2657   16.1527   28.3376 H   0  0  0  0  0  0  0  0  0  0  0  0
   12.4060   17.0220   31.0403 H   0  0  0  0  0  0  0  0  0  0  0  0
   10.7084   17.5504   28.1084 H   0  0  0  0  0  0  0  0  0  0  0  0
   10.7487   17.3630   30.9980 H   0  0  0  0  0  0  0  0  0  0  0  0
   11.8987   19.1079   30.5812 H   0  0  0  0  0  0  0  0  0  0  0  0
    7.2224   23.5341   28.6839 H   0  0  0  0  0  0  0  0  0  0  0  0
    8.5025   24.2595   27.6750 H   0  0  0  0  0  0  0  0  0  0  0  0
    7.5674   21.3345   29.9211 H   0  0  0  0  0  0  0  0  0  0  0  0
    9.1722   19.4194   30.4502 H   0  0  0  0  0  0  0  0  0  0  0  0
  2  1  1  1
  2  3  2  0
  2  4  1  0
  2  5  1  0
  5  6  1  0
  6  7  2  0
  6  8  1  1
  6  9  1  0
  9 10  1  0
 11 10  1  0
 11 12  1  0
 11 13  1  0
 12 17  1  0
 13 14  1  0
 13 15  1  0
 15 16  1  0
 15 17  1  0
 17 18  1  0
 18 19  1  0
 18 25  1  0
 19 20  2  0
 19 21  1  0
 21 22  2  0
 22 23  1  0
 22 24  1  0
 24 25  2  0
 10 26  1  0
 10 27  1  0
 11 28  1  1
 13 29  1  6
 14 30  1  0
 15 31  1  6
 16 32  1  0
 17 33  1  1
 23 34  1  0
 23 35  1  0
 24 36  1  0
 25 37  1  0
M  CHG  3   1  -1   4  -1   8  -1
M  END
>  <filename_input>  (6) 
7O0N_CDP_docked.sdf

>  <pdb_id>  (6) 
7O0N_CDP

>  <pose_rank>  (6) 
5

>  <num_atoms_heavy>  (6) 
25

>  <num_torsions>  (6) 
6

>  <pose>  (6) 
[13.439875207259101, 18.119074971697113, 28.442473647278646, -1.243865620436945, -0.9063084008735848, -1.364291823333633, 1.6516718683785143, -1.4270207423428505, 0.597498410402273, 3.234856363698655, 2.125811853632259, -2.1145993314544094]

>  <energy>  (6) 
-528.702917098728

>  <inter_energy>  (6) 
-587.1220211640925

>  <intra_energy>  (6) 
64.06397844362975

>  <rmsd>  (6) 
7.03828

>  <sdf_rank>  (6) 
0

$$$$

     RDKit          3D

 37 38  0  0  0  0  0  0  0  0999 V2000
   19.7941   14.9263   27.5387 O   0  0  0  0  0  0  0  0  0  0  0  0
   19.2025   13.9100   28.5015 P   0  0  1  0  0  0  0  0  0  0  0  0
   19.4102   12.5494   27.9499 O   0  0  0  0  0  0  0  0  0  0  0  0
   19.9042   14.1055   29.8281 O   0  0  0  0  0  0  0  0  0  0  0  0
   17.6457   14.3429   28.6861 O   0  0  0  0  0  0  0  0  0  0  0  0
   16.5772   13.8758   29.8088 P   0  0  2  0  0  0  0  0  0  0  0  0
   17.1620   13.5102   31.1311 O   0  0  0  0  0  0  0  0  0  0  0  0
   15.8141   12.7467   29.1965 O   0  0  0  0  0  0  0  0  0  0  0  0
   15.5565   15.1444   30.0922 O   0  0  0  0  0  0  0  0  0  0  0  0
   14.2672   15.0977   29.5531 C   0  0  0  0  0  0  0  0  0  0  0  0
   13.3576   15.6034   30.4917 C   0  0  1  0  0  0  0  0  0  0  0  0
   13.2067   17.0757   30.2745 O   0  0  0  0  0  0  0  0  0  0  0  0
   11.8730   15.0365   30.3045 C   0  0  1  0  0  0  0  0  0  0  0  0
   11.3185   14.7913   31.6855 O   0  0  0  0  0  0  0  0  0  0  0  0
   11.2396   15.9375   29.6543 C   0  0  1  0  0  0  0  0  0  0  0  0
    9.7902   15.9999   29.9531 O   0  0  0  0  0  0  0  0  0  0  0  0
   11.9128   17.3077   30.2494 C   0  0  2  0  0  0  0  0  0  0  0  0
   11.7726   18.4860   29.4894 N   0  0  0  0  0  0  0  0  0  0  0  0
   10.5819   19.3163   29.7560 C   0  0  0  0  0  0  0  0  0  0  0  0
    9.7584   18.9653   30.5359 O   0  0  0  0  0  0  0  0  0  0  0  0
   10.4217   20.5748   29.0259 N   0  0  0  0  0  0  0  0  0  0  0  0
   11.4000   21.0177   28.0822 C   0  0  0  0  0  0  0  0  0  0  0  0
   11.2074   22.2549   27.4000 N   0  0  0  0  0  0  0  0  0  0  0  0
   12.6064   20.2011   27.8289 C   0  0  0  0  0  0  0  0  0  0  0  0
   12.7604   18.9463   28.5523 C   0  0  0  0  0  0  0  0  0  0  0  0
   14.2286   15.7068   28.6379 H   0  0  0  0  0  0  0  0  0  0  0  0
   14.0061   14.0576   29.3081 H   0  0  0  0  0  0  0  0  0  0  0  0
   13.7584   15.3193   31.4759 H   0  0  0  0  0  0  0  0  0  0  0  0
   11.8044   14.0889   29.7502 H   0  0  0  0  0  0  0  0  0  0  0  0
   11.9788   15.0833   32.3628 H   0  0  0  0  0  0  0  0  0  0  0  0
   11.3128   15.7619   28.5709 H   0  0  0  0  0  0  0  0  0  0  0  0
    9.6554   16.0058   30.9339 H   0  0  0  0  0  0  0  0  0  0  0  0
   11.4009   17.4984   31.2041 H   0  0  0  0  0  0  0  0  0  0  0  0
   11.9071   22.5816   26.7185 H   0  0  0  0  0  0  0  0  0  0  0  0
   10.3684   22.8218   27.5887 H   0  0  0  0  0  0  0  0  0  0  0  0
   13.3702   20.5337   27.1105 H   0  0  0  0  0  0  0  0  0  0  0  0
   13.6573   18.3342   28.3765 H   0  0  0  0  0  0  0  0  0  0  0  0
  2  1  1  6
  2  3  2  0
  2  4  1  0
  2  5  1  0
  5  6  1  0
  6  7  2  0
  6  8  1  6
  6  9  1  0
  9 10  1  0
 11 10  1  0
 11 12  1  0
 11 13  1  0
 12 17  1  0
 13 14  1  0
 13 15  1  0
 15 16  1  0
 15 17  1  0
 17 18  1  0
 18 19  1  0
 18 25  1  0
 19 20  2  0
 19 21  1  0
 21 22  2  0
 22 23  1  0
 22 24  1  0
 24 25  2  0
 10 26  1  0
 10 27  1  0
 11 28  1  1
 13 29  1  6
 14 30  1  0
 15 31  1  6
 16 32  1  0
 17 33  1  1
 23 34  1  0
 23 35  1  0
 24 36  1  0
 25 37  1  0
M  CHG  3   1  -1   4  -1   8  -1
M  END
>  <filename_input>  (7) 
7O0N_CDP_docked.sdf

>  <pdb_id>  (7) 
7O0N_CDP

>  <pose_rank>  (7) 
6

>  <num_atoms_heavy>  (7) 
25

>  <num_torsions>  (7) 
6

>  <pose>  (7) 
[13.357569551681722, 15.603425015369085, 30.491744388954316, 1.5027804158368994, 1.708734294344608, 2.7695873163690266, -0.9848589059604819, 4.8476712191144085, -1.1506668605455337, 0.9549849484506834, 1.584024364959038, 1.1971944875682514]

>  <energy>  (7) 
-530.8587037039157

>  <inter_energy>  (7) 
-530.7335430083907

>  <intra_energy>  (7) 
8.519302091607642

>  <rmsd>  (7) 
9.11396

>  <sdf_rank>  (7) 
0

$$$$

     RDKit          3D

 37 38  0  0  0  0  0  0  0  0999 V2000
   10.1967   20.8047   39.6950 O   0  0  0  0  0  0  0  0  0  0  0  0
   11.0733   21.1969   38.5169 P   0  0  1  0  0  0  0  0  0  0  0  0
   11.0157   22.6687   38.3454 O   0  0  0  0  0  0  0  0  0  0  0  0
   12.4711   20.7094   38.8315 O   0  0  0  0  0  0  0  0  0  0  0  0
   10.5123   20.3387   37.2545 O   0  0  0  0  0  0  0  0  0  0  0  0
    9.4527   19.1149   37.2357 P   0  0  2  0  0  0  0  0  0  0  0  0
    8.0328   19.5060   37.0014 O   0  0  0  0  0  0  0  0  0  0  0  0
    9.6355   18.4013   38.5355 O   0  0  0  0  0  0  0  0  0  0  0  0
    9.8649   18.1103   35.9899 O   0  0  0  0  0  0  0  0  0  0  0  0
   10.1040   18.6703   34.7312 C   0  0  0  0  0  0  0  0  0  0  0  0
    9.6815   17.7732   33.7408 C   0  0  1  0  0  0  0  0  0  0  0  0
    9.7623   18.4497   32.4091 O   0  0  0  0  0  0  0  0  0  0  0  0
   10.6438   16.5045   33.5828 C   0  0  1  0  0  0  0  0  0  0  0  0
    9.7573   15.3061   33.3538 O   0  0  0  0  0  0  0  0  0  0  0  0
   11.4054   16.7713   32.5907 C   0  0  1  0  0  0  0  0  0  0  0  0
   11.8545   15.5826   31.8296 O   0  0  0  0  0  0  0  0  0  0  0  0
   10.3930   17.6127   31.6151 C   0  0  2  0  0  0  0  0  0  0  0  0
   10.9722   18.4262   30.6209 N   0  0  0  0  0  0  0  0  0  0  0  0
   10.1000   19.4365   29.9911 C   0  0  0  0  0  0  0  0  0  0  0  0
    8.9499   19.5097   30.2769 O   0  0  0  0  0  0  0  0  0  0  0  0
   10.6731   20.3372   28.9897 N   0  0  0  0  0  0  0  0  0  0  0  0
   12.0548   20.2676   28.6296 C   0  0  0  0  0  0  0  0  0  0  0  0
   12.5724   21.1709   27.6552 N   0  0  0  0  0  0  0  0  0  0  0  0
   12.9383   19.2730   29.2749 C   0  0  0  0  0  0  0  0  0  0  0  0
   12.3642   18.3739   30.2666 C   0  0  0  0  0  0  0  0  0  0  0  0
    9.5459   19.6134   34.6359 H   0  0  0  0  0  0  0  0  0  0  0  0
   11.1791   18.8713   34.6140 H   0  0  0  0  0  0  0  0  0  0  0  0
    8.6710   17.4569   34.0389 H   0  0  0  0  0  0  0  0  0  0  0  0
   11.2714   16.2859   34.4593 H   0  0  0  0  0  0  0  0  0  0  0  0
    9.4791   14.9298   34.2262 H   0  0  0  0  0  0  0  0  0  0  0  0
   12.3243   17.2736   32.9273 H   0  0  0  0  0  0  0  0  0  0  0  0
   12.1240   14.8691   32.4608 H   0  0  0  0  0  0  0  0  0  0  0  0
    9.7993   16.8559   31.0815 H   0  0  0  0  0  0  0  0  0  0  0  0
   13.5667   21.1278   27.3898 H   0  0  0  0  0  0  0  0  0  0  0  0
   11.9521   21.8665   27.2168 H   0  0  0  0  0  0  0  0  0  0  0  0
   14.0047   19.2135   29.0120 H   0  0  0  0  0  0  0  0  0  0  0  0
   13.0138   17.6345   30.7579 H   0  0  0  0  0  0  0  0  0  0  0  0
  2  1  1  1
  2  3  2  0
  2  4  1  0
  2  5  1  0
  5  6  1  0
  6  7  2  0
  6  8  1  1
  6  9  1  0
  9 10  1  0
 11 10  1  0
 11 12  1  0
 11 13  1  0
 12 17  1  0
 13 14  1  0
 13 15  1  0
 15 16  1  0
 15 17  1  0
 17 18  1  0
 18 19  1  0
 18 25  1  0
 19 20  2  0
 19 21  1  0
 21 22  2  0
 22 23  1  0
 22 24  1  0
 24 25  2  0
 10 26  1  0
 10 27  1  0
 11 28  1  1
 13 29  1  1
 14 30  1  0
 15 31  1  1
 16 32  1  0
 17 33  1  6
 23 34  1  0
 23 35  1  0
 24 36  1  0
 25 37  1  0
M  CHG  3   1  -1   4  -1   8  -1
M  END
>  <filename_input>  (8) 
7O0N_CDP_docked.sdf

>  <pdb_id>  (8) 
7O0N_CDP

>  <pose_rank>  (8) 
7

>  <num_atoms_heavy>  (8) 
25

>  <num_torsions>  (8) 
6

>  <pose>  (8) 
[9.681476342444887, 17.7731643394001, 33.740818671642316, 1.635839259362162, -2.2312377719264407, -1.345095835593258, 0.8647941809137913, -0.01159333198146303, 6.419732622846712, -1.716959336049286, -3.578966579443895, 3.890301874088021]

>  <energy>  (8) 
-363.08275334902186

>  <inter_energy>  (8) 
-388.77628856310537

>  <intra_energy>  (8) 
40.941323279463454

>  <rmsd>  (8) 
7.33689

>  <sdf_rank>  (8) 
0

$$$$

     RDKit          3D

 37 38  0  0  0  0  0  0  0  0999 V2000
   11.4142   17.6492   33.2226 O   0  0  0  0  0  0  0  0  0  0  0  0
   11.2636   16.6133   32.1207 P   0  0  1  0  0  0  0  0  0  0  0  0
   10.6278   15.3995   32.6873 O   0  0  0  0  0  0  0  0  0  0  0  0
   10.4220   17.2496   31.0356 O   0  0  0  0  0  0  0  0  0  0  0  0
   12.7619   16.3882   31.5296 O   0  0  0  0  0  0  0  0  0  0  0  0
   13.2205   15.8851   30.0609 P   0  0  2  0  0  0  0  0  0  0  0  0
   13.2530   16.9406   29.0079 O   0  0  0  0  0  0  0  0  0  0  0  0
   12.2965   14.7647   29.7101 O   0  0  0  0  0  0  0  0  0  0  0  0
   14.7652   15.3107   30.1843 O   0  0  0  0  0  0  0  0  0  0  0  0
   15.1962   14.3501   29.2641 C   0  0  0  0  0  0  0  0  0  0  0  0
   16.1780   13.5483   29.8620 C   0  0  1  0  0  0  0  0  0  0  0  0
   16.5123   12.4219   28.9362 O   0  0  0  0  0  0  0  0  0  0  0  0
   17.5747   14.3022   30.0649 C   0  0  1  0  0  0  0  0  0  0  0  0
   18.1153   13.8731   31.4058 O   0  0  0  0  0  0  0  0  0  0  0  0
   18.3075   13.9404   29.0812 C   0  0  1  0  0  0  0  0  0  0  0  0
   19.7577   13.9062   29.3812 O   0  0  0  0  0  0  0  0  0  0  0  0
   17.8247   12.3898   28.8636 C   0  0  2  0  0  0  0  0  0  0  0  0
   18.1022   11.7893   27.6194 N   0  0  0  0  0  0  0  0  0  0  0  0
   18.1153   10.3142   27.5766 C   0  0  0  0  0  0  0  0  0  0  0  0
   17.9559    9.6760   28.5650 O   0  0  0  0  0  0  0  0  0  0  0  0
   18.3489    9.6478   26.2944 N   0  0  0  0  0  0  0  0  0  0  0  0
   18.5433   10.3953   25.0915 C   0  0  0  0  0  0  0  0  0  0  0  0
   18.7591    9.7043   23.8630 N   0  0  0  0  0  0  0  0  0  0  0  0
   18.5076   11.8731   25.1248 C   0  0  0  0  0  0  0  0  0  0  0  0
   18.2810   12.5338   26.4029 C   0  0  0  0  0  0  0  0  0  0  0  0
   14.3446   13.7239   28.9597 H   0  0  0  0  0  0  0  0  0  0  0  0
   15.6152   14.8488   28.3777 H   0  0  0  0  0  0  0  0  0  0  0  0
   15.7599   13.2417   30.8322 H   0  0  0  0  0  0  0  0  0  0  0  0
   17.5127   15.4005   30.0721 H   0  0  0  0  0  0  0  0  0  0  0  0
   17.5836   14.2952   32.1264 H   0  0  0  0  0  0  0  0  0  0  0  0
   18.1952   14.6335   28.2344 H   0  0  0  0  0  0  0  0  0  0  0  0
   19.8917   13.9030   30.3620 H   0  0  0  0  0  0  0  0  0  0  0  0
   18.3721   11.8013   29.6146 H   0  0  0  0  0  0  0  0  0  0  0  0
   18.9001   10.2349   22.9915 H   0  0  0  0  0  0  0  0  0  0  0  0
   18.7739    8.6745   23.8470 H   0  0  0  0  0  0  0  0  0  0  0  0
   18.6488   12.4601   24.2053 H   0  0  0  0  0  0  0  0  0  0  0  0
   18.2458   13.6327   26.4382 H   0  0  0  0  0  0  0  0  0  0  0  0
  2  1  1  1
  2  3  2  0
  2  4  1  0
  2  5  1  0
  5  6  1  0
  6  7  2  0
  6  8  1  6
  6  9  1  0
  9 10  1  0
 11 10  1  0
 11 12  1  0
 11 13  1  0
 12 17  1  0
 13 14  1  0
 13 15  1  0
 15 16  1  0
 15 17  1  0
 17 18  1  0
 18 19  1  0
 18 25  1  0
 19 20  2  0
 19 21  1  0
 21 22  2  0
 22 23  1  0
 22 24  1  0
 24 25  2  0
 10 26  1  0
 10 27  1  0
 11 28  1  1
 13 29  1  1
 14 30  1  0
 15 31  1  6
 16 32  1  0
 17 33  1  1
 23 34  1  0
 23 35  1  0
 24 36  1  0
 25 37  1  0
M  CHG  3   1  -1   4  -1   8  -1
M  END
>  <filename_input>  (9) 
7O0N_CDP_docked.sdf

>  <pdb_id>  (9) 
7O0N_CDP

>  <pose_rank>  (9) 
8

>  <num_atoms_heavy>  (9) 
25

>  <num_torsions>  (9) 
6

>  <pose>  (9) 
[16.177962575702853, 13.548274172336306, 29.86201178045706, 1.5647319295944084, -1.0003934542174724, 0.36348290058141597, 0.22466290231157787, 0.00322880584493751, 0.04619327306407817, 1.824811265271679, 2.5131819050619617, 1.3825087704401404]

>  <energy>  (9) 
-275.3196807943811

>  <inter_energy>  (9) 
-282.55094170112784

>  <intra_energy>  (9) 
2.286979432507116

>  <rmsd>  (9) 
9.29303

>  <sdf_rank>  (9) 
0

$$$$

     RDKit          3D

 37 38  0  0  0  0  0  0  0  0999 V2000
   10.8545   18.0112   31.3908 O   0  0  0  0  0  0  0  0  0  0  0  0
   11.3301   16.8364   32.2296 P   0  0  1  0  0  0  0  0  0  0  0  0
   11.3467   17.2412   33.6560 O   0  0  0  0  0  0  0  0  0  0  0  0
   10.3706   15.6959   31.9671 O   0  0  0  0  0  0  0  0  0  0  0  0
   12.7802   16.4260   31.6181 O   0  0  0  0  0  0  0  0  0  0  0  0
   13.1506   15.8613   30.1469 P   0  0  2  0  0  0  0  0  0  0  0  0
   12.8560   16.7884   29.0165 O   0  0  0  0  0  0  0  0  0  0  0  0
   12.4236   14.5626   30.0170 O   0  0  0  0  0  0  0  0  0  0  0  0
   14.7803   15.5899   30.1066 O   0  0  0  0  0  0  0  0  0  0  0  0
   15.2409   14.3592   29.6287 C   0  0  0  0  0  0  0  0  0  0  0  0
   16.6185   14.4464   29.3861 C   0  0  1  0  0  0  0  0  0  0  0  0
   17.3467   14.3392   30.6884 O   0  0  0  0  0  0  0  0  0  0  0  0
   17.1895   13.2222   28.5283 C   0  0  1  0  0  0  0  0  0  0  0  0
   18.2009   13.7933   27.5663 O   0  0  0  0  0  0  0  0  0  0  0  0
   17.6964   12.4126   29.3786 C   0  0  1  0  0  0  0  0  0  0  0  0
   18.8392   11.6235   28.8633 O   0  0  0  0  0  0  0  0  0  0  0  0
   18.2928   13.4455   30.5020 C   0  0  2  0  0  0  0  0  0  0  0  0
   18.5590   12.9293   31.7859 N   0  0  0  0  0  0  0  0  0  0  0  0
   19.7096   13.5014   32.5117 C   0  0  0  0  0  0  0  0  0  0  0  0
   20.4058   14.3167   32.0014 O   0  0  0  0  0  0  0  0  0  0  0  0
   19.9923   13.0310   33.8687 N   0  0  0  0  0  0  0  0  0  0  0  0
   19.1683   12.0503   34.5033 C   0  0  0  0  0  0  0  0  0  0  0  0
   19.4757   11.6275   35.8300 N   0  0  0  0  0  0  0  0  0  0  0  0
   18.0003   11.4913   33.7895 C   0  0  0  0  0  0  0  0  0  0  0  0
   17.7248   11.9566   32.4370 C   0  0  0  0  0  0  0  0  0  0  0  0
   15.0479   13.5777   30.3784 H   0  0  0  0  0  0  0  0  0  0  0  0
   14.7163   14.1047   28.6959 H   0  0  0  0  0  0  0  0  0  0  0  0
   16.7656   15.3956   28.8501 H   0  0  0  0  0  0  0  0  0  0  0  0
   16.4385   12.6823   27.9329 H   0  0  0  0  0  0  0  0  0  0  0  0
   18.9407   14.2109   28.0747 H   0  0  0  0  0  0  0  0  0  0  0  0
   16.9503   11.6748   29.7089 H   0  0  0  0  0  0  0  0  0  0  0  0
   19.3610   11.2632   29.6236 H   0  0  0  0  0  0  0  0  0  0  0  0
   19.2599   13.7881   30.1052 H   0  0  0  0  0  0  0  0  0  0  0  0
   18.8874   10.9213   36.2948 H   0  0  0  0  0  0  0  0  0  0  0  0
   20.2862   12.0283   36.3234 H   0  0  0  0  0  0  0  0  0  0  0  0
   17.3541   10.7412   34.2688 H   0  0  0  0  0  0  0  0  0  0  0  0
   16.8546   11.5524   31.8991 H   0  0  0  0  0  0  0  0  0  0  0  0
  2  1  1  6
  2  3  2  0
  2  4  1  0
  2  5  1  0
  5  6  1  0
  6  7  2  0
  6  8  1  6
  6  9  1  0
  9 10  1  0
 11 10  1  0
 11 12  1  0
 11 13  1  0
 12 17  1  0
 13 14  1  0
 13 15  1  0
 15 16  1  0
 15 17  1  0
 17 18  1  0
 18 19  1  0
 18 25  1  0
 19 20  2  0
 19 21  1  0
 21 22  2  0
 22 23  1  0
 22 24  1  0
 24 25  2  0
 10 26  1  0
 10 27  1  0
 11 28  1  6
 13 29  1  6
 14 30  1  0
 15 31  1  1
 16 32  1  0
 17 33  1  6
 23 34  1  0
 23 35  1  0
 24 36  1  0
 25 37  1  0
M  CHG  3   1  -1   4  -1   8  -1
M  END
>  <filename_input>  (10) 
7O0N_CDP_docked.sdf

>  <pdb_id>  (10) 
7O0N_CDP

>  <pose_rank>  (10) 
9

>  <num_atoms_heavy>  (10) 
25

>  <num_torsions>  (10) 
6

>  <pose>  (10) 
[16.618488624748686, 14.44638690392597, 29.386095269760546, -0.5228483295369004, 0.43607489587493153, 0.33279283338232896, 4.989763905066571e-05, -1.649677471087026, -0.6905231683047558, 1.420269785053977, 2.1721794843729163, -3.318528856806736]

>  <energy>  (10) 
-317.02871545851764

>  <inter_energy>  (10) 
-313.70264101553556

>  <intra_energy>  (10) 
3.945070387319957

>  <rmsd>  (10) 
8.52803

>  <sdf_rank>  (10) 
0

$$$$

     RDKit          3D

 37 38  0  0  0  0  0  0  0  0999 V2000
   11.2207   18.5776   31.3104 O   0  0  0  0  0  0  0  0  0  0  0  0
   10.4038   17.5556   30.5370 P   0  0  1  0  0  0  0  0  0  0  0  0
    9.2464   17.1406   31.3657 O   0  0  0  0  0  0  0  0  0  0  0  0
    9.9772   18.2234   29.2476 O   0  0  0  0  0  0  0  0  0  0  0  0
   11.4431   16.3609   30.1661 O   0  0  0  0  0  0  0  0  0  0  0  0
   13.0113   16.4501   29.7746 P   0  0  2  0  0  0  0  0  0  0  0  0
   13.8559   17.2494   30.7082 O   0  0  0  0  0  0  0  0  0  0  0  0
   13.0505   16.9833   28.3795 O   0  0  0  0  0  0  0  0  0  0  0  0
   13.6249   14.9158   29.7982 O   0  0  0  0  0  0  0  0  0  0  0  0
   15.0117   14.7520   29.8688 C   0  0  0  0  0  0  0  0  0  0  0  0
   15.3237   13.3958   29.7022 C   0  0  1  0  0  0  0  0  0  0  0  0
   15.9378   13.2032   28.3518 O   0  0  0  0  0  0  0  0  0  0  0  0
   16.4517   12.8766   30.7113 C   0  0  1  0  0  0  0  0  0  0  0  0
   16.0448   11.4926   31.1513 O   0  0  0  0  0  0  0  0  0  0  0  0
   17.5446   12.8988   30.0474 C   0  0  1  0  0  0  0  0  0  0  0  0
   18.5298   11.8725   30.4599 O   0  0  0  0  0  0  0  0  0  0  0  0
   17.0268   12.4928   28.5468 C   0  0  2  0  0  0  0  0  0  0  0  0
   17.8647   12.8117   27.4598 N   0  0  0  0  0  0  0  0  0  0  0  0
   18.5398   14.1236   27.4978 C   0  0  0  0  0  0  0  0  0  0  0  0
   18.3310   14.8893   28.3809 O   0  0  0  0  0  0  0  0  0  0  0  0
   19.4591   14.4755   26.4144 N   0  0  0  0  0  0  0  0  0  0  0  0
   19.7258   13.5699   25.3409 C   0  0  0  0  0  0  0  0  0  0  0  0
   20.6354   13.9510   24.3109 N   0  0  0  0  0  0  0  0  0  0  0  0
   19.0704   12.2449   25.3105 C   0  0  0  0  0  0  0  0  0  0  0  0
   18.1514   11.8997   26.3865 C   0  0  0  0  0  0  0  0  0  0  0  0
   15.4928   15.3408   29.0740 H   0  0  0  0  0  0  0  0  0  0  0  0
   15.3757   15.0978   30.8476 H   0  0  0  0  0  0  0  0  0  0  0  0
   14.3810   12.8526   29.8638 H   0  0  0  0  0  0  0  0  0  0  0  0
   16.5788   13.4854   31.6186 H   0  0  0  0  0  0  0  0  0  0  0  0
   16.0326   11.4510   32.1403 H   0  0  0  0  0  0  0  0  0  0  0  0
   18.0548   13.8660   30.1668 H   0  0  0  0  0  0  0  0  0  0  0  0
   18.5693   11.8314   31.4482 H   0  0  0  0  0  0  0  0  0  0  0  0
   16.9377   11.3964   28.5512 H   0  0  0  0  0  0  0  0  0  0  0  0
   20.8335   13.3048   23.5337 H   0  0  0  0  0  0  0  0  0  0  0  0
   21.0944   14.8725   24.3442 H   0  0  0  0  0  0  0  0  0  0  0  0
   19.2721   11.5361   24.4939 H   0  0  0  0  0  0  0  0  0  0  0  0
   17.6633   10.9139   26.3774 H   0  0  0  0  0  0  0  0  0  0  0  0
  2  1  1  1
  2  3  2  0
  2  4  1  0
  2  5  1  0
  5  6  1  0
  6  7  2  0
  6  8  1  6
  6  9  1  0
  9 10  1  0
 11 10  1  0
 11 12  1  0
 11 13  1  0
 12 17  1  0
 13 14  1  0
 13 15  1  0
 15 16  1  0
 15 17  1  0
 17 18  1  0
 18 19  1  0
 18 25  1  0
 19 20  2  0
 19 21  1  0
 21 22  2  0
 22 23  1  0
 22 24  1  0
 24 25  2  0
 10 26  1  0
 10 27  1  0
 11 28  1  6
 13 29  1  1
 14 30  1  0
 15 31  1  6
 16 32  1  0
 17 33  1  1
 23 34  1  0
 23 35  1  0
 24 36  1  0
 25 37  1  0
M  CHG  3   1  -1   4  -1   8  -1
M  END
>  <filename_input>  (11) 
7O0N_CDP_docked.sdf

>  <pdb_id>  (11) 
7O0N_CDP

>  <pose_rank>  (11) 
10

>  <num_atoms_heavy>  (11) 
25

>  <num_torsions>  (11) 
6

>  <pose>  (11) 
[15.323749304391159, 13.395800429632818, 29.70215125248358, -2.3861227944278043, 2.4410316887400096, 0.0978732082096439, 3.021474613209687, -1.1392225131945806, -0.31990431356431787, 2.5893030251088627, -4.327998581684606, 3.4507353522442186]

>  <energy>  (11) 
-298.0288468359077

>  <inter_energy>  (11) 
-314.3171075822535

>  <intra_energy>  (11) 
34.847502557608365

>  <rmsd>  (11) 
8.79274

>  <sdf_rank>  (11) 
0

$$$$

     RDKit          3D

 37 38  0  0  0  0  0  0  0  0999 V2000
   10.9005   17.2023   30.2974 O   0  0  0  0  0  0  0  0  0  0  0  0
   10.8669   15.9965   31.2220 P   0  0  1  0  0  0  0  0  0  0  0  0
   10.1831   14.8788   30.5278 O   0  0  0  0  0  0  0  0  0  0  0  0
   12.3043   15.6677   31.5629 O   0  0  0  0  0  0  0  0  0  0  0  0
   10.1321   16.5110   32.5787 O   0  0  0  0  0  0  0  0  0  0  0  0
   10.2790   17.9257   33.3516 P   0  0  2  0  0  0  0  0  0  0  0  0
    9.8700   19.1256   32.5661 O   0  0  0  0  0  0  0  0  0  0  0  0
   11.7040   17.9988   33.7946 O   0  0  0  0  0  0  0  0  0  0  0  0
    9.2895   17.8826   34.6746 O   0  0  0  0  0  0  0  0  0  0  0  0
    9.8509   18.1031   35.9360 C   0  0  0  0  0  0  0  0  0  0  0  0
    9.3491   19.3024   36.4596 C   0  0  1  0  0  0  0  0  0  0  0  0
    7.8821   19.1458   36.7071 O   0  0  0  0  0  0  0  0  0  0  0  0
    9.9426   19.6618   37.9014 C   0  0  1  0  0  0  0  0  0  0  0  0
   10.1804   21.1509   37.9203 O   0  0  0  0  0  0  0  0  0  0  0  0
    9.0601   19.2766   38.7430 C   0  0  1  0  0  0  0  0  0  0  0  0
    9.0180   20.0739   39.9907 O   0  0  0  0  0  0  0  0  0  0  0  0
    7.6719   19.5841   37.9287 C   0  0  2  0  0  0  0  0  0  0  0  0
    6.5053   18.9185   38.3547 N   0  0  0  0  0  0  0  0  0  0  0  0
    5.2184   19.4326   37.8468 C   0  0  0  0  0  0  0  0  0  0  0  0
    5.1791   20.3996   37.1590 O   0  0  0  0  0  0  0  0  0  0  0  0
    3.9846   18.7405   38.2228 N   0  0  0  0  0  0  0  0  0  0  0  0
    4.0074   17.5747   39.0498 C   0  0  0  0  0  0  0  0  0  0  0  0
    2.7816   16.9272   39.3840 N   0  0  0  0  0  0  0  0  0  0  0  0
    5.2959   17.0417   39.5418 C   0  0  0  0  0  0  0  0  0  0  0  0
    6.5216   17.7358   39.1713 C   0  0  0  0  0  0  0  0  0  0  0  0
    9.5890   17.2709   36.6060 H   0  0  0  0  0  0  0  0  0  0  0  0
   10.9455   18.1672   35.8478 H   0  0  0  0  0  0  0  0  0  0  0  0
    9.6148   20.0794   35.7277 H   0  0  0  0  0  0  0  0  0  0  0  0
   10.8978   19.1737   38.1451 H   0  0  0  0  0  0  0  0  0  0  0  0
   10.2306   21.4652   38.8578 H   0  0  0  0  0  0  0  0  0  0  0  0
    9.2474   18.2396   39.0588 H   0  0  0  0  0  0  0  0  0  0  0  0
    9.0501   19.4664   40.7717 H   0  0  0  0  0  0  0  0  0  0  0  0
    7.4783   20.6578   38.0690 H   0  0  0  0  0  0  0  0  0  0  0  0
    2.7888   16.0867   39.9793 H   0  0  0  0  0  0  0  0  0  0  0  0
    1.8891   17.3001   39.0300 H   0  0  0  0  0  0  0  0  0  0  0  0
    5.3280   16.1415   40.1731 H   0  0  0  0  0  0  0  0  0  0  0  0
    7.4863   17.3440   39.5261 H   0  0  0  0  0  0  0  0  0  0  0  0
  2  1  1  6
  2  3  2  0
  2  4  1  0
  2  5  1  0
  5  6  1  0
  6  7  2  0
  6  8  1  1
  6  9  1  0
  9 10  1  0
 11 10  1  0
 11 12  1  0
 11 13  1  0
 12 17  1  0
 13 14  1  0
 13 15  1  0
 15 16  1  0
 15 17  1  0
 17 18  1  0
 18 19  1  0
 18 25  1  0
 19 20  2  0
 19 21  1  0
 21 22  2  0
 22 23  1  0
 22 24  1  0
 24 25  2  0
 10 26  1  0
 10 27  1  0
 11 28  1  6
 13 29  1  1
 14 30  1  0
 15 31  1  1
 16 32  1  0
 17 33  1  6
 23 34  1  0
 23 35  1  0
 24 36  1  0
 25 37  1  0
M  CHG  3   1  -1   4  -1   8  -1
M  END
>  <filename_input>  (12) 
7O0N_CDP_docked.sdf

>  <pdb_id>  (12) 
7O0N_CDP

>  <pose_rank>  (12) 
11

>  <num_atoms_heavy>  (12) 
25

>  <num_torsions>  (12) 
6

>  <pose>  (12) 
[9.349057932948181, 19.302402253432057, 36.45956398778896, 2.4067523812646945, 2.9355157192629826, -1.3445433162428517, 0.3409047999586402, -1.8698109750873064, 4.674161003950672, 1.288372904270404, 2.151313098466246, 3.385471857567139]

>  <energy>  (12) 
-208.68197078587826

>  <inter_energy>  (12) 
-220.75087812957548

>  <intra_energy>  (12) 
7.003869078612636

>  <rmsd>  (12) 
9.13854

>  <sdf_rank>  (12) 
0

$$$$

     RDKit          3D

 37 38  0  0  0  0  0  0  0  0999 V2000
   19.5274   12.6587   21.8133 O   0  0  0  0  0  0  0  0  0  0  0  0
   18.6792   11.5753   22.4589 P   0  0  1  0  0  0  0  0  0  0  0  0
   17.4137   11.4400   21.6980 O   0  0  0  0  0  0  0  0  0  0  0  0
   19.5020   10.3053   22.4360 O   0  0  0  0  0  0  0  0  0  0  0  0
   18.4997   12.0317   24.0095 O   0  0  0  0  0  0  0  0  0  0  0  0
   18.3997   11.1189   25.3426 P   0  0  2  0  0  0  0  0  0  0  0  0
   19.6692   10.4542   25.7556 O   0  0  0  0  0  0  0  0  0  0  0  0
   17.3065   10.1353   25.0787 O   0  0  0  0  0  0  0  0  0  0  0  0
   17.9671   12.1041   26.5970 O   0  0  0  0  0  0  0  0  0  0  0  0
   18.5401   11.8781   27.8522 C   0  0  0  0  0  0  0  0  0  0  0  0
   17.5263   11.5865   28.7750 C   0  0  1  0  0  0  0  0  0  0  0  0
   18.1036   11.6199   30.1545 O   0  0  0  0  0  0  0  0  0  0  0  0
   16.3714   12.6931   28.8182 C   0  0  1  0  0  0  0  0  0  0  0  0
   15.0629   11.9577   28.9650 O   0  0  0  0  0  0  0  0  0  0  0  0
   16.6492   13.4421   29.8169 C   0  0  1  0  0  0  0  0  0  0  0  0
   15.4668   14.0443   30.4752 O   0  0  0  0  0  0  0  0  0  0  0  0
   17.2884   12.3623   30.8706 C   0  0  2  0  0  0  0  0  0  0  0  0
   18.0858   12.8667   31.9172 N   0  0  0  0  0  0  0  0  0  0  0  0
   17.8233   12.3414   33.2712 C   0  0  0  0  0  0  0  0  0  0  0  0
   16.9386   11.5734   33.4642 O   0  0  0  0  0  0  0  0  0  0  0  0
   18.6615   12.7995   34.3803 N   0  0  0  0  0  0  0  0  0  0  0  0
   19.7322   13.7236   34.1719 C   0  0  0  0  0  0  0  0  0  0  0  0
   20.5289   14.1361   35.2802 N   0  0  0  0  0  0  0  0  0  0  0  0
   20.0144   14.2347   32.8135 C   0  0  0  0  0  0  0  0  0  0  0  0
   19.1750   13.7820   31.7126 C   0  0  0  0  0  0  0  0  0  0  0  0
   19.2374   11.0296   27.7912 H   0  0  0  0  0  0  0  0  0  0  0  0
   19.0879   12.7754   28.1758 H   0  0  0  0  0  0  0  0  0  0  0  0
   17.1170   10.6127   28.4678 H   0  0  0  0  0  0  0  0  0  0  0  0
   16.2959   13.3208   27.9180 H   0  0  0  0  0  0  0  0  0  0  0  0
   14.8558   11.8413   29.9261 H   0  0  0  0  0  0  0  0  0  0  0  0
   17.2805   14.2881   29.5074 H   0  0  0  0  0  0  0  0  0  0  0  0
   15.5730   13.9902   31.4580 H   0  0  0  0  0  0  0  0  0  0  0  0
   16.4283   11.8735   31.3516 H   0  0  0  0  0  0  0  0  0  0  0  0
   21.3023   14.8015   35.1391 H   0  0  0  0  0  0  0  0  0  0  0  0
   20.3310   13.7685   36.2218 H   0  0  0  0  0  0  0  0  0  0  0  0
   20.8395   14.9408   32.6382 H   0  0  0  0  0  0  0  0  0  0  0  0
   19.3802   14.1507   30.6968 H   0  0  0  0  0  0  0  0  0  0  0  0
  2  1  1  6
  2  3  2  0
  2  4  1  0
  2  5  1  0
  5  6  1  0
  6  7  2  0
  6  8  1  6
  6  9  1  0
  9 10  1  0
 11 10  1  0
 11 12  1  0
 11 13  1  0
 12 17  1  0
 13 14  1  0
 13 15  1  0
 15 16  1  0
 15 17  1  0
 17 18  1  0
 18 19  1  0
 18 25  1  0
 19 20  2  0
 19 21  1  0
 21 22  2  0
 22 23  1  0
 22 24  1  0
 24 25  2  0
 10 26  1  0
 10 27  1  0
 11 28  1  6
 13 29  1  6
 14 30  1  0
 15 31  1  6
 16 32  1  0
 17 33  1  1
 23 34  1  0
 23 35  1  0
 24 36  1  0
 25 37  1  0
M  CHG  3   1  -1   4  -1   8  -1
M  END
>  <filename_input>  (13) 
7O0N_CDP_docked.sdf

>  <pdb_id>  (13) 
7O0N_CDP

>  <pose_rank>  (13) 
12

>  <num_atoms_heavy>  (13) 
25

>  <num_torsions>  (13) 
6

>  <pose>  (13) 
[17.52626228915727, 11.58645060097501, 28.774953147565302, -0.6893486783560212, 0.990729395191538, -2.6942745850567444, -0.21658520060331454, 0.32230810173443236, 0.6036781567518916, 2.9410209254617286, 2.3165022665940347, 1.5317748234500972]

>  <energy>  (13) 
-208.65080046621392

>  <inter_energy>  (13) 
-202.58501516535003

>  <intra_energy>  (13) 
0.15917140067357075

>  <rmsd>  (13) 
12.2844

>  <sdf_rank>  (13) 
0

$$$$

     RDKit          3D

 37 38  0  0  0  0  0  0  0  0999 V2000
   11.7733   18.3679   31.2024 O   0  0  0  0  0  0  0  0  0  0  0  0
   11.9041   17.3720   32.3431 P   0  0  1  0  0  0  0  0  0  0  0  0
   11.5216   16.0265   31.8511 O   0  0  0  0  0  0  0  0  0  0  0  0
   13.3436   17.4264   32.8071 O   0  0  0  0  0  0  0  0  0  0  0  0
   10.9670   17.9555   33.5375 O   0  0  0  0  0  0  0  0  0  0  0  0
    9.3574   17.8982   33.6995 P   0  0  2  0  0  0  0  0  0  0  0  0
    8.7528   16.5408   33.5732 O   0  0  0  0  0  0  0  0  0  0  0  0
    8.8145   18.8552   32.6887 O   0  0  0  0  0  0  0  0  0  0  0  0
    8.9845   18.4282   35.2198 O   0  0  0  0  0  0  0  0  0  0  0  0
    9.7963   19.4052   35.8044 C   0  0  0  0  0  0  0  0  0  0  0  0
   10.0202   19.0736   37.1477 C   0  0  1  0  0  0  0  0  0  0  0  0
   11.1132   19.9423   37.6845 O   0  0  0  0  0  0  0  0  0  0  0  0
    8.7738   19.3990   38.0969 C   0  0  1  0  0  0  0  0  0  0  0  0
    8.6638   18.2632   39.0830 O   0  0  0  0  0  0  0  0  0  0  0  0
    9.0416   20.5237   38.6436 C   0  0  1  0  0  0  0  0  0  0  0  0
    8.4640   20.6970   39.9966 O   0  0  0  0  0  0  0  0  0  0  0  0
   10.6671   20.4236   38.8238 C   0  0  2  0  0  0  0  0  0  0  0  0
   11.3774   21.6263   39.0098 N   0  0  0  0  0  0  0  0  0  0  0  0
   12.7383   21.5197   39.5708 C   0  0  0  0  0  0  0  0  0  0  0  0
   13.1790   20.4677   39.9007 O   0  0  0  0  0  0  0  0  0  0  0  0
   13.5316   22.7390   39.7336 N   0  0  0  0  0  0  0  0  0  0  0  0
   13.0220   24.0164   39.3436 C   0  0  0  0  0  0  0  0  0  0  0  0
   13.8332   25.1769   39.5123 N   0  0  0  0  0  0  0  0  0  0  0  0
   11.6682   24.1257   38.7590 C   0  0  0  0  0  0  0  0  0  0  0  0
   10.8785   22.9117   38.6038 C   0  0  0  0  0  0  0  0  0  0  0  0
   10.7575   19.4521   35.2717 H   0  0  0  0  0  0  0  0  0  0  0  0
    9.2992   20.3845   35.7431 H   0  0  0  0  0  0  0  0  0  0  0  0
   10.2399   17.9958   37.1543 H   0  0  0  0  0  0  0  0  0  0  0  0
    7.8059   19.4804   37.5806 H   0  0  0  0  0  0  0  0  0  0  0  0
    8.6986   18.6222   40.0050 H   0  0  0  0  0  0  0  0  0  0  0  0
    8.6450   21.3549   38.0422 H   0  0  0  0  0  0  0  0  0  0  0  0
    9.1520   20.4905   40.6780 H   0  0  0  0  0  0  0  0  0  0  0  0
   10.8277   19.8309   39.7364 H   0  0  0  0  0  0  0  0  0  0  0  0
   13.4739   26.1012   39.2340 H   0  0  0  0  0  0  0  0  0  0  0  0
   14.7784   25.0908   39.9123 H   0  0  0  0  0  0  0  0  0  0  0  0
   11.2667   25.1016   38.4484 H   0  0  0  0  0  0  0  0  0  0  0  0
    9.8727   22.9805   38.1638 H   0  0  0  0  0  0  0  0  0  0  0  0
  2  1  1  6
  2  3  2  0
  2  4  1  0
  2  5  1  0
  5  6  1  0
  6  7  2  0
  6  8  1  6
  6  9  1  0
  9 10  1  0
 11 10  1  0
 11 12  1  0
 11 13  1  0
 12 17  1  0
 13 14  1  0
 13 15  1  0
 15 16  1  0
 15 17  1  0
 17 18  1  0
 18 19  1  0
 18 25  1  0
 19 20  2  0
 19 21  1  0
 21 22  2  0
 22 23  1  0
 22 24  1  0
 24 25  2  0
 10 26  1  0
 10 27  1  0
 11 28  1  6
 13 29  1  6
 14 30  1  0
 15 31  1  6
 16 32  1  0
 17 33  1  1
 23 34  1  0
 23 35  1  0
 24 36  1  0
 25 37  1  0
M  CHG  3   1  -1   4  -1   8  -1
M  END
>  <filename_input>  (14) 
7O0N_CDP_docked.sdf

>  <pdb_id>  (14) 
7O0N_CDP

>  <pose_rank>  (14) 
13

>  <num_atoms_heavy>  (14) 
25

>  <num_torsions>  (14) 
6

>  <pose>  (14) 
[10.020231466520801, 19.073585931953613, 37.14765821753892, 2.443590648562199, -0.5960452847425871, 2.5607955619816463, 0.27699283953436926, -0.08761164372874795, 0.28701979747311346, -0.29696244178771397, 1.9905814216167559, -0.845189413133612]

>  <energy>  (14) 
-153.0507590924178

>  <inter_energy>  (14) 
-151.1154185455018

>  <intra_energy>  (14) 
3.5971299814055633

>  <rmsd>  (14) 
9.52136

>  <sdf_rank>  (14) 
0

$$$$

     RDKit          3D

 37 38  0  0  0  0  0  0  0  0999 V2000
   20.6640   18.7834   38.4294 O   0  0  0  0  0  0  0  0  0  0  0  0
   19.1922   18.5344   38.1434 P   0  0  1  0  0  0  0  0  0  0  0  0
   18.4217   19.7494   38.5021 O   0  0  0  0  0  0  0  0  0  0  0  0
   19.0842   18.1993   36.6715 O   0  0  0  0  0  0  0  0  0  0  0  0
   18.8048   17.2030   38.9933 O   0  0  0  0  0  0  0  0  0  0  0  0
   17.8519   15.9620   38.5780 P   0  0  2  0  0  0  0  0  0  0  0  0
   16.5702   16.3378   37.9146 O   0  0  0  0  0  0  0  0  0  0  0  0
   17.6314   15.1830   39.8337 O   0  0  0  0  0  0  0  0  0  0  0  0
   18.6787   15.0339   37.4889 O   0  0  0  0  0  0  0  0  0  0  0  0
   18.0470   14.6881   36.2903 C   0  0  0  0  0  0  0  0  0  0  0  0
   17.7885   13.3106   36.2874 C   0  0  1  0  0  0  0  0  0  0  0  0
   17.2727   12.9182   34.9392 O   0  0  0  0  0  0  0  0  0  0  0  0
   19.1048   12.4185   36.4662 C   0  0  1  0  0  0  0  0  0  0  0  0
   18.7372   11.2685   37.3700 O   0  0  0  0  0  0  0  0  0  0  0  0
   19.4361   12.0529   35.2863 C   0  0  1  0  0  0  0  0  0  0  0  0
   20.1208   10.7409   35.2240 O   0  0  0  0  0  0  0  0  0  0  0  0
   17.9714   11.8653   34.5762 C   0  0  2  0  0  0  0  0  0  0  0  0
   17.9246   11.8697   33.1679 N   0  0  0  0  0  0  0  0  0  0  0  0
   16.8689   11.0584   32.5310 C   0  0  0  0  0  0  0  0  0  0  0  0
   16.1370   10.3911   33.1858 O   0  0  0  0  0  0  0  0  0  0  0  0
   16.7511   11.0738   31.0721 N   0  0  0  0  0  0  0  0  0  0  0  0
   17.6210   11.8693   30.2634 C   0  0  0  0  0  0  0  0  0  0  0  0
   17.4646   11.8606   28.8461 N   0  0  0  0  0  0  0  0  0  0  0  0
   18.6650   12.7023   30.8979 C   0  0  0  0  0  0  0  0  0  0  0  0
   18.7840   12.6805   32.3493 C   0  0  0  0  0  0  0  0  0  0  0  0
   17.1000   15.2405   36.2006 H   0  0  0  0  0  0  0  0  0  0  0  0
   18.6983   14.9441   35.4416 H   0  0  0  0  0  0  0  0  0  0  0  0
   17.0892   13.1384   37.1189 H   0  0  0  0  0  0  0  0  0  0  0  0
   19.9585   12.9377   36.9263 H   0  0  0  0  0  0  0  0  0  0  0  0
   18.8271   11.5496   38.3149 H   0  0  0  0  0  0  0  0  0  0  0  0
   20.1334   12.7741   34.8349 H   0  0  0  0  0  0  0  0  0  0  0  0
   20.2914   10.4138   36.1427 H   0  0  0  0  0  0  0  0  0  0  0  0
   17.6157   10.8727   34.8896 H   0  0  0  0  0  0  0  0  0  0  0  0
   18.0870   12.4308   28.2557 H   0  0  0  0  0  0  0  0  0  0  0  0
   16.7292   11.2842   28.4126 H   0  0  0  0  0  0  0  0  0  0  0  0
   19.3363   13.3243   30.2876 H   0  0  0  0  0  0  0  0  0  0  0  0
   19.5528   13.3015   32.8324 H   0  0  0  0  0  0  0  0  0  0  0  0
  2  1  1  6
  2  3  2  0
  2  4  1  0
  2  5  1  0
  5  6  1  0
  6  7  2  0
  6  8  1  1
  6  9  1  0
  9 10  1  0
 11 10  1  0
 11 12  1  0
 11 13  1  0
 12 17  1  0
 13 14  1  0
 13 15  1  0
 15 16  1  0
 15 17  1  0
 17 18  1  0
 18 19  1  0
 18 25  1  0
 19 20  2  0
 19 21  1  0
 21 22  2  0
 22 23  1  0
 22 24  1  0
 24 25  2  0
 10 26  1  0
 10 27  1  0
 11 28  1  1
 13 29  1  1
 14 30  1  0
 15 31  1  6
 16 32  1  0
 17 33  1  1
 23 34  1  0
 23 35  1  0
 24 36  1  0
 25 37  1  0
M  CHG  3   1  -1   4  -1   8  -1
M  END
>  <filename_input>  (15) 
7O0N_CDP_docked.sdf

>  <pdb_id>  (15) 
7O0N_CDP

>  <pose_rank>  (15) 
14

>  <num_atoms_heavy>  (15) 
25

>  <num_torsions>  (15) 
6

>  <pose>  (15) 
[17.788523290781647, 13.310574441303503, 36.2873871711938, -2.175038143090068, 3.162124006757862, 1.0772731458652172, 0.056874391675229265, 6.530598026479423, 19.59215805221569, 15.729615093858543, 6.591872104947617, 1.6265157989861143]

>  <energy>  (15) 
-205.693304250389

>  <inter_energy>  (15) 
-199.72461229770593

>  <intra_energy>  (15) 
0.8108533966698361

>  <rmsd>  (15) 
12.299

>  <sdf_rank>  (15) 
0

$$$$

     RDKit          3D

 37 38  0  0  0  0  0  0  0  0999 V2000
    6.9201   18.6521   20.4986 O   0  0  0  0  0  0  0  0  0  0  0  0
    5.9628   17.6081   21.0497 P   0  0  1  0  0  0  0  0  0  0  0  0
    5.7954   16.5323   20.0431 O   0  0  0  0  0  0  0  0  0  0  0  0
    6.5681   17.0987   22.3399 O   0  0  0  0  0  0  0  0  0  0  0  0
    4.6017   18.4190   21.4171 O   0  0  0  0  0  0  0  0  0  0  0  0
    3.0622   17.9231   21.3499 P   0  0  2  0  0  0  0  0  0  0  0  0
    2.5008   17.7744   19.9764 O   0  0  0  0  0  0  0  0  0  0  0  0
    2.2867   18.8976   22.1752 O   0  0  0  0  0  0  0  0  0  0  0  0
    2.9844   16.4251   22.0435 O   0  0  0  0  0  0  0  0  0  0  0  0
    2.2509   16.2729   23.2241 C   0  0  0  0  0  0  0  0  0  0  0  0
    2.0491   14.9074   23.4675 C   0  0  1  0  0  0  0  0  0  0  0  0
    3.0521   14.1229   22.6825 O   0  0  0  0  0  0  0  0  0  0  0  0
    2.3369   14.4849   24.9838 C   0  0  1  0  0  0  0  0  0  0  0  0
    1.2785   13.4821   25.3692 O   0  0  0  0  0  0  0  0  0  0  0  0
    3.5212   14.0020   24.9880 C   0  0  1  0  0  0  0  0  0  0  0  0
    3.7499   12.9566   26.0121 O   0  0  0  0  0  0  0  0  0  0  0  0
    3.5813   13.2644   23.5261 C   0  0  2  0  0  0  0  0  0  0  0  0
    4.8536   12.9742   22.9944 N   0  0  0  0  0  0  0  0  0  0  0  0
    5.4825   11.7079   23.4173 C   0  0  0  0  0  0  0  0  0  0  0  0
    4.9553   11.0041   24.2151 O   0  0  0  0  0  0  0  0  0  0  0  0
    6.7815   11.3417   22.8506 N   0  0  0  0  0  0  0  0  0  0  0  0
    7.4352   12.1732   21.8889 C   0  0  0  0  0  0  0  0  0  0  0  0
    8.6960   11.7729   21.3566 N   0  0  0  0  0  0  0  0  0  0  0  0
    6.7983   13.4312   21.4440 C   0  0  0  0  0  0  0  0  0  0  0  0
    5.5086   13.7963   22.0140 C   0  0  0  0  0  0  0  0  0  0  0  0
    2.8065   16.7181   24.0626 H   0  0  0  0  0  0  0  0  0  0  0  0
    1.2790   16.7783   23.1236 H   0  0  0  0  0  0  0  0  0  0  0  0
    0.9992   14.7114   23.2044 H   0  0  0  0  0  0  0  0  0  0  0  0
    2.2901   15.3080   25.7120 H   0  0  0  0  0  0  0  0  0  0  0  0
    1.2201   13.4267   26.3560 H   0  0  0  0  0  0  0  0  0  0  0  0
    4.2629   14.7877   25.1940 H   0  0  0  0  0  0  0  0  0  0  0  0
    3.6629   13.3542   26.9146 H   0  0  0  0  0  0  0  0  0  0  0  0
    3.0802   12.2948   23.6630 H   0  0  0  0  0  0  0  0  0  0  0  0
    9.1740   12.3659   20.6633 H   0  0  0  0  0  0  0  0  0  0  0  0
    9.1288   10.8907   21.6655 H   0  0  0  0  0  0  0  0  0  0  0  0
    7.2873   14.0767   20.6995 H   0  0  0  0  0  0  0  0  0  0  0  0
    5.0225   14.7267   21.6852 H   0  0  0  0  0  0  0  0  0  0  0  0
  2  1  1  6
  2  3  2  0
  2  4  1  0
  2  5  1  0
  5  6  1  0
  6  7  2  0
  6  8  1  1
  6  9  1  0
  9 10  1  0
 11 10  1  0
 11 12  1  0
 11 13  1  0
 12 17  1  0
 13 14  1  0
 13 15  1  0
 15 16  1  0
 15 17  1  0
 17 18  1  0
 18 19  1  0
 18 25  1  0
 19 20  2  0
 19 21  1  0
 21 22  2  0
 22 23  1  0
 22 24  1  0
 24 25  2  0
 10 26  1  0
 10 27  1  0
 11 28  1  6
 13 29  1  1
 14 30  1  0
 15 31  1  6
 16 32  1  0
 17 33  1  1
 23 34  1  0
 23 35  1  0
 24 36  1  0
 25 37  1  0
M  CHG  3   1  -1   4  -1   8  -1
M  END
>  <filename_input>  (16) 
7O0N_CDP_docked.sdf

>  <pdb_id>  (16) 
7O0N_CDP

>  <pose_rank>  (16) 
15

>  <num_atoms_heavy>  (16) 
25

>  <num_torsions>  (16) 
6

>  <pose>  (16) 
[2.049145489239478, 14.90743779953031, 23.46751239963883, -1.6782904312408924, 2.655130178576789, -0.6973832098743716, -1.0588817255141458, 3.6018459690585085, -0.6932540992623589, 1.14078727090317, -0.18706934008785583, 0.3610129718103694]

>  <energy>  (16) 
-205.13568028284539

>  <inter_energy>  (16) 
-208.88822738543698

>  <intra_energy>  (16) 
11.892836560170416

>  <rmsd>  (16) 
11.1903

>  <sdf_rank>  (16) 
0

$$$$

     RDKit          3D

 37 38  0  0  0  0  0  0  0  0999 V2000
   17.3044   29.4915   34.6415 O   0  0  0  0  0  0  0  0  0  0  0  0
   16.0967   28.5689   34.6585 P   0  0  1  0  0  0  0  0  0  0  0  0
   14.8647   29.3927   34.7036 O   0  0  0  0  0  0  0  0  0  0  0  0
   16.1764   27.7225   33.4064 O   0  0  0  0  0  0  0  0  0  0  0  0
   16.3146   27.5932   35.9413 O   0  0  0  0  0  0  0  0  0  0  0  0
   17.6872   26.9824   36.5442 P   0  0  2  0  0  0  0  0  0  0  0  0
   18.4425   27.8910   37.4541 O   0  0  0  0  0  0  0  0  0  0  0  0
   18.4985   26.5649   35.3611 O   0  0  0  0  0  0  0  0  0  0  0  0
   17.2950   25.6526   37.4436 O   0  0  0  0  0  0  0  0  0  0  0  0
   16.0701   25.6397   38.1179 C   0  0  0  0  0  0  0  0  0  0  0  0
   16.1105   24.6676   39.1267 C   0  0  1  0  0  0  0  0  0  0  0  0
   14.7109   24.3482   39.5469 O   0  0  0  0  0  0  0  0  0  0  0  0
   16.6893   23.2614   38.6287 C   0  0  1  0  0  0  0  0  0  0  0  0
   17.5576   22.7252   39.7391 O   0  0  0  0  0  0  0  0  0  0  0  0
   15.6657   22.5339   38.3865 C   0  0  1  0  0  0  0  0  0  0  0  0
   15.8843   21.0841   38.5970 O   0  0  0  0  0  0  0  0  0  0  0  0
   14.6227   23.0363   39.5460 C   0  0  2  0  0  0  0  0  0  0  0  0
   13.2533   22.7673   39.3517 N   0  0  0  0  0  0  0  0  0  0  0  0
   12.7931   21.3955   39.6426 C   0  0  0  0  0  0  0  0  0  0  0  0
   13.5631   20.5522   39.9679 O   0  0  0  0  0  0  0  0  0  0  0  0
   11.3695   21.0846   39.5034 N   0  0  0  0  0  0  0  0  0  0  0  0
   10.4242   22.0834   39.1130 C   0  0  0  0  0  0  0  0  0  0  0  0
    9.0454   21.7380   38.9985 N   0  0  0  0  0  0  0  0  0  0  0  0
   10.8765   23.4651   38.8435 C   0  0  0  0  0  0  0  0  0  0  0  0
   12.2944   23.7703   38.9768 C   0  0  0  0  0  0  0  0  0  0  0  0
   15.8860   26.6274   38.5656 H   0  0  0  0  0  0  0  0  0  0  0  0
   15.2609   25.4054   37.4105 H   0  0  0  0  0  0  0  0  0  0  0  0
   16.7471   25.0888   39.9188 H   0  0  0  0  0  0  0  0  0  0  0  0
   17.3092   23.3096   37.7213 H   0  0  0  0  0  0  0  0  0  0  0  0
   17.1629   22.9690   40.6137 H   0  0  0  0  0  0  0  0  0  0  0  0
   15.3514   22.6382   37.3376 H   0  0  0  0  0  0  0  0  0  0  0  0
   15.9133   20.8923   39.5678 H   0  0  0  0  0  0  0  0  0  0  0  0
   14.9126   22.4958   40.4592 H   0  0  0  0  0  0  0  0  0  0  0  0
    8.3575   22.4514   38.7178 H   0  0  0  0  0  0  0  0  0  0  0  0
    8.7375   20.7753   39.1964 H   0  0  0  0  0  0  0  0  0  0  0  0
   10.1585   24.2447   38.5490 H   0  0  0  0  0  0  0  0  0  0  0  0
   12.6410   24.7965   38.7852 H   0  0  0  0  0  0  0  0  0  0  0  0
  2  1  1  6
  2  3  2  0
  2  4  1  0
  2  5  1  0
  5  6  1  0
  6  7  2  0
  6  8  1  6
  6  9  1  0
  9 10  1  0
 11 10  1  0
 11 12  1  0
 11 13  1  0
 12 17  1  0
 13 14  1  0
 13 15  1  0
 15 16  1  0
 15 17  1  0
 17 18  1  0
 18 19  1  0
 18 25  1  0
 19 20  2  0
 19 21  1  0
 21 22  2  0
 22 23  1  0
 22 24  1  0
 24 25  2  0
 10 26  1  0
 10 27  1  0
 11 28  1  1
 13 29  1  6
 14 30  1  0
 15 31  1  6
 16 32  1  0
 17 33  1  1
 23 34  1  0
 23 35  1  0
 24 36  1  0
 25 37  1  0
M  CHG  3   1  -1   4  -1   8  -1
M  END
>  <filename_input>  (17) 
7O0N_CDP_docked.sdf

>  <pdb_id>  (17) 
7O0N_CDP

>  <pose_rank>  (17) 
16

>  <num_atoms_heavy>  (17) 
25

>  <num_torsions>  (17) 
6

>  <pose>  (17) 
[16.110513349649068, 24.667638824866476, 39.12668252081431, -0.02449305723115228, 3.9921704974413648, 3.151591055304548, -1.1781762542375562, 0.4351861490821672, 6.156149174942199, -7.714318013541402, 2.520240465817776, -2.818881213792215]

>  <energy>  (17) 
-184.18759609440508

>  <inter_energy>  (17) 
-173.8490908295547

>  <intra_energy>  (17) 
20.126107767939935

>  <rmsd>  (17) 
11.2876

>  <sdf_rank>  (17) 
0

$$$$

     RDKit          3D

 37 38  0  0  0  0  0  0  0  0999 V2000
    0.5694   26.4390   36.0518 O   0  0  0  0  0  0  0  0  0  0  0  0
    1.4272   26.2461   37.2916 P   0  0  1  0  0  0  0  0  0  0  0  0
    2.2752   27.4478   37.4796 O   0  0  0  0  0  0  0  0  0  0  0  0
    0.4777   26.0260   38.4493 O   0  0  0  0  0  0  0  0  0  0  0  0
    2.2460   24.8633   37.0413 O   0  0  0  0  0  0  0  0  0  0  0  0
    2.3769   23.9784   35.6921 P   0  0  2  0  0  0  0  0  0  0  0  0
    2.7391   24.7415   34.4630 O   0  0  0  0  0  0  0  0  0  0  0  0
    1.0732   23.2627   35.5494 O   0  0  0  0  0  0  0  0  0  0  0  0
    3.5890   22.8796   35.9254 O   0  0  0  0  0  0  0  0  0  0  0  0
    3.2559   21.5238   36.0021 C   0  0  0  0  0  0  0  0  0  0  0  0
    4.3719   20.8003   36.4442 C   0  0  1  0  0  0  0  0  0  0  0  0
    3.9401   19.8543   37.5195 O   0  0  0  0  0  0  0  0  0  0  0  0
    4.9921   19.8436   35.3215 C   0  0  1  0  0  0  0  0  0  0  0  0
    6.4921   19.9224   35.4562 O   0  0  0  0  0  0  0  0  0  0  0  0
    4.5199   18.6795   35.5616 C   0  0  1  0  0  0  0  0  0  0  0  0
    5.4143   17.5658   35.1694 O   0  0  0  0  0  0  0  0  0  0  0  0
    4.4476   18.6847   37.1985 C   0  0  2  0  0  0  0  0  0  0  0  0
    3.6012   17.7427   37.8165 N   0  0  0  0  0  0  0  0  0  0  0  0
    4.2083   16.8651   38.8359 C   0  0  0  0  0  0  0  0  0  0  0  0
    5.3706   16.9213   39.0720 O   0  0  0  0  0  0  0  0  0  0  0  0
    3.3552   15.9063   39.5398 N   0  0  0  0  0  0  0  0  0  0  0  0
    1.9535   15.8206   39.2722 C   0  0  0  0  0  0  0  0  0  0  0  0
    1.1587   14.8777   39.9881 N   0  0  0  0  0  0  0  0  0  0  0  0
    1.3359   16.7139   38.2688 C   0  0  0  0  0  0  0  0  0  0  0  0
    2.1882   17.6628   37.5654 C   0  0  0  0  0  0  0  0  0  0  0  0
    2.4253   21.3884   36.7105 H   0  0  0  0  0  0  0  0  0  0  0  0
    2.9494   21.1614   35.0098 H   0  0  0  0  0  0  0  0  0  0  0  0
    5.1083   21.5543   36.7591 H   0  0  0  0  0  0  0  0  0  0  0  0
    4.7405   20.1186   34.2865 H   0  0  0  0  0  0  0  0  0  0  0  0
    6.7371   19.9352   36.4153 H   0  0  0  0  0  0  0  0  0  0  0  0
    3.5823   18.5166   35.0099 H   0  0  0  0  0  0  0  0  0  0  0  0
    5.7682   17.1250   35.9822 H   0  0  0  0  0  0  0  0  0  0  0  0
    5.4662   18.4491   37.5405 H   0  0  0  0  0  0  0  0  0  0  0  0
    0.1481   14.8092   39.8016 H   0  0  0  0  0  0  0  0  0  0  0  0
    1.5953   14.2650   40.6916 H   0  0  0  0  0  0  0  0  0  0  0  0
    0.2575   16.6630   38.0583 H   0  0  0  0  0  0  0  0  0  0  0  0
    1.7381   18.3369   36.8217 H   0  0  0  0  0  0  0  0  0  0  0  0
  2  1  1  6
  2  3  2  0
  2  4  1  0
  2  5  1  0
  5  6  1  0
  6  7  2  0
  6  8  1  6
  6  9  1  0
  9 10  1  0
 11 10  1  0
 11 12  1  0
 11 13  1  0
 12 17  1  0
 13 14  1  0
 13 15  1  0
 15 16  1  0
 15 17  1  0
 17 18  1  0
 18 19  1  0
 18 25  1  0
 19 20  2  0
 19 21  1  0
 21 22  2  0
 22 23  1  0
 22 24  1  0
 24 25  2  0
 10 26  1  0
 10 27  1  0
 11 28  1  1
 13 29  1  6
 14 30  1  0
 15 31  1  6
 16 32  1  0
 17 33  1  1
 23 34  1  0
 23 35  1  0
 24 36  1  0
 25 37  1  0
M  CHG  3   1  -1   4  -1   8  -1
M  END
>  <filename_input>  (18) 
7O0N_CDP_docked.sdf

>  <pdb_id>  (18) 
7O0N_CDP

>  <pose_rank>  (18) 
17

>  <num_atoms_heavy>  (18) 
25

>  <num_torsions>  (18) 
6

>  <pose>  (18) 
[4.371901675886448, 20.800275582768005, 36.44419579141949, -1.5224676255061007, 3.1749713780316497, 4.834377402570145, -0.35659377602663195, -0.6874439185359782, -0.26346904288066303, 1.0988206408362355, 1.9340571642822917, -2.026608187991291]

>  <energy>  (18) 
-175.469037993344

>  <inter_energy>  (18) 
-170.0723242018936

>  <intra_energy>  (18) 
2.080458022471889

>  <rmsd>  (18) 
10.4677

>  <sdf_rank>  (18) 
0

$$$$

     RDKit          3D

 37 38  0  0  0  0  0  0  0  0999 V2000
   16.8556   11.2109   32.8798 O   0  0  0  0  0  0  0  0  0  0  0  0
   17.8275   11.3592   34.0389 P   0  0  1  0  0  0  0  0  0  0  0  0
   17.1901   12.1793   35.0971 O   0  0  0  0  0  0  0  0  0  0  0  0
   18.1552    9.9605   34.5152 O   0  0  0  0  0  0  0  0  0  0  0  0
   19.1757   12.0012   33.3948 O   0  0  0  0  0  0  0  0  0  0  0  0
   19.3260   13.1280   32.2423 P   0  0  2  0  0  0  0  0  0  0  0  0
   20.6670   13.7746   32.1552 O   0  0  0  0  0  0  0  0  0  0  0  0
   18.2368   14.1179   32.4995 O   0  0  0  0  0  0  0  0  0  0  0  0
   19.0735   12.3938   30.7834 O   0  0  0  0  0  0  0  0  0  0  0  0
   18.1977   12.9963   29.8750 C   0  0  0  0  0  0  0  0  0  0  0  0
   17.0902   12.1598   29.6799 C   0  0  1  0  0  0  0  0  0  0  0  0
   15.8686   12.8440   30.2062 O   0  0  0  0  0  0  0  0  0  0  0  0
   16.7508   11.9076   28.1367 C   0  0  1  0  0  0  0  0  0  0  0  0
   16.3549   10.4583   28.0047 O   0  0  0  0  0  0  0  0  0  0  0  0
   15.8053   12.7212   27.8545 C   0  0  1  0  0  0  0  0  0  0  0  0
   14.8814   12.2409   26.8011 O   0  0  0  0  0  0  0  0  0  0  0  0
   14.9619   12.7461   29.2591 C   0  0  2  0  0  0  0  0  0  0  0  0
   14.0928   13.8334   29.4782 N   0  0  0  0  0  0  0  0  0  0  0  0
   14.6255   15.1818   29.2024 C   0  0  0  0  0  0  0  0  0  0  0  0
   15.7549   15.3326   28.8682 O   0  0  0  0  0  0  0  0  0  0  0  0
   13.7416   16.3368   29.3676 N   0  0  0  0  0  0  0  0  0  0  0  0
   12.3786   16.1797   29.7689 C   0  0  0  0  0  0  0  0  0  0  0  0
   11.5509   17.3324   29.9089 N   0  0  0  0  0  0  0  0  0  0  0  0
   11.8333   14.8291   30.0236 C   0  0  0  0  0  0  0  0  0  0  0  0
   12.7166   13.6820   29.8644 C   0  0  0  0  0  0  0  0  0  0  0  0
   17.8617   13.9646   30.2746 H   0  0  0  0  0  0  0  0  0  0  0  0
   18.7125   13.1582   28.9165 H   0  0  0  0  0  0  0  0  0  0  0  0
   17.3422   11.2129   30.1799 H   0  0  0  0  0  0  0  0  0  0  0  0
   17.5858   12.0843   27.4428 H   0  0  0  0  0  0  0  0  0  0  0  0
   16.2467   10.0624   28.9056 H   0  0  0  0  0  0  0  0  0  0  0  0
   16.2083   13.6755   27.4843 H   0  0  0  0  0  0  0  0  0  0  0  0
   14.0866   11.8277   27.2225 H   0  0  0  0  0  0  0  0  0  0  0  0
   14.3270   11.8481   29.2389 H   0  0  0  0  0  0  0  0  0  0  0  0
   10.5677   17.2284   30.1976 H   0  0  0  0  0  0  0  0  0  0  0  0
   11.9363   18.2690   29.7212 H   0  0  0  0  0  0  0  0  0  0  0  0
   10.7845   14.6938   30.3263 H   0  0  0  0  0  0  0  0  0  0  0  0
   12.3197   12.6721   30.0447 H   0  0  0  0  0  0  0  0  0  0  0  0
  2  1  1  6
  2  3  2  0
  2  4  1  0
  2  5  1  0
  5  6  1  0
  6  7  2  0
  6  8  1  1
  6  9  1  0
  9 10  1  0
 11 10  1  0
 11 12  1  0
 11 13  1  0
 12 17  1  0
 13 14  1  0
 13 15  1  0
 15 16  1  0
 15 17  1  0
 17 18  1  0
 18 19  1  0
 18 25  1  0
 19 20  2  0
 19 21  1  0
 21 22  2  0
 22 23  1  0
 22 24  1  0
 24 25  2  0
 10 26  1  0
 10 27  1  0
 11 28  1  1
 13 29  1  6
 14 30  1  0
 15 31  1  6
 16 32  1  0
 17 33  1  1
 23 34  1  0
 23 35  1  0
 24 36  1  0
 25 37  1  0
M  CHG  3   1  -1   4  -1   8  -1
M  END
>  <filename_input>  (19) 
7O0N_CDP_docked.sdf

>  <pdb_id>  (19) 
7O0N_CDP

>  <pose_rank>  (19) 
18

>  <num_atoms_heavy>  (19) 
25

>  <num_torsions>  (19) 
6

>  <pose>  (19) 
[17.090229144413673, 12.159780810999187, 29.67993856246576, -0.9302371768652918, 0.8837033121763369, 3.846926459701309, -3.364685957776394, -1.0150180320520685, 0.6799826867679568, 1.4382265535335268, -2.3628357739775168, -1.5355839259878494]

>  <energy>  (19) 
-171.92677567065806

>  <inter_energy>  (19) 
-184.76085035657175

>  <intra_energy>  (19) 
32.80437954214605

>  <rmsd>  (19) 
10.7401

>  <sdf_rank>  (19) 
0

$$$$

     RDKit          3D

 37 38  0  0  0  0  0  0  0  0999 V2000
   19.0529   21.3690   22.5757 O   0  0  0  0  0  0  0  0  0  0  0  0
   17.7429   20.6141   22.7309 P   0  0  1  0  0  0  0  0  0  0  0  0
   17.7040   19.9930   24.0768 O   0  0  0  0  0  0  0  0  0  0  0  0
   16.6320   21.6222   22.5309 O   0  0  0  0  0  0  0  0  0  0  0  0
   17.6989   19.5628   21.4908 O   0  0  0  0  0  0  0  0  0  0  0  0
   17.1237   18.0503   21.4480 P   0  0  2  0  0  0  0  0  0  0  0  0
   16.8119   17.5262   20.0871 O   0  0  0  0  0  0  0  0  0  0  0  0
   15.9274   18.0467   22.3430 O   0  0  0  0  0  0  0  0  0  0  0  0
   18.2840   17.0518   22.0708 O   0  0  0  0  0  0  0  0  0  0  0  0
   17.8826   15.8556   22.6733 C   0  0  0  0  0  0  0  0  0  0  0  0
   18.9258   14.9237   22.5854 C   0  0  1  0  0  0  0  0  0  0  0  0
   19.1126   14.2794   23.9225 O   0  0  0  0  0  0  0  0  0  0  0  0
   18.5982   13.6958   21.6132 C   0  0  1  0  0  0  0  0  0  0  0  0
   19.8644   13.3854   20.8548 O   0  0  0  0  0  0  0  0  0  0  0  0
   18.2162   12.7439   22.3771 C   0  0  1  0  0  0  0  0  0  0  0  0
   18.5258   11.3890   21.8647 O   0  0  0  0  0  0  0  0  0  0  0  0
   19.1553   12.9846   23.6981 C   0  0  2  0  0  0  0  0  0  0  0  0
   18.7403   12.3952   24.9089 N   0  0  0  0  0  0  0  0  0  0  0  0
   19.6360   11.3830   25.5017 C   0  0  0  0  0  0  0  0  0  0  0  0
   20.6286   11.0479   24.9430 O   0  0  0  0  0  0  0  0  0  0  0  0
   19.2693   10.7816   26.7848 N   0  0  0  0  0  0  0  0  0  0  0  0
   18.0793   11.1692   27.4757 C   0  0  0  0  0  0  0  0  0  0  0  0
   17.7658   10.5632   28.7278 N   0  0  0  0  0  0  0  0  0  0  0  0
   17.1908   12.2000   26.8976 C   0  0  0  0  0  0  0  0  0  0  0  0
   17.5547   12.7924   25.6177 C   0  0  0  0  0  0  0  0  0  0  0  0
   17.6409   16.0389   23.7306 H   0  0  0  0  0  0  0  0  0  0  0  0
   16.9921   15.4635   22.1601 H   0  0  0  0  0  0  0  0  0  0  0  0
   19.7960   15.4867   22.2171 H   0  0  0  0  0  0  0  0  0  0  0  0
   17.8099   13.8889   20.8707 H   0  0  0  0  0  0  0  0  0  0  0  0
   20.5973   13.2058   21.4957 H   0  0  0  0  0  0  0  0  0  0  0  0
   17.1252   12.7675   22.5154 H   0  0  0  0  0  0  0  0  0  0  0  0
   18.6667   10.7724   22.6263 H   0  0  0  0  0  0  0  0  0  0  0  0
   20.1279   12.5313   23.4563 H   0  0  0  0  0  0  0  0  0  0  0  0
   16.9105   10.8365   29.2323 H   0  0  0  0  0  0  0  0  0  0  0  0
   18.3947    9.8522   29.1276 H   0  0  0  0  0  0  0  0  0  0  0  0
   16.2757   12.5123   27.4221 H   0  0  0  0  0  0  0  0  0  0  0  0
   16.9044   13.5650   25.1817 H   0  0  0  0  0  0  0  0  0  0  0  0
  2  1  1  1
  2  3  2  0
  2  4  1  0
  2  5  1  0
  5  6  1  0
  6  7  2  0
  6  8  1  1
  6  9  1  0
  9 10  1  0
 11 10  1  0
 11 12  1  0
 11 13  1  0
 12 17  1  0
 13 14  1  0
 13 15  1  0
 15 16  1  0
 15 17  1  0
 17 18  1  0
 18 19  1  0
 18 25  1  0
 19 20  2  0
 19 21  1  0
 21 22  2  0
 22 23  1  0
 22 24  1  0
 24 25  2  0
 10 26  1  0
 10 27  1  0
 11 28  1  6
 13 29  1  6
 14 30  1  0
 15 31  1  1
 16 32  1  0
 17 33  1  6
 23 34  1  0
 23 35  1  0
 24 36  1  0
 25 37  1  0
M  CHG  3   1  -1   4  -1   8  -1
M  END
>  <filename_input>  (20) 
7O0N_CDP_docked.sdf

>  <pdb_id>  (20) 
7O0N_CDP

>  <pose_rank>  (20) 
19

>  <num_atoms_heavy>  (20) 
25

>  <num_torsions>  (20) 
6

>  <pose>  (20) 
[18.925781416173823, 14.923667770100655, 22.585436754254715, -0.23602121680412128, 0.4405434380711576, -0.45749283118443723, -6.787022073100223, -0.6931566865678602, 11.654354016204051, 1.8037159895205637, 3.869979611531622, 0.29816406123668676]

>  <energy>  (20) 
-165.56021573313356

>  <inter_energy>  (20) 
-168.2318739244467

>  <intra_energy>  (20) 
1.8096187416340304

>  <rmsd>  (20) 
11.1113

>  <sdf_rank>  (20) 
0

$$$$

     RDKit          3D

 37 38  0  0  0  0  0  0  0  0999 V2000
    2.3325   11.3268   21.3695 O   0  0  0  0  0  0  0  0  0  0  0  0
    3.3108   10.6937   22.3453 P   0  0  1  0  0  0  0  0  0  0  0  0
    2.5907    9.6857   23.1601 O   0  0  0  0  0  0  0  0  0  0  0  0
    4.4174   10.0783   21.5163 O   0  0  0  0  0  0  0  0  0  0  0  0
    3.9426   11.9315   23.1901 O   0  0  0  0  0  0  0  0  0  0  0  0
    3.4835   12.5387   24.6188 P   0  0  2  0  0  0  0  0  0  0  0  0
    3.7543   11.6665   25.7977 O   0  0  0  0  0  0  0  0  0  0  0  0
    2.0314   12.8594   24.4744 O   0  0  0  0  0  0  0  0  0  0  0  0
    4.3356   13.9320   24.8717 O   0  0  0  0  0  0  0  0  0  0  0  0
    4.9844   14.5249   23.7843 C   0  0  0  0  0  0  0  0  0  0  0  0
    4.1949   15.5739   23.2938 C   0  0  1  0  0  0  0  0  0  0  0  0
    5.0679   16.7646   23.0530 O   0  0  0  0  0  0  0  0  0  0  0  0
    3.5596   15.2704   21.8569 C   0  0  1  0  0  0  0  0  0  0  0  0
    2.1547   15.8187   21.8725 O   0  0  0  0  0  0  0  0  0  0  0  0
    4.3237   15.8524   21.0125 C   0  0  1  0  0  0  0  0  0  0  0  0
    3.6357   16.3150   19.7850 O   0  0  0  0  0  0  0  0  0  0  0  0
    4.7750   17.1902   21.8441 C   0  0  2  0  0  0  0  0  0  0  0  0
    5.9318   17.8678   21.4104 N   0  0  0  0  0  0  0  0  0  0  0  0
    7.1284   17.0459   21.1442 C   0  0  0  0  0  0  0  0  0  0  0  0
    7.1196   15.8760   21.3470 O   0  0  0  0  0  0  0  0  0  0  0  0
    8.3374   17.7016   20.6433 N   0  0  0  0  0  0  0  0  0  0  0  0
    8.3714   19.1084   20.3917 C   0  0  0  0  0  0  0  0  0  0  0  0
    9.5683   19.7038   19.8955 N   0  0  0  0  0  0  0  0  0  0  0  0
    7.1681   19.9326   20.6342 C   0  0  0  0  0  0  0  0  0  0  0  0
    5.9683   19.2787   21.1385 C   0  0  0  0  0  0  0  0  0  0  0  0
    5.9596   14.9182   24.1073 H   0  0  0  0  0  0  0  0  0  0  0  0
    5.1389   13.7768   22.9928 H   0  0  0  0  0  0  0  0  0  0  0  0
    3.4031   15.7241   24.0424 H   0  0  0  0  0  0  0  0  0  0  0  0
    3.4931   14.2042   21.5945 H   0  0  0  0  0  0  0  0  0  0  0  0
    1.8563   15.9351   22.8093 H   0  0  0  0  0  0  0  0  0  0  0  0
    5.1177   15.1724   20.6702 H   0  0  0  0  0  0  0  0  0  0  0  0
    2.8406   16.8497   20.0339 H   0  0  0  0  0  0  0  0  0  0  0  0
    3.9445   17.9028   21.7314 H   0  0  0  0  0  0  0  0  0  0  0  0
    9.6017   20.7167   19.7115 H   0  0  0  0  0  0  0  0  0  0  0  0
   10.3995   19.1210   19.7211 H   0  0  0  0  0  0  0  0  0  0  0  0
    7.1787   21.0150   20.4383 H   0  0  0  0  0  0  0  0  0  0  0  0
    5.0652   19.8812   21.3160 H   0  0  0  0  0  0  0  0  0  0  0  0
  2  1  1  6
  2  3  2  0
  2  4  1  0
  2  5  1  0
  5  6  1  0
  6  7  2  0
  6  8  1  6
  6  9  1  0
  9 10  1  0
 11 10  1  0
 11 12  1  0
 11 13  1  0
 12 17  1  0
 13 14  1  0
 13 15  1  0
 15 16  1  0
 15 17  1  0
 17 18  1  0
 18 19  1  0
 18 25  1  0
 19 20  2  0
 19 21  1  0
 21 22  2  0
 22 23  1  0
 22 24  1  0
 24 25  2  0
 10 26  1  0
 10 27  1  0
 11 28  1  1
 13 29  1  6
 14 30  1  0
 15 31  1  6
 16 32  1  0
 17 33  1  1
 23 34  1  0
 23 35  1  0
 24 36  1  0
 25 37  1  0
M  CHG  3   1  -1   4  -1   8  -1
M  END
>  <filename_input>  (21) 
7O0N_CDP_docked.sdf

>  <pdb_id>  (21) 
7O0N_CDP

>  <pose_rank>  (21) 
20

>  <num_atoms_heavy>  (21) 
25

>  <num_torsions>  (21) 
6

>  <pose>  (21) 
[4.194902188268355, 15.573941646561256, 23.293777424599757, -0.22983389531968496, -2.029177786985004, -3.1416030292061756, 2.9026879019237235, -0.6686499976495471, -1.8660550226309465, -0.5861196568224094, 2.3031453091151066, -0.5552596108653629]

>  <energy>  (21) 
-117.20446359217684

>  <inter_energy>  (21) 
-158.12541726641712

>  <intra_energy>  (21) 
29.59804270200231

>  <rmsd>  (21) 
12.6995

>  <sdf_rank>  (21) 
0

$$$$

     RDKit          3D

 37 38  0  0  0  0  0  0  0  0999 V2000
   19.6019   22.3786   25.1130 O   0  0  0  0  0  0  0  0  0  0  0  0
   18.4265   23.3094   24.8641 P   0  0  1  0  0  0  0  0  0  0  0  0
   18.6983   24.1097   23.6458 O   0  0  0  0  0  0  0  0  0  0  0  0
   17.2007   22.4344   24.7152 O   0  0  0  0  0  0  0  0  0  0  0  0
   18.2637   24.1769   26.2302 O   0  0  0  0  0  0  0  0  0  0  0  0
   19.1698   25.3989   26.7835 P   0  0  2  0  0  0  0  0  0  0  0  0
   18.8139   26.7463   26.2528 O   0  0  0  0  0  0  0  0  0  0  0  0
   20.5836   25.0258   26.4766 O   0  0  0  0  0  0  0  0  0  0  0  0
   18.9616   25.4797   28.4210 O   0  0  0  0  0  0  0  0  0  0  0  0
   19.5579   26.5344   29.1190 C   0  0  0  0  0  0  0  0  0  0  0  0
   20.1228   26.0412   30.3030 C   0  0  1  0  0  0  0  0  0  0  0  0
   19.8123   26.9886   31.4182 O   0  0  0  0  0  0  0  0  0  0  0  0
   19.4765   24.6594   30.7858 C   0  0  1  0  0  0  0  0  0  0  0  0
   20.6044   23.8050   31.3079 O   0  0  0  0  0  0  0  0  0  0  0  0
   18.6198   24.9742   31.6817 C   0  0  1  0  0  0  0  0  0  0  0  0
   18.4195   23.9410   32.7240 O   0  0  0  0  0  0  0  0  0  0  0  0
   19.3518   26.2500   32.4036 C   0  0  2  0  0  0  0  0  0  0  0  0
   18.5442   27.1220   33.1607 N   0  0  0  0  0  0  0  0  0  0  0  0
   18.5736   26.9573   34.6270 C   0  0  0  0  0  0  0  0  0  0  0  0
   19.2074   26.0875   35.1284 O   0  0  0  0  0  0  0  0  0  0  0  0
   17.7894   27.8744   35.4556 N   0  0  0  0  0  0  0  0  0  0  0  0
   17.0188   28.9288   34.8744 C   0  0  0  0  0  0  0  0  0  0  0  0
   16.2768   29.8044   35.7206 N   0  0  0  0  0  0  0  0  0  0  0  0
   17.0048   29.1129   33.4073 C   0  0  0  0  0  0  0  0  0  0  0  0
   17.7810   28.1952   32.5847 C   0  0  0  0  0  0  0  0  0  0  0  0
   20.3436   26.9892   28.4979 H   0  0  0  0  0  0  0  0  0  0  0  0
   18.7998   27.2944   29.3593 H   0  0  0  0  0  0  0  0  0  0  0  0
   21.1942   25.9128   30.0893 H   0  0  0  0  0  0  0  0  0  0  0  0
   18.9669   24.0849   29.9982 H   0  0  0  0  0  0  0  0  0  0  0  0
   20.5936   23.8131   32.2978 H   0  0  0  0  0  0  0  0  0  0  0  0
   17.6290   25.1408   31.2337 H   0  0  0  0  0  0  0  0  0  0  0  0
   18.4998   24.3556   33.6194 H   0  0  0  0  0  0  0  0  0  0  0  0
   20.0754   25.8156   33.1091 H   0  0  0  0  0  0  0  0  0  0  0  0
   15.7188   30.5668   35.3102 H   0  0  0  0  0  0  0  0  0  0  0  0
   16.2988   29.6745   36.7421 H   0  0  0  0  0  0  0  0  0  0  0  0
   16.4216   29.9244   32.9477 H   0  0  0  0  0  0  0  0  0  0  0  0
   17.7833   28.3271   31.4926 H   0  0  0  0  0  0  0  0  0  0  0  0
  2  1  1  1
  2  3  2  0
  2  4  1  0
  2  5  1  0
  5  6  1  0
  6  7  2  0
  6  8  1  1
  6  9  1  0
  9 10  1  0
 11 10  1  0
 11 12  1  0
 11 13  1  0
 12 17  1  0
 13 14  1  0
 13 15  1  0
 15 16  1  0
 15 17  1  0
 17 18  1  0
 18 19  1  0
 18 25  1  0
 19 20  2  0
 19 21  1  0
 21 22  2  0
 22 23  1  0
 22 24  1  0
 24 25  2  0
 10 26  1  0
 10 27  1  0
 11 28  1  6
 13 29  1  6
 14 30  1  0
 15 31  1  6
 16 32  1  0
 17 33  1  1
 23 34  1  0
 23 35  1  0
 24 36  1  0
 25 37  1  0
M  CHG  3   1  -1   4  -1   8  -1
M  END
>  <filename_input>  (22) 
7O0N_CDP_docked.sdf

>  <pdb_id>  (22) 
7O0N_CDP

>  <pose_rank>  (22) 
21

>  <num_atoms_heavy>  (22) 
25

>  <num_torsions>  (22) 
6

>  <pose>  (22) 
[20.122812178803365, 26.04122390382507, 30.303030036188826, -1.1494759185258658, -0.21573953554622513, -0.98412581877607, -7.07063748953654, 32.288023789476924, 31.704038870089903, 14.937584065220063, 8.836874466049197, -0.899457485771335]

>  <energy>  (22) 
-151.52252882393714

>  <inter_energy>  (22) 
-133.08727797279656

>  <intra_energy>  (22) 
4.727037085264255

>  <rmsd>  (22) 
12.0326

>  <sdf_rank>  (22) 
0

$$$$

     RDKit          3D

 37 38  0  0  0  0  0  0  0  0999 V2000
    2.1899   10.8227   24.3224 O   0  0  0  0  0  0  0  0  0  0  0  0
    1.9756   11.6643   23.0751 P   0  0  1  0  0  0  0  0  0  0  0  0
    2.8305   11.1336   21.9859 O   0  0  0  0  0  0  0  0  0  0  0  0
    0.5019   11.5818   22.7408 O   0  0  0  0  0  0  0  0  0  0  0  0
    2.3065   13.1928   23.5213 O   0  0  0  0  0  0  0  0  0  0  0  0
    3.3182   13.7316   24.6645 P   0  0  2  0  0  0  0  0  0  0  0  0
    3.8490   12.6880   25.5881 O   0  0  0  0  0  0  0  0  0  0  0  0
    2.5737   14.8039   25.3912 O   0  0  0  0  0  0  0  0  0  0  0  0
    4.6326   14.3866   23.9064 O   0  0  0  0  0  0  0  0  0  0  0  0
    4.5042   15.6484   23.3177 C   0  0  0  0  0  0  0  0  0  0  0  0
    4.3974   15.4990   21.9283 C   0  0  1  0  0  0  0  0  0  0  0  0
    5.2017   16.5707   21.2633 O   0  0  0  0  0  0  0  0  0  0  0  0
    5.0481   14.1418   21.3851 C   0  0  1  0  0  0  0  0  0  0  0  0
    4.1352   13.6179   20.3050 O   0  0  0  0  0  0  0  0  0  0  0  0
    6.2098   14.4636   20.9579 C   0  0  1  0  0  0  0  0  0  0  0  0
    6.6999   13.6292   19.8364 O   0  0  0  0  0  0  0  0  0  0  0  0
    5.9361   15.9634   20.3576 C   0  0  2  0  0  0  0  0  0  0  0  0
    7.0511   16.8054   20.1741 N   0  0  0  0  0  0  0  0  0  0  0  0
    6.7883   18.2553   20.0923 C   0  0  0  0  0  0  0  0  0  0  0  0
    5.6778   18.6744   20.1221 O   0  0  0  0  0  0  0  0  0  0  0  0
    7.9219   19.1708   19.9529 N   0  0  0  0  0  0  0  0  0  0  0  0
    9.2673   18.6893   19.9147 C   0  0  0  0  0  0  0  0  0  0  0  0
   10.3417   19.6181   19.7866 N   0  0  0  0  0  0  0  0  0  0  0  0
    9.5375   17.2394   20.0201 C   0  0  0  0  0  0  0  0  0  0  0  0
    8.4074   16.3301   20.1526 C   0  0  0  0  0  0  0  0  0  0  0  0
    3.6024   16.1452   23.7049 H   0  0  0  0  0  0  0  0  0  0  0  0
    5.3866   16.2600   23.5573 H   0  0  0  0  0  0  0  0  0  0  0  0
    3.3197   15.5255   21.7093 H   0  0  0  0  0  0  0  0  0  0  0  0
    5.1577   13.3462   22.1368 H   0  0  0  0  0  0  0  0  0  0  0  0
    3.3556   13.1706   20.7200 H   0  0  0  0  0  0  0  0  0  0  0  0
    6.9613   14.3622   21.7548 H   0  0  0  0  0  0  0  0  0  0  0  0
    7.1671   12.8340   20.1964 H   0  0  0  0  0  0  0  0  0  0  0  0
    5.5043   15.8078   19.3580 H   0  0  0  0  0  0  0  0  0  0  0  0
   11.3142   19.2799   19.7582 H   0  0  0  0  0  0  0  0  0  0  0  0
   10.1453   20.6271   19.7224 H   0  0  0  0  0  0  0  0  0  0  0  0
   10.5684   16.8563   19.9990 H   0  0  0  0  0  0  0  0  0  0  0  0
    8.5972   15.2500   20.2385 H   0  0  0  0  0  0  0  0  0  0  0  0
  2  1  1  1
  2  3  2  0
  2  4  1  0
  2  5  1  0
  5  6  1  0
  6  7  2  0
  6  8  1  1
  6  9  1  0
  9 10  1  0
 11 10  1  0
 11 12  1  0
 11 13  1  0
 12 17  1  0
 13 14  1  0
 13 15  1  0
 15 16  1  0
 15 17  1  0
 17 18  1  0
 18 19  1  0
 18 25  1  0
 19 20  2  0
 19 21  1  0
 21 22  2  0
 22 23  1  0
 22 24  1  0
 24 25  2  0
 10 26  1  0
 10 27  1  0
 11 28  1  6
 13 29  1  1
 14 30  1  0
 15 31  1  1
 16 32  1  0
 17 33  1  6
 23 34  1  0
 23 35  1  0
 24 36  1  0
 25 37  1  0
M  CHG  3   1  -1   4  -1   8  -1
M  END
>  <filename_input>  (23) 
7O0N_CDP_docked.sdf

>  <pdb_id>  (23) 
7O0N_CDP

>  <pose_rank>  (23) 
22

>  <num_atoms_heavy>  (23) 
25

>  <num_torsions>  (23) 
6

>  <pose>  (23) 
[4.397388808907707, 15.498982941773109, 21.928282414058756, 1.88461306779977, -2.625838313344948, -1.9799561736472355, 0.9520967629276577, 0.8335534852355254, 0.8807195043367743, 0.4657304451170186, 0.8759729506793963, -1.6993686819244191]

>  <energy>  (23) 
-150.45628920560642

>  <inter_energy>  (23) 
-190.18249569427843

>  <intra_energy>  (23) 
47.97638617132712

>  <rmsd>  (23) 
12.5936

>  <sdf_rank>  (23) 
0

$$$$

     RDKit          3D

 37 38  0  0  0  0  0  0  0  0999 V2000
    3.3624   26.5593   38.4988 O   0  0  0  0  0  0  0  0  0  0  0  0
    2.4840   26.4824   37.2608 P   0  0  1  0  0  0  0  0  0  0  0  0
    1.8245   27.7949   37.0586 O   0  0  0  0  0  0  0  0  0  0  0  0
    3.3888   26.1100   36.1062 O   0  0  0  0  0  0  0  0  0  0  0  0
    1.4684   25.2402   37.5264 O   0  0  0  0  0  0  0  0  0  0  0  0
    1.7888   23.6565   37.6264 P   0  0  2  0  0  0  0  0  0  0  0  0
    0.5982   22.7609   37.5608 O   0  0  0  0  0  0  0  0  0  0  0  0
    2.5607   23.4789   38.8932 O   0  0  0  0  0  0  0  0  0  0  0  0
    2.7402   23.2522   36.3370 O   0  0  0  0  0  0  0  0  0  0  0  0
    3.8437   22.4217   36.5555 C   0  0  0  0  0  0  0  0  0  0  0  0
    3.8456   21.3979   35.5984 C   0  0  1  0  0  0  0  0  0  0  0  0
    4.0087   20.0845   36.2954 O   0  0  0  0  0  0  0  0  0  0  0  0
    2.4517   21.2494   34.8267 C   0  0  1  0  0  0  0  0  0  0  0  0
    2.7771   20.9629   33.3822 O   0  0  0  0  0  0  0  0  0  0  0  0
    1.8358   20.2919   35.4093 C   0  0  1  0  0  0  0  0  0  0  0  0
    0.9285   19.5234   34.5260 O   0  0  0  0  0  0  0  0  0  0  0  0
    3.0753   19.2972   35.8080 C   0  0  2  0  0  0  0  0  0  0  0  0
    2.8455   18.3422   36.8183 N   0  0  0  0  0  0  0  0  0  0  0  0
    2.2800   18.8356   38.0891 C   0  0  0  0  0  0  0  0  0  0  0  0
    2.0878   19.9949   38.2594 O   0  0  0  0  0  0  0  0  0  0  0  0
    1.9777   17.8714   39.1481 N   0  0  0  0  0  0  0  0  0  0  0  0
    2.2008   16.4712   38.9659 C   0  0  0  0  0  0  0  0  0  0  0  0
    1.8835   15.5667   40.0216 N   0  0  0  0  0  0  0  0  0  0  0  0
    2.7448   15.9692   37.6860 C   0  0  0  0  0  0  0  0  0  0  0  0
    3.0506   16.9313   36.6361 C   0  0  0  0  0  0  0  0  0  0  0  0
    4.7696   23.0092   36.4680 H   0  0  0  0  0  0  0  0  0  0  0  0
    3.7846   21.9856   37.5636 H   0  0  0  0  0  0  0  0  0  0  0  0
    4.6518   21.6518   34.8944 H   0  0  0  0  0  0  0  0  0  0  0  0
    1.8117   22.1438   34.8479 H   0  0  0  0  0  0  0  0  0  0  0  0
    3.5192   20.3094   33.3345 H   0  0  0  0  0  0  0  0  0  0  0  0
    1.2043   20.6727   36.2256 H   0  0  0  0  0  0  0  0  0  0  0  0
    0.3016   18.9925   35.0784 H   0  0  0  0  0  0  0  0  0  0  0  0
    3.3018   18.7264   34.8954 H   0  0  0  0  0  0  0  0  0  0  0  0
    2.0410   14.5563   39.8989 H   0  0  0  0  0  0  0  0  0  0  0  0
    1.4967   15.9239   40.9069 H   0  0  0  0  0  0  0  0  0  0  0  0
    2.9148   14.8936   37.5302 H   0  0  0  0  0  0  0  0  0  0  0  0
    3.4495   16.5682   35.6774 H   0  0  0  0  0  0  0  0  0  0  0  0
  2  1  1  1
  2  3  2  0
  2  4  1  0
  2  5  1  0
  5  6  1  0
  6  7  2  0
  6  8  1  1
  6  9  1  0
  9 10  1  0
 11 10  1  0
 11 12  1  0
 11 13  1  0
 12 17  1  0
 13 14  1  0
 13 15  1  0
 15 16  1  0
 15 17  1  0
 17 18  1  0
 18 19  1  0
 18 25  1  0
 19 20  2  0
 19 21  1  0
 21 22  2  0
 22 23  1  0
 22 24  1  0
 24 25  2  0
 10 26  1  0
 10 27  1  0
 11 28  1  6
 13 29  1  6
 14 30  1  0
 15 31  1  1
 16 32  1  0
 17 33  1  6
 23 34  1  0
 23 35  1  0
 24 36  1  0
 25 37  1  0
M  CHG  3   1  -1   4  -1   8  -1
M  END
>  <filename_input>  (24) 
7O0N_CDP_docked.sdf

>  <pdb_id>  (24) 
7O0N_CDP

>  <pose_rank>  (24) 
23

>  <num_atoms_heavy>  (24) 
25

>  <num_torsions>  (24) 
6

>  <pose>  (24) 
[3.845606088192095, 21.397937719676584, 35.59836176363549, 0.2696644487630021, 1.2165508433812713, -0.8965803460679653, 2.836640043709863, -17.85230688065656, 17.559409157852446, -11.057508891324428, -14.394467363636897, 2.8982152173101765]

>  <energy>  (24) 
-146.48042108019473

>  <inter_energy>  (24) 
-174.8778342408392

>  <intra_energy>  (24) 
44.38331823234044

>  <rmsd>  (24) 
11.0903

>  <sdf_rank>  (24) 
0

$$$$

     RDKit          3D

 37 38  0  0  0  0  0  0  0  0999 V2000
    1.5871   12.0199   32.6000 O   0  0  0  0  0  0  0  0  0  0  0  0
    1.8646   10.8582   31.6601 P   0  0  1  0  0  0  0  0  0  0  0  0
    2.9297   10.0101   32.2475 O   0  0  0  0  0  0  0  0  0  0  0  0
    0.5599   10.1095   31.4945 O   0  0  0  0  0  0  0  0  0  0  0  0
    2.2411   11.5373   30.2311 O   0  0  0  0  0  0  0  0  0  0  0  0
    3.1342   10.9454   29.0176 P   0  0  2  0  0  0  0  0  0  0  0  0
    2.6159    9.6914   28.3987 O   0  0  0  0  0  0  0  0  0  0  0  0
    4.5103   10.7745   29.5737 O   0  0  0  0  0  0  0  0  0  0  0  0
    3.1605   12.0763   27.8128 O   0  0  0  0  0  0  0  0  0  0  0  0
    2.6312   11.7349   26.5644 C   0  0  0  0  0  0  0  0  0  0  0  0
    3.0435   12.6806   25.6158 C   0  0  1  0  0  0  0  0  0  0  0  0
    4.5055   12.4995   25.3561 O   0  0  0  0  0  0  0  0  0  0  0  0
    2.3723   12.4705   24.1785 C   0  0  1  0  0  0  0  0  0  0  0  0
    2.0513   13.8415   23.6384 O   0  0  0  0  0  0  0  0  0  0  0  0
    3.2397   11.8394   23.4822 C   0  0  1  0  0  0  0  0  0  0  0  0
    3.1862   12.1311   22.0309 O   0  0  0  0  0  0  0  0  0  0  0  0
    4.6408   12.4726   24.0486 C   0  0  2  0  0  0  0  0  0  0  0  0
    5.8243   11.7417   23.8237 N   0  0  0  0  0  0  0  0  0  0  0  0
    6.6531   12.1482   22.6722 C   0  0  0  0  0  0  0  0  0  0  0  0
    6.2969   13.0147   21.9427 O   0  0  0  0  0  0  0  0  0  0  0  0
    7.9166   11.4496   22.4309 N   0  0  0  0  0  0  0  0  0  0  0  0
    8.3657   10.4035   23.2954 C   0  0  0  0  0  0  0  0  0  0  0  0
    9.6076    9.7561   23.0274 N   0  0  0  0  0  0  0  0  0  0  0  0
    7.5506   10.0085   24.4641 C   0  0  0  0  0  0  0  0  0  0  0  0
    6.2908   10.7010   24.6984 C   0  0  0  0  0  0  0  0  0  0  0  0
    2.9925   10.7381   26.2716 H   0  0  0  0  0  0  0  0  0  0  0  0
    1.5327   11.7210   26.6197 H   0  0  0  0  0  0  0  0  0  0  0  0
    2.7651   13.6597   26.0328 H   0  0  0  0  0  0  0  0  0  0  0  0
    1.4366   11.8921   24.1832 H   0  0  0  0  0  0  0  0  0  0  0  0
    1.9048   14.4670   24.3917 H   0  0  0  0  0  0  0  0  0  0  0  0
    3.0978   10.7523   23.5726 H   0  0  0  0  0  0  0  0  0  0  0  0
    3.0091   13.0955   21.8945 H   0  0  0  0  0  0  0  0  0  0  0  0
    4.7684   13.4288   23.5200 H   0  0  0  0  0  0  0  0  0  0  0  0
    9.9388    9.0014   23.6451 H   0  0  0  0  0  0  0  0  0  0  0  0
   10.1734   10.0433   22.2160 H   0  0  0  0  0  0  0  0  0  0  0  0
    7.8879    9.2098   25.1412 H   0  0  0  0  0  0  0  0  0  0  0  0
    5.6797   10.4198   25.5688 H   0  0  0  0  0  0  0  0  0  0  0  0
  2  1  1  1
  2  3  2  0
  2  4  1  0
  2  5  1  0
  5  6  1  0
  6  7  2  0
  6  8  1  1
  6  9  1  0
  9 10  1  0
 11 10  1  0
 11 12  1  0
 11 13  1  0
 12 17  1  0
 13 14  1  0
 13 15  1  0
 15 16  1  0
 15 17  1  0
 17 18  1  0
 18 19  1  0
 18 25  1  0
 19 20  2  0
 19 21  1  0
 21 22  2  0
 22 23  1  0
 22 24  1  0
 24 25  2  0
 10 26  1  0
 10 27  1  0
 11 28  1  1
 13 29  1  1
 14 30  1  0
 15 31  1  6
 16 32  1  0
 17 33  1  6
 23 34  1  0
 23 35  1  0
 24 36  1  0
 25 37  1  0
M  CHG  3   1  -1   4  -1   8  -1
M  END
>  <filename_input>  (25) 
7O0N_CDP_docked.sdf

>  <pdb_id>  (25) 
7O0N_CDP

>  <pose_rank>  (25) 
24

>  <num_atoms_heavy>  (25) 
25

>  <num_torsions>  (25) 
6

>  <pose>  (25) 
[3.043510440516299, 12.680607487245727, 25.61577139976237, -1.1280225848228767, -3.4332816438716427, -2.900948208150165, -0.8424046122403386, -1.7789721626656636, -0.19818992260439705, 3.3449451097909604, -4.141655197786663, 0.49760795093594024]

>  <energy>  (25) 
-117.81686469033507

>  <inter_energy>  (25) 
-120.36753874021613

>  <intra_energy>  (25) 
2.197361562750247

>  <rmsd>  (25) 
12.4412

>  <sdf_rank>  (25) 
0

$$$$

     RDKit          3D

 37 38  0  0  0  0  0  0  0  0999 V2000
    8.6290   25.3290   30.4910 O   0  0  0  0  0  0  0  0  0  0  0  0
    9.3070   24.0220   30.1140 P   0  0  1  0  0  0  0  0  0  0  0  0
   10.6220   24.3240   29.4990 O   0  0  0  0  0  0  0  0  0  0  0  0
    9.4400   23.2160   31.3880 O   0  0  0  0  0  0  0  0  0  0  0  0
    8.2560   23.2540   29.1390 O   0  0  0  0  0  0  0  0  0  0  0  0
    8.4860   22.6520   27.6540 P   0  0  2  0  0  0  0  0  0  0  0  0
    8.8660   23.6510   26.6140 O   0  0  0  0  0  0  0  0  0  0  0  0
    7.2240   21.9300   27.3100 O   0  0  0  0  0  0  0  0  0  0  0  0
    9.7360   21.5740   27.7350 O   0  0  0  0  0  0  0  0  0  0  0  0
    9.7110   20.5960   28.7340 C   0  0  0  0  0  0  0  0  0  0  0  0
   11.0240   20.2000   29.0230 C   0  0  1  0  0  0  0  0  0  0  0  0
   11.0040   19.2860   30.2070 O   0  0  0  0  0  0  0  0  0  0  0  0
   11.6870   19.3130   27.8680 C   0  0  1  0  0  0  0  0  0  0  0  0
   13.1240   19.7540   27.7450 O   0  0  0  0  0  0  0  0  0  0  0  0
   11.5580   18.0990   28.2490 C   0  0  1  0  0  0  0  0  0  0  0  0
   12.6310   17.1940   27.7760 O   0  0  0  0  0  0  0  0  0  0  0  0
   11.7310   18.2430   29.8720 C   0  0  2  0  0  0  0  0  0  0  0  0
   11.2450   17.1920   30.6750 N   0  0  0  0  0  0  0  0  0  0  0  0
   11.9940   16.8930   31.9110 C   0  0  0  0  0  0  0  0  0  0  0  0
   12.9920   17.4800   32.1740 O   0  0  0  0  0  0  0  0  0  0  0  0
   11.4960   15.8430   32.8010 N   0  0  0  0  0  0  0  0  0  0  0  0
   10.2970   15.1230   32.5050 C   0  0  0  0  0  0  0  0  0  0  0  0
    9.8440   14.1140   33.4050 N   0  0  0  0  0  0  0  0  0  0  0  0
    9.5300   15.4350   31.2800 C   0  0  0  0  0  0  0  0  0  0  0  0
   10.0310   16.4760   30.3930 C   0  0  0  0  0  0  0  0  0  0  0  0
    9.2427   21.0075   29.6403 H   0  0  0  0  0  0  0  0  0  0  0  0
    9.1306   19.7281   28.3877 H   0  0  0  0  0  0  0  0  0  0  0  0
   11.5898   21.1322   29.1672 H   0  0  0  0  0  0  0  0  0  0  0  0
   11.2243   19.4214   26.8760 H   0  0  0  0  0  0  0  0  0  0  0  0
   13.5112   19.8728   28.6484 H   0  0  0  0  0  0  0  0  0  0  0  0
   10.6184   17.6688   27.8722 H   0  0  0  0  0  0  0  0  0  0  0  0
   13.0979   16.8002   28.5551 H   0  0  0  0  0  0  0  0  0  0  0  0
   12.8154   18.2867   30.0512 H   0  0  0  0  0  0  0  0  0  0  0  0
    8.9812   13.5903   33.1996 H   0  0  0  0  0  0  0  0  0  0  0  0
   10.3796   13.9088   34.2605 H   0  0  0  0  0  0  0  0  0  0  0  0
    8.6022   14.8933   31.0439 H   0  0  0  0  0  0  0  0  0  0  0  0
    9.4648   16.7210   29.4823 H   0  0  0  0  0  0  0  0  0  0  0  0
  2  1  1  1
  2  3  2  0
  2  4  1  0
  2  5  1  0
  5  6  1  0
  6  7  2  0
  6  8  1  6
  6  9  1  0
  9 10  1  0
 11 10  1  0
 11 12  1  0
 11 13  1  0
 12 17  1  0
 13 14  1  0
 13 15  1  0
 15 16  1  0
 15 17  1  0
 17 18  1  0
 18 19  1  0
 18 25  1  0
 19 20  2  0
 19 21  1  0
 21 22  2  0
 22 23  1  0
 22 24  1  0
 24 25  2  0
 10 26  1  0
 10 27  1  0
 11 28  1  1
 13 29  1  6
 14 30  1  0
 15 31  1  1
 16 32  1  0
 17 33  1  6
 23 34  1  0
 23 35  1  0
 24 36  1  0
 25 37  1  0
M  CHG  3   1  -1   4  -1   8  -1
M  END
>  <filename_input>  (26) 
7O0N_CDP_docked.sdf

>  <pdb_id>  (26) 
7O0N_CDP

>  <pose_rank>  (26) 
25

>  <num_atoms_heavy>  (26) 
25

>  <num_torsions>  (26) 
6

>  <pose>  (26) 
[11.024, 20.2, 29.023, 1e-06, 1e-06, 1e-06, 0.0, 0.0, 0.0, 0.0, 0.0, 0.0]

>  <energy>  (26) 
-1016.4712836986541

>  <inter_energy>  (26) 
-1014.0140027820479

>  <intra_energy>  (26) 
2.5853097646423113

>  <rmsd>  (26) 
0.0

>  <sdf_rank>  (26) 
0

$$$$
