
     RDKit          3D

 43 45  0  0  0  0  0  0  0  0999 V2000
   -9.5182    8.4250  -25.9718 N   0  0  0  0  0  0  0  0  0  0  0  0
  -11.4723    9.5881  -26.4980 C   0  0  0  0  0  0  0  0  0  0  0  0
  -13.0974   11.0533  -26.4322 C   0  0  0  0  0  0  0  0  0  0  0  0
   -9.2922    9.2634  -24.8639 C   0  0  0  0  0  0  0  0  0  0  0  0
  -10.6019    8.5821  -26.7671 C   0  0  0  0  0  0  0  0  0  0  0  0
  -10.2130   10.2846  -24.6113 N   0  0  0  0  0  0  0  0  0  0  0  0
  -11.2674   10.4147  -25.4431 C   0  0  0  0  0  0  0  0  0  0  0  0
  -15.3937   18.0305  -26.2907 O   0  0  0  0  0  0  0  0  0  0  0  0
  -15.8006   18.4582  -25.1947 C   0  0  0  0  0  0  0  0  0  0  0  0
  -15.2131   19.3025  -24.4852 O   0  0  0  0  0  0  0  0  0  0  0  0
  -17.1516   17.8771  -24.6997 C   0  0  1  0  0  0  0  0  0  0  0  0
  -18.0748   17.7848  -25.8245 N   0  0  0  0  0  0  0  0  0  0  0  0
  -16.9734   16.4746  -24.0372 C   0  0  0  0  0  0  0  0  0  0  0  0
  -15.3435   16.3760  -23.1495 S   0  0  0  0  0  0  0  0  0  0  0  0
  -15.0836   14.5590  -23.3645 C   0  0  0  0  0  0  0  0  0  0  0  0
  -13.6142   14.0748  -23.6410 C   0  0  1  0  0  0  0  0  0  0  0  0
  -13.5884   12.6961  -24.0769 O   0  0  0  0  0  0  0  0  0  0  0  0
  -12.8663   14.7660  -24.7692 C   0  0  1  0  0  0  0  0  0  0  0  0
  -12.3305   16.0329  -24.3485 O   0  0  0  0  0  0  0  0  0  0  0  0
  -11.7441   13.7260  -25.0196 C   0  0  1  0  0  0  0  0  0  0  0  0
  -10.4661   14.1245  -24.4412 O   0  0  0  0  0  0  0  0  0  0  0  0
  -12.2509   12.3945  -24.3719 C   0  0  2  0  0  0  0  0  0  0  0  0
  -12.2461   11.3104  -25.4131 N   0  0  0  0  0  0  0  0  0  0  0  0
  -12.6159    9.9967  -27.0910 N   0  0  0  0  0  0  0  0  0  0  0  0
  -10.8208    7.7485  -27.8393 N   0  0  0  0  0  0  0  0  0  0  0  0
  -14.0147   11.6105  -26.6731 H   0  0  0  0  0  0  0  0  0  0  0  0
   -8.4158    9.1190  -24.2150 H   0  0  0  0  0  0  0  0  0  0  0  0
  -17.5565   18.5533  -23.9324 H   0  0  0  0  0  0  0  0  0  0  0  0
  -19.0376   17.6886  -25.4714 H   0  0  0  0  0  0  0  0  0  0  0  0
  -18.0031   18.6372  -26.3983 H   0  0  0  0  0  0  0  0  0  0  0  0
  -17.8358   16.9635  -26.3983 H   0  0  0  0  0  0  0  0  0  0  0  0
  -17.7883   16.3083  -23.3173 H   0  0  0  0  0  0  0  0  0  0  0  0
  -16.9978   15.7047  -24.8225 H   0  0  0  0  0  0  0  0  0  0  0  0
  -15.4284   14.0636  -22.4449 H   0  0  0  0  0  0  0  0  0  0  0  0
  -15.6460   14.2960  -24.2726 H   0  0  0  0  0  0  0  0  0  0  0  0
  -13.1395   14.2877  -22.6718 H   0  0  0  0  0  0  0  0  0  0  0  0
  -13.4762   15.0130  -25.6507 H   0  0  0  0  0  0  0  0  0  0  0  0
  -12.3139   16.0721  -23.3594 H   0  0  0  0  0  0  0  0  0  0  0  0
  -11.5540   13.6224  -26.0981 H   0  0  0  0  0  0  0  0  0  0  0  0
  -10.5303   14.1045  -23.4535 H   0  0  0  0  0  0  0  0  0  0  0  0
  -11.6498   12.0639  -23.5121 H   0  0  0  0  0  0  0  0  0  0  0  0
  -11.6508    7.8821  -28.4345 H   0  0  0  0  0  0  0  0  0  0  0  0
  -10.1547    6.9909  -28.0470 H   0  0  0  0  0  0  0  0  0  0  0  0
  1  4  2  0
  1  5  1  0
  2  5  2  0
  2  7  1  0
  2 24  1  0
  3 23  1  0
  3 24  2  0
  4  6  1  0
  5 25  1  0
  6  7  2  0
  7 23  1  0
  8  9  1  0
  9 10  2  0
  9 11  1  0
 11 12  1  0
 11 13  1  0
 13 14  1  0
 14 15  1  0
 16 15  1  0
 16 17  1  0
 16 18  1  0
 17 22  1  0
 18 19  1  0
 18 20  1  0
 20 21  1  0
 20 22  1  0
 22 23  1  0
  3 26  1  0
  4 27  1  0
 11 28  1  1
 12 29  1  0
 12 30  1  0
 12 31  1  0
 13 32  1  0
 13 33  1  0
 15 34  1  0
 15 35  1  0
 16 36  1  1
 18 37  1  6
 19 38  1  0
 20 39  1  6
 21 40  1  0
 22 41  1  1
 25 42  1  0
 25 43  1  0
M  CHG  2   8  -1  12   1
M  END
>  <filename_input>  (1) 
7O1T_5X8_docked.sdf

>  <pdb_id>  (1) 
7O1T_5X8

>  <pose_rank>  (1) 
0

>  <num_atoms_heavy>  (1) 
25

>  <num_torsions>  (1) 
6

>  <pose>  (1) 
[-13.614166303964248, 14.074836813579203, -23.641011318248236, 0.11330016479553932, 6.1423981513047385, -0.8150732187717634, -6.468224194633763, 4.597579594891622, -1.3313379638714773, 1.2388209562814612, 1.649835668281386, 2.8160945543406117]

>  <energy>  (1) 
-1152.838725782152

>  <inter_energy>  (1) 
-1168.334490487002

>  <intra_energy>  (1) 
13.377905411675314

>  <rmsd>  (1) 
0.573668

>  <sdf_rank>  (1) 
0

$$$$

     RDKit          3D

 43 45  0  0  0  0  0  0  0  0999 V2000
   -9.4638    8.3803  -26.0345 N   0  0  0  0  0  0  0  0  0  0  0  0
  -11.1797    9.8118  -26.7083 C   0  0  0  0  0  0  0  0  0  0  0  0
  -12.6223   11.4583  -26.7270 C   0  0  0  0  0  0  0  0  0  0  0  0
   -9.3045    9.1007  -24.8358 C   0  0  0  0  0  0  0  0  0  0  0  0
  -10.3989    8.7282  -26.9489 C   0  0  0  0  0  0  0  0  0  0  0  0
  -10.1309   10.2069  -24.6168 N   0  0  0  0  0  0  0  0  0  0  0  0
  -11.0350   10.5272  -25.5658 C   0  0  0  0  0  0  0  0  0  0  0  0
  -17.5455   18.2549  -23.7086 O   0  0  0  0  0  0  0  0  0  0  0  0
  -17.1377   17.5871  -24.6767 C   0  0  0  0  0  0  0  0  0  0  0  0
  -17.7628   16.6552  -25.2263 O   0  0  0  0  0  0  0  0  0  0  0  0
  -15.7368   17.9708  -25.2228 C   0  0  1  0  0  0  0  0  0  0  0  0
  -15.4401   19.3501  -24.8549 N   0  0  0  0  0  0  0  0  0  0  0  0
  -14.6219   17.0210  -24.6820 C   0  0  0  0  0  0  0  0  0  0  0  0
  -15.0659   16.3924  -22.9902 S   0  0  0  0  0  0  0  0  0  0  0  0
  -14.7933   14.5987  -23.3416 C   0  0  0  0  0  0  0  0  0  0  0  0
  -13.3165   14.1424  -23.6259 C   0  0  1  0  0  0  0  0  0  0  0  0
  -13.2759   12.8031  -24.1702 O   0  0  0  0  0  0  0  0  0  0  0  0
  -12.5492   14.9238  -24.6797 C   0  0  1  0  0  0  0  0  0  0  0  0
  -12.0275   16.1544  -24.1481 O   0  0  0  0  0  0  0  0  0  0  0  0
  -11.4176   13.9103  -24.9895 C   0  0  1  0  0  0  0  0  0  0  0  0
  -10.1532   14.2648  -24.3552 O   0  0  0  0  0  0  0  0  0  0  0  0
  -11.9315   12.5298  -24.4610 C   0  0  2  0  0  0  0  0  0  0  0  0
  -11.9009   11.5326  -25.5853 N   0  0  0  0  0  0  0  0  0  0  0  0
  -12.1741   10.4013  -27.4084 N   0  0  0  0  0  0  0  0  0  0  0  0
  -10.5557    8.0090  -28.1110 N   0  0  0  0  0  0  0  0  0  0  0  0
  -13.4275   12.1410  -27.0363 H   0  0  0  0  0  0  0  0  0  0  0  0
   -8.5510    8.8018  -24.0923 H   0  0  0  0  0  0  0  0  0  0  0  0
  -15.7539   17.8666  -26.3177 H   0  0  0  0  0  0  0  0  0  0  0  0
  -15.4217   19.4354  -23.8286 H   0  0  0  0  0  0  0  0  0  0  0  0
  -14.5222   19.6178  -25.2381 H   0  0  0  0  0  0  0  0  0  0  0  0
  -16.1666   19.9716  -25.2381 H   0  0  0  0  0  0  0  0  0  0  0  0
  -14.5095   16.1678  -25.3671 H   0  0  0  0  0  0  0  0  0  0  0  0
  -13.6779   17.5819  -24.6165 H   0  0  0  0  0  0  0  0  0  0  0  0
  -15.1537   14.0317  -22.4706 H   0  0  0  0  0  0  0  0  0  0  0  0
  -15.3366   14.4059  -24.2784 H   0  0  0  0  0  0  0  0  0  0  0  0
  -12.8623   14.2782  -22.6333 H   0  0  0  0  0  0  0  0  0  0  0  0
  -13.1423   15.2390  -25.5508 H   0  0  0  0  0  0  0  0  0  0  0  0
  -12.0425   16.1191  -23.1588 H   0  0  0  0  0  0  0  0  0  0  0  0
  -11.2053   13.8940  -26.0687 H   0  0  0  0  0  0  0  0  0  0  0  0
  -10.2581   14.2354  -23.3712 H   0  0  0  0  0  0  0  0  0  0  0  0
  -11.3463   12.1330  -23.6183 H   0  0  0  0  0  0  0  0  0  0  0  0
  -11.2723    8.2876  -28.7964 H   0  0  0  0  0  0  0  0  0  0  0  0
   -9.9564    7.1919  -28.2958 H   0  0  0  0  0  0  0  0  0  0  0  0
  1  4  2  0
  1  5  1  0
  2  5  2  0
  2  7  1  0
  2 24  1  0
  3 23  1  0
  3 24  2  0
  4  6  1  0
  5 25  1  0
  6  7  2  0
  7 23  1  0
  8  9  1  0
  9 10  2  0
  9 11  1  0
 11 12  1  0
 11 13  1  0
 13 14  1  0
 14 15  1  0
 16 15  1  0
 16 17  1  0
 16 18  1  0
 17 22  1  0
 18 19  1  0
 18 20  1  0
 20 21  1  0
 20 22  1  0
 22 23  1  0
  3 26  1  0
  4 27  1  0
 11 28  1  6
 12 29  1  0
 12 30  1  0
 12 31  1  0
 13 32  1  0
 13 33  1  0
 15 34  1  0
 15 35  1  0
 16 36  1  1
 18 37  1  6
 19 38  1  0
 20 39  1  6
 21 40  1  0
 22 41  1  1
 25 42  1  0
 25 43  1  0
M  CHG  2   8  -1  12   1
M  END
>  <filename_input>  (2) 
7O1T_5X8_docked.sdf

>  <pdb_id>  (2) 
7O1T_5X8

>  <pose_rank>  (2) 
1

>  <num_atoms_heavy>  (2) 
25

>  <num_torsions>  (2) 
6

>  <pose>  (2) 
[-13.316518249865014, 14.142379505114295, -23.625922646773567, -3.653946540337366, 4.919138622712323, -0.5325210325126937, 6.268173716588401, 4.599485223360517, -2.6421944142024305, 6.117695342942828, 6.812288549495524, 3.1327060278835566]

>  <energy>  (2) 
-1120.4739376628665

>  <inter_energy>  (2) 
-1164.923069989141

>  <intra_energy>  (2) 
56.435085750406344

>  <rmsd>  (2) 
1.36556

>  <sdf_rank>  (2) 
0

$$$$

     RDKit          3D

 43 45  0  0  0  0  0  0  0  0999 V2000
   -9.1044    8.5043  -25.2289 N   0  0  0  0  0  0  0  0  0  0  0  0
  -10.9192    9.8646  -25.7801 C   0  0  0  0  0  0  0  0  0  0  0  0
  -12.3619   11.5109  -25.7572 C   0  0  0  0  0  0  0  0  0  0  0  0
   -8.7632    9.3558  -24.1612 C   0  0  0  0  0  0  0  0  0  0  0  0
  -10.1764    8.7536  -26.0165 C   0  0  0  0  0  0  0  0  0  0  0  0
   -9.5547   10.4871  -23.9414 N   0  0  0  0  0  0  0  0  0  0  0  0
  -10.6013   10.7047  -24.7647 C   0  0  0  0  0  0  0  0  0  0  0  0
  -15.1336   14.4888  -17.0466 O   0  0  0  0  0  0  0  0  0  0  0  0
  -15.2458   15.6473  -17.4880 C   0  0  0  0  0  0  0  0  0  0  0  0
  -16.1983   16.4211  -17.2527 O   0  0  0  0  0  0  0  0  0  0  0  0
  -14.0905   16.1405  -18.3989 C   0  0  1  0  0  0  0  0  0  0  0  0
  -12.8364   16.0808  -17.6575 N   0  0  0  0  0  0  0  0  0  0  0  0
  -13.9797   15.2949  -19.7067 C   0  0  0  0  0  0  0  0  0  0  0  0
  -14.0383   16.3972  -21.2020 S   0  0  0  0  0  0  0  0  0  0  0  0
  -13.9918   15.0535  -22.4699 C   0  0  0  0  0  0  0  0  0  0  0  0
  -12.5748   14.5461  -22.9221 C   0  0  1  0  0  0  0  0  0  0  0  0
  -12.6140   13.1529  -23.3082 O   0  0  0  0  0  0  0  0  0  0  0  0
  -11.9808   15.1905  -24.1638 C   0  0  1  0  0  0  0  0  0  0  0  0
  -11.3875   16.4661  -23.8635 O   0  0  0  0  0  0  0  0  0  0  0  0
  -10.9070   14.1318  -24.5241 C   0  0  1  0  0  0  0  0  0  0  0  0
   -9.5614   14.5380  -24.1356 O   0  0  0  0  0  0  0  0  0  0  0  0
  -11.3294   12.8285  -23.7677 C   0  0  2  0  0  0  0  0  0  0  0  0
  -11.4687   11.7090  -24.7610 N   0  0  0  0  0  0  0  0  0  0  0  0
  -12.0179   10.3790  -26.3758 N   0  0  0  0  0  0  0  0  0  0  0  0
  -10.5093    7.9076  -27.0488 N   0  0  0  0  0  0  0  0  0  0  0  0
  -13.2125   12.1609  -26.0104 H   0  0  0  0  0  0  0  0  0  0  0  0
   -7.8981    9.1372  -23.5179 H   0  0  0  0  0  0  0  0  0  0  0  0
  -14.3053   17.1776  -18.6960 H   0  0  0  0  0  0  0  0  0  0  0  0
  -13.0344   16.0902  -16.6467 H   0  0  0  0  0  0  0  0  0  0  0  0
  -12.3345   15.2149  -17.9010 H   0  0  0  0  0  0  0  0  0  0  0  0
  -12.2545   16.8950  -17.9010 H   0  0  0  0  0  0  0  0  0  0  0  0
  -13.0284   14.7427  -19.7011 H   0  0  0  0  0  0  0  0  0  0  0  0
  -14.8256   14.5930  -19.7490 H   0  0  0  0  0  0  0  0  0  0  0  0
  -14.5373   14.1910  -22.0591 H   0  0  0  0  0  0  0  0  0  0  0  0
  -14.4370   15.4976  -23.3724 H   0  0  0  0  0  0  0  0  0  0  0  0
  -11.9740   14.7878  -22.0330 H   0  0  0  0  0  0  0  0  0  0  0  0
  -12.7016   15.4127  -24.9644 H   0  0  0  0  0  0  0  0  0  0  0  0
  -11.3336   16.5821  -22.8818 H   0  0  0  0  0  0  0  0  0  0  0  0
  -10.8630   13.9892  -25.6139 H   0  0  0  0  0  0  0  0  0  0  0  0
   -9.4949   14.5580  -23.1480 H   0  0  0  0  0  0  0  0  0  0  0  0
  -10.6205   12.5222  -22.9844 H   0  0  0  0  0  0  0  0  0  0  0  0
  -11.3285    8.1123  -27.6386 H   0  0  0  0  0  0  0  0  0  0  0  0
   -9.9394    7.0694  -27.2319 H   0  0  0  0  0  0  0  0  0  0  0  0
  1  4  2  0
  1  5  1  0
  2  5  2  0
  2  7  1  0
  2 24  1  0
  3 23  1  0
  3 24  2  0
  4  6  1  0
  5 25  1  0
  6  7  2  0
  7 23  1  0
  8  9  1  0
  9 10  2  0
  9 11  1  0
 11 12  1  0
 11 13  1  0
 13 14  1  0
 14 15  1  0
 16 15  1  0
 16 17  1  0
 16 18  1  0
 17 22  1  0
 18 19  1  0
 18 20  1  0
 20 21  1  0
 20 22  1  0
 22 23  1  0
  3 26  1  0
  4 27  1  0
 11 28  1  6
 12 29  1  0
 12 30  1  0
 12 31  1  0
 13 32  1  0
 13 33  1  0
 15 34  1  0
 15 35  1  0
 16 36  1  1
 18 37  1  6
 19 38  1  0
 20 39  1  6
 21 40  1  0
 22 41  1  1
 25 42  1  0
 25 43  1  0
M  CHG  2   8  -1  12   1
M  END
>  <filename_input>  (3) 
7O1T_5X8_docked.sdf

>  <pdb_id>  (3) 
7O1T_5X8

>  <pose_rank>  (3) 
2

>  <num_atoms_heavy>  (3) 
25

>  <num_torsions>  (3) 
6

>  <pose>  (3) 
[-12.574794159918481, 14.546063145991708, -22.922131265397276, -0.03629131078468675, 0.04875863522491897, 0.0056729336103152755, -0.023589766213857347, -2.4318688068403143, 0.9494306666667272, 0.7794238775050255, -3.031064104831522, -3.7720405759815363]

>  <energy>  (3) 
-715.8048810495874

>  <inter_energy>  (3) 
-712.884761535097

>  <intra_energy>  (3) 
0.0

>  <rmsd>  (3) 
4.16361

>  <sdf_rank>  (3) 
0

$$$$

     RDKit          3D

 43 45  0  0  0  0  0  0  0  0999 V2000
  -10.8901    8.2708  -27.3538 N   0  0  0  0  0  0  0  0  0  0  0  0
  -10.1775    9.9040  -25.8463 C   0  0  0  0  0  0  0  0  0  0  0  0
  -10.0726   11.7648  -24.6980 C   0  0  0  0  0  0  0  0  0  0  0  0
  -11.9449    9.0976  -27.7839 C   0  0  0  0  0  0  0  0  0  0  0  0
  -10.0139    8.6787  -26.4065 C   0  0  0  0  0  0  0  0  0  0  0  0
  -12.0794   10.3566  -27.1911 N   0  0  0  0  0  0  0  0  0  0  0  0
  -11.1938   10.7118  -26.2371 C   0  0  0  0  0  0  0  0  0  0  0  0
  -17.1222   18.0755  -25.0645 O   0  0  0  0  0  0  0  0  0  0  0  0
  -15.9731   18.1975  -25.5275 C   0  0  0  0  0  0  0  0  0  0  0  0
  -15.6968   18.4246  -26.7248 O   0  0  0  0  0  0  0  0  0  0  0  0
  -14.8125   18.0528  -24.5078 C   0  0  1  0  0  0  0  0  0  0  0  0
  -14.5983   19.3315  -23.8407 N   0  0  0  0  0  0  0  0  0  0  0  0
  -15.1019   16.9401  -23.4516 C   0  0  0  0  0  0  0  0  0  0  0  0
  -13.5744   16.5709  -22.4593 S   0  0  0  0  0  0  0  0  0  0  0  0
  -12.4921   16.1055  -23.8832 C   0  0  0  0  0  0  0  0  0  0  0  0
  -12.8856   14.8142  -24.6880 C   0  0  1  0  0  0  0  0  0  0  0  0
  -11.7142   14.0635  -25.0825 O   0  0  0  0  0  0  0  0  0  0  0  0
  -13.6872   13.7602  -23.9422 C   0  0  1  0  0  0  0  0  0  0  0  0
  -15.0829   14.1034  -23.8822 O   0  0  0  0  0  0  0  0  0  0  0  0
  -13.4388   12.5377  -24.8628 C   0  0  1  0  0  0  0  0  0  0  0  0
  -14.5755   12.2417  -25.7269 O   0  0  0  0  0  0  0  0  0  0  0  0
  -12.1780   12.9013  -25.7156 C   0  0  2  0  0  0  0  0  0  0  0  0
  -11.1365   11.8334  -25.5303 N   0  0  0  0  0  0  0  0  0  0  0  0
   -9.4910   10.5800  -24.8986 N   0  0  0  0  0  0  0  0  0  0  0  0
   -8.9781    7.8682  -26.0031 N   0  0  0  0  0  0  0  0  0  0  0  0
   -9.7474   12.5400  -23.9886 H   0  0  0  0  0  0  0  0  0  0  0  0
  -12.6438    8.7626  -28.5645 H   0  0  0  0  0  0  0  0  0  0  0  0
  -13.9068   17.7563  -25.0571 H   0  0  0  0  0  0  0  0  0  0  0  0
  -14.6212   19.1944  -22.8201 H   0  0  0  0  0  0  0  0  0  0  0  0
  -13.6817   19.7127  -24.1153 H   0  0  0  0  0  0  0  0  0  0  0  0
  -15.3405   19.9907  -24.1153 H   0  0  0  0  0  0  0  0  0  0  0  0
  -15.8991   17.2817  -22.7751 H   0  0  0  0  0  0  0  0  0  0  0  0
  -15.4153   16.0251  -23.9757 H   0  0  0  0  0  0  0  0  0  0  0  0
  -12.4920   16.9491  -24.5892 H   0  0  0  0  0  0  0  0  0  0  0  0
  -11.5145   15.8751  -23.4348 H   0  0  0  0  0  0  0  0  0  0  0  0
  -13.4809   15.2510  -25.5035 H   0  0  0  0  0  0  0  0  0  0  0  0
  -13.4020   13.6152  -22.8898 H   0  0  0  0  0  0  0  0  0  0  0  0
  -15.3652   14.1729  -22.9358 H   0  0  0  0  0  0  0  0  0  0  0  0
  -13.2899   11.6301  -24.2593 H   0  0  0  0  0  0  0  0  0  0  0  0
  -15.3680   12.0353  -25.1706 H   0  0  0  0  0  0  0  0  0  0  0  0
  -12.3872   13.0107  -26.7900 H   0  0  0  0  0  0  0  0  0  0  0  0
   -8.3202    8.1944  -25.2808 H   0  0  0  0  0  0  0  0  0  0  0  0
   -8.8605    6.9353  -26.4234 H   0  0  0  0  0  0  0  0  0  0  0  0
  1  4  2  0
  1  5  1  0
  2  5  2  0
  2  7  1  0
  2 24  1  0
  3 23  1  0
  3 24  2  0
  4  6  1  0
  5 25  1  0
  6  7  2  0
  7 23  1  0
  8  9  1  0
  9 10  2  0
  9 11  1  0
 11 12  1  0
 11 13  1  0
 13 14  1  0
 14 15  1  0
 16 15  1  0
 16 17  1  0
 16 18  1  0
 17 22  1  0
 18 19  1  0
 18 20  1  0
 20 21  1  0
 20 22  1  0
 22 23  1  0
  3 26  1  0
  4 27  1  0
 11 28  1  6
 12 29  1  0
 12 30  1  0
 12 31  1  0
 13 32  1  0
 13 33  1  0
 15 34  1  0
 15 35  1  0
 16 36  1  6
 18 37  1  1
 19 38  1  0
 20 39  1  1
 21 40  1  0
 22 41  1  6
 25 42  1  0
 25 43  1  0
M  CHG  2   8  -1  12   1
M  END
>  <filename_input>  (4) 
7O1T_5X8_docked.sdf

>  <pdb_id>  (4) 
7O1T_5X8

>  <pose_rank>  (4) 
3

>  <num_atoms_heavy>  (4) 
25

>  <num_torsions>  (4) 
6

>  <pose>  (4) 
[-12.88563887672027, 14.814244326129336, -24.68804827553147, 1.4975591204722707, -2.7668566962709855, -1.3594064674774382, -0.5138173216024641, -1.2352964487767362, -4.949828081624823, 2.849694293649634, 4.010539462118613, 2.07607016512468]

>  <energy>  (4) 
-816.3041833165129

>  <inter_energy>  (4) 
-844.570298764135

>  <intra_energy>  (4) 
26.98869731905504

>  <rmsd>  (4) 
2.6653

>  <sdf_rank>  (4) 
0

$$$$

     RDKit          3D

 43 45  0  0  0  0  0  0  0  0999 V2000
  -12.8170    9.2535  -28.1227 N   0  0  0  0  0  0  0  0  0  0  0  0
  -11.2296    9.5754  -26.4422 C   0  0  0  0  0  0  0  0  0  0  0  0
  -10.1646   10.4224  -24.7273 C   0  0  0  0  0  0  0  0  0  0  0  0
  -13.5130   10.4074  -27.7159 C   0  0  0  0  0  0  0  0  0  0  0  0
  -11.6843    8.8548  -27.4986 C   0  0  0  0  0  0  0  0  0  0  0  0
  -13.0122   11.1303  -26.6289 N   0  0  0  0  0  0  0  0  0  0  0  0
  -11.8910   10.6832  -26.0260 C   0  0  0  0  0  0  0  0  0  0  0  0
  -14.1786   18.7480  -25.1399 O   0  0  0  0  0  0  0  0  0  0  0  0
  -15.2217   18.3628  -25.6995 C   0  0  0  0  0  0  0  0  0  0  0  0
  -15.4110   18.3339  -26.9343 O   0  0  0  0  0  0  0  0  0  0  0  0
  -16.3585   17.8835  -24.7584 C   0  0  1  0  0  0  0  0  0  0  0  0
  -17.6211   17.8936  -25.4878 N   0  0  0  0  0  0  0  0  0  0  0  0
  -16.0801   16.4561  -24.1905 C   0  0  0  0  0  0  0  0  0  0  0  0
  -15.8048   15.2467  -25.5746 S   0  0  0  0  0  0  0  0  0  0  0  0
  -15.1890   13.8515  -24.5307 C   0  0  0  0  0  0  0  0  0  0  0  0
  -13.6347   13.7459  -24.3234 C   0  0  1  0  0  0  0  0  0  0  0  0
  -13.1887   12.3715  -24.3841 O   0  0  0  0  0  0  0  0  0  0  0  0
  -12.7571   14.3987  -25.3786 C   0  0  1  0  0  0  0  0  0  0  0  0
  -12.6511   15.8183  -25.1718 O   0  0  0  0  0  0  0  0  0  0  0  0
  -11.4152   13.6778  -25.0904 C   0  0  1  0  0  0  0  0  0  0  0  0
  -10.4770   14.5086  -24.3446 O   0  0  0  0  0  0  0  0  0  0  0  0
  -11.7911   12.3988  -24.2706 C   0  0  2  0  0  0  0  0  0  0  0  0
  -11.2516   11.1873  -24.9782 N   0  0  0  0  0  0  0  0  0  0  0  0
  -10.1589    9.4379  -25.6290 N   0  0  0  0  0  0  0  0  0  0  0  0
  -11.0041    7.7332  -27.9129 N   0  0  0  0  0  0  0  0  0  0  0  0
   -9.4240   10.5817  -23.9298 H   0  0  0  0  0  0  0  0  0  0  0  0
  -14.4251   10.7312  -28.2384 H   0  0  0  0  0  0  0  0  0  0  0  0
  -16.4105   18.5727  -23.9027 H   0  0  0  0  0  0  0  0  0  0  0  0
  -18.4041   17.8999  -24.8186 H   0  0  0  0  0  0  0  0  0  0  0  0
  -17.6687   18.7350  -26.0799 H   0  0  0  0  0  0  0  0  0  0  0  0
  -17.6822   17.0531  -26.0799 H   0  0  0  0  0  0  0  0  0  0  0  0
  -15.1834   16.4883  -23.5542 H   0  0  0  0  0  0  0  0  0  0  0  0
  -16.9511   16.1312  -23.6023 H   0  0  0  0  0  0  0  0  0  0  0  0
  -15.6500   13.9523  -23.5371 H   0  0  0  0  0  0  0  0  0  0  0  0
  -15.4658   12.9401  -25.0809 H   0  0  0  0  0  0  0  0  0  0  0  0
  -13.5195   14.2524  -23.3537 H   0  0  0  0  0  0  0  0  0  0  0  0
  -13.1223   14.3056  -26.4120 H   0  0  0  0  0  0  0  0  0  0  0  0
  -12.6368   16.0102  -24.2007 H   0  0  0  0  0  0  0  0  0  0  0  0
  -10.9020   13.4365  -26.0330 H   0  0  0  0  0  0  0  0  0  0  0  0
  -10.6221   14.3801  -23.3737 H   0  0  0  0  0  0  0  0  0  0  0  0
  -11.4099   12.4067  -23.2389 H   0  0  0  0  0  0  0  0  0  0  0  0
  -10.1435    7.4438  -27.4266 H   0  0  0  0  0  0  0  0  0  0  0  0
  -11.3553    7.1828  -28.7096 H   0  0  0  0  0  0  0  0  0  0  0  0
  1  4  2  0
  1  5  1  0
  2  5  2  0
  2  7  1  0
  2 24  1  0
  3 23  1  0
  3 24  2  0
  4  6  1  0
  5 25  1  0
  6  7  2  0
  7 23  1  0
  8  9  1  0
  9 10  2  0
  9 11  1  0
 11 12  1  0
 11 13  1  0
 13 14  1  0
 14 15  1  0
 16 15  1  0
 16 17  1  0
 16 18  1  0
 17 22  1  0
 18 19  1  0
 18 20  1  0
 20 21  1  0
 20 22  1  0
 22 23  1  0
  3 26  1  0
  4 27  1  0
 11 28  1  1
 12 29  1  0
 12 30  1  0
 12 31  1  0
 13 32  1  0
 13 33  1  0
 15 34  1  0
 15 35  1  0
 16 36  1  1
 18 37  1  6
 19 38  1  0
 20 39  1  6
 21 40  1  0
 22 41  1  1
 25 42  1  0
 25 43  1  0
M  CHG  2   8  -1  12   1
M  END
>  <filename_input>  (5) 
7O1T_5X8_docked.sdf

>  <pdb_id>  (5) 
7O1T_5X8

>  <pose_rank>  (5) 
4

>  <num_atoms_heavy>  (5) 
25

>  <num_torsions>  (5) 
6

>  <pose>  (5) 
[-13.634696157218302, 13.745863211431386, -24.32337766195609, 2.5004614460735084, 4.141698384331224, -3.175302845884313, 2.9446854265677636, 11.366590263989487, 57.40721040534034, 19.38021357463021, -6.196762164721358, 0.0698699594394512]

>  <energy>  (5) 
-777.256786552945

>  <inter_energy>  (5) 
-807.8902546888088

>  <intra_energy>  (5) 
40.50706079917838

>  <rmsd>  (5) 
1.94284

>  <sdf_rank>  (5) 
0

$$$$

     RDKit          3D

 43 45  0  0  0  0  0  0  0  0999 V2000
  -17.0522   17.5719  -25.1325 N   0  0  0  0  0  0  0  0  0  0  0  0
  -14.8489   17.4530  -24.3715 C   0  0  0  0  0  0  0  0  0  0  0  0
  -12.9384   16.6546  -23.6611 C   0  0  0  0  0  0  0  0  0  0  0  0
  -17.1837   16.1739  -25.0353 C   0  0  0  0  0  0  0  0  0  0  0  0
  -15.9021   18.1987  -24.7919 C   0  0  0  0  0  0  0  0  0  0  0  0
  -16.0814   15.4373  -24.5913 N   0  0  0  0  0  0  0  0  0  0  0  0
  -14.9499   16.1040  -24.2820 C   0  0  0  0  0  0  0  0  0  0  0  0
  -10.1570    7.2081  -27.1324 O   0  0  0  0  0  0  0  0  0  0  0  0
  -10.2988    8.4237  -26.9050 C   0  0  0  0  0  0  0  0  0  0  0  0
  -11.1158    9.1756  -27.4781 O   0  0  0  0  0  0  0  0  0  0  0  0
   -9.3720    9.0217  -25.8135 C   0  0  1  0  0  0  0  0  0  0  0  0
   -8.0129    9.1101  -26.3343 N   0  0  0  0  0  0  0  0  0  0  0  0
   -9.8583   10.4295  -25.3454 C   0  0  0  0  0  0  0  0  0  0  0  0
   -9.8499   10.5378  -23.4900 S   0  0  0  0  0  0  0  0  0  0  0  0
  -10.3908   12.3007  -23.3683 C   0  0  0  0  0  0  0  0  0  0  0  0
  -11.8840   12.6177  -23.7424 C   0  0  1  0  0  0  0  0  0  0  0  0
  -12.2789   13.9249  -23.2662 O   0  0  0  0  0  0  0  0  0  0  0  0
  -12.2122   12.7199  -25.2228 C   0  0  1  0  0  0  0  0  0  0  0  0
  -12.3777   11.4205  -25.8173 O   0  0  0  0  0  0  0  0  0  0  0  0
  -13.5570   13.4874  -25.1439 C   0  0  1  0  0  0  0  0  0  0  0  0
  -14.7136   12.6208  -25.3381 O   0  0  0  0  0  0  0  0  0  0  0  0
  -13.5884   14.1378  -23.7208 C   0  0  2  0  0  0  0  0  0  0  0  0
  -13.7867   15.6209  -23.8643 N   0  0  0  0  0  0  0  0  0  0  0  0
  -13.5974   17.7726  -23.9739 N   0  0  0  0  0  0  0  0  0  0  0  0
  -15.7885   19.5669  -24.8774 N   0  0  0  0  0  0  0  0  0  0  0  0
  -11.8999   16.5867  -23.3048 H   0  0  0  0  0  0  0  0  0  0  0  0
  -18.1273   15.6749  -25.3013 H   0  0  0  0  0  0  0  0  0  0  0  0
   -9.3989    8.3572  -24.9373 H   0  0  0  0  0  0  0  0  0  0  0  0
   -7.3468    9.1534  -25.5498 H   0  0  0  0  0  0  0  0  0  0  0  0
   -7.8114    8.2804  -26.9104 H   0  0  0  0  0  0  0  0  0  0  0  0
   -7.9205    9.9589  -26.9104 H   0  0  0  0  0  0  0  0  0  0  0  0
   -9.1878   11.1990  -25.7559 H   0  0  0  0  0  0  0  0  0  0  0  0
  -10.8850   10.5893  -25.7063 H   0  0  0  0  0  0  0  0  0  0  0  0
  -10.2333   12.6249  -22.3291 H   0  0  0  0  0  0  0  0  0  0  0  0
   -9.7894   12.8358  -24.1180 H   0  0  0  0  0  0  0  0  0  0  0  0
  -12.3989   11.7584  -23.2881 H   0  0  0  0  0  0  0  0  0  0  0  0
  -11.4386   13.1998  -25.8402 H   0  0  0  0  0  0  0  0  0  0  0  0
  -12.4645   10.7397  -25.1038 H   0  0  0  0  0  0  0  0  0  0  0  0
  -13.6171   14.2350  -25.9486 H   0  0  0  0  0  0  0  0  0  0  0  0
  -15.0749   12.3501  -24.4570 H   0  0  0  0  0  0  0  0  0  0  0  0
  -14.3769   13.7356  -23.0678 H   0  0  0  0  0  0  0  0  0  0  0  0
  -14.9058   20.0279  -24.6141 H   0  0  0  0  0  0  0  0  0  0  0  0
  -16.5861   20.1305  -25.2046 H   0  0  0  0  0  0  0  0  0  0  0  0
  1  4  2  0
  1  5  1  0
  2  5  2  0
  2  7  1  0
  2 24  1  0
  3 23  1  0
  3 24  2  0
  4  6  1  0
  5 25  1  0
  6  7  2  0
  7 23  1  0
  8  9  1  0
  9 10  2  0
  9 11  1  0
 11 12  1  0
 11 13  1  0
 13 14  1  0
 14 15  1  0
 16 15  1  0
 16 17  1  0
 16 18  1  0
 17 22  1  0
 18 19  1  0
 18 20  1  0
 20 21  1  0
 20 22  1  0
 22 23  1  0
  3 26  1  0
  4 27  1  0
 11 28  1  1
 12 29  1  0
 12 30  1  0
 12 31  1  0
 13 32  1  0
 13 33  1  0
 15 34  1  0
 15 35  1  0
 16 36  1  1
 18 37  1  6
 19 38  1  0
 20 39  1  6
 21 40  1  0
 22 41  1  1
 25 42  1  0
 25 43  1  0
M  CHG  2   8  -1  12   1
M  END
>  <filename_input>  (6) 
7O1T_5X8_docked.sdf

>  <pdb_id>  (6) 
7O1T_5X8

>  <pose_rank>  (6) 
5

>  <num_atoms_heavy>  (6) 
25

>  <num_torsions>  (6) 
6

>  <pose>  (6) 
[-11.883988700829526, 12.61770503274237, -23.742398622869008, 0.23896403735507785, 0.9448108648235386, -2.678974445635458, -0.7369268849287117, -2.1808398466509322, -2.5685421875540655, 0.6799149632996675, -2.8967884767742524, -1.4802927552948286]

>  <energy>  (6) 
-589.3773850077571

>  <inter_energy>  (6) 
-627.5617362260377

>  <intra_energy>  (6) 
42.5409840546523

>  <rmsd>  (6) 
8.38169

>  <sdf_rank>  (6) 
0

$$$$

     RDKit          3D

 43 45  0  0  0  0  0  0  0  0999 V2000
  -13.0530    9.5951  -27.5695 N   0  0  0  0  0  0  0  0  0  0  0  0
  -11.2463    9.1435  -26.1625 C   0  0  0  0  0  0  0  0  0  0  0  0
   -9.7315    9.3548  -24.5963 C   0  0  0  0  0  0  0  0  0  0  0  0
  -13.2322   10.8559  -26.9701 C   0  0  0  0  0  0  0  0  0  0  0  0
  -12.0639    8.7596  -27.1755 C   0  0  0  0  0  0  0  0  0  0  0  0
  -12.3671   11.2225  -25.9347 N   0  0  0  0  0  0  0  0  0  0  0  0
  -11.4087   10.3486  -25.5630 C   0  0  0  0  0  0  0  0  0  0  0  0
  -17.1824   16.7403  -24.9695 O   0  0  0  0  0  0  0  0  0  0  0  0
  -16.3238   17.6022  -25.2330 C   0  0  0  0  0  0  0  0  0  0  0  0
  -16.4283   18.4799  -26.1162 O   0  0  0  0  0  0  0  0  0  0  0  0
  -15.0320   17.5568  -24.3745 C   0  0  1  0  0  0  0  0  0  0  0  0
  -14.9611   18.7580  -23.5511 N   0  0  0  0  0  0  0  0  0  0  0  0
  -14.9788   16.2847  -23.4709 C   0  0  0  0  0  0  0  0  0  0  0  0
  -13.2515   16.0015  -22.8460 S   0  0  0  0  0  0  0  0  0  0  0  0
  -13.1549   14.2049  -23.2681 C   0  0  0  0  0  0  0  0  0  0  0  0
  -11.7210   13.5676  -23.3570 C   0  0  1  0  0  0  0  0  0  0  0  0
  -11.7929   12.1420  -23.5889 O   0  0  0  0  0  0  0  0  0  0  0  0
  -10.8405   14.0206  -24.5100 C   0  0  1  0  0  0  0  0  0  0  0  0
  -10.2197   15.2884  -24.2332 O   0  0  0  0  0  0  0  0  0  0  0  0
   -9.8042   12.8675  -24.5211 C   0  0  1  0  0  0  0  0  0  0  0  0
   -8.5358   13.2427  -23.9071 O   0  0  0  0  0  0  0  0  0  0  0  0
  -10.4723   11.6926  -23.7323 C   0  0  2  0  0  0  0  0  0  0  0  0
  -10.4983   10.4690  -24.6050 N   0  0  0  0  0  0  0  0  0  0  0  0
  -10.1965    8.5488  -25.5536 N   0  0  0  0  0  0  0  0  0  0  0  0
  -11.8888    7.5351  -27.7774 N   0  0  0  0  0  0  0  0  0  0  0  0
   -8.8836    9.1510  -23.9259 H   0  0  0  0  0  0  0  0  0  0  0  0
  -14.0304   11.5338  -27.3067 H   0  0  0  0  0  0  0  0  0  0  0  0
  -14.1684   17.5127  -25.0544 H   0  0  0  0  0  0  0  0  0  0  0  0
  -14.9767   18.4934  -22.5558 H   0  0  0  0  0  0  0  0  0  0  0  0
  -14.0887   19.2651  -23.7579 H   0  0  0  0  0  0  0  0  0  0  0  0
  -15.7678   19.3642  -23.7579 H   0  0  0  0  0  0  0  0  0  0  0  0
  -15.6558   16.4205  -22.6146 H   0  0  0  0  0  0  0  0  0  0  0  0
  -15.2893   15.4129  -24.0656 H   0  0  0  0  0  0  0  0  0  0  0  0
  -13.7159   13.6530  -22.4995 H   0  0  0  0  0  0  0  0  0  0  0  0
  -13.5642   14.1288  -24.2863 H   0  0  0  0  0  0  0  0  0  0  0  0
  -11.2934   13.8829  -22.3937 H   0  0  0  0  0  0  0  0  0  0  0  0
  -11.3660   14.1826  -25.4627 H   0  0  0  0  0  0  0  0  0  0  0  0
  -10.1563   15.4179  -23.2537 H   0  0  0  0  0  0  0  0  0  0  0  0
   -9.5540   12.5899  -25.5557 H   0  0  0  0  0  0  0  0  0  0  0  0
   -8.6257   13.2162  -22.9215 H   0  0  0  0  0  0  0  0  0  0  0  0
   -9.9617   11.4457  -22.7898 H   0  0  0  0  0  0  0  0  0  0  0  0
  -11.1308    6.9115  -27.4651 H   0  0  0  0  0  0  0  0  0  0  0  0
  -12.5155    7.2419  -28.5404 H   0  0  0  0  0  0  0  0  0  0  0  0
  1  4  2  0
  1  5  1  0
  2  5  2  0
  2  7  1  0
  2 24  1  0
  3 23  1  0
  3 24  2  0
  4  6  1  0
  5 25  1  0
  6  7  2  0
  7 23  1  0
  8  9  1  0
  9 10  2  0
  9 11  1  0
 11 12  1  0
 11 13  1  0
 13 14  1  0
 14 15  1  0
 16 15  1  0
 16 17  1  0
 16 18  1  0
 17 22  1  0
 18 19  1  0
 18 20  1  0
 20 21  1  0
 20 22  1  0
 22 23  1  0
  3 26  1  0
  4 27  1  0
 11 28  1  6
 12 29  1  0
 12 30  1  0
 12 31  1  0
 13 32  1  0
 13 33  1  0
 15 34  1  0
 15 35  1  0
 16 36  1  1
 18 37  1  6
 19 38  1  0
 20 39  1  6
 21 40  1  0
 22 41  1  1
 25 42  1  0
 25 43  1  0
M  CHG  2   8  -1  12   1
M  END
>  <filename_input>  (7) 
7O1T_5X8_docked.sdf

>  <pdb_id>  (7) 
7O1T_5X8

>  <pose_rank>  (7) 
6

>  <num_atoms_heavy>  (7) 
25

>  <num_torsions>  (7) 
6

>  <pose>  (7) 
[-11.720976279842779, 13.567645140083263, -23.35696668409474, 4.019404445181817, 4.139512293811451, 1.8342389425802308, 9.247242732831774, -1.985178667257105, -1.0010187177450809, 1.5622612494635515, -2.3697788303584093, 1.5544087245315932]

>  <energy>  (7) 
-637.8153583604272

>  <inter_energy>  (7) 
-664.0765081723525

>  <intra_energy>  (7) 
33.246944870080355

>  <rmsd>  (7) 
2.48155

>  <sdf_rank>  (7) 
0

$$$$

     RDKit          3D

 43 45  0  0  0  0  0  0  0  0999 V2000
  -17.6358   13.8495  -24.3328 N   0  0  0  0  0  0  0  0  0  0  0  0
  -15.3155   13.8879  -24.5827 C   0  0  0  0  0  0  0  0  0  0  0  0
  -13.2500   13.2325  -24.8926 C   0  0  0  0  0  0  0  0  0  0  0  0
  -17.6488   12.4487  -24.4705 C   0  0  0  0  0  0  0  0  0  0  0  0
  -16.4805   14.5530  -24.3766 C   0  0  0  0  0  0  0  0  0  0  0  0
  -16.4298   11.7950  -24.6737 N   0  0  0  0  0  0  0  0  0  0  0  0
  -15.3065   12.5402  -24.7299 C   0  0  0  0  0  0  0  0  0  0  0  0
   -6.6161    8.3208  -21.6954 O   0  0  0  0  0  0  0  0  0  0  0  0
   -7.1251    9.4340  -21.9219 C   0  0  0  0  0  0  0  0  0  0  0  0
   -7.8136   10.0919  -21.1128 O   0  0  0  0  0  0  0  0  0  0  0  0
   -6.8617   10.0256  -23.3320 C   0  0  1  0  0  0  0  0  0  0  0  0
   -5.4851    9.7430  -23.7210 N   0  0  0  0  0  0  0  0  0  0  0  0
   -7.8476    9.4505  -24.3972 C   0  0  0  0  0  0  0  0  0  0  0  0
   -9.5381   10.1942  -24.1888 S   0  0  0  0  0  0  0  0  0  0  0  0
  -10.4152    9.0892  -25.3824 C   0  0  0  0  0  0  0  0  0  0  0  0
  -11.9412    9.3722  -25.6298 C   0  0  1  0  0  0  0  0  0  0  0  0
  -12.4078   10.4786  -24.8238 O   0  0  0  0  0  0  0  0  0  0  0  0
  -12.3364    9.8234  -27.0262 C   0  0  1  0  0  0  0  0  0  0  0  0
  -12.4337    8.7104  -27.9324 O   0  0  0  0  0  0  0  0  0  0  0  0
  -13.7278   10.4364  -26.7229 C   0  0  1  0  0  0  0  0  0  0  0  0
  -14.8271    9.5596  -27.1094 O   0  0  0  0  0  0  0  0  0  0  0  0
  -13.7467   10.6965  -25.1798 C   0  0  2  0  0  0  0  0  0  0  0  0
  -14.0553   12.1465  -24.9312 N   0  0  0  0  0  0  0  0  0  0  0  0
  -14.0302   14.2944  -24.6784 N   0  0  0  0  0  0  0  0  0  0  0  0
  -16.4774   15.9204  -24.2271 N   0  0  0  0  0  0  0  0  0  0  0  0
  -12.1568   13.2394  -25.0149 H   0  0  0  0  0  0  0  0  0  0  0  0
  -18.5916   11.8842  -24.4195 H   0  0  0  0  0  0  0  0  0  0  0  0
   -7.0261   11.1123  -23.2855 H   0  0  0  0  0  0  0  0  0  0  0  0
   -4.9072    9.6244  -22.8767 H   0  0  0  0  0  0  0  0  0  0  0  0
   -5.4570    8.8787  -24.2805 H   0  0  0  0  0  0  0  0  0  0  0  0
   -5.1187   10.5263  -24.2805 H   0  0  0  0  0  0  0  0  0  0  0  0
   -7.4704    9.6854  -25.4035 H   0  0  0  0  0  0  0  0  0  0  0  0
   -7.9194    8.3610  -24.2637 H   0  0  0  0  0  0  0  0  0  0  0  0
   -9.9011    9.1731  -26.3512 H   0  0  0  0  0  0  0  0  0  0  0  0
  -10.3813    8.0900  -24.9236 H   0  0  0  0  0  0  0  0  0  0  0  0
  -12.3748    8.3873  -25.4018 H   0  0  0  0  0  0  0  0  0  0  0  0
  -11.6248   10.5049  -27.5152 H   0  0  0  0  0  0  0  0  0  0  0  0
  -12.5073    7.8694  -27.4153 H   0  0  0  0  0  0  0  0  0  0  0  0
  -13.8737   11.3577  -27.3058 H   0  0  0  0  0  0  0  0  0  0  0  0
  -15.2693    9.2070  -26.2969 H   0  0  0  0  0  0  0  0  0  0  0  0
  -14.4772   10.0796  -24.6360 H   0  0  0  0  0  0  0  0  0  0  0  0
  -15.5890   16.4404  -24.2631 H   0  0  0  0  0  0  0  0  0  0  0  0
  -17.3634   16.4244  -24.0792 H   0  0  0  0  0  0  0  0  0  0  0  0
  1  4  2  0
  1  5  1  0
  2  5  2  0
  2  7  1  0
  2 24  1  0
  3 23  1  0
  3 24  2  0
  4  6  1  0
  5 25  1  0
  6  7  2  0
  7 23  1  0
  8  9  1  0
  9 10  2  0
  9 11  1  0
 11 12  1  0
 11 13  1  0
 13 14  1  0
 14 15  1  0
 16 15  1  0
 16 17  1  0
 16 18  1  0
 17 22  1  0
 18 19  1  0
 18 20  1  0
 20 21  1  0
 20 22  1  0
 22 23  1  0
  3 26  1  0
  4 27  1  0
 11 28  1  1
 12 29  1  0
 12 30  1  0
 12 31  1  0
 13 32  1  0
 13 33  1  0
 15 34  1  0
 15 35  1  0
 16 36  1  1
 18 37  1  6
 19 38  1  0
 20 39  1  6
 21 40  1  0
 22 41  1  1
 25 42  1  0
 25 43  1  0
M  CHG  2   8  -1  12   1
M  END
>  <filename_input>  (8) 
7O1T_5X8_docked.sdf

>  <pdb_id>  (8) 
7O1T_5X8

>  <pose_rank>  (8) 
7

>  <num_atoms_heavy>  (8) 
25

>  <num_torsions>  (8) 
6

>  <pose>  (8) 
[-11.94118844599885, 9.372201427820086, -25.629767395098526, 0.21073191889951318, 1.2862643538145018, -2.4945154929345836, -0.32815655124351145, -11.35068264130527, -6.902085428735227, -5.407031909015503, -3.9265708161536406, -3.4364854215088174]

>  <energy>  (8) 
-75.34521166653549

>  <inter_energy>  (8) 
-75.14242839321982

>  <intra_energy>  (8) 
0.9548970892726193

>  <rmsd>  (8) 
8.52012

>  <sdf_rank>  (8) 
0

$$$$

     RDKit          3D

 43 45  0  0  0  0  0  0  0  0999 V2000
   -9.5537    8.2733  -26.0641 N   0  0  0  0  0  0  0  0  0  0  0  0
  -11.3641    9.6599  -26.5616 C   0  0  0  0  0  0  0  0  0  0  0  0
  -12.8087   11.3019  -26.4666 C   0  0  0  0  0  0  0  0  0  0  0  0
   -9.2247    9.0670  -24.9492 C   0  0  0  0  0  0  0  0  0  0  0  0
  -10.6176    8.5634  -26.8487 C   0  0  0  0  0  0  0  0  0  0  0  0
  -10.0197   10.1847  -24.6780 N   0  0  0  0  0  0  0  0  0  0  0  0
  -11.0578   10.4451  -25.4996 C   0  0  0  0  0  0  0  0  0  0  0  0
  -17.7770   18.4339  -26.2583 O   0  0  0  0  0  0  0  0  0  0  0  0
  -16.6113   18.4042  -25.8226 C   0  0  0  0  0  0  0  0  0  0  0  0
  -15.6209   18.9320  -26.3720 O   0  0  0  0  0  0  0  0  0  0  0  0
  -16.4067   17.6444  -24.4852 C   0  0  1  0  0  0  0  0  0  0  0  0
  -17.3773   16.5599  -24.3965 N   0  0  0  0  0  0  0  0  0  0  0  0
  -14.9578   17.0778  -24.3543 C   0  0  0  0  0  0  0  0  0  0  0  0
  -14.6467   16.4787  -22.6226 S   0  0  0  0  0  0  0  0  0  0  0  0
  -14.4712   14.6861  -23.0363 C   0  0  0  0  0  0  0  0  0  0  0  0
  -13.0491   14.1928  -23.4883 C   0  0  1  0  0  0  0  0  0  0  0  0
  -13.0897   12.8219  -23.9471 O   0  0  0  0  0  0  0  0  0  0  0  0
  -12.4279   14.8967  -24.6834 C   0  0  1  0  0  0  0  0  0  0  0  0
  -11.8324   16.1506  -24.3062 O   0  0  0  0  0  0  0  0  0  0  0  0
  -11.3541   13.8505  -25.0787 C   0  0  1  0  0  0  0  0  0  0  0  0
  -10.0135   14.2261  -24.6448 O   0  0  0  0  0  0  0  0  0  0  0  0
  -11.7987   12.5126  -24.3992 C   0  0  2  0  0  0  0  0  0  0  0  0
  -11.9263   11.4473  -25.4519 N   0  0  0  0  0  0  0  0  0  0  0  0
  -12.4570   10.2046  -27.1407 N   0  0  0  0  0  0  0  0  0  0  0  0
  -10.9387    7.7732  -27.9279 N   0  0  0  0  0  0  0  0  0  0  0  0
  -13.6573   11.9640  -26.6939 H   0  0  0  0  0  0  0  0  0  0  0  0
   -8.3662    8.8151  -24.3092 H   0  0  0  0  0  0  0  0  0  0  0  0
  -16.5570   18.3551  -23.6592 H   0  0  0  0  0  0  0  0  0  0  0  0
  -17.5664   16.3486  -23.4064 H   0  0  0  0  0  0  0  0  0  0  0  0
  -18.2522   16.8434  -24.8603 H   0  0  0  0  0  0  0  0  0  0  0  0
  -16.9989   15.7217  -24.8603 H   0  0  0  0  0  0  0  0  0  0  0  0
  -14.8323   16.2395  -25.0553 H   0  0  0  0  0  0  0  0  0  0  0  0
  -14.2404   17.8783  -24.5879 H   0  0  0  0  0  0  0  0  0  0  0  0
  -14.7533   14.1104  -22.1425 H   0  0  0  0  0  0  0  0  0  0  0  0
  -15.1184   14.5310  -23.9122 H   0  0  0  0  0  0  0  0  0  0  0  0
  -12.4636   14.3836  -22.5768 H   0  0  0  0  0  0  0  0  0  0  0  0
  -13.1321   15.1654  -25.4846 H   0  0  0  0  0  0  0  0  0  0  0  0
  -11.8008   16.2172  -23.3189 H   0  0  0  0  0  0  0  0  0  0  0  0
  -11.2905   13.7644  -26.1734 H   0  0  0  0  0  0  0  0  0  0  0  0
   -9.9775   14.2362  -23.6555 H   0  0  0  0  0  0  0  0  0  0  0  0
  -11.1066   12.1608  -23.6199 H   0  0  0  0  0  0  0  0  0  0  0  0
  -11.7519    8.0085  -28.5147 H   0  0  0  0  0  0  0  0  0  0  0  0
  -10.3660    6.9462  -28.1492 H   0  0  0  0  0  0  0  0  0  0  0  0
  1  4  2  0
  1  5  1  0
  2  5  2  0
  2  7  1  0
  2 24  1  0
  3 23  1  0
  3 24  2  0
  4  6  1  0
  5 25  1  0
  6  7  2  0
  7 23  1  0
  8  9  1  0
  9 10  2  0
  9 11  1  0
 11 12  1  0
 11 13  1  0
 13 14  1  0
 14 15  1  0
 16 15  1  0
 16 17  1  0
 16 18  1  0
 17 22  1  0
 18 19  1  0
 18 20  1  0
 20 21  1  0
 20 22  1  0
 22 23  1  0
  3 26  1  0
  4 27  1  0
 11 28  1  1
 12 29  1  0
 12 30  1  0
 12 31  1  0
 13 32  1  0
 13 33  1  0
 15 34  1  0
 15 35  1  0
 16 36  1  1
 18 37  1  6
 19 38  1  0
 20 39  1  6
 21 40  1  0
 22 41  1  1
 25 42  1  0
 25 43  1  0
M  CHG  2   8  -1  12   1
M  END
>  <filename_input>  (9) 
7O1T_5X8_docked.sdf

>  <pdb_id>  (9) 
7O1T_5X8

>  <pose_rank>  (9) 
8

>  <num_atoms_heavy>  (9) 
25

>  <num_torsions>  (9) 
6

>  <pose>  (9) 
[-13.049065783937996, 14.192781579342308, -23.488265780445545, 2.9534478863059173, 5.584289397889515, -0.019596323942323166, -0.03464081749718628, 4.508565517907084, -2.319777708229256, -0.4296771430805941, -2.2797367372859063, -2.203684368097799]

>  <energy>  (9) 
-1170.1225558300853

>  <inter_energy>  (9) 
-1181.1004042591865

>  <intra_energy>  (9) 
14.262481607835605

>  <rmsd>  (9) 
1.00189

>  <sdf_rank>  (9) 
0

$$$$

     RDKit          3D

 43 45  0  0  0  0  0  0  0  0999 V2000
  -12.7113    8.7711  -27.1034 N   0  0  0  0  0  0  0  0  0  0  0  0
  -10.6126    9.3518  -26.2632 C   0  0  0  0  0  0  0  0  0  0  0  0
   -9.0384   10.3678  -25.1309 C   0  0  0  0  0  0  0  0  0  0  0  0
  -13.3175    9.8014  -26.3603 C   0  0  0  0  0  0  0  0  0  0  0  0
  -11.3749    8.5619  -27.0613 C   0  0  0  0  0  0  0  0  0  0  0  0
  -12.5014   10.6011  -25.5547 N   0  0  0  0  0  0  0  0  0  0  0  0
  -11.1774   10.3423  -25.5297 C   0  0  0  0  0  0  0  0  0  0  0  0
  -17.6145   15.9561  -24.0885 O   0  0  0  0  0  0  0  0  0  0  0  0
  -17.0215   16.8139  -24.7683 C   0  0  0  0  0  0  0  0  0  0  0  0
  -17.5318   17.8658  -25.2093 O   0  0  0  0  0  0  0  0  0  0  0  0
  -15.5278   16.5239  -25.0724 C   0  0  1  0  0  0  0  0  0  0  0  0
  -14.6964   17.4691  -24.3366 N   0  0  0  0  0  0  0  0  0  0  0  0
  -15.1321   15.0603  -24.6998 C   0  0  0  0  0  0  0  0  0  0  0  0
  -14.7733   14.9256  -22.8811 S   0  0  0  0  0  0  0  0  0  0  0  0
  -13.9368   13.2788  -22.9416 C   0  0  0  0  0  0  0  0  0  0  0  0
  -12.3934   13.2715  -23.2378 C   0  0  1  0  0  0  0  0  0  0  0  0
  -11.9266   11.9414  -23.5608 O   0  0  0  0  0  0  0  0  0  0  0  0
  -11.9246   14.0621  -24.4481 C   0  0  1  0  0  0  0  0  0  0  0  0
  -11.8241   15.4667  -24.1541 O   0  0  0  0  0  0  0  0  0  0  0  0
  -10.5286   13.4214  -24.6588 C   0  0  1  0  0  0  0  0  0  0  0  0
   -9.4423   14.2612  -24.1676 O   0  0  0  0  0  0  0  0  0  0  0  0
  -10.5674   12.0618  -23.8848 C   0  0  2  0  0  0  0  0  0  0  0  0
  -10.2236   10.9479  -24.8338 N   0  0  0  0  0  0  0  0  0  0  0  0
   -9.2861    9.3917  -26.0073 N   0  0  0  0  0  0  0  0  0  0  0  0
  -10.7906    7.5609  -27.8023 N   0  0  0  0  0  0  0  0  0  0  0  0
   -8.0547   10.6478  -24.7262 H   0  0  0  0  0  0  0  0  0  0  0  0
  -14.4029    9.9725  -26.4119 H   0  0  0  0  0  0  0  0  0  0  0  0
  -15.3677   16.6417  -26.1543 H   0  0  0  0  0  0  0  0  0  0  0  0
  -14.8243   17.3237  -23.3250 H   0  0  0  0  0  0  0  0  0  0  0  0
  -13.7074   17.3202  -24.5825 H   0  0  0  0  0  0  0  0  0  0  0  0
  -14.9703   18.4311  -24.5825 H   0  0  0  0  0  0  0  0  0  0  0  0
  -15.9615   14.3847  -24.9561 H   0  0  0  0  0  0  0  0  0  0  0  0
  -14.2286   14.7821  -25.2621 H   0  0  0  0  0  0  0  0  0  0  0  0
  -14.0896   12.7933  -21.9664 H   0  0  0  0  0  0  0  0  0  0  0  0
  -14.3936   12.7582  -23.7963 H   0  0  0  0  0  0  0  0  0  0  0  0
  -12.0016   13.7125  -22.3093 H   0  0  0  0  0  0  0  0  0  0  0  0
  -12.5925   14.0188  -25.3210 H   0  0  0  0  0  0  0  0  0  0  0  0
  -11.8147   15.5986  -23.1729 H   0  0  0  0  0  0  0  0  0  0  0  0
  -10.3285   13.2879  -25.7322 H   0  0  0  0  0  0  0  0  0  0  0  0
   -9.4452   14.2589  -23.1776 H   0  0  0  0  0  0  0  0  0  0  0  0
   -9.8809   12.0216  -23.0263 H   0  0  0  0  0  0  0  0  0  0  0  0
   -9.7718    7.4154  -27.7585 H   0  0  0  0  0  0  0  0  0  0  0  0
  -11.3718    6.9570  -28.4009 H   0  0  0  0  0  0  0  0  0  0  0  0
  1  4  2  0
  1  5  1  0
  2  5  2  0
  2  7  1  0
  2 24  1  0
  3 23  1  0
  3 24  2  0
  4  6  1  0
  5 25  1  0
  6  7  2  0
  7 23  1  0
  8  9  1  0
  9 10  2  0
  9 11  1  0
 11 12  1  0
 11 13  1  0
 13 14  1  0
 14 15  1  0
 16 15  1  0
 16 17  1  0
 16 18  1  0
 17 22  1  0
 18 19  1  0
 18 20  1  0
 20 21  1  0
 20 22  1  0
 22 23  1  0
  3 26  1  0
  4 27  1  0
 11 28  1  6
 12 29  1  0
 12 30  1  0
 12 31  1  0
 13 32  1  0
 13 33  1  0
 15 34  1  0
 15 35  1  0
 16 36  1  1
 18 37  1  6
 19 38  1  0
 20 39  1  6
 21 40  1  0
 22 41  1  1
 25 42  1  0
 25 43  1  0
M  CHG  2   8  -1  12   1
M  END
>  <filename_input>  (10) 
7O1T_5X8_docked.sdf

>  <pdb_id>  (10) 
7O1T_5X8

>  <pose_rank>  (10) 
9

>  <num_atoms_heavy>  (10) 
25

>  <num_torsions>  (10) 
6

>  <pose>  (10) 
[-12.393373126818929, 13.27147753640582, -23.237761529613586, -1.3886986284376999, -1.057549986608509, 6.40703591679249, 9.052238977511056, -1.6753161816793778, -2.29617447477146, 0.9738477821972784, -0.3701888956285143, 1.6074014562206156]

>  <energy>  (10) 
-702.5897647581689

>  <inter_energy>  (10) 
-742.8810552290706

>  <intra_energy>  (10) 
52.14025824331795

>  <rmsd>  (10) 
2.32183

>  <sdf_rank>  (10) 
0

$$$$

     RDKit          3D

 43 45  0  0  0  0  0  0  0  0999 V2000
  -12.9350   15.0885  -23.8925 N   0  0  0  0  0  0  0  0  0  0  0  0
  -13.4580   13.1367  -25.0607 C   0  0  0  0  0  0  0  0  0  0  0  0
  -13.2482   11.2370  -26.1282 C   0  0  0  0  0  0  0  0  0  0  0  0
  -11.5610   14.7936  -23.9726 C   0  0  0  0  0  0  0  0  0  0  0  0
  -13.8656   14.2738  -24.4419 C   0  0  0  0  0  0  0  0  0  0  0  0
  -11.1759   13.6180  -24.6240 N   0  0  0  0  0  0  0  0  0  0  0  0
  -12.1404   12.8272  -25.1388 C   0  0  0  0  0  0  0  0  0  0  0  0
   -8.2350   11.0477  -33.9607 O   0  0  0  0  0  0  0  0  0  0  0  0
   -7.1676   10.9241  -33.3322 C   0  0  0  0  0  0  0  0  0  0  0  0
   -6.2236   11.7427  -33.3432 O   0  0  0  0  0  0  0  0  0  0  0  0
   -7.0318    9.6393  -32.4728 C   0  0  1  0  0  0  0  0  0  0  0  0
   -5.8069    9.7163  -31.6855 N   0  0  0  0  0  0  0  0  0  0  0  0
   -8.2609    9.4367  -31.5317 C   0  0  0  0  0  0  0  0  0  0  0  0
   -7.9095   10.1290  -29.8431 S   0  0  0  0  0  0  0  0  0  0  0  0
   -9.3449    9.3479  -28.9801 C   0  0  0  0  0  0  0  0  0  0  0  0
   -9.5650    9.7284  -27.4712 C   0  0  1  0  0  0  0  0  0  0  0  0
  -10.4716   10.8473  -27.3382 O   0  0  0  0  0  0  0  0  0  0  0  0
  -10.2361    8.6854  -26.5928 C   0  0  1  0  0  0  0  0  0  0  0  0
   -9.3034    7.6775  -26.1643 O   0  0  0  0  0  0  0  0  0  0  0  0
  -10.6883    9.5837  -25.4129 C   0  0  1  0  0  0  0  0  0  0  0  0
   -9.8249    9.4575  -24.2444 O   0  0  0  0  0  0  0  0  0  0  0  0
  -10.6603   11.0485  -25.9632 C   0  0  2  0  0  0  0  0  0  0  0  0
  -12.0163   11.6689  -25.7741 N   0  0  0  0  0  0  0  0  0  0  0  0
  -14.1249   12.1423  -25.6876 N   0  0  0  0  0  0  0  0  0  0  0  0
  -15.2052   14.5782  -24.3700 N   0  0  0  0  0  0  0  0  0  0  0  0
  -13.4836   10.3130  -26.6765 H   0  0  0  0  0  0  0  0  0  0  0  0
  -10.8112   15.4692  -23.5350 H   0  0  0  0  0  0  0  0  0  0  0  0
   -6.9917    8.7743  -33.1511 H   0  0  0  0  0  0  0  0  0  0  0  0
   -6.0418    9.7015  -30.6828 H   0  0  0  0  0  0  0  0  0  0  0  0
   -5.2041    8.9115  -31.9088 H   0  0  0  0  0  0  0  0  0  0  0  0
   -5.3096   10.5902  -31.9088 H   0  0  0  0  0  0  0  0  0  0  0  0
   -9.1334    9.9520  -31.9598 H   0  0  0  0  0  0  0  0  0  0  0  0
   -8.4642    8.3596  -31.4392 H   0  0  0  0  0  0  0  0  0  0  0  0
  -10.2553    9.6296  -29.5293 H   0  0  0  0  0  0  0  0  0  0  0  0
   -9.1214    8.2709  -28.9728 H   0  0  0  0  0  0  0  0  0  0  0  0
   -8.5281    9.9012  -27.1471 H   0  0  0  0  0  0  0  0  0  0  0  0
  -11.0418    8.1151  -27.0782 H   0  0  0  0  0  0  0  0  0  0  0  0
   -9.2783    7.6504  -25.1750 H   0  0  0  0  0  0  0  0  0  0  0  0
  -11.6887    9.2842  -25.0673 H   0  0  0  0  0  0  0  0  0  0  0  0
  -10.3696    9.5371  -23.4215 H   0  0  0  0  0  0  0  0  0  0  0  0
   -9.9066   11.6881  -25.4806 H   0  0  0  0  0  0  0  0  0  0  0  0
  -15.9002   13.9470  -24.7936 H   0  0  0  0  0  0  0  0  0  0  0  0
  -15.5132   15.4374  -23.8926 H   0  0  0  0  0  0  0  0  0  0  0  0
  1  4  2  0
  1  5  1  0
  2  5  2  0
  2  7  1  0
  2 24  1  0
  3 23  1  0
  3 24  2  0
  4  6  1  0
  5 25  1  0
  6  7  2  0
  7 23  1  0
  8  9  1  0
  9 10  2  0
  9 11  1  0
 11 12  1  0
 11 13  1  0
 13 14  1  0
 14 15  1  0
 16 15  1  0
 16 17  1  0
 16 18  1  0
 17 22  1  0
 18 19  1  0
 18 20  1  0
 20 21  1  0
 20 22  1  0
 22 23  1  0
  3 26  1  0
  4 27  1  0
 11 28  1  6
 12 29  1  0
 12 30  1  0
 12 31  1  0
 13 32  1  0
 13 33  1  0
 15 34  1  0
 15 35  1  0
 16 36  1  1
 18 37  1  6
 19 38  1  0
 20 39  1  1
 21 40  1  0
 22 41  1  1
 25 42  1  0
 25 43  1  0
M  CHG  2   8  -1  12   1
M  END
>  <filename_input>  (11) 
7O1T_5X8_docked.sdf

>  <pdb_id>  (11) 
7O1T_5X8

>  <pose_rank>  (11) 
10

>  <num_atoms_heavy>  (11) 
25

>  <num_torsions>  (11) 
6

>  <pose>  (11) 
[-9.564982924912046, 9.728420464735283, -27.47116869149524, 2.6537590945593563, 0.457231976991534, 2.0889582809135665, 0.24826820437267993, 2.851604349311031, -0.5914192986292033, 0.9486867088052685, -0.6050703167045468, 0.5100945881391372]

>  <energy>  (11) 
-384.66851068988456

>  <inter_energy>  (11) 
-380.1584961891421

>  <intra_energy>  (11) 
0.0

>  <rmsd>  (11) 
8.69956

>  <sdf_rank>  (11) 
0

$$$$

     RDKit          3D

 43 45  0  0  0  0  0  0  0  0999 V2000
  -15.0031   19.2917  -23.7563 N   0  0  0  0  0  0  0  0  0  0  0  0
  -13.8532   17.3537  -23.1482 C   0  0  0  0  0  0  0  0  0  0  0  0
  -13.0480   15.3185  -23.1895 C   0  0  0  0  0  0  0  0  0  0  0  0
  -15.4847   18.6659  -24.9216 C   0  0  0  0  0  0  0  0  0  0  0  0
  -14.2087   18.6355  -22.8788 C   0  0  0  0  0  0  0  0  0  0  0  0
  -15.1050   17.3423  -25.1640 N   0  0  0  0  0  0  0  0  0  0  0  0
  -14.2959   16.7357  -24.2708 C   0  0  0  0  0  0  0  0  0  0  0  0
  -21.6800   12.6083  -28.4869 O   0  0  0  0  0  0  0  0  0  0  0  0
  -21.2173   11.8464  -29.3558 C   0  0  0  0  0  0  0  0  0  0  0  0
  -21.8896   11.2379  -30.2155 O   0  0  0  0  0  0  0  0  0  0  0  0
  -19.6768   11.6614  -29.3443 C   0  0  1  0  0  0  0  0  0  0  0  0
  -19.1288   12.1240  -30.6139 N   0  0  0  0  0  0  0  0  0  0  0  0
  -19.0078   12.4296  -28.1612 C   0  0  0  0  0  0  0  0  0  0  0  0
  -17.6692   11.3975  -27.3884 S   0  0  0  0  0  0  0  0  0  0  0  0
  -17.1476   12.6293  -26.1133 C   0  0  0  0  0  0  0  0  0  0  0  0
  -15.6362   13.0600  -26.1117 C   0  0  1  0  0  0  0  0  0  0  0  0
  -15.4588   14.3526  -25.4879 O   0  0  0  0  0  0  0  0  0  0  0  0
  -14.6792   12.1977  -25.3052 C   0  0  1  0  0  0  0  0  0  0  0  0
  -14.3022   11.0116  -26.0266 O   0  0  0  0  0  0  0  0  0  0  0  0
  -13.4900   13.1824  -25.1639 C   0  0  1  0  0  0  0  0  0  0  0  0
  -12.3930   12.8768  -26.0748 O   0  0  0  0  0  0  0  0  0  0  0  0
  -14.0786   14.6006  -25.4661 C   0  0  2  0  0  0  0  0  0  0  0  0
  -13.7957   15.5069  -24.3008 N   0  0  0  0  0  0  0  0  0  0  0  0
  -13.0893   16.4544  -22.4894 N   0  0  0  0  0  0  0  0  0  0  0  0
  -13.7548   19.2519  -21.7359 N   0  0  0  0  0  0  0  0  0  0  0  0
  -12.5073   14.4010  -22.9142 H   0  0  0  0  0  0  0  0  0  0  0  0
  -16.1412   19.2031  -25.6218 H   0  0  0  0  0  0  0  0  0  0  0  0
  -19.4596   10.5920  -29.2057 H   0  0  0  0  0  0  0  0  0  0  0  0
  -18.3537   12.7783  -30.4353 H   0  0  0  0  0  0  0  0  0  0  0  0
  -18.7804   11.3176  -31.1516 H   0  0  0  0  0  0  0  0  0  0  0  0
  -19.8654   12.6028  -31.1516 H   0  0  0  0  0  0  0  0  0  0  0  0
  -18.5705   13.3658  -28.5386 H   0  0  0  0  0  0  0  0  0  0  0  0
  -19.7724   12.6475  -27.4010 H   0  0  0  0  0  0  0  0  0  0  0  0
  -17.7509   13.5369  -26.2628 H   0  0  0  0  0  0  0  0  0  0  0  0
  -17.3009   12.1233  -25.1487 H   0  0  0  0  0  0  0  0  0  0  0  0
  -15.4023   13.0015  -27.1850 H   0  0  0  0  0  0  0  0  0  0  0  0
  -15.0823   11.8163  -24.3555 H   0  0  0  0  0  0  0  0  0  0  0  0
  -14.0740   10.2935  -25.3846 H   0  0  0  0  0  0  0  0  0  0  0  0
  -13.0563   13.1141  -24.1553 H   0  0  0  0  0  0  0  0  0  0  0  0
  -11.5831   12.6513  -25.5520 H   0  0  0  0  0  0  0  0  0  0  0  0
  -13.6759   15.0612  -26.3802 H   0  0  0  0  0  0  0  0  0  0  0  0
  -13.1509   18.7378  -21.0787 H   0  0  0  0  0  0  0  0  0  0  0  0
  -14.0187   20.2275  -21.5373 H   0  0  0  0  0  0  0  0  0  0  0  0
  1  4  2  0
  1  5  1  0
  2  5  2  0
  2  7  1  0
  2 24  1  0
  3 23  1  0
  3 24  2  0
  4  6  1  0
  5 25  1  0
  6  7  2  0
  7 23  1  0
  8  9  1  0
  9 10  2  0
  9 11  1  0
 11 12  1  0
 11 13  1  0
 13 14  1  0
 14 15  1  0
 16 15  1  0
 16 17  1  0
 16 18  1  0
 17 22  1  0
 18 19  1  0
 18 20  1  0
 20 21  1  0
 20 22  1  0
 22 23  1  0
  3 26  1  0
  4 27  1  0
 11 28  1  1
 12 29  1  0
 12 30  1  0
 12 31  1  0
 13 32  1  0
 13 33  1  0
 15 34  1  0
 15 35  1  0
 16 36  1  6
 18 37  1  1
 19 38  1  0
 20 39  1  1
 21 40  1  0
 22 41  1  6
 25 42  1  0
 25 43  1  0
M  CHG  2   8  -1  12   1
M  END
>  <filename_input>  (12) 
7O1T_5X8_docked.sdf

>  <pdb_id>  (12) 
7O1T_5X8

>  <pose_rank>  (12) 
11

>  <num_atoms_heavy>  (12) 
25

>  <num_torsions>  (12) 
6

>  <pose>  (12) 
[-15.636155739131278, 13.060029096238566, -26.111724803851224, 3.25464193347589, -0.041545334456514704, -0.5219932147313172, -11.28001403094162, -21.160176806568202, -43.66376928100489, -24.425732677384033, 9.764141731614506, 1.4640526138018874]

>  <energy>  (12) 
-285.99663881654993

>  <inter_energy>  (12) 
-288.15011344720375

>  <intra_energy>  (12) 
6.753383740129292

>  <rmsd>  (12) 
7.65873

>  <sdf_rank>  (12) 
0

$$$$

     RDKit          3D

 43 45  0  0  0  0  0  0  0  0999 V2000
  -13.7122   12.5480  -25.1656 N   0  0  0  0  0  0  0  0  0  0  0  0
  -11.8986   11.8832  -23.8554 C   0  0  0  0  0  0  0  0  0  0  0  0
  -10.0560   10.8925  -23.2108 C   0  0  0  0  0  0  0  0  0  0  0  0
  -13.2844   11.7164  -26.2176 C   0  0  0  0  0  0  0  0  0  0  0  0
  -13.0314   12.6168  -23.9979 C   0  0  0  0  0  0  0  0  0  0  0  0
  -12.1176   10.9685  -26.0339 N   0  0  0  0  0  0  0  0  0  0  0  0
  -11.4619   11.0848  -24.8604 C   0  0  0  0  0  0  0  0  0  0  0  0
   -7.1076    9.1497  -34.3812 O   0  0  0  0  0  0  0  0  0  0  0  0
   -6.2823    9.4002  -33.4837 C   0  0  0  0  0  0  0  0  0  0  0  0
   -5.1379    8.9063  -33.3959 O   0  0  0  0  0  0  0  0  0  0  0  0
   -6.7427   10.4145  -32.4033 C   0  0  1  0  0  0  0  0  0  0  0  0
   -7.2378   11.6199  -33.0574 N   0  0  0  0  0  0  0  0  0  0  0  0
   -7.8478    9.8158  -31.4772 C   0  0  0  0  0  0  0  0  0  0  0  0
   -7.5569   10.3135  -29.7103 S   0  0  0  0  0  0  0  0  0  0  0  0
   -9.2485    9.9101  -29.0850 C   0  0  0  0  0  0  0  0  0  0  0  0
   -9.3467    9.2595  -27.6577 C   0  0  1  0  0  0  0  0  0  0  0  0
   -9.4298   10.2684  -26.6249 O   0  0  0  0  0  0  0  0  0  0  0  0
  -10.5833    8.4244  -27.3693 C   0  0  1  0  0  0  0  0  0  0  0  0
  -10.4680    7.1021  -27.9237 O   0  0  0  0  0  0  0  0  0  0  0  0
  -10.5318    8.4007  -25.8199 C   0  0  1  0  0  0  0  0  0  0  0  0
  -10.0249    7.1396  -25.2914 O   0  0  0  0  0  0  0  0  0  0  0  0
   -9.5952    9.5859  -25.4110 C   0  0  2  0  0  0  0  0  0  0  0  0
  -10.3378   10.4958  -24.4728 N   0  0  0  0  0  0  0  0  0  0  0  0
  -11.0173   11.7417  -22.8406 N   0  0  0  0  0  0  0  0  0  0  0  0
  -13.4658   13.4223  -22.9708 N   0  0  0  0  0  0  0  0  0  0  0  0
   -9.1958   10.5749  -22.6032 H   0  0  0  0  0  0  0  0  0  0  0  0
  -13.8523   11.6566  -27.1578 H   0  0  0  0  0  0  0  0  0  0  0  0
   -5.8780   10.6567  -31.7680 H   0  0  0  0  0  0  0  0  0  0  0  0
   -7.5199   12.3067  -32.3434 H   0  0  0  0  0  0  0  0  0  0  0  0
   -6.4937   12.0218  -33.6453 H   0  0  0  0  0  0  0  0  0  0  0  0
   -8.0496   11.3828  -33.6453 H   0  0  0  0  0  0  0  0  0  0  0  0
   -8.8314   10.1873  -31.8006 H   0  0  0  0  0  0  0  0  0  0  0  0
   -7.8149    8.7185  -31.5476 H   0  0  0  0  0  0  0  0  0  0  0  0
   -9.8259   10.8461  -29.0631 H   0  0  0  0  0  0  0  0  0  0  0  0
   -9.6322    9.1438  -29.7746 H   0  0  0  0  0  0  0  0  0  0  0  0
   -8.4434    8.6317  -27.6530 H   0  0  0  0  0  0  0  0  0  0  0  0
  -11.5191    8.8132  -27.7974 H   0  0  0  0  0  0  0  0  0  0  0  0
  -10.4103    6.4404  -27.1896 H   0  0  0  0  0  0  0  0  0  0  0  0
  -11.5446    8.5029  -25.4032 H   0  0  0  0  0  0  0  0  0  0  0  0
  -10.0364    7.1680  -24.3019 H   0  0  0  0  0  0  0  0  0  0  0  0
   -8.6602    9.2648  -24.9285 H   0  0  0  0  0  0  0  0  0  0  0  0
  -12.9356   13.4629  -22.0887 H   0  0  0  0  0  0  0  0  0  0  0  0
  -14.3212   13.9848  -23.0839 H   0  0  0  0  0  0  0  0  0  0  0  0
  1  4  2  0
  1  5  1  0
  2  5  2  0
  2  7  1  0
  2 24  1  0
  3 23  1  0
  3 24  2  0
  4  6  1  0
  5 25  1  0
  6  7  2  0
  7 23  1  0
  8  9  1  0
  9 10  2  0
  9 11  1  0
 11 12  1  0
 11 13  1  0
 13 14  1  0
 14 15  1  0
 16 15  1  0
 16 17  1  0
 16 18  1  0
 17 22  1  0
 18 19  1  0
 18 20  1  0
 20 21  1  0
 20 22  1  0
 22 23  1  0
  3 26  1  0
  4 27  1  0
 11 28  1  1
 12 29  1  0
 12 30  1  0
 12 31  1  0
 13 32  1  0
 13 33  1  0
 15 34  1  0
 15 35  1  0
 16 36  1  1
 18 37  1  1
 19 38  1  0
 20 39  1  1
 21 40  1  0
 22 41  1  1
 25 42  1  0
 25 43  1  0
M  CHG  2   8  -1  12   1
M  END
>  <filename_input>  (13) 
7O1T_5X8_docked.sdf

>  <pdb_id>  (13) 
7O1T_5X8

>  <pose_rank>  (13) 
12

>  <num_atoms_heavy>  (13) 
25

>  <num_torsions>  (13) 
6

>  <pose>  (13) 
[-9.34666545052013, 9.259486064707303, -27.657680585121305, 2.606651299177997, -1.2235325234590901, 2.085066512086106, -2.9970250731880483, 2.7782893473825427, 4.9344899632699954, 0.42836331728468796, 3.4917382068342655, 2.634570991125549]

>  <energy>  (13) 
-278.61838306841173

>  <inter_energy>  (13) 
-326.7142748474594

>  <intra_energy>  (13) 
32.772438605142575

>  <rmsd>  (13) 
9.02954

>  <sdf_rank>  (13) 
0

$$$$

     RDKit          3D

 43 45  0  0  0  0  0  0  0  0999 V2000
  -12.1481   15.2522  -23.5326 N   0  0  0  0  0  0  0  0  0  0  0  0
  -14.3663   14.5806  -23.8091 C   0  0  0  0  0  0  0  0  0  0  0  0
  -16.5207   14.6401  -24.1929 C   0  0  0  0  0  0  0  0  0  0  0  0
  -12.5019   16.5933  -23.7721 C   0  0  0  0  0  0  0  0  0  0  0  0
  -13.0740   14.2652  -23.5398 C   0  0  0  0  0  0  0  0  0  0  0  0
  -13.8433   16.8837  -24.0385 N   0  0  0  0  0  0  0  0  0  0  0  0
  -14.7270   15.8643  -24.0546 C   0  0  0  0  0  0  0  0  0  0  0  0
  -17.7519   16.4132  -32.7891 O   0  0  0  0  0  0  0  0  0  0  0  0
  -18.8940   16.9065  -32.8320 C   0  0  0  0  0  0  0  0  0  0  0  0
  -19.8223   16.5165  -33.5719 O   0  0  0  0  0  0  0  0  0  0  0  0
  -19.1536   18.0993  -31.8740 C   0  0  1  0  0  0  0  0  0  0  0  0
  -20.3615   18.7987  -32.2955 N   0  0  0  0  0  0  0  0  0  0  0  0
  -19.2950   17.6334  -30.3906 C   0  0  0  0  0  0  0  0  0  0  0  0
  -17.8856   18.2817  -29.3671 S   0  0  0  0  0  0  0  0  0  0  0  0
  -18.6494   17.9679  -27.7138 C   0  0  0  0  0  0  0  0  0  0  0  0
  -17.7304   18.1608  -26.4536 C   0  0  1  0  0  0  0  0  0  0  0  0
  -17.6012   16.9308  -25.7041 O   0  0  0  0  0  0  0  0  0  0  0  0
  -16.2753   18.5137  -26.7147 C   0  0  1  0  0  0  0  0  0  0  0  0
  -16.1153   19.9145  -27.0002 O   0  0  0  0  0  0  0  0  0  0  0  0
  -15.6607   18.1366  -25.3422 C   0  0  1  0  0  0  0  0  0  0  0  0
  -15.3948   19.3001  -24.5042 O   0  0  0  0  0  0  0  0  0  0  0  0
  -16.7039   17.1916  -24.6583 C   0  0  2  0  0  0  0  0  0  0  0  0
  -16.0306   15.8962  -24.3004 N   0  0  0  0  0  0  0  0  0  0  0  0
  -15.4945   13.8412  -23.8914 N   0  0  0  0  0  0  0  0  0  0  0  0
  -12.7199   12.9594  -23.2908 N   0  0  0  0  0  0  0  0  0  0  0  0
  -17.5685   14.3342  -24.3285 H   0  0  0  0  0  0  0  0  0  0  0  0
  -11.7443   17.3905  -23.7504 H   0  0  0  0  0  0  0  0  0  0  0  0
  -18.2877   18.7758  -31.9243 H   0  0  0  0  0  0  0  0  0  0  0  0
  -20.8889   19.1040  -31.4652 H   0  0  0  0  0  0  0  0  0  0  0  0
  -20.1031   19.6208  -32.8596 H   0  0  0  0  0  0  0  0  0  0  0  0
  -20.9459   18.1652  -32.8596 H   0  0  0  0  0  0  0  0  0  0  0  0
  -20.2434   18.0117  -29.9813 H   0  0  0  0  0  0  0  0  0  0  0  0
  -19.2804   16.5340  -30.3602 H   0  0  0  0  0  0  0  0  0  0  0  0
  -19.5045   18.6517  -27.6085 H   0  0  0  0  0  0  0  0  0  0  0  0
  -18.9075   16.8986  -27.7174 H   0  0  0  0  0  0  0  0  0  0  0  0
  -18.2463   18.9886  -25.9450 H   0  0  0  0  0  0  0  0  0  0  0  0
  -15.8215   18.0107  -27.5813 H   0  0  0  0  0  0  0  0  0  0  0  0
  -16.0576   20.4199  -26.1508 H   0  0  0  0  0  0  0  0  0  0  0  0
  -14.6834   17.6516  -25.4825 H   0  0  0  0  0  0  0  0  0  0  0  0
  -15.4541   19.0404  -23.5507 H   0  0  0  0  0  0  0  0  0  0  0  0
  -17.1593   17.6175  -23.7521 H   0  0  0  0  0  0  0  0  0  0  0  0
  -13.4374   12.2205  -23.3001 H   0  0  0  0  0  0  0  0  0  0  0  0
  -11.7373   12.7207  -23.0949 H   0  0  0  0  0  0  0  0  0  0  0  0
  1  4  2  0
  1  5  1  0
  2  5  2  0
  2  7  1  0
  2 24  1  0
  3 23  1  0
  3 24  2  0
  4  6  1  0
  5 25  1  0
  6  7  2  0
  7 23  1  0
  8  9  1  0
  9 10  2  0
  9 11  1  0
 11 12  1  0
 11 13  1  0
 13 14  1  0
 14 15  1  0
 16 15  1  0
 16 17  1  0
 16 18  1  0
 17 22  1  0
 18 19  1  0
 18 20  1  0
 20 21  1  0
 20 22  1  0
 22 23  1  0
  3 26  1  0
  4 27  1  0
 11 28  1  1
 12 29  1  0
 12 30  1  0
 12 31  1  0
 13 32  1  0
 13 33  1  0
 15 34  1  0
 15 35  1  0
 16 36  1  1
 18 37  1  6
 19 38  1  0
 20 39  1  6
 21 40  1  0
 22 41  1  1
 25 42  1  0
 25 43  1  0
M  CHG  2   8  -1  12   1
M  END
>  <filename_input>  (14) 
7O1T_5X8_docked.sdf

>  <pdb_id>  (14) 
7O1T_5X8

>  <pose_rank>  (14) 
13

>  <num_atoms_heavy>  (14) 
25

>  <num_torsions>  (14) 
6

>  <pose>  (14) 
[-17.730377365743824, 18.16084609226338, -26.45361201515917, 2.687125845725695, 4.06088751836744, -0.859404165227504, -1.4752857290147117, -0.846452242305806, -0.8268530347598971, 0.45065215032931927, -3.238338108823258, 0.11663070729038649]

>  <energy>  (14) 
-277.0832723976521

>  <inter_energy>  (14) 
-324.1449703439321

>  <intra_energy>  (14) 
52.50132128327408

>  <rmsd>  (14) 
6.94027

>  <sdf_rank>  (14) 
0

$$$$

     RDKit          3D

 43 45  0  0  0  0  0  0  0  0999 V2000
  -15.4999   19.0357  -24.1410 N   0  0  0  0  0  0  0  0  0  0  0  0
  -13.9714   17.2895  -24.3898 C   0  0  0  0  0  0  0  0  0  0  0  0
  -13.1351   15.2787  -24.6128 C   0  0  0  0  0  0  0  0  0  0  0  0
  -16.5701   18.1221  -24.1045 C   0  0  0  0  0  0  0  0  0  0  0  0
  -14.2189   18.6185  -24.2695 C   0  0  0  0  0  0  0  0  0  0  0  0
  -16.2784   16.7600  -24.2233 N   0  0  0  0  0  0  0  0  0  0  0  0
  -14.9882   16.3930  -24.3692 C   0  0  0  0  0  0  0  0  0  0  0  0
  -22.8380   10.7499  -30.3835 O   0  0  0  0  0  0  0  0  0  0  0  0
  -22.1295   11.1593  -29.4454 C   0  0  0  0  0  0  0  0  0  0  0  0
  -22.5542   11.5607  -28.3409 O   0  0  0  0  0  0  0  0  0  0  0  0
  -20.5989   11.1552  -29.7002 C   0  0  1  0  0  0  0  0  0  0  0  0
  -20.3498   11.3277  -31.1264 N   0  0  0  0  0  0  0  0  0  0  0  0
  -19.8717   12.2747  -28.8906 C   0  0  0  0  0  0  0  0  0  0  0  0
  -18.6970   11.5290  -27.6585 S   0  0  0  0  0  0  0  0  0  0  0  0
  -17.7552   13.0750  -27.2864 C   0  0  0  0  0  0  0  0  0  0  0  0
  -17.1148   13.1951  -25.8562 C   0  0  1  0  0  0  0  0  0  0  0  0
  -15.8270   13.8510  -25.9104 O   0  0  0  0  0  0  0  0  0  0  0  0
  -17.8538   14.0561  -24.8450 C   0  0  1  0  0  0  0  0  0  0  0  0
  -18.9550   13.3455  -24.2520 O   0  0  0  0  0  0  0  0  0  0  0  0
  -16.7146   14.3007  -23.8223 C   0  0  1  0  0  0  0  0  0  0  0  0
  -16.8374   13.4685  -22.6310 O   0  0  0  0  0  0  0  0  0  0  0  0
  -15.3866   13.9786  -24.5851 C   0  0  2  0  0  0  0  0  0  0  0  0
  -14.4805   15.1761  -24.5182 N   0  0  0  0  0  0  0  0  0  0  0  0
  -12.8322   16.5764  -24.5328 N   0  0  0  0  0  0  0  0  0  0  0  0
  -13.1791   19.5188  -24.2902 N   0  0  0  0  0  0  0  0  0  0  0  0
  -12.4237   14.4484  -24.7331 H   0  0  0  0  0  0  0  0  0  0  0  0
  -17.6069   18.4701  -23.9857 H   0  0  0  0  0  0  0  0  0  0  0  0
  -20.1960   10.1898  -29.3598 H   0  0  0  0  0  0  0  0  0  0  0  0
  -19.5103   11.9093  -31.2604 H   0  0  0  0  0  0  0  0  0  0  0  0
  -20.2026   10.4066  -31.5632 H   0  0  0  0  0  0  0  0  0  0  0  0
  -21.1604   11.7892  -31.5632 H   0  0  0  0  0  0  0  0  0  0  0  0
  -19.3090   12.9160  -29.5850 H   0  0  0  0  0  0  0  0  0  0  0  0
  -20.6238   12.8686  -28.3506 H   0  0  0  0  0  0  0  0  0  0  0  0
  -16.9409   13.1523  -28.0219 H   0  0  0  0  0  0  0  0  0  0  0  0
  -18.5015   13.8817  -27.3332 H   0  0  0  0  0  0  0  0  0  0  0  0
  -17.1111   12.1412  -25.5410 H   0  0  0  0  0  0  0  0  0  0  0  0
  -18.3135   14.9672  -25.2555 H   0  0  0  0  0  0  0  0  0  0  0  0
  -18.8842   13.3912  -23.2655 H   0  0  0  0  0  0  0  0  0  0  0  0
  -16.7474   15.3373  -23.4557 H   0  0  0  0  0  0  0  0  0  0  0  0
  -16.7539   14.0344  -21.8231 H   0  0  0  0  0  0  0  0  0  0  0  0
  -14.8496   13.1042  -24.1888 H   0  0  0  0  0  0  0  0  0  0  0  0
  -12.2100   19.1841  -24.3887 H   0  0  0  0  0  0  0  0  0  0  0  0
  -13.3696   20.5276  -24.2072 H   0  0  0  0  0  0  0  0  0  0  0  0
  1  4  2  0
  1  5  1  0
  2  5  2  0
  2  7  1  0
  2 24  1  0
  3 23  1  0
  3 24  2  0
  4  6  1  0
  5 25  1  0
  6  7  2  0
  7 23  1  0
  8  9  1  0
  9 10  2  0
  9 11  1  0
 11 12  1  0
 11 13  1  0
 13 14  1  0
 14 15  1  0
 16 15  1  0
 16 17  1  0
 16 18  1  0
 17 22  1  0
 18 19  1  0
 18 20  1  0
 20 21  1  0
 20 22  1  0
 22 23  1  0
  3 26  1  0
  4 27  1  0
 11 28  1  1
 12 29  1  0
 12 30  1  0
 12 31  1  0
 13 32  1  0
 13 33  1  0
 15 34  1  0
 15 35  1  0
 16 36  1  1
 18 37  1  6
 19 38  1  0
 20 39  1  1
 21 40  1  0
 22 41  1  1
 25 42  1  0
 25 43  1  0
M  CHG  2   8  -1  12   1
M  END
>  <filename_input>  (15) 
7O1T_5X8_docked.sdf

>  <pdb_id>  (15) 
7O1T_5X8

>  <pose_rank>  (15) 
14

>  <num_atoms_heavy>  (15) 
25

>  <num_torsions>  (15) 
6

>  <pose>  (15) 
[-17.1147858865374, 13.195069468095777, -25.856180472234687, -2.7755793822925217, 2.1594087205665704, -1.935623990977983, 3.8720940363332885, -2.5564194547575183, -1.1705744196410672, -12.101316326345557, -9.477701253875718, -2.242877707369169]

>  <energy>  (15) 
-227.1823850574895

>  <inter_energy>  (15) 
-275.6951861976091

>  <intra_energy>  (15) 
49.3757290629069

>  <rmsd>  (15) 
8.15783

>  <sdf_rank>  (15) 
0

$$$$

     RDKit          3D

 43 45  0  0  0  0  0  0  0  0999 V2000
  -12.7885    9.2710  -27.4752 N   0  0  0  0  0  0  0  0  0  0  0  0
  -10.7253    9.2858  -26.3841 C   0  0  0  0  0  0  0  0  0  0  0  0
   -9.1122    9.8125  -25.0011 C   0  0  0  0  0  0  0  0  0  0  0  0
  -13.2434   10.3361  -26.6751 C   0  0  0  0  0  0  0  0  0  0  0  0
  -11.5411    8.7652  -27.3357 C   0  0  0  0  0  0  0  0  0  0  0  0
  -12.3741   10.8534  -25.7099 N   0  0  0  0  0  0  0  0  0  0  0  0
  -11.1473   10.3037  -25.5943 C   0  0  0  0  0  0  0  0  0  0  0  0
  -17.6014   16.0281  -23.4762 O   0  0  0  0  0  0  0  0  0  0  0  0
  -16.9033   16.5455  -24.3675 C   0  0  0  0  0  0  0  0  0  0  0  0
  -17.1834   17.5933  -24.9879 O   0  0  0  0  0  0  0  0  0  0  0  0
  -15.5830   15.8055  -24.7096 C   0  0  1  0  0  0  0  0  0  0  0  0
  -14.4533   16.6780  -24.4121 N   0  0  0  0  0  0  0  0  0  0  0  0
  -15.4464   14.4653  -23.9205 C   0  0  0  0  0  0  0  0  0  0  0  0
  -14.3727   14.6986  -22.4215 S   0  0  0  0  0  0  0  0  0  0  0  0
  -13.5915   13.0240  -22.4455 C   0  0  0  0  0  0  0  0  0  0  0  0
  -12.0764   12.9478  -22.8564 C   0  0  1  0  0  0  0  0  0  0  0  0
  -11.7166   11.6169  -23.2932 O   0  0  0  0  0  0  0  0  0  0  0  0
  -11.6472   13.7870  -24.0487 C   0  0  1  0  0  0  0  0  0  0  0  0
  -11.4397   15.1616  -23.6788 O   0  0  0  0  0  0  0  0  0  0  0  0
  -10.3119   13.0827  -24.4016 C   0  0  1  0  0  0  0  0  0  0  0  0
   -9.1437   13.8257  -23.9435 O   0  0  0  0  0  0  0  0  0  0  0  0
  -10.3792   11.6804  -23.7103 C   0  0  2  0  0  0  0  0  0  0  0  0
  -10.1731   10.6123  -24.7478 N   0  0  0  0  0  0  0  0  0  0  0  0
   -9.4592    9.0036  -26.0048 N   0  0  0  0  0  0  0  0  0  0  0  0
  -11.1016    7.7334  -28.1322 N   0  0  0  0  0  0  0  0  0  0  0  0
   -8.1447    9.8259  -24.4779 H   0  0  0  0  0  0  0  0  0  0  0  0
  -14.2542   10.7497  -26.8055 H   0  0  0  0  0  0  0  0  0  0  0  0
  -15.5962   15.5556  -25.7808 H   0  0  0  0  0  0  0  0  0  0  0  0
  -14.3441   16.7623  -23.3914 H   0  0  0  0  0  0  0  0  0  0  0  0
  -13.5948   16.2784  -24.8174 H   0  0  0  0  0  0  0  0  0  0  0  0
  -14.6229   17.6096  -24.8174 H   0  0  0  0  0  0  0  0  0  0  0  0
  -16.4444   14.1294  -23.6021 H   0  0  0  0  0  0  0  0  0  0  0  0
  -14.9838   13.7124  -24.5756 H   0  0  0  0  0  0  0  0  0  0  0  0
  -13.6824   12.6011  -21.4341 H   0  0  0  0  0  0  0  0  0  0  0  0
  -14.1279   12.4704  -23.2303 H   0  0  0  0  0  0  0  0  0  0  0  0
  -11.5931   13.3048  -21.9351 H   0  0  0  0  0  0  0  0  0  0  0  0
  -12.3770   13.8384  -24.8701 H   0  0  0  0  0  0  0  0  0  0  0  0
  -11.4280   15.2396  -22.6920 H   0  0  0  0  0  0  0  0  0  0  0  0
  -10.1974   13.0077  -25.4931 H   0  0  0  0  0  0  0  0  0  0  0  0
   -9.1268   13.8364  -22.9537 H   0  0  0  0  0  0  0  0  0  0  0  0
   -9.6370   11.5457  -22.9097 H   0  0  0  0  0  0  0  0  0  0  0  0
  -10.1490    7.3602  -28.0127 H   0  0  0  0  0  0  0  0  0  0  0  0
  -11.7250    7.3339  -28.8482 H   0  0  0  0  0  0  0  0  0  0  0  0
  1  4  2  0
  1  5  1  0
  2  5  2  0
  2  7  1  0
  2 24  1  0
  3 23  1  0
  3 24  2  0
  4  6  1  0
  5 25  1  0
  6  7  2  0
  7 23  1  0
  8  9  1  0
  9 10  2  0
  9 11  1  0
 11 12  1  0
 11 13  1  0
 13 14  1  0
 14 15  1  0
 16 15  1  0
 16 17  1  0
 16 18  1  0
 17 22  1  0
 18 19  1  0
 18 20  1  0
 20 21  1  0
 20 22  1  0
 22 23  1  0
  3 26  1  0
  4 27  1  0
 11 28  1  6
 12 29  1  0
 12 30  1  0
 12 31  1  0
 13 32  1  0
 13 33  1  0
 15 34  1  0
 15 35  1  0
 16 36  1  1
 18 37  1  6
 19 38  1  0
 20 39  1  6
 21 40  1  0
 22 41  1  1
 25 42  1  0
 25 43  1  0
M  CHG  2   8  -1  12   1
M  END
>  <filename_input>  (16) 
7O1T_5X8_docked.sdf

>  <pdb_id>  (16) 
7O1T_5X8

>  <pose_rank>  (16) 
15

>  <num_atoms_heavy>  (16) 
25

>  <num_torsions>  (16) 
6

>  <pose>  (16) 
[-12.076423065097405, 12.947824133971514, -22.85644492236458, -0.04092657580386251, 0.16144272980815313, 6.5670471624626146, 9.296241258525825, -1.5502855270880065, -1.9120084007853815, 1.323126428347138, -0.6544377861426129, 1.4855640731086108]

>  <energy>  (16) 
-648.2629963628615

>  <inter_energy>  (16) 
-677.1607618566076

>  <intra_energy>  (16) 
37.44045479728636

>  <rmsd>  (16) 
2.5372

>  <sdf_rank>  (16) 
0

$$$$

     RDKit          3D

 43 45  0  0  0  0  0  0  0  0999 V2000
   -7.0231    9.9283  -17.1518 N   0  0  0  0  0  0  0  0  0  0  0  0
   -6.1809   11.9867  -16.4436 C   0  0  0  0  0  0  0  0  0  0  0  0
   -5.9382   14.1438  -16.1606 C   0  0  0  0  0  0  0  0  0  0  0  0
   -8.0334   10.5719  -17.8911 C   0  0  0  0  0  0  0  0  0  0  0  0
   -6.1045   10.6317  -16.4497 C   0  0  0  0  0  0  0  0  0  0  0  0
   -8.0779   11.9691  -17.8689 N   0  0  0  0  0  0  0  0  0  0  0  0
   -7.1531   12.6266  -17.1389 C   0  0  0  0  0  0  0  0  0  0  0  0
   -4.8627   21.8739  -20.6799 O   0  0  0  0  0  0  0  0  0  0  0  0
   -5.8562   22.5165  -20.2931 C   0  0  0  0  0  0  0  0  0  0  0  0
   -6.3425   23.5121  -20.8707 O   0  0  0  0  0  0  0  0  0  0  0  0
   -6.5228   22.0122  -18.9858 C   0  0  1  0  0  0  0  0  0  0  0  0
   -7.9692   22.1585  -19.0978 N   0  0  0  0  0  0  0  0  0  0  0  0
   -6.1573   20.5248  -18.6831 C   0  0  0  0  0  0  0  0  0  0  0  0
   -7.5275   19.3935  -19.2281 S   0  0  0  0  0  0  0  0  0  0  0  0
   -7.8227   18.5965  -17.5871 C   0  0  0  0  0  0  0  0  0  0  0  0
   -8.4129   17.1399  -17.5958 C   0  0  1  0  0  0  0  0  0  0  0  0
   -7.3623   16.1475  -17.6495 O   0  0  0  0  0  0  0  0  0  0  0  0
   -9.1811   16.7048  -16.3587 C   0  0  1  0  0  0  0  0  0  0  0  0
  -10.5276   17.2109  -16.3688 O   0  0  0  0  0  0  0  0  0  0  0  0
   -9.1474   15.1670  -16.5528 C   0  0  1  0  0  0  0  0  0  0  0  0
  -10.4082   14.6339  -17.0555 O   0  0  0  0  0  0  0  0  0  0  0  0
   -7.9896   14.8957  -17.5702 C   0  0  2  0  0  0  0  0  0  0  0  0
   -7.0125   13.9333  -16.9551 N   0  0  0  0  0  0  0  0  0  0  0  0
   -5.4350   12.9463  -15.8526 N   0  0  0  0  0  0  0  0  0  0  0  0
   -5.1128    9.9932  -15.7416 N   0  0  0  0  0  0  0  0  0  0  0  0
   -5.5516   15.1192  -15.8302 H   0  0  0  0  0  0  0  0  0  0  0  0
   -8.7671    9.9919  -18.4700 H   0  0  0  0  0  0  0  0  0  0  0  0
   -6.1447   22.6196  -18.1502 H   0  0  0  0  0  0  0  0  0  0  0  0
   -8.3840   22.2005  -18.1559 H   0  0  0  0  0  0  0  0  0  0  0  0
   -8.1881   23.0259  -19.6083 H   0  0  0  0  0  0  0  0  0  0  0  0
   -8.3573   21.3525  -19.6083 H   0  0  0  0  0  0  0  0  0  0  0  0
   -5.2350   20.2619  -19.2219 H   0  0  0  0  0  0  0  0  0  0  0  0
   -6.0098   20.4084  -17.5993 H   0  0  0  0  0  0  0  0  0  0  0  0
   -6.8592   18.5607  -17.0577 H   0  0  0  0  0  0  0  0  0  0  0  0
   -8.5949   19.2140  -17.1050 H   0  0  0  0  0  0  0  0  0  0  0  0
   -9.0791   17.1909  -18.4696 H   0  0  0  0  0  0  0  0  0  0  0  0
   -8.7685   17.0620  -15.4036 H   0  0  0  0  0  0  0  0  0  0  0  0
  -10.8427   17.3293  -15.4378 H   0  0  0  0  0  0  0  0  0  0  0  0
   -8.9848   14.6645  -15.5879 H   0  0  0  0  0  0  0  0  0  0  0  0
  -10.9899   14.3879  -16.2930 H   0  0  0  0  0  0  0  0  0  0  0  0
   -8.3326   14.4873  -18.5322 H   0  0  0  0  0  0  0  0  0  0  0  0
   -4.4217   10.5439  -15.2126 H   0  0  0  0  0  0  0  0  0  0  0  0
   -5.0615    8.9645  -15.7406 H   0  0  0  0  0  0  0  0  0  0  0  0
  1  4  2  0
  1  5  1  0
  2  5  2  0
  2  7  1  0
  2 24  1  0
  3 23  1  0
  3 24  2  0
  4  6  1  0
  5 25  1  0
  6  7  2  0
  7 23  1  0
  8  9  1  0
  9 10  2  0
  9 11  1  0
 11 12  1  0
 11 13  1  0
 13 14  1  0
 14 15  1  0
 16 15  1  0
 16 17  1  0
 16 18  1  0
 17 22  1  0
 18 19  1  0
 18 20  1  0
 20 21  1  0
 20 22  1  0
 22 23  1  0
  3 26  1  0
  4 27  1  0
 11 28  1  1
 12 29  1  0
 12 30  1  0
 12 31  1  0
 13 32  1  0
 13 33  1  0
 15 34  1  0
 15 35  1  0
 16 36  1  6
 18 37  1  1
 19 38  1  0
 20 39  1  1
 21 40  1  0
 22 41  1  6
 25 42  1  0
 25 43  1  0
M  CHG  2   8  -1  12   1
M  END
>  <filename_input>  (17) 
7O1T_5X8_docked.sdf

>  <pdb_id>  (17) 
7O1T_5X8

>  <pose_rank>  (17) 
16

>  <num_atoms_heavy>  (17) 
25

>  <num_torsions>  (17) 
6

>  <pose>  (17) 
[-8.412915014113011, 17.139884871379216, -17.59580040153694, 1.2248163707231985, -2.8348873951710756, -0.5897394771212986, -0.3623795232573264, 2.7841995702744535, -0.19929082040247256, 1.7193170666153936, -0.6703321069662523, 1.0470203090159553]

>  <energy>  (17) 
-220.4088164597793

>  <inter_energy>  (17) 
-210.868225846829

>  <intra_energy>  (17) 
0.193320651182575

>  <rmsd>  (17) 
10.4873

>  <sdf_rank>  (17) 
0

$$$$

     RDKit          3D

 43 45  0  0  0  0  0  0  0  0999 V2000
  -17.5143   15.1345  -23.8876 N   0  0  0  0  0  0  0  0  0  0  0  0
  -16.4514   17.1944  -24.1606 C   0  0  0  0  0  0  0  0  0  0  0  0
  -14.9935   18.7154  -24.7551 C   0  0  0  0  0  0  0  0  0  0  0  0
  -16.4675   14.4806  -24.5642 C   0  0  0  0  0  0  0  0  0  0  0  0
  -17.4951   16.4717  -23.6805 C   0  0  0  0  0  0  0  0  0  0  0  0
  -15.4043   15.2546  -25.0387 N   0  0  0  0  0  0  0  0  0  0  0  0
  -15.4385   16.5865  -24.8257 C   0  0  0  0  0  0  0  0  0  0  0  0
   -6.6984   19.9378  -31.4174 O   0  0  0  0  0  0  0  0  0  0  0  0
   -7.5898   20.8048  -31.3591 C   0  0  0  0  0  0  0  0  0  0  0  0
   -8.0691   21.4155  -32.3382 O   0  0  0  0  0  0  0  0  0  0  0  0
   -8.1295   21.1276  -29.9406 C   0  0  1  0  0  0  0  0  0  0  0  0
   -7.9998   22.5586  -29.6924 N   0  0  0  0  0  0  0  0  0  0  0  0
   -9.6179   20.6879  -29.7708 C   0  0  0  0  0  0  0  0  0  0  0  0
   -9.8056   19.5829  -28.2883 S   0  0  0  0  0  0  0  0  0  0  0  0
  -11.5881   19.1682  -28.5451 C   0  0  0  0  0  0  0  0  0  0  0  0
  -12.1484   17.9161  -27.7781 C   0  0  1  0  0  0  0  0  0  0  0  0
  -12.8254   18.3051  -26.5608 O   0  0  0  0  0  0  0  0  0  0  0  0
  -13.2259   17.1075  -28.4818 C   0  0  1  0  0  0  0  0  0  0  0  0
  -12.6617   16.2122  -29.4561 O   0  0  0  0  0  0  0  0  0  0  0  0
  -13.8129   16.3376  -27.2709 C   0  0  1  0  0  0  0  0  0  0  0  0
  -13.3549   14.9547  -27.2056 O   0  0  0  0  0  0  0  0  0  0  0  0
  -13.3524   17.1312  -26.0031 C   0  0  2  0  0  0  0  0  0  0  0  0
  -14.5627   17.5118  -25.1970 N   0  0  0  0  0  0  0  0  0  0  0  0
  -16.1506   18.5114  -24.1212 N   0  0  0  0  0  0  0  0  0  0  0  0
  -18.5166   17.0992  -23.0057 N   0  0  0  0  0  0  0  0  0  0  0  0
  -14.4856   19.6814  -24.8923 H   0  0  0  0  0  0  0  0  0  0  0  0
  -16.4854   13.3912  -24.7155 H   0  0  0  0  0  0  0  0  0  0  0  0
   -7.5346   20.5613  -29.2089 H   0  0  0  0  0  0  0  0  0  0  0  0
   -7.9841   22.7309  -28.6771 H   0  0  0  0  0  0  0  0  0  0  0  0
   -7.1242   22.9019  -30.1124 H   0  0  0  0  0  0  0  0  0  0  0  0
   -8.7993   23.0538  -30.1124 H   0  0  0  0  0  0  0  0  0  0  0  0
  -10.2463   21.5810  -29.6385 H   0  0  0  0  0  0  0  0  0  0  0  0
   -9.9298   20.1343  -30.6688 H   0  0  0  0  0  0  0  0  0  0  0  0
  -12.1801   20.0409  -28.2322 H   0  0  0  0  0  0  0  0  0  0  0  0
  -11.6699   18.9096  -29.6112 H   0  0  0  0  0  0  0  0  0  0  0  0
  -11.2320   17.3200  -27.6560 H   0  0  0  0  0  0  0  0  0  0  0  0
  -13.9551   17.7000  -29.0538 H   0  0  0  0  0  0  0  0  0  0  0  0
  -12.1952   15.4719  -28.9929 H   0  0  0  0  0  0  0  0  0  0  0  0
  -14.9082   16.2762  -27.3529 H   0  0  0  0  0  0  0  0  0  0  0  0
  -13.2644   14.6814  -26.2584 H   0  0  0  0  0  0  0  0  0  0  0  0
  -12.6582   16.5718  -25.3589 H   0  0  0  0  0  0  0  0  0  0  0  0
  -18.4860   18.1179  -22.8568 H   0  0  0  0  0  0  0  0  0  0  0  0
  -19.3119   16.5502  -22.6494 H   0  0  0  0  0  0  0  0  0  0  0  0
  1  4  2  0
  1  5  1  0
  2  5  2  0
  2  7  1  0
  2 24  1  0
  3 23  1  0
  3 24  2  0
  4  6  1  0
  5 25  1  0
  6  7  2  0
  7 23  1  0
  8  9  1  0
  9 10  2  0
  9 11  1  0
 11 12  1  0
 11 13  1  0
 13 14  1  0
 14 15  1  0
 16 15  1  0
 16 17  1  0
 16 18  1  0
 17 22  1  0
 18 19  1  0
 18 20  1  0
 20 21  1  0
 20 22  1  0
 22 23  1  0
  3 26  1  0
  4 27  1  0
 11 28  1  1
 12 29  1  0
 12 30  1  0
 12 31  1  0
 13 32  1  0
 13 33  1  0
 15 34  1  0
 15 35  1  0
 16 36  1  1
 18 37  1  6
 19 38  1  0
 20 39  1  6
 21 40  1  0
 22 41  1  1
 25 42  1  0
 25 43  1  0
M  CHG  2   8  -1  12   1
M  END
>  <filename_input>  (18) 
7O1T_5X8_docked.sdf

>  <pdb_id>  (18) 
7O1T_5X8

>  <pose_rank>  (18) 
17

>  <num_atoms_heavy>  (18) 
25

>  <num_torsions>  (18) 
6

>  <pose>  (18) 
[-12.148416624603822, 17.916081334144216, -27.77809551599042, 2.3503922427564197, -1.8067811215743979, 2.851633406994682, -7.304841794411625, -3.345271386326218, -0.9708315191401431, 0.8163703889884153, -3.026408107424023, -0.5680466789351039]

>  <energy>  (18) 
-138.32588757812252

>  <inter_energy>  (18) 
-159.19767086825502

>  <intra_energy>  (18) 
24.606264185677787

>  <rmsd>  (18) 
8.60501

>  <sdf_rank>  (18) 
0

$$$$

     RDKit          3D

 43 45  0  0  0  0  0  0  0  0999 V2000
   -6.5584   10.1538  -16.0941 N   0  0  0  0  0  0  0  0  0  0  0  0
   -7.1756   11.8293  -17.5972 C   0  0  0  0  0  0  0  0  0  0  0  0
   -7.8532   13.7488  -18.4027 C   0  0  0  0  0  0  0  0  0  0  0  0
   -6.8495   10.9951  -15.0038 C   0  0  0  0  0  0  0  0  0  0  0  0
   -6.7330   10.5664  -17.3711 C   0  0  0  0  0  0  0  0  0  0  0  0
   -7.3109   12.2872  -15.2729 N   0  0  0  0  0  0  0  0  0  0  0  0
   -7.4505   12.6605  -16.5620 C   0  0  0  0  0  0  0  0  0  0  0  0
  -16.7007   14.8527  -16.8207 O   0  0  0  0  0  0  0  0  0  0  0  0
  -16.4315   15.7845  -16.0404 C   0  0  0  0  0  0  0  0  0  0  0  0
  -17.0173   16.8875  -16.0027 O   0  0  0  0  0  0  0  0  0  0  0  0
  -15.2708   15.5210  -15.0448 C   0  0  1  0  0  0  0  0  0  0  0  0
  -14.8709   14.1216  -15.1341 N   0  0  0  0  0  0  0  0  0  0  0  0
  -14.0447   16.4466  -15.3230 C   0  0  0  0  0  0  0  0  0  0  0  0
  -12.5245   15.4310  -15.6572 S   0  0  0  0  0  0  0  0  0  0  0  0
  -11.3566   16.8462  -15.8781 C   0  0  0  0  0  0  0  0  0  0  0  0
   -9.8201   16.5204  -15.8222 C   0  0  1  0  0  0  0  0  0  0  0  0
   -9.5665   15.1293  -16.1252 O   0  0  0  0  0  0  0  0  0  0  0  0
   -8.9341   17.2210  -16.8390 C   0  0  1  0  0  0  0  0  0  0  0  0
   -8.6262   18.5661  -16.4323 O   0  0  0  0  0  0  0  0  0  0  0  0
   -7.6845   16.3054  -16.7772 C   0  0  1  0  0  0  0  0  0  0  0  0
   -6.5971   16.8865  -15.9984 O   0  0  0  0  0  0  0  0  0  0  0  0
   -8.1735   14.9678  -16.1285 C   0  0  2  0  0  0  0  0  0  0  0  0
   -7.8479   13.8277  -17.0524 N   0  0  0  0  0  0  0  0  0  0  0  0
   -7.4404   12.5215  -18.7274 N   0  0  0  0  0  0  0  0  0  0  0  0
   -6.4587    9.7315  -18.4294 N   0  0  0  0  0  0  0  0  0  0  0  0
   -8.1432   14.5466  -19.1022 H   0  0  0  0  0  0  0  0  0  0  0  0
   -6.7176   10.6459  -13.9690 H   0  0  0  0  0  0  0  0  0  0  0  0
  -15.6297   15.7479  -14.0300 H   0  0  0  0  0  0  0  0  0  0  0  0
  -14.7605   13.7349  -14.1858 H   0  0  0  0  0  0  0  0  0  0  0  0
  -15.5936   13.5896  -15.6397 H   0  0  0  0  0  0  0  0  0  0  0  0
  -13.9763   14.0518  -15.6397 H   0  0  0  0  0  0  0  0  0  0  0  0
  -14.2585   17.0771  -16.1987 H   0  0  0  0  0  0  0  0  0  0  0  0
  -13.8653   17.0748  -14.4380 H   0  0  0  0  0  0  0  0  0  0  0  0
  -11.5644   17.2974  -16.8596 H   0  0  0  0  0  0  0  0  0  0  0  0
  -11.5401   17.5044  -15.0161 H   0  0  0  0  0  0  0  0  0  0  0  0
   -9.5753   16.8484  -14.8012 H   0  0  0  0  0  0  0  0  0  0  0  0
   -9.3752   17.3386  -17.8398 H   0  0  0  0  0  0  0  0  0  0  0  0
   -8.6144   18.6174  -15.4437 H   0  0  0  0  0  0  0  0  0  0  0  0
   -7.2708   16.1565  -17.7855 H   0  0  0  0  0  0  0  0  0  0  0  0
   -6.7907   16.7831  -15.0330 H   0  0  0  0  0  0  0  0  0  0  0  0
   -7.7280   14.7650  -15.1434 H   0  0  0  0  0  0  0  0  0  0  0  0
   -6.5971   10.0616  -19.3952 H   0  0  0  0  0  0  0  0  0  0  0  0
   -6.1149    8.7762  -18.2560 H   0  0  0  0  0  0  0  0  0  0  0  0
  1  4  2  0
  1  5  1  0
  2  5  2  0
  2  7  1  0
  2 24  1  0
  3 23  1  0
  3 24  2  0
  4  6  1  0
  5 25  1  0
  6  7  2  0
  7 23  1  0
  8  9  1  0
  9 10  2  0
  9 11  1  0
 11 12  1  0
 11 13  1  0
 13 14  1  0
 14 15  1  0
 16 15  1  0
 16 17  1  0
 16 18  1  0
 17 22  1  0
 18 19  1  0
 18 20  1  0
 20 21  1  0
 20 22  1  0
 22 23  1  0
  3 26  1  0
  4 27  1  0
 11 28  1  1
 12 29  1  0
 12 30  1  0
 12 31  1  0
 13 32  1  0
 13 33  1  0
 15 34  1  0
 15 35  1  0
 16 36  1  1
 18 37  1  6
 19 38  1  0
 20 39  1  6
 21 40  1  0
 22 41  1  1
 25 42  1  0
 25 43  1  0
M  CHG  2   8  -1  12   1
M  END
>  <filename_input>  (19) 
7O1T_5X8_docked.sdf

>  <pdb_id>  (19) 
7O1T_5X8

>  <pose_rank>  (19) 
18

>  <num_atoms_heavy>  (19) 
25

>  <num_torsions>  (19) 
6

>  <pose>  (19) 
[-9.820146558651865, 16.520435278244438, -15.822167144538863, 1.3699833477398924, 5.315745358201585, -2.3311692834031317, 0.5309577437561297, 1.6299478395339486, -0.9404945366923124, 0.7457233965807091, -1.0680788226792697, -2.886236166682481]

>  <energy>  (19) 
-202.05983376314873

>  <inter_energy>  (19) 
-193.62682951314142

>  <intra_energy>  (19) 
0.0

>  <rmsd>  (19) 
9.63685

>  <sdf_rank>  (19) 
0

$$$$

     RDKit          3D

 43 45  0  0  0  0  0  0  0  0999 V2000
  -19.3284   17.2906  -34.3827 N   0  0  0  0  0  0  0  0  0  0  0  0
  -18.0328   15.3492  -34.3792 C   0  0  0  0  0  0  0  0  0  0  0  0
  -17.4252   13.2595  -34.1421 C   0  0  0  0  0  0  0  0  0  0  0  0
  -20.4318   16.5807  -33.8731 C   0  0  0  0  0  0  0  0  0  0  0  0
  -18.1437   16.6804  -34.6187 C   0  0  0  0  0  0  0  0  0  0  0  0
  -20.2803   15.2121  -33.6306 N   0  0  0  0  0  0  0  0  0  0  0  0
  -19.0866   14.6437  -33.8998 C   0  0  0  0  0  0  0  0  0  0  0  0
  -22.7815    6.6704  -27.4906 O   0  0  0  0  0  0  0  0  0  0  0  0
  -22.5172    7.8860  -27.4446 C   0  0  0  0  0  0  0  0  0  0  0  0
  -22.8871    8.6724  -26.5467 O   0  0  0  0  0  0  0  0  0  0  0  0
  -21.6543    8.4367  -28.6107 C   0  0  1  0  0  0  0  0  0  0  0  0
  -21.1970    7.3246  -29.4354 N   0  0  0  0  0  0  0  0  0  0  0  0
  -22.4439    9.4617  -29.4845 C   0  0  0  0  0  0  0  0  0  0  0  0
  -21.9311   11.2000  -29.0725 S   0  0  0  0  0  0  0  0  0  0  0  0
  -20.2547   11.1260  -29.8467 C   0  0  0  0  0  0  0  0  0  0  0  0
  -20.1907   11.1486  -31.4168 C   0  0  1  0  0  0  0  0  0  0  0  0
  -19.8157   12.4558  -31.9087 O   0  0  0  0  0  0  0  0  0  0  0  0
  -19.1435   10.2635  -32.0724 C   0  0  1  0  0  0  0  0  0  0  0  0
  -19.5810    8.8951  -32.1466 O   0  0  0  0  0  0  0  0  0  0  0  0
  -19.0819   10.9204  -33.4754 C   0  0  1  0  0  0  0  0  0  0  0  0
  -19.8058   10.1594  -34.4871 O   0  0  0  0  0  0  0  0  0  0  0  0
  -19.7092   12.3436  -33.3026 C   0  0  2  0  0  0  0  0  0  0  0  0
  -18.7204   13.3749  -33.7697 N   0  0  0  0  0  0  0  0  0  0  0  0
  -17.0122   14.4734  -34.5135 N   0  0  0  0  0  0  0  0  0  0  0  0
  -17.0672   17.3864  -35.1038 N   0  0  0  0  0  0  0  0  0  0  0  0
  -16.8246   12.3379  -34.1395 H   0  0  0  0  0  0  0  0  0  0  0  0
  -21.3866   17.0884  -33.6713 H   0  0  0  0  0  0  0  0  0  0  0  0
  -20.7926    8.9678  -28.1801 H   0  0  0  0  0  0  0  0  0  0  0  0
  -20.8804    6.5548  -28.8288 H   0  0  0  0  0  0  0  0  0  0  0  0
  -21.9716    6.9969  -30.0301 H   0  0  0  0  0  0  0  0  0  0  0  0
  -20.4160    7.6367  -30.0301 H   0  0  0  0  0  0  0  0  0  0  0  0
  -22.2378    9.2658  -30.5471 H   0  0  0  0  0  0  0  0  0  0  0  0
  -23.5188    9.3500  -29.2796 H   0  0  0  0  0  0  0  0  0  0  0  0
  -19.6812   11.9897  -29.4790 H   0  0  0  0  0  0  0  0  0  0  0  0
  -19.8509   10.1440  -29.5590 H   0  0  0  0  0  0  0  0  0  0  0  0
  -21.2045   10.8055  -31.6710 H   0  0  0  0  0  0  0  0  0  0  0  0
  -18.1812   10.2082  -31.5423 H   0  0  0  0  0  0  0  0  0  0  0  0
  -19.6960    8.5354  -31.2315 H   0  0  0  0  0  0  0  0  0  0  0  0
  -18.0422   10.9604  -33.8323 H   0  0  0  0  0  0  0  0  0  0  0  0
  -20.4159    9.5180  -34.0438 H   0  0  0  0  0  0  0  0  0  0  0  0
  -20.6522   12.4812  -33.8521 H   0  0  0  0  0  0  0  0  0  0  0  0
  -16.1727   16.9063  -35.2779 H   0  0  0  0  0  0  0  0  0  0  0  0
  -17.1557   18.3950  -35.2929 H   0  0  0  0  0  0  0  0  0  0  0  0
  1  4  2  0
  1  5  1  0
  2  5  2  0
  2  7  1  0
  2 24  1  0
  3 23  1  0
  3 24  2  0
  4  6  1  0
  5 25  1  0
  6  7  2  0
  7 23  1  0
  8  9  1  0
  9 10  2  0
  9 11  1  0
 11 12  1  0
 11 13  1  0
 13 14  1  0
 14 15  1  0
 16 15  1  0
 16 17  1  0
 16 18  1  0
 17 22  1  0
 18 19  1  0
 18 20  1  0
 20 21  1  0
 20 22  1  0
 22 23  1  0
  3 26  1  0
  4 27  1  0
 11 28  1  1
 12 29  1  0
 12 30  1  0
 12 31  1  0
 13 32  1  0
 13 33  1  0
 15 34  1  0
 15 35  1  0
 16 36  1  6
 18 37  1  1
 19 38  1  0
 20 39  1  6
 21 40  1  0
 22 41  1  6
 25 42  1  0
 25 43  1  0
M  CHG  2   8  -1  12   1
M  END
>  <filename_input>  (20) 
7O1T_5X8_docked.sdf

>  <pdb_id>  (20) 
7O1T_5X8

>  <pose_rank>  (20) 
19

>  <num_atoms_heavy>  (20) 
25

>  <num_torsions>  (20) 
6

>  <pose>  (20) 
[-20.1907469242615, 11.148589360228112, -31.416834835379106, -2.0914606945433842, 0.3656608871933869, 2.6161111416938123, 7.303696858569616, 3.0203979769771396, -2.528959173714591, -1.170095861392819, 2.8478713839787506, 3.4116060070299463]

>  <energy>  (20) 
-202.71335982505323

>  <inter_energy>  (20) 
-185.41056006960721

>  <intra_energy>  (20) 
1.4132291865470563

>  <rmsd>  (20) 
12.2171

>  <sdf_rank>  (20) 
0

$$$$

     RDKit          3D

 43 45  0  0  0  0  0  0  0  0999 V2000
   -9.2309    9.2980  -23.7500 N   0  0  0  0  0  0  0  0  0  0  0  0
  -10.2593    9.2806  -25.8452 C   0  0  0  0  0  0  0  0  0  0  0  0
  -11.5793    9.7952  -27.5140 C   0  0  0  0  0  0  0  0  0  0  0  0
  -10.0681   10.3463  -23.3241 C   0  0  0  0  0  0  0  0  0  0  0  0
   -9.3380    8.7678  -24.9906 C   0  0  0  0  0  0  0  0  0  0  0  0
  -11.0112   10.8453  -24.2276 N   0  0  0  0  0  0  0  0  0  0  0  0
  -11.0677   10.2984  -25.4598 C   0  0  0  0  0  0  0  0  0  0  0  0
  -18.2171   12.3402  -32.4154 O   0  0  0  0  0  0  0  0  0  0  0  0
  -17.3658   11.5114  -32.7867 C   0  0  0  0  0  0  0  0  0  0  0  0
  -17.6138   10.4220  -33.3462 O   0  0  0  0  0  0  0  0  0  0  0  0
  -15.8858   11.8944  -32.5207 C   0  0  1  0  0  0  0  0  0  0  0  0
  -15.3434   12.5598  -33.6992 N   0  0  0  0  0  0  0  0  0  0  0  0
  -15.7399   12.8177  -31.2702 C   0  0  0  0  0  0  0  0  0  0  0  0
  -14.0959   12.5449  -30.4473 S   0  0  0  0  0  0  0  0  0  0  0  0
  -14.3259   13.7684  -29.0815 C   0  0  0  0  0  0  0  0  0  0  0  0
  -13.7646   13.3748  -27.6672 C   0  0  1  0  0  0  0  0  0  0  0  0
  -13.3899   11.9788  -27.6205 O   0  0  0  0  0  0  0  0  0  0  0  0
  -12.4764   14.0518  -27.2291 C   0  0  1  0  0  0  0  0  0  0  0  0
  -12.7220   15.3755  -26.7224 O   0  0  0  0  0  0  0  0  0  0  0  0
  -12.0369   13.0815  -26.1025 C   0  0  1  0  0  0  0  0  0  0  0  0
  -12.3149   13.6021  -24.7690 O   0  0  0  0  0  0  0  0  0  0  0  0
  -12.8311   11.7565  -26.3536 C   0  0  2  0  0  0  0  0  0  0  0  0
  -11.8576   10.6178  -26.4771 N   0  0  0  0  0  0  0  0  0  0  0  0
  -10.5996    8.9794  -27.1180 N   0  0  0  0  0  0  0  0  0  0  0  0
   -8.5242    7.7341  -25.3922 N   0  0  0  0  0  0  0  0  0  0  0  0
  -12.0687    9.7978  -28.4992 H   0  0  0  0  0  0  0  0  0  0  0  0
   -9.9828   10.7613  -22.3090 H   0  0  0  0  0  0  0  0  0  0  0  0
  -15.3233   10.9718  -32.3147 H   0  0  0  0  0  0  0  0  0  0  0  0
  -14.7198   13.3250  -33.4050 H   0  0  0  0  0  0  0  0  0  0  0  0
  -14.8118   11.8810  -34.2626 H   0  0  0  0  0  0  0  0  0  0  0  0
  -16.1156   12.9436  -34.2626 H   0  0  0  0  0  0  0  0  0  0  0  0
  -15.8169   13.8688  -31.5854 H   0  0  0  0  0  0  0  0  0  0  0  0
  -16.5400   12.5766  -30.5548 H   0  0  0  0  0  0  0  0  0  0  0  0
  -13.8312   14.7025  -29.3863 H   0  0  0  0  0  0  0  0  0  0  0  0
  -15.4149   13.8425  -28.9455 H   0  0  0  0  0  0  0  0  0  0  0  0
  -14.6019   13.6758  -27.0203 H   0  0  0  0  0  0  0  0  0  0  0  0
  -11.7346   14.2042  -28.0269 H   0  0  0  0  0  0  0  0  0  0  0  0
  -12.7184   15.3559  -25.7326 H   0  0  0  0  0  0  0  0  0  0  0  0
  -10.9478   12.9303  -26.1330 H   0  0  0  0  0  0  0  0  0  0  0  0
  -11.9758   12.9669  -24.0895 H   0  0  0  0  0  0  0  0  0  0  0  0
  -13.5569   11.5190  -25.5619 H   0  0  0  0  0  0  0  0  0  0  0  0
   -8.6191    7.3423  -26.3400 H   0  0  0  0  0  0  0  0  0  0  0  0
   -7.8199    7.3518  -24.7451 H   0  0  0  0  0  0  0  0  0  0  0  0
  1  4  2  0
  1  5  1  0
  2  5  2  0
  2  7  1  0
  2 24  1  0
  3 23  1  0
  3 24  2  0
  4  6  1  0
  5 25  1  0
  6  7  2  0
  7 23  1  0
  8  9  1  0
  9 10  2  0
  9 11  1  0
 11 12  1  0
 11 13  1  0
 13 14  1  0
 14 15  1  0
 16 15  1  0
 16 17  1  0
 16 18  1  0
 17 22  1  0
 18 19  1  0
 18 20  1  0
 20 21  1  0
 20 22  1  0
 22 23  1  0
  3 26  1  0
  4 27  1  0
 11 28  1  1
 12 29  1  0
 12 30  1  0
 12 31  1  0
 13 32  1  0
 13 33  1  0
 15 34  1  0
 15 35  1  0
 16 36  1  1
 18 37  1  6
 19 38  1  0
 20 39  1  1
 21 40  1  0
 22 41  1  1
 25 42  1  0
 25 43  1  0
M  CHG  2   8  -1  12   1
M  END
>  <filename_input>  (21) 
7O1T_5X8_docked.sdf

>  <pdb_id>  (21) 
7O1T_5X8

>  <pose_rank>  (21) 
20

>  <num_atoms_heavy>  (21) 
25

>  <num_torsions>  (21) 
6

>  <pose>  (21) 
[-13.764619194822673, 13.374818426359829, -27.667240822797417, 0.35249335051806213, 4.8221781884490325, -0.11301617824984153, -0.8766407939135625, 1.0326910842657449, -1.3335486180972733, 0.7233334753721975, -2.6062775458785397, -4.372506187142617]

>  <energy>  (21) 
-322.2688957737267

>  <inter_energy>  (21) 
-336.97413950395435

>  <intra_energy>  (21) 
15.914404806924585

>  <rmsd>  (21) 
5.47407

>  <sdf_rank>  (21) 
0

$$$$

     RDKit          3D

 43 45  0  0  0  0  0  0  0  0999 V2000
   -4.3817   10.0662  -15.3760 N   0  0  0  0  0  0  0  0  0  0  0  0
   -5.0031   11.8650  -16.7272 C   0  0  0  0  0  0  0  0  0  0  0  0
   -6.1354   13.1274  -18.1116 C   0  0  0  0  0  0  0  0  0  0  0  0
   -5.5307    9.3511  -15.7628 C   0  0  0  0  0  0  0  0  0  0  0  0
   -4.1202   11.3009  -15.8646 C   0  0  0  0  0  0  0  0  0  0  0  0
   -6.4149    9.9591  -16.6591 N   0  0  0  0  0  0  0  0  0  0  0  0
   -6.1223   11.1989  -17.1038 C   0  0  0  0  0  0  0  0  0  0  0  0
  -11.3948    8.4248  -26.6351 O   0  0  0  0  0  0  0  0  0  0  0  0
  -10.4174    9.0577  -26.1949 C   0  0  0  0  0  0  0  0  0  0  0  0
   -9.2449    8.6296  -26.1392 O   0  0  0  0  0  0  0  0  0  0  0  0
  -10.7134   10.4929  -25.6845 C   0  0  1  0  0  0  0  0  0  0  0  0
  -12.1185   10.5870  -25.3064 N   0  0  0  0  0  0  0  0  0  0  0  0
   -9.8065   10.8778  -24.4734 C   0  0  0  0  0  0  0  0  0  0  0  0
  -10.4249   10.0749  -22.9155 S   0  0  0  0  0  0  0  0  0  0  0  0
   -8.8995   10.3432  -21.9072 C   0  0  0  0  0  0  0  0  0  0  0  0
   -9.0868   10.9827  -20.4838 C   0  0  1  0  0  0  0  0  0  0  0  0
   -7.8924   10.8378  -19.6814 O   0  0  0  0  0  0  0  0  0  0  0  0
   -9.3092   12.4852  -20.4320 C   0  0  1  0  0  0  0  0  0  0  0  0
  -10.6757   12.8265  -20.7246 O   0  0  0  0  0  0  0  0  0  0  0  0
   -8.9591   12.7540  -18.9458 C   0  0  1  0  0  0  0  0  0  0  0  0
  -10.1412   12.9353  -18.1114 O   0  0  0  0  0  0  0  0  0  0  0  0
   -8.1373   11.5084  -18.4743 C   0  0  2  0  0  0  0  0  0  0  0  0
   -6.8140   11.9711  -17.9321 N   0  0  0  0  0  0  0  0  0  0  0  0
   -5.0276   13.0535  -17.3703 N   0  0  0  0  0  0  0  0  0  0  0  0
   -2.9871   11.9856  -15.4907 N   0  0  0  0  0  0  0  0  0  0  0  0
   -6.4395   13.9707  -18.7490 H   0  0  0  0  0  0  0  0  0  0  0  0
   -5.7275    8.3422  -15.3710 H   0  0  0  0  0  0  0  0  0  0  0  0
  -10.4924   11.1998  -26.4977 H   0  0  0  0  0  0  0  0  0  0  0  0
  -12.1981   10.5923  -24.2795 H   0  0  0  0  0  0  0  0  0  0  0  0
  -12.5188   11.4566  -25.6863 H   0  0  0  0  0  0  0  0  0  0  0  0
  -12.6312    9.7784  -25.6863 H   0  0  0  0  0  0  0  0  0  0  0  0
   -8.7778   10.5414  -24.6702 H   0  0  0  0  0  0  0  0  0  0  0  0
   -9.8303   11.9699  -24.3443 H   0  0  0  0  0  0  0  0  0  0  0  0
   -8.4163    9.3646  -21.7701 H   0  0  0  0  0  0  0  0  0  0  0  0
   -8.3085   11.0776  -22.4742 H   0  0  0  0  0  0  0  0  0  0  0  0
   -9.9787   10.4448  -20.1301 H   0  0  0  0  0  0  0  0  0  0  0  0
   -8.7262   13.0686  -21.1598 H   0  0  0  0  0  0  0  0  0  0  0  0
  -11.1733   12.9508  -19.8779 H   0  0  0  0  0  0  0  0  0  0  0  0
   -8.3916   13.6915  -18.8514 H   0  0  0  0  0  0  0  0  0  0  0  0
   -9.8808   12.8953  -17.1571 H   0  0  0  0  0  0  0  0  0  0  0  0
   -8.6458   10.9081  -17.7055 H   0  0  0  0  0  0  0  0  0  0  0  0
   -2.8035   12.9246  -15.8721 H   0  0  0  0  0  0  0  0  0  0  0  0
   -2.3225   11.5593  -14.8294 H   0  0  0  0  0  0  0  0  0  0  0  0
  1  4  2  0
  1  5  1  0
  2  5  2  0
  2  7  1  0
  2 24  1  0
  3 23  1  0
  3 24  2  0
  4  6  1  0
  5 25  1  0
  6  7  2  0
  7 23  1  0
  8  9  1  0
  9 10  2  0
  9 11  1  0
 11 12  1  0
 11 13  1  0
 13 14  1  0
 14 15  1  0
 16 15  1  0
 16 17  1  0
 16 18  1  0
 17 22  1  0
 18 19  1  0
 18 20  1  0
 20 21  1  0
 20 22  1  0
 22 23  1  0
  3 26  1  0
  4 27  1  0
 11 28  1  6
 12 29  1  0
 12 30  1  0
 12 31  1  0
 13 32  1  0
 13 33  1  0
 15 34  1  0
 15 35  1  0
 16 36  1  1
 18 37  1  6
 19 38  1  0
 20 39  1  6
 21 40  1  0
 22 41  1  1
 25 42  1  0
 25 43  1  0
M  CHG  2   8  -1  12   1
M  END
>  <filename_input>  (22) 
7O1T_5X8_docked.sdf

>  <pdb_id>  (22) 
7O1T_5X8

>  <pose_rank>  (22) 
21

>  <num_atoms_heavy>  (22) 
25

>  <num_torsions>  (22) 
6

>  <pose>  (22) 
[-9.086755617426917, 10.982670552037753, -20.483843460911643, -0.6287768683608623, 3.1883114546229017, -2.5504746991490244, 0.8151462161370313, -2.152728155378274, -1.5422984771982566, 0.45212732660405025, -0.2907453637154421, -2.3252045421858263]

>  <energy>  (22) 
-188.30856734966457

>  <inter_energy>  (22) 
-189.35177240775735

>  <intra_energy>  (22) 
0.9221770309371545

>  <rmsd>  (22) 
9.52157

>  <sdf_rank>  (22) 
0

$$$$

     RDKit          3D

 43 45  0  0  0  0  0  0  0  0999 V2000
   -5.0129   11.3435  -32.6512 N   0  0  0  0  0  0  0  0  0  0  0  0
   -6.3819   13.1832  -33.0857 C   0  0  0  0  0  0  0  0  0  0  0  0
   -7.2553   15.1884  -32.9941 C   0  0  0  0  0  0  0  0  0  0  0  0
   -4.3282   12.0618  -31.6529 C   0  0  0  0  0  0  0  0  0  0  0  0
   -6.0333   11.8976  -33.3463 C   0  0  0  0  0  0  0  0  0  0  0  0
   -4.7185   13.3812  -31.4052 N   0  0  0  0  0  0  0  0  0  0  0  0
   -5.7279   13.8973  -32.1368 C   0  0  0  0  0  0  0  0  0  0  0  0
   -8.9950   21.7940  -34.2059 O   0  0  0  0  0  0  0  0  0  0  0  0
   -8.6975   22.5952  -33.3009 C   0  0  0  0  0  0  0  0  0  0  0  0
   -9.4338   23.5109  -32.8756 O   0  0  0  0  0  0  0  0  0  0  0  0
   -7.2922   22.4127  -32.6688 C   0  0  1  0  0  0  0  0  0  0  0  0
   -6.4330   23.5153  -33.0836 N   0  0  0  0  0  0  0  0  0  0  0  0
   -7.3600   22.3441  -31.1105 C   0  0  0  0  0  0  0  0  0  0  0  0
   -5.9797   21.2929  -30.4442 S   0  0  0  0  0  0  0  0  0  0  0  0
   -6.7947   19.6570  -30.7182 C   0  0  0  0  0  0  0  0  0  0  0  0
   -5.8627   18.3923  -30.7604 C   0  0  1  0  0  0  0  0  0  0  0  0
   -6.6147   17.1954  -31.0664 O   0  0  0  0  0  0  0  0  0  0  0  0
   -4.7933   18.3654  -31.8400 C   0  0  1  0  0  0  0  0  0  0  0  0
   -3.6477   19.1515  -31.4672 O   0  0  0  0  0  0  0  0  0  0  0  0
   -4.4666   16.8499  -31.8519 C   0  0  1  0  0  0  0  0  0  0  0  0
   -3.2269   16.5342  -31.1519 O   0  0  0  0  0  0  0  0  0  0  0  0
   -5.6837   16.1507  -31.1599 C   0  0  2  0  0  0  0  0  0  0  0  0
   -6.2498   15.1165  -32.0923 N   0  0  0  0  0  0  0  0  0  0  0  0
   -7.3294   13.9999  -33.5975 N   0  0  0  0  0  0  0  0  0  0  0  0
   -6.7050   11.1823  -34.3103 N   0  0  0  0  0  0  0  0  0  0  0  0
   -7.8928   16.0625  -33.1930 H   0  0  0  0  0  0  0  0  0  0  0  0
   -3.5091   11.5980  -31.0837 H   0  0  0  0  0  0  0  0  0  0  0  0
   -6.8778   21.4567  -33.0216 H   0  0  0  0  0  0  0  0  0  0  0  0
   -6.0609   23.9928  -32.2503 H   0  0  0  0  0  0  0  0  0  0  0  0
   -5.6522   23.1491  -33.6468 H   0  0  0  0  0  0  0  0  0  0  0  0
   -6.9790   24.1829  -33.6468 H   0  0  0  0  0  0  0  0  0  0  0  0
   -7.2718   23.3605  -30.6993 H   0  0  0  0  0  0  0  0  0  0  0  0
   -8.3212   21.8977  -30.8157 H   0  0  0  0  0  0  0  0  0  0  0  0
   -7.5199   19.5075  -29.9048 H   0  0  0  0  0  0  0  0  0  0  0  0
   -7.2329   19.7220  -31.7251 H   0  0  0  0  0  0  0  0  0  0  0  0
   -5.4057   18.4375  -29.7609 H   0  0  0  0  0  0  0  0  0  0  0  0
   -5.0995   18.7826  -32.8106 H   0  0  0  0  0  0  0  0  0  0  0  0
   -3.5843   19.1950  -30.4802 H   0  0  0  0  0  0  0  0  0  0  0  0
   -4.3132   16.5011  -32.8838 H   0  0  0  0  0  0  0  0  0  0  0  0
   -3.3805   16.5733  -30.1747 H   0  0  0  0  0  0  0  0  0  0  0  0
   -5.4318   15.6675  -30.2043 H   0  0  0  0  0  0  0  0  0  0  0  0
   -7.4795   11.6195  -34.8300 H   0  0  0  0  0  0  0  0  0  0  0  0
   -6.4336   10.2095  -34.5125 H   0  0  0  0  0  0  0  0  0  0  0  0
  1  4  2  0
  1  5  1  0
  2  5  2  0
  2  7  1  0
  2 24  1  0
  3 23  1  0
  3 24  2  0
  4  6  1  0
  5 25  1  0
  6  7  2  0
  7 23  1  0
  8  9  1  0
  9 10  2  0
  9 11  1  0
 11 12  1  0
 11 13  1  0
 13 14  1  0
 14 15  1  0
 16 15  1  0
 16 17  1  0
 16 18  1  0
 17 22  1  0
 18 19  1  0
 18 20  1  0
 20 21  1  0
 20 22  1  0
 22 23  1  0
  3 26  1  0
  4 27  1  0
 11 28  1  6
 12 29  1  0
 12 30  1  0
 12 31  1  0
 13 32  1  0
 13 33  1  0
 15 34  1  0
 15 35  1  0
 16 36  1  1
 18 37  1  6
 19 38  1  0
 20 39  1  6
 21 40  1  0
 22 41  1  1
 25 42  1  0
 25 43  1  0
M  CHG  2   8  -1  12   1
M  END
>  <filename_input>  (23) 
7O1T_5X8_docked.sdf

>  <pdb_id>  (23) 
7O1T_5X8

>  <pose_rank>  (23) 
22

>  <num_atoms_heavy>  (23) 
25

>  <num_torsions>  (23) 
6

>  <pose>  (23) 
[-5.862739665402372, 18.392256245435647, -30.760448560203564, -0.1530814167319991, -0.1785894561722423, -0.5953260971015081, -0.47592044484603546, -1.8411159544399833, 5.266009415959344, 2.4341031875008525, 3.681197870829131, -0.8421695291884391]

>  <energy>  (23) 
-182.35898790993315

>  <inter_energy>  (23) 
-185.7766674918878

>  <intra_energy>  (23) 
5.294149774784319

>  <rmsd>  (23) 
10.7607

>  <sdf_rank>  (23) 
0

$$$$

     RDKit          3D

 43 45  0  0  0  0  0  0  0  0999 V2000
  -15.7911   18.3086  -15.4159 N   0  0  0  0  0  0  0  0  0  0  0  0
  -14.8171   16.3890  -16.3183 C   0  0  0  0  0  0  0  0  0  0  0  0
  -13.3262   14.8973  -16.9050 C   0  0  0  0  0  0  0  0  0  0  0  0
  -14.5305   18.7803  -15.0039 C   0  0  0  0  0  0  0  0  0  0  0  0
  -15.9250   17.1341  -16.0749 C   0  0  0  0  0  0  0  0  0  0  0  0
  -13.4095   17.9910  -15.2778 N   0  0  0  0  0  0  0  0  0  0  0  0
  -13.5946   16.8187  -15.9196 C   0  0  0  0  0  0  0  0  0  0  0  0
   -7.5014   22.7572  -19.2650 O   0  0  0  0  0  0  0  0  0  0  0  0
   -6.9288   21.7733  -19.7686 C   0  0  0  0  0  0  0  0  0  0  0  0
   -6.9585   21.4607  -20.9780 O   0  0  0  0  0  0  0  0  0  0  0  0
   -6.1187   20.8850  -18.7875 C   0  0  1  0  0  0  0  0  0  0  0  0
   -6.2519   21.4179  -17.4368 N   0  0  0  0  0  0  0  0  0  0  0  0
   -6.5910   19.3974  -18.8248 C   0  0  0  0  0  0  0  0  0  0  0  0
   -7.0304   18.8106  -17.1169 S   0  0  0  0  0  0  0  0  0  0  0  0
   -8.7884   18.3705  -17.4791 C   0  0  0  0  0  0  0  0  0  0  0  0
   -9.3851   17.1293  -16.7219 C   0  0  1  0  0  0  0  0  0  0  0  0
  -10.8066   17.2806  -16.5034 O   0  0  0  0  0  0  0  0  0  0  0  0
   -9.3277   15.7936  -17.4447 C   0  0  1  0  0  0  0  0  0  0  0  0
   -8.0269   15.1893  -17.3340 O   0  0  0  0  0  0  0  0  0  0  0  0
  -10.3928   15.0087  -16.6365 C   0  0  1  0  0  0  0  0  0  0  0  0
   -9.8033   14.0818  -15.6773 O   0  0  0  0  0  0  0  0  0  0  0  0
  -11.2476   16.0936  -15.9007 C   0  0  2  0  0  0  0  0  0  0  0  0
  -12.6942   15.9068  -16.2640 N   0  0  0  0  0  0  0  0  0  0  0  0
  -14.6258   15.2012  -16.9340 N   0  0  0  0  0  0  0  0  0  0  0  0
  -17.1601   16.6888  -16.4855 N   0  0  0  0  0  0  0  0  0  0  0  0
  -12.8572   13.9948  -17.3240 H   0  0  0  0  0  0  0  0  0  0  0  0
  -14.4302   19.7429  -14.4811 H   0  0  0  0  0  0  0  0  0  0  0  0
   -5.0638   20.9023  -19.0987 H   0  0  0  0  0  0  0  0  0  0  0  0
   -6.0651   20.6707  -16.7529 H   0  0  0  0  0  0  0  0  0  0  0  0
   -5.5764   22.1837  -17.3017 H   0  0  0  0  0  0  0  0  0  0  0  0
   -7.2082   21.7759  -17.3017 H   0  0  0  0  0  0  0  0  0  0  0  0
   -7.4747   19.3144  -19.4745 H   0  0  0  0  0  0  0  0  0  0  0  0
   -5.7730   18.7743  -19.2154 H   0  0  0  0  0  0  0  0  0  0  0  0
   -9.4078   19.2432  -17.2249 H   0  0  0  0  0  0  0  0  0  0  0  0
   -8.7982   18.0877  -18.5421 H   0  0  0  0  0  0  0  0  0  0  0  0
   -8.7535   17.1119  -15.8215 H   0  0  0  0  0  0  0  0  0  0  0  0
   -9.5088   15.8414  -18.5287 H   0  0  0  0  0  0  0  0  0  0  0  0
   -7.7937   15.0810  -16.3779 H   0  0  0  0  0  0  0  0  0  0  0  0
  -10.9974   14.3831  -17.3095 H   0  0  0  0  0  0  0  0  0  0  0  0
   -9.9994   14.3901  -14.7572 H   0  0  0  0  0  0  0  0  0  0  0  0
  -11.1501   16.0658  -14.8054 H   0  0  0  0  0  0  0  0  0  0  0  0
  -17.2442   15.7925  -16.9860 H   0  0  0  0  0  0  0  0  0  0  0  0
  -18.0009   17.2516  -16.2924 H   0  0  0  0  0  0  0  0  0  0  0  0
  1  4  2  0
  1  5  1  0
  2  5  2  0
  2  7  1  0
  2 24  1  0
  3 23  1  0
  3 24  2  0
  4  6  1  0
  5 25  1  0
  6  7  2  0
  7 23  1  0
  8  9  1  0
  9 10  2  0
  9 11  1  0
 11 12  1  0
 11 13  1  0
 13 14  1  0
 14 15  1  0
 16 15  1  0
 16 17  1  0
 16 18  1  0
 17 22  1  0
 18 19  1  0
 18 20  1  0
 20 21  1  0
 20 22  1  0
 22 23  1  0
  3 26  1  0
  4 27  1  0
 11 28  1  6
 12 29  1  0
 12 30  1  0
 12 31  1  0
 13 32  1  0
 13 33  1  0
 15 34  1  0
 15 35  1  0
 16 36  1  1
 18 37  1  6
 19 38  1  0
 20 39  1  6
 21 40  1  0
 22 41  1  1
 25 42  1  0
 25 43  1  0
M  CHG  2   8  -1  12   1
M  END
>  <filename_input>  (24) 
7O1T_5X8_docked.sdf

>  <pdb_id>  (24) 
7O1T_5X8

>  <pose_rank>  (24) 
23

>  <num_atoms_heavy>  (24) 
25

>  <num_torsions>  (24) 
6

>  <pose>  (24) 
[-9.385093436797627, 17.129265897459845, -16.72191908621755, -0.8792823226674046, -0.10951455007851227, -1.6125223431631424, -4.928193053357415, -2.4376564896428907, -1.2747382437643984, -0.3108662854374148, -1.1359881311691444, -2.7196930899372402]

>  <energy>  (24) 
-192.01450171289414

>  <inter_energy>  (24) 
-194.72562934206826

>  <intra_energy>  (24) 
8.638086994535449

>  <rmsd>  (24) 
11.4513

>  <sdf_rank>  (24) 
0

$$$$

     RDKit          3D

 43 45  0  0  0  0  0  0  0  0999 V2000
  -16.2316   15.7057  -15.7900 N   0  0  0  0  0  0  0  0  0  0  0  0
  -18.2969   14.6336  -15.9713 C   0  0  0  0  0  0  0  0  0  0  0  0
  -19.8225   13.1297  -16.4215 C   0  0  0  0  0  0  0  0  0  0  0  0
  -15.5880   14.6168  -16.4076 C   0  0  0  0  0  0  0  0  0  0  0  0
  -17.5698   15.7139  -15.5886 C   0  0  0  0  0  0  0  0  0  0  0  0
  -16.3685   13.5239  -16.7962 N   0  0  0  0  0  0  0  0  0  0  0  0
  -17.6957   13.5689  -16.5570 C   0  0  0  0  0  0  0  0  0  0  0  0
  -17.8089    3.9049  -20.0722 O   0  0  0  0  0  0  0  0  0  0  0  0
  -18.5543    4.3683  -20.9549 C   0  0  0  0  0  0  0  0  0  0  0  0
  -19.0178    3.7248  -21.9205 O   0  0  0  0  0  0  0  0  0  0  0  0
  -18.9206    5.8695  -20.8133 C   0  0  1  0  0  0  0  0  0  0  0  0
  -19.8257    6.2461  -21.8927 N   0  0  0  0  0  0  0  0  0  0  0  0
  -19.5775    6.1799  -19.4314 C   0  0  0  0  0  0  0  0  0  0  0  0
  -20.6609    7.6854  -19.5486 S   0  0  0  0  0  0  0  0  0  0  0  0
  -20.3445    8.3198  -17.8419 C   0  0  0  0  0  0  0  0  0  0  0  0
  -19.0737    9.2218  -17.6388 C   0  0  1  0  0  0  0  0  0  0  0  0
  -19.4117   10.6267  -17.6972 O   0  0  0  0  0  0  0  0  0  0  0  0
  -18.3776    9.1309  -16.2908 C   0  0  1  0  0  0  0  0  0  0  0  0
  -17.5242    7.9754  -16.2147 O   0  0  0  0  0  0  0  0  0  0  0  0
  -17.5569   10.4457  -16.3269 C   0  0  1  0  0  0  0  0  0  0  0  0
  -16.1498   10.2242  -16.6391 O   0  0  0  0  0  0  0  0  0  0  0  0
  -18.2318   11.3340  -17.4244 C   0  0  2  0  0  0  0  0  0  0  0  0
  -18.6200   12.6529  -16.8167 N   0  0  0  0  0  0  0  0  0  0  0  0
  -19.6151   14.3433  -15.9054 N   0  0  0  0  0  0  0  0  0  0  0  0
  -18.1909   16.7891  -14.9966 N   0  0  0  0  0  0  0  0  0  0  0  0
  -20.7902   12.6140  -16.5090 H   0  0  0  0  0  0  0  0  0  0  0  0
  -14.5016   14.6255  -16.5795 H   0  0  0  0  0  0  0  0  0  0  0  0
  -17.9929    6.4574  -20.8751 H   0  0  0  0  0  0  0  0  0  0  0  0
  -20.7025    6.6109  -21.4939 H   0  0  0  0  0  0  0  0  0  0  0  0
  -19.3839    6.9732  -22.4733 H   0  0  0  0  0  0  0  0  0  0  0  0
  -20.0300    5.4202  -22.4733 H   0  0  0  0  0  0  0  0  0  0  0  0
  -20.1867    5.3190  -19.1187 H   0  0  0  0  0  0  0  0  0  0  0  0
  -18.7830    6.3700  -18.6947 H   0  0  0  0  0  0  0  0  0  0  0  0
  -21.2220    8.9102  -17.5396 H   0  0  0  0  0  0  0  0  0  0  0  0
  -20.1570    7.4221  -17.2344 H   0  0  0  0  0  0  0  0  0  0  0  0
  -18.4210    8.8448  -18.4399 H   0  0  0  0  0  0  0  0  0  0  0  0
  -19.0485    9.0252  -15.4255 H   0  0  0  0  0  0  0  0  0  0  0  0
  -17.3578    7.7500  -15.2652 H   0  0  0  0  0  0  0  0  0  0  0  0
  -17.5617   10.9254  -15.3370 H   0  0  0  0  0  0  0  0  0  0  0  0
  -15.6339   10.1430  -15.7980 H   0  0  0  0  0  0  0  0  0  0  0  0
  -17.5907   11.5207  -18.2985 H   0  0  0  0  0  0  0  0  0  0  0  0
  -19.2104   16.7788  -14.8508 H   0  0  0  0  0  0  0  0  0  0  0  0
  -17.6363   17.6045  -14.6991 H   0  0  0  0  0  0  0  0  0  0  0  0
  1  4  2  0
  1  5  1  0
  2  5  2  0
  2  7  1  0
  2 24  1  0
  3 23  1  0
  3 24  2  0
  4  6  1  0
  5 25  1  0
  6  7  2  0
  7 23  1  0
  8  9  1  0
  9 10  2  0
  9 11  1  0
 11 12  1  0
 11 13  1  0
 13 14  1  0
 14 15  1  0
 16 15  1  0
 16 17  1  0
 16 18  1  0
 17 22  1  0
 18 19  1  0
 18 20  1  0
 20 21  1  0
 20 22  1  0
 22 23  1  0
  3 26  1  0
  4 27  1  0
 11 28  1  6
 12 29  1  0
 12 30  1  0
 12 31  1  0
 13 32  1  0
 13 33  1  0
 15 34  1  0
 15 35  1  0
 16 36  1  6
 18 37  1  1
 19 38  1  0
 20 39  1  1
 21 40  1  0
 22 41  1  6
 25 42  1  0
 25 43  1  0
M  CHG  2   8  -1  12   1
M  END
>  <filename_input>  (25) 
7O1T_5X8_docked.sdf

>  <pdb_id>  (25) 
7O1T_5X8

>  <pose_rank>  (25) 
24

>  <num_atoms_heavy>  (25) 
25

>  <num_torsions>  (25) 
6

>  <pose>  (25) 
[-19.073656017156726, 9.221831119558319, -17.638792419872328, 2.778259133428701, 0.30367103314154126, 0.050186562308937754, 5.6382616246501, 2.9160688344055026, -2.318964906509013, -4.9703364699532075, 4.644094587329102, 0.4267757693291721]

>  <energy>  (25) 
-166.37265940403645

>  <inter_energy>  (25) 
-169.16550287588453

>  <intra_energy>  (25) 
5.11944817613941

>  <rmsd>  (25) 
12.402

>  <sdf_rank>  (25) 
0

$$$$

     RDKit          3D

 43 45  0  0  0  0  0  0  0  0999 V2000
   -9.7000    8.2590  -25.7220 N   0  0  0  0  0  0  0  0  0  0  0  0
  -11.4460    9.6780  -26.3430 C   0  0  0  0  0  0  0  0  0  0  0  0
  -12.8530   11.3550  -26.3570 C   0  0  0  0  0  0  0  0  0  0  0  0
   -9.4130    9.0660  -24.6050 C   0  0  0  0  0  0  0  0  0  0  0  0
  -10.7120    8.5590  -26.5690 C   0  0  0  0  0  0  0  0  0  0  0  0
  -10.1940   10.2070  -24.3980 N   0  0  0  0  0  0  0  0  0  0  0  0
  -11.1790   10.4760  -25.2800 C   0  0  0  0  0  0  0  0  0  0  0  0
  -14.9350   18.9030  -24.9380 O   0  0  0  0  0  0  0  0  0  0  0  0
  -15.6000   18.0330  -25.5300 C   0  0  0  0  0  0  0  0  0  0  0  0
  -15.2890   17.5010  -26.6170 O   0  0  0  0  0  0  0  0  0  0  0  0
  -16.9150   17.5940  -24.8330 C   0  0  1  0  0  0  0  0  0  0  0  0
  -17.8180   17.0260  -25.8270 N   0  0  0  0  0  0  0  0  0  0  0  0
  -16.6520   16.5580  -23.6950 C   0  0  0  0  0  0  0  0  0  0  0  0
  -15.8560   15.0250  -24.3810 S   0  0  0  0  0  0  0  0  0  0  0  0
  -14.6400   14.7750  -23.0120 C   0  0  0  0  0  0  0  0  0  0  0  0
  -13.2050   14.2750  -23.4130 C   0  0  1  0  0  0  0  0  0  0  0  0
  -13.2320   12.8970  -23.8510 O   0  0  0  0  0  0  0  0  0  0  0  0
  -12.5480   14.9600  -24.6000 C   0  0  1  0  0  0  0  0  0  0  0  0
  -11.9640   16.2200  -24.2250 O   0  0  0  0  0  0  0  0  0  0  0  0
  -11.4630   13.9080  -24.9460 C   0  0  1  0  0  0  0  0  0  0  0  0
  -10.1360   14.2910  -24.4780 O   0  0  0  0  0  0  0  0  0  0  0  0
  -11.9280   12.5810  -24.2590 C   0  0  2  0  0  0  0  0  0  0  0  0
  -12.0240   11.4990  -25.2980 N   0  0  0  0  0  0  0  0  0  0  0  0
  -12.4920   10.2370  -26.9910 N   0  0  0  0  0  0  0  0  0  0  0  0
  -10.9930    7.7560  -27.6500 N   0  0  0  0  0  0  0  0  0  0  0  0
  -13.6714   12.0323  -26.6424 H   0  0  0  0  0  0  0  0  0  0  0  0
   -8.5972    8.8062  -23.9144 H   0  0  0  0  0  0  0  0  0  0  0  0
  -17.3718   18.4811  -24.3700 H   0  0  0  0  0  0  0  0  0  0  0  0
  -18.5910   16.5398  -25.3506 H   0  0  0  0  0  0  0  0  0  0  0  0
  -18.1982   17.7804  -26.4163 H   0  0  0  0  0  0  0  0  0  0  0  0
  -17.3027   16.3566  -26.4163 H   0  0  0  0  0  0  0  0  0  0  0  0
  -15.9854   17.0068  -22.9439 H   0  0  0  0  0  0  0  0  0  0  0  0
  -17.6127   16.2842  -23.2344 H   0  0  0  0  0  0  0  0  0  0  0  0
  -14.5227   15.7376  -22.4928 H   0  0  0  0  0  0  0  0  0  0  0  0
  -15.0631   13.9654  -22.3992 H   0  0  0  0  0  0  0  0  0  0  0  0
  -12.6472   14.4805  -22.4875 H   0  0  0  0  0  0  0  0  0  0  0  0
  -13.2278   15.2157  -25.4261 H   0  0  0  0  0  0  0  0  0  0  0  0
  -11.9324   16.2883  -23.2379 H   0  0  0  0  0  0  0  0  0  0  0  0
  -11.3665   13.8045  -26.0369 H   0  0  0  0  0  0  0  0  0  0  0  0
  -10.1235   14.2946  -23.4881 H   0  0  0  0  0  0  0  0  0  0  0  0
  -11.2597   12.2419  -23.4538 H   0  0  0  0  0  0  0  0  0  0  0  0
  -11.7669    7.9991  -28.2847 H   0  0  0  0  0  0  0  0  0  0  0  0
  -10.4295    6.9117  -27.8247 H   0  0  0  0  0  0  0  0  0  0  0  0
  1  4  2  0
  1  5  1  0
  2  5  2  0
  2  7  1  0
  2 24  1  0
  3 23  1  0
  3 24  2  0
  4  6  1  0
  5 25  1  0
  6  7  2  0
  7 23  1  0
  8  9  1  0
  9 10  2  0
  9 11  1  0
 11 12  1  0
 11 13  1  0
 13 14  1  0
 14 15  1  0
 16 15  1  0
 16 17  1  0
 16 18  1  0
 17 22  1  0
 18 19  1  0
 18 20  1  0
 20 21  1  0
 20 22  1  0
 22 23  1  0
  3 26  1  0
  4 27  1  0
 11 28  1  1
 12 29  1  0
 12 30  1  0
 12 31  1  0
 13 32  1  0
 13 33  1  0
 15 34  1  0
 15 35  1  0
 16 36  1  1
 18 37  1  6
 19 38  1  0
 20 39  1  6
 21 40  1  0
 22 41  1  1
 25 42  1  0
 25 43  1  0
M  CHG  2   8  -1  12   1
M  END
>  <filename_input>  (26) 
7O1T_5X8_docked.sdf

>  <pdb_id>  (26) 
7O1T_5X8

>  <pose_rank>  (26) 
25

>  <num_atoms_heavy>  (26) 
25

>  <num_torsions>  (26) 
6

>  <pose>  (26) 
[-13.205, 14.275, -23.413, 1e-06, 1e-06, 1e-06, 0.0, 0.0, 0.0, 0.0, 0.0, 0.0]

>  <energy>  (26) 
-1112.7806463105433

>  <inter_energy>  (26) 
-1130.9249150818423

>  <intra_energy>  (26) 
2.9948257974332786

>  <rmsd>  (26) 
0.0

>  <sdf_rank>  (26) 
0

$$$$
