
     RDKit          3D

 39 41  0  0  0  0  0  0  0  0999 V2000
    2.6703   -5.0175  -35.0234 O   0  0  0  0  0  0  0  0  0  0  0  0
    3.0710   -5.2304  -33.6063 P   0  0  1  0  0  0  0  0  0  0  0  0
    2.1657   -6.1367  -32.8259 O   0  0  0  0  0  0  0  0  0  0  0  0
    4.4831   -5.8006  -33.4578 O   0  0  0  0  0  0  0  0  0  0  0  0
    2.9996   -3.8082  -32.8695 O   0  0  0  0  0  0  0  0  0  0  0  0
    2.3008   -3.1406  -31.6015 P   0  0  2  0  0  0  0  0  0  0  0  0
    2.3911   -4.3411  -30.7529 O   0  0  0  0  0  0  0  0  0  0  0  0
    1.0103   -2.7579  -32.2485 O   0  0  0  0  0  0  0  0  0  0  0  0
    3.4759   -2.1260  -31.6844 O   0  0  0  0  0  0  0  0  0  0  0  0
    4.6185   -2.1141  -30.7990 C   0  0  0  0  0  0  0  0  0  0  0  0
    5.2172   -0.7348  -30.7064 C   0  0  1  0  0  0  0  0  0  0  0  0
    4.2383    0.1755  -30.1562 O   0  0  0  0  0  0  0  0  0  0  0  0
    6.4518   -0.6563  -29.8055 C   0  0  1  0  0  0  0  0  0  0  0  0
    7.4821    0.1280  -30.4077 O   0  0  0  0  0  0  0  0  0  0  0  0
    5.9370    0.0388  -28.5525 C   0  0  0  0  0  0  0  0  0  0  0  0
    4.7997    0.8959  -29.0810 C   0  0  2  0  0  0  0  0  0  0  0  0
    3.7368    1.1229  -28.0918 N   0  0  0  0  0  0  0  0  0  0  0  0
    2.4520    0.6544  -28.1043 C   0  0  0  0  0  0  0  0  0  0  0  0
    1.7560    1.0227  -27.0522 N   0  0  0  0  0  0  0  0  0  0  0  0
    2.6422    1.7856  -26.3081 C   0  0  0  0  0  0  0  0  0  0  0  0
    3.8668    1.8485  -26.9378 C   0  0  0  0  0  0  0  0  0  0  0  0
    4.9870    2.4591  -26.5196 N   0  0  0  0  0  0  0  0  0  0  0  0
    4.8345    3.0564  -25.3450 C   0  0  0  0  0  0  0  0  0  0  0  0
    5.8808    3.6461  -24.7653 N   0  0  0  0  0  0  0  0  0  0  0  0
    3.6518    3.0629  -24.6526 N   0  0  0  0  0  0  0  0  0  0  0  0
    2.4832    2.4570  -25.0646 C   0  0  0  0  0  0  0  0  0  0  0  0
    1.4537    2.5488  -24.3948 O   0  0  0  0  0  0  0  0  0  0  0  0
    4.2998   -2.4357  -29.7965 H   0  0  0  0  0  0  0  0  0  0  0  0
    5.3794   -2.7995  -31.2006 H   0  0  0  0  0  0  0  0  0  0  0  0
    5.5195   -0.4701  -31.7304 H   0  0  0  0  0  0  0  0  0  0  0  0
    6.8907   -1.6461  -29.6111 H   0  0  0  0  0  0  0  0  0  0  0  0
    8.0334    0.5476  -29.7006 H   0  0  0  0  0  0  0  0  0  0  0  0
    5.5720   -0.6925  -27.8163 H   0  0  0  0  0  0  0  0  0  0  0  0
    6.7111    0.6196  -28.0296 H   0  0  0  0  0  0  0  0  0  0  0  0
    5.1991    1.8826  -29.3584 H   0  0  0  0  0  0  0  0  0  0  0  0
    2.0424    0.0320  -28.9136 H   0  0  0  0  0  0  0  0  0  0  0  0
    5.7696    4.1117  -23.8533 H   0  0  0  0  0  0  0  0  0  0  0  0
    6.8002    3.6359  -25.2296 H   0  0  0  0  0  0  0  0  0  0  0  0
    3.6342    3.5608  -23.7511 H   0  0  0  0  0  0  0  0  0  0  0  0
  1  2  2  0
  2  3  1  1
  2  4  1  0
  2  5  1  0
  5  6  1  0
  6  7  2  0
  6  8  1  6
  6  9  1  0
  9 10  1  0
 11 10  1  0
 11 12  1  0
 11 13  1  0
 12 16  1  0
 13 14  1  0
 13 15  1  0
 15 16  1  0
 16 17  1  0
 17 18  1  0
 17 21  1  0
 18 19  2  0
 19 20  1  0
 20 21  2  0
 20 26  1  0
 21 22  1  0
 22 23  2  0
 23 24  1  0
 23 25  1  0
 25 26  1  0
 26 27  2  0
 10 28  1  0
 10 29  1  0
 11 30  1  6
 13 31  1  1
 14 32  1  0
 15 33  1  0
 15 34  1  0
 16 35  1  6
 18 36  1  0
 24 37  1  0
 24 38  1  0
 25 39  1  0
M  CHG  3   3  -1   4  -1   8  -1
M  END
>  <filename_input>  (1) 
7ODY_DGI_docked.sdf

>  <pdb_id>  (1) 
7ODY_DGI

>  <pose_rank>  (1) 
0

>  <num_atoms_heavy>  (1) 
27

>  <num_torsions>  (1) 
6

>  <pose>  (1) 
[5.2172394644669815, -0.734771669302191, -30.70637525349651, 0.028767496576200532, -0.1462624976411276, 0.01976157745574654, 0.0029925774112665284, 6.113549246265002, 0.033941451001816586, 0.08295145362103715, 1.63777436964081, 1.660824902108443]

>  <energy>  (1) 
-1075.3484604412383

>  <inter_energy>  (1) 
-1091.4959276772286

>  <intra_energy>  (1) 
17.3929325017462

>  <rmsd>  (1) 
0.81928

>  <sdf_rank>  (1) 
0

$$$$

     RDKit          3D

 39 41  0  0  0  0  0  0  0  0999 V2000
    0.6093   -3.8774  -30.0544 O   0  0  0  0  0  0  0  0  0  0  0  0
    0.9028   -3.8984  -31.5130 P   0  0  1  0  0  0  0  0  0  0  0  0
    0.0678   -4.8571  -32.3090 O   0  0  0  0  0  0  0  0  0  0  0  0
    0.7424   -2.5309  -32.1804 O   0  0  0  0  0  0  0  0  0  0  0  0
    2.4175   -4.3936  -31.6897 O   0  0  0  0  0  0  0  0  0  0  0  0
    3.6800   -4.1049  -32.6193 P   0  0  2  0  0  0  0  0  0  0  0  0
    2.9791   -4.3820  -33.8847 O   0  0  0  0  0  0  0  0  0  0  0  0
    4.6128   -5.1096  -32.0269 O   0  0  0  0  0  0  0  0  0  0  0  0
    3.6374   -2.6926  -31.9708 O   0  0  0  0  0  0  0  0  0  0  0  0
    4.2188   -2.3554  -30.6909 C   0  0  0  0  0  0  0  0  0  0  0  0
    4.8499   -0.9879  -30.7264 C   0  0  1  0  0  0  0  0  0  0  0  0
    3.9764   -0.0410  -30.0706 O   0  0  0  0  0  0  0  0  0  0  0  0
    6.2016   -0.9126  -30.0129 C   0  0  1  0  0  0  0  0  0  0  0  0
    7.1497   -0.1686  -30.7791 O   0  0  0  0  0  0  0  0  0  0  0  0
    5.8839   -0.1719  -28.7212 C   0  0  0  0  0  0  0  0  0  0  0  0
    4.6988    0.6958  -29.1085 C   0  0  2  0  0  0  0  0  0  0  0  0
    3.7923    0.9739  -27.9856 N   0  0  0  0  0  0  0  0  0  0  0  0
    2.5386    0.4746  -27.7636 C   0  0  0  0  0  0  0  0  0  0  0  0
    1.9990    0.9074  -26.6463 N   0  0  0  0  0  0  0  0  0  0  0  0
    2.9604    1.7478  -26.1074 C   0  0  0  0  0  0  0  0  0  0  0  0
    4.0711    1.7910  -26.9227 C   0  0  0  0  0  0  0  0  0  0  0  0
    5.2191    2.4597  -26.7300 N   0  0  0  0  0  0  0  0  0  0  0  0
    5.2268    3.1436  -25.5933 C   0  0  0  0  0  0  0  0  0  0  0  0
    6.3273    3.8025  -25.2286 N   0  0  0  0  0  0  0  0  0  0  0  0
    4.1646    3.1756  -24.7279 N   0  0  0  0  0  0  0  0  0  0  0  0
    2.9694    2.5109  -24.9073 C   0  0  0  0  0  0  0  0  0  0  0  0
    2.0520    2.6299  -24.0944 O   0  0  0  0  0  0  0  0  0  0  0  0
    3.4306   -2.3678  -29.9237 H   0  0  0  0  0  0  0  0  0  0  0  0
    4.9986   -3.0946  -30.4553 H   0  0  0  0  0  0  0  0  0  0  0  0
    5.0077   -0.7584  -31.7905 H   0  0  0  0  0  0  0  0  0  0  0  0
    6.6455   -1.9063  -29.8529 H   0  0  0  0  0  0  0  0  0  0  0  0
    7.7627    0.3124  -30.1684 H   0  0  0  0  0  0  0  0  0  0  0  0
    5.6143   -0.8742  -27.9187 H   0  0  0  0  0  0  0  0  0  0  0  0
    6.7353    0.4054  -28.3316 H   0  0  0  0  0  0  0  0  0  0  0  0
    5.0725    1.6652  -29.4698 H   0  0  0  0  0  0  0  0  0  0  0  0
    2.0328   -0.2193  -28.4511 H   0  0  0  0  0  0  0  0  0  0  0  0
    6.3402    4.3355  -24.3473 H   0  0  0  0  0  0  0  0  0  0  0  0
    7.1645    3.7783  -25.8281 H   0  0  0  0  0  0  0  0  0  0  0  0
    4.2671    3.7423  -23.8739 H   0  0  0  0  0  0  0  0  0  0  0  0
  1  2  2  0
  2  3  1  6
  2  4  1  0
  2  5  1  0
  5  6  1  0
  6  7  2  0
  6  8  1  1
  6  9  1  0
  9 10  1  0
 11 10  1  0
 11 12  1  0
 11 13  1  0
 12 16  1  0
 13 14  1  0
 13 15  1  0
 15 16  1  0
 16 17  1  0
 17 18  1  0
 17 21  1  0
 18 19  2  0
 19 20  1  0
 20 21  2  0
 20 26  1  0
 21 22  1  0
 22 23  2  0
 23 24  1  0
 23 25  1  0
 25 26  1  0
 26 27  2  0
 10 28  1  0
 10 29  1  0
 11 30  1  6
 13 31  1  1
 14 32  1  0
 15 33  1  0
 15 34  1  0
 16 35  1  6
 18 36  1  0
 24 37  1  0
 24 38  1  0
 25 39  1  0
M  CHG  3   3  -1   4  -1   8  -1
M  END
>  <filename_input>  (2) 
7ODY_DGI_docked.sdf

>  <pdb_id>  (2) 
7ODY_DGI

>  <pose_rank>  (2) 
1

>  <num_atoms_heavy>  (2) 
27

>  <num_torsions>  (2) 
6

>  <pose>  (2) 
[4.849915510339986, -0.9879187712184057, -30.7263582163184, 0.7194438503989148, 6.0909557742684175, 1.3484101974275446, 0.07379647260693045, -5.740577692827581, -1.093116084592527, -2.93029465456, 0.03864038202480341, -3.0099646608526434]

>  <energy>  (2) 
-1030.7956119436824

>  <inter_energy>  (2) 
-1037.0489981035346

>  <intra_energy>  (2) 
12.649647955364994

>  <rmsd>  (2) 
1.88774

>  <sdf_rank>  (2) 
0

$$$$

     RDKit          3D

 39 41  0  0  0  0  0  0  0  0999 V2000
    3.1438   -4.4122  -34.1551 O   0  0  0  0  0  0  0  0  0  0  0  0
    3.1493   -5.0295  -32.8013 P   0  0  1  0  0  0  0  0  0  0  0  0
    1.9770   -5.9192  -32.5108 O   0  0  0  0  0  0  0  0  0  0  0  0
    4.4018   -5.8634  -32.5236 O   0  0  0  0  0  0  0  0  0  0  0  0
    3.0644   -3.8384  -31.7314 O   0  0  0  0  0  0  0  0  0  0  0  0
    2.0802   -2.6530  -31.3219 P   0  0  2  0  0  0  0  0  0  0  0  0
    0.9409   -3.5306  -31.0036 O   0  0  0  0  0  0  0  0  0  0  0  0
    2.1219   -1.8908  -32.6055 O   0  0  0  0  0  0  0  0  0  0  0  0
    3.1658   -2.3293  -30.2572 O   0  0  0  0  0  0  0  0  0  0  0  0
    3.2593   -1.0851  -29.5272 C   0  0  0  0  0  0  0  0  0  0  0  0
    4.2921   -0.1748  -30.1391 C   0  0  1  0  0  0  0  0  0  0  0  0
    4.2683    1.1006  -29.4592 O   0  0  0  0  0  0  0  0  0  0  0  0
    5.7234   -0.7064  -30.0353 C   0  0  1  0  0  0  0  0  0  0  0  0
    6.4308   -0.5294  -31.2632 O   0  0  0  0  0  0  0  0  0  0  0  0
    6.3482    0.1575  -28.9484 C   0  0  0  0  0  0  0  0  0  0  0  0
    5.5730    1.4591  -29.0597 C   0  0  2  0  0  0  0  0  0  0  0  0
    5.4672    2.1819  -27.7844 N   0  0  0  0  0  0  0  0  0  0  0  0
    6.2745    3.1751  -27.3027 C   0  0  0  0  0  0  0  0  0  0  0  0
    5.8919    3.6310  -26.1311 N   0  0  0  0  0  0  0  0  0  0  0  0
    4.7657    2.8830  -25.8261 C   0  0  0  0  0  0  0  0  0  0  0  0
    4.4929    1.9912  -26.8413 C   0  0  0  0  0  0  0  0  0  0  0  0
    3.4733    1.1228  -26.9343 N   0  0  0  0  0  0  0  0  0  0  0  0
    2.6580    1.1793  -25.8894 C   0  0  0  0  0  0  0  0  0  0  0  0
    1.5582    0.4252  -25.8707 N   0  0  0  0  0  0  0  0  0  0  0  0
    2.8563    2.0200  -24.8255 N   0  0  0  0  0  0  0  0  0  0  0  0
    3.9014    2.9110  -24.6970 C   0  0  0  0  0  0  0  0  0  0  0  0
    4.0226    3.6010  -23.6842 O   0  0  0  0  0  0  0  0  0  0  0  0
    2.2809   -0.5827  -29.5464 H   0  0  0  0  0  0  0  0  0  0  0  0
    3.5587   -1.3082  -28.4925 H   0  0  0  0  0  0  0  0  0  0  0  0
    4.0290   -0.0966  -31.2043 H   0  0  0  0  0  0  0  0  0  0  0  0
    5.7540   -1.7834  -29.8137 H   0  0  0  0  0  0  0  0  0  0  0  0
    7.3728   -0.2938  -31.0703 H   0  0  0  0  0  0  0  0  0  0  0  0
    6.2155   -0.2981  -27.9560 H   0  0  0  0  0  0  0  0  0  0  0  0
    7.4338    0.2876  -29.0682 H   0  0  0  0  0  0  0  0  0  0  0  0
    6.0946    2.1228  -29.7650 H   0  0  0  0  0  0  0  0  0  0  0  0
    7.1554    3.5542  -27.8416 H   0  0  0  0  0  0  0  0  0  0  0  0
    0.9208    0.4641  -25.0626 H   0  0  0  0  0  0  0  0  0  0  0  0
    1.3463   -0.1962  -26.6644 H   0  0  0  0  0  0  0  0  0  0  0  0
    2.1689    1.9836  -24.0593 H   0  0  0  0  0  0  0  0  0  0  0  0
  1  2  2  0
  2  3  1  6
  2  4  1  0
  2  5  1  0
  5  6  1  0
  6  7  2  0
  6  8  1  6
  6  9  1  0
  9 10  1  0
 11 10  1  0
 11 12  1  0
 11 13  1  0
 12 16  1  0
 13 14  1  0
 13 15  1  0
 15 16  1  0
 16 17  1  0
 17 18  1  0
 17 21  1  0
 18 19  2  0
 19 20  1  0
 20 21  2  0
 20 26  1  0
 21 22  1  0
 22 23  2  0
 23 24  1  0
 23 25  1  0
 25 26  1  0
 26 27  2  0
 10 28  1  0
 10 29  1  0
 11 30  1  6
 13 31  1  1
 14 32  1  0
 15 33  1  0
 15 34  1  0
 16 35  1  6
 18 36  1  0
 24 37  1  0
 24 38  1  0
 25 39  1  0
M  CHG  3   3  -1   4  -1   8  -1
M  END
>  <filename_input>  (3) 
7ODY_DGI_docked.sdf

>  <pdb_id>  (3) 
7ODY_DGI

>  <pose_rank>  (3) 
2

>  <num_atoms_heavy>  (3) 
27

>  <num_torsions>  (3) 
6

>  <pose>  (3) 
[4.292127953855338, -0.17477949799890458, -30.139090298507828, -0.16125153719770277, 0.44482706438448677, -0.46715372654003906, -2.6866982787791303, 1.801761873035226, 0.9937213123163168, -1.512304083540783, 2.0622641705316114, 0.5517768297503942]

>  <energy>  (3) 
-881.53094474863

>  <inter_energy>  (3) 
-908.7019207224336

>  <intra_energy>  (3) 
31.827747154875972

>  <rmsd>  (3) 
2.29183

>  <sdf_rank>  (3) 
0

$$$$

     RDKit          3D

 39 41  0  0  0  0  0  0  0  0999 V2000
    5.3527   -4.4290  -36.0114 O   0  0  0  0  0  0  0  0  0  0  0  0
    4.8584   -5.2569  -34.8781 P   0  0  1  0  0  0  0  0  0  0  0  0
    3.6904   -6.1391  -35.2060 O   0  0  0  0  0  0  0  0  0  0  0  0
    5.9334   -6.1690  -34.2836 O   0  0  0  0  0  0  0  0  0  0  0  0
    4.3367   -4.2521  -33.7428 O   0  0  0  0  0  0  0  0  0  0  0  0
    3.3764   -4.2642  -32.4703 P   0  0  2  0  0  0  0  0  0  0  0  0
    3.6722   -5.6572  -32.0941 O   0  0  0  0  0  0  0  0  0  0  0  0
    2.1011   -3.9148  -33.1646 O   0  0  0  0  0  0  0  0  0  0  0  0
    4.2723   -3.0926  -31.9786 O   0  0  0  0  0  0  0  0  0  0  0  0
    4.1544   -2.4497  -30.6892 C   0  0  0  0  0  0  0  0  0  0  0  0
    4.7617   -1.0713  -30.7140 C   0  0  1  0  0  0  0  0  0  0  0  0
    3.8687   -0.1434  -30.0573 O   0  0  0  0  0  0  0  0  0  0  0  0
    6.1084   -0.9764  -29.9935 C   0  0  1  0  0  0  0  0  0  0  0  0
    7.0471   -0.2117  -30.7508 O   0  0  0  0  0  0  0  0  0  0  0  0
    5.7716   -0.2486  -28.6993 C   0  0  0  0  0  0  0  0  0  0  0  0
    4.5734    0.6005  -29.0876 C   0  0  2  0  0  0  0  0  0  0  0  0
    3.6568    0.8564  -27.9677 N   0  0  0  0  0  0  0  0  0  0  0  0
    2.4179    0.3213  -27.7460 C   0  0  0  0  0  0  0  0  0  0  0  0
    1.8635    0.7427  -26.6316 N   0  0  0  0  0  0  0  0  0  0  0  0
    2.7985    1.6134  -26.0944 C   0  0  0  0  0  0  0  0  0  0  0  0
    3.9091    1.6858  -26.9077 C   0  0  0  0  0  0  0  0  0  0  0  0
    5.0366    2.3889  -26.7157 N   0  0  0  0  0  0  0  0  0  0  0  0
    5.0217    3.0775  -25.5819 C   0  0  0  0  0  0  0  0  0  0  0  0
    6.1016    3.7701  -25.2178 N   0  0  0  0  0  0  0  0  0  0  0  0
    3.9572    3.0818  -24.7187 N   0  0  0  0  0  0  0  0  0  0  0  0
    2.7825    2.3814  -24.8976 C   0  0  0  0  0  0  0  0  0  0  0  0
    1.8603    2.4767  -24.0869 O   0  0  0  0  0  0  0  0  0  0  0  0
    3.0899   -2.3688  -30.4239 H   0  0  0  0  0  0  0  0  0  0  0  0
    4.6926   -3.0558  -29.9456 H   0  0  0  0  0  0  0  0  0  0  0  0
    4.9206   -0.8330  -31.7761 H   0  0  0  0  0  0  0  0  0  0  0  0
    6.5688   -1.9631  -29.8368 H   0  0  0  0  0  0  0  0  0  0  0  0
    7.6477    0.2776  -30.1345 H   0  0  0  0  0  0  0  0  0  0  0  0
    5.5104   -0.9600  -27.9020 H   0  0  0  0  0  0  0  0  0  0  0  0
    6.6109    0.3413  -28.3023 H   0  0  0  0  0  0  0  0  0  0  0  0
    4.9319    1.5783  -29.4417 H   0  0  0  0  0  0  0  0  0  0  0  0
    1.9342   -0.3901  -28.4315 H   0  0  0  0  0  0  0  0  0  0  0  0
    6.0969    4.3069  -24.3388 H   0  0  0  0  0  0  0  0  0  0  0  0
    6.9404    3.7681  -25.8156 H   0  0  0  0  0  0  0  0  0  0  0  0
    4.0413    3.6549  -23.8669 H   0  0  0  0  0  0  0  0  0  0  0  0
  1  2  2  0
  2  3  1  6
  2  4  1  0
  2  5  1  0
  5  6  1  0
  6  7  2  0
  6  8  1  6
  6  9  1  0
  9 10  1  0
 11 10  1  0
 11 12  1  0
 11 13  1  0
 12 16  1  0
 13 14  1  0
 13 15  1  0
 15 16  1  0
 16 17  1  0
 17 18  1  0
 17 21  1  0
 18 19  2  0
 19 20  1  0
 20 21  2  0
 20 26  1  0
 21 22  1  0
 22 23  2  0
 23 24  1  0
 23 25  1  0
 25 26  1  0
 26 27  2  0
 10 28  1  0
 10 29  1  0
 11 30  1  6
 13 31  1  1
 14 32  1  0
 15 33  1  0
 15 34  1  0
 16 35  1  6
 18 36  1  0
 24 37  1  0
 24 38  1  0
 25 39  1  0
M  CHG  3   3  -1   4  -1   8  -1
M  END
>  <filename_input>  (4) 
7ODY_DGI_docked.sdf

>  <pdb_id>  (4) 
7ODY_DGI

>  <pose_rank>  (4) 
3

>  <num_atoms_heavy>  (4) 
27

>  <num_torsions>  (4) 
6

>  <pose>  (4) 
[4.761694567961412, -1.071251106105192, -30.71399996144802, 1.701168827215819, -2.6724706008944574, 5.44843175918385, 0.08959710323090622, -5.176520910582793, -0.037197436204613354, 5.120781524075061, 1.593626261296421, -4.004007698795538]

>  <energy>  (4) 
-997.0682526348446

>  <inter_energy>  (4) 
-998.6736600248726

>  <intra_energy>  (4) 
6.2789536258890415

>  <rmsd>  (4) 
1.28117

>  <sdf_rank>  (4) 
0

$$$$

     RDKit          3D

 39 41  0  0  0  0  0  0  0  0999 V2000
    0.6555   -2.5781  -30.5762 O   0  0  0  0  0  0  0  0  0  0  0  0
    1.5677   -3.3904  -31.4259 P   0  0  1  0  0  0  0  0  0  0  0  0
    2.1315   -4.6092  -30.7573 O   0  0  0  0  0  0  0  0  0  0  0  0
    0.9139   -3.8741  -32.7219 O   0  0  0  0  0  0  0  0  0  0  0  0
    2.8310   -2.4715  -31.7870 O   0  0  0  0  0  0  0  0  0  0  0  0
    4.4167   -2.4825  -31.6225 P   0  0  2  0  0  0  0  0  0  0  0  0
    4.6459   -1.2976  -32.4667 O   0  0  0  0  0  0  0  0  0  0  0  0
    4.6742   -3.8564  -32.1483 O   0  0  0  0  0  0  0  0  0  0  0  0
    4.1034   -2.3394  -30.1064 O   0  0  0  0  0  0  0  0  0  0  0  0
    3.9006   -1.0825  -29.4218 C   0  0  0  0  0  0  0  0  0  0  0  0
    4.9622   -0.0826  -29.7999 C   0  0  1  0  0  0  0  0  0  0  0  0
    4.6600    1.1908  -29.1861 O   0  0  0  0  0  0  0  0  0  0  0  0
    6.3694   -0.4728  -29.3426 C   0  0  1  0  0  0  0  0  0  0  0  0
    7.3308   -0.2399  -30.3727 O   0  0  0  0  0  0  0  0  0  0  0  0
    6.6345    0.4572  -28.1667 C   0  0  0  0  0  0  0  0  0  0  0  0
    5.7930    1.6770  -28.5003 C   0  0  2  0  0  0  0  0  0  0  0  0
    5.3196    2.3979  -27.3102 N   0  0  0  0  0  0  0  0  0  0  0  0
    5.8582    3.5083  -26.7210 C   0  0  0  0  0  0  0  0  0  0  0  0
    5.1768    3.9224  -25.6764 N   0  0  0  0  0  0  0  0  0  0  0  0
    4.1294    3.0206  -25.5741 C   0  0  0  0  0  0  0  0  0  0  0  0
    4.2057    2.0808  -26.5796 C   0  0  0  0  0  0  0  0  0  0  0  0
    3.3623    1.0689  -26.8386 N   0  0  0  0  0  0  0  0  0  0  0  0
    2.3457    1.0215  -25.9877 C   0  0  0  0  0  0  0  0  0  0  0  0
    1.3850    0.1127  -26.1594 N   0  0  0  0  0  0  0  0  0  0  0  0
    2.1943    1.9007  -24.9473 N   0  0  0  0  0  0  0  0  0  0  0  0
    3.0518    2.9392  -24.6496 C   0  0  0  0  0  0  0  0  0  0  0  0
    2.8579    3.6571  -23.6678 O   0  0  0  0  0  0  0  0  0  0  0  0
    2.9140   -0.6797  -29.6944 H   0  0  0  0  0  0  0  0  0  0  0  0
    3.9586   -1.2612  -28.3379 H   0  0  0  0  0  0  0  0  0  0  0  0
    4.9555   -0.0400  -30.8991 H   0  0  0  0  0  0  0  0  0  0  0  0
    6.4444   -1.5398  -29.0858 H   0  0  0  0  0  0  0  0  0  0  0  0
    8.2072   -0.0275  -29.9642 H   0  0  0  0  0  0  0  0  0  0  0  0
    6.3106    0.0000  -27.2201 H   0  0  0  0  0  0  0  0  0  0  0  0
    7.7008    0.6901  -28.0297 H   0  0  0  0  0  0  0  0  0  0  0  0
    6.4052    2.3813  -29.0826 H   0  0  0  0  0  0  0  0  0  0  0  0
    6.7699    4.0048  -27.0847 H   0  0  0  0  0  0  0  0  0  0  0  0
    0.5927    0.0703  -25.5025 H   0  0  0  0  0  0  0  0  0  0  0  0
    1.4352   -0.5469  -26.9489 H   0  0  0  0  0  0  0  0  0  0  0  0
    1.3732    1.7757  -24.3380 H   0  0  0  0  0  0  0  0  0  0  0  0
  1  2  2  0
  2  3  1  1
  2  4  1  0
  2  5  1  0
  5  6  1  0
  6  7  2  0
  6  8  1  1
  6  9  1  0
  9 10  1  0
 11 10  1  0
 11 12  1  0
 11 13  1  0
 12 16  1  0
 13 14  1  0
 13 15  1  0
 15 16  1  0
 16 17  1  0
 17 18  1  0
 17 21  1  0
 18 19  2  0
 19 20  1  0
 20 21  2  0
 20 26  1  0
 21 22  1  0
 22 23  2  0
 23 24  1  0
 23 25  1  0
 25 26  1  0
 26 27  2  0
 10 28  1  0
 10 29  1  0
 11 30  1  6
 13 31  1  1
 14 32  1  0
 15 33  1  0
 15 34  1  0
 16 35  1  6
 18 36  1  0
 24 37  1  0
 24 38  1  0
 25 39  1  0
M  CHG  3   3  -1   4  -1   8  -1
M  END
>  <filename_input>  (5) 
7ODY_DGI_docked.sdf

>  <pdb_id>  (5) 
7ODY_DGI

>  <pose_rank>  (5) 
4

>  <num_atoms_heavy>  (5) 
27

>  <num_torsions>  (5) 
6

>  <pose>  (5) 
[4.962169536626523, -0.08259162168383878, -29.7999082937255, 1.8108201089114857, -2.467201326310021, 4.9527873182188165, -8.908563517331348, 1.808135298839991, -4.365957399701858, 0.3800595914393547, 4.0129358986644394, 1.6131827291344205]

>  <energy>  (5) 
-852.1553340044265

>  <inter_energy>  (5) 
-909.2881250788095

>  <intra_energy>  (5) 
49.62240021295206

>  <rmsd>  (5) 
2.91731

>  <sdf_rank>  (5) 
0

$$$$

     RDKit          3D

 39 41  0  0  0  0  0  0  0  0999 V2000
    1.3841   -6.1351  -34.3504 O   0  0  0  0  0  0  0  0  0  0  0  0
    1.4779   -5.7098  -32.9276 P   0  0  1  0  0  0  0  0  0  0  0  0
    0.2444   -5.0505  -32.3854 O   0  0  0  0  0  0  0  0  0  0  0  0
    1.8051   -6.8609  -31.9741 O   0  0  0  0  0  0  0  0  0  0  0  0
    2.6362   -4.6053  -32.8331 O   0  0  0  0  0  0  0  0  0  0  0  0
    4.2109   -4.4873  -33.0526 P   0  0  2  0  0  0  0  0  0  0  0  0
    4.1618   -4.7377  -34.5032 O   0  0  0  0  0  0  0  0  0  0  0  0
    4.6372   -5.5610  -32.1061 O   0  0  0  0  0  0  0  0  0  0  0  0
    4.0254   -3.0544  -32.4788 O   0  0  0  0  0  0  0  0  0  0  0  0
    4.6919   -2.5453  -31.3013 C   0  0  0  0  0  0  0  0  0  0  0  0
    3.7368   -2.4417  -30.1409 C   0  0  1  0  0  0  0  0  0  0  0  0
    4.3892   -1.7632  -29.0438 O   0  0  0  0  0  0  0  0  0  0  0  0
    2.4642   -1.6528  -30.4567 C   0  0  1  0  0  0  0  0  0  0  0  0
    1.3073   -2.3075  -29.9346 O   0  0  0  0  0  0  0  0  0  0  0  0
    2.6773   -0.3271  -29.7391 C   0  0  0  0  0  0  0  0  0  0  0  0
    3.5757   -0.7098  -28.5756 C   0  0  2  0  0  0  0  0  0  0  0  0
    4.4613    0.3807  -28.1437 N   0  0  0  0  0  0  0  0  0  0  0  0
    5.6326    0.7983  -28.7129 C   0  0  0  0  0  0  0  0  0  0  0  0
    6.1739    1.8223  -28.0922 N   0  0  0  0  0  0  0  0  0  0  0  0
    5.3026    2.0860  -27.0471 C   0  0  0  0  0  0  0  0  0  0  0  0
    4.2415    1.2065  -27.0738 C   0  0  0  0  0  0  0  0  0  0  0  0
    3.1785    1.1602  -26.2552 N   0  0  0  0  0  0  0  0  0  0  0  0
    3.2078    2.1072  -25.3266 C   0  0  0  0  0  0  0  0  0  0  0  0
    2.1833    2.2336  -24.4824 N   0  0  0  0  0  0  0  0  0  0  0  0
    4.2280    3.0148  -25.2102 N   0  0  0  0  0  0  0  0  0  0  0  0
    5.3377    3.0764  -26.0271 C   0  0  0  0  0  0  0  0  0  0  0  0
    6.2275    3.9031  -25.8229 O   0  0  0  0  0  0  0  0  0  0  0  0
    5.5134   -3.2252  -31.0311 H   0  0  0  0  0  0  0  0  0  0  0  0
    5.0800   -1.5408  -31.5258 H   0  0  0  0  0  0  0  0  0  0  0  0
    3.4507   -3.4750  -29.8952 H   0  0  0  0  0  0  0  0  0  0  0  0
    2.2966   -1.5459  -31.5386 H   0  0  0  0  0  0  0  0  0  0  0  0
    1.3370   -2.2907  -28.9452 H   0  0  0  0  0  0  0  0  0  0  0  0
    3.1713    0.4035  -30.3965 H   0  0  0  0  0  0  0  0  0  0  0  0
    1.7384    0.1510  -29.4231 H   0  0  0  0  0  0  0  0  0  0  0  0
    2.9457   -0.9750  -27.7138 H   0  0  0  0  0  0  0  0  0  0  0  0
    6.0768    0.3248  -29.6009 H   0  0  0  0  0  0  0  0  0  0  0  0
    2.1994    2.9666  -23.7590 H   0  0  0  0  0  0  0  0  0  0  0  0
    1.3758    1.5981  -24.5536 H   0  0  0  0  0  0  0  0  0  0  0  0
    4.1606    3.7074  -24.4508 H   0  0  0  0  0  0  0  0  0  0  0  0
  1  2  2  0
  2  3  1  1
  2  4  1  0
  2  5  1  0
  5  6  1  0
  6  7  2  0
  6  8  1  1
  6  9  1  0
  9 10  1  0
 11 10  1  0
 11 12  1  0
 11 13  1  0
 12 16  1  0
 13 14  1  0
 13 15  1  0
 15 16  1  0
 16 17  1  0
 17 18  1  0
 17 21  1  0
 18 19  2  0
 19 20  1  0
 20 21  2  0
 20 26  1  0
 21 22  1  0
 22 23  2  0
 23 24  1  0
 23 25  1  0
 25 26  1  0
 26 27  2  0
 10 28  1  0
 10 29  1  0
 11 30  1  1
 13 31  1  6
 14 32  1  0
 15 33  1  0
 15 34  1  0
 16 35  1  1
 18 36  1  0
 24 37  1  0
 24 38  1  0
 25 39  1  0
M  CHG  3   3  -1   4  -1   8  -1
M  END
>  <filename_input>  (6) 
7ODY_DGI_docked.sdf

>  <pdb_id>  (6) 
7ODY_DGI

>  <pose_rank>  (6) 
5

>  <num_atoms_heavy>  (6) 
27

>  <num_torsions>  (6) 
6

>  <pose>  (6) 
[3.7368331256566245, -2.4416802490503797, -30.140859889091104, 0.22791499884125735, -2.4586112838922576, -2.294206207319165, -5.7114627666371165, -4.255249851838634, 0.8639461438257305, 4.022528584715544, 2.1626683452633633, 4.655265729114074]

>  <energy>  (6) 
-782.6662555700335

>  <inter_energy>  (6) 
-790.219117402385

>  <intra_energy>  (6) 
4.838126601924722

>  <rmsd>  (6) 
3.12898

>  <sdf_rank>  (6) 
0

$$$$

     RDKit          3D

 39 41  0  0  0  0  0  0  0  0999 V2000
    3.0593   -5.8855  -35.1179 O   0  0  0  0  0  0  0  0  0  0  0  0
    4.4698   -5.4852  -34.8649 P   0  0  1  0  0  0  0  0  0  0  0  0
    5.3268   -6.5532  -34.2524 O   0  0  0  0  0  0  0  0  0  0  0  0
    5.1999   -5.0180  -36.1258 O   0  0  0  0  0  0  0  0  0  0  0  0
    4.4441   -4.2872  -33.7996 O   0  0  0  0  0  0  0  0  0  0  0  0
    3.7321   -3.9122  -32.4233 P   0  0  2  0  0  0  0  0  0  0  0  0
    3.8855   -5.2497  -31.8259 O   0  0  0  0  0  0  0  0  0  0  0  0
    2.4182   -3.4699  -32.9788 O   0  0  0  0  0  0  0  0  0  0  0  0
    4.8602   -2.8485  -32.3103 O   0  0  0  0  0  0  0  0  0  0  0  0
    4.8030   -1.6722  -31.4720 C   0  0  0  0  0  0  0  0  0  0  0  0
    3.9565   -1.9187  -30.2504 C   0  0  1  0  0  0  0  0  0  0  0  0
    4.5974   -1.3278  -29.0973 O   0  0  0  0  0  0  0  0  0  0  0  0
    2.5541   -1.3125  -30.3380 C   0  0  1  0  0  0  0  0  0  0  0  0
    1.5653   -2.2267  -29.8627 O   0  0  0  0  0  0  0  0  0  0  0  0
    2.6283   -0.1038  -29.4151 C   0  0  0  0  0  0  0  0  0  0  0  0
    3.6800   -0.5148  -28.3989 C   0  0  2  0  0  0  0  0  0  0  0  0
    4.4249    0.6235  -27.8427 N   0  0  0  0  0  0  0  0  0  0  0  0
    5.5862    1.1824  -28.3001 C   0  0  0  0  0  0  0  0  0  0  0  0
    5.9828    2.2110  -27.5848 N   0  0  0  0  0  0  0  0  0  0  0  0
    5.0214    2.3269  -26.5933 C   0  0  0  0  0  0  0  0  0  0  0  0
    4.0544    1.3566  -26.7471 C   0  0  0  0  0  0  0  0  0  0  0  0
    2.9478    1.1610  -26.0125 N   0  0  0  0  0  0  0  0  0  0  0  0
    2.8226    2.0464  -25.0326 C   0  0  0  0  0  0  0  0  0  0  0  0
    1.7359    2.0243  -24.2600 N   0  0  0  0  0  0  0  0  0  0  0  0
    3.7403    3.0352  -24.7909 N   0  0  0  0  0  0  0  0  0  0  0  0
    4.8916    3.2502  -25.5194 C   0  0  0  0  0  0  0  0  0  0  0  0
    5.6815    4.1410  -25.2044 O   0  0  0  0  0  0  0  0  0  0  0  0
    5.8224   -1.4066  -31.1553 H   0  0  0  0  0  0  0  0  0  0  0  0
    4.3523   -0.8522  -32.0503 H   0  0  0  0  0  0  0  0  0  0  0  0
    3.8562   -3.0112  -30.1710 H   0  0  0  0  0  0  0  0  0  0  0  0
    2.2713   -1.0611  -31.3708 H   0  0  0  0  0  0  0  0  0  0  0  0
    1.5648   -2.2271  -28.8727 H   0  0  0  0  0  0  0  0  0  0  0  0
    2.9408    0.7957  -29.9658 H   0  0  0  0  0  0  0  0  0  0  0  0
    1.6612    0.1534  -28.9585 H   0  0  0  0  0  0  0  0  0  0  0  0
    3.1816   -1.0174  -27.5569 H   0  0  0  0  0  0  0  0  0  0  0  0
    6.1331    0.8087  -29.1783 H   0  0  0  0  0  0  0  0  0  0  0  0
    1.6322    2.7088  -23.4973 H   0  0  0  0  0  0  0  0  0  0  0  0
    1.0002    1.3227  -24.4259 H   0  0  0  0  0  0  0  0  0  0  0  0
    3.5551    3.6695  -24.0007 H   0  0  0  0  0  0  0  0  0  0  0  0
  1  2  2  0
  2  3  1  1
  2  4  1  0
  2  5  1  0
  5  6  1  0
  6  7  2  0
  6  8  1  6
  6  9  1  0
  9 10  1  0
 11 10  1  0
 11 12  1  0
 11 13  1  0
 12 16  1  0
 13 14  1  0
 13 15  1  0
 15 16  1  0
 16 17  1  0
 17 18  1  0
 17 21  1  0
 18 19  2  0
 19 20  1  0
 20 21  2  0
 20 26  1  0
 21 22  1  0
 22 23  2  0
 23 24  1  0
 23 25  1  0
 25 26  1  0
 26 27  2  0
 10 28  1  0
 10 29  1  0
 11 30  1  1
 13 31  1  6
 14 32  1  0
 15 33  1  0
 15 34  1  0
 16 35  1  1
 18 36  1  0
 24 37  1  0
 24 38  1  0
 25 39  1  0
M  CHG  3   3  -1   4  -1   8  -1
M  END
>  <filename_input>  (7) 
7ODY_DGI_docked.sdf

>  <pdb_id>  (7) 
7ODY_DGI

>  <pose_rank>  (7) 
6

>  <num_atoms_heavy>  (7) 
27

>  <num_torsions>  (7) 
6

>  <pose>  (7) 
[3.956473884025001, -1.9186929058113198, -30.250408321602574, 0.28289596600479416, -2.124140900143856, -2.39285971025395, -5.910631180725304, 13.733706127181993, -3.040282055127909, -7.875314282002594, 1.7597347900958717, 0.2780112943192735]

>  <energy>  (7) 
-831.4988855271359

>  <inter_energy>  (7) 
-823.3669120978943

>  <intra_energy>  (7) 
10.940062698402084

>  <rmsd>  (7) 
2.78874

>  <sdf_rank>  (7) 
0

$$$$

     RDKit          3D

 39 41  0  0  0  0  0  0  0  0999 V2000
    1.0066   -3.1756  -32.0623 O   0  0  0  0  0  0  0  0  0  0  0  0
    2.1043   -4.1386  -31.7764 P   0  0  1  0  0  0  0  0  0  0  0  0
    1.7947   -5.1470  -30.7100 O   0  0  0  0  0  0  0  0  0  0  0  0
    2.5442   -4.9346  -33.0069 O   0  0  0  0  0  0  0  0  0  0  0  0
    3.3508   -3.2942  -31.2250 O   0  0  0  0  0  0  0  0  0  0  0  0
    3.9303   -1.8109  -31.2997 P   0  0  2  0  0  0  0  0  0  0  0  0
    2.6125   -1.1532  -31.2947 O   0  0  0  0  0  0  0  0  0  0  0  0
    4.7089   -1.9518  -32.5664 O   0  0  0  0  0  0  0  0  0  0  0  0
    4.6430   -2.1902  -29.9711 O   0  0  0  0  0  0  0  0  0  0  0  0
    4.9699   -1.2579  -28.9158 C   0  0  0  0  0  0  0  0  0  0  0  0
    5.0973    0.1441  -29.4523 C   0  0  1  0  0  0  0  0  0  0  0  0
    4.3254    1.0444  -28.6257 O   0  0  0  0  0  0  0  0  0  0  0  0
    6.5332    0.6731  -29.4636 C   0  0  1  0  0  0  0  0  0  0  0  0
    6.8248    1.3505  -30.6865 O   0  0  0  0  0  0  0  0  0  0  0  0
    6.5601    1.6607  -28.3052 C   0  0  0  0  0  0  0  0  0  0  0  0
    5.1210    2.1416  -28.2338 C   0  0  2  0  0  0  0  0  0  0  0  0
    4.7068    2.5324  -26.8789 N   0  0  0  0  0  0  0  0  0  0  0  0
    5.2505    3.4909  -26.0689 C   0  0  0  0  0  0  0  0  0  0  0  0
    4.6282    3.6102  -24.9177 N   0  0  0  0  0  0  0  0  0  0  0  0
    3.6168    2.6644  -24.9781 C   0  0  0  0  0  0  0  0  0  0  0  0
    3.6537    1.9992  -26.1848 C   0  0  0  0  0  0  0  0  0  0  0  0
    2.8250    1.0430  -26.6335 N   0  0  0  0  0  0  0  0  0  0  0  0
    1.8690    0.7465  -25.7628 C   0  0  0  0  0  0  0  0  0  0  0  0
    0.9261   -0.1360  -26.0953 N   0  0  0  0  0  0  0  0  0  0  0  0
    1.7613    1.3412  -24.5328 N   0  0  0  0  0  0  0  0  0  0  0  0
    2.6059    2.3146  -24.0409 C   0  0  0  0  0  0  0  0  0  0  0  0
    2.4567    2.7651  -22.9045 O   0  0  0  0  0  0  0  0  0  0  0  0
    4.1744   -1.2813  -28.1564 H   0  0  0  0  0  0  0  0  0  0  0  0
    5.9335   -1.5527  -28.4747 H   0  0  0  0  0  0  0  0  0  0  0  0
    4.7367    0.1014  -30.4906 H   0  0  0  0  0  0  0  0  0  0  0  0
    7.2762   -0.1330  -29.3723 H   0  0  0  0  0  0  0  0  0  0  0  0
    7.2083    2.2412  -30.4870 H   0  0  0  0  0  0  0  0  0  0  0  0
    6.8583    1.1649  -27.3696 H   0  0  0  0  0  0  0  0  0  0  0  0
    7.2836    2.4769  -28.4477 H   0  0  0  0  0  0  0  0  0  0  0  0
    5.0119    3.0295  -28.8738 H   0  0  0  0  0  0  0  0  0  0  0  0
    6.1210    4.1006  -26.3525 H   0  0  0  0  0  0  0  0  0  0  0  0
    0.1809   -0.3709  -25.4241 H   0  0  0  0  0  0  0  0  0  0  0  0
    0.9431   -0.5829  -27.0231 H   0  0  0  0  0  0  0  0  0  0  0  0
    0.9866    1.0365  -23.9263 H   0  0  0  0  0  0  0  0  0  0  0  0
  1  2  2  0
  2  3  1  1
  2  4  1  0
  2  5  1  0
  5  6  1  0
  6  7  2  0
  6  8  1  6
  6  9  1  0
  9 10  1  0
 11 10  1  0
 11 12  1  0
 11 13  1  0
 12 16  1  0
 13 14  1  0
 13 15  1  0
 15 16  1  0
 16 17  1  0
 17 18  1  0
 17 21  1  0
 18 19  2  0
 19 20  1  0
 20 21  2  0
 20 26  1  0
 21 22  1  0
 22 23  2  0
 23 24  1  0
 23 25  1  0
 25 26  1  0
 26 27  2  0
 10 28  1  0
 10 29  1  0
 11 30  1  6
 13 31  1  1
 14 32  1  0
 15 33  1  0
 15 34  1  0
 16 35  1  6
 18 36  1  0
 24 37  1  0
 24 38  1  0
 25 39  1  0
M  CHG  3   3  -1   4  -1   8  -1
M  END
>  <filename_input>  (8) 
7ODY_DGI_docked.sdf

>  <pdb_id>  (8) 
7ODY_DGI

>  <pose_rank>  (8) 
7

>  <num_atoms_heavy>  (8) 
27

>  <num_torsions>  (8) 
6

>  <pose>  (8) 
[5.097332584210298, 0.1440758346401127, -29.452251199732984, 2.2778230711616203, -4.548917189066284, -2.601580572164, 9.26770618086844, -17.809167413415356, -3.987575164967443, 5.574182764890583, 1.6420757459166178, -0.9356784165107922]

>  <energy>  (8) 
-780.8713488906151

>  <inter_energy>  (8) 
-827.0222801226663

>  <intra_energy>  (8) 
47.11934811466625

>  <rmsd>  (8) 
2.87683

>  <sdf_rank>  (8) 
0

$$$$

     RDKit          3D

 39 41  0  0  0  0  0  0  0  0999 V2000
    8.1090    4.6212  -27.5283 O   0  0  0  0  0  0  0  0  0  0  0  0
    8.6310    4.6686  -28.9209 P   0  0  1  0  0  0  0  0  0  0  0  0
    8.3356    5.9397  -29.6606 O   0  0  0  0  0  0  0  0  0  0  0  0
   10.1450    4.4636  -29.0049 O   0  0  0  0  0  0  0  0  0  0  0  0
    7.8978    3.5066  -29.7471 O   0  0  0  0  0  0  0  0  0  0  0  0
    7.6939    3.0470  -31.2601 P   0  0  2  0  0  0  0  0  0  0  0  0
    9.1169    2.7544  -31.5027 O   0  0  0  0  0  0  0  0  0  0  0  0
    7.0726    4.3016  -31.7801 O   0  0  0  0  0  0  0  0  0  0  0  0
    6.7485    1.9779  -30.6434 O   0  0  0  0  0  0  0  0  0  0  0  0
    6.8118    1.5117  -29.2765 C   0  0  0  0  0  0  0  0  0  0  0  0
    6.0187    0.2431  -29.0999 C   0  0  1  0  0  0  0  0  0  0  0  0
    5.4187    0.2334  -27.7848 O   0  0  0  0  0  0  0  0  0  0  0  0
    4.8794    0.0813  -30.1087 C   0  0  1  0  0  0  0  0  0  0  0  0
    4.8262   -1.2515  -30.6188 O   0  0  0  0  0  0  0  0  0  0  0  0
    3.6305    0.3721  -29.2879 C   0  0  0  0  0  0  0  0  0  0  0  0
    4.0393   -0.0450  -27.8857 C   0  0  2  0  0  0  0  0  0  0  0  0
    3.3520    0.7141  -26.8314 N   0  0  0  0  0  0  0  0  0  0  0  0
    2.1056    0.5033  -26.3096 C   0  0  0  0  0  0  0  0  0  0  0  0
    1.7932    1.3514  -25.3556 N   0  0  0  0  0  0  0  0  0  0  0  0
    2.9053    2.1722  -25.2525 C   0  0  0  0  0  0  0  0  0  0  0  0
    3.8732    1.7839  -26.1540 C   0  0  0  0  0  0  0  0  0  0  0  0
    5.0975    2.3039  -26.3357 N   0  0  0  0  0  0  0  0  0  0  0  0
    5.3507    3.3130  -25.5127 C   0  0  0  0  0  0  0  0  0  0  0  0
    6.5543    3.8869  -25.5252 N   0  0  0  0  0  0  0  0  0  0  0  0
    4.4457    3.7808  -24.5959 N   0  0  0  0  0  0  0  0  0  0  0  0
    3.1775    3.2758  -24.3978 C   0  0  0  0  0  0  0  0  0  0  0  0
    2.4152    3.7865  -23.5764 O   0  0  0  0  0  0  0  0  0  0  0  0
    7.8617    1.3192  -29.0107 H   0  0  0  0  0  0  0  0  0  0  0  0
    6.3837    2.2858  -28.6227 H   0  0  0  0  0  0  0  0  0  0  0  0
    6.7328   -0.5800  -29.2503 H   0  0  0  0  0  0  0  0  0  0  0  0
    4.9967    0.7413  -30.9808 H   0  0  0  0  0  0  0  0  0  0  0  0
    4.8006   -1.8926  -29.8649 H   0  0  0  0  0  0  0  0  0  0  0  0
    3.3739    1.4411  -29.3236 H   0  0  0  0  0  0  0  0  0  0  0  0
    2.7378   -0.1559  -29.6546 H   0  0  0  0  0  0  0  0  0  0  0  0
    3.7810   -1.1045  -27.7417 H   0  0  0  0  0  0  0  0  0  0  0  0
    1.4323   -0.2957  -26.6536 H   0  0  0  0  0  0  0  0  0  0  0  0
    6.7577    4.6709  -24.8889 H   0  0  0  0  0  0  0  0  0  0  0  0
    7.2806    3.5463  -26.1712 H   0  0  0  0  0  0  0  0  0  0  0  0
    4.7363    4.5742  -24.0068 H   0  0  0  0  0  0  0  0  0  0  0  0
  1  2  2  0
  2  3  1  6
  2  4  1  0
  2  5  1  0
  5  6  1  0
  6  7  2  0
  6  8  1  6
  6  9  1  0
  9 10  1  0
 11 10  1  0
 11 12  1  0
 11 13  1  0
 12 16  1  0
 13 14  1  0
 13 15  1  0
 15 16  1  0
 16 17  1  0
 17 18  1  0
 17 21  1  0
 18 19  2  0
 19 20  1  0
 20 21  2  0
 20 26  1  0
 21 22  1  0
 22 23  2  0
 23 24  1  0
 23 25  1  0
 25 26  1  0
 26 27  2  0
 10 28  1  0
 10 29  1  0
 11 30  1  1
 13 31  1  6
 14 32  1  0
 15 33  1  0
 15 34  1  0
 16 35  1  1
 18 36  1  0
 24 37  1  0
 24 38  1  0
 25 39  1  0
M  CHG  3   3  -1   4  -1   8  -1
M  END
>  <filename_input>  (9) 
7ODY_DGI_docked.sdf

>  <pdb_id>  (9) 
7ODY_DGI

>  <pose_rank>  (9) 
8

>  <num_atoms_heavy>  (9) 
27

>  <num_torsions>  (9) 
6

>  <pose>  (9) 
[6.01868668464522, 0.24309351063117354, -29.099914489432493, -1.716575585129011, 1.1158769063351623, 2.337021250006146, 3.393524353714316, -3.787130994837999, -0.15753826169497268, -4.781053763738638, -4.143656452390099, 2.401989150180372]

>  <energy>  (9) 
-602.3067603645229

>  <inter_energy>  (9) 
-661.8181533204029

>  <intra_energy>  (9) 
61.65234665262332

>  <rmsd>  (9) 
6.2315

>  <sdf_rank>  (9) 
0

$$$$

     RDKit          3D

 39 41  0  0  0  0  0  0  0  0999 V2000
    1.7385    3.1283  -25.1279 O   0  0  0  0  0  0  0  0  0  0  0  0
    2.9787    2.3854  -24.7756 P   0  0  1  0  0  0  0  0  0  0  0  0
    4.1721    3.2501  -24.4962 O   0  0  0  0  0  0  0  0  0  0  0  0
    2.8114    1.4757  -23.5568 O   0  0  0  0  0  0  0  0  0  0  0  0
    3.3791    1.4923  -26.0455 O   0  0  0  0  0  0  0  0  0  0  0  0
    4.5859    1.3320  -27.0749 P   0  0  2  0  0  0  0  0  0  0  0  0
    5.6370    1.3024  -26.0436 O   0  0  0  0  0  0  0  0  0  0  0  0
    4.3412    2.5653  -27.8810 O   0  0  0  0  0  0  0  0  0  0  0  0
    3.8433    0.0345  -27.5016 O   0  0  0  0  0  0  0  0  0  0  0  0
    4.4727   -1.2546  -27.6799 C   0  0  0  0  0  0  0  0  0  0  0  0
    5.2038   -1.3229  -28.9954 C   0  0  1  0  0  0  0  0  0  0  0  0
    4.8047   -2.5187  -29.7027 O   0  0  0  0  0  0  0  0  0  0  0  0
    4.9163   -0.1411  -29.9240 C   0  0  1  0  0  0  0  0  0  0  0  0
    6.1148    0.3421  -30.5319 O   0  0  0  0  0  0  0  0  0  0  0  0
    3.9999   -0.7344  -30.9853 C   0  0  0  0  0  0  0  0  0  0  0  0
    4.4192   -2.1940  -31.0204 C   0  0  2  0  0  0  0  0  0  0  0  0
    3.3285   -3.1015  -31.4035 N   0  0  0  0  0  0  0  0  0  0  0  0
    1.9987   -3.0056  -31.0990 C   0  0  0  0  0  0  0  0  0  0  0  0
    1.2775   -3.9743  -31.6172 N   0  0  0  0  0  0  0  0  0  0  0  0
    2.1971   -4.7558  -32.2989 C   0  0  0  0  0  0  0  0  0  0  0  0
    3.4626   -4.2231  -32.1775 C   0  0  0  0  0  0  0  0  0  0  0  0
    4.6079   -4.6674  -32.7192 N   0  0  0  0  0  0  0  0  0  0  0  0
    4.4350   -5.7572  -33.4556 C   0  0  0  0  0  0  0  0  0  0  0  0
    5.4703   -6.2762  -34.1168 N   0  0  0  0  0  0  0  0  0  0  0  0
    3.2194   -6.3681  -33.6207 N   0  0  0  0  0  0  0  0  0  0  0  0
    2.0308   -5.9423  -33.0652 C   0  0  0  0  0  0  0  0  0  0  0  0
    0.9901   -6.5786  -33.2351 O   0  0  0  0  0  0  0  0  0  0  0  0
    5.1887   -1.4213  -26.8616 H   0  0  0  0  0  0  0  0  0  0  0  0
    3.6916   -2.0292  -27.6731 H   0  0  0  0  0  0  0  0  0  0  0  0
    6.2746   -1.3121  -28.7438 H   0  0  0  0  0  0  0  0  0  0  0  0
    4.4753    0.7130  -29.3891 H   0  0  0  0  0  0  0  0  0  0  0  0
    6.7603    0.6022  -29.8278 H   0  0  0  0  0  0  0  0  0  0  0  0
    2.9433   -0.6333  -30.6968 H   0  0  0  0  0  0  0  0  0  0  0  0
    4.0862   -0.2347  -31.9614 H   0  0  0  0  0  0  0  0  0  0  0  0
    5.2178   -2.3153  -31.7671 H   0  0  0  0  0  0  0  0  0  0  0  0
    1.5753   -2.1990  -30.4826 H   0  0  0  0  0  0  0  0  0  0  0  0
    5.3431   -7.1222  -34.6905 H   0  0  0  0  0  0  0  0  0  0  0  0
    6.3970   -5.8312  -34.0538 H   0  0  0  0  0  0  0  0  0  0  0  0
    3.1910   -7.2142  -34.2074 H   0  0  0  0  0  0  0  0  0  0  0  0
  1  2  2  0
  2  3  1  1
  2  4  1  0
  2  5  1  0
  5  6  1  0
  6  7  2  0
  6  8  1  6
  6  9  1  0
  9 10  1  0
 11 10  1  0
 11 12  1  0
 11 13  1  0
 12 16  1  0
 13 14  1  0
 13 15  1  0
 15 16  1  0
 16 17  1  0
 17 18  1  0
 17 21  1  0
 18 19  2  0
 19 20  1  0
 20 21  2  0
 20 26  1  0
 21 22  1  0
 22 23  2  0
 23 24  1  0
 23 25  1  0
 25 26  1  0
 26 27  2  0
 10 28  1  0
 10 29  1  0
 11 30  1  1
 13 31  1  1
 14 32  1  0
 15 33  1  0
 15 34  1  0
 16 35  1  6
 18 36  1  0
 24 37  1  0
 24 38  1  0
 25 39  1  0
M  CHG  3   3  -1   4  -1   8  -1
M  END
>  <filename_input>  (10) 
7ODY_DGI_docked.sdf

>  <pdb_id>  (10) 
7ODY_DGI

>  <pose_rank>  (10) 
9

>  <num_atoms_heavy>  (10) 
27

>  <num_torsions>  (10) 
6

>  <pose>  (10) 
[5.20380181427437, -1.322909161430498, -28.995357594782387, 2.8244607185527784, 1.6982034084798372, -1.6844148054717556, -4.949790342991368, -16.07337573987002, -36.33703485275777, -12.98266774809062, 14.42425895124954, 1.5641867273350794]

>  <energy>  (10) 
-656.5819227695414

>  <inter_energy>  (10) 
-682.5278755342297

>  <intra_energy>  (10) 
26.748785341212347

>  <rmsd>  (10) 
8.6181

>  <sdf_rank>  (10) 
0

$$$$

     RDKit          3D

 39 41  0  0  0  0  0  0  0  0999 V2000
    4.2971    3.0403  -24.7297 O   0  0  0  0  0  0  0  0  0  0  0  0
    5.0447    3.0093  -26.0159 P   0  0  1  0  0  0  0  0  0  0  0  0
    5.5940    4.3338  -26.4563 O   0  0  0  0  0  0  0  0  0  0  0  0
    6.2253    2.0360  -26.0041 O   0  0  0  0  0  0  0  0  0  0  0  0
    4.0119    2.5670  -27.1598 O   0  0  0  0  0  0  0  0  0  0  0  0
    2.8244    1.5253  -27.3753 P   0  0  2  0  0  0  0  0  0  0  0  0
    1.8042    2.3457  -26.7005 O   0  0  0  0  0  0  0  0  0  0  0  0
    3.4425    0.3544  -26.6844 O   0  0  0  0  0  0  0  0  0  0  0  0
    3.1392    1.7180  -28.8855 O   0  0  0  0  0  0  0  0  0  0  0  0
    3.2571    0.6444  -29.8464 C   0  0  0  0  0  0  0  0  0  0  0  0
    3.3190   -0.6941  -29.1578 C   0  0  1  0  0  0  0  0  0  0  0  0
    2.8968   -1.7255  -30.0784 O   0  0  0  0  0  0  0  0  0  0  0  0
    4.7199   -1.0763  -28.6751 C   0  0  1  0  0  0  0  0  0  0  0  0
    4.6803   -1.6283  -27.3586 O   0  0  0  0  0  0  0  0  0  0  0  0
    5.1634   -2.1403  -29.6697 C   0  0  0  0  0  0  0  0  0  0  0  0
    3.8502   -2.7650  -30.1088 C   0  0  2  0  0  0  0  0  0  0  0  0
    3.8898   -3.2951  -31.4790 N   0  0  0  0  0  0  0  0  0  0  0  0
    4.8123   -3.0480  -32.4579 C   0  0  0  0  0  0  0  0  0  0  0  0
    4.5718   -3.7006  -33.5729 N   0  0  0  0  0  0  0  0  0  0  0  0
    3.4145   -4.4151  -33.3061 C   0  0  0  0  0  0  0  0  0  0  0  0
    2.9898   -4.1760  -32.0167 C   0  0  0  0  0  0  0  0  0  0  0  0
    1.9346   -4.7046  -31.3768 N   0  0  0  0  0  0  0  0  0  0  0  0
    1.2565   -5.5598  -32.1308 C   0  0  0  0  0  0  0  0  0  0  0  0
    0.2219   -6.2205  -31.6096 N   0  0  0  0  0  0  0  0  0  0  0  0
    1.5916   -5.8482  -33.4280 N   0  0  0  0  0  0  0  0  0  0  0  0
    2.6602   -5.3099  -34.1142 C   0  0  0  0  0  0  0  0  0  0  0  0
    2.8626   -5.5972  -35.2945 O   0  0  0  0  0  0  0  0  0  0  0  0
    2.3847    0.6641  -30.5162 H   0  0  0  0  0  0  0  0  0  0  0  0
    4.1860    0.7870  -30.4181 H   0  0  0  0  0  0  0  0  0  0  0  0
    2.6621   -0.6097  -28.2795 H   0  0  0  0  0  0  0  0  0  0  0  0
    5.3960   -0.2099  -28.6265 H   0  0  0  0  0  0  0  0  0  0  0  0
    4.7328   -0.8976  -26.6927 H   0  0  0  0  0  0  0  0  0  0  0  0
    5.6913   -1.6889  -30.5227 H   0  0  0  0  0  0  0  0  0  0  0  0
    5.8680   -2.8681  -29.2410 H   0  0  0  0  0  0  0  0  0  0  0  0
    3.6190   -3.6090  -29.4424 H   0  0  0  0  0  0  0  0  0  0  0  0
    5.6692   -2.3712  -32.3254 H   0  0  0  0  0  0  0  0  0  0  0  0
   -0.3090   -6.8860  -32.1893 H   0  0  0  0  0  0  0  0  0  0  0  0
   -0.0462   -6.0652  -30.6273 H   0  0  0  0  0  0  0  0  0  0  0  0
    0.9971   -6.5219  -33.9315 H   0  0  0  0  0  0  0  0  0  0  0  0
  1  2  2  0
  2  3  1  6
  2  4  1  0
  2  5  1  0
  5  6  1  0
  6  7  2  0
  6  8  1  1
  6  9  1  0
  9 10  1  0
 11 10  1  0
 11 12  1  0
 11 13  1  0
 12 16  1  0
 13 14  1  0
 13 15  1  0
 15 16  1  0
 16 17  1  0
 17 18  1  0
 17 21  1  0
 18 19  2  0
 19 20  1  0
 20 21  2  0
 20 26  1  0
 21 22  1  0
 22 23  2  0
 23 24  1  0
 23 25  1  0
 25 26  1  0
 26 27  2  0
 10 28  1  0
 10 29  1  0
 11 30  1  1
 13 31  1  1
 14 32  1  0
 15 33  1  0
 15 34  1  0
 16 35  1  1
 18 36  1  0
 24 37  1  0
 24 38  1  0
 25 39  1  0
M  CHG  3   3  -1   4  -1   8  -1
M  END
>  <filename_input>  (11) 
7ODY_DGI_docked.sdf

>  <pdb_id>  (11) 
7ODY_DGI

>  <pose_rank>  (11) 
10

>  <num_atoms_heavy>  (11) 
27

>  <num_torsions>  (11) 
6

>  <pose>  (11) 
[3.3189763656783575, -0.6940972971398689, -29.157757843734906, 2.664819795398731, -0.26644132242089896, 1.0924124685771135, 1.6889991350510034, 1.4912255354579245, -3.7637901004498198, -2.0352201318047447, 2.42777076766162, -1.2307519849871928]

>  <energy>  (11) 
-525.4005699116457

>  <inter_energy>  (11) 
-612.0337619751446

>  <intra_energy>  (11) 
84.08001027363336

>  <rmsd>  (11) 
8.59987

>  <sdf_rank>  (11) 
0

$$$$

     RDKit          3D

 39 41  0  0  0  0  0  0  0  0999 V2000
    0.3301   -3.2564  -31.8128 O   0  0  0  0  0  0  0  0  0  0  0  0
    1.5739   -4.0671  -31.7147 P   0  0  1  0  0  0  0  0  0  0  0  0
    1.4879   -5.2412  -30.7850 O   0  0  0  0  0  0  0  0  0  0  0  0
    2.0424   -4.6188  -33.0627 O   0  0  0  0  0  0  0  0  0  0  0  0
    2.7171   -3.1192  -31.1102 O   0  0  0  0  0  0  0  0  0  0  0  0
    4.2200   -2.6907  -31.4256 P   0  0  2  0  0  0  0  0  0  0  0  0
    3.8623   -1.4125  -32.0640 O   0  0  0  0  0  0  0  0  0  0  0  0
    4.6085   -3.8739  -32.2499 O   0  0  0  0  0  0  0  0  0  0  0  0
    4.4069   -2.7941  -29.8856 O   0  0  0  0  0  0  0  0  0  0  0  0
    4.4723   -1.6647  -28.9856 C   0  0  0  0  0  0  0  0  0  0  0  0
    4.9917   -0.4393  -29.6916 C   0  0  1  0  0  0  0  0  0  0  0  0
    4.5044    0.7432  -29.0179 O   0  0  0  0  0  0  0  0  0  0  0  0
    6.5186   -0.3399  -29.7139 C   0  0  1  0  0  0  0  0  0  0  0  0
    6.9918    0.0589  -31.0010 O   0  0  0  0  0  0  0  0  0  0  0  0
    6.8216    0.7465  -28.6912 C   0  0  0  0  0  0  0  0  0  0  0  0
    5.5770    1.6160  -28.7385 C   0  0  2  0  0  0  0  0  0  0  0  0
    5.2881    2.2848  -27.4621 N   0  0  0  0  0  0  0  0  0  0  0  0
    5.9358    3.3478  -26.8955 C   0  0  0  0  0  0  0  0  0  0  0  0
    5.4114    3.7235  -25.7507 N   0  0  0  0  0  0  0  0  0  0  0  0
    4.3572    2.8453  -25.5548 C   0  0  0  0  0  0  0  0  0  0  0  0
    4.2698    1.9586  -26.6066 C   0  0  0  0  0  0  0  0  0  0  0  0
    3.3666    0.9845  -26.8008 N   0  0  0  0  0  0  0  0  0  0  0  0
    2.4694    0.9187  -25.8259 C   0  0  0  0  0  0  0  0  0  0  0  0
    1.4650    0.0458  -25.9132 N   0  0  0  0  0  0  0  0  0  0  0  0
    2.4850    1.7449  -24.7326 N   0  0  0  0  0  0  0  0  0  0  0  0
    3.4081    2.7432  -24.5005 C   0  0  0  0  0  0  0  0  0  0  0  0
    3.3686    3.4126  -23.4675 O   0  0  0  0  0  0  0  0  0  0  0  0
    3.4646   -1.4557  -28.5973 H   0  0  0  0  0  0  0  0  0  0  0  0
    5.1594   -1.9122  -28.1631 H   0  0  0  0  0  0  0  0  0  0  0  0
    4.6354   -0.5179  -30.7293 H   0  0  0  0  0  0  0  0  0  0  0  0
    7.0033   -1.3019  -29.4912 H   0  0  0  0  0  0  0  0  0  0  0  0
    7.7443    0.6932  -30.8940 H   0  0  0  0  0  0  0  0  0  0  0  0
    6.9661    0.3169  -27.6889 H   0  0  0  0  0  0  0  0  0  0  0  0
    7.7466    1.3009  -28.9084 H   0  0  0  0  0  0  0  0  0  0  0  0
    5.7244    2.4051  -29.4906 H   0  0  0  0  0  0  0  0  0  0  0  0
    6.8078    3.8387  -27.3522 H   0  0  0  0  0  0  0  0  0  0  0  0
    0.7648   -0.0106  -25.1598 H   0  0  0  0  0  0  0  0  0  0  0  0
    1.3893   -0.5719  -26.7339 H   0  0  0  0  0  0  0  0  0  0  0  0
    1.7474    1.6093  -24.0266 H   0  0  0  0  0  0  0  0  0  0  0  0
  1  2  2  0
  2  3  1  1
  2  4  1  0
  2  5  1  0
  5  6  1  0
  6  7  2  0
  6  8  1  6
  6  9  1  0
  9 10  1  0
 11 10  1  0
 11 12  1  0
 11 13  1  0
 12 16  1  0
 13 14  1  0
 13 15  1  0
 15 16  1  0
 16 17  1  0
 17 18  1  0
 17 21  1  0
 18 19  2  0
 19 20  1  0
 20 21  2  0
 20 26  1  0
 21 22  1  0
 22 23  2  0
 23 24  1  0
 23 25  1  0
 25 26  1  0
 26 27  2  0
 10 28  1  0
 10 29  1  0
 11 30  1  6
 13 31  1  1
 14 32  1  0
 15 33  1  0
 15 34  1  0
 16 35  1  6
 18 36  1  0
 24 37  1  0
 24 38  1  0
 25 39  1  0
M  CHG  3   3  -1   4  -1   8  -1
M  END
>  <filename_input>  (12) 
7ODY_DGI_docked.sdf

>  <pdb_id>  (12) 
7ODY_DGI

>  <pose_rank>  (12) 
11

>  <num_atoms_heavy>  (12) 
27

>  <num_torsions>  (12) 
6

>  <pose>  (12) 
[4.991710345583942, -0.4392900662421137, -29.69155793252484, 2.9681418165322797, -4.861633233179593, 0.5458031588772512, 9.52720645341612, -17.40099519865059, -4.03496187302274, 6.384570958927205, 2.752806042275052, -2.7837376002939895]

>  <energy>  (12) 
-856.3346181750468

>  <inter_energy>  (12) 
-903.4866420898616

>  <intra_energy>  (12) 
63.02673043141387

>  <rmsd>  (12) 
2.77887

>  <sdf_rank>  (12) 
0

$$$$

     RDKit          3D

 39 41  0  0  0  0  0  0  0  0999 V2000
    7.7692    3.0802  -24.3111 O   0  0  0  0  0  0  0  0  0  0  0  0
    6.7397    3.1369  -25.3839 P   0  0  1  0  0  0  0  0  0  0  0  0
    6.5422    4.4923  -25.9954 O   0  0  0  0  0  0  0  0  0  0  0  0
    7.0227    2.1789  -26.5429 O   0  0  0  0  0  0  0  0  0  0  0  0
    5.3325    2.7531  -24.7181 O   0  0  0  0  0  0  0  0  0  0  0  0
    3.7772    3.0168  -24.9491 P   0  0  2  0  0  0  0  0  0  0  0  0
    3.6542    4.0264  -23.8838 O   0  0  0  0  0  0  0  0  0  0  0  0
    3.2925    1.6201  -24.7375 O   0  0  0  0  0  0  0  0  0  0  0  0
    4.2182    3.4155  -26.3856 O   0  0  0  0  0  0  0  0  0  0  0  0
    4.3603    2.4935  -27.4899 C   0  0  0  0  0  0  0  0  0  0  0  0
    3.0477    1.8275  -27.8114 C   0  0  1  0  0  0  0  0  0  0  0  0
    3.1215    1.2362  -29.1285 O   0  0  0  0  0  0  0  0  0  0  0  0
    2.6705    0.7054  -26.8417 C   0  0  1  0  0  0  0  0  0  0  0  0
    1.2918    0.7794  -26.4768 O   0  0  0  0  0  0  0  0  0  0  0  0
    2.9264   -0.5627  -27.6445 C   0  0  0  0  0  0  0  0  0  0  0  0
    2.7030   -0.1101  -29.0772 C   0  0  2  0  0  0  0  0  0  0  0  0
    3.5013   -0.8637  -30.0545 N   0  0  0  0  0  0  0  0  0  0  0  0
    4.8143   -0.6873  -30.3939 C   0  0  0  0  0  0  0  0  0  0  0  0
    5.2372   -1.5482  -31.2922 N   0  0  0  0  0  0  0  0  0  0  0  0
    4.1269   -2.3332  -31.5604 C   0  0  0  0  0  0  0  0  0  0  0  0
    3.0539   -1.9226  -30.7986 C   0  0  0  0  0  0  0  0  0  0  0  0
    1.8199   -2.4488  -30.7474 N   0  0  0  0  0  0  0  0  0  0  0  0
    1.6776   -3.4950  -31.5506 C   0  0  0  0  0  0  0  0  0  0  0  0
    0.5268   -4.1688  -31.5567 N   0  0  0  0  0  0  0  0  0  0  0  0
    2.6805   -3.9655  -32.3574 N   0  0  0  0  0  0  0  0  0  0  0  0
    3.9515   -3.4363  -32.4407 C   0  0  0  0  0  0  0  0  0  0  0  0
    4.7791   -3.9005  -33.2258 O   0  0  0  0  0  0  0  0  0  0  0  0
    4.7102    3.0444  -28.3754 H   0  0  0  0  0  0  0  0  0  0  0  0
    5.0862    1.7172  -27.2063 H   0  0  0  0  0  0  0  0  0  0  0  0
    2.2855    2.6173  -27.7392 H   0  0  0  0  0  0  0  0  0  0  0  0
    3.2415    0.7549  -25.9029 H   0  0  0  0  0  0  0  0  0  0  0  0
    1.2113    0.7837  -25.4901 H   0  0  0  0  0  0  0  0  0  0  0  0
    3.9560   -0.9217  -27.4992 H   0  0  0  0  0  0  0  0  0  0  0  0
    2.2792   -1.4015  -27.3487 H   0  0  0  0  0  0  0  0  0  0  0  0
    1.6452   -0.2641  -29.3366 H   0  0  0  0  0  0  0  0  0  0  0  0
    5.4521    0.0963  -29.9589 H   0  0  0  0  0  0  0  0  0  0  0  0
    0.4094   -4.9821  -32.1778 H   0  0  0  0  0  0  0  0  0  0  0  0
   -0.2448   -3.8760  -30.9404 H   0  0  0  0  0  0  0  0  0  0  0  0
    2.4678   -4.7807  -32.9500 H   0  0  0  0  0  0  0  0  0  0  0  0
  1  2  2  0
  2  3  1  6
  2  4  1  0
  2  5  1  0
  5  6  1  0
  6  7  2  0
  6  8  1  6
  6  9  1  0
  9 10  1  0
 11 10  1  0
 11 12  1  0
 11 13  1  0
 12 16  1  0
 13 14  1  0
 13 15  1  0
 15 16  1  0
 16 17  1  0
 17 18  1  0
 17 21  1  0
 18 19  2  0
 19 20  1  0
 20 21  2  0
 20 26  1  0
 21 22  1  0
 22 23  2  0
 23 24  1  0
 23 25  1  0
 25 26  1  0
 26 27  2  0
 10 28  1  0
 10 29  1  0
 11 30  1  6
 13 31  1  1
 14 32  1  0
 15 33  1  0
 15 34  1  0
 16 35  1  6
 18 36  1  0
 24 37  1  0
 24 38  1  0
 25 39  1  0
M  CHG  3   3  -1   4  -1   8  -1
M  END
>  <filename_input>  (13) 
7ODY_DGI_docked.sdf

>  <pdb_id>  (13) 
7ODY_DGI

>  <pose_rank>  (13) 
12

>  <num_atoms_heavy>  (13) 
27

>  <num_torsions>  (13) 
6

>  <pose>  (13) 
[3.047746123261835, 1.8274785150153392, -27.81143573952201, -1.6684893256399342, 1.9133542478754364, -2.287032850071738, 0.542787257261725, 1.5995055202697992, -2.489596947557711, 3.432537465185972, -0.7748963526037017, 2.1711389245342936]

>  <energy>  (13) 
-468.6404103151722

>  <inter_energy>  (13) 
-616.7318189741976

>  <intra_energy>  (13) 
144.24459498950236

>  <rmsd>  (13) 
8.42143

>  <sdf_rank>  (13) 
0

$$$$

     RDKit          3D

 39 41  0  0  0  0  0  0  0  0999 V2000
    5.0200   -0.0773  -27.2647 O   0  0  0  0  0  0  0  0  0  0  0  0
    4.1392   -0.1586  -28.4613 P   0  0  1  0  0  0  0  0  0  0  0  0
    2.6697   -0.1741  -28.1609 O   0  0  0  0  0  0  0  0  0  0  0  0
    4.3636    0.9836  -29.4543 O   0  0  0  0  0  0  0  0  0  0  0  0
    4.4471   -1.5539  -29.1887 O   0  0  0  0  0  0  0  0  0  0  0  0
    5.4246   -2.1440  -30.3013 P   0  0  2  0  0  0  0  0  0  0  0  0
    6.4868   -2.5264  -29.3554 O   0  0  0  0  0  0  0  0  0  0  0  0
    5.5552   -0.9157  -31.1408 O   0  0  0  0  0  0  0  0  0  0  0  0
    4.2405   -3.1032  -30.6092 O   0  0  0  0  0  0  0  0  0  0  0  0
    2.8483   -2.7984  -30.3667 C   0  0  0  0  0  0  0  0  0  0  0  0
    2.0142   -3.0659  -31.5925 C   0  0  1  0  0  0  0  0  0  0  0  0
    2.8854   -3.3091  -32.7200 O   0  0  0  0  0  0  0  0  0  0  0  0
    1.1022   -4.2880  -31.4645 C   0  0  1  0  0  0  0  0  0  0  0  0
   -0.2027   -4.0150  -31.9764 O   0  0  0  0  0  0  0  0  0  0  0  0
    1.7879   -5.3383  -32.3275 C   0  0  0  0  0  0  0  0  0  0  0  0
    2.5107   -4.5035  -33.3706 C   0  0  2  0  0  0  0  0  0  0  0  0
    3.7351   -5.1402  -33.8760 N   0  0  0  0  0  0  0  0  0  0  0  0
    4.9475   -5.2601  -33.2548 C   0  0  0  0  0  0  0  0  0  0  0  0
    5.8358   -5.9093  -33.9734 N   0  0  0  0  0  0  0  0  0  0  0  0
    5.1611   -6.2284  -35.1413 C   0  0  0  0  0  0  0  0  0  0  0  0
    3.8645   -5.7635  -35.0884 C   0  0  0  0  0  0  0  0  0  0  0  0
    2.8927   -5.9027  -36.0042 N   0  0  0  0  0  0  0  0  0  0  0  0
    3.2899   -6.5854  -37.0700 C   0  0  0  0  0  0  0  0  0  0  0  0
    2.4143   -6.8668  -38.0357 N   0  0  0  0  0  0  0  0  0  0  0  0
    4.5624   -7.0718  -37.2202 N   0  0  0  0  0  0  0  0  0  0  0  0
    5.5832   -6.9313  -36.3033 C   0  0  0  0  0  0  0  0  0  0  0  0
    6.7102   -7.3676  -36.5407 O   0  0  0  0  0  0  0  0  0  0  0  0
    2.4822   -3.4240  -29.5393 H   0  0  0  0  0  0  0  0  0  0  0  0
    2.7631   -1.7319  -30.1115 H   0  0  0  0  0  0  0  0  0  0  0  0
    1.3820   -2.1754  -31.7246 H   0  0  0  0  0  0  0  0  0  0  0  0
    0.9647   -4.5991  -30.4184 H   0  0  0  0  0  0  0  0  0  0  0  0
   -0.8318   -3.8834  -31.2234 H   0  0  0  0  0  0  0  0  0  0  0  0
    2.4986   -5.9338  -31.7357 H   0  0  0  0  0  0  0  0  0  0  0  0
    1.0877   -6.0661  -32.7634 H   0  0  0  0  0  0  0  0  0  0  0  0
    1.8429   -4.3576  -34.2325 H   0  0  0  0  0  0  0  0  0  0  0  0
    5.1579   -4.8541  -32.2543 H   0  0  0  0  0  0  0  0  0  0  0  0
    2.7159   -7.3965  -38.8660 H   0  0  0  0  0  0  0  0  0  0  0  0
    1.4365   -6.5545  -37.9513 H   0  0  0  0  0  0  0  0  0  0  0  0
    4.7736   -7.5839  -38.0885 H   0  0  0  0  0  0  0  0  0  0  0  0
  1  2  2  0
  2  3  1  1
  2  4  1  0
  2  5  1  0
  5  6  1  0
  6  7  2  0
  6  8  1  6
  6  9  1  0
  9 10  1  0
 11 10  1  0
 11 12  1  0
 11 13  1  0
 12 16  1  0
 13 14  1  0
 13 15  1  0
 15 16  1  0
 16 17  1  0
 17 18  1  0
 17 21  1  0
 18 19  2  0
 19 20  1  0
 20 21  2  0
 20 26  1  0
 21 22  1  0
 22 23  2  0
 23 24  1  0
 23 25  1  0
 25 26  1  0
 26 27  2  0
 10 28  1  0
 10 29  1  0
 11 30  1  6
 13 31  1  1
 14 32  1  0
 15 33  1  0
 15 34  1  0
 16 35  1  6
 18 36  1  0
 24 37  1  0
 24 38  1  0
 25 39  1  0
M  CHG  3   3  -1   4  -1   8  -1
M  END
>  <filename_input>  (14) 
7ODY_DGI_docked.sdf

>  <pdb_id>  (14) 
7ODY_DGI

>  <pose_rank>  (14) 
13

>  <num_atoms_heavy>  (14) 
27

>  <num_torsions>  (14) 
6

>  <pose>  (14) 
[2.014183529308719, -3.0658629856769486, -31.59245642698216, 0.7428842387622016, -2.309197811464272, 2.261970662573549, 0.6416010101026892, -1.434049736920072, -1.2996121141073165, -3.9093289158417592, 2.593155433860521, -2.07081961378984]

>  <energy>  (14) 
-501.3443341937483

>  <inter_energy>  (14) 
-514.6093784819501

>  <intra_energy>  (14) 
19.673169446765186

>  <rmsd>  (14) 
9.69119

>  <sdf_rank>  (14) 
0

$$$$

     RDKit          3D

 39 41  0  0  0  0  0  0  0  0999 V2000
    1.8752    1.4670  -21.9737 O   0  0  0  0  0  0  0  0  0  0  0  0
    2.8140    1.0467  -23.0489 P   0  0  1  0  0  0  0  0  0  0  0  0
    3.9372    0.1629  -22.5934 O   0  0  0  0  0  0  0  0  0  0  0  0
    2.1240    0.3082  -24.1977 O   0  0  0  0  0  0  0  0  0  0  0  0
    3.5111    2.3722  -23.6213 O   0  0  0  0  0  0  0  0  0  0  0  0
    3.1106    3.8506  -24.0636 P   0  0  2  0  0  0  0  0  0  0  0  0
    3.4168    4.4662  -22.7610 O   0  0  0  0  0  0  0  0  0  0  0  0
    1.6988    3.5757  -24.4655 O   0  0  0  0  0  0  0  0  0  0  0  0
    4.2155    3.6595  -25.1404 O   0  0  0  0  0  0  0  0  0  0  0  0
    4.2394    2.5937  -26.1168 C   0  0  0  0  0  0  0  0  0  0  0  0
    5.6515    2.2679  -26.5283 C   0  0  1  0  0  0  0  0  0  0  0  0
    5.7319    0.8730  -26.8989 O   0  0  0  0  0  0  0  0  0  0  0  0
    6.1468    3.0757  -27.7300 C   0  0  1  0  0  0  0  0  0  0  0  0
    7.4791    3.5462  -27.5228 O   0  0  0  0  0  0  0  0  0  0  0  0
    6.1247    2.0687  -28.8717 C   0  0  0  0  0  0  0  0  0  0  0  0
    6.3462    0.7440  -28.1624 C   0  0  2  0  0  0  0  0  0  0  0  0
    5.7194   -0.3938  -28.8498 N   0  0  0  0  0  0  0  0  0  0  0  0
    6.3159   -1.5239  -29.3370 C   0  0  0  0  0  0  0  0  0  0  0  0
    5.4653   -2.3653  -29.8807 N   0  0  0  0  0  0  0  0  0  0  0  0
    4.2353   -1.7412  -29.7446 C   0  0  0  0  0  0  0  0  0  0  0  0
    4.3809   -0.5284  -29.1057 C   0  0  0  0  0  0  0  0  0  0  0  0
    3.4263    0.3503  -28.7609 N   0  0  0  0  0  0  0  0  0  0  0  0
    2.2106   -0.0573  -29.1012 C   0  0  0  0  0  0  0  0  0  0  0  0
    1.1506    0.6770  -28.7611 N   0  0  0  0  0  0  0  0  0  0  0  0
    1.9685   -1.2380  -29.7536 N   0  0  0  0  0  0  0  0  0  0  0  0
    2.9300   -2.1516  -30.1323 C   0  0  0  0  0  0  0  0  0  0  0  0
    2.6239   -3.1706  -30.7525 O   0  0  0  0  0  0  0  0  0  0  0  0
    3.7760    1.6964  -25.6807 H   0  0  0  0  0  0  0  0  0  0  0  0
    3.6826    2.9221  -27.0068 H   0  0  0  0  0  0  0  0  0  0  0  0
    6.2811    2.5171  -25.6614 H   0  0  0  0  0  0  0  0  0  0  0  0
    5.5300    3.9671  -27.9170 H   0  0  0  0  0  0  0  0  0  0  0  0
    7.6593    3.6098  -26.5514 H   0  0  0  0  0  0  0  0  0  0  0  0
    5.1555    2.0817  -29.3918 H   0  0  0  0  0  0  0  0  0  0  0  0
    6.8762    2.2763  -29.6477 H   0  0  0  0  0  0  0  0  0  0  0  0
    7.4265    0.5408  -28.1203 H   0  0  0  0  0  0  0  0  0  0  0  0
    7.3985   -1.7099  -29.2796 H   0  0  0  0  0  0  0  0  0  0  0  0
    0.2038    0.3664  -29.0220 H   0  0  0  0  0  0  0  0  0  0  0  0
    1.2787    1.5546  -28.2375 H   0  0  0  0  0  0  0  0  0  0  0  0
    0.9887   -1.4613  -29.9796 H   0  0  0  0  0  0  0  0  0  0  0  0
  1  2  2  0
  2  3  1  1
  2  4  1  0
  2  5  1  0
  5  6  1  0
  6  7  2  0
  6  8  1  6
  6  9  1  0
  9 10  1  0
 11 10  1  0
 11 12  1  0
 11 13  1  0
 12 16  1  0
 13 14  1  0
 13 15  1  0
 15 16  1  0
 16 17  1  0
 17 18  1  0
 17 21  1  0
 18 19  2  0
 19 20  1  0
 20 21  2  0
 20 26  1  0
 21 22  1  0
 22 23  2  0
 23 24  1  0
 23 25  1  0
 25 26  1  0
 26 27  2  0
 10 28  1  0
 10 29  1  0
 11 30  1  1
 13 31  1  6
 14 32  1  0
 15 33  1  0
 15 34  1  0
 16 35  1  1
 18 36  1  0
 24 37  1  0
 24 38  1  0
 25 39  1  0
M  CHG  3   3  -1   4  -1   8  -1
M  END
>  <filename_input>  (15) 
7ODY_DGI_docked.sdf

>  <pdb_id>  (15) 
7ODY_DGI

>  <pose_rank>  (15) 
14

>  <num_atoms_heavy>  (15) 
27

>  <num_torsions>  (15) 
6

>  <pose>  (15) 
[5.651532516662179, 2.2679178643488256, -26.528262477018334, -2.7806600388934033, -1.438629678987301, 0.6988055692593155, -2.2125444026596806, 1.378520384301903, 0.07036061992609823, -3.3828889255863537, 2.665629817602152, -1.2867737145720914]

>  <energy>  (15) 
-544.1890736324831

>  <inter_energy>  (15) 
-562.3416616249642

>  <intra_energy>  (15) 
18.400276289735725

>  <rmsd>  (15) 
7.81103

>  <sdf_rank>  (15) 
0

$$$$

     RDKit          3D

 39 41  0  0  0  0  0  0  0  0999 V2000
    6.6691    3.2420  -26.4941 O   0  0  0  0  0  0  0  0  0  0  0  0
    6.7719    3.7835  -25.1120 P   0  0  1  0  0  0  0  0  0  0  0  0
    7.8680    3.1843  -24.2815 O   0  0  0  0  0  0  0  0  0  0  0  0
    6.9806    5.2987  -25.0716 O   0  0  0  0  0  0  0  0  0  0  0  0
    5.4067    3.4218  -24.3530 O   0  0  0  0  0  0  0  0  0  0  0  0
    4.9248    2.8464  -22.9464 P   0  0  2  0  0  0  0  0  0  0  0  0
    5.3605    4.0181  -22.1675 O   0  0  0  0  0  0  0  0  0  0  0  0
    5.7282    1.5875  -22.9466 O   0  0  0  0  0  0  0  0  0  0  0  0
    3.5241    2.8061  -23.6198 O   0  0  0  0  0  0  0  0  0  0  0  0
    3.0551    3.7553  -24.6041 C   0  0  0  0  0  0  0  0  0  0  0  0
    2.1739    3.0850  -25.6257 C   0  0  1  0  0  0  0  0  0  0  0  0
    2.9115    2.9181  -26.8577 O   0  0  0  0  0  0  0  0  0  0  0  0
    1.6893    1.6952  -25.2069 C   0  0  1  0  0  0  0  0  0  0  0  0
    0.3037    1.5194  -25.5045 O   0  0  0  0  0  0  0  0  0  0  0  0
    2.5261    0.7520  -26.0603 C   0  0  0  0  0  0  0  0  0  0  0  0
    2.8178    1.5814  -27.2990 C   0  0  2  0  0  0  0  0  0  0  0  0
    4.0922    1.2332  -27.9431 N   0  0  0  0  0  0  0  0  0  0  0  0
    5.3419    1.7151  -27.6669 C   0  0  0  0  0  0  0  0  0  0  0  0
    6.2806    1.1790  -28.4140 N   0  0  0  0  0  0  0  0  0  0  0  0
    5.5986    0.2944  -29.2346 C   0  0  0  0  0  0  0  0  0  0  0  0
    4.2504    0.3167  -28.9481 C   0  0  0  0  0  0  0  0  0  0  0  0
    3.2706   -0.4177  -29.4985 N   0  0  0  0  0  0  0  0  0  0  0  0
    3.7189   -1.2539  -30.4256 C   0  0  0  0  0  0  0  0  0  0  0  0
    2.8729   -2.1010  -31.0130 N   0  0  0  0  0  0  0  0  0  0  0  0
    5.0374   -1.3353  -30.7906 N   0  0  0  0  0  0  0  0  0  0  0  0
    6.0615   -0.5838  -30.2529 C   0  0  0  0  0  0  0  0  0  0  0  0
    7.2143   -0.6956  -30.6716 O   0  0  0  0  0  0  0  0  0  0  0  0
    2.4812    4.5450  -24.0971 H   0  0  0  0  0  0  0  0  0  0  0  0
    3.9269    4.1829  -25.1209 H   0  0  0  0  0  0  0  0  0  0  0  0
    1.2956    3.7377  -25.7381 H   0  0  0  0  0  0  0  0  0  0  0  0
    1.7972    1.5233  -24.1257 H   0  0  0  0  0  0  0  0  0  0  0  0
   -0.2095    1.4544  -24.6604 H   0  0  0  0  0  0  0  0  0  0  0  0
    3.4561    0.4716  -25.5441 H   0  0  0  0  0  0  0  0  0  0  0  0
    2.0174   -0.1973  -26.2838 H   0  0  0  0  0  0  0  0  0  0  0  0
    2.0231    1.4050  -28.0388 H   0  0  0  0  0  0  0  0  0  0  0  0
    5.5412    2.4750  -26.8970 H   0  0  0  0  0  0  0  0  0  0  0  0
    3.2142   -2.7530  -31.7337 H   0  0  0  0  0  0  0  0  0  0  0  0
    1.8781   -2.1034  -30.7460 H   0  0  0  0  0  0  0  0  0  0  0  0
    5.2836   -2.0128  -31.5263 H   0  0  0  0  0  0  0  0  0  0  0  0
  1  2  2  0
  2  3  1  1
  2  4  1  0
  2  5  1  0
  5  6  1  0
  6  7  2  0
  6  8  1  1
  6  9  1  0
  9 10  1  0
 11 10  1  0
 11 12  1  0
 11 13  1  0
 12 16  1  0
 13 14  1  0
 13 15  1  0
 15 16  1  0
 16 17  1  0
 17 18  1  0
 17 21  1  0
 18 19  2  0
 19 20  1  0
 20 21  2  0
 20 26  1  0
 21 22  1  0
 22 23  2  0
 23 24  1  0
 23 25  1  0
 25 26  1  0
 26 27  2  0
 10 28  1  0
 10 29  1  0
 11 30  1  6
 13 31  1  1
 14 32  1  0
 15 33  1  0
 15 34  1  0
 16 35  1  6
 18 36  1  0
 24 37  1  0
 24 38  1  0
 25 39  1  0
M  CHG  3   3  -1   4  -1   8  -1
M  END
>  <filename_input>  (16) 
7ODY_DGI_docked.sdf

>  <pdb_id>  (16) 
7ODY_DGI

>  <pose_rank>  (16) 
15

>  <num_atoms_heavy>  (16) 
27

>  <num_torsions>  (16) 
6

>  <pose>  (16) 
[2.1738505669118457, 3.084964783449021, -25.625727675693142, 1.2889248596857656, -2.07565480178681, 2.3186821539197515, 0.44234672279704657, -3.072020961814405, -1.0301766913717698, 1.3196837013110274, 2.1930668861347353, 1.8440306981685952]

>  <energy>  (16) 
-455.1602573730234

>  <inter_energy>  (16) 
-552.4836707528324

>  <intra_energy>  (16) 
75.17116754513533

>  <rmsd>  (16) 
8.44311

>  <sdf_rank>  (16) 
0

$$$$

     RDKit          3D

 39 41  0  0  0  0  0  0  0  0999 V2000
    0.2375   -2.8823  -31.7422 O   0  0  0  0  0  0  0  0  0  0  0  0
    1.3928   -3.8154  -31.8342 P   0  0  1  0  0  0  0  0  0  0  0  0
    1.1733   -5.1536  -31.1932 O   0  0  0  0  0  0  0  0  0  0  0  0
    1.8300   -4.0941  -33.2737 O   0  0  0  0  0  0  0  0  0  0  0  0
    2.6125   -3.1478  -31.0358 O   0  0  0  0  0  0  0  0  0  0  0  0
    4.0770   -2.5860  -31.3208 P   0  0  2  0  0  0  0  0  0  0  0  0
    3.6213   -1.2846  -31.8388 O   0  0  0  0  0  0  0  0  0  0  0  0
    4.5377   -3.6595  -32.2513 O   0  0  0  0  0  0  0  0  0  0  0  0
    4.2907   -2.8133  -29.7978 O   0  0  0  0  0  0  0  0  0  0  0  0
    4.7737   -1.8112  -28.8746 C   0  0  0  0  0  0  0  0  0  0  0  0
    5.1483   -0.5441  -29.5983 C   0  0  1  0  0  0  0  0  0  0  0  0
    4.5574    0.5869  -28.9192 O   0  0  0  0  0  0  0  0  0  0  0  0
    6.6560   -0.2886  -29.6568 C   0  0  1  0  0  0  0  0  0  0  0  0
    7.0563    0.1474  -30.9564 O   0  0  0  0  0  0  0  0  0  0  0  0
    6.8688    0.8304  -28.6466 C   0  0  0  0  0  0  0  0  0  0  0  0
    5.5407    1.5672  -28.6691 C   0  0  2  0  0  0  0  0  0  0  0  0
    5.2136    2.2120  -27.3895 N   0  0  0  0  0  0  0  0  0  0  0  0
    5.9067    3.1895  -26.7304 C   0  0  0  0  0  0  0  0  0  0  0  0
    5.3301    3.5690  -25.6122 N   0  0  0  0  0  0  0  0  0  0  0  0
    4.1903    2.7843  -25.5337 C   0  0  0  0  0  0  0  0  0  0  0  0
    4.1070    1.9490  -26.6270 C   0  0  0  0  0  0  0  0  0  0  0  0
    3.1390    1.0694  -26.9303 N   0  0  0  0  0  0  0  0  0  0  0  0
    2.1664    1.0500  -26.0284 C   0  0  0  0  0  0  0  0  0  0  0  0
    1.0985    0.2766  -26.2281 N   0  0  0  0  0  0  0  0  0  0  0  0
    2.1699    1.8303  -24.9017 N   0  0  0  0  0  0  0  0  0  0  0  0
    3.1568    2.7306  -24.5583 C   0  0  0  0  0  0  0  0  0  0  0  0
    3.0964    3.3622  -23.5027 O   0  0  0  0  0  0  0  0  0  0  0  0
    3.9843   -1.5869  -28.1422 H   0  0  0  0  0  0  0  0  0  0  0  0
    5.6688   -2.2033  -28.3696 H   0  0  0  0  0  0  0  0  0  0  0  0
    4.7784   -0.6663  -30.6271 H   0  0  0  0  0  0  0  0  0  0  0  0
    7.2419   -1.1942  -29.4407 H   0  0  0  0  0  0  0  0  0  0  0  0
    7.7233    0.8738  -30.8699 H   0  0  0  0  0  0  0  0  0  0  0  0
    7.0794    0.4251  -27.6459 H   0  0  0  0  0  0  0  0  0  0  0  0
    7.7267    1.4752  -28.8879 H   0  0  0  0  0  0  0  0  0  0  0  0
    5.5891    2.3618  -29.4282 H   0  0  0  0  0  0  0  0  0  0  0  0
    6.8516    3.6151  -27.0991 H   0  0  0  0  0  0  0  0  0  0  0  0
    0.3396    0.2566  -25.5320 H   0  0  0  0  0  0  0  0  0  0  0  0
    1.0326   -0.3008  -27.0785 H   0  0  0  0  0  0  0  0  0  0  0  0
    1.3704    1.7367  -24.2591 H   0  0  0  0  0  0  0  0  0  0  0  0
  1  2  2  0
  2  3  1  1
  2  4  1  0
  2  5  1  0
  5  6  1  0
  6  7  2  0
  6  8  1  6
  6  9  1  0
  9 10  1  0
 11 10  1  0
 11 12  1  0
 11 13  1  0
 12 16  1  0
 13 14  1  0
 13 15  1  0
 15 16  1  0
 16 17  1  0
 17 18  1  0
 17 21  1  0
 18 19  2  0
 19 20  1  0
 20 21  2  0
 20 26  1  0
 21 22  1  0
 22 23  2  0
 23 24  1  0
 23 25  1  0
 25 26  1  0
 26 27  2  0
 10 28  1  0
 10 29  1  0
 11 30  1  6
 13 31  1  1
 14 32  1  0
 15 33  1  0
 15 34  1  0
 16 35  1  6
 18 36  1  0
 24 37  1  0
 24 38  1  0
 25 39  1  0
M  CHG  3   3  -1   4  -1   8  -1
M  END
>  <filename_input>  (17) 
7ODY_DGI_docked.sdf

>  <pdb_id>  (17) 
7ODY_DGI

>  <pose_rank>  (17) 
16

>  <num_atoms_heavy>  (17) 
27

>  <num_torsions>  (17) 
6

>  <pose>  (17) 
[5.148279262178398, -0.5441063862158732, -29.598328517221404, 3.1466019310164763, -4.728941576121303, -0.475900363936195, 9.305135610622948, -17.79782223340461, -3.6376284685850773, 5.965636369216863, 2.4148423618956256, -2.5432459409005053]

>  <energy>  (17) 
-862.8302677200822

>  <inter_energy>  (17) 
-917.7601997470481

>  <intra_energy>  (17) 
56.83934188676435

>  <rmsd>  (17) 
2.82292

>  <sdf_rank>  (17) 
0

$$$$

     RDKit          3D

 39 41  0  0  0  0  0  0  0  0999 V2000
    8.7481    3.5174  -27.7000 O   0  0  0  0  0  0  0  0  0  0  0  0
    7.4861    2.7309  -27.6464 P   0  0  1  0  0  0  0  0  0  0  0  0
    6.4076    3.2081  -28.5734 O   0  0  0  0  0  0  0  0  0  0  0  0
    7.6879    1.2449  -27.9496 O   0  0  0  0  0  0  0  0  0  0  0  0
    6.8864    2.8876  -26.1677 O   0  0  0  0  0  0  0  0  0  0  0  0
    5.5879    2.4701  -25.3424 P   0  0  2  0  0  0  0  0  0  0  0  0
    5.1056    3.8481  -25.1479 O   0  0  0  0  0  0  0  0  0  0  0  0
    6.2687    1.7356  -24.2345 O   0  0  0  0  0  0  0  0  0  0  0  0
    5.2247    1.6659  -26.6224 O   0  0  0  0  0  0  0  0  0  0  0  0
    4.4089    2.1657  -27.7061 C   0  0  0  0  0  0  0  0  0  0  0  0
    3.0865    1.4463  -27.7645 C   0  0  1  0  0  0  0  0  0  0  0  0
    2.9383    0.8227  -29.0602 O   0  0  0  0  0  0  0  0  0  0  0  0
    2.9392    0.3383  -26.7193 C   0  0  1  0  0  0  0  0  0  0  0  0
    1.6500    0.3744  -26.1060 O   0  0  0  0  0  0  0  0  0  0  0  0
    3.0914   -0.9413  -27.5301 C   0  0  0  0  0  0  0  0  0  0  0  0
    2.5893   -0.5354  -28.9051 C   0  0  2  0  0  0  0  0  0  0  0  0
    3.2217   -1.2870  -29.9984 N   0  0  0  0  0  0  0  0  0  0  0  0
    4.4247   -1.0517  -30.6048 C   0  0  0  0  0  0  0  0  0  0  0  0
    4.7133   -1.9281  -31.5405 N   0  0  0  0  0  0  0  0  0  0  0  0
    3.6258   -2.7872  -31.5491 C   0  0  0  0  0  0  0  0  0  0  0  0
    2.7040   -2.4036  -30.5987 C   0  0  0  0  0  0  0  0  0  0  0  0
    1.5430   -2.9968  -30.2785 N   0  0  0  0  0  0  0  0  0  0  0  0
    1.3106   -4.0860  -30.9993 C   0  0  0  0  0  0  0  0  0  0  0  0
    0.2291   -4.8242  -30.7470 N   0  0  0  0  0  0  0  0  0  0  0  0
    2.1588   -4.5354  -31.9774 N   0  0  0  0  0  0  0  0  0  0  0  0
    3.3493   -3.9387  -32.3367 C   0  0  0  0  0  0  0  0  0  0  0  0
    4.0301   -4.3910  -33.2580 O   0  0  0  0  0  0  0  0  0  0  0  0
    4.2273    3.2398  -27.5534 H   0  0  0  0  0  0  0  0  0  0  0  0
    4.9422    1.9950  -28.6529 H   0  0  0  0  0  0  0  0  0  0  0  0
    2.3206    2.2109  -27.5677 H   0  0  0  0  0  0  0  0  0  0  0  0
    3.6717    0.4328  -25.9042 H   0  0  0  0  0  0  0  0  0  0  0  0
    1.7528    0.3715  -25.1214 H   0  0  0  0  0  0  0  0  0  0  0  0
    4.1433   -1.2605  -27.5716 H   0  0  0  0  0  0  0  0  0  0  0  0
    2.5433   -1.7937  -27.1024 H   0  0  0  0  0  0  0  0  0  0  0  0
    1.5086   -0.7328  -28.9601 H   0  0  0  0  0  0  0  0  0  0  0  0
    5.0843   -0.2133  -30.3364 H   0  0  0  0  0  0  0  0  0  0  0  0
    0.0426   -5.6711  -31.3028 H   0  0  0  0  0  0  0  0  0  0  0  0
   -0.4198   -4.5475  -29.9965 H   0  0  0  0  0  0  0  0  0  0  0  0
    1.8850   -5.3884  -32.4857 H   0  0  0  0  0  0  0  0  0  0  0  0
  1  2  2  0
  2  3  1  6
  2  4  1  0
  2  5  1  0
  5  6  1  0
  6  7  2  0
  6  8  1  1
  6  9  1  0
  9 10  1  0
 11 10  1  0
 11 12  1  0
 11 13  1  0
 12 16  1  0
 13 14  1  0
 13 15  1  0
 15 16  1  0
 16 17  1  0
 17 18  1  0
 17 21  1  0
 18 19  2  0
 19 20  1  0
 20 21  2  0
 20 26  1  0
 21 22  1  0
 22 23  2  0
 23 24  1  0
 23 25  1  0
 25 26  1  0
 26 27  2  0
 10 28  1  0
 10 29  1  0
 11 30  1  1
 13 31  1  1
 14 32  1  0
 15 33  1  0
 15 34  1  0
 16 35  1  1
 18 36  1  0
 24 37  1  0
 24 38  1  0
 25 39  1  0
M  CHG  3   3  -1   4  -1   8  -1
M  END
>  <filename_input>  (18) 
7ODY_DGI_docked.sdf

>  <pdb_id>  (18) 
7ODY_DGI

>  <pose_rank>  (18) 
17

>  <num_atoms_heavy>  (18) 
27

>  <num_torsions>  (18) 
6

>  <pose>  (18) 
[3.0865001776973076, 1.4462675262304852, -27.764547826727068, -1.9681706256376363, 1.863772655626396, -2.2253545198935543, 0.5074240443934296, -3.371354635649686, 0.7801966469801195, 0.2850072241426789, -0.9793014159254182, 2.5440190477672213]

>  <energy>  (18) 
-366.22928485133315

>  <inter_energy>  (18) 
-460.61337599088347

>  <intra_energy>  (18) 
91.83498610201718

>  <rmsd>  (18) 
8.13819

>  <sdf_rank>  (18) 
0

$$$$

     RDKit          3D

 39 41  0  0  0  0  0  0  0  0999 V2000
    3.4965    3.3763  -22.0847 O   0  0  0  0  0  0  0  0  0  0  0  0
    3.6566    2.8707  -23.4749 P   0  0  1  0  0  0  0  0  0  0  0  0
    3.8497    1.3874  -23.5866 O   0  0  0  0  0  0  0  0  0  0  0  0
    2.4766    3.2208  -24.3838 O   0  0  0  0  0  0  0  0  0  0  0  0
    4.9917    3.5273  -24.0726 O   0  0  0  0  0  0  0  0  0  0  0  0
    5.9814    3.3355  -25.3077 P   0  0  2  0  0  0  0  0  0  0  0  0
    6.8249    2.3255  -24.6461 O   0  0  0  0  0  0  0  0  0  0  0  0
    6.4406    4.7512  -25.4323 O   0  0  0  0  0  0  0  0  0  0  0  0
    4.6927    2.9269  -26.0754 O   0  0  0  0  0  0  0  0  0  0  0  0
    4.6472    2.5603  -27.4729 C   0  0  0  0  0  0  0  0  0  0  0  0
    3.2654    2.1098  -27.8697 C   0  0  1  0  0  0  0  0  0  0  0  0
    3.3467    1.3318  -29.0853 O   0  0  0  0  0  0  0  0  0  0  0  0
    2.5787    1.2286  -26.8238 C   0  0  1  0  0  0  0  0  0  0  0  0
    1.2140    1.6086  -26.6433 O   0  0  0  0  0  0  0  0  0  0  0  0
    2.6523   -0.1671  -27.4277 C   0  0  0  0  0  0  0  0  0  0  0  0
    2.6641    0.1080  -28.9216 C   0  0  2  0  0  0  0  0  0  0  0  0
    3.3863   -0.9132  -29.6935 N   0  0  0  0  0  0  0  0  0  0  0  0
    4.7373   -1.0803  -29.8238 C   0  0  0  0  0  0  0  0  0  0  0  0
    5.0620   -2.1108  -30.5718 N   0  0  0  0  0  0  0  0  0  0  0  0
    3.8442   -2.6471  -30.9593 C   0  0  0  0  0  0  0  0  0  0  0  0
    2.8058   -1.9193  -30.4186 C   0  0  0  0  0  0  0  0  0  0  0  0
    1.4866   -2.1412  -30.5322 N   0  0  0  0  0  0  0  0  0  0  0  0
    1.2104   -3.2112  -31.2660 C   0  0  0  0  0  0  0  0  0  0  0  0
   -0.0566   -3.6012  -31.4109 N   0  0  0  0  0  0  0  0  0  0  0  0
    2.1735   -3.9860  -31.8580 N   0  0  0  0  0  0  0  0  0  0  0  0
    3.5335   -3.7734  -31.7702 C   0  0  0  0  0  0  0  0  0  0  0  0
    4.3266   -4.4997  -32.3702 O   0  0  0  0  0  0  0  0  0  0  0  0
    4.9302    3.4311  -28.0824 H   0  0  0  0  0  0  0  0  0  0  0  0
    5.3475    1.7285  -27.6394 H   0  0  0  0  0  0  0  0  0  0  0  0
    2.6734    3.0292  -27.9891 H   0  0  0  0  0  0  0  0  0  0  0  0
    3.0543    1.3061  -25.8350 H   0  0  0  0  0  0  0  0  0  0  0  0
    1.0123    1.6648  -25.6757 H   0  0  0  0  0  0  0  0  0  0  0  0
    3.5700   -0.6860  -27.1139 H   0  0  0  0  0  0  0  0  0  0  0  0
    1.8246   -0.8199  -27.1134 H   0  0  0  0  0  0  0  0  0  0  0  0
    1.6271    0.1170  -29.2884 H   0  0  0  0  0  0  0  0  0  0  0  0
    5.4777   -0.4188  -29.3501 H   0  0  0  0  0  0  0  0  0  0  0  0
   -0.2782   -4.4311  -31.9793 H   0  0  0  0  0  0  0  0  0  0  0  0
   -0.8136   -3.0724  -30.9546 H   0  0  0  0  0  0  0  0  0  0  0  0
    1.8558   -4.7928  -32.4139 H   0  0  0  0  0  0  0  0  0  0  0  0
  1  2  2  0
  2  3  1  1
  2  4  1  0
  2  5  1  0
  5  6  1  0
  6  7  2  0
  6  8  1  6
  6  9  1  0
  9 10  1  0
 11 10  1  0
 11 12  1  0
 11 13  1  0
 12 16  1  0
 13 14  1  0
 13 15  1  0
 15 16  1  0
 16 17  1  0
 17 18  1  0
 17 21  1  0
 18 19  2  0
 19 20  1  0
 20 21  2  0
 20 26  1  0
 21 22  1  0
 22 23  2  0
 23 24  1  0
 23 25  1  0
 25 26  1  0
 26 27  2  0
 10 28  1  0
 10 29  1  0
 11 30  1  6
 13 31  1  1
 14 32  1  0
 15 33  1  0
 15 34  1  0
 16 35  1  6
 18 36  1  0
 24 37  1  0
 24 38  1  0
 25 39  1  0
M  CHG  3   3  -1   4  -1   8  -1
M  END
>  <filename_input>  (19) 
7ODY_DGI_docked.sdf

>  <pdb_id>  (19) 
7ODY_DGI

>  <pose_rank>  (19) 
18

>  <num_atoms_heavy>  (19) 
27

>  <num_torsions>  (19) 
6

>  <pose>  (19) 
[3.265369148179811, 2.109815197991473, -27.869693629251678, -1.3754888001255874, 2.0293817938900385, -2.5658684999217156, 0.6164204028553436, -4.045470084159919, -0.5008775881993623, -1.2610555555402942, -0.4953017405061985, 2.3842675836727047]

>  <energy>  (19) 
-627.1024482678832

>  <inter_energy>  (19) 
-629.5897369921298

>  <intra_energy>  (19) 
25.338012892806876

>  <rmsd>  (19) 
8.7142

>  <sdf_rank>  (19) 
0

$$$$

     RDKit          3D

 39 41  0  0  0  0  0  0  0  0999 V2000
    6.1634    9.5729  -33.8742 O   0  0  0  0  0  0  0  0  0  0  0  0
    7.4719    8.9062  -34.1135 P   0  0  1  0  0  0  0  0  0  0  0  0
    7.9034    8.8644  -35.5495 O   0  0  0  0  0  0  0  0  0  0  0  0
    8.6250    9.5440  -33.3359 O   0  0  0  0  0  0  0  0  0  0  0  0
    7.3190    7.3751  -33.6627 O   0  0  0  0  0  0  0  0  0  0  0  0
    6.4620    6.0857  -34.0433 P   0  0  2  0  0  0  0  0  0  0  0  0
    7.1125    5.8744  -35.3477 O   0  0  0  0  0  0  0  0  0  0  0  0
    5.1042    6.7017  -33.9578 O   0  0  0  0  0  0  0  0  0  0  0  0
    7.0664    5.4923  -32.7396 O   0  0  0  0  0  0  0  0  0  0  0  0
    6.6748    4.2325  -32.1486 C   0  0  0  0  0  0  0  0  0  0  0  0
    7.3336    4.0353  -30.8082 C   0  0  1  0  0  0  0  0  0  0  0  0
    6.3277    3.6998  -29.8258 O   0  0  0  0  0  0  0  0  0  0  0  0
    8.3676    2.9074  -30.7879 C   0  0  1  0  0  0  0  0  0  0  0  0
    9.5466    3.2996  -30.0839 O   0  0  0  0  0  0  0  0  0  0  0  0
    7.6621    1.7886  -30.0337 C   0  0  0  0  0  0  0  0  0  0  0  0
    6.7115    2.5410  -29.1184 C   0  0  2  0  0  0  0  0  0  0  0  0
    5.4911    1.7855  -28.8026 N   0  0  0  0  0  0  0  0  0  0  0  0
    4.8251    0.8835  -29.5856 C   0  0  0  0  0  0  0  0  0  0  0  0
    3.7727    0.3629  -28.9955 N   0  0  0  0  0  0  0  0  0  0  0  0
    3.7471    0.9686  -27.7491 C   0  0  0  0  0  0  0  0  0  0  0  0
    4.8050    1.8427  -27.6189 C   0  0  0  0  0  0  0  0  0  0  0  0
    5.1420    2.5883  -26.5545 N   0  0  0  0  0  0  0  0  0  0  0  0
    4.3177    2.4165  -25.5295 C   0  0  0  0  0  0  0  0  0  0  0  0
    4.5641    3.0371  -24.3751 N   0  0  0  0  0  0  0  0  0  0  0  0
    3.2302    1.5835  -25.5705 N   0  0  0  0  0  0  0  0  0  0  0  0
    2.8526    0.8178  -26.6538 C   0  0  0  0  0  0  0  0  0  0  0  0
    1.8341    0.1264  -26.6147 O   0  0  0  0  0  0  0  0  0  0  0  0
    5.5827    4.2209  -32.0176 H   0  0  0  0  0  0  0  0  0  0  0  0
    6.9921    3.4188  -32.8174 H   0  0  0  0  0  0  0  0  0  0  0  0
    7.8497    4.9811  -30.5861 H   0  0  0  0  0  0  0  0  0  0  0  0
    8.6926    2.6202  -31.7988 H   0  0  0  0  0  0  0  0  0  0  0  0
    9.3825    3.2450  -29.1092 H   0  0  0  0  0  0  0  0  0  0  0  0
    7.1107    1.1330  -30.7238 H   0  0  0  0  0  0  0  0  0  0  0  0
    8.3540    1.1274  -29.4915 H   0  0  0  0  0  0  0  0  0  0  0  0
    7.2226    2.7425  -28.1654 H   0  0  0  0  0  0  0  0  0  0  0  0
    5.1388    0.6203  -30.6066 H   0  0  0  0  0  0  0  0  0  0  0  0
    3.9282    2.9082  -23.5751 H   0  0  0  0  0  0  0  0  0  0  0  0
    5.3903    3.6453  -24.2834 H   0  0  0  0  0  0  0  0  0  0  0  0
    2.6474    1.5244  -24.7233 H   0  0  0  0  0  0  0  0  0  0  0  0
  1  2  2  0
  2  3  1  6
  2  4  1  0
  2  5  1  0
  5  6  1  0
  6  7  2  0
  6  8  1  6
  6  9  1  0
  9 10  1  0
 11 10  1  0
 11 12  1  0
 11 13  1  0
 12 16  1  0
 13 14  1  0
 13 15  1  0
 15 16  1  0
 16 17  1  0
 17 18  1  0
 17 21  1  0
 18 19  2  0
 19 20  1  0
 20 21  2  0
 20 26  1  0
 21 22  1  0
 22 23  2  0
 23 24  1  0
 23 25  1  0
 25 26  1  0
 26 27  2  0
 10 28  1  0
 10 29  1  0
 11 30  1  1
 13 31  1  6
 14 32  1  0
 15 33  1  0
 15 34  1  0
 16 35  1  1
 18 36  1  0
 24 37  1  0
 24 38  1  0
 25 39  1  0
M  CHG  3   3  -1   4  -1   8  -1
M  END
>  <filename_input>  (20) 
7ODY_DGI_docked.sdf

>  <pdb_id>  (20) 
7ODY_DGI

>  <pose_rank>  (20) 
19

>  <num_atoms_heavy>  (20) 
27

>  <num_torsions>  (20) 
6

>  <pose>  (20) 
[7.333608409677508, 4.03534709527842, -30.808180422005904, -4.53775756312539, 0.6982403735467548, 0.8881637272144415, 1.3984473548596736, 0.9963541436279637, -0.29819587172729733, -1.372415631881583, 2.2375152341633964, 0.5611245913006794]

>  <energy>  (20) 
-334.7807778635533

>  <inter_energy>  (20) 
-331.69401612358087

>  <intra_energy>  (20) 
6.149656538411403

>  <rmsd>  (20) 
7.96648

>  <sdf_rank>  (20) 
0

$$$$

     RDKit          3D

 39 41  0  0  0  0  0  0  0  0999 V2000
   13.9833    7.5459  -29.1873 O   0  0  0  0  0  0  0  0  0  0  0  0
   13.1230    7.4408  -30.3967 P   0  0  1  0  0  0  0  0  0  0  0  0
   12.3200    8.6694  -30.7063 O   0  0  0  0  0  0  0  0  0  0  0  0
   13.9069    7.1074  -31.6677 O   0  0  0  0  0  0  0  0  0  0  0  0
   12.0508    6.2807  -30.1225 O   0  0  0  0  0  0  0  0  0  0  0  0
   11.8224    4.7422  -30.4727 P   0  0  2  0  0  0  0  0  0  0  0  0
   12.9048    4.2467  -29.6054 O   0  0  0  0  0  0  0  0  0  0  0  0
   12.0093    4.8322  -31.9517 O   0  0  0  0  0  0  0  0  0  0  0  0
   10.3935    4.9884  -29.9117 O   0  0  0  0  0  0  0  0  0  0  0  0
    9.7343    4.1478  -28.9378 C   0  0  0  0  0  0  0  0  0  0  0  0
    8.2773    4.5089  -28.8088 C   0  0  1  0  0  0  0  0  0  0  0  0
    7.4900    3.6231  -29.6364 O   0  0  0  0  0  0  0  0  0  0  0  0
    7.7339    4.3848  -27.3837 C   0  0  1  0  0  0  0  0  0  0  0  0
    6.9135    5.5033  -27.0441 O   0  0  0  0  0  0  0  0  0  0  0  0
    6.8896    3.1187  -27.4315 C   0  0  0  0  0  0  0  0  0  0  0  0
    6.4375    3.0650  -28.8807 C   0  0  2  0  0  0  0  0  0  0  0  0
    6.2141    1.6966  -29.3681 N   0  0  0  0  0  0  0  0  0  0  0  0
    7.0626    0.9044  -30.0912 C   0  0  0  0  0  0  0  0  0  0  0  0
    6.5665   -0.2845  -30.3505 N   0  0  0  0  0  0  0  0  0  0  0  0
    5.3110   -0.2647  -29.7638 C   0  0  0  0  0  0  0  0  0  0  0  0
    5.0870    0.9498  -29.1513 C   0  0  0  0  0  0  0  0  0  0  0  0
    4.0111    1.3425  -28.4508 N   0  0  0  0  0  0  0  0  0  0  0  0
    3.0824    0.3986  -28.3701 C   0  0  0  0  0  0  0  0  0  0  0  0
    1.9842    0.6156  -27.6453 N   0  0  0  0  0  0  0  0  0  0  0  0
    3.2076   -0.8319  -28.9602 N   0  0  0  0  0  0  0  0  0  0  0  0
    4.2939   -1.2565  -29.6966 C   0  0  0  0  0  0  0  0  0  0  0  0
    4.3030   -2.3685  -30.2257 O   0  0  0  0  0  0  0  0  0  0  0  0
    9.8176    3.0976  -29.2543 H   0  0  0  0  0  0  0  0  0  0  0  0
   10.2193    4.2966  -27.9618 H   0  0  0  0  0  0  0  0  0  0  0  0
    8.2014    5.5622  -29.1169 H   0  0  0  0  0  0  0  0  0  0  0  0
    8.5363    4.3508  -26.6320 H   0  0  0  0  0  0  0  0  0  0  0  0
    6.8552    5.5827  -26.0590 H   0  0  0  0  0  0  0  0  0  0  0  0
    7.4888    2.2337  -27.1712 H   0  0  0  0  0  0  0  0  0  0  0  0
    6.0538    3.1273  -26.7164 H   0  0  0  0  0  0  0  0  0  0  0  0
    5.4815    3.6012  -28.9737 H   0  0  0  0  0  0  0  0  0  0  0  0
    8.0598    1.2297  -30.4224 H   0  0  0  0  0  0  0  0  0  0  0  0
    1.2591   -0.1129  -27.5783 H   0  0  0  0  0  0  0  0  0  0  0  0
    1.8611    1.5117  -27.1525 H   0  0  0  0  0  0  0  0  0  0  0  0
    2.4269   -1.4937  -28.8444 H   0  0  0  0  0  0  0  0  0  0  0  0
  1  2  2  0
  2  3  1  6
  2  4  1  0
  2  5  1  0
  5  6  1  0
  6  7  2  0
  6  8  1  6
  6  9  1  0
  9 10  1  0
 11 10  1  0
 11 12  1  0
 11 13  1  0
 12 16  1  0
 13 14  1  0
 13 15  1  0
 15 16  1  0
 16 17  1  0
 17 18  1  0
 17 21  1  0
 18 19  2  0
 19 20  1  0
 20 21  2  0
 20 26  1  0
 21 22  1  0
 22 23  2  0
 23 24  1  0
 23 25  1  0
 25 26  1  0
 26 27  2  0
 10 28  1  0
 10 29  1  0
 11 30  1  6
 13 31  1  1
 14 32  1  0
 15 33  1  0
 15 34  1  0
 16 35  1  1
 18 36  1  0
 24 37  1  0
 24 38  1  0
 25 39  1  0
M  CHG  3   3  -1   4  -1   8  -1
M  END
>  <filename_input>  (21) 
7ODY_DGI_docked.sdf

>  <pdb_id>  (21) 
7ODY_DGI

>  <pose_rank>  (21) 
20

>  <num_atoms_heavy>  (21) 
27

>  <num_torsions>  (21) 
6

>  <pose>  (21) 
[8.277326767509214, 4.508942111280675, -28.8088112032331, 0.6824261941660267, -1.1702876988511328, 1.4809913092750022, 0.25187654924329617, 0.43620398606073113, -0.227419214613888, -0.38286645971722993, 2.2486199788841974, -2.249464715980483]

>  <energy>  (21) 
-303.06872191460934

>  <inter_energy>  (21) 
-311.0262494064201

>  <intra_energy>  (21) 
6.225952638507266

>  <rmsd>  (21) 
9.56658

>  <sdf_rank>  (21) 
0

$$$$

     RDKit          3D

 39 41  0  0  0  0  0  0  0  0999 V2000
    5.4712   -2.0060  -29.2605 O   0  0  0  0  0  0  0  0  0  0  0  0
    4.4780   -1.8272  -30.3540 P   0  0  1  0  0  0  0  0  0  0  0  0
    3.2541   -1.0490  -29.9712 O   0  0  0  0  0  0  0  0  0  0  0  0
    5.0586   -1.1360  -31.5893 O   0  0  0  0  0  0  0  0  0  0  0  0
    3.9526   -3.2847  -30.7669 O   0  0  0  0  0  0  0  0  0  0  0  0
    2.8495   -3.9471  -31.7082 P   0  0  2  0  0  0  0  0  0  0  0  0
    2.4283   -2.6803  -32.3305 O   0  0  0  0  0  0  0  0  0  0  0  0
    2.0208   -4.5880  -30.6439 O   0  0  0  0  0  0  0  0  0  0  0  0
    4.0472   -4.7604  -32.2750 O   0  0  0  0  0  0  0  0  0  0  0  0
    4.6017   -4.5962  -33.5999 C   0  0  0  0  0  0  0  0  0  0  0  0
    4.9915   -5.9255  -34.1921 C   0  0  1  0  0  0  0  0  0  0  0  0
    3.8287   -6.5420  -34.7900 O   0  0  0  0  0  0  0  0  0  0  0  0
    6.0541   -5.8255  -35.2888 C   0  0  1  0  0  0  0  0  0  0  0  0
    7.0506   -6.8370  -35.1366 O   0  0  0  0  0  0  0  0  0  0  0  0
    5.2683   -6.0612  -36.5713 C   0  0  0  0  0  0  0  0  0  0  0  0
    4.1206   -6.9433  -36.1107 C   0  0  2  0  0  0  0  0  0  0  0  0
    2.8996   -6.7708  -36.9104 N   0  0  0  0  0  0  0  0  0  0  0  0
    2.7434   -6.9125  -38.2616 C   0  0  0  0  0  0  0  0  0  0  0  0
    1.5091   -6.7095  -38.6644 N   0  0  0  0  0  0  0  0  0  0  0  0
    0.8166   -6.4102  -37.5017 C   0  0  0  0  0  0  0  0  0  0  0  0
    1.6637   -6.4510  -36.4150 C   0  0  0  0  0  0  0  0  0  0  0  0
    1.3666   -6.2545  -35.1206 N   0  0  0  0  0  0  0  0  0  0  0  0
    0.0801   -5.9959  -34.9259 C   0  0  0  0  0  0  0  0  0  0  0  0
   -0.3811   -5.8478  -33.6834 N   0  0  0  0  0  0  0  0  0  0  0  0
   -0.8337   -5.9178  -35.9442 N   0  0  0  0  0  0  0  0  0  0  0  0
   -0.5540   -6.1006  -37.2825 C   0  0  0  0  0  0  0  0  0  0  0  0
   -1.4332   -5.9713  -38.1351 O   0  0  0  0  0  0  0  0  0  0  0  0
    3.8504   -4.1205  -34.2475 H   0  0  0  0  0  0  0  0  0  0  0  0
    5.5018   -3.9682  -33.5270 H   0  0  0  0  0  0  0  0  0  0  0  0
    5.4074   -6.5134  -33.3606 H   0  0  0  0  0  0  0  0  0  0  0  0
    6.5858   -4.8627  -35.2688 H   0  0  0  0  0  0  0  0  0  0  0  0
    7.2111   -6.9999  -34.1734 H   0  0  0  0  0  0  0  0  0  0  0  0
    4.8962   -5.1132  -36.9871 H   0  0  0  0  0  0  0  0  0  0  0  0
    5.8705   -6.5158  -37.3717 H   0  0  0  0  0  0  0  0  0  0  0  0
    4.4231   -7.9966  -36.2058 H   0  0  0  0  0  0  0  0  0  0  0  0
    3.5678   -7.1705  -38.9426 H   0  0  0  0  0  0  0  0  0  0  0  0
   -1.3788   -5.6470  -33.5249 H   0  0  0  0  0  0  0  0  0  0  0  0
    0.2604   -5.9342  -32.8822 H   0  0  0  0  0  0  0  0  0  0  0  0
   -1.8088   -5.7051  -35.6895 H   0  0  0  0  0  0  0  0  0  0  0  0
  1  2  2  0
  2  3  1  1
  2  4  1  0
  2  5  1  0
  5  6  1  0
  6  7  2  0
  6  8  1  1
  6  9  1  0
  9 10  1  0
 11 10  1  0
 11 12  1  0
 11 13  1  0
 12 16  1  0
 13 14  1  0
 13 15  1  0
 15 16  1  0
 16 17  1  0
 17 18  1  0
 17 21  1  0
 18 19  2  0
 19 20  1  0
 20 21  2  0
 20 26  1  0
 21 22  1  0
 22 23  2  0
 23 24  1  0
 23 25  1  0
 25 26  1  0
 26 27  2  0
 10 28  1  0
 10 29  1  0
 11 30  1  1
 13 31  1  6
 14 32  1  0
 15 33  1  0
 15 34  1  0
 16 35  1  1
 18 36  1  0
 24 37  1  0
 24 38  1  0
 25 39  1  0
M  CHG  3   3  -1   4  -1   8  -1
M  END
>  <filename_input>  (22) 
7ODY_DGI_docked.sdf

>  <pdb_id>  (22) 
7ODY_DGI

>  <pose_rank>  (22) 
21

>  <num_atoms_heavy>  (22) 
27

>  <num_torsions>  (22) 
6

>  <pose>  (22) 
[4.991451703822415, -5.925470661355497, -34.19213240475959, 3.427482673322065, -0.1908482108941768, -0.555610837267182, -15.907999883884665, 0.21215444090787536, 0.2554670703222248, -0.025392459090625208, 1.1258773953556729, 2.5115537606308753]

>  <energy>  (22) 
-306.8728414287191

>  <inter_energy>  (22) 
-339.13055574152264

>  <intra_energy>  (22) 
37.16773010615777

>  <rmsd>  (22) 
10.0743

>  <sdf_rank>  (22) 
0

$$$$

     RDKit          3D

 39 41  0  0  0  0  0  0  0  0999 V2000
    3.9260   -0.6674  -32.3319 O   0  0  0  0  0  0  0  0  0  0  0  0
    3.7838   -2.1434  -32.2088 P   0  0  1  0  0  0  0  0  0  0  0  0
    3.7233   -2.8807  -33.5137 O   0  0  0  0  0  0  0  0  0  0  0  0
    4.9085   -2.7924  -31.3995 O   0  0  0  0  0  0  0  0  0  0  0  0
    2.3829   -2.4308  -31.4838 O   0  0  0  0  0  0  0  0  0  0  0  0
    1.5533   -1.9258  -30.2195 P   0  0  2  0  0  0  0  0  0  0  0  0
    1.0530   -0.7023  -30.8693 O   0  0  0  0  0  0  0  0  0  0  0  0
    2.6783   -1.8647  -29.2392 O   0  0  0  0  0  0  0  0  0  0  0  0
    0.8019   -3.2786  -30.3691 O   0  0  0  0  0  0  0  0  0  0  0  0
    0.3409   -3.8312  -31.6228 C   0  0  0  0  0  0  0  0  0  0  0  0
   -0.1698   -5.2366  -31.4398 C   0  0  1  0  0  0  0  0  0  0  0  0
   -1.5193   -5.3253  -31.9503 O   0  0  0  0  0  0  0  0  0  0  0  0
    0.6541   -6.2944  -32.1774 C   0  0  1  0  0  0  0  0  0  0  0  0
    0.8818   -7.4389  -31.3541 O   0  0  0  0  0  0  0  0  0  0  0  0
   -0.2267   -6.6738  -33.3599 C   0  0  0  0  0  0  0  0  0  0  0  0
   -1.6294   -6.4178  -32.8362 C   0  0  2  0  0  0  0  0  0  0  0  0
   -2.5826   -6.0439  -33.8905 N   0  0  0  0  0  0  0  0  0  0  0  0
   -2.5878   -4.9202  -34.6699 C   0  0  0  0  0  0  0  0  0  0  0  0
   -3.5713   -4.8987  -35.5413 N   0  0  0  0  0  0  0  0  0  0  0  0
   -4.2553   -6.0821  -35.3115 C   0  0  0  0  0  0  0  0  0  0  0  0
   -3.6504   -6.7970  -34.3000 C   0  0  0  0  0  0  0  0  0  0  0  0
   -3.9915   -8.0007  -33.8129 N   0  0  0  0  0  0  0  0  0  0  0  0
   -5.0492   -8.5176  -34.4244 C   0  0  0  0  0  0  0  0  0  0  0  0
   -5.4653   -9.7419  -34.0982 N   0  0  0  0  0  0  0  0  0  0  0  0
   -5.7264   -7.8749  -35.4276 N   0  0  0  0  0  0  0  0  0  0  0  0
   -5.4073   -6.6335  -35.9372 C   0  0  0  0  0  0  0  0  0  0  0  0
   -6.0984   -6.1137  -36.8141 O   0  0  0  0  0  0  0  0  0  0  0  0
   -0.4712   -3.2020  -32.0159 H   0  0  0  0  0  0  0  0  0  0  0  0
    1.1860   -3.8550  -32.3265 H   0  0  0  0  0  0  0  0  0  0  0  0
   -0.1066   -5.4401  -30.3606 H   0  0  0  0  0  0  0  0  0  0  0  0
    1.6470   -5.9217  -32.4695 H   0  0  0  0  0  0  0  0  0  0  0  0
    0.8294   -7.1756  -30.4012 H   0  0  0  0  0  0  0  0  0  0  0  0
   -0.0093   -6.0420  -34.2337 H   0  0  0  0  0  0  0  0  0  0  0  0
   -0.0730   -7.7083  -33.7008 H   0  0  0  0  0  0  0  0  0  0  0  0
   -2.0076   -7.3399  -32.3708 H   0  0  0  0  0  0  0  0  0  0  0  0
   -1.8438   -4.1154  -34.5769 H   0  0  0  0  0  0  0  0  0  0  0  0
   -6.2858  -10.1494  -34.5691 H   0  0  0  0  0  0  0  0  0  0  0  0
   -4.9663  -10.2799  -33.3755 H   0  0  0  0  0  0  0  0  0  0  0  0
   -6.5400   -8.3582  -35.8342 H   0  0  0  0  0  0  0  0  0  0  0  0
  1  2  2  0
  2  3  1  6
  2  4  1  0
  2  5  1  0
  5  6  1  0
  6  7  2  0
  6  8  1  1
  6  9  1  0
  9 10  1  0
 11 10  1  0
 11 12  1  0
 11 13  1  0
 12 16  1  0
 13 14  1  0
 13 15  1  0
 15 16  1  0
 16 17  1  0
 17 18  1  0
 17 21  1  0
 18 19  2  0
 19 20  1  0
 20 21  2  0
 20 26  1  0
 21 22  1  0
 22 23  2  0
 23 24  1  0
 23 25  1  0
 25 26  1  0
 26 27  2  0
 10 28  1  0
 10 29  1  0
 11 30  1  1
 13 31  1  6
 14 32  1  0
 15 33  1  0
 15 34  1  0
 16 35  1  1
 18 36  1  0
 24 37  1  0
 24 38  1  0
 25 39  1  0
M  CHG  3   3  -1   4  -1   8  -1
M  END
>  <filename_input>  (23) 
7ODY_DGI_docked.sdf

>  <pdb_id>  (23) 
7ODY_DGI

>  <pose_rank>  (23) 
22

>  <num_atoms_heavy>  (23) 
27

>  <num_torsions>  (23) 
6

>  <pose>  (23) 
[-0.16984864334072175, -5.236648301306546, -31.43975403316366, -2.9926405834272605, 1.2407293627982006, 0.12411305889618987, 0.8128713918265253, 0.9379198312050159, -0.5589108502980626, 1.1305662875914533, 2.4007364106291975, -1.3341296616174323]

>  <energy>  (23) 
-252.67544435499204

>  <inter_energy>  (23) 
-250.41656756303564

>  <intra_energy>  (23) 
2.131302305336601

>  <rmsd>  (23) 
10.8134

>  <sdf_rank>  (23) 
0

$$$$

     RDKit          3D

 39 41  0  0  0  0  0  0  0  0999 V2000
    2.6018   -2.3008  -30.2028 O   0  0  0  0  0  0  0  0  0  0  0  0
    3.9053   -2.2083  -30.9143 P   0  0  1  0  0  0  0  0  0  0  0  0
    4.2357   -0.8458  -31.4476 O   0  0  0  0  0  0  0  0  0  0  0  0
    5.0952   -2.6327  -30.0510 O   0  0  0  0  0  0  0  0  0  0  0  0
    3.8200   -3.1663  -32.1971 O   0  0  0  0  0  0  0  0  0  0  0  0
    2.9150   -4.3528  -32.7581 P   0  0  2  0  0  0  0  0  0  0  0  0
    2.2109   -3.5242  -33.7516 O   0  0  0  0  0  0  0  0  0  0  0  0
    2.2519   -4.7370  -31.4762 O   0  0  0  0  0  0  0  0  0  0  0  0
    4.2769   -5.0236  -33.0929 O   0  0  0  0  0  0  0  0  0  0  0  0
    5.0223   -4.8114  -34.3132 C   0  0  0  0  0  0  0  0  0  0  0  0
    5.3548   -6.1213  -34.9791 C   0  0  1  0  0  0  0  0  0  0  0  0
    4.1302   -6.8193  -35.2994 O   0  0  0  0  0  0  0  0  0  0  0  0
    6.1340   -5.9690  -36.2873 C   0  0  1  0  0  0  0  0  0  0  0  0
    7.2033   -6.9124  -36.3649 O   0  0  0  0  0  0  0  0  0  0  0  0
    5.0965   -6.2726  -37.3594 C   0  0  0  0  0  0  0  0  0  0  0  0
    4.1426   -7.2198  -36.6522 C   0  0  2  0  0  0  0  0  0  0  0  0
    2.7642   -7.1371  -37.1553 N   0  0  0  0  0  0  0  0  0  0  0  0
    1.7543   -8.0488  -37.0167 C   0  0  0  0  0  0  0  0  0  0  0  0
    0.6264   -7.6603  -37.5679 N   0  0  0  0  0  0  0  0  0  0  0  0
    0.9211   -6.4175  -38.1060 C   0  0  0  0  0  0  0  0  0  0  0  0
    2.2343   -6.0841  -37.8521 C   0  0  0  0  0  0  0  0  0  0  0  0
    2.8840   -4.9553  -38.1778 N   0  0  0  0  0  0  0  0  0  0  0  0
    2.1115   -4.0891  -38.8202 C   0  0  0  0  0  0  0  0  0  0  0  0
    2.5966   -2.8907  -39.1474 N   0  0  0  0  0  0  0  0  0  0  0  0
    0.8006   -4.3382  -39.1324 N   0  0  0  0  0  0  0  0  0  0  0  0
    0.1127   -5.4931  -38.8233 C   0  0  0  0  0  0  0  0  0  0  0  0
   -1.0560   -5.6471  -39.1801 O   0  0  0  0  0  0  0  0  0  0  0  0
    4.4189   -4.2013  -35.0015 H   0  0  0  0  0  0  0  0  0  0  0  0
    5.9622   -4.2971  -34.0641 H   0  0  0  0  0  0  0  0  0  0  0  0
    5.9850   -6.6696  -34.2634 H   0  0  0  0  0  0  0  0  0  0  0  0
    6.5922   -4.9740  -36.3873 H   0  0  0  0  0  0  0  0  0  0  0  0
    7.4884   -7.1640  -35.4508 H   0  0  0  0  0  0  0  0  0  0  0  0
    4.5790   -5.3564  -37.6798 H   0  0  0  0  0  0  0  0  0  0  0  0
    5.5314   -6.6990  -38.2755 H   0  0  0  0  0  0  0  0  0  0  0  0
    4.4842   -8.2528  -36.8139 H   0  0  0  0  0  0  0  0  0  0  0  0
    1.8740   -9.0105  -36.4962 H   0  0  0  0  0  0  0  0  0  0  0  0
    2.0023   -2.2133  -39.6462 H   0  0  0  0  0  0  0  0  0  0  0  0
    3.5655   -2.6426  -38.9014 H   0  0  0  0  0  0  0  0  0  0  0  0
    0.2871   -3.6031  -39.6392 H   0  0  0  0  0  0  0  0  0  0  0  0
  1  2  2  0
  2  3  1  6
  2  4  1  0
  2  5  1  0
  5  6  1  0
  6  7  2  0
  6  8  1  1
  6  9  1  0
  9 10  1  0
 11 10  1  0
 11 12  1  0
 11 13  1  0
 12 16  1  0
 13 14  1  0
 13 15  1  0
 15 16  1  0
 16 17  1  0
 17 18  1  0
 17 21  1  0
 18 19  2  0
 19 20  1  0
 20 21  2  0
 20 26  1  0
 21 22  1  0
 22 23  2  0
 23 24  1  0
 23 25  1  0
 25 26  1  0
 26 27  2  0
 10 28  1  0
 10 29  1  0
 11 30  1  1
 13 31  1  6
 14 32  1  0
 15 33  1  0
 15 34  1  0
 16 35  1  1
 18 36  1  0
 24 37  1  0
 24 38  1  0
 25 39  1  0
M  CHG  3   3  -1   4  -1   8  -1
M  END
>  <filename_input>  (24) 
7ODY_DGI_docked.sdf

>  <pdb_id>  (24) 
7ODY_DGI

>  <pose_rank>  (24) 
23

>  <num_atoms_heavy>  (24) 
27

>  <num_torsions>  (24) 
6

>  <pose>  (24) 
[5.354803937638351, -6.121286291638369, -34.979119175300006, -2.7253940412251176, 0.11931309236074177, 0.7810761112234097, 4.7674855856393314, 6.082901934245173, 0.511361480232577, 0.3901425307288935, -3.4479501738015514, 5.500019216357659]

>  <energy>  (24) 
-338.9558034958219

>  <inter_energy>  (24) 
-363.0400774608266

>  <intra_energy>  (24) 
41.844578005198144

>  <rmsd>  (24) 
10.6153

>  <sdf_rank>  (24) 
0

$$$$

     RDKit          3D

 39 41  0  0  0  0  0  0  0  0999 V2000
    3.8931   -2.7350  -29.9911 O   0  0  0  0  0  0  0  0  0  0  0  0
    3.0415   -3.3570  -31.0409 P   0  0  1  0  0  0  0  0  0  0  0  0
    2.6996   -2.4550  -32.1896 O   0  0  0  0  0  0  0  0  0  0  0  0
    3.6600   -4.6162  -31.6516 O   0  0  0  0  0  0  0  0  0  0  0  0
    1.6417   -3.7383  -30.3584 O   0  0  0  0  0  0  0  0  0  0  0  0
    0.1208   -3.2608  -30.3780 P   0  0  2  0  0  0  0  0  0  0  0  0
   -0.2152   -3.9399  -31.6410 O   0  0  0  0  0  0  0  0  0  0  0  0
    0.3615   -1.7872  -30.3435 O   0  0  0  0  0  0  0  0  0  0  0  0
    0.0325   -4.0074  -29.0172 O   0  0  0  0  0  0  0  0  0  0  0  0
   -0.3510   -3.3957  -27.7648 C   0  0  0  0  0  0  0  0  0  0  0  0
   -1.6418   -3.9783  -27.2507 C   0  0  1  0  0  0  0  0  0  0  0  0
   -1.3480   -5.0313  -26.3049 O   0  0  0  0  0  0  0  0  0  0  0  0
   -2.5310   -2.9658  -26.5255 C   0  0  1  0  0  0  0  0  0  0  0  0
   -3.8974   -3.1042  -26.9170 O   0  0  0  0  0  0  0  0  0  0  0  0
   -2.3727   -3.3371  -25.0575 C   0  0  0  0  0  0  0  0  0  0  0  0
   -2.0735   -4.8253  -25.1126 C   0  0  2  0  0  0  0  0  0  0  0  0
   -1.2391   -5.2908  -23.9958 N   0  0  0  0  0  0  0  0  0  0  0  0
    0.1145   -5.1721  -23.8411 C   0  0  0  0  0  0  0  0  0  0  0  0
    0.5528   -5.6768  -22.7097 N   0  0  0  0  0  0  0  0  0  0  0  0
   -0.5877   -6.1612  -22.0888 C   0  0  0  0  0  0  0  0  0  0  0  0
   -1.6975   -5.9231  -22.8710 C   0  0  0  0  0  0  0  0  0  0  0  0
   -2.9814   -6.2095  -22.6028 N   0  0  0  0  0  0  0  0  0  0  0  0
   -3.1385   -6.7906  -21.4207 C   0  0  0  0  0  0  0  0  0  0  0  0
   -4.3665   -7.0712  -20.9828 N   0  0  0  0  0  0  0  0  0  0  0  0
   -2.0948   -7.0830  -20.5820 N   0  0  0  0  0  0  0  0  0  0  0  0
   -0.7665   -6.8136  -20.8378 C   0  0  0  0  0  0  0  0  0  0  0  0
    0.1111   -7.1493  -20.0416 O   0  0  0  0  0  0  0  0  0  0  0  0
    0.4422   -3.5686  -27.0225 H   0  0  0  0  0  0  0  0  0  0  0  0
   -0.4955   -2.3181  -27.9316 H   0  0  0  0  0  0  0  0  0  0  0  0
   -2.1820   -4.3391  -28.1383 H   0  0  0  0  0  0  0  0  0  0  0  0
   -2.2493   -1.9264  -26.7496 H   0  0  0  0  0  0  0  0  0  0  0  0
   -4.4677   -3.1620  -26.1099 H   0  0  0  0  0  0  0  0  0  0  0  0
   -1.5413   -2.7833  -24.5969 H   0  0  0  0  0  0  0  0  0  0  0  0
   -3.2577   -3.0948  -24.4508 H   0  0  0  0  0  0  0  0  0  0  0  0
   -3.0221   -5.3796  -25.0601 H   0  0  0  0  0  0  0  0  0  0  0  0
    0.7703   -4.7016  -24.5885 H   0  0  0  0  0  0  0  0  0  0  0  0
   -4.4957   -7.5224  -20.0659 H   0  0  0  0  0  0  0  0  0  0  0  0
   -5.1857   -6.8368  -21.5614 H   0  0  0  0  0  0  0  0  0  0  0  0
   -2.3208   -7.5414  -19.6877 H   0  0  0  0  0  0  0  0  0  0  0  0
  1  2  2  0
  2  3  1  6
  2  4  1  0
  2  5  1  0
  5  6  1  0
  6  7  2  0
  6  8  1  1
  6  9  1  0
  9 10  1  0
 11 10  1  0
 11 12  1  0
 11 13  1  0
 12 16  1  0
 13 14  1  0
 13 15  1  0
 15 16  1  0
 16 17  1  0
 17 18  1  0
 17 21  1  0
 18 19  2  0
 19 20  1  0
 20 21  2  0
 20 26  1  0
 21 22  1  0
 22 23  2  0
 23 24  1  0
 23 25  1  0
 25 26  1  0
 26 27  2  0
 10 28  1  0
 10 29  1  0
 11 30  1  6
 13 31  1  1
 14 32  1  0
 15 33  1  0
 15 34  1  0
 16 35  1  6
 18 36  1  0
 24 37  1  0
 24 38  1  0
 25 39  1  0
M  CHG  3   3  -1   4  -1   8  -1
M  END
>  <filename_input>  (25) 
7ODY_DGI_docked.sdf

>  <pdb_id>  (25) 
7ODY_DGI

>  <pose_rank>  (25) 
24

>  <num_atoms_heavy>  (25) 
27

>  <num_torsions>  (25) 
6

>  <pose>  (25) 
[-1.6417735250944494, -3.9782777274336296, -27.25067097429268, -0.33124925648886905, -0.7289181176311146, -3.734415113107725, 6.861861111709649, 0.41979951235953744, -1.5463814423797477, 4.0223852042237365, 2.3936017940999434, 1.3907692950989947]

>  <energy>  (25) 
-241.2366614995686

>  <inter_energy>  (25) 
-233.9254383826221

>  <intra_energy>  (25) 
3.81905087488566

>  <rmsd>  (25) 
8.6091

>  <sdf_rank>  (25) 
0

$$$$

     RDKit          3D

 39 41  0  0  0  0  0  0  0  0999 V2000
    4.2900   -5.4410  -31.9790 O   0  0  0  0  0  0  0  0  0  0  0  0
    3.7180   -4.7890  -33.1880 P   0  0  1  0  0  0  0  0  0  0  0  0
    4.5750   -3.7140  -33.7880 O   0  0  0  0  0  0  0  0  0  0  0  0
    3.4110   -5.7750  -34.3170 O   0  0  0  0  0  0  0  0  0  0  0  0
    2.3600   -4.0620  -32.7430 O   0  0  0  0  0  0  0  0  0  0  0  0
    1.7260   -3.3780  -31.4500 P   0  0  2  0  0  0  0  0  0  0  0  0
    1.8460   -4.5720  -30.5960 O   0  0  0  0  0  0  0  0  0  0  0  0
    0.4100   -2.9900  -32.0400 O   0  0  0  0  0  0  0  0  0  0  0  0
    2.9040   -2.3740  -31.5960 O   0  0  0  0  0  0  0  0  0  0  0  0
    4.0400   -2.3010  -30.7050 C   0  0  0  0  0  0  0  0  0  0  0  0
    4.6700   -0.9330  -30.7420 C   0  0  1  0  0  0  0  0  0  0  0  0
    3.7980    0.0130  -30.0830 O   0  0  0  0  0  0  0  0  0  0  0  0
    6.0240   -0.8570  -30.0330 C   0  0  1  0  0  0  0  0  0  0  0  0
    6.9690   -0.1120  -30.8020 O   0  0  0  0  0  0  0  0  0  0  0  0
    5.7100   -0.1170  -28.7400 C   0  0  0  0  0  0  0  0  0  0  0  0
    4.5230    0.7500  -29.1230 C   0  0  2  0  0  0  0  0  0  0  0  0
    3.6200    1.0270  -27.9970 N   0  0  0  0  0  0  0  0  0  0  0  0
    2.3380    0.5890  -27.8100 C   0  0  0  0  0  0  0  0  0  0  0  0
    1.8100    1.0000  -26.6790 N   0  0  0  0  0  0  0  0  0  0  0  0
    2.8100    1.7600  -26.0930 C   0  0  0  0  0  0  0  0  0  0  0  0
    3.9310    1.7780  -26.8950 C   0  0  0  0  0  0  0  0  0  0  0  0
    5.1120    2.3720  -26.6610 N   0  0  0  0  0  0  0  0  0  0  0  0
    5.1440    3.0020  -25.4940 C   0  0  0  0  0  0  0  0  0  0  0  0
    6.2750    3.5810  -25.0890 N   0  0  0  0  0  0  0  0  0  0  0  0
    4.0750    3.0540  -24.6380 N   0  0  0  0  0  0  0  0  0  0  0  0
    2.8470    2.4660  -24.8590 C   0  0  0  0  0  0  0  0  0  0  0  0
    1.9280    2.5990  -24.0500 O   0  0  0  0  0  0  0  0  0  0  0  0
    3.7064   -2.5155  -29.6790 H   0  0  0  0  0  0  0  0  0  0  0  0
    4.7877   -3.0394  -31.0302 H   0  0  0  0  0  0  0  0  0  0  0  0
    4.8241   -0.7029  -31.8066 H   0  0  0  0  0  0  0  0  0  0  0  0
    6.4691   -1.8504  -29.8748 H   0  0  0  0  0  0  0  0  0  0  0  0
    7.5821    0.3713  -30.1932 H   0  0  0  0  0  0  0  0  0  0  0  0
    5.4436   -0.8198  -27.9368 H   0  0  0  0  0  0  0  0  0  0  0  0
    6.5623    0.4608  -28.3529 H   0  0  0  0  0  0  0  0  0  0  0  0
    4.8948    1.7198  -29.4851 H   0  0  0  0  0  0  0  0  0  0  0  0
    1.8028   -0.0436  -28.5334 H   0  0  0  0  0  0  0  0  0  0  0  0
    6.3069    4.0718  -24.1840 H   0  0  0  0  0  0  0  0  0  0  0  0
    7.1166    3.5374  -25.6812 H   0  0  0  0  0  0  0  0  0  0  0  0
    4.1987    3.5746  -23.7579 H   0  0  0  0  0  0  0  0  0  0  0  0
  1  2  2  0
  2  3  1  6
  2  4  1  0
  2  5  1  0
  5  6  1  0
  6  7  2  0
  6  8  1  6
  6  9  1  0
  9 10  1  0
 11 10  1  0
 11 12  1  0
 11 13  1  0
 12 16  1  0
 13 14  1  0
 13 15  1  0
 15 16  1  0
 16 17  1  0
 17 18  1  0
 17 21  1  0
 18 19  2  0
 19 20  1  0
 20 21  2  0
 20 26  1  0
 21 22  1  0
 22 23  2  0
 23 24  1  0
 23 25  1  0
 25 26  1  0
 26 27  2  0
 10 28  1  0
 10 29  1  0
 11 30  1  6
 13 31  1  1
 14 32  1  0
 15 33  1  0
 15 34  1  0
 16 35  1  6
 18 36  1  0
 24 37  1  0
 24 38  1  0
 25 39  1  0
M  CHG  3   3  -1   4  -1   8  -1
M  END
>  <filename_input>  (26) 
7ODY_DGI_docked.sdf

>  <pdb_id>  (26) 
7ODY_DGI

>  <pose_rank>  (26) 
25

>  <num_atoms_heavy>  (26) 
27

>  <num_torsions>  (26) 
6

>  <pose>  (26) 
[4.67, -0.933, -30.742, 1e-06, 1e-06, 1e-06, 0.0, 0.0, 0.0, 0.0, 0.0, 0.0]

>  <energy>  (26) 
-1052.706468763074

>  <inter_energy>  (26) 
-1071.7462609361025

>  <intra_energy>  (26) 
23.285560665503162

>  <rmsd>  (26) 
0.0

>  <sdf_rank>  (26) 
0

$$$$
