
     RDKit          3D

 62 64  0  0  0  0  0  0  0  0999 V2000
  -18.3244   -6.5485  -21.9991 N   0  0  0  0  0  0  0  0  0  0  0  0
  -17.1882   -6.2959  -22.8841 C   0  0  0  0  0  0  0  0  0  0  0  0
  -16.0872   -6.6598  -27.6811 C   0  0  0  0  0  0  0  0  0  0  0  0
  -22.1485   -3.8102  -20.9208 C   0  0  0  0  0  0  0  0  0  0  0  0
  -21.5004   -4.9315  -21.5676 N   0  0  0  0  0  0  0  0  0  0  0  0
  -20.1943   -4.9668  -21.7852 C   0  0  0  0  0  0  0  0  0  0  0  0
  -19.4445   -4.0544  -21.4489 O   0  0  0  0  0  0  0  0  0  0  0  0
  -19.6433   -6.1941  -22.4885 C   0  0  0  0  0  0  0  0  0  0  0  0
  -17.1412   -7.2736  -24.0614 C   0  0  1  0  0  0  0  0  0  0  0  0
  -16.4640   -6.6914  -25.3011 C   0  0  0  0  0  0  0  0  0  0  0  0
  -16.7118   -7.1992  -26.5688 C   0  0  0  0  0  0  0  0  0  0  0  0
  -15.2093   -5.6121  -27.5428 C   0  0  0  0  0  0  0  0  0  0  0  0
  -14.9540   -5.0972  -26.2907 C   0  0  0  0  0  0  0  0  0  0  0  0
  -15.5759   -5.6323  -25.1767 C   0  0  0  0  0  0  0  0  0  0  0  0
  -16.5083   -8.5908  -23.6301 C   0  0  0  0  0  0  0  0  0  0  0  0
  -17.2731   -9.7436  -23.5215 C   0  0  0  0  0  0  0  0  0  0  0  0
  -16.6978  -10.9382  -23.1269 C   0  0  0  0  0  0  0  0  0  0  0  0
  -15.3529  -10.9967  -22.8314 C   0  0  0  0  0  0  0  0  0  0  0  0
  -14.5817   -9.8623  -22.9425 C   0  0  0  0  0  0  0  0  0  0  0  0
  -15.1533   -8.6660  -23.3390 C   0  0  0  0  0  0  0  0  0  0  0  0
  -18.2679   -7.0079  -20.7314 C   0  0  0  0  0  0  0  0  0  0  0  0
  -19.2729   -7.1579  -20.0611 O   0  0  0  0  0  0  0  0  0  0  0  0
  -16.9392   -7.3410  -20.1239 C   0  0  0  0  0  0  0  0  0  0  0  0
  -16.5451   -8.6677  -19.9645 C   0  0  0  0  0  0  0  0  0  0  0  0
  -15.3003   -8.9982  -19.4398 C   0  0  0  0  0  0  0  0  0  0  0  0
  -14.9127  -10.4451  -19.2579 C   0  0  0  0  0  0  0  0  0  0  0  0
  -14.4523   -7.9522  -19.0781 C   0  0  0  0  0  0  0  0  0  0  0  0
  -13.2115   -8.2529  -18.5642 O   0  0  0  0  0  0  0  0  0  0  0  0
  -13.2537   -8.6453  -17.1977 C   0  0  0  0  0  0  0  0  0  0  0  0
  -14.8062   -6.6063  -19.2371 C   0  0  0  0  0  0  0  0  0  0  0  0
  -13.8767   -5.4830  -18.8609 C   0  0  0  0  0  0  0  0  0  0  0  0
  -16.0564   -6.3266  -19.7774 C   0  0  0  0  0  0  0  0  0  0  0  0
  -17.2670   -5.2717  -23.2775 H   0  0  0  0  0  0  0  0  0  0  0  0
  -16.2676   -6.4307  -22.2973 H   0  0  0  0  0  0  0  0  0  0  0  0
  -16.2950   -7.0719  -28.6796 H   0  0  0  0  0  0  0  0  0  0  0  0
  -22.0808   -3.9273  -19.8292 H   0  0  0  0  0  0  0  0  0  0  0  0
  -21.6509   -2.8762  -21.2209 H   0  0  0  0  0  0  0  0  0  0  0  0
  -23.2061   -3.7750  -21.2209 H   0  0  0  0  0  0  0  0  0  0  0  0
  -22.0757   -5.7307  -21.8694 H   0  0  0  0  0  0  0  0  0  0  0  0
  -19.5792   -5.9877  -23.5671 H   0  0  0  0  0  0  0  0  0  0  0  0
  -20.3208   -7.0369  -22.2870 H   0  0  0  0  0  0  0  0  0  0  0  0
  -18.1808   -7.4683  -24.3636 H   0  0  0  0  0  0  0  0  0  0  0  0
  -17.4115   -8.0391  -26.6914 H   0  0  0  0  0  0  0  0  0  0  0  0
  -14.7128   -5.1865  -28.4273 H   0  0  0  0  0  0  0  0  0  0  0  0
  -14.2529   -4.2573  -26.1762 H   0  0  0  0  0  0  0  0  0  0  0  0
  -15.3641   -5.2138  -24.1817 H   0  0  0  0  0  0  0  0  0  0  0  0
  -18.3481   -9.7072  -23.7517 H   0  0  0  0  0  0  0  0  0  0  0  0
  -17.3160  -11.8447  -23.0486 H   0  0  0  0  0  0  0  0  0  0  0  0
  -14.8984  -11.9450  -22.5085 H   0  0  0  0  0  0  0  0  0  0  0  0
  -13.5063   -9.9066  -22.7151 H   0  0  0  0  0  0  0  0  0  0  0  0
  -14.5273   -7.7656  -23.4245 H   0  0  0  0  0  0  0  0  0  0  0  0
  -17.2344   -9.4723  -20.2604 H   0  0  0  0  0  0  0  0  0  0  0  0
  -14.8509  -10.6759  -18.1842 H   0  0  0  0  0  0  0  0  0  0  0  0
  -15.6699  -11.0894  -19.7285 H   0  0  0  0  0  0  0  0  0  0  0  0
  -13.9348  -10.6246  -19.7285 H   0  0  0  0  0  0  0  0  0  0  0  0
  -13.1579   -7.7559  -16.5577 H   0  0  0  0  0  0  0  0  0  0  0  0
  -14.2109   -9.1456  -16.9894 H   0  0  0  0  0  0  0  0  0  0  0  0
  -12.4250   -9.3380  -16.9894 H   0  0  0  0  0  0  0  0  0  0  0  0
  -13.8155   -5.4091  -17.7651 H   0  0  0  0  0  0  0  0  0  0  0  0
  -12.8758   -5.6823  -19.2714 H   0  0  0  0  0  0  0  0  0  0  0  0
  -14.2597   -4.5371  -19.2714 H   0  0  0  0  0  0  0  0  0  0  0  0
  -16.3527   -5.2789  -19.9338 H   0  0  0  0  0  0  0  0  0  0  0  0
  1  2  1  0
  1  8  1  0
  1 21  1  0
  9  2  1  0
  3 11  2  0
  3 12  1  0
  4  5  1  0
  5  6  1  0
  6  7  2  0
  6  8  1  0
  9 10  1  0
  9 15  1  0
 10 11  1  0
 10 14  2  0
 12 13  2  0
 13 14  1  0
 15 16  2  0
 15 20  1  0
 16 17  1  0
 17 18  2  0
 18 19  1  0
 19 20  2  0
 21 22  2  0
 21 23  1  0
 23 24  2  0
 23 32  1  0
 24 25  1  0
 25 26  1  0
 25 27  2  0
 27 28  1  0
 27 30  1  0
 28 29  1  0
 30 31  1  0
 30 32  2  0
  2 33  1  0
  2 34  1  0
  3 35  1  0
  4 36  1  0
  4 37  1  0
  4 38  1  0
  5 39  1  0
  8 40  1  0
  8 41  1  0
  9 42  1  6
 11 43  1  0
 12 44  1  0
 13 45  1  0
 14 46  1  0
 16 47  1  0
 17 48  1  0
 18 49  1  0
 19 50  1  0
 20 51  1  0
 24 52  1  0
 26 53  1  0
 26 54  1  0
 26 55  1  0
 29 56  1  0
 29 57  1  0
 29 58  1  0
 31 59  1  0
 31 60  1  0
 31 61  1  0
 32 62  1  0
M  END
>  <filename_input>  (1) 
7OEO_V9Z_docked.sdf

>  <pdb_id>  (1) 
7OEO_V9Z

>  <pose_rank>  (1) 
0

>  <num_atoms_heavy>  (1) 
32

>  <num_torsions>  (1) 
8

>  <pose>  (1) 
[-18.32437290046983, -6.548486104586767, -21.999053255566032, -2.1359127390751427, 5.670234780055128, -1.086118493776746, 3.1149844145153245, 3.3784366994377186, 12.559529925053551, 6.102035513297033, -3.184585945334707, 3.2321960538533756, -0.14545565261005594, 0.5422637277897071]

>  <energy>  (1) 
-901.9700209296907

>  <inter_energy>  (1) 
-922.3951384626877

>  <intra_energy>  (1) 
40.37151412251919

>  <rmsd>  (1) 
0.555669

>  <sdf_rank>  (1) 
0

$$$$

     RDKit          3D

 62 64  0  0  0  0  0  0  0  0999 V2000
  -17.8030   -6.4195  -22.1815 N   0  0  0  0  0  0  0  0  0  0  0  0
  -16.6234   -6.5196  -23.0397 C   0  0  0  0  0  0  0  0  0  0  0  0
  -14.8998   -5.4778  -26.7858 C   0  0  0  0  0  0  0  0  0  0  0  0
  -21.2311   -7.6483  -25.2903 C   0  0  0  0  0  0  0  0  0  0  0  0
  -20.3849   -6.7033  -24.5928 N   0  0  0  0  0  0  0  0  0  0  0  0
  -19.8690   -6.9590  -23.3999 C   0  0  0  0  0  0  0  0  0  0  0  0
  -20.0688   -8.0159  -22.8075 O   0  0  0  0  0  0  0  0  0  0  0  0
  -19.0122   -5.8756  -22.7702 C   0  0  0  0  0  0  0  0  0  0  0  0
  -16.8236   -7.5123  -24.1879 C   0  0  1  0  0  0  0  0  0  0  0  0
  -16.2307   -7.0305  -25.5110 C   0  0  0  0  0  0  0  0  0  0  0  0
  -15.4272   -5.9007  -25.5770 C   0  0  0  0  0  0  0  0  0  0  0  0
  -15.1682   -6.1730  -27.9400 C   0  0  0  0  0  0  0  0  0  0  0  0
  -15.9637   -7.2967  -27.8898 C   0  0  0  0  0  0  0  0  0  0  0  0
  -16.4923   -7.7234  -26.6846 C   0  0  0  0  0  0  0  0  0  0  0  0
  -16.3003   -8.8883  -23.7947 C   0  0  0  0  0  0  0  0  0  0  0  0
  -17.1124  -10.0097  -23.8884 C   0  0  0  0  0  0  0  0  0  0  0  0
  -16.6370  -11.2579  -23.5281 C   0  0  0  0  0  0  0  0  0  0  0  0
  -15.3467  -11.4024  -23.0658 C   0  0  0  0  0  0  0  0  0  0  0  0
  -14.5286  -10.2994  -22.9754 C   0  0  0  0  0  0  0  0  0  0  0  0
  -15.0000   -9.0496  -23.3369 C   0  0  0  0  0  0  0  0  0  0  0  0
  -17.8647   -6.7090  -20.8648 C   0  0  0  0  0  0  0  0  0  0  0  0
  -18.8911   -6.5641  -20.2266 O   0  0  0  0  0  0  0  0  0  0  0  0
  -16.6437   -7.2187  -20.1615 C   0  0  0  0  0  0  0  0  0  0  0  0
  -15.7933   -6.3417  -19.4919 C   0  0  0  0  0  0  0  0  0  0  0  0
  -14.6769   -6.7982  -18.7995 C   0  0  0  0  0  0  0  0  0  0  0  0
  -13.7622   -5.8202  -18.1041 C   0  0  0  0  0  0  0  0  0  0  0  0
  -14.4355   -8.1715  -18.7947 C   0  0  0  0  0  0  0  0  0  0  0  0
  -13.3418   -8.6494  -18.1095 O   0  0  0  0  0  0  0  0  0  0  0  0
  -13.5840   -8.8144  -16.7177 C   0  0  0  0  0  0  0  0  0  0  0  0
  -15.2753   -9.0861  -19.4429 C   0  0  0  0  0  0  0  0  0  0  0  0
  -15.0173  -10.5693  -19.4170 C   0  0  0  0  0  0  0  0  0  0  0  0
  -16.3856   -8.5822  -20.1112 C   0  0  0  0  0  0  0  0  0  0  0  0
  -16.4086   -5.5273  -23.4632 H   0  0  0  0  0  0  0  0  0  0  0  0
  -15.7878   -6.8820  -22.4229 H   0  0  0  0  0  0  0  0  0  0  0  0
  -14.2632   -4.5814  -26.8220 H   0  0  0  0  0  0  0  0  0  0  0  0
  -21.7787   -8.2599  -24.5581 H   0  0  0  0  0  0  0  0  0  0  0  0
  -21.9479   -7.1024  -25.9213 H   0  0  0  0  0  0  0  0  0  0  0  0
  -20.6096   -8.3007  -25.9213 H   0  0  0  0  0  0  0  0  0  0  0  0
  -20.1764   -5.7993  -25.0404 H   0  0  0  0  0  0  0  0  0  0  0  0
  -19.5952   -5.3720  -21.9849 H   0  0  0  0  0  0  0  0  0  0  0  0
  -18.7198   -5.1683  -23.5602 H   0  0  0  0  0  0  0  0  0  0  0  0
  -17.9064   -7.5886  -24.3663 H   0  0  0  0  0  0  0  0  0  0  0  0
  -15.2070   -5.3352  -24.6595 H   0  0  0  0  0  0  0  0  0  0  0  0
  -14.7500   -5.8342  -28.8993 H   0  0  0  0  0  0  0  0  0  0  0  0
  -16.1794   -7.8568  -28.8116 H   0  0  0  0  0  0  0  0  0  0  0  0
  -17.1268   -8.6215  -26.6563 H   0  0  0  0  0  0  0  0  0  0  0  0
  -18.1449   -9.9050  -24.2529 H   0  0  0  0  0  0  0  0  0  0  0  0
  -17.2912  -12.1383  -23.6110 H   0  0  0  0  0  0  0  0  0  0  0  0
  -14.9728  -12.3939  -22.7707 H   0  0  0  0  0  0  0  0  0  0  0  0
  -13.4957  -10.4118  -22.6143 H   0  0  0  0  0  0  0  0  0  0  0  0
  -14.3374   -8.1749  -23.2606 H   0  0  0  0  0  0  0  0  0  0  0  0
  -16.0097   -5.2634  -19.5112 H   0  0  0  0  0  0  0  0  0  0  0  0
  -13.8664   -5.9316  -17.0147 H   0  0  0  0  0  0  0  0  0  0  0  0
  -12.7207   -6.0216  -18.3953 H   0  0  0  0  0  0  0  0  0  0  0  0
  -14.0326   -4.7945  -18.3953 H   0  0  0  0  0  0  0  0  0  0  0  0
  -12.8077   -8.2856  -16.1452 H   0  0  0  0  0  0  0  0  0  0  0  0
  -14.5714   -8.4003  -16.4657 H   0  0  0  0  0  0  0  0  0  0  0  0
  -13.5601   -9.8849  -16.4657 H   0  0  0  0  0  0  0  0  0  0  0  0
  -14.9575  -10.9129  -18.3738 H   0  0  0  0  0  0  0  0  0  0  0  0
  -15.8378  -11.0932  -19.9292 H   0  0  0  0  0  0  0  0  0  0  0  0
  -14.0681  -10.7853  -19.9292 H   0  0  0  0  0  0  0  0  0  0  0  0
  -17.0746   -9.2789  -20.6111 H   0  0  0  0  0  0  0  0  0  0  0  0
  1  2  1  0
  1  8  1  0
  1 21  1  0
  9  2  1  0
  3 11  2  0
  3 12  1  0
  4  5  1  0
  5  6  1  0
  6  7  2  0
  6  8  1  0
  9 10  1  0
  9 15  1  0
 10 11  1  0
 10 14  2  0
 12 13  2  0
 13 14  1  0
 15 16  2  0
 15 20  1  0
 16 17  1  0
 17 18  2  0
 18 19  1  0
 19 20  2  0
 21 22  2  0
 21 23  1  0
 23 24  2  0
 23 32  1  0
 24 25  1  0
 25 26  1  0
 25 27  2  0
 27 28  1  0
 27 30  1  0
 28 29  1  0
 30 31  1  0
 30 32  2  0
  2 33  1  0
  2 34  1  0
  3 35  1  0
  4 36  1  0
  4 37  1  0
  4 38  1  0
  5 39  1  0
  8 40  1  0
  8 41  1  0
  9 42  1  6
 11 43  1  0
 12 44  1  0
 13 45  1  0
 14 46  1  0
 16 47  1  0
 17 48  1  0
 18 49  1  0
 19 50  1  0
 20 51  1  0
 24 52  1  0
 26 53  1  0
 26 54  1  0
 26 55  1  0
 29 56  1  0
 29 57  1  0
 29 58  1  0
 31 59  1  0
 31 60  1  0
 31 61  1  0
 32 62  1  0
M  END
>  <filename_input>  (2) 
7OEO_V9Z_docked.sdf

>  <pdb_id>  (2) 
7OEO_V9Z

>  <pose_rank>  (2) 
1

>  <num_atoms_heavy>  (2) 
32

>  <num_torsions>  (2) 
8

>  <pose>  (2) 
[-17.802968410864928, -6.419519145339124, -22.181522790476716, 2.3726235047934043, 3.64409194746474, 4.181211010601697, -5.976844137832594, -0.09376039932308611, -6.166366346005888, -0.39526071970505156, -0.2761813174302317, 3.511032140249334, 3.2975155424770355, 0.7042941897133087]

>  <energy>  (2) 
-865.7961310346867

>  <inter_energy>  (2) 
-870.6118968505001

>  <intra_energy>  (2) 
34.612677822177325

>  <rmsd>  (2) 
1.65883

>  <sdf_rank>  (2) 
0

$$$$

     RDKit          3D

 62 64  0  0  0  0  0  0  0  0999 V2000
  -18.7909   -6.5062  -22.1932 N   0  0  0  0  0  0  0  0  0  0  0  0
  -17.7867   -6.2928  -23.2343 C   0  0  0  0  0  0  0  0  0  0  0  0
  -20.7531   -9.5172  -25.3234 C   0  0  0  0  0  0  0  0  0  0  0  0
  -21.1288   -3.8022  -19.6403 C   0  0  0  0  0  0  0  0  0  0  0  0
  -20.7361   -4.9365  -20.4494 N   0  0  0  0  0  0  0  0  0  0  0  0
  -20.5490   -4.8439  -21.7575 C   0  0  0  0  0  0  0  0  0  0  0  0
  -20.6907   -3.7899  -22.3712 O   0  0  0  0  0  0  0  0  0  0  0  0
  -20.1552   -6.1131  -22.4914 C   0  0  0  0  0  0  0  0  0  0  0  0
  -17.7307   -7.4520  -24.2328 C   0  0  1  0  0  0  0  0  0  0  0  0
  -19.1038   -7.8488  -24.7728 C   0  0  0  0  0  0  0  0  0  0  0  0
  -19.5051   -9.1762  -24.8291 C   0  0  0  0  0  0  0  0  0  0  0  0
  -21.6124   -8.5418  -25.7681 C   0  0  0  0  0  0  0  0  0  0  0  0
  -21.2279   -7.2199  -25.7179 C   0  0  0  0  0  0  0  0  0  0  0  0
  -19.9825   -6.8742  -25.2243 C   0  0  0  0  0  0  0  0  0  0  0  0
  -16.7453   -7.1388  -25.3521 C   0  0  0  0  0  0  0  0  0  0  0  0
  -15.6015   -6.3937  -25.1026 C   0  0  0  0  0  0  0  0  0  0  0  0
  -14.7092   -6.1074  -26.1203 C   0  0  0  0  0  0  0  0  0  0  0  0
  -14.9490   -6.5573  -27.4007 C   0  0  0  0  0  0  0  0  0  0  0  0
  -16.0758   -7.3038  -27.6599 C   0  0  0  0  0  0  0  0  0  0  0  0
  -16.9695   -7.5939  -26.6439 C   0  0  0  0  0  0  0  0  0  0  0  0
  -18.5667   -6.9618  -20.9428 C   0  0  0  0  0  0  0  0  0  0  0  0
  -19.4690   -7.0776  -20.1339 O   0  0  0  0  0  0  0  0  0  0  0  0
  -17.1752   -7.3335  -20.5294 C   0  0  0  0  0  0  0  0  0  0  0  0
  -16.2634   -6.3523  -20.1464 C   0  0  0  0  0  0  0  0  0  0  0  0
  -14.9802   -6.6788  -19.7213 C   0  0  0  0  0  0  0  0  0  0  0  0
  -14.0082   -5.5909  -19.3356 C   0  0  0  0  0  0  0  0  0  0  0  0
  -14.6334   -8.0289  -19.6882 C   0  0  0  0  0  0  0  0  0  0  0  0
  -13.3720   -8.3786  -19.2631 O   0  0  0  0  0  0  0  0  0  0  0  0
  -13.2039   -8.2573  -17.8559 C   0  0  0  0  0  0  0  0  0  0  0  0
  -15.5267   -9.0451  -20.0507 C   0  0  0  0  0  0  0  0  0  0  0  0
  -15.1498  -10.5017  -19.9941 C   0  0  0  0  0  0  0  0  0  0  0  0
  -16.8022   -8.6692  -20.4569 C   0  0  0  0  0  0  0  0  0  0  0  0
  -18.0318   -5.3687  -23.7782 H   0  0  0  0  0  0  0  0  0  0  0  0
  -16.8041   -6.2219  -22.7450 H   0  0  0  0  0  0  0  0  0  0  0  0
  -21.0577  -10.5736  -25.3601 H   0  0  0  0  0  0  0  0  0  0  0  0
  -21.0386   -4.0626  -18.5754 H   0  0  0  0  0  0  0  0  0  0  0  0
  -20.4744   -2.9472  -19.8653 H   0  0  0  0  0  0  0  0  0  0  0  0
  -22.1718   -3.5348  -19.8653 H   0  0  0  0  0  0  0  0  0  0  0  0
  -20.5971   -5.8486  -19.9914 H   0  0  0  0  0  0  0  0  0  0  0  0
  -20.2479   -5.9418  -23.5740 H   0  0  0  0  0  0  0  0  0  0  0  0
  -20.8241   -6.9212  -22.1604 H   0  0  0  0  0  0  0  0  0  0  0  0
  -17.3683   -8.3349  -23.6858 H   0  0  0  0  0  0  0  0  0  0  0  0
  -18.8247   -9.9658  -24.4774 H   0  0  0  0  0  0  0  0  0  0  0  0
  -22.6023   -8.8150  -26.1623 H   0  0  0  0  0  0  0  0  0  0  0  0
  -21.9139   -6.4360  -26.0715 H   0  0  0  0  0  0  0  0  0  0  0  0
  -19.6857   -5.8156  -25.1895 H   0  0  0  0  0  0  0  0  0  0  0  0
  -15.4021   -6.0269  -24.0849 H   0  0  0  0  0  0  0  0  0  0  0  0
  -13.8050   -5.5185  -25.9067 H   0  0  0  0  0  0  0  0  0  0  0  0
  -14.2437   -6.3210  -28.2111 H   0  0  0  0  0  0  0  0  0  0  0  0
  -16.2669   -7.6713  -28.6789 H   0  0  0  0  0  0  0  0  0  0  0  0
  -17.8669   -8.1915  -26.8625 H   0  0  0  0  0  0  0  0  0  0  0  0
  -16.5654   -5.2952  -20.1810 H   0  0  0  0  0  0  0  0  0  0  0  0
  -13.9487   -5.5243  -18.2392 H   0  0  0  0  0  0  0  0  0  0  0  0
  -13.0140   -5.8261  -19.7432 H   0  0  0  0  0  0  0  0  0  0  0  0
  -14.3535   -4.6293  -19.7432 H   0  0  0  0  0  0  0  0  0  0  0  0
  -13.9925   -8.8265  -17.3421 H   0  0  0  0  0  0  0  0  0  0  0  0
  -12.2190   -8.6540  -17.5687 H   0  0  0  0  0  0  0  0  0  0  0  0
  -13.2703   -7.1975  -17.5687 H   0  0  0  0  0  0  0  0  0  0  0  0
  -15.0678  -10.8187  -18.9439 H   0  0  0  0  0  0  0  0  0  0  0  0
  -15.9227  -11.1003  -20.4985 H   0  0  0  0  0  0  0  0  0  0  0  0
  -14.1837  -10.6504  -20.4985 H   0  0  0  0  0  0  0  0  0  0  0  0
  -17.5318   -9.4468  -20.7269 H   0  0  0  0  0  0  0  0  0  0  0  0
  1  2  1  0
  1  8  1  0
  1 21  1  0
  9  2  1  0
  3 11  2  0
  3 12  1  0
  4  5  1  0
  5  6  1  0
  6  7  2  0
  6  8  1  0
  9 10  1  0
  9 15  1  0
 10 11  1  0
 10 14  2  0
 12 13  2  0
 13 14  1  0
 15 16  2  0
 15 20  1  0
 16 17  1  0
 17 18  2  0
 18 19  1  0
 19 20  2  0
 21 22  2  0
 21 23  1  0
 23 24  2  0
 23 32  1  0
 24 25  1  0
 25 26  1  0
 25 27  2  0
 27 28  1  0
 27 30  1  0
 28 29  1  0
 30 31  1  0
 30 32  2  0
  2 33  1  0
  2 34  1  0
  3 35  1  0
  4 36  1  0
  4 37  1  0
  4 38  1  0
  5 39  1  0
  8 40  1  0
  8 41  1  0
  9 42  1  1
 11 43  1  0
 12 44  1  0
 13 45  1  0
 14 46  1  0
 16 47  1  0
 17 48  1  0
 18 49  1  0
 19 50  1  0
 20 51  1  0
 24 52  1  0
 26 53  1  0
 26 54  1  0
 26 55  1  0
 29 56  1  0
 29 57  1  0
 29 58  1  0
 31 59  1  0
 31 60  1  0
 31 61  1  0
 32 62  1  0
M  END
>  <filename_input>  (3) 
7OEO_V9Z_docked.sdf

>  <pdb_id>  (3) 
7OEO_V9Z

>  <pose_rank>  (3) 
2

>  <num_atoms_heavy>  (3) 
32

>  <num_torsions>  (3) 
8

>  <pose>  (3) 
[-18.790937271705197, -6.506232971530915, -22.193181087640603, -4.971467395814702, -3.4687504639777225, 1.4637836610204564, -6.218524685612076, -0.24290042646195756, -88.19659997069651, -20.823247449409724, 3.5288873182648928, 1.8988339442227442, -18.966509938990665, 1.8226212866087799]

>  <energy>  (3) 
-616.8147625850113

>  <inter_energy>  (3) 
-740.6644962920291

>  <intra_energy>  (3) 
131.47449792721432

>  <rmsd>  (3) 
2.28809

>  <sdf_rank>  (3) 
0

$$$$

     RDKit          3D

 62 64  0  0  0  0  0  0  0  0999 V2000
  -17.7653   -6.1633  -21.0419 N   0  0  0  0  0  0  0  0  0  0  0  0
  -16.6614   -6.1043  -21.9989 C   0  0  0  0  0  0  0  0  0  0  0  0
  -16.1465   -6.3259  -26.8967 C   0  0  0  0  0  0  0  0  0  0  0  0
  -20.7676   -2.3594  -21.4822 C   0  0  0  0  0  0  0  0  0  0  0  0
  -20.4792   -3.7780  -21.4830 N   0  0  0  0  0  0  0  0  0  0  0  0
  -19.2416   -4.2502  -21.4937 C   0  0  0  0  0  0  0  0  0  0  0  0
  -18.2561   -3.5178  -21.4984 O   0  0  0  0  0  0  0  0  0  0  0  0
  -19.0773   -5.7592  -21.5108 C   0  0  0  0  0  0  0  0  0  0  0  0
  -16.8980   -7.0054  -23.2139 C   0  0  1  0  0  0  0  0  0  0  0  0
  -16.2571   -6.4712  -24.4938 C   0  0  0  0  0  0  0  0  0  0  0  0
  -16.7415   -6.8186  -25.7471 C   0  0  0  0  0  0  0  0  0  0  0  0
  -15.0634   -5.4852  -26.8105 C   0  0  0  0  0  0  0  0  0  0  0  0
  -14.5719   -5.1311  -25.5732 C   0  0  0  0  0  0  0  0  0  0  0  0
  -15.1632   -5.6202  -24.4220 C   0  0  0  0  0  0  0  0  0  0  0  0
  -16.4593   -8.4321  -22.9076 C   0  0  0  0  0  0  0  0  0  0  0  0
  -17.3791   -9.4711  -22.8999 C   0  0  0  0  0  0  0  0  0  0  0  0
  -16.9800  -10.7655  -22.6187 C   0  0  0  0  0  0  0  0  0  0  0  0
  -15.6588  -11.0389  -22.3375 C   0  0  0  0  0  0  0  0  0  0  0  0
  -14.7352  -10.0187  -22.3495 C   0  0  0  0  0  0  0  0  0  0  0  0
  -15.1304   -8.7230  -22.6324 C   0  0  0  0  0  0  0  0  0  0  0  0
  -17.6773   -6.4818  -19.7334 C   0  0  0  0  0  0  0  0  0  0  0  0
  -18.6541   -6.4738  -19.0070 O   0  0  0  0  0  0  0  0  0  0  0  0
  -16.3477   -6.8525  -19.1502 C   0  0  0  0  0  0  0  0  0  0  0  0
  -15.5253   -5.8803  -18.5853 C   0  0  0  0  0  0  0  0  0  0  0  0
  -14.3057   -6.2085  -18.0032 C   0  0  0  0  0  0  0  0  0  0  0  0
  -13.4271   -5.1288  -17.4209 C   0  0  0  0  0  0  0  0  0  0  0  0
  -13.9306   -7.5514  -18.0007 C   0  0  0  0  0  0  0  0  0  0  0  0
  -12.7320   -7.9033  -17.4231 O   0  0  0  0  0  0  0  0  0  0  0  0
  -11.6640   -7.9835  -18.3590 C   0  0  0  0  0  0  0  0  0  0  0  0
  -14.7366   -8.5596  -18.5448 C   0  0  0  0  0  0  0  0  0  0  0  0
  -14.3320  -10.0097  -18.5212 C   0  0  0  0  0  0  0  0  0  0  0  0
  -15.9524   -8.1830  -19.1043 C   0  0  0  0  0  0  0  0  0  0  0  0
  -16.5480   -5.0663  -22.3448 H   0  0  0  0  0  0  0  0  0  0  0  0
  -15.7537   -6.4586  -21.4884 H   0  0  0  0  0  0  0  0  0  0  0  0
  -16.5429   -6.6090  -27.8830 H   0  0  0  0  0  0  0  0  0  0  0  0
  -20.8406   -2.0006  -20.4449 H   0  0  0  0  0  0  0  0  0  0  0  0
  -19.9606   -1.8208  -22.0006 H   0  0  0  0  0  0  0  0  0  0  0  0
  -21.7209   -2.1787  -22.0006 H   0  0  0  0  0  0  0  0  0  0  0  0
  -21.2647   -4.4442  -21.4749 H   0  0  0  0  0  0  0  0  0  0  0  0
  -19.2143   -6.1207  -22.5407 H   0  0  0  0  0  0  0  0  0  0  0  0
  -19.8302   -6.1930  -20.8363 H   0  0  0  0  0  0  0  0  0  0  0  0
  -17.9802   -7.0077  -23.4108 H   0  0  0  0  0  0  0  0  0  0  0  0
  -17.6072   -7.4925  -25.8283 H   0  0  0  0  0  0  0  0  0  0  0  0
  -14.5910   -5.0967  -27.7248 H   0  0  0  0  0  0  0  0  0  0  0  0
  -13.7058   -4.4569  -25.5002 H   0  0  0  0  0  0  0  0  0  0  0  0
  -14.7620   -5.3315  -23.4393 H   0  0  0  0  0  0  0  0  0  0  0  0
  -18.4367   -9.2633  -23.1197 H   0  0  0  0  0  0  0  0  0  0  0  0
  -17.7199  -11.5795  -22.6196 H   0  0  0  0  0  0  0  0  0  0  0  0
  -15.3442  -12.0670  -22.1047 H   0  0  0  0  0  0  0  0  0  0  0  0
  -13.6784  -10.2341  -22.1332 H   0  0  0  0  0  0  0  0  0  0  0  0
  -14.3836   -7.9154  -22.6393 H   0  0  0  0  0  0  0  0  0  0  0  0
  -15.8480   -4.8288  -18.6000 H   0  0  0  0  0  0  0  0  0  0  0  0
  -13.4662   -5.1769  -16.3226 H   0  0  0  0  0  0  0  0  0  0  0  0
  -12.3907   -5.2781  -17.7577 H   0  0  0  0  0  0  0  0  0  0  0  0
  -13.7839   -4.1444  -17.7577 H   0  0  0  0  0  0  0  0  0  0  0  0
  -10.7081   -8.0553  -17.8194 H   0  0  0  0  0  0  0  0  0  0  0  0
  -11.7962   -8.8743  -18.9908 H   0  0  0  0  0  0  0  0  0  0  0  0
  -11.6617   -7.0830  -18.9908 H   0  0  0  0  0  0  0  0  0  0  0  0
  -14.2379  -10.3472  -17.4785 H   0  0  0  0  0  0  0  0  0  0  0  0
  -15.0964  -10.6120  -19.0339 H   0  0  0  0  0  0  0  0  0  0  0  0
  -13.3662  -10.1293  -19.0339 H   0  0  0  0  0  0  0  0  0  0  0  0
  -16.6158   -8.9559  -19.5198 H   0  0  0  0  0  0  0  0  0  0  0  0
  1  2  1  0
  1  8  1  0
  1 21  1  0
  9  2  1  0
  3 11  2  0
  3 12  1  0
  4  5  1  0
  5  6  1  0
  6  7  2  0
  6  8  1  0
  9 10  1  0
  9 15  1  0
 10 11  1  0
 10 14  2  0
 12 13  2  0
 13 14  1  0
 15 16  2  0
 15 20  1  0
 16 17  1  0
 17 18  2  0
 18 19  1  0
 19 20  2  0
 21 22  2  0
 21 23  1  0
 23 24  2  0
 23 32  1  0
 24 25  1  0
 25 26  1  0
 25 27  2  0
 27 28  1  0
 27 30  1  0
 28 29  1  0
 30 31  1  0
 30 32  2  0
  2 33  1  0
  2 34  1  0
  3 35  1  0
  4 36  1  0
  4 37  1  0
  4 38  1  0
  5 39  1  0
  8 40  1  0
  8 41  1  0
  9 42  1  6
 11 43  1  0
 12 44  1  0
 13 45  1  0
 14 46  1  0
 16 47  1  0
 17 48  1  0
 18 49  1  0
 19 50  1  0
 20 51  1  0
 24 52  1  0
 26 53  1  0
 26 54  1  0
 26 55  1  0
 29 56  1  0
 29 57  1  0
 29 58  1  0
 31 59  1  0
 31 60  1  0
 31 61  1  0
 32 62  1  0
M  END
>  <filename_input>  (4) 
7OEO_V9Z_docked.sdf

>  <pdb_id>  (4) 
7OEO_V9Z

>  <pose_rank>  (4) 
3

>  <num_atoms_heavy>  (4) 
32

>  <num_torsions>  (4) 
8

>  <pose>  (4) 
[-17.765291113381743, -6.163303516966256, -21.04185236451943, 4.003988385751573, 3.7836162284678316, 2.7790617100045805, 0.2540699001907749, -3.1926361011238504, 0.2019021630619943, -0.2345111622905315, 3.138953437829644, 3.347442203498159, 0.31345419924113554, -5.985285501440913]

>  <energy>  (4) 
-808.3217190472765

>  <inter_energy>  (4) 
-815.0486473622866

>  <intra_energy>  (4) 
22.725245725805333

>  <rmsd>  (4) 
1.25217

>  <sdf_rank>  (4) 
0

$$$$

     RDKit          3D

 62 64  0  0  0  0  0  0  0  0999 V2000
  -16.4632   -9.0458  -21.4593 N   0  0  0  0  0  0  0  0  0  0  0  0
  -16.3648   -7.7043  -22.0326 C   0  0  0  0  0  0  0  0  0  0  0  0
  -20.5249   -5.0265  -21.9722 C   0  0  0  0  0  0  0  0  0  0  0  0
  -16.6660  -13.6645  -22.7065 C   0  0  0  0  0  0  0  0  0  0  0  0
  -17.2558  -12.3951  -22.3370 N   0  0  0  0  0  0  0  0  0  0  0  0
  -16.6457  -11.2396  -22.5538 C   0  0  0  0  0  0  0  0  0  0  0  0
  -15.5420  -11.1661  -23.0870 O   0  0  0  0  0  0  0  0  0  0  0  0
  -17.3659   -9.9818  -22.1025 C   0  0  0  0  0  0  0  0  0  0  0  0
  -17.6056   -7.3290  -22.8473 C   0  0  1  0  0  0  0  0  0  0  0  0
  -18.4606   -6.2523  -22.1810 C   0  0  0  0  0  0  0  0  0  0  0  0
  -19.7652   -6.0081  -22.5868 C   0  0  0  0  0  0  0  0  0  0  0  0
  -19.9936   -4.2777  -20.9501 C   0  0  0  0  0  0  0  0  0  0  0  0
  -18.7002   -4.5093  -20.5362 C   0  0  0  0  0  0  0  0  0  0  0  0
  -17.9377   -5.4891  -21.1467 C   0  0  0  0  0  0  0  0  0  0  0  0
  -17.2095   -6.9461  -24.2680 C   0  0  0  0  0  0  0  0  0  0  0  0
  -18.0972   -7.1128  -25.3215 C   0  0  0  0  0  0  0  0  0  0  0  0
  -17.7352   -6.7676  -26.6113 C   0  0  0  0  0  0  0  0  0  0  0  0
  -16.4815   -6.2556  -26.8669 C   0  0  0  0  0  0  0  0  0  0  0  0
  -15.5944   -6.0781  -25.8298 C   0  0  0  0  0  0  0  0  0  0  0  0
  -15.9537   -6.4203  -24.5380 C   0  0  0  0  0  0  0  0  0  0  0  0
  -15.8568   -9.4856  -20.3368 C   0  0  0  0  0  0  0  0  0  0  0  0
  -16.0255  -10.6172  -19.9212 O   0  0  0  0  0  0  0  0  0  0  0  0
  -14.9542   -8.5641  -19.5741 C   0  0  0  0  0  0  0  0  0  0  0  0
  -14.1130   -9.0582  -18.5796 C   0  0  0  0  0  0  0  0  0  0  0  0
  -13.2390   -8.2268  -17.8876 C   0  0  0  0  0  0  0  0  0  0  0  0
  -12.3577   -8.7888  -16.7994 C   0  0  0  0  0  0  0  0  0  0  0  0
  -13.2297   -6.8738  -18.2247 C   0  0  0  0  0  0  0  0  0  0  0  0
  -12.3676   -6.0316  -17.5602 O   0  0  0  0  0  0  0  0  0  0  0  0
  -12.5155   -6.0840  -16.1465 C   0  0  0  0  0  0  0  0  0  0  0  0
  -14.0489   -6.3421  -19.2287 C   0  0  0  0  0  0  0  0  0  0  0  0
  -14.0189   -4.8829  -19.5990 C   0  0  0  0  0  0  0  0  0  0  0  0
  -14.8967   -7.2156  -19.9006 C   0  0  0  0  0  0  0  0  0  0  0  0
  -16.2452   -6.9780  -21.2152 H   0  0  0  0  0  0  0  0  0  0  0  0
  -15.4993   -7.6908  -22.7114 H   0  0  0  0  0  0  0  0  0  0  0  0
  -21.5580   -4.8457  -22.3037 H   0  0  0  0  0  0  0  0  0  0  0  0
  -16.4051  -14.2261  -21.7974 H   0  0  0  0  0  0  0  0  0  0  0  0
  -17.3870  -14.2444  -23.3015 H   0  0  0  0  0  0  0  0  0  0  0  0
  -15.7579  -13.4875  -23.3015 H   0  0  0  0  0  0  0  0  0  0  0  0
  -18.1834  -12.3904  -21.8893 H   0  0  0  0  0  0  0  0  0  0  0  0
  -18.1568  -10.2604  -21.3904 H   0  0  0  0  0  0  0  0  0  0  0  0
  -17.7895   -9.4923  -22.9919 H   0  0  0  0  0  0  0  0  0  0  0  0
  -18.2469   -8.2216  -22.8924 H   0  0  0  0  0  0  0  0  0  0  0  0
  -20.2004   -6.6003  -23.4053 H   0  0  0  0  0  0  0  0  0  0  0  0
  -20.5980   -3.4973  -20.4647 H   0  0  0  0  0  0  0  0  0  0  0  0
  -18.2720   -3.9129  -19.7171 H   0  0  0  0  0  0  0  0  0  0  0  0
  -16.9058   -5.6650  -20.8086 H   0  0  0  0  0  0  0  0  0  0  0  0
  -19.0992   -7.5237  -25.1290 H   0  0  0  0  0  0  0  0  0  0  0  0
  -18.4508   -6.9022  -27.4359 H   0  0  0  0  0  0  0  0  0  0  0  0
  -16.1914   -5.9903  -27.8943 H   0  0  0  0  0  0  0  0  0  0  0  0
  -14.5955   -5.6624  -26.0286 H   0  0  0  0  0  0  0  0  0  0  0  0
  -15.2367   -6.2741  -23.7167 H   0  0  0  0  0  0  0  0  0  0  0  0
  -14.1407  -10.1305  -18.3362 H   0  0  0  0  0  0  0  0  0  0  0  0
  -12.7741   -8.5232  -15.8165 H   0  0  0  0  0  0  0  0  0  0  0  0
  -12.3111   -9.8837  -16.8942 H   0  0  0  0  0  0  0  0  0  0  0  0
  -11.3453   -8.3691  -16.8942 H   0  0  0  0  0  0  0  0  0  0  0  0
  -11.5821   -5.7532  -15.6676 H   0  0  0  0  0  0  0  0  0  0  0  0
  -13.3394   -5.4231  -15.8393 H   0  0  0  0  0  0  0  0  0  0  0  0
  -12.7394   -7.1162  -15.8393 H   0  0  0  0  0  0  0  0  0  0  0  0
  -14.0063   -4.2726  -18.6839 H   0  0  0  0  0  0  0  0  0  0  0  0
  -13.1162   -4.6736  -20.1918 H   0  0  0  0  0  0  0  0  0  0  0  0
  -14.9121   -4.6366  -20.1918 H   0  0  0  0  0  0  0  0  0  0  0  0
  -15.5359   -6.8300  -20.7085 H   0  0  0  0  0  0  0  0  0  0  0  0
  1  2  1  0
  1  8  1  0
  1 21  1  0
  9  2  1  0
  3 11  2  0
  3 12  1  0
  4  5  1  0
  5  6  1  0
  6  7  2  0
  6  8  1  0
  9 10  1  0
  9 15  1  0
 10 11  1  0
 10 14  2  0
 12 13  2  0
 13 14  1  0
 15 16  2  0
 15 20  1  0
 16 17  1  0
 17 18  2  0
 18 19  1  0
 19 20  2  0
 21 22  2  0
 21 23  1  0
 23 24  2  0
 23 32  1  0
 24 25  1  0
 25 26  1  0
 25 27  2  0
 27 28  1  0
 27 30  1  0
 28 29  1  0
 30 31  1  0
 30 32  2  0
  2 33  1  0
  2 34  1  0
  3 35  1  0
  4 36  1  0
  4 37  1  0
  4 38  1  0
  5 39  1  0
  8 40  1  0
  8 41  1  0
  9 42  1  6
 11 43  1  0
 12 44  1  0
 13 45  1  0
 14 46  1  0
 16 47  1  0
 17 48  1  0
 18 49  1  0
 19 50  1  0
 20 51  1  0
 24 52  1  0
 26 53  1  0
 26 54  1  0
 26 55  1  0
 29 56  1  0
 29 57  1  0
 29 58  1  0
 31 59  1  0
 31 60  1  0
 31 61  1  0
 32 62  1  0
M  END
>  <filename_input>  (5) 
7OEO_V9Z_docked.sdf

>  <pdb_id>  (5) 
7OEO_V9Z

>  <pose_rank>  (5) 
4

>  <num_atoms_heavy>  (5) 
32

>  <num_torsions>  (5) 
8

>  <pose>  (5) 
[-16.463245335712067, -9.045792054458495, -21.459279439476536, -1.677168510033881, 0.4795920294116471, -4.713736981483764, 2.0304725495852733, 3.7883989228705666, 1.6564469467130516, -0.919848638894052, -3.301935711099758, -2.30802840922911, 3.8710944276283876, -0.8105052156790674]

>  <energy>  (5) 
-582.0328313551981

>  <inter_energy>  (5) 
-677.2447544396348

>  <intra_energy>  (5) 
104.0053094318339

>  <rmsd>  (5) 
4.64126

>  <sdf_rank>  (5) 
0

$$$$

     RDKit          3D

 62 64  0  0  0  0  0  0  0  0999 V2000
  -18.1918   -6.9134  -21.7404 N   0  0  0  0  0  0  0  0  0  0  0  0
  -17.1750   -6.2677  -22.5693 C   0  0  0  0  0  0  0  0  0  0  0  0
  -18.8402  -10.0504  -24.2726 C   0  0  0  0  0  0  0  0  0  0  0  0
  -21.8219   -3.7854  -22.4016 C   0  0  0  0  0  0  0  0  0  0  0  0
  -21.1503   -5.0469  -22.6324 N   0  0  0  0  0  0  0  0  0  0  0  0
  -20.2053   -5.5055  -21.8252 C   0  0  0  0  0  0  0  0  0  0  0  0
  -19.8389   -4.8951  -20.8248 O   0  0  0  0  0  0  0  0  0  0  0  0
  -19.5687   -6.8343  -22.1905 C   0  0  0  0  0  0  0  0  0  0  0  0
  -16.3664   -7.2778  -23.3878 C   0  0  1  0  0  0  0  0  0  0  0  0
  -17.0436   -8.6428  -23.4990 C   0  0  0  0  0  0  0  0  0  0  0  0
  -18.2398   -8.8054  -24.1838 C   0  0  0  0  0  0  0  0  0  0  0  0
  -18.2578  -11.1443  -23.6796 C   0  0  0  0  0  0  0  0  0  0  0  0
  -17.0701  -10.9983  -22.9970 C   0  0  0  0  0  0  0  0  0  0  0  0
  -16.4663   -9.7568  -22.9060 C   0  0  0  0  0  0  0  0  0  0  0  0
  -16.0232   -6.6973  -24.7542 C   0  0  0  0  0  0  0  0  0  0  0  0
  -16.1830   -7.4533  -25.9069 C   0  0  0  0  0  0  0  0  0  0  0  0
  -15.8681   -6.9261  -27.1465 C   0  0  0  0  0  0  0  0  0  0  0  0
  -15.3858   -5.6394  -27.2514 C   0  0  0  0  0  0  0  0  0  0  0  0
  -15.2299   -4.8764  -26.1167 C   0  0  0  0  0  0  0  0  0  0  0  0
  -15.5459   -5.3996  -24.8752 C   0  0  0  0  0  0  0  0  0  0  0  0
  -17.9931   -7.5135  -20.5481 C   0  0  0  0  0  0  0  0  0  0  0  0
  -18.9134   -7.9989  -19.9161 O   0  0  0  0  0  0  0  0  0  0  0  0
  -16.6092   -7.5861  -19.9780 C   0  0  0  0  0  0  0  0  0  0  0  0
  -15.9978   -6.4493  -19.4538 C   0  0  0  0  0  0  0  0  0  0  0  0
  -14.7303   -6.5029  -18.8841 C   0  0  0  0  0  0  0  0  0  0  0  0
  -14.0858   -5.2490  -18.3465 C   0  0  0  0  0  0  0  0  0  0  0  0
  -14.0873   -7.7397  -18.8518 C   0  0  0  0  0  0  0  0  0  0  0  0
  -12.8355   -7.8208  -18.2855 O   0  0  0  0  0  0  0  0  0  0  0  0
  -12.8720   -8.0191  -16.8775 C   0  0  0  0  0  0  0  0  0  0  0  0
  -14.6750   -8.9076  -19.3544 C   0  0  0  0  0  0  0  0  0  0  0  0
  -13.9809  -10.2426  -19.2985 C   0  0  0  0  0  0  0  0  0  0  0  0
  -15.9486   -8.8052  -19.9029 C   0  0  0  0  0  0  0  0  0  0  0  0
  -17.6719   -5.5698  -23.2593 H   0  0  0  0  0  0  0  0  0  0  0  0
  -16.4784   -5.7421  -21.8996 H   0  0  0  0  0  0  0  0  0  0  0  0
  -19.7874  -10.1638  -24.8203 H   0  0  0  0  0  0  0  0  0  0  0  0
  -21.9143   -3.6118  -21.3193 H   0  0  0  0  0  0  0  0  0  0  0  0
  -21.2380   -2.9709  -22.8551 H   0  0  0  0  0  0  0  0  0  0  0  0
  -22.8236   -3.8150  -22.8551 H   0  0  0  0  0  0  0  0  0  0  0  0
  -21.4168   -5.6082  -23.4538 H   0  0  0  0  0  0  0  0  0  0  0  0
  -19.5932   -6.9523  -23.2839 H   0  0  0  0  0  0  0  0  0  0  0  0
  -20.1375   -7.6341  -21.6938 H   0  0  0  0  0  0  0  0  0  0  0  0
  -15.4295   -7.4626  -22.8418 H   0  0  0  0  0  0  0  0  0  0  0  0
  -18.7161   -7.9362  -24.6610 H   0  0  0  0  0  0  0  0  0  0  0  0
  -18.7373  -12.1318  -23.7496 H   0  0  0  0  0  0  0  0  0  0  0  0
  -16.6000  -11.8722  -22.5223 H   0  0  0  0  0  0  0  0  0  0  0  0
  -15.5184   -9.6516  -22.3579 H   0  0  0  0  0  0  0  0  0  0  0  0
  -16.5641   -8.4826  -25.8341 H   0  0  0  0  0  0  0  0  0  0  0  0
  -16.0032   -7.5362  -28.0518 H   0  0  0  0  0  0  0  0  0  0  0  0
  -15.1268   -5.2245  -28.2367 H   0  0  0  0  0  0  0  0  0  0  0  0
  -14.8526   -3.8462  -26.1970 H   0  0  0  0  0  0  0  0  0  0  0  0
  -15.4175   -4.7807  -23.9749 H   0  0  0  0  0  0  0  0  0  0  0  0
  -16.5298   -5.4873  -19.4915 H   0  0  0  0  0  0  0  0  0  0  0  0
  -14.0981   -5.2730  -17.2468 H   0  0  0  0  0  0  0  0  0  0  0  0
  -13.0459   -5.1906  -18.7003 H   0  0  0  0  0  0  0  0  0  0  0  0
  -14.6435   -4.3694  -18.7003 H   0  0  0  0  0  0  0  0  0  0  0  0
  -12.6955   -7.0605  -16.3676 H   0  0  0  0  0  0  0  0  0  0  0  0
  -13.8577   -8.4124  -16.5880 H   0  0  0  0  0  0  0  0  0  0  0  0
  -12.0911   -8.7376  -16.5880 H   0  0  0  0  0  0  0  0  0  0  0  0
  -13.8297  -10.5335  -18.2486 H   0  0  0  0  0  0  0  0  0  0  0  0
  -14.5999  -10.9990  -19.8031 H   0  0  0  0  0  0  0  0  0  0  0  0
  -13.0062  -10.1704  -19.8031 H   0  0  0  0  0  0  0  0  0  0  0  0
  -16.4436   -9.7098  -20.2859 H   0  0  0  0  0  0  0  0  0  0  0  0
  1  2  1  0
  1  8  1  0
  1 21  1  0
  9  2  1  0
  3 11  2  0
  3 12  1  0
  4  5  1  0
  5  6  1  0
  6  7  2  0
  6  8  1  0
  9 10  1  0
  9 15  1  0
 10 11  1  0
 10 14  2  0
 12 13  2  0
 13 14  1  0
 15 16  2  0
 15 20  1  0
 16 17  1  0
 17 18  2  0
 18 19  1  0
 19 20  2  0
 21 22  2  0
 21 23  1  0
 23 24  2  0
 23 32  1  0
 24 25  1  0
 25 26  1  0
 25 27  2  0
 27 28  1  0
 27 30  1  0
 28 29  1  0
 30 31  1  0
 30 32  2  0
  2 33  1  0
  2 34  1  0
  3 35  1  0
  4 36  1  0
  4 37  1  0
  4 38  1  0
  5 39  1  0
  8 40  1  0
  8 41  1  0
  9 42  1  1
 11 43  1  0
 12 44  1  0
 13 45  1  0
 14 46  1  0
 16 47  1  0
 17 48  1  0
 18 49  1  0
 19 50  1  0
 20 51  1  0
 24 52  1  0
 26 53  1  0
 26 54  1  0
 26 55  1  0
 29 56  1  0
 29 57  1  0
 29 58  1  0
 31 59  1  0
 31 60  1  0
 31 61  1  0
 32 62  1  0
M  END
>  <filename_input>  (6) 
7OEO_V9Z_docked.sdf

>  <pdb_id>  (6) 
7OEO_V9Z

>  <pose_rank>  (6) 
5

>  <num_atoms_heavy>  (6) 
32

>  <num_torsions>  (6) 
8

>  <pose>  (6) 
[-18.19181866174457, -6.913439375204049, -21.74037340629733, 0.19844491837309403, -0.10617068741972122, 0.2653661729975109, -0.061078287766186845, -0.03562477226562129, 43.42429973758545, 35.168317369732144, 0.7162878156749072, -1.036007994051803, 0.3226649420183637, -0.5893600069522166]

>  <energy>  (6) 
-776.8617169126786

>  <inter_energy>  (6) 
-857.2456662362742

>  <intra_energy>  (6) 
97.89417210665906

>  <rmsd>  (6) 
1.0007

>  <sdf_rank>  (6) 
0

$$$$

     RDKit          3D

 62 64  0  0  0  0  0  0  0  0999 V2000
  -16.5358   -9.1935  -22.8814 N   0  0  0  0  0  0  0  0  0  0  0  0
  -17.6486   -8.6130  -22.1314 C   0  0  0  0  0  0  0  0  0  0  0  0
  -21.0789   -5.6259  -21.0953 C   0  0  0  0  0  0  0  0  0  0  0  0
  -16.6357  -13.5622  -23.7440 C   0  0  0  0  0  0  0  0  0  0  0  0
  -16.3385  -12.1516  -23.8754 N   0  0  0  0  0  0  0  0  0  0  0  0
  -17.2862  -11.2377  -24.0223 C   0  0  0  0  0  0  0  0  0  0  0  0
  -18.4799  -11.5241  -24.0517 O   0  0  0  0  0  0  0  0  0  0  0  0
  -16.8387   -9.7944  -24.1667 C   0  0  0  0  0  0  0  0  0  0  0  0
  -18.5675   -7.7677  -23.0175 C   0  0  1  0  0  0  0  0  0  0  0  0
  -19.2169   -6.6023  -22.2730 C   0  0  0  0  0  0  0  0  0  0  0  0
  -20.5057   -6.6935  -21.7661 C   0  0  0  0  0  0  0  0  0  0  0  0
  -20.3767   -4.4574  -20.9245 C   0  0  0  0  0  0  0  0  0  0  0  0
  -19.0963   -4.3525  -21.4218 C   0  0  0  0  0  0  0  0  0  0  0  0
  -18.5192   -5.4164  -22.0920 C   0  0  0  0  0  0  0  0  0  0  0  0
  -17.8219   -7.3055  -24.2634 C   0  0  0  0  0  0  0  0  0  0  0  0
  -18.2712   -7.6537  -25.5293 C   0  0  0  0  0  0  0  0  0  0  0  0
  -17.5916   -7.2358  -26.6596 C   0  0  0  0  0  0  0  0  0  0  0  0
  -16.4527   -6.4689  -26.5408 C   0  0  0  0  0  0  0  0  0  0  0  0
  -16.0008   -6.1102  -25.2913 C   0  0  0  0  0  0  0  0  0  0  0  0
  -16.6793   -6.5246  -24.1586 C   0  0  0  0  0  0  0  0  0  0  0  0
  -15.2565   -9.3008  -22.4653 C   0  0  0  0  0  0  0  0  0  0  0  0
  -14.4033   -9.8299  -23.1537 O   0  0  0  0  0  0  0  0  0  0  0  0
  -14.8677   -8.7614  -21.1224 C   0  0  0  0  0  0  0  0  0  0  0  0
  -14.6639   -7.3956  -20.9389 C   0  0  0  0  0  0  0  0  0  0  0  0
  -14.3417   -6.8698  -19.6924 C   0  0  0  0  0  0  0  0  0  0  0  0
  -14.1039   -5.3884  -19.5316 C   0  0  0  0  0  0  0  0  0  0  0  0
  -14.2306   -7.7590  -18.6242 C   0  0  0  0  0  0  0  0  0  0  0  0
  -13.9210   -7.2624  -17.3785 O   0  0  0  0  0  0  0  0  0  0  0  0
  -12.5677   -7.4934  -17.0066 C   0  0  0  0  0  0  0  0  0  0  0  0
  -14.4430   -9.1363  -18.7655 C   0  0  0  0  0  0  0  0  0  0  0  0
  -14.3393  -10.0869  -17.6025 C   0  0  0  0  0  0  0  0  0  0  0  0
  -14.7751   -9.6123  -20.0289 C   0  0  0  0  0  0  0  0  0  0  0  0
  -18.2382   -9.4278  -21.6858 H   0  0  0  0  0  0  0  0  0  0  0  0
  -17.2265   -7.9540  -21.3584 H   0  0  0  0  0  0  0  0  0  0  0  0
  -22.1007   -5.7139  -20.6976 H   0  0  0  0  0  0  0  0  0  0  0  0
  -16.6915  -13.8275  -22.6780 H   0  0  0  0  0  0  0  0  0  0  0  0
  -17.5995  -13.7805  -24.2272 H   0  0  0  0  0  0  0  0  0  0  0  0
  -15.8418  -14.1507  -24.2272 H   0  0  0  0  0  0  0  0  0  0  0  0
  -15.3547  -11.8474  -23.8539 H   0  0  0  0  0  0  0  0  0  0  0  0
  -17.6428   -9.2187  -24.6483 H   0  0  0  0  0  0  0  0  0  0  0  0
  -15.9227   -9.7795  -24.7756 H   0  0  0  0  0  0  0  0  0  0  0  0
  -19.4017   -8.4133  -23.3295 H   0  0  0  0  0  0  0  0  0  0  0  0
  -21.0779   -7.6236  -21.8984 H   0  0  0  0  0  0  0  0  0  0  0  0
  -20.8346   -3.6100  -20.3933 H   0  0  0  0  0  0  0  0  0  0  0  0
  -18.5304   -3.4191  -21.2855 H   0  0  0  0  0  0  0  0  0  0  0  0
  -17.4964   -5.3213  -22.4855 H   0  0  0  0  0  0  0  0  0  0  0  0
  -19.1772   -8.2683  -25.6353 H   0  0  0  0  0  0  0  0  0  0  0  0
  -17.9616   -7.5168  -27.6566 H   0  0  0  0  0  0  0  0  0  0  0  0
  -15.9078   -6.1452  -27.4399 H   0  0  0  0  0  0  0  0  0  0  0  0
  -15.0966   -5.4916  -25.1926 H   0  0  0  0  0  0  0  0  0  0  0  0
  -16.3092   -6.2320  -23.1649 H   0  0  0  0  0  0  0  0  0  0  0  0
  -14.7600   -6.7175  -21.7997 H   0  0  0  0  0  0  0  0  0  0  0  0
  -14.0636   -5.1377  -18.4613 H   0  0  0  0  0  0  0  0  0  0  0  0
  -13.1505   -5.1162  -20.0080 H   0  0  0  0  0  0  0  0  0  0  0  0
  -14.9241   -4.8315  -20.0080 H   0  0  0  0  0  0  0  0  0  0  0  0
  -12.4861   -7.5073  -15.9097 H   0  0  0  0  0  0  0  0  0  0  0  0
  -12.2362   -8.4611  -17.4112 H   0  0  0  0  0  0  0  0  0  0  0  0
  -11.9341   -6.6904  -17.4112 H   0  0  0  0  0  0  0  0  0  0  0  0
  -14.4009   -9.5221  -16.6606 H   0  0  0  0  0  0  0  0  0  0  0  0
  -15.1634  -10.8141  -17.6486 H   0  0  0  0  0  0  0  0  0  0  0  0
  -13.3777  -10.6192  -17.6486 H   0  0  0  0  0  0  0  0  0  0  0  0
  -14.9687  -10.6865  -20.1652 H   0  0  0  0  0  0  0  0  0  0  0  0
  1  2  1  0
  1  8  1  0
  1 21  1  0
  9  2  1  0
  3 11  2  0
  3 12  1  0
  4  5  1  0
  5  6  1  0
  6  7  2  0
  6  8  1  0
  9 10  1  0
  9 15  1  0
 10 11  1  0
 10 14  2  0
 12 13  2  0
 13 14  1  0
 15 16  2  0
 15 20  1  0
 16 17  1  0
 17 18  2  0
 18 19  1  0
 19 20  2  0
 21 22  2  0
 21 23  1  0
 23 24  2  0
 23 32  1  0
 24 25  1  0
 25 26  1  0
 25 27  2  0
 27 28  1  0
 27 30  1  0
 28 29  1  0
 30 31  1  0
 30 32  2  0
  2 33  1  0
  2 34  1  0
  3 35  1  0
  4 36  1  0
  4 37  1  0
  4 38  1  0
  5 39  1  0
  8 40  1  0
  8 41  1  0
  9 42  1  6
 11 43  1  0
 12 44  1  0
 13 45  1  0
 14 46  1  0
 16 47  1  0
 17 48  1  0
 18 49  1  0
 19 50  1  0
 20 51  1  0
 24 52  1  0
 26 53  1  0
 26 54  1  0
 26 55  1  0
 29 56  1  0
 29 57  1  0
 29 58  1  0
 31 59  1  0
 31 60  1  0
 31 61  1  0
 32 62  1  0
M  END
>  <filename_input>  (7) 
7OEO_V9Z_docked.sdf

>  <pdb_id>  (7) 
7OEO_V9Z

>  <pose_rank>  (7) 
6

>  <num_atoms_heavy>  (7) 
32

>  <num_torsions>  (7) 
8

>  <pose>  (7) 
[-16.535760848985536, -9.19345098912894, -22.881435609722445, -2.308022617087602, 0.23040933246425263, -2.8408929454783767, -2.706880887821227, 2.9339809849497973, 6.757393759391742, 0.8507656252414583, -2.137015191220609, 3.411182849513212, 0.24594054061190312, 1.664032179033693]

>  <energy>  (7) 
-598.4261489966655

>  <inter_energy>  (7) 
-708.2624728219806

>  <intra_energy>  (7) 
136.30684223906945

>  <rmsd>  (7) 
4.68462

>  <sdf_rank>  (7) 
0

$$$$

     RDKit          3D

 62 64  0  0  0  0  0  0  0  0999 V2000
  -17.6067   -6.9669  -23.0837 N   0  0  0  0  0  0  0  0  0  0  0  0
  -18.6993   -6.8652  -22.1173 C   0  0  0  0  0  0  0  0  0  0  0  0
  -22.8199   -7.6248  -24.3194 C   0  0  0  0  0  0  0  0  0  0  0  0
  -17.7127   -9.5762  -27.0789 C   0  0  0  0  0  0  0  0  0  0  0  0
  -17.5634   -8.3481  -26.3271 N   0  0  0  0  0  0  0  0  0  0  0  0
  -18.1666   -8.1504  -25.1645 C   0  0  0  0  0  0  0  0  0  0  0  0
  -18.8882   -8.9963  -24.6434 O   0  0  0  0  0  0  0  0  0  0  0  0
  -17.9403   -6.8109  -24.4869 C   0  0  0  0  0  0  0  0  0  0  0  0
  -19.8323   -5.9637  -22.6151 C   0  0  1  0  0  0  0  0  0  0  0  0
  -21.1419   -6.7154  -22.8482 C   0  0  0  0  0  0  0  0  0  0  0  0
  -21.6297   -6.9429  -24.1274 C   0  0  0  0  0  0  0  0  0  0  0  0
  -23.5366   -8.0846  -23.2412 C   0  0  0  0  0  0  0  0  0  0  0  0
  -23.0644   -7.8667  -21.9655 C   0  0  0  0  0  0  0  0  0  0  0  0
  -21.8758   -7.1866  -21.7687 C   0  0  0  0  0  0  0  0  0  0  0  0
  -20.0140   -4.7763  -21.6777 C   0  0  0  0  0  0  0  0  0  0  0  0
  -20.9440   -3.7856  -21.9594 C   0  0  0  0  0  0  0  0  0  0  0  0
  -21.1058   -2.7065  -21.1090 C   0  0  0  0  0  0  0  0  0  0  0  0
  -20.3388   -2.6001  -19.9689 C   0  0  0  0  0  0  0  0  0  0  0  0
  -19.4183   -3.5797  -19.6740 C   0  0  0  0  0  0  0  0  0  0  0  0
  -19.2552   -4.6617  -20.5212 C   0  0  0  0  0  0  0  0  0  0  0  0
  -16.3205   -7.2720  -22.8121 C   0  0  0  0  0  0  0  0  0  0  0  0
  -15.4858   -7.3627  -23.6935 O   0  0  0  0  0  0  0  0  0  0  0  0
  -15.9005   -7.5102  -21.3935 C   0  0  0  0  0  0  0  0  0  0  0  0
  -15.6703   -8.8036  -20.9299 C   0  0  0  0  0  0  0  0  0  0  0  0
  -15.2416   -9.0439  -19.6290 C   0  0  0  0  0  0  0  0  0  0  0  0
  -15.0241  -10.4582  -19.1502 C   0  0  0  0  0  0  0  0  0  0  0  0
  -15.0458   -7.9414  -18.7982 C   0  0  0  0  0  0  0  0  0  0  0  0
  -14.6136   -8.1521  -17.5087 O   0  0  0  0  0  0  0  0  0  0  0  0
  -13.1966   -8.1389  -17.3861 C   0  0  0  0  0  0  0  0  0  0  0  0
  -15.2516   -6.6255  -19.2319 C   0  0  0  0  0  0  0  0  0  0  0  0
  -15.0198   -5.4397  -18.3335 C   0  0  0  0  0  0  0  0  0  0  0  0
  -15.6682   -6.4359  -20.5448 C   0  0  0  0  0  0  0  0  0  0  0  0
  -19.1030   -7.8716  -21.9325 H   0  0  0  0  0  0  0  0  0  0  0  0
  -18.2943   -6.4199  -21.1966 H   0  0  0  0  0  0  0  0  0  0  0  0
  -23.1929   -7.7990  -25.3394 H   0  0  0  0  0  0  0  0  0  0  0  0
  -17.8155  -10.4219  -26.3830 H   0  0  0  0  0  0  0  0  0  0  0  0
  -18.6096   -9.5116  -27.7124 H   0  0  0  0  0  0  0  0  0  0  0  0
  -16.8264   -9.7283  -27.7124 H   0  0  0  0  0  0  0  0  0  0  0  0
  -16.9667   -7.6011  -26.7101 H   0  0  0  0  0  0  0  0  0  0  0  0
  -18.8580   -6.2102  -24.5702 H   0  0  0  0  0  0  0  0  0  0  0  0
  -17.0957   -6.3135  -24.9861 H   0  0  0  0  0  0  0  0  0  0  0  0
  -19.5354   -5.5852  -23.6043 H   0  0  0  0  0  0  0  0  0  0  0  0
  -21.0652   -6.5778  -24.9981 H   0  0  0  0  0  0  0  0  0  0  0  0
  -24.4827   -8.6241  -23.3959 H   0  0  0  0  0  0  0  0  0  0  0  0
  -23.6347   -8.2348  -21.0999 H   0  0  0  0  0  0  0  0  0  0  0  0
  -21.5085   -7.0176  -20.7457 H   0  0  0  0  0  0  0  0  0  0  0  0
  -21.5590   -3.8591  -22.8685 H   0  0  0  0  0  0  0  0  0  0  0  0
  -21.8494   -1.9306  -21.3436 H   0  0  0  0  0  0  0  0  0  0  0  0
  -20.4617   -1.7368  -19.2984 H   0  0  0  0  0  0  0  0  0  0  0  0
  -18.8097   -3.5024  -18.7610 H   0  0  0  0  0  0  0  0  0  0  0  0
  -18.5165   -5.4389  -20.2755 H   0  0  0  0  0  0  0  0  0  0  0  0
  -15.8314   -9.6543  -21.6085 H   0  0  0  0  0  0  0  0  0  0  0  0
  -15.0212  -10.4766  -18.0503 H   0  0  0  0  0  0  0  0  0  0  0  0
  -15.8339  -11.1011  -19.5256 H   0  0  0  0  0  0  0  0  0  0  0  0
  -14.0585  -10.8279  -19.5256 H   0  0  0  0  0  0  0  0  0  0  0  0
  -12.9206   -8.1363  -16.3213 H   0  0  0  0  0  0  0  0  0  0  0  0
  -12.7782   -9.0332  -17.8712 H   0  0  0  0  0  0  0  0  0  0  0  0
  -12.7950   -7.2370  -17.8712 H   0  0  0  0  0  0  0  0  0  0  0  0
  -15.0821   -5.7582  -17.2825 H   0  0  0  0  0  0  0  0  0  0  0  0
  -14.0225   -5.0196  -18.5309 H   0  0  0  0  0  0  0  0  0  0  0  0
  -15.7854   -4.6749  -18.5309 H   0  0  0  0  0  0  0  0  0  0  0  0
  -15.8171   -5.4124  -20.9195 H   0  0  0  0  0  0  0  0  0  0  0  0
  1  2  1  0
  1  8  1  0
  1 21  1  0
  9  2  1  0
  3 11  2  0
  3 12  1  0
  4  5  1  0
  5  6  1  0
  6  7  2  0
  6  8  1  0
  9 10  1  0
  9 15  1  0
 10 11  1  0
 10 14  2  0
 12 13  2  0
 13 14  1  0
 15 16  2  0
 15 20  1  0
 16 17  1  0
 17 18  2  0
 18 19  1  0
 19 20  2  0
 21 22  2  0
 21 23  1  0
 23 24  2  0
 23 32  1  0
 24 25  1  0
 25 26  1  0
 25 27  2  0
 27 28  1  0
 27 30  1  0
 28 29  1  0
 30 31  1  0
 30 32  2  0
  2 33  1  0
  2 34  1  0
  3 35  1  0
  4 36  1  0
  4 37  1  0
  4 38  1  0
  5 39  1  0
  8 40  1  0
  8 41  1  0
  9 42  1  6
 11 43  1  0
 12 44  1  0
 13 45  1  0
 14 46  1  0
 16 47  1  0
 17 48  1  0
 18 49  1  0
 19 50  1  0
 20 51  1  0
 24 52  1  0
 26 53  1  0
 26 54  1  0
 26 55  1  0
 29 56  1  0
 29 57  1  0
 29 58  1  0
 31 59  1  0
 31 60  1  0
 31 61  1  0
 32 62  1  0
M  END
>  <filename_input>  (8) 
7OEO_V9Z_docked.sdf

>  <pdb_id>  (8) 
7OEO_V9Z

>  <pose_rank>  (8) 
7

>  <num_atoms_heavy>  (8) 
32

>  <num_torsions>  (8) 
8

>  <pose>  (8) 
[-17.606703603862396, -6.966868649726923, -23.083692558129993, -2.208522962589859, 0.8625199946935983, -2.319898983454719, -12.086198079787682, 0.04363133825166802, 13.324273245076514, 36.86523678142746, -2.338980862538216, -1.882937674130137, 0.07512883581211541, 0.7620490440229591]

>  <energy>  (8) 
-736.2617040657991

>  <inter_energy>  (8) 
-742.3608904959301

>  <intra_energy>  (8) 
25.40162736050277

>  <rmsd>  (8) 
5.28393

>  <sdf_rank>  (8) 
0

$$$$

     RDKit          3D

 62 64  0  0  0  0  0  0  0  0999 V2000
  -16.3164   -7.7582  -20.7307 N   0  0  0  0  0  0  0  0  0  0  0  0
  -15.8201   -7.5485  -22.0899 C   0  0  0  0  0  0  0  0  0  0  0  0
  -15.6471   -6.3781  -26.4192 C   0  0  0  0  0  0  0  0  0  0  0  0
  -12.8213   -7.6211  -18.2747 C   0  0  0  0  0  0  0  0  0  0  0  0
  -13.9079   -7.2982  -19.1751 N   0  0  0  0  0  0  0  0  0  0  0  0
  -15.1130   -6.9618  -18.7404 C   0  0  0  0  0  0  0  0  0  0  0  0
  -15.3888   -6.8958  -17.5457 O   0  0  0  0  0  0  0  0  0  0  0  0
  -16.1686   -6.6638  -19.7900 C   0  0  0  0  0  0  0  0  0  0  0  0
  -16.2165   -6.1788  -22.6475 C   0  0  1  0  0  0  0  0  0  0  0  0
  -15.6760   -5.9214  -24.0532 C   0  0  0  0  0  0  0  0  0  0  0  0
  -16.1502   -6.6237  -25.1524 C   0  0  0  0  0  0  0  0  0  0  0  0
  -14.6666   -5.4337  -26.6042 C   0  0  0  0  0  0  0  0  0  0  0  0
  -14.1866   -4.7283  -25.5225 C   0  0  0  0  0  0  0  0  0  0  0  0
  -14.6865   -4.9697  -24.2553 C   0  0  0  0  0  0  0  0  0  0  0  0
  -17.7272   -5.9948  -22.5737 C   0  0  0  0  0  0  0  0  0  0  0  0
  -18.2819   -4.9814  -21.8048 C   0  0  0  0  0  0  0  0  0  0  0  0
  -19.6538   -4.8173  -21.7361 C   0  0  0  0  0  0  0  0  0  0  0  0
  -20.4899   -5.6649  -22.4304 C   0  0  0  0  0  0  0  0  0  0  0  0
  -19.9523   -6.6692  -23.2028 C   0  0  0  0  0  0  0  0  0  0  0  0
  -18.5803   -6.8350  -23.2756 C   0  0  0  0  0  0  0  0  0  0  0  0
  -16.8313   -8.9015  -20.2316 C   0  0  0  0  0  0  0  0  0  0  0  0
  -17.1917   -8.9868  -19.0720 O   0  0  0  0  0  0  0  0  0  0  0  0
  -16.9635  -10.1022  -21.1182 C   0  0  0  0  0  0  0  0  0  0  0  0
  -18.1606  -10.3669  -21.7796 C   0  0  0  0  0  0  0  0  0  0  0  0
  -18.2921  -11.4531  -22.6380 C   0  0  0  0  0  0  0  0  0  0  0  0
  -19.6096  -11.7261  -23.3211 C   0  0  0  0  0  0  0  0  0  0  0  0
  -17.1792  -12.2734  -22.8186 C   0  0  0  0  0  0  0  0  0  0  0  0
  -17.2811  -13.3502  -23.6696 O   0  0  0  0  0  0  0  0  0  0  0  0
  -16.9626  -13.0278  -25.0178 C   0  0  0  0  0  0  0  0  0  0  0  0
  -15.9543  -12.0317  -22.1835 C   0  0  0  0  0  0  0  0  0  0  0  0
  -14.7520  -12.9121  -22.3989 C   0  0  0  0  0  0  0  0  0  0  0  0
  -15.8689  -10.9262  -21.3446 C   0  0  0  0  0  0  0  0  0  0  0  0
  -14.7226   -7.6229  -22.0813 H   0  0  0  0  0  0  0  0  0  0  0  0
  -16.2695   -8.3177  -22.7351 H   0  0  0  0  0  0  0  0  0  0  0  0
  -16.0342   -6.9416  -27.2810 H   0  0  0  0  0  0  0  0  0  0  0  0
  -13.1643   -7.5191  -17.2346 H   0  0  0  0  0  0  0  0  0  0  0  0
  -12.4927   -8.6557  -18.4527 H   0  0  0  0  0  0  0  0  0  0  0  0
  -11.9810   -6.9338  -18.4527 H   0  0  0  0  0  0  0  0  0  0  0  0
  -13.7377   -7.3313  -20.1904 H   0  0  0  0  0  0  0  0  0  0  0  0
  -15.8770   -5.7575  -20.3410 H   0  0  0  0  0  0  0  0  0  0  0  0
  -17.1309   -6.5216  -19.2765 H   0  0  0  0  0  0  0  0  0  0  0  0
  -15.7407   -5.4186  -22.0105 H   0  0  0  0  0  0  0  0  0  0  0  0
  -16.9339   -7.3834  -25.0160 H   0  0  0  0  0  0  0  0  0  0  0  0
  -14.2669   -5.2416  -27.6109 H   0  0  0  0  0  0  0  0  0  0  0  0
  -13.4027   -3.9702  -25.6670 H   0  0  0  0  0  0  0  0  0  0  0  0
  -14.2954   -4.4011  -23.3987 H   0  0  0  0  0  0  0  0  0  0  0  0
  -17.6238   -4.3014  -21.2440 H   0  0  0  0  0  0  0  0  0  0  0  0
  -20.0790   -4.0074  -21.1252 H   0  0  0  0  0  0  0  0  0  0  0  0
  -21.5809   -5.5395  -22.3676 H   0  0  0  0  0  0  0  0  0  0  0  0
  -20.6159   -7.3429  -23.7647 H   0  0  0  0  0  0  0  0  0  0  0  0
  -18.1616   -7.6410  -23.8960 H   0  0  0  0  0  0  0  0  0  0  0  0
  -19.0217   -9.7013  -21.6193 H   0  0  0  0  0  0  0  0  0  0  0  0
  -20.3895  -11.8877  -22.5624 H   0  0  0  0  0  0  0  0  0  0  0  0
  -19.8820  -10.8653  -23.9495 H   0  0  0  0  0  0  0  0  0  0  0  0
  -19.5176  -12.6243  -23.9495 H   0  0  0  0  0  0  0  0  0  0  0  0
  -16.1897  -12.2453  -25.0349 H   0  0  0  0  0  0  0  0  0  0  0  0
  -16.5869  -13.9255  -25.5306 H   0  0  0  0  0  0  0  0  0  0  0  0
  -17.8649  -12.6632  -25.5306 H   0  0  0  0  0  0  0  0  0  0  0  0
  -14.3396  -13.2142  -21.4249 H   0  0  0  0  0  0  0  0  0  0  0  0
  -15.0497  -13.8073  -22.9645 H   0  0  0  0  0  0  0  0  0  0  0  0
  -13.9884  -12.3581  -22.9645 H   0  0  0  0  0  0  0  0  0  0  0  0
  -14.9132  -10.6993  -20.8493 H   0  0  0  0  0  0  0  0  0  0  0  0
  1  2  1  0
  1  8  1  0
  1 21  1  0
  9  2  1  0
  3 11  2  0
  3 12  1  0
  4  5  1  0
  5  6  1  0
  6  7  2  0
  6  8  1  0
  9 10  1  0
  9 15  1  0
 10 11  1  0
 10 14  2  0
 12 13  2  0
 13 14  1  0
 15 16  2  0
 15 20  1  0
 16 17  1  0
 17 18  2  0
 18 19  1  0
 19 20  2  0
 21 22  2  0
 21 23  1  0
 23 24  2  0
 23 32  1  0
 24 25  1  0
 25 26  1  0
 25 27  2  0
 27 28  1  0
 27 30  1  0
 28 29  1  0
 30 31  1  0
 30 32  2  0
  2 33  1  0
  2 34  1  0
  3 35  1  0
  4 36  1  0
  4 37  1  0
  4 38  1  0
  5 39  1  0
  8 40  1  0
  8 41  1  0
  9 42  1  1
 11 43  1  0
 12 44  1  0
 13 45  1  0
 14 46  1  0
 16 47  1  0
 17 48  1  0
 18 49  1  0
 19 50  1  0
 20 51  1  0
 24 52  1  0
 26 53  1  0
 26 54  1  0
 26 55  1  0
 29 56  1  0
 29 57  1  0
 29 58  1  0
 31 59  1  0
 31 60  1  0
 31 61  1  0
 32 62  1  0
M  END
>  <filename_input>  (9) 
7OEO_V9Z_docked.sdf

>  <pdb_id>  (9) 
7OEO_V9Z

>  <pose_rank>  (9) 
8

>  <num_atoms_heavy>  (9) 
32

>  <num_torsions>  (9) 
8

>  <pose>  (9) 
[-16.31644863473573, -7.758224091871406, -20.730689989550438, -2.3711556057342267, -1.5267410195188276, 3.6373748966823976, -15.557732202367141, 0.005856832858095854, 13.045696393077987, 25.410052636901046, -5.5138985106671825, -2.912955642844507, -6.443998252373439, -2.257299471771837]

>  <energy>  (9) 
-672.3668030499459

>  <inter_energy>  (9) 
-713.2013011615173

>  <intra_energy>  (9) 
62.28433293628069

>  <rmsd>  (9) 
5.32887

>  <sdf_rank>  (9) 
0

$$$$

     RDKit          3D

 62 64  0  0  0  0  0  0  0  0999 V2000
  -18.8538   -6.4242  -22.0417 N   0  0  0  0  0  0  0  0  0  0  0  0
  -18.6439   -7.6652  -22.7857 C   0  0  0  0  0  0  0  0  0  0  0  0
  -15.1000  -11.1145  -23.0430 C   0  0  0  0  0  0  0  0  0  0  0  0
  -22.3507   -6.4023  -19.7736 C   0  0  0  0  0  0  0  0  0  0  0  0
  -21.2883   -6.4175  -20.7568 N   0  0  0  0  0  0  0  0  0  0  0  0
  -21.0126   -5.3702  -21.5195 C   0  0  0  0  0  0  0  0  0  0  0  0
  -21.6351   -4.3147  -21.4410 O   0  0  0  0  0  0  0  0  0  0  0  0
  -19.8841   -5.5235  -22.5233 C   0  0  0  0  0  0  0  0  0  0  0  0
  -17.1672   -7.9033  -23.1123 C   0  0  1  0  0  0  0  0  0  0  0  0
  -16.7710   -9.3783  -23.0691 C   0  0  0  0  0  0  0  0  0  0  0  0
  -15.4403   -9.7724  -23.0809 C   0  0  0  0  0  0  0  0  0  0  0  0
  -16.0795  -12.0765  -22.9953 C   0  0  0  0  0  0  0  0  0  0  0  0
  -17.4048  -11.7003  -22.9825 C   0  0  0  0  0  0  0  0  0  0  0  0
  -17.7496  -10.3610  -23.0196 C   0  0  0  0  0  0  0  0  0  0  0  0
  -16.8086   -7.2541  -24.4433 C   0  0  0  0  0  0  0  0  0  0  0  0
  -17.2599   -7.7927  -25.6400 C   0  0  0  0  0  0  0  0  0  0  0  0
  -16.9311   -7.2040  -26.8479 C   0  0  0  0  0  0  0  0  0  0  0  0
  -16.1443   -6.0729  -26.8775 C   0  0  0  0  0  0  0  0  0  0  0  0
  -15.6966   -5.5243  -25.6973 C   0  0  0  0  0  0  0  0  0  0  0  0
  -16.0253   -6.1092  -24.4870 C   0  0  0  0  0  0  0  0  0  0  0  0
  -18.1300   -5.9863  -20.9902 C   0  0  0  0  0  0  0  0  0  0  0  0
  -18.3645   -4.9192  -20.4534 O   0  0  0  0  0  0  0  0  0  0  0  0
  -17.0054   -6.8261  -20.4653 C   0  0  0  0  0  0  0  0  0  0  0  0
  -17.1657   -8.1994  -20.2949 C   0  0  0  0  0  0  0  0  0  0  0  0
  -16.1227   -9.0029  -19.8470 C   0  0  0  0  0  0  0  0  0  0  0  0
  -16.3354  -10.4837  -19.6503 C   0  0  0  0  0  0  0  0  0  0  0  0
  -14.9022   -8.3864  -19.5742 C   0  0  0  0  0  0  0  0  0  0  0  0
  -13.8517   -9.1610  -19.1378 O   0  0  0  0  0  0  0  0  0  0  0  0
  -13.5956   -9.0204  -17.7457 C   0  0  0  0  0  0  0  0  0  0  0  0
  -14.6975   -7.0116  -19.7475 C   0  0  0  0  0  0  0  0  0  0  0  0
  -13.3706   -6.3571  -19.4682 C   0  0  0  0  0  0  0  0  0  0  0  0
  -15.7670   -6.2525  -20.2092 C   0  0  0  0  0  0  0  0  0  0  0  0
  -19.0128   -8.5070  -22.1812 H   0  0  0  0  0  0  0  0  0  0  0  0
  -19.1905   -7.5843  -23.7369 H   0  0  0  0  0  0  0  0  0  0  0  0
  -14.0408  -11.4113  -23.0511 H   0  0  0  0  0  0  0  0  0  0  0  0
  -21.9154   -6.4085  -18.7634 H   0  0  0  0  0  0  0  0  0  0  0  0
  -22.9590   -5.4953  -19.9052 H   0  0  0  0  0  0  0  0  0  0  0  0
  -22.9848   -7.2914  -19.9052 H   0  0  0  0  0  0  0  0  0  0  0  0
  -20.7265   -7.2737  -20.8674 H   0  0  0  0  0  0  0  0  0  0  0  0
  -19.4359   -4.5362  -22.7087 H   0  0  0  0  0  0  0  0  0  0  0  0
  -20.3038   -5.9469  -23.4477 H   0  0  0  0  0  0  0  0  0  0  0  0
  -16.5772   -7.4214  -22.3188 H   0  0  0  0  0  0  0  0  0  0  0  0
  -14.6475   -9.0109  -23.1207 H   0  0  0  0  0  0  0  0  0  0  0  0
  -15.8071  -13.1419  -22.9674 H   0  0  0  0  0  0  0  0  0  0  0  0
  -18.1918  -12.4677  -22.9427 H   0  0  0  0  0  0  0  0  0  0  0  0
  -18.8109  -10.0719  -23.0097 H   0  0  0  0  0  0  0  0  0  0  0  0
  -17.8857   -8.6973  -25.6279 H   0  0  0  0  0  0  0  0  0  0  0  0
  -17.2990   -7.6403  -27.7883 H   0  0  0  0  0  0  0  0  0  0  0  0
  -15.8756   -5.6111  -27.8390 H   0  0  0  0  0  0  0  0  0  0  0  0
  -15.0749   -4.6170  -25.7163 H   0  0  0  0  0  0  0  0  0  0  0  0
  -15.6620   -5.6621  -23.5499 H   0  0  0  0  0  0  0  0  0  0  0  0
  -18.1395   -8.6588  -20.5198 H   0  0  0  0  0  0  0  0  0  0  0  0
  -16.3679  -10.7097  -18.5742 H   0  0  0  0  0  0  0  0  0  0  0  0
  -17.2858  -10.7828  -20.1166 H   0  0  0  0  0  0  0  0  0  0  0  0
  -15.5077  -11.0382  -20.1166 H   0  0  0  0  0  0  0  0  0  0  0  0
  -14.4192   -9.4727  -17.1738 H   0  0  0  0  0  0  0  0  0  0  0  0
  -12.6524   -9.5272  -17.4934 H   0  0  0  0  0  0  0  0  0  0  0  0
  -13.5170   -7.9526  -17.4934 H   0  0  0  0  0  0  0  0  0  0  0  0
  -13.2200   -6.2828  -18.3811 H   0  0  0  0  0  0  0  0  0  0  0  0
  -12.5638   -6.9606  -19.9097 H   0  0  0  0  0  0  0  0  0  0  0  0
  -13.3584   -5.3497  -19.9097 H   0  0  0  0  0  0  0  0  0  0  0  0
  -15.6290   -5.1739  -20.3753 H   0  0  0  0  0  0  0  0  0  0  0  0
  1  2  1  0
  1  8  1  0
  1 21  1  0
  9  2  1  0
  3 11  2  0
  3 12  1  0
  4  5  1  0
  5  6  1  0
  6  7  2  0
  6  8  1  0
  9 10  1  0
  9 15  1  0
 10 11  1  0
 10 14  2  0
 12 13  2  0
 13 14  1  0
 15 16  2  0
 15 20  1  0
 16 17  1  0
 17 18  2  0
 18 19  1  0
 19 20  2  0
 21 22  2  0
 21 23  1  0
 23 24  2  0
 23 32  1  0
 24 25  1  0
 25 26  1  0
 25 27  2  0
 27 28  1  0
 27 30  1  0
 28 29  1  0
 30 31  1  0
 30 32  2  0
  2 33  1  0
  2 34  1  0
  3 35  1  0
  4 36  1  0
  4 37  1  0
  4 38  1  0
  5 39  1  0
  8 40  1  0
  8 41  1  0
  9 42  1  1
 11 43  1  0
 12 44  1  0
 13 45  1  0
 14 46  1  0
 16 47  1  0
 17 48  1  0
 18 49  1  0
 19 50  1  0
 20 51  1  0
 24 52  1  0
 26 53  1  0
 26 54  1  0
 26 55  1  0
 29 56  1  0
 29 57  1  0
 29 58  1  0
 31 59  1  0
 31 60  1  0
 31 61  1  0
 32 62  1  0
M  END
>  <filename_input>  (10) 
7OEO_V9Z_docked.sdf

>  <pdb_id>  (10) 
7OEO_V9Z

>  <pose_rank>  (10) 
9

>  <num_atoms_heavy>  (10) 
32

>  <num_torsions>  (10) 
8

>  <pose>  (10) 
[-18.85381162519883, -6.424159035551882, -22.04166348701303, 3.79720553474489, -1.6068572278861926, 2.93986044103714, -2.107646182800839, -3.3660473285816144, 3.5369981807403312, -0.3136968957072262, 2.9275617759778916, 0.05245835305509546, 3.756265741772116, -3.7607531887479424]

>  <energy>  (10) 
-624.1004426572106

>  <inter_energy>  (10) 
-756.8992390847119

>  <intra_energy>  (10) 
152.7387525543101

>  <rmsd>  (10) 
1.3029

>  <sdf_rank>  (10) 
0

$$$$

     RDKit          3D

 62 64  0  0  0  0  0  0  0  0999 V2000
  -16.8157   -6.7125  -21.5620 N   0  0  0  0  0  0  0  0  0  0  0  0
  -15.9456   -7.8690  -21.7700 C   0  0  0  0  0  0  0  0  0  0  0  0
  -17.1759  -11.1244  -24.2528 C   0  0  0  0  0  0  0  0  0  0  0  0
  -13.7417   -5.7005  -18.0080 C   0  0  0  0  0  0  0  0  0  0  0  0
  -15.0576   -5.9674  -18.5492 N   0  0  0  0  0  0  0  0  0  0  0  0
  -15.3533   -5.7698  -19.8252 C   0  0  0  0  0  0  0  0  0  0  0  0
  -14.5310   -5.3523  -20.6359 O   0  0  0  0  0  0  0  0  0  0  0  0
  -16.7757   -6.0728  -20.2605 C   0  0  0  0  0  0  0  0  0  0  0  0
  -16.4746   -9.1259  -21.0741 C   0  0  1  0  0  0  0  0  0  0  0  0
  -16.7394  -10.2816  -22.0377 C   0  0  0  0  0  0  0  0  0  0  0  0
  -16.9354  -10.0643  -23.3944 C   0  0  0  0  0  0  0  0  0  0  0  0
  -17.2258  -12.4095  -23.7697 C   0  0  0  0  0  0  0  0  0  0  0  0
  -17.0326  -12.6406  -22.4253 C   0  0  0  0  0  0  0  0  0  0  0  0
  -16.7914  -11.5850  -21.5641 C   0  0  0  0  0  0  0  0  0  0  0  0
  -15.5453   -9.5316  -19.9369 C   0  0  0  0  0  0  0  0  0  0  0  0
  -14.2837   -8.9664  -19.8154 C   0  0  0  0  0  0  0  0  0  0  0  0
  -13.4397   -9.3379  -18.7842 C   0  0  0  0  0  0  0  0  0  0  0  0
  -13.8421  -10.2811  -17.8634 C   0  0  0  0  0  0  0  0  0  0  0  0
  -15.0938  -10.8437  -17.9681 C   0  0  0  0  0  0  0  0  0  0  0  0
  -15.9416  -10.4730  -18.9971 C   0  0  0  0  0  0  0  0  0  0  0  0
  -17.7193   -6.2202  -22.4352 C   0  0  0  0  0  0  0  0  0  0  0  0
  -18.4222   -5.2661  -22.1570 O   0  0  0  0  0  0  0  0  0  0  0  0
  -17.8708   -6.8595  -23.7819 C   0  0  0  0  0  0  0  0  0  0  0  0
  -19.1186   -7.2928  -24.2248 C   0  0  0  0  0  0  0  0  0  0  0  0
  -19.2880   -7.8522  -25.4866 C   0  0  0  0  0  0  0  0  0  0  0  0
  -20.6485   -8.3335  -25.9275 C   0  0  0  0  0  0  0  0  0  0  0  0
  -18.1620   -7.9643  -26.3012 C   0  0  0  0  0  0  0  0  0  0  0  0
  -18.3049   -8.5068  -27.5580 O   0  0  0  0  0  0  0  0  0  0  0  0
  -18.1229   -9.9173  -27.5806 C   0  0  0  0  0  0  0  0  0  0  0  0
  -16.8940   -7.5265  -25.8979 C   0  0  0  0  0  0  0  0  0  0  0  0
  -15.6868   -7.6344  -26.7913 C   0  0  0  0  0  0  0  0  0  0  0  0
  -16.7778   -6.9628  -24.6322 C   0  0  0  0  0  0  0  0  0  0  0  0
  -15.8718   -8.0667  -22.8496 H   0  0  0  0  0  0  0  0  0  0  0  0
  -14.9623   -7.6329  -21.3372 H   0  0  0  0  0  0  0  0  0  0  0  0
  -17.3276  -10.9365  -25.3260 H   0  0  0  0  0  0  0  0  0  0  0  0
  -13.7884   -5.7100  -16.9091 H   0  0  0  0  0  0  0  0  0  0  0  0
  -13.0400   -6.4746  -18.3519 H   0  0  0  0  0  0  0  0  0  0  0  0
  -13.3969   -4.7142  -18.3519 H   0  0  0  0  0  0  0  0  0  0  0  0
  -15.7905   -6.3237  -17.9192 H   0  0  0  0  0  0  0  0  0  0  0  0
  -17.3416   -5.1308  -20.3091 H   0  0  0  0  0  0  0  0  0  0  0  0
  -17.2184   -6.7624  -19.5267 H   0  0  0  0  0  0  0  0  0  0  0  0
  -17.4569   -8.8726  -20.6486 H   0  0  0  0  0  0  0  0  0  0  0  0
  -16.8993   -9.0394  -23.7922 H   0  0  0  0  0  0  0  0  0  0  0  0
  -17.4191  -13.2497  -24.4528 H   0  0  0  0  0  0  0  0  0  0  0  0
  -17.0703  -13.6684  -22.0351 H   0  0  0  0  0  0  0  0  0  0  0  0
  -16.6393  -11.7810  -20.4924 H   0  0  0  0  0  0  0  0  0  0  0  0
  -13.9513   -8.2151  -20.5469 H   0  0  0  0  0  0  0  0  0  0  0  0
  -12.4438   -8.8788  -18.6987 H   0  0  0  0  0  0  0  0  0  0  0  0
  -13.1666  -10.5827  -17.0494 H   0  0  0  0  0  0  0  0  0  0  0  0
  -15.4217  -11.5911  -17.2306 H   0  0  0  0  0  0  0  0  0  0  0  0
  -16.9398  -10.9291  -19.0710 H   0  0  0  0  0  0  0  0  0  0  0  0
  -19.9898   -7.1901  -23.5611 H   0  0  0  0  0  0  0  0  0  0  0  0
  -21.2648   -8.5514  -25.0428 H   0  0  0  0  0  0  0  0  0  0  0  0
  -21.1358   -7.5531  -26.5306 H   0  0  0  0  0  0  0  0  0  0  0  0
  -20.5367   -9.2466  -26.5306 H   0  0  0  0  0  0  0  0  0  0  0  0
  -18.0739  -10.2973  -26.5495 H   0  0  0  0  0  0  0  0  0  0  0  0
  -18.9678  -10.3876  -28.1049 H   0  0  0  0  0  0  0  0  0  0  0  0
  -17.1863  -10.1578  -28.1049 H   0  0  0  0  0  0  0  0  0  0  0  0
  -14.7800   -7.7156  -26.1740 H   0  0  0  0  0  0  0  0  0  0  0  0
  -15.7793   -8.5279  -27.4263 H   0  0  0  0  0  0  0  0  0  0  0  0
  -15.6193   -6.7388  -27.4263 H   0  0  0  0  0  0  0  0  0  0  0  0
  -15.7984   -6.5905  -24.2971 H   0  0  0  0  0  0  0  0  0  0  0  0
  1  2  1  0
  1  8  1  0
  1 21  1  0
  9  2  1  0
  3 11  2  0
  3 12  1  0
  4  5  1  0
  5  6  1  0
  6  7  2  0
  6  8  1  0
  9 10  1  0
  9 15  1  0
 10 11  1  0
 10 14  2  0
 12 13  2  0
 13 14  1  0
 15 16  2  0
 15 20  1  0
 16 17  1  0
 17 18  2  0
 18 19  1  0
 19 20  2  0
 21 22  2  0
 21 23  1  0
 23 24  2  0
 23 32  1  0
 24 25  1  0
 25 26  1  0
 25 27  2  0
 27 28  1  0
 27 30  1  0
 28 29  1  0
 30 31  1  0
 30 32  2  0
  2 33  1  0
  2 34  1  0
  3 35  1  0
  4 36  1  0
  4 37  1  0
  4 38  1  0
  5 39  1  0
  8 40  1  0
  8 41  1  0
  9 42  1  1
 11 43  1  0
 12 44  1  0
 13 45  1  0
 14 46  1  0
 16 47  1  0
 17 48  1  0
 18 49  1  0
 19 50  1  0
 20 51  1  0
 24 52  1  0
 26 53  1  0
 26 54  1  0
 26 55  1  0
 29 56  1  0
 29 57  1  0
 29 58  1  0
 31 59  1  0
 31 60  1  0
 31 61  1  0
 32 62  1  0
M  END
>  <filename_input>  (11) 
7OEO_V9Z_docked.sdf

>  <pdb_id>  (11) 
7OEO_V9Z

>  <pose_rank>  (11) 
10

>  <num_atoms_heavy>  (11) 
32

>  <num_torsions>  (11) 
8

>  <pose>  (11) 
[-16.81570678671762, -6.712477792678224, -21.561973308506353, 2.1233054874434982, -1.2210786399321396, -1.5996212972724544, 0.8625342000989057, 22.01805722560966, -3.7166389049239728, -0.7282154624929013, 5.477822758022193, 19.939867421057173, -16.240209229486705, -5.6551906226703315]

>  <energy>  (11) 
-530.231005265868

>  <inter_energy>  (11) 
-600.7075489315275

>  <intra_energy>  (11) 
78.34165617669316

>  <rmsd>  (11) 
6.18784

>  <sdf_rank>  (11) 
0

$$$$

     RDKit          3D

 62 64  0  0  0  0  0  0  0  0999 V2000
  -15.8071   -9.6455  -22.6316 N   0  0  0  0  0  0  0  0  0  0  0  0
  -15.5058   -8.3003  -23.1190 C   0  0  0  0  0  0  0  0  0  0  0  0
  -18.3083   -5.3516  -21.6207 C   0  0  0  0  0  0  0  0  0  0  0  0
  -19.4237  -12.7202  -22.9989 C   0  0  0  0  0  0  0  0  0  0  0  0
  -18.0786  -12.2495  -23.2533 N   0  0  0  0  0  0  0  0  0  0  0  0
  -17.7744  -10.9610  -23.2972 C   0  0  0  0  0  0  0  0  0  0  0  0
  -18.6105  -10.0793  -23.1202 O   0  0  0  0  0  0  0  0  0  0  0  0
  -16.3290  -10.6012  -23.5902 C   0  0  0  0  0  0  0  0  0  0  0  0
  -16.5996   -7.7596  -24.0439 C   0  0  1  0  0  0  0  0  0  0  0  0
  -17.6638   -6.9474  -23.3076 C   0  0  0  0  0  0  0  0  0  0  0  0
  -17.3296   -6.0786  -22.2781 C   0  0  0  0  0  0  0  0  0  0  0  0
  -19.6279   -5.4836  -21.9795 C   0  0  0  0  0  0  0  0  0  0  0  0
  -19.9745   -6.3419  -22.9999 C   0  0  0  0  0  0  0  0  0  0  0  0
  -19.0005   -7.0696  -23.6599 C   0  0  0  0  0  0  0  0  0  0  0  0
  -15.9796   -6.9780  -25.1956 C   0  0  0  0  0  0  0  0  0  0  0  0
  -16.2171   -7.3464  -26.5123 C   0  0  0  0  0  0  0  0  0  0  0  0
  -15.6511   -6.6378  -27.5570 C   0  0  0  0  0  0  0  0  0  0  0  0
  -14.8376   -5.5552  -27.3011 C   0  0  0  0  0  0  0  0  0  0  0  0
  -14.6003   -5.1747  -25.9999 C   0  0  0  0  0  0  0  0  0  0  0  0
  -15.1664   -5.8799  -24.9524 C   0  0  0  0  0  0  0  0  0  0  0  0
  -15.7248  -10.0738  -21.3545 C   0  0  0  0  0  0  0  0  0  0  0  0
  -16.0277  -11.2105  -21.0414 O   0  0  0  0  0  0  0  0  0  0  0  0
  -15.2534   -9.1330  -20.2877 C   0  0  0  0  0  0  0  0  0  0  0  0
  -16.0095   -8.0145  -19.9440 C   0  0  0  0  0  0  0  0  0  0  0  0
  -15.6101   -7.1508  -18.9299 C   0  0  0  0  0  0  0  0  0  0  0  0
  -16.4394   -5.9348  -18.5976 C   0  0  0  0  0  0  0  0  0  0  0  0
  -14.4218   -7.4432  -18.2617 C   0  0  0  0  0  0  0  0  0  0  0  0
  -14.0091   -6.6084  -17.2482 O   0  0  0  0  0  0  0  0  0  0  0  0
  -12.9159   -5.7779  -17.6200 C   0  0  0  0  0  0  0  0  0  0  0  0
  -13.6422   -8.5659  -18.5677 C   0  0  0  0  0  0  0  0  0  0  0  0
  -12.3697   -8.8841  -17.8283 C   0  0  0  0  0  0  0  0  0  0  0  0
  -14.0896   -9.4062  -19.5811 C   0  0  0  0  0  0  0  0  0  0  0  0
  -15.4064   -7.6253  -22.2561 H   0  0  0  0  0  0  0  0  0  0  0  0
  -14.5714   -8.3529  -23.6971 H   0  0  0  0  0  0  0  0  0  0  0  0
  -18.0277   -4.6656  -20.8079 H   0  0  0  0  0  0  0  0  0  0  0  0
  -19.5923  -12.7792  -21.9135 H   0  0  0  0  0  0  0  0  0  0  0  0
  -20.1470  -12.0218  -23.4450 H   0  0  0  0  0  0  0  0  0  0  0  0
  -19.5537  -13.7173  -23.4450 H   0  0  0  0  0  0  0  0  0  0  0  0
  -17.3310  -12.9415  -23.4057 H   0  0  0  0  0  0  0  0  0  0  0  0
  -16.2680  -10.1643  -24.5979 H   0  0  0  0  0  0  0  0  0  0  0  0
  -15.7270  -11.5192  -23.5203 H   0  0  0  0  0  0  0  0  0  0  0  0
  -17.1329   -8.6278  -24.4584 H   0  0  0  0  0  0  0  0  0  0  0  0
  -16.2765   -5.9661  -21.9812 H   0  0  0  0  0  0  0  0  0  0  0  0
  -20.4037   -4.9069  -21.4547 H   0  0  0  0  0  0  0  0  0  0  0  0
  -21.0299   -6.4489  -23.2910 H   0  0  0  0  0  0  0  0  0  0  0  0
  -19.2886   -7.7525  -24.4727 H   0  0  0  0  0  0  0  0  0  0  0  0
  -16.8622   -8.2110  -26.7276 H   0  0  0  0  0  0  0  0  0  0  0  0
  -15.8512   -6.9396  -28.5957 H   0  0  0  0  0  0  0  0  0  0  0  0
  -14.3805   -4.9982  -28.1322 H   0  0  0  0  0  0  0  0  0  0  0  0
  -13.9579   -4.3064  -25.7917 H   0  0  0  0  0  0  0  0  0  0  0  0
  -14.9699   -5.5668  -23.9164 H   0  0  0  0  0  0  0  0  0  0  0  0
  -16.9438   -7.8099  -20.4873 H   0  0  0  0  0  0  0  0  0  0  0  0
  -16.5123   -5.8280  -17.5053 H   0  0  0  0  0  0  0  0  0  0  0  0
  -15.9632   -5.0389  -19.0227 H   0  0  0  0  0  0  0  0  0  0  0  0
  -17.4473   -6.0510  -19.0227 H   0  0  0  0  0  0  0  0  0  0  0  0
  -12.4182   -5.3998  -16.7148 H   0  0  0  0  0  0  0  0  0  0  0  0
  -12.1987   -6.3610  -18.2164 H   0  0  0  0  0  0  0  0  0  0  0  0
  -13.2853   -4.9306  -18.2164 H   0  0  0  0  0  0  0  0  0  0  0  0
  -12.5540   -8.8381  -16.7448 H   0  0  0  0  0  0  0  0  0  0  0  0
  -12.0307   -9.8947  -18.0999 H   0  0  0  0  0  0  0  0  0  0  0  0
  -11.5949   -8.1521  -18.0999 H   0  0  0  0  0  0  0  0  0  0  0  0
  -13.5090  -10.3071  -19.8285 H   0  0  0  0  0  0  0  0  0  0  0  0
  1  2  1  0
  1  8  1  0
  1 21  1  0
  9  2  1  0
  3 11  2  0
  3 12  1  0
  4  5  1  0
  5  6  1  0
  6  7  2  0
  6  8  1  0
  9 10  1  0
  9 15  1  0
 10 11  1  0
 10 14  2  0
 12 13  2  0
 13 14  1  0
 15 16  2  0
 15 20  1  0
 16 17  1  0
 17 18  2  0
 18 19  1  0
 19 20  2  0
 21 22  2  0
 21 23  1  0
 23 24  2  0
 23 32  1  0
 24 25  1  0
 25 26  1  0
 25 27  2  0
 27 28  1  0
 27 30  1  0
 28 29  1  0
 30 31  1  0
 30 32  2  0
  2 33  1  0
  2 34  1  0
  3 35  1  0
  4 36  1  0
  4 37  1  0
  4 38  1  0
  5 39  1  0
  8 40  1  0
  8 41  1  0
  9 42  1  6
 11 43  1  0
 12 44  1  0
 13 45  1  0
 14 46  1  0
 16 47  1  0
 17 48  1  0
 18 49  1  0
 19 50  1  0
 20 51  1  0
 24 52  1  0
 26 53  1  0
 26 54  1  0
 26 55  1  0
 29 56  1  0
 29 57  1  0
 29 58  1  0
 31 59  1  0
 31 60  1  0
 31 61  1  0
 32 62  1  0
M  END
>  <filename_input>  (12) 
7OEO_V9Z_docked.sdf

>  <pdb_id>  (12) 
7OEO_V9Z

>  <pose_rank>  (12) 
11

>  <num_atoms_heavy>  (12) 
32

>  <num_torsions>  (12) 
8

>  <pose>  (12) 
[-15.807104398704945, -9.645476187955117, -22.631611557975866, -0.5480451404273567, 1.7520902352559227, -4.54482253867347, -0.18753002733071522, 2.8984418292452823, -4.2722694972193755, -1.2241222594342638, 0.25501588340184494, -2.8461268352075786, -0.21741697219493775, 0.8051374089545927]

>  <energy>  (12) 
-666.7146128154654

>  <inter_energy>  (12) 
-734.3203872236871

>  <intra_energy>  (12) 
74.16251034995099

>  <rmsd>  (12) 
4.1471

>  <sdf_rank>  (12) 
0

$$$$

     RDKit          3D

 62 64  0  0  0  0  0  0  0  0999 V2000
  -17.0204   -7.2632  -21.0020 N   0  0  0  0  0  0  0  0  0  0  0  0
  -15.9223   -6.7649  -21.8290 C   0  0  0  0  0  0  0  0  0  0  0  0
  -15.2720  -11.3266  -21.2088 C   0  0  0  0  0  0  0  0  0  0  0  0
  -20.1336   -4.1343  -21.0400 C   0  0  0  0  0  0  0  0  0  0  0  0
  -19.4766   -5.4158  -20.8933 N   0  0  0  0  0  0  0  0  0  0  0  0
  -18.9637   -6.0721  -21.9233 C   0  0  0  0  0  0  0  0  0  0  0  0
  -19.0059   -5.6362  -23.0704 O   0  0  0  0  0  0  0  0  0  0  0  0
  -18.3169   -7.4149  -21.6351 C   0  0  0  0  0  0  0  0  0  0  0  0
  -15.3680   -7.8406  -22.7671 C   0  0  1  0  0  0  0  0  0  0  0  0
  -15.7524   -9.2594  -22.3503 C   0  0  0  0  0  0  0  0  0  0  0  0
  -14.9074  -10.0417  -21.5755 C   0  0  0  0  0  0  0  0  0  0  0  0
  -16.4787  -11.8458  -21.6108 C   0  0  0  0  0  0  0  0  0  0  0  0
  -17.3280  -11.0807  -22.3797 C   0  0  0  0  0  0  0  0  0  0  0  0
  -16.9686   -9.7965  -22.7481 C   0  0  0  0  0  0  0  0  0  0  0  0
  -15.7641   -7.5411  -24.2076 C   0  0  0  0  0  0  0  0  0  0  0  0
  -16.5693   -8.4191  -24.9194 C   0  0  0  0  0  0  0  0  0  0  0  0
  -16.9257   -8.1475  -26.2282 C   0  0  0  0  0  0  0  0  0  0  0  0
  -16.4797   -6.9985  -26.8449 C   0  0  0  0  0  0  0  0  0  0  0  0
  -15.6869   -6.1157  -26.1476 C   0  0  0  0  0  0  0  0  0  0  0  0
  -15.3301   -6.3830  -24.8375 C   0  0  0  0  0  0  0  0  0  0  0  0
  -16.9742   -7.5246  -19.6789 C   0  0  0  0  0  0  0  0  0  0  0  0
  -17.9550   -7.9099  -19.0694 O   0  0  0  0  0  0  0  0  0  0  0  0
  -15.6889   -7.3357  -18.9320 C   0  0  0  0  0  0  0  0  0  0  0  0
  -15.2584   -6.0604  -18.5729 C   0  0  0  0  0  0  0  0  0  0  0  0
  -14.0894   -5.8659  -17.8452 C   0  0  0  0  0  0  0  0  0  0  0  0
  -13.6379   -4.4701  -17.4923 C   0  0  0  0  0  0  0  0  0  0  0  0
  -13.3580   -6.9960  -17.4817 C   0  0  0  0  0  0  0  0  0  0  0  0
  -12.2017   -6.8308  -16.7539 O   0  0  0  0  0  0  0  0  0  0  0  0
  -12.4411   -6.6049  -15.3701 C   0  0  0  0  0  0  0  0  0  0  0  0
  -13.7658   -8.2950  -17.8106 C   0  0  0  0  0  0  0  0  0  0  0  0
  -12.9794   -9.5109  -17.3979 C   0  0  0  0  0  0  0  0  0  0  0  0
  -14.9480   -8.4386  -18.5283 C   0  0  0  0  0  0  0  0  0  0  0  0
  -16.2889   -5.9225  -22.4340 H   0  0  0  0  0  0  0  0  0  0  0  0
  -15.1093   -6.4526  -21.1570 H   0  0  0  0  0  0  0  0  0  0  0  0
  -14.5923  -11.9339  -20.5929 H   0  0  0  0  0  0  0  0  0  0  0  0
  -20.3480   -3.7161  -20.0455 H   0  0  0  0  0  0  0  0  0  0  0  0
  -19.4769   -3.4467  -21.5931 H   0  0  0  0  0  0  0  0  0  0  0  0
  -21.0753   -4.2662  -21.5931 H   0  0  0  0  0  0  0  0  0  0  0  0
  -19.4054   -5.8325  -19.9540 H   0  0  0  0  0  0  0  0  0  0  0  0
  -18.1891   -7.9592  -22.5824 H   0  0  0  0  0  0  0  0  0  0  0  0
  -18.9712   -7.9689  -20.9460 H   0  0  0  0  0  0  0  0  0  0  0  0
  -14.2713   -7.8035  -22.6918 H   0  0  0  0  0  0  0  0  0  0  0  0
  -13.9380   -9.6370  -21.2493 H   0  0  0  0  0  0  0  0  0  0  0  0
  -16.7653  -12.8673  -21.3201 H   0  0  0  0  0  0  0  0  0  0  0  0
  -18.2957  -11.4925  -22.7021 H   0  0  0  0  0  0  0  0  0  0  0  0
  -17.6542   -9.1948  -23.3628 H   0  0  0  0  0  0  0  0  0  0  0  0
  -16.9280   -9.3407  -24.4377 H   0  0  0  0  0  0  0  0  0  0  0  0
  -17.5674   -8.8512  -26.7787 H   0  0  0  0  0  0  0  0  0  0  0  0
  -16.7559   -6.7882  -27.8887 H   0  0  0  0  0  0  0  0  0  0  0  0
  -15.3353   -5.1937  -26.6337 H   0  0  0  0  0  0  0  0  0  0  0  0
  -14.6961   -5.6703  -24.2898 H   0  0  0  0  0  0  0  0  0  0  0  0
  -15.8569   -5.1872  -18.8719 H   0  0  0  0  0  0  0  0  0  0  0  0
  -13.6028   -4.3617  -16.3982 H   0  0  0  0  0  0  0  0  0  0  0  0
  -12.6363   -4.2919  -17.9107 H   0  0  0  0  0  0  0  0  0  0  0  0
  -14.3454   -3.7391  -17.9107 H   0  0  0  0  0  0  0  0  0  0  0  0
  -11.7690   -7.2391  -14.7734 H   0  0  0  0  0  0  0  0  0  0  0  0
  -12.2533   -5.5472  -15.1334 H   0  0  0  0  0  0  0  0  0  0  0  0
  -13.4861   -6.8537  -15.1334 H   0  0  0  0  0  0  0  0  0  0  0  0
  -12.9423   -9.5683  -16.3000 H   0  0  0  0  0  0  0  0  0  0  0  0
  -13.4649  -10.4141  -17.7961 H   0  0  0  0  0  0  0  0  0  0  0  0
  -11.9566   -9.4386  -17.7961 H   0  0  0  0  0  0  0  0  0  0  0  0
  -15.3041   -9.4480  -18.7819 H   0  0  0  0  0  0  0  0  0  0  0  0
  1  2  1  0
  1  8  1  0
  1 21  1  0
  9  2  1  0
  3 11  2  0
  3 12  1  0
  4  5  1  0
  5  6  1  0
  6  7  2  0
  6  8  1  0
  9 10  1  0
  9 15  1  0
 10 11  1  0
 10 14  2  0
 12 13  2  0
 13 14  1  0
 15 16  2  0
 15 20  1  0
 16 17  1  0
 17 18  2  0
 18 19  1  0
 19 20  2  0
 21 22  2  0
 21 23  1  0
 23 24  2  0
 23 32  1  0
 24 25  1  0
 25 26  1  0
 25 27  2  0
 27 28  1  0
 27 30  1  0
 28 29  1  0
 30 31  1  0
 30 32  2  0
  2 33  1  0
  2 34  1  0
  3 35  1  0
  4 36  1  0
  4 37  1  0
  4 38  1  0
  5 39  1  0
  8 40  1  0
  8 41  1  0
  9 42  1  6
 11 43  1  0
 12 44  1  0
 13 45  1  0
 14 46  1  0
 16 47  1  0
 17 48  1  0
 18 49  1  0
 19 50  1  0
 20 51  1  0
 24 52  1  0
 26 53  1  0
 26 54  1  0
 26 55  1  0
 29 56  1  0
 29 57  1  0
 29 58  1  0
 31 59  1  0
 31 60  1  0
 31 61  1  0
 32 62  1  0
M  END
>  <filename_input>  (13) 
7OEO_V9Z_docked.sdf

>  <pdb_id>  (13) 
7OEO_V9Z

>  <pose_rank>  (13) 
12

>  <num_atoms_heavy>  (13) 
32

>  <num_torsions>  (13) 
8

>  <pose>  (13) 
[-17.020363073523537, -7.263153312996551, -21.00203145527608, 1.0744002301147146, 2.8816733483622072, -4.9943611084290245, 0.010388785663418727, -0.15843405079794992, -6.363630802590622, -3.1501248305464076, -2.091780613252808, -0.7374578238388759, 6.768619156649395, -4.516176259162775]

>  <energy>  (13) 
-699.6811013427713

>  <inter_energy>  (13) 
-783.0165188220409

>  <intra_energy>  (13) 
113.15276592601785

>  <rmsd>  (13) 
1.94009

>  <sdf_rank>  (13) 
0

$$$$

     RDKit          3D

 62 64  0  0  0  0  0  0  0  0999 V2000
  -17.3415   -8.9484  -22.9506 N   0  0  0  0  0  0  0  0  0  0  0  0
  -18.4448   -8.5304  -22.0870 C   0  0  0  0  0  0  0  0  0  0  0  0
  -21.3199   -6.7635  -25.3479 C   0  0  0  0  0  0  0  0  0  0  0  0
  -19.4964  -12.6602  -25.0215 C   0  0  0  0  0  0  0  0  0  0  0  0
  -19.0831  -11.2750  -24.9446 N   0  0  0  0  0  0  0  0  0  0  0  0
  -17.9871  -10.8963  -24.3043 C   0  0  0  0  0  0  0  0  0  0  0  0
  -17.2452  -11.6940  -23.7375 O   0  0  0  0  0  0  0  0  0  0  0  0
  -17.6762   -9.4106  -24.2843 C   0  0  0  0  0  0  0  0  0  0  0  0
  -18.9182   -7.1079  -22.3978 C   0  0  1  0  0  0  0  0  0  0  0  0
  -20.1924   -7.0677  -23.2399 C   0  0  0  0  0  0  0  0  0  0  0  0
  -20.1541   -6.7976  -24.6007 C   0  0  0  0  0  0  0  0  0  0  0  0
  -22.5340   -6.9955  -24.7484 C   0  0  0  0  0  0  0  0  0  0  0  0
  -22.5875   -7.2654  -23.3985 C   0  0  0  0  0  0  0  0  0  0  0  0
  -21.4257   -7.3012  -22.6481 C   0  0  0  0  0  0  0  0  0  0  0  0
  -19.0582   -6.3041  -21.1109 C   0  0  0  0  0  0  0  0  0  0  0  0
  -19.1867   -6.9429  -19.8857 C   0  0  0  0  0  0  0  0  0  0  0  0
  -19.3168   -6.2119  -18.7184 C   0  0  0  0  0  0  0  0  0  0  0  0
  -19.3245   -4.8343  -18.7593 C   0  0  0  0  0  0  0  0  0  0  0  0
  -19.1900   -4.1885  -19.9671 C   0  0  0  0  0  0  0  0  0  0  0  0
  -19.0576   -4.9164  -21.1366 C   0  0  0  0  0  0  0  0  0  0  0  0
  -16.0385   -9.0253  -22.6078 C   0  0  0  0  0  0  0  0  0  0  0  0
  -15.1936   -9.4157  -23.3924 O   0  0  0  0  0  0  0  0  0  0  0  0
  -15.6117   -8.6256  -21.2281 C   0  0  0  0  0  0  0  0  0  0  0  0
  -15.4367   -9.5857  -20.2340 C   0  0  0  0  0  0  0  0  0  0  0  0
  -15.0029   -9.2408  -18.9585 C   0  0  0  0  0  0  0  0  0  0  0  0
  -14.8460  -10.3016  -17.8970 C   0  0  0  0  0  0  0  0  0  0  0  0
  -14.7446   -7.8942  -18.7052 C   0  0  0  0  0  0  0  0  0  0  0  0
  -14.3061   -7.5280  -17.4530 O   0  0  0  0  0  0  0  0  0  0  0  0
  -12.8978   -7.6525  -17.2968 C   0  0  0  0  0  0  0  0  0  0  0  0
  -14.8939   -6.9018  -19.6823 C   0  0  0  0  0  0  0  0  0  0  0  0
  -14.5949   -5.4523  -19.4052 C   0  0  0  0  0  0  0  0  0  0  0  0
  -15.3181   -7.2980  -20.9457 C   0  0  0  0  0  0  0  0  0  0  0  0
  -19.2876   -9.2229  -22.2294 H   0  0  0  0  0  0  0  0  0  0  0  0
  -18.0839   -8.5458  -21.0480 H   0  0  0  0  0  0  0  0  0  0  0  0
  -21.2733   -6.5498  -26.4259 H   0  0  0  0  0  0  0  0  0  0  0  0
  -19.6169  -13.0639  -24.0053 H   0  0  0  0  0  0  0  0  0  0  0  0
  -20.4539  -12.7279  -25.5588 H   0  0  0  0  0  0  0  0  0  0  0  0
  -18.7326  -13.2415  -25.5588 H   0  0  0  0  0  0  0  0  0  0  0  0
  -19.6621  -10.5580  -25.4044 H   0  0  0  0  0  0  0  0  0  0  0  0
  -18.5572   -8.8576  -24.6422 H   0  0  0  0  0  0  0  0  0  0  0  0
  -16.8074   -9.2341  -24.9356 H   0  0  0  0  0  0  0  0  0  0  0  0
  -18.1439   -6.6368  -23.0211 H   0  0  0  0  0  0  0  0  0  0  0  0
  -19.1877   -6.6086  -25.0910 H   0  0  0  0  0  0  0  0  0  0  0  0
  -23.4589   -6.9658  -25.3433 H   0  0  0  0  0  0  0  0  0  0  0  0
  -23.5577   -7.4532  -22.9154 H   0  0  0  0  0  0  0  0  0  0  0  0
  -21.4802   -7.5170  -21.5709 H   0  0  0  0  0  0  0  0  0  0  0  0
  -19.1852   -8.0420  -19.8422 H   0  0  0  0  0  0  0  0  0  0  0  0
  -19.4144   -6.7321  -17.7541 H   0  0  0  0  0  0  0  0  0  0  0  0
  -19.4375   -4.2542  -17.8315 H   0  0  0  0  0  0  0  0  0  0  0  0
  -19.1878   -3.0891  -20.0031 H   0  0  0  0  0  0  0  0  0  0  0  0
  -18.9507   -4.3898  -22.0964 H   0  0  0  0  0  0  0  0  0  0  0  0
  -15.6465  -10.6409  -20.4632 H   0  0  0  0  0  0  0  0  0  0  0  0
  -14.9146   -9.8376  -16.9020 H   0  0  0  0  0  0  0  0  0  0  0  0
  -15.6429  -11.0517  -18.0076 H   0  0  0  0  0  0  0  0  0  0  0  0
  -13.8659  -10.7887  -18.0076 H   0  0  0  0  0  0  0  0  0  0  0  0
  -12.6483   -7.6745  -16.2257 H   0  0  0  0  0  0  0  0  0  0  0  0
  -12.5571   -8.5842  -17.7719 H   0  0  0  0  0  0  0  0  0  0  0  0
  -12.3990   -6.7949  -17.7719 H   0  0  0  0  0  0  0  0  0  0  0  0
  -14.5606   -5.2863  -18.3183 H   0  0  0  0  0  0  0  0  0  0  0  0
  -13.6231   -5.1874  -19.8474 H   0  0  0  0  0  0  0  0  0  0  0  0
  -15.3824   -4.8244  -19.8474 H   0  0  0  0  0  0  0  0  0  0  0  0
  -15.4235   -6.5433  -21.7390 H   0  0  0  0  0  0  0  0  0  0  0  0
  1  2  1  0
  1  8  1  0
  1 21  1  0
  9  2  1  0
  3 11  2  0
  3 12  1  0
  4  5  1  0
  5  6  1  0
  6  7  2  0
  6  8  1  0
  9 10  1  0
  9 15  1  0
 10 11  1  0
 10 14  2  0
 12 13  2  0
 13 14  1  0
 15 16  2  0
 15 20  1  0
 16 17  1  0
 17 18  2  0
 18 19  1  0
 19 20  2  0
 21 22  2  0
 21 23  1  0
 23 24  2  0
 23 32  1  0
 24 25  1  0
 25 26  1  0
 25 27  2  0
 27 28  1  0
 27 30  1  0
 28 29  1  0
 30 31  1  0
 30 32  2  0
  2 33  1  0
  2 34  1  0
  3 35  1  0
  4 36  1  0
  4 37  1  0
  4 38  1  0
  5 39  1  0
  8 40  1  0
  8 41  1  0
  9 42  1  6
 11 43  1  0
 12 44  1  0
 13 45  1  0
 14 46  1  0
 16 47  1  0
 17 48  1  0
 18 49  1  0
 19 50  1  0
 20 51  1  0
 24 52  1  0
 26 53  1  0
 26 54  1  0
 26 55  1  0
 29 56  1  0
 29 57  1  0
 29 58  1  0
 31 59  1  0
 31 60  1  0
 31 61  1  0
 32 62  1  0
M  END
>  <filename_input>  (14) 
7OEO_V9Z_docked.sdf

>  <pdb_id>  (14) 
7OEO_V9Z

>  <pose_rank>  (14) 
13

>  <num_atoms_heavy>  (14) 
32

>  <num_torsions>  (14) 
8

>  <pose>  (14) 
[-17.34147096609382, -8.948389445455192, -22.9505509585569, -2.32480596060364, 0.2944628657911722, -2.665296984050247, 6.637556720898047, -0.05535062338132398, -0.149176456559088, -7.357502540903281, -2.2170058236913803, 0.9570918314593962, 0.21101262641840204, -0.8967079859870472]

>  <energy>  (14) 
-693.7072130896147

>  <inter_energy>  (14) 
-703.4545302221121

>  <intra_energy>  (14) 
27.919281715914906

>  <rmsd>  (14) 
5.16771

>  <sdf_rank>  (14) 
0

$$$$

     RDKit          3D

 62 64  0  0  0  0  0  0  0  0999 V2000
  -18.6671   -6.4259  -20.5062 N   0  0  0  0  0  0  0  0  0  0  0  0
  -17.9819   -7.7026  -20.3101 C   0  0  0  0  0  0  0  0  0  0  0  0
  -13.6442   -7.7449  -18.2336 C   0  0  0  0  0  0  0  0  0  0  0  0
  -22.7838   -5.0348  -20.8109 C   0  0  0  0  0  0  0  0  0  0  0  0
  -21.5870   -5.7030  -20.3456 N   0  0  0  0  0  0  0  0  0  0  0  0
  -20.5749   -5.0463  -19.7987 C   0  0  0  0  0  0  0  0  0  0  0  0
  -20.5853   -3.8281  -19.6446 O   0  0  0  0  0  0  0  0  0  0  0  0
  -19.3710   -5.8648  -19.3685 C   0  0  0  0  0  0  0  0  0  0  0  0
  -16.5164   -7.6482  -20.7498 C   0  0  1  0  0  0  0  0  0  0  0  0
  -15.5610   -7.2762  -19.6170 C   0  0  0  0  0  0  0  0  0  0  0  0
  -14.4992   -8.0976  -19.2647 C   0  0  0  0  0  0  0  0  0  0  0  0
  -13.8387   -6.5736  -17.5424 C   0  0  0  0  0  0  0  0  0  0  0  0
  -14.8882   -5.7480  -17.8813 C   0  0  0  0  0  0  0  0  0  0  0  0
  -15.7444   -6.0958  -18.9109 C   0  0  0  0  0  0  0  0  0  0  0  0
  -16.1186   -8.9538  -21.4272 C   0  0  0  0  0  0  0  0  0  0  0  0
  -16.9942  -10.0299  -21.4635 C   0  0  0  0  0  0  0  0  0  0  0  0
  -16.6306  -11.2158  -22.0761 C   0  0  0  0  0  0  0  0  0  0  0  0
  -15.3873  -11.3445  -22.6566 C   0  0  0  0  0  0  0  0  0  0  0  0
  -14.5125  -10.2823  -22.6343 C   0  0  0  0  0  0  0  0  0  0  0  0
  -14.8735   -9.0938  -22.0243 C   0  0  0  0  0  0  0  0  0  0  0  0
  -18.7816   -5.7462  -21.6663 C   0  0  0  0  0  0  0  0  0  0  0  0
  -19.4010   -4.7005  -21.7354 O   0  0  0  0  0  0  0  0  0  0  0  0
  -18.1368   -6.2859  -22.9066 C   0  0  0  0  0  0  0  0  0  0  0  0
  -16.9997   -5.6795  -23.4359 C   0  0  0  0  0  0  0  0  0  0  0  0
  -16.3627   -6.1877  -24.5628 C   0  0  0  0  0  0  0  0  0  0  0  0
  -15.1466   -5.4938  -25.1254 C   0  0  0  0  0  0  0  0  0  0  0  0
  -16.9005   -7.3328  -25.1488 C   0  0  0  0  0  0  0  0  0  0  0  0
  -16.2835   -7.8604  -26.2602 O   0  0  0  0  0  0  0  0  0  0  0  0
  -16.6907   -7.2380  -27.4725 C   0  0  0  0  0  0  0  0  0  0  0  0
  -18.0328   -7.9798  -24.6375 C   0  0  0  0  0  0  0  0  0  0  0  0
  -18.5959   -9.2268  -25.2660 C   0  0  0  0  0  0  0  0  0  0  0  0
  -18.6270   -7.4407  -23.5020 C   0  0  0  0  0  0  0  0  0  0  0  0
  -18.0215   -7.9653  -19.2426 H   0  0  0  0  0  0  0  0  0  0  0  0
  -18.4912   -8.4567  -20.9281 H   0  0  0  0  0  0  0  0  0  0  0  0
  -12.8060   -8.4054  -17.9671 H   0  0  0  0  0  0  0  0  0  0  0  0
  -23.3780   -4.7030  -19.9468 H   0  0  0  0  0  0  0  0  0  0  0  0
  -22.5036   -4.1626  -21.4198 H   0  0  0  0  0  0  0  0  0  0  0  0
  -23.3793   -5.7310  -21.4198 H   0  0  0  0  0  0  0  0  0  0  0  0
  -21.5199   -6.7262  -20.4433 H   0  0  0  0  0  0  0  0  0  0  0  0
  -19.7116   -6.6856  -18.7202 H   0  0  0  0  0  0  0  0  0  0  0  0
  -18.6787   -5.1990  -18.8323 H   0  0  0  0  0  0  0  0  0  0  0  0
  -16.4273   -6.8333  -21.4833 H   0  0  0  0  0  0  0  0  0  0  0  0
  -14.3348   -9.0387  -19.8100 H   0  0  0  0  0  0  0  0  0  0  0  0
  -13.1598   -6.2964  -16.7225 H   0  0  0  0  0  0  0  0  0  0  0  0
  -15.0460   -4.8087  -17.3312 H   0  0  0  0  0  0  0  0  0  0  0  0
  -16.5796   -5.4294  -19.1725 H   0  0  0  0  0  0  0  0  0  0  0  0
  -17.9877   -9.9389  -21.0002 H   0  0  0  0  0  0  0  0  0  0  0  0
  -17.3365  -12.0591  -22.1000 H   0  0  0  0  0  0  0  0  0  0  0  0
  -15.0958  -12.2911  -23.1351 H   0  0  0  0  0  0  0  0  0  0  0  0
  -13.5222  -10.3784  -23.1034 H   0  0  0  0  0  0  0  0  0  0  0  0
  -14.1664   -8.2513  -22.0124 H   0  0  0  0  0  0  0  0  0  0  0  0
  -16.5965   -4.7780  -22.9513 H   0  0  0  0  0  0  0  0  0  0  0  0
  -14.5152   -5.1336  -24.2998 H   0  0  0  0  0  0  0  0  0  0  0  0
  -14.5739   -6.2011  -25.7433 H   0  0  0  0  0  0  0  0  0  0  0  0
  -15.4641   -4.6409  -25.7433 H   0  0  0  0  0  0  0  0  0  0  0  0
  -17.2797   -6.3378  -27.2427 H   0  0  0  0  0  0  0  0  0  0  0  0
  -15.8021   -6.9557  -28.0563 H   0  0  0  0  0  0  0  0  0  0  0  0
  -17.3053   -7.9391  -28.0563 H   0  0  0  0  0  0  0  0  0  0  0  0
  -18.9112   -9.9250  -24.4765 H   0  0  0  0  0  0  0  0  0  0  0  0
  -19.4625   -8.9636  -25.8902 H   0  0  0  0  0  0  0  0  0  0  0  0
  -17.8254   -9.7029  -25.8902 H   0  0  0  0  0  0  0  0  0  0  0  0
  -19.5048   -7.9399  -23.0657 H   0  0  0  0  0  0  0  0  0  0  0  0
  1  2  1  0
  1  8  1  0
  1 21  1  0
  9  2  1  0
  3 11  2  0
  3 12  1  0
  4  5  1  0
  5  6  1  0
  6  7  2  0
  6  8  1  0
  9 10  1  0
  9 15  1  0
 10 11  1  0
 10 14  2  0
 12 13  2  0
 13 14  1  0
 15 16  2  0
 15 20  1  0
 16 17  1  0
 17 18  2  0
 18 19  1  0
 19 20  2  0
 21 22  2  0
 21 23  1  0
 23 24  2  0
 23 32  1  0
 24 25  1  0
 25 26  1  0
 25 27  2  0
 27 28  1  0
 27 30  1  0
 28 29  1  0
 30 31  1  0
 30 32  2  0
  2 33  1  0
  2 34  1  0
  3 35  1  0
  4 36  1  0
  4 37  1  0
  4 38  1  0
  5 39  1  0
  8 40  1  0
  8 41  1  0
  9 42  1  6
 11 43  1  0
 12 44  1  0
 13 45  1  0
 14 46  1  0
 16 47  1  0
 17 48  1  0
 18 49  1  0
 19 50  1  0
 20 51  1  0
 24 52  1  0
 26 53  1  0
 26 54  1  0
 26 55  1  0
 29 56  1  0
 29 57  1  0
 29 58  1  0
 31 59  1  0
 31 60  1  0
 31 61  1  0
 32 62  1  0
M  END
>  <filename_input>  (15) 
7OEO_V9Z_docked.sdf

>  <pdb_id>  (15) 
7OEO_V9Z

>  <pose_rank>  (15) 
14

>  <num_atoms_heavy>  (15) 
32

>  <num_torsions>  (15) 
8

>  <pose>  (15) 
[-18.667093391126958, -6.425943407826785, -20.506152836968152, 2.8068643209401305, -1.5251248852809356, -1.0392066242621407, -3.2142838184666402, 3.271700752750165, -0.9724655095329636, -1.2300286379203915, 1.7216688303000922, 1.206477896193078, -0.8715548171720142, -2.0262156395555317]

>  <energy>  (15) 
-545.4314390833075

>  <inter_energy>  (15) 
-717.8780946826838

>  <intra_energy>  (15) 
174.73364130485615

>  <rmsd>  (15) 
5.3361

>  <sdf_rank>  (15) 
0

$$$$

     RDKit          3D

 62 64  0  0  0  0  0  0  0  0999 V2000
  -17.3415   -7.6263  -23.2442 N   0  0  0  0  0  0  0  0  0  0  0  0
  -16.6309   -8.8792  -23.4956 C   0  0  0  0  0  0  0  0  0  0  0  0
  -19.7584   -9.7042  -26.9500 C   0  0  0  0  0  0  0  0  0  0  0  0
  -15.1055   -5.6627  -26.2149 C   0  0  0  0  0  0  0  0  0  0  0  0
  -16.0414   -6.0987  -25.2003 N   0  0  0  0  0  0  0  0  0  0  0  0
  -17.2024   -6.6612  -25.5010 C   0  0  0  0  0  0  0  0  0  0  0  0
  -17.5610   -6.8556  -26.6592 O   0  0  0  0  0  0  0  0  0  0  0  0
  -18.0997   -7.0572  -24.3423 C   0  0  0  0  0  0  0  0  0  0  0  0
  -17.5842  -10.0306  -23.8265 C   0  0  1  0  0  0  0  0  0  0  0  0
  -18.0498  -10.0279  -25.2817 C   0  0  0  0  0  0  0  0  0  0  0  0
  -19.3538   -9.6996  -25.6253 C   0  0  0  0  0  0  0  0  0  0  0  0
  -18.8710  -10.0373  -27.9444 C   0  0  0  0  0  0  0  0  0  0  0  0
  -17.5731  -10.3650  -27.6184 C   0  0  0  0  0  0  0  0  0  0  0  0
  -17.1641  -10.3612  -26.2967 C   0  0  0  0  0  0  0  0  0  0  0  0
  -16.9621  -11.3633  -23.4281 C   0  0  0  0  0  0  0  0  0  0  0  0
  -17.6933  -12.5400  -23.5084 C   0  0  0  0  0  0  0  0  0  0  0  0
  -17.1283  -13.7489  -23.1435 C   0  0  0  0  0  0  0  0  0  0  0  0
  -15.8278  -13.7985  -22.6899 C   0  0  0  0  0  0  0  0  0  0  0  0
  -15.0893  -12.6397  -22.6128 C   0  0  0  0  0  0  0  0  0  0  0  0
  -15.6505  -11.4289  -22.9790 C   0  0  0  0  0  0  0  0  0  0  0  0
  -17.3023   -6.8946  -22.1109 C   0  0  0  0  0  0  0  0  0  0  0  0
  -17.9082   -5.8438  -22.0078 O   0  0  0  0  0  0  0  0  0  0  0  0
  -16.4927   -7.3777  -20.9462 C   0  0  0  0  0  0  0  0  0  0  0  0
  -16.3281   -8.7414  -20.7141 C   0  0  0  0  0  0  0  0  0  0  0  0
  -15.5483   -9.2109  -19.6626 C   0  0  0  0  0  0  0  0  0  0  0  0
  -15.4091  -10.6942  -19.4237 C   0  0  0  0  0  0  0  0  0  0  0  0
  -14.9302   -8.2667  -18.8438 C   0  0  0  0  0  0  0  0  0  0  0  0
  -14.1462   -8.7058  -17.8013 O   0  0  0  0  0  0  0  0  0  0  0  0
  -12.7569   -8.6974  -18.1062 C   0  0  0  0  0  0  0  0  0  0  0  0
  -15.0591   -6.8878  -19.0539 C   0  0  0  0  0  0  0  0  0  0  0  0
  -14.3729   -5.8754  -18.1757 C   0  0  0  0  0  0  0  0  0  0  0  0
  -15.8392   -6.4679  -20.1255 C   0  0  0  0  0  0  0  0  0  0  0  0
  -15.9450   -8.7330  -24.3430 H   0  0  0  0  0  0  0  0  0  0  0  0
  -16.0850   -9.1466  -22.5789 H   0  0  0  0  0  0  0  0  0  0  0  0
  -20.7949   -9.4400  -27.2069 H   0  0  0  0  0  0  0  0  0  0  0  0
  -14.2095   -5.2452  -25.7322 H   0  0  0  0  0  0  0  0  0  0  0  0
  -14.8185   -6.5198  -26.8418 H   0  0  0  0  0  0  0  0  0  0  0  0
  -15.5771   -4.8916  -26.8418 H   0  0  0  0  0  0  0  0  0  0  0  0
  -15.7958   -5.9668  -24.2088 H   0  0  0  0  0  0  0  0  0  0  0  0
  -18.8291   -7.8013  -24.6949 H   0  0  0  0  0  0  0  0  0  0  0  0
  -18.6050   -6.1514  -23.9759 H   0  0  0  0  0  0  0  0  0  0  0  0
  -18.4961   -9.8790  -23.2302 H   0  0  0  0  0  0  0  0  0  0  0  0
  -20.0735   -9.4329  -24.8374 H   0  0  0  0  0  0  0  0  0  0  0  0
  -19.1950  -10.0424  -28.9955 H   0  0  0  0  0  0  0  0  0  0  0  0
  -16.8593  -10.6306  -28.4120 H   0  0  0  0  0  0  0  0  0  0  0  0
  -16.1256  -10.6251  -26.0478 H   0  0  0  0  0  0  0  0  0  0  0  0
  -18.7332  -12.5112  -23.8660 H   0  0  0  0  0  0  0  0  0  0  0  0
  -17.7191  -14.6739  -23.2157 H   0  0  0  0  0  0  0  0  0  0  0  0
  -15.3826  -14.7589  -22.3910 H   0  0  0  0  0  0  0  0  0  0  0  0
  -14.0485  -12.6762  -22.2587 H   0  0  0  0  0  0  0  0  0  0  0  0
  -15.0509  -10.5090  -22.9134 H   0  0  0  0  0  0  0  0  0  0  0  0
  -16.8264   -9.4635  -21.3777 H   0  0  0  0  0  0  0  0  0  0  0  0
  -15.3907  -10.8912  -18.3417 H   0  0  0  0  0  0  0  0  0  0  0  0
  -16.2619  -11.2203  -19.8777 H   0  0  0  0  0  0  0  0  0  0  0  0
  -14.4734  -11.0525  -19.8777 H   0  0  0  0  0  0  0  0  0  0  0  0
  -12.1765   -8.6939  -17.1718 H   0  0  0  0  0  0  0  0  0  0  0  0
  -12.5045   -9.5940  -18.6913 H   0  0  0  0  0  0  0  0  0  0  0  0
  -12.5154   -7.7978  -18.6913 H   0  0  0  0  0  0  0  0  0  0  0  0
  -14.5451   -6.1295  -17.1194 H   0  0  0  0  0  0  0  0  0  0  0  0
  -13.2926   -5.8824  -18.3831 H   0  0  0  0  0  0  0  0  0  0  0  0
  -14.7795   -4.8746  -18.3831 H   0  0  0  0  0  0  0  0  0  0  0  0
  -15.9408   -5.3914  -20.3276 H   0  0  0  0  0  0  0  0  0  0  0  0
  1  2  1  0
  1  8  1  0
  1 21  1  0
  9  2  1  0
  3 11  2  0
  3 12  1  0
  4  5  1  0
  5  6  1  0
  6  7  2  0
  6  8  1  0
  9 10  1  0
  9 15  1  0
 10 11  1  0
 10 14  2  0
 12 13  2  0
 13 14  1  0
 15 16  2  0
 15 20  1  0
 16 17  1  0
 17 18  2  0
 18 19  1  0
 19 20  2  0
 21 22  2  0
 21 23  1  0
 23 24  2  0
 23 32  1  0
 24 25  1  0
 25 26  1  0
 25 27  2  0
 27 28  1  0
 27 30  1  0
 28 29  1  0
 30 31  1  0
 30 32  2  0
  2 33  1  0
  2 34  1  0
  3 35  1  0
  4 36  1  0
  4 37  1  0
  4 38  1  0
  5 39  1  0
  8 40  1  0
  8 41  1  0
  9 42  1  1
 11 43  1  0
 12 44  1  0
 13 45  1  0
 14 46  1  0
 16 47  1  0
 17 48  1  0
 18 49  1  0
 19 50  1  0
 20 51  1  0
 24 52  1  0
 26 53  1  0
 26 54  1  0
 26 55  1  0
 29 56  1  0
 29 57  1  0
 29 58  1  0
 31 59  1  0
 31 60  1  0
 31 61  1  0
 32 62  1  0
M  END
>  <filename_input>  (16) 
7OEO_V9Z_docked.sdf

>  <pdb_id>  (16) 
7OEO_V9Z

>  <pose_rank>  (16) 
15

>  <num_atoms_heavy>  (16) 
32

>  <num_torsions>  (16) 
8

>  <pose>  (16) 
[-17.34154116861982, -7.626279285610945, -23.24419675330253, 3.7630012596928055, 0.9169869209591559, 3.26720089326726, -1.886643259443615, 0.18376239831962116, -18.700655788152403, -7.708767189213262, -2.335329978679572, -1.9424158336706234, 0.6248797998781068, 2.3760173575150207]

>  <energy>  (16) 
-589.0852733753973

>  <inter_energy>  (16) 
-659.5728484267026

>  <intra_energy>  (16) 
81.13516414061543

>  <rmsd>  (16) 
3.4337

>  <sdf_rank>  (16) 
0

$$$$

     RDKit          3D

 62 64  0  0  0  0  0  0  0  0999 V2000
  -16.3771   -6.9778  -21.2295 N   0  0  0  0  0  0  0  0  0  0  0  0
  -16.6794   -8.3883  -21.4685 C   0  0  0  0  0  0  0  0  0  0  0  0
  -13.5417  -10.0291  -18.1066 C   0  0  0  0  0  0  0  0  0  0  0  0
  -14.2659   -4.7396  -17.4973 C   0  0  0  0  0  0  0  0  0  0  0  0
  -14.2803   -5.2787  -18.8408 N   0  0  0  0  0  0  0  0  0  0  0  0
  -15.1838   -6.1605  -19.2416 C   0  0  0  0  0  0  0  0  0  0  0  0
  -16.0726   -6.5763  -18.5035 O   0  0  0  0  0  0  0  0  0  0  0  0
  -15.0764   -6.6594  -20.6713 C   0  0  0  0  0  0  0  0  0  0  0  0
  -15.4407   -9.2781  -21.3345 C   0  0  1  0  0  0  0  0  0  0  0  0
  -15.1201   -9.6502  -19.8877 C   0  0  0  0  0  0  0  0  0  0  0  0
  -13.8135   -9.6878  -19.4211 C   0  0  0  0  0  0  0  0  0  0  0  0
  -14.5662  -10.3381  -17.2450 C   0  0  0  0  0  0  0  0  0  0  0  0
  -15.8682  -10.3044  -17.6939 C   0  0  0  0  0  0  0  0  0  0  0  0
  -16.1448   -9.9635  -19.0059 C   0  0  0  0  0  0  0  0  0  0  0  0
  -15.5739  -10.5076  -22.2246 C   0  0  0  0  0  0  0  0  0  0  0  0
  -16.8238  -10.9840  -22.5942 C   0  0  0  0  0  0  0  0  0  0  0  0
  -16.9434  -12.1021  -23.3999 C   0  0  0  0  0  0  0  0  0  0  0  0
  -15.8175  -12.7617  -23.8436 C   0  0  0  0  0  0  0  0  0  0  0  0
  -14.5719  -12.2950  -23.4905 C   0  0  0  0  0  0  0  0  0  0  0  0
  -14.4483  -11.1755  -22.6865 C   0  0  0  0  0  0  0  0  0  0  0  0
  -17.2179   -5.9363  -21.4012 C   0  0  0  0  0  0  0  0  0  0  0  0
  -16.8813   -4.7948  -21.1451 O   0  0  0  0  0  0  0  0  0  0  0  0
  -18.6036   -6.1814  -21.9162 C   0  0  0  0  0  0  0  0  0  0  0  0
  -19.7145   -5.7475  -21.1963 C   0  0  0  0  0  0  0  0  0  0  0  0
  -21.0074   -5.9294  -21.6753 C   0  0  0  0  0  0  0  0  0  0  0  0
  -22.1910   -5.4692  -20.8603 C   0  0  0  0  0  0  0  0  0  0  0  0
  -21.1574   -6.5621  -22.9087 C   0  0  0  0  0  0  0  0  0  0  0  0
  -22.4263   -6.7465  -23.4086 O   0  0  0  0  0  0  0  0  0  0  0  0
  -22.8687   -5.6653  -24.2201 C   0  0  0  0  0  0  0  0  0  0  0  0
  -20.0650   -6.9986  -23.6690 C   0  0  0  0  0  0  0  0  0  0  0  0
  -20.2354   -7.6644  -25.0088 C   0  0  0  0  0  0  0  0  0  0  0  0
  -18.7918   -6.7830  -23.1535 C   0  0  0  0  0  0  0  0  0  0  0  0
  -17.4324   -8.7176  -20.7373 H   0  0  0  0  0  0  0  0  0  0  0  0
  -17.0523   -8.4830  -22.4990 H   0  0  0  0  0  0  0  0  0  0  0  0
  -12.5011  -10.0529  -17.7509 H   0  0  0  0  0  0  0  0  0  0  0  0
  -14.2879   -5.5652  -16.7707 H   0  0  0  0  0  0  0  0  0  0  0  0
  -13.3516   -4.1460  -17.3502 H   0  0  0  0  0  0  0  0  0  0  0  0
  -15.1473   -4.0981  -17.3502 H   0  0  0  0  0  0  0  0  0  0  0  0
  -13.5620   -4.9651  -19.5091 H   0  0  0  0  0  0  0  0  0  0  0  0
  -14.4511   -7.5643  -20.6867 H   0  0  0  0  0  0  0  0  0  0  0  0
  -14.6294   -5.8597  -21.2801 H   0  0  0  0  0  0  0  0  0  0  0  0
  -14.5785   -8.6888  -21.6800 H   0  0  0  0  0  0  0  0  0  0  0  0
  -12.9850   -9.4440  -20.1025 H   0  0  0  0  0  0  0  0  0  0  0  0
  -14.3480  -10.6109  -16.2019 H   0  0  0  0  0  0  0  0  0  0  0  0
  -16.6912  -10.5496  -17.0065 H   0  0  0  0  0  0  0  0  0  0  0  0
  -17.1880   -9.9405  -19.3538 H   0  0  0  0  0  0  0  0  0  0  0  0
  -17.7290  -10.4670  -22.2429 H   0  0  0  0  0  0  0  0  0  0  0  0
  -17.9408  -12.4662  -23.6876 H   0  0  0  0  0  0  0  0  0  0  0  0
  -15.9140  -13.6563  -24.4764 H   0  0  0  0  0  0  0  0  0  0  0  0
  -13.6707  -12.8140  -23.8490 H   0  0  0  0  0  0  0  0  0  0  0  0
  -13.4478  -10.8112  -22.4105 H   0  0  0  0  0  0  0  0  0  0  0  0
  -19.5657   -5.2497  -20.2267 H   0  0  0  0  0  0  0  0  0  0  0  0
  -21.9565   -5.5604  -19.7894 H   0  0  0  0  0  0  0  0  0  0  0  0
  -22.4141   -4.4188  -21.0986 H   0  0  0  0  0  0  0  0  0  0  0  0
  -23.0651   -6.0929  -21.0986 H   0  0  0  0  0  0  0  0  0  0  0  0
  -23.2068   -4.8390  -23.5775 H   0  0  0  0  0  0  0  0  0  0  0  0
  -22.0394   -5.3203  -24.8552 H   0  0  0  0  0  0  0  0  0  0  0  0
  -23.7020   -6.0005  -24.8552 H   0  0  0  0  0  0  0  0  0  0  0  0
  -20.5058   -8.7204  -24.8617 H   0  0  0  0  0  0  0  0  0  0  0  0
  -21.0326   -7.1567  -25.5717 H   0  0  0  0  0  0  0  0  0  0  0  0
  -19.2924   -7.6023  -25.5717 H   0  0  0  0  0  0  0  0  0  0  0  0
  -17.9145   -7.0959  -23.7386 H   0  0  0  0  0  0  0  0  0  0  0  0
  1  2  1  0
  1  8  1  0
  1 21  1  0
  9  2  1  0
  3 11  2  0
  3 12  1  0
  4  5  1  0
  5  6  1  0
  6  7  2  0
  6  8  1  0
  9 10  1  0
  9 15  1  0
 10 11  1  0
 10 14  2  0
 12 13  2  0
 13 14  1  0
 15 16  2  0
 15 20  1  0
 16 17  1  0
 17 18  2  0
 18 19  1  0
 19 20  2  0
 21 22  2  0
 21 23  1  0
 23 24  2  0
 23 32  1  0
 24 25  1  0
 25 26  1  0
 25 27  2  0
 27 28  1  0
 27 30  1  0
 28 29  1  0
 30 31  1  0
 30 32  2  0
  2 33  1  0
  2 34  1  0
  3 35  1  0
  4 36  1  0
  4 37  1  0
  4 38  1  0
  5 39  1  0
  8 40  1  0
  8 41  1  0
  9 42  1  6
 11 43  1  0
 12 44  1  0
 13 45  1  0
 14 46  1  0
 16 47  1  0
 17 48  1  0
 18 49  1  0
 19 50  1  0
 20 51  1  0
 24 52  1  0
 26 53  1  0
 26 54  1  0
 26 55  1  0
 29 56  1  0
 29 57  1  0
 29 58  1  0
 31 59  1  0
 31 60  1  0
 31 61  1  0
 32 62  1  0
M  END
>  <filename_input>  (17) 
7OEO_V9Z_docked.sdf

>  <pdb_id>  (17) 
7OEO_V9Z

>  <pose_rank>  (17) 
16

>  <num_atoms_heavy>  (17) 
32

>  <num_torsions>  (17) 
8

>  <pose>  (17) 
[-16.377074727438135, -6.9778214096772215, -21.22953513776096, -0.8659107165872113, 2.0212231024672698, 2.648496092728072, 7.112298624071981, 0.03692632265224646, -11.508240766018298, -1.3986622390785224, -2.878267823173213, 0.874315978954649, -0.1884325811870366, 0.4835761169144752]

>  <energy>  (17) 
-506.1416973719232

>  <inter_energy>  (17) 
-564.9393039283859

>  <intra_energy>  (17) 
64.01316751007901

>  <rmsd>  (17) 
6.24384

>  <sdf_rank>  (17) 
0

$$$$

     RDKit          3D

 62 64  0  0  0  0  0  0  0  0999 V2000
  -17.8585   -7.0617  -21.9300 N   0  0  0  0  0  0  0  0  0  0  0  0
  -16.7965   -7.5528  -22.8070 C   0  0  0  0  0  0  0  0  0  0  0  0
  -16.4388   -9.2363  -27.4453 C   0  0  0  0  0  0  0  0  0  0  0  0
  -21.5645   -4.0598  -21.3472 C   0  0  0  0  0  0  0  0  0  0  0  0
  -20.7024   -4.9114  -22.1391 N   0  0  0  0  0  0  0  0  0  0  0  0
  -20.0025   -5.9026  -21.6079 C   0  0  0  0  0  0  0  0  0  0  0  0
  -20.0412   -6.1696  -20.4100 O   0  0  0  0  0  0  0  0  0  0  0  0
  -19.1235   -6.7093  -22.5467 C   0  0  0  0  0  0  0  0  0  0  0  0
  -17.2936   -8.6326  -23.7718 C   0  0  1  0  0  0  0  0  0  0  0  0
  -16.8137   -8.4249  -25.2074 C   0  0  0  0  0  0  0  0  0  0  0  0
  -16.8804   -9.4425  -26.1488 C   0  0  0  0  0  0  0  0  0  0  0  0
  -15.9251   -8.0175  -27.8167 C   0  0  0  0  0  0  0  0  0  0  0  0
  -15.8532   -6.9978  -26.8931 C   0  0  0  0  0  0  0  0  0  0  0  0
  -16.2936   -7.1987  -25.5971 C   0  0  0  0  0  0  0  0  0  0  0  0
  -16.9373  -10.0172  -23.2450 C   0  0  0  0  0  0  0  0  0  0  0  0
  -17.8729  -10.7774  -22.5575 C   0  0  0  0  0  0  0  0  0  0  0  0
  -17.5471  -12.0331  -22.0770 C   0  0  0  0  0  0  0  0  0  0  0  0
  -16.2824  -12.5445  -22.2727 C   0  0  0  0  0  0  0  0  0  0  0  0
  -15.3476  -11.8041  -22.9596 C   0  0  0  0  0  0  0  0  0  0  0  0
  -15.6705  -10.5485  -23.4435 C   0  0  0  0  0  0  0  0  0  0  0  0
  -17.7601   -6.8245  -20.6052 C   0  0  0  0  0  0  0  0  0  0  0  0
  -18.6967   -6.3851  -19.9637 O   0  0  0  0  0  0  0  0  0  0  0  0
  -16.4686   -7.1024  -19.8979 C   0  0  0  0  0  0  0  0  0  0  0  0
  -15.8389   -6.1068  -19.1543 C   0  0  0  0  0  0  0  0  0  0  0  0
  -14.6610   -6.3548  -18.4579 C   0  0  0  0  0  0  0  0  0  0  0  0
  -13.9908   -5.2484  -17.6810 C   0  0  0  0  0  0  0  0  0  0  0  0
  -14.1278   -7.6413  -18.5260 C   0  0  0  0  0  0  0  0  0  0  0  0
  -12.9672   -7.9146  -17.8386 O   0  0  0  0  0  0  0  0  0  0  0  0
  -12.8634   -9.2754  -17.4381 C   0  0  0  0  0  0  0  0  0  0  0  0
  -14.7393   -8.6727  -19.2501 C   0  0  0  0  0  0  0  0  0  0  0  0
  -14.1663  -10.0641  -19.3030 C   0  0  0  0  0  0  0  0  0  0  0  0
  -15.9219   -8.3788  -19.9195 C   0  0  0  0  0  0  0  0  0  0  0  0
  -16.4028   -6.7090  -23.3926 H   0  0  0  0  0  0  0  0  0  0  0  0
  -16.0165   -8.0003  -22.1735 H   0  0  0  0  0  0  0  0  0  0  0  0
  -16.4997  -10.0520  -28.1808 H   0  0  0  0  0  0  0  0  0  0  0  0
  -21.3792   -4.2428  -20.2785 H   0  0  0  0  0  0  0  0  0  0  0  0
  -21.3534   -3.0058  -21.5807 H   0  0  0  0  0  0  0  0  0  0  0  0
  -22.6158   -4.2836  -21.5807 H   0  0  0  0  0  0  0  0  0  0  0  0
  -20.6307   -4.7404  -23.1523 H   0  0  0  0  0  0  0  0  0  0  0  0
  -18.9256   -6.1130  -23.4496 H   0  0  0  0  0  0  0  0  0  0  0  0
  -19.6536   -7.6403  -22.7961 H   0  0  0  0  0  0  0  0  0  0  0  0
  -18.3894   -8.5480  -23.8175 H   0  0  0  0  0  0  0  0  0  0  0  0
  -17.2882  -10.4231  -25.8623 H   0  0  0  0  0  0  0  0  0  0  0  0
  -15.5731   -7.8565  -28.8464 H   0  0  0  0  0  0  0  0  0  0  0  0
  -15.4440   -6.0200  -27.1873 H   0  0  0  0  0  0  0  0  0  0  0  0
  -16.2308   -6.3777  -24.8677 H   0  0  0  0  0  0  0  0  0  0  0  0
  -18.8842  -10.3772  -22.3929 H   0  0  0  0  0  0  0  0  0  0  0  0
  -18.3003  -12.6255  -21.5368 H   0  0  0  0  0  0  0  0  0  0  0  0
  -16.0216  -13.5392  -21.8820 H   0  0  0  0  0  0  0  0  0  0  0  0
  -14.3394  -12.2120  -23.1246 H   0  0  0  0  0  0  0  0  0  0  0  0
  -14.9154   -9.9654  -23.9912 H   0  0  0  0  0  0  0  0  0  0  0  0
  -16.2836   -5.1013  -19.1173 H   0  0  0  0  0  0  0  0  0  0  0  0
  -14.1046   -5.4363  -16.6031 H   0  0  0  0  0  0  0  0  0  0  0  0
  -12.9214   -5.2166  -17.9367 H   0  0  0  0  0  0  0  0  0  0  0  0
  -14.4578   -4.2859  -17.9367 H   0  0  0  0  0  0  0  0  0  0  0  0
  -12.8588   -9.3350  -16.3397 H   0  0  0  0  0  0  0  0  0  0  0  0
  -13.7210   -9.8402  -17.8324 H   0  0  0  0  0  0  0  0  0  0  0  0
  -11.9299   -9.7035  -17.8324 H   0  0  0  0  0  0  0  0  0  0  0  0
  -14.0129  -10.4367  -18.2794 H   0  0  0  0  0  0  0  0  0  0  0  0
  -14.8642  -10.7281  -19.8341 H   0  0  0  0  0  0  0  0  0  0  0  0
  -13.2032  -10.0442  -19.8341 H   0  0  0  0  0  0  0  0  0  0  0  0
  -16.4358   -9.1747  -20.4785 H   0  0  0  0  0  0  0  0  0  0  0  0
  1  2  1  0
  1  8  1  0
  1 21  1  0
  9  2  1  0
  3 11  2  0
  3 12  1  0
  4  5  1  0
  5  6  1  0
  6  7  2  0
  6  8  1  0
  9 10  1  0
  9 15  1  0
 10 11  1  0
 10 14  2  0
 12 13  2  0
 13 14  1  0
 15 16  2  0
 15 20  1  0
 16 17  1  0
 17 18  2  0
 18 19  1  0
 19 20  2  0
 21 22  2  0
 21 23  1  0
 23 24  2  0
 23 32  1  0
 24 25  1  0
 25 26  1  0
 25 27  2  0
 27 28  1  0
 27 30  1  0
 28 29  1  0
 30 31  1  0
 30 32  2  0
  2 33  1  0
  2 34  1  0
  3 35  1  0
  4 36  1  0
  4 37  1  0
  4 38  1  0
  5 39  1  0
  8 40  1  0
  8 41  1  0
  9 42  1  6
 11 43  1  0
 12 44  1  0
 13 45  1  0
 14 46  1  0
 16 47  1  0
 17 48  1  0
 18 49  1  0
 19 50  1  0
 20 51  1  0
 24 52  1  0
 26 53  1  0
 26 54  1  0
 26 55  1  0
 29 56  1  0
 29 57  1  0
 29 58  1  0
 31 59  1  0
 31 60  1  0
 31 61  1  0
 32 62  1  0
M  END
>  <filename_input>  (18) 
7OEO_V9Z_docked.sdf

>  <pdb_id>  (18) 
7OEO_V9Z

>  <pose_rank>  (18) 
17

>  <num_atoms_heavy>  (18) 
32

>  <num_torsions>  (18) 
8

>  <pose>  (18) 
[-17.858506958843165, -7.061740793362189, -21.93003244544197, 5.3920353892762085, 0.6640105054534223, 1.8736069463007683, -5.436015159203054, 1.1036699486076438, 0.42395942430582195, -0.48834700607007336, -3.8498792807410123, 3.026645263428077, -7.439999218502484, -0.7435894615434688]

>  <energy>  (18) 
-450.62569808014246

>  <inter_energy>  (18) 
-727.5305275186147

>  <intra_energy>  (18) 
308.347752342622

>  <rmsd>  (18) 
1.22148

>  <sdf_rank>  (18) 
0

$$$$

     RDKit          3D

 62 64  0  0  0  0  0  0  0  0999 V2000
  -17.6930   -7.1166  -21.0915 N   0  0  0  0  0  0  0  0  0  0  0  0
  -16.2930   -7.5019  -21.2632 C   0  0  0  0  0  0  0  0  0  0  0  0
  -15.8933  -11.0706  -23.5488 C   0  0  0  0  0  0  0  0  0  0  0  0
  -15.4691   -5.1166  -18.0487 C   0  0  0  0  0  0  0  0  0  0  0  0
  -16.2262   -6.0586  -18.8456 N   0  0  0  0  0  0  0  0  0  0  0  0
  -17.5504   -6.0573  -18.8776 C   0  0  0  0  0  0  0  0  0  0  0  0
  -18.2250   -5.2547  -18.2384 O   0  0  0  0  0  0  0  0  0  0  0  0
  -18.2224   -7.1098  -19.7408 C   0  0  0  0  0  0  0  0  0  0  0  0
  -15.9440   -8.7787  -20.4936 C   0  0  1  0  0  0  0  0  0  0  0  0
  -15.9062  -10.0238  -21.3782 C   0  0  0  0  0  0  0  0  0  0  0  0
  -15.9264   -9.9306  -22.7629 C   0  0  0  0  0  0  0  0  0  0  0  0
  -15.8421  -12.3133  -22.9652 C   0  0  0  0  0  0  0  0  0  0  0  0
  -15.8210  -12.4213  -21.5919 C   0  0  0  0  0  0  0  0  0  0  0  0
  -15.8532  -11.2855  -20.8027 C   0  0  0  0  0  0  0  0  0  0  0  0
  -14.6467   -8.5900  -19.7169 C   0  0  0  0  0  0  0  0  0  0  0  0
  -13.7866   -7.5428  -20.0157 C   0  0  0  0  0  0  0  0  0  0  0  0
  -12.6076   -7.3745  -19.3117 C   0  0  0  0  0  0  0  0  0  0  0  0
  -12.2699   -8.2514  -18.3036 C   0  0  0  0  0  0  0  0  0  0  0  0
  -13.1179   -9.2896  -17.9922 C   0  0  0  0  0  0  0  0  0  0  0  0
  -14.2991   -9.4599  -18.6928 C   0  0  0  0  0  0  0  0  0  0  0  0
  -18.5758   -6.8400  -22.0740 C   0  0  0  0  0  0  0  0  0  0  0  0
  -19.7343   -6.5564  -21.8305 O   0  0  0  0  0  0  0  0  0  0  0  0
  -18.1292   -6.8840  -23.5037 C   0  0  0  0  0  0  0  0  0  0  0  0
  -18.9275   -7.4793  -24.4779 C   0  0  0  0  0  0  0  0  0  0  0  0
  -18.5503   -7.4957  -25.8164 C   0  0  0  0  0  0  0  0  0  0  0  0
  -19.4261   -8.1695  -26.8439 C   0  0  0  0  0  0  0  0  0  0  0  0
  -17.3405   -6.8911  -26.1551 C   0  0  0  0  0  0  0  0  0  0  0  0
  -16.9487   -6.8865  -27.4744 O   0  0  0  0  0  0  0  0  0  0  0  0
  -16.4315   -8.1389  -27.9071 C   0  0  0  0  0  0  0  0  0  0  0  0
  -16.5179   -6.2692  -25.2071 C   0  0  0  0  0  0  0  0  0  0  0  0
  -15.2217   -5.6024  -25.5846 C   0  0  0  0  0  0  0  0  0  0  0  0
  -16.9440   -6.2680  -23.8837 C   0  0  0  0  0  0  0  0  0  0  0  0
  -16.1009   -7.6700  -22.3332 H   0  0  0  0  0  0  0  0  0  0  0  0
  -15.6685   -6.6880  -20.8663 H   0  0  0  0  0  0  0  0  0  0  0  0
  -15.9081  -10.9806  -24.6450 H   0  0  0  0  0  0  0  0  0  0  0  0
  -15.6350   -5.3230  -16.9810 H   0  0  0  0  0  0  0  0  0  0  0  0
  -14.3985   -5.2181  -18.2797 H   0  0  0  0  0  0  0  0  0  0  0  0
  -15.7986   -4.0928  -18.2797 H   0  0  0  0  0  0  0  0  0  0  0  0
  -15.7167   -6.7550  -19.4081 H   0  0  0  0  0  0  0  0  0  0  0  0
  -19.3015   -6.9005  -19.7823 H   0  0  0  0  0  0  0  0  0  0  0  0
  -18.0280   -8.0952  -19.2922 H   0  0  0  0  0  0  0  0  0  0  0  0
  -16.7578   -8.9579  -19.7756 H   0  0  0  0  0  0  0  0  0  0  0  0
  -15.9691   -8.9410  -23.2411 H   0  0  0  0  0  0  0  0  0  0  0  0
  -15.8181  -13.2174  -23.5912 H   0  0  0  0  0  0  0  0  0  0  0  0
  -15.7784  -13.4145  -21.1211 H   0  0  0  0  0  0  0  0  0  0  0  0
  -15.8367  -11.3835  -19.7072 H   0  0  0  0  0  0  0  0  0  0  0  0
  -14.0450   -6.8391  -20.8207 H   0  0  0  0  0  0  0  0  0  0  0  0
  -11.9374   -6.5376  -19.5576 H   0  0  0  0  0  0  0  0  0  0  0  0
  -11.3276   -8.1221  -17.7509 H   0  0  0  0  0  0  0  0  0  0  0  0
  -12.8556   -9.9871  -17.1830 H   0  0  0  0  0  0  0  0  0  0  0  0
  -14.9694  -10.2932  -18.4354 H   0  0  0  0  0  0  0  0  0  0  0  0
  -19.8780   -7.9471  -24.1816 H   0  0  0  0  0  0  0  0  0  0  0  0
  -20.1987   -8.7638  -26.3341 H   0  0  0  0  0  0  0  0  0  0  0  0
  -19.9067   -7.4060  -27.4733 H   0  0  0  0  0  0  0  0  0  0  0  0
  -18.8114   -8.8297  -27.4733 H   0  0  0  0  0  0  0  0  0  0  0  0
  -16.1778   -8.7533  -27.0307 H   0  0  0  0  0  0  0  0  0  0  0  0
  -17.1886   -8.6588  -28.5126 H   0  0  0  0  0  0  0  0  0  0  0  0
  -15.5283   -7.9732  -28.5126 H   0  0  0  0  0  0  0  0  0  0  0  0
  -14.6749   -5.3210  -24.6726 H   0  0  0  0  0  0  0  0  0  0  0  0
  -14.6108   -6.2981  -26.1786 H   0  0  0  0  0  0  0  0  0  0  0  0
  -15.4326   -4.7008  -26.1786 H   0  0  0  0  0  0  0  0  0  0  0  0
  -16.3289   -5.7683  -23.1209 H   0  0  0  0  0  0  0  0  0  0  0  0
  1  2  1  0
  1  8  1  0
  1 21  1  0
  9  2  1  0
  3 11  2  0
  3 12  1  0
  4  5  1  0
  5  6  1  0
  6  7  2  0
  6  8  1  0
  9 10  1  0
  9 15  1  0
 10 11  1  0
 10 14  2  0
 12 13  2  0
 13 14  1  0
 15 16  2  0
 15 20  1  0
 16 17  1  0
 17 18  2  0
 18 19  1  0
 19 20  2  0
 21 22  2  0
 21 23  1  0
 23 24  2  0
 23 32  1  0
 24 25  1  0
 25 26  1  0
 25 27  2  0
 27 28  1  0
 27 30  1  0
 28 29  1  0
 30 31  1  0
 30 32  2  0
  2 33  1  0
  2 34  1  0
  3 35  1  0
  4 36  1  0
  4 37  1  0
  4 38  1  0
  5 39  1  0
  8 40  1  0
  8 41  1  0
  9 42  1  1
 11 43  1  0
 12 44  1  0
 13 45  1  0
 14 46  1  0
 16 47  1  0
 17 48  1  0
 18 49  1  0
 19 50  1  0
 20 51  1  0
 24 52  1  0
 26 53  1  0
 26 54  1  0
 26 55  1  0
 29 56  1  0
 29 57  1  0
 29 58  1  0
 31 59  1  0
 31 60  1  0
 31 61  1  0
 32 62  1  0
M  END
>  <filename_input>  (19) 
7OEO_V9Z_docked.sdf

>  <pdb_id>  (19) 
7OEO_V9Z

>  <pose_rank>  (19) 
18

>  <num_atoms_heavy>  (19) 
32

>  <num_torsions>  (19) 
8

>  <pose>  (19) 
[-17.69298134684518, -7.116590789244637, -21.091491726501918, -2.924961381671137, 0.3344950721977517, 1.5009272874217499, -5.234275083246618, -2.8836210164120373, -4.199349575014166, -7.363383891597255, -0.22598666634927717, 1.0281315701517648, -3.408082155189371, -4.111138865993456]

>  <energy>  (19) 
-497.5634049308451

>  <inter_energy>  (19) 
-593.8332027827568

>  <intra_energy>  (19) 
100.81971243597107

>  <rmsd>  (19) 
6.01417

>  <sdf_rank>  (19) 
0

$$$$

     RDKit          3D

 62 64  0  0  0  0  0  0  0  0999 V2000
  -16.8638   -8.9632  -22.2587 N   0  0  0  0  0  0  0  0  0  0  0  0
  -16.3063   -7.7005  -21.7765 C   0  0  0  0  0  0  0  0  0  0  0  0
  -13.8485   -8.0730  -17.6900 C   0  0  0  0  0  0  0  0  0  0  0  0
  -15.3426  -13.0956  -21.6767 C   0  0  0  0  0  0  0  0  0  0  0  0
  -16.2572  -11.9867  -21.8478 N   0  0  0  0  0  0  0  0  0  0  0  0
  -16.3386  -10.9932  -20.9754 C   0  0  0  0  0  0  0  0  0  0  0  0
  -15.6409  -10.9427  -19.9662 O   0  0  0  0  0  0  0  0  0  0  0  0
  -17.3516   -9.9002  -21.2644 C   0  0  0  0  0  0  0  0  0  0  0  0
  -16.5840   -7.4744  -20.2878 C   0  0  1  0  0  0  0  0  0  0  0  0
  -15.3125   -7.3283  -19.4534 C   0  0  0  0  0  0  0  0  0  0  0  0
  -15.0050   -8.2224  -18.4374 C   0  0  0  0  0  0  0  0  0  0  0  0
  -12.9886   -7.0323  -17.9447 C   0  0  0  0  0  0  0  0  0  0  0  0
  -13.2804   -6.1372  -18.9505 C   0  0  0  0  0  0  0  0  0  0  0  0
  -14.4341   -6.2826  -19.7001 C   0  0  0  0  0  0  0  0  0  0  0  0
  -17.5298   -6.2948  -20.0995 C   0  0  0  0  0  0  0  0  0  0  0  0
  -17.9344   -5.9052  -18.8305 C   0  0  0  0  0  0  0  0  0  0  0  0
  -18.7956   -4.8359  -18.6610 C   0  0  0  0  0  0  0  0  0  0  0  0
  -19.2673   -4.1443  -19.7558 C   0  0  0  0  0  0  0  0  0  0  0  0
  -18.8677   -4.5157  -21.0194 C   0  0  0  0  0  0  0  0  0  0  0  0
  -18.0047   -5.5835  -21.1926 C   0  0  0  0  0  0  0  0  0  0  0  0
  -16.9010   -9.3873  -23.5393 C   0  0  0  0  0  0  0  0  0  0  0  0
  -17.3613  -10.4736  -23.8392 O   0  0  0  0  0  0  0  0  0  0  0  0
  -16.3613   -8.5076  -24.6258 C   0  0  0  0  0  0  0  0  0  0  0  0
  -16.5433   -8.8430  -25.9656 C   0  0  0  0  0  0  0  0  0  0  0  0
  -16.0854   -8.0207  -26.9894 C   0  0  0  0  0  0  0  0  0  0  0  0
  -16.2774   -8.4240  -28.4307 C   0  0  0  0  0  0  0  0  0  0  0  0
  -15.4360   -6.8405  -26.6298 C   0  0  0  0  0  0  0  0  0  0  0  0
  -14.9809   -6.0053  -27.6246 O   0  0  0  0  0  0  0  0  0  0  0  0
  -15.9992   -5.1688  -28.1599 C   0  0  0  0  0  0  0  0  0  0  0  0
  -15.2474   -6.4612  -25.2947 C   0  0  0  0  0  0  0  0  0  0  0  0
  -14.5613   -5.1756  -24.9156 C   0  0  0  0  0  0  0  0  0  0  0  0
  -15.7338   -7.3105  -24.3071 C   0  0  0  0  0  0  0  0  0  0  0  0
  -15.2180   -7.7103  -21.9359 H   0  0  0  0  0  0  0  0  0  0  0  0
  -16.7866   -6.8845  -22.3364 H   0  0  0  0  0  0  0  0  0  0  0  0
  -13.6175   -8.7908  -16.8891 H   0  0  0  0  0  0  0  0  0  0  0  0
  -15.1890  -13.2820  -20.6036 H   0  0  0  0  0  0  0  0  0  0  0  0
  -15.7649  -13.9953  -22.1483 H   0  0  0  0  0  0  0  0  0  0  0  0
  -14.3791  -12.8524  -22.1483 H   0  0  0  0  0  0  0  0  0  0  0  0
  -16.8668  -11.9695  -22.6779 H   0  0  0  0  0  0  0  0  0  0  0  0
  -17.5616   -9.3540  -20.3330 H   0  0  0  0  0  0  0  0  0  0  0  0
  -18.2628  -10.3739  -21.6587 H   0  0  0  0  0  0  0  0  0  0  0  0
  -17.0772   -8.3813  -19.9080 H   0  0  0  0  0  0  0  0  0  0  0  0
  -15.6870   -9.0585  -18.2234 H   0  0  0  0  0  0  0  0  0  0  0  0
  -12.0717   -6.9143  -17.3486 H   0  0  0  0  0  0  0  0  0  0  0  0
  -12.5935   -5.3036  -19.1584 H   0  0  0  0  0  0  0  0  0  0  0  0
  -14.6575   -5.5617  -20.5003 H   0  0  0  0  0  0  0  0  0  0  0  0
  -17.5664   -6.4524  -17.9501 H   0  0  0  0  0  0  0  0  0  0  0  0
  -19.1049   -4.5365  -17.6488 H   0  0  0  0  0  0  0  0  0  0  0  0
  -19.9595   -3.3002  -19.6205 H   0  0  0  0  0  0  0  0  0  0  0  0
  -19.2358   -3.9613  -21.8953 H   0  0  0  0  0  0  0  0  0  0  0  0
  -17.6918   -5.8715  -22.2071 H   0  0  0  0  0  0  0  0  0  0  0  0
  -17.0610   -9.7798  -26.2195 H   0  0  0  0  0  0  0  0  0  0  0  0
  -16.7498   -9.4165  -28.4739 H   0  0  0  0  0  0  0  0  0  0  0  0
  -16.9221   -7.6888  -28.9344 H   0  0  0  0  0  0  0  0  0  0  0  0
  -15.3002   -8.4608  -28.9344 H   0  0  0  0  0  0  0  0  0  0  0  0
  -16.5633   -4.7054  -27.3370 H   0  0  0  0  0  0  0  0  0  0  0  0
  -15.5408   -4.3830  -28.7783 H   0  0  0  0  0  0  0  0  0  0  0  0
  -16.6810   -5.7710  -28.7783 H   0  0  0  0  0  0  0  0  0  0  0  0
  -14.5171   -5.0929  -23.8196 H   0  0  0  0  0  0  0  0  0  0  0  0
  -13.5404   -5.1703  -25.3252 H   0  0  0  0  0  0  0  0  0  0  0  0
  -15.1251   -4.3245  -25.3252 H   0  0  0  0  0  0  0  0  0  0  0  0
  -15.6192   -7.0279  -23.2503 H   0  0  0  0  0  0  0  0  0  0  0  0
  1  2  1  0
  1  8  1  0
  1 21  1  0
  9  2  1  0
  3 11  2  0
  3 12  1  0
  4  5  1  0
  5  6  1  0
  6  7  2  0
  6  8  1  0
  9 10  1  0
  9 15  1  0
 10 11  1  0
 10 14  2  0
 12 13  2  0
 13 14  1  0
 15 16  2  0
 15 20  1  0
 16 17  1  0
 17 18  2  0
 18 19  1  0
 19 20  2  0
 21 22  2  0
 21 23  1  0
 23 24  2  0
 23 32  1  0
 24 25  1  0
 25 26  1  0
 25 27  2  0
 27 28  1  0
 27 30  1  0
 28 29  1  0
 30 31  1  0
 30 32  2  0
  2 33  1  0
  2 34  1  0
  3 35  1  0
  4 36  1  0
  4 37  1  0
  4 38  1  0
  5 39  1  0
  8 40  1  0
  8 41  1  0
  9 42  1  1
 11 43  1  0
 12 44  1  0
 13 45  1  0
 14 46  1  0
 16 47  1  0
 17 48  1  0
 18 49  1  0
 19 50  1  0
 20 51  1  0
 24 52  1  0
 26 53  1  0
 26 54  1  0
 26 55  1  0
 29 56  1  0
 29 57  1  0
 29 58  1  0
 31 59  1  0
 31 60  1  0
 31 61  1  0
 32 62  1  0
M  END
>  <filename_input>  (20) 
7OEO_V9Z_docked.sdf

>  <pdb_id>  (20) 
7OEO_V9Z

>  <pose_rank>  (20) 
19

>  <num_atoms_heavy>  (20) 
32

>  <num_torsions>  (20) 
8

>  <pose>  (20) 
[-16.863846798654574, -8.963182347357492, -22.258704698781298, -3.2424870346072847, -1.8517794566281915, 0.3092699256398915, 1.9497043231839661, -0.11979039959027704, 1.0613589754634558, -0.7348547209738012, -2.4969071130658964, -1.8375762452843314, 0.002265364367138638, 1.6956930519483868]

>  <energy>  (20) 
-586.2998559830278

>  <inter_energy>  (20) 
-678.0372854372713

>  <intra_energy>  (20) 
93.13409000595396

>  <rmsd>  (20) 
6.96686

>  <sdf_rank>  (20) 
0

$$$$

     RDKit          3D

 62 64  0  0  0  0  0  0  0  0999 V2000
  -15.8530   -8.6629  -21.3493 N   0  0  0  0  0  0  0  0  0  0  0  0
  -16.5711   -7.4504  -20.9595 C   0  0  0  0  0  0  0  0  0  0  0  0
  -12.0504   -6.1746  -20.7318 C   0  0  0  0  0  0  0  0  0  0  0  0
  -17.4188  -11.4465  -18.5762 C   0  0  0  0  0  0  0  0  0  0  0  0
  -16.7573  -10.3591  -19.2657 N   0  0  0  0  0  0  0  0  0  0  0  0
  -15.5068  -10.4470  -19.6937 C   0  0  0  0  0  0  0  0  0  0  0  0
  -14.8262  -11.4573  -19.5395 O   0  0  0  0  0  0  0  0  0  0  0  0
  -14.9258   -9.2279  -20.3871 C   0  0  0  0  0  0  0  0  0  0  0  0
  -15.7709   -6.5932  -19.9750 C   0  0  1  0  0  0  0  0  0  0  0  0
  -14.4520   -6.0837  -20.5540 C   0  0  0  0  0  0  0  0  0  0  0  0
  -13.2364   -6.6509  -20.1979 C   0  0  0  0  0  0  0  0  0  0  0  0
  -12.0623   -5.1289  -21.6227 C   0  0  0  0  0  0  0  0  0  0  0  0
  -13.2615   -4.5562  -21.9859 C   0  0  0  0  0  0  0  0  0  0  0  0
  -14.4488   -5.0289  -21.4558 C   0  0  0  0  0  0  0  0  0  0  0  0
  -16.6350   -5.4591  -19.4376 C   0  0  0  0  0  0  0  0  0  0  0  0
  -16.5269   -5.0495  -18.1162 C   0  0  0  0  0  0  0  0  0  0  0  0
  -17.3142   -4.0217  -17.6287 C   0  0  0  0  0  0  0  0  0  0  0  0
  -18.2223   -3.3924  -18.4525 C   0  0  0  0  0  0  0  0  0  0  0  0
  -18.3339   -3.7838  -19.7672 C   0  0  0  0  0  0  0  0  0  0  0  0
  -17.5465   -4.8101  -20.2588 C   0  0  0  0  0  0  0  0  0  0  0  0
  -15.9027   -9.2738  -22.5516 C   0  0  0  0  0  0  0  0  0  0  0  0
  -15.2413  -10.2673  -22.7910 O   0  0  0  0  0  0  0  0  0  0  0  0
  -16.7886   -8.7209  -23.6263 C   0  0  0  0  0  0  0  0  0  0  0  0
  -16.4307   -7.5638  -24.3146 C   0  0  0  0  0  0  0  0  0  0  0  0
  -17.2185   -7.0562  -25.3421 C   0  0  0  0  0  0  0  0  0  0  0  0
  -16.8151   -5.7875  -26.0524 C   0  0  0  0  0  0  0  0  0  0  0  0
  -18.3849   -7.7483  -25.6653 C   0  0  0  0  0  0  0  0  0  0  0  0
  -19.1775   -7.2710  -26.6842 O   0  0  0  0  0  0  0  0  0  0  0  0
  -20.0656   -6.2421  -26.2649 C   0  0  0  0  0  0  0  0  0  0  0  0
  -18.7707   -8.9229  -25.0070 C   0  0  0  0  0  0  0  0  0  0  0  0
  -20.0227   -9.6741  -25.3752 C   0  0  0  0  0  0  0  0  0  0  0  0
  -17.9438   -9.3976  -23.9951 C   0  0  0  0  0  0  0  0  0  0  0  0
  -16.7763   -6.8551  -21.8614 H   0  0  0  0  0  0  0  0  0  0  0  0
  -17.5023   -7.7562  -20.4601 H   0  0  0  0  0  0  0  0  0  0  0  0
  -11.0949   -6.6357  -20.4412 H   0  0  0  0  0  0  0  0  0  0  0  0
  -17.3296  -11.2999  -17.4896 H   0  0  0  0  0  0  0  0  0  0  0  0
  -18.4821  -11.4662  -18.8574 H   0  0  0  0  0  0  0  0  0  0  0  0
  -16.9475  -12.3998  -18.8574 H   0  0  0  0  0  0  0  0  0  0  0  0
  -17.2778   -9.4855  -19.4295 H   0  0  0  0  0  0  0  0  0  0  0  0
  -14.0041   -9.5215  -20.9107 H   0  0  0  0  0  0  0  0  0  0  0  0
  -14.7198   -8.4649  -19.6220 H   0  0  0  0  0  0  0  0  0  0  0  0
  -15.4865   -7.2436  -19.1347 H   0  0  0  0  0  0  0  0  0  0  0  0
  -13.2146   -7.4876  -19.4841 H   0  0  0  0  0  0  0  0  0  0  0  0
  -11.1191   -4.7508  -22.0438 H   0  0  0  0  0  0  0  0  0  0  0  0
  -13.2751   -3.7198  -22.7002 H   0  0  0  0  0  0  0  0  0  0  0  0
  -15.4004   -4.5637  -21.7524 H   0  0  0  0  0  0  0  0  0  0  0  0
  -15.8076   -5.5473  -17.4492 H   0  0  0  0  0  0  0  0  0  0  0  0
  -17.2150   -3.7056  -16.5798 H   0  0  0  0  0  0  0  0  0  0  0  0
  -18.8545   -2.5816  -18.0613 H   0  0  0  0  0  0  0  0  0  0  0  0
  -19.0521   -3.2788  -20.4299 H   0  0  0  0  0  0  0  0  0  0  0  0
  -17.6441   -5.1148  -21.3113 H   0  0  0  0  0  0  0  0  0  0  0  0
  -15.5037   -7.0397  -24.0391 H   0  0  0  0  0  0  0  0  0  0  0  0
  -16.5692   -5.0140  -25.3100 H   0  0  0  0  0  0  0  0  0  0  0  0
  -15.9351   -5.9840  -26.6825 H   0  0  0  0  0  0  0  0  0  0  0  0
  -17.6470   -5.4397  -26.6825 H   0  0  0  0  0  0  0  0  0  0  0  0
  -20.0947   -6.2083  -25.1658 H   0  0  0  0  0  0  0  0  0  0  0  0
  -19.7144   -5.2743  -26.6524 H   0  0  0  0  0  0  0  0  0  0  0  0
  -21.0743   -6.4479  -26.6524 H   0  0  0  0  0  0  0  0  0  0  0  0
  -20.5449   -9.9875  -24.4592 H   0  0  0  0  0  0  0  0  0  0  0  0
  -20.6809   -9.0217  -25.9676 H   0  0  0  0  0  0  0  0  0  0  0  0
  -19.7567  -10.5620  -25.9676 H   0  0  0  0  0  0  0  0  0  0  0  0
  -18.2104  -10.3296  -23.4753 H   0  0  0  0  0  0  0  0  0  0  0  0
  1  2  1  0
  1  8  1  0
  1 21  1  0
  9  2  1  0
  3 11  2  0
  3 12  1  0
  4  5  1  0
  5  6  1  0
  6  7  2  0
  6  8  1  0
  9 10  1  0
  9 15  1  0
 10 11  1  0
 10 14  2  0
 12 13  2  0
 13 14  1  0
 15 16  2  0
 15 20  1  0
 16 17  1  0
 17 18  2  0
 18 19  1  0
 19 20  2  0
 21 22  2  0
 21 23  1  0
 23 24  2  0
 23 32  1  0
 24 25  1  0
 25 26  1  0
 25 27  2  0
 27 28  1  0
 27 30  1  0
 28 29  1  0
 30 31  1  0
 30 32  2  0
  2 33  1  0
  2 34  1  0
  3 35  1  0
  4 36  1  0
  4 37  1  0
  4 38  1  0
  5 39  1  0
  8 40  1  0
  8 41  1  0
  9 42  1  1
 11 43  1  0
 12 44  1  0
 13 45  1  0
 14 46  1  0
 16 47  1  0
 17 48  1  0
 18 49  1  0
 19 50  1  0
 20 51  1  0
 24 52  1  0
 26 53  1  0
 26 54  1  0
 26 55  1  0
 29 56  1  0
 29 57  1  0
 29 58  1  0
 31 59  1  0
 31 60  1  0
 31 61  1  0
 32 62  1  0
M  END
>  <filename_input>  (21) 
7OEO_V9Z_docked.sdf

>  <pdb_id>  (21) 
7OEO_V9Z

>  <pose_rank>  (21) 
20

>  <num_atoms_heavy>  (21) 
32

>  <num_torsions>  (21) 
8

>  <pose>  (21) 
[-15.852980514636027, -8.66288817303952, -21.34933950627828, 1.1595166131518155, 2.406002464711722, -0.31445160525949456, -0.032491793554297925, 3.289607044071808, 1.765830501070542, -1.752748099447461, 4.03652860052453, -2.4813607921399905, -2.749402988465455, -3.993822898520734]

>  <energy>  (21) 
-220.02304985511455

>  <inter_energy>  (21) 
-290.5837976732844

>  <intra_energy>  (21) 
61.026103535673656

>  <rmsd>  (21) 
6.93125

>  <sdf_rank>  (21) 
0

$$$$

     RDKit          3D

 62 64  0  0  0  0  0  0  0  0999 V2000
  -16.6311   -7.3180  -20.8513 N   0  0  0  0  0  0  0  0  0  0  0  0
  -17.1981   -8.3063  -21.7676 C   0  0  0  0  0  0  0  0  0  0  0  0
  -14.9537  -12.2798  -23.2964 C   0  0  0  0  0  0  0  0  0  0  0  0
  -13.7293   -8.7587  -17.3007 C   0  0  0  0  0  0  0  0  0  0  0  0
  -14.0564   -7.9720  -18.4711 N   0  0  0  0  0  0  0  0  0  0  0  0
  -14.9875   -8.3427  -19.3373 C   0  0  0  0  0  0  0  0  0  0  0  0
  -15.6393   -9.3748  -19.2040 O   0  0  0  0  0  0  0  0  0  0  0  0
  -15.2208   -7.4358  -20.5321 C   0  0  0  0  0  0  0  0  0  0  0  0
  -16.2177   -8.7000  -22.8757 C   0  0  1  0  0  0  0  0  0  0  0  0
  -16.1694  -10.2057  -23.1302 C   0  0  0  0  0  0  0  0  0  0  0  0
  -14.9785  -10.9152  -23.0608 C   0  0  0  0  0  0  0  0  0  0  0  0
  -16.1121  -12.9508  -23.6051 C   0  0  0  0  0  0  0  0  0  0  0  0
  -17.3018  -12.2598  -23.6770 C   0  0  0  0  0  0  0  0  0  0  0  0
  -17.3318  -10.8968  -23.4419 C   0  0  0  0  0  0  0  0  0  0  0  0
  -16.5138   -7.9147  -24.1475 C   0  0  0  0  0  0  0  0  0  0  0  0
  -17.8215   -7.6782  -24.5471 C   0  0  0  0  0  0  0  0  0  0  0  0
  -18.0890   -6.9677  -25.7036 C   0  0  0  0  0  0  0  0  0  0  0  0
  -17.0550   -6.4879  -26.4783 C   0  0  0  0  0  0  0  0  0  0  0  0
  -15.7536   -6.7089  -26.0890 C   0  0  0  0  0  0  0  0  0  0  0  0
  -15.4822   -7.4173  -24.9316 C   0  0  0  0  0  0  0  0  0  0  0  0
  -17.3049   -6.3451  -20.2026 C   0  0  0  0  0  0  0  0  0  0  0  0
  -16.7462   -5.5855  -19.4328 O   0  0  0  0  0  0  0  0  0  0  0  0
  -18.7785   -6.1904  -20.4264 C   0  0  0  0  0  0  0  0  0  0  0  0
  -19.6746   -6.3285  -19.3687 C   0  0  0  0  0  0  0  0  0  0  0  0
  -21.0422   -6.1497  -19.5467 C   0  0  0  0  0  0  0  0  0  0  0  0
  -21.9890   -6.3297  -18.3857 C   0  0  0  0  0  0  0  0  0  0  0  0
  -21.4910   -5.8232  -20.8258 C   0  0  0  0  0  0  0  0  0  0  0  0
  -22.8392   -5.6327  -21.0262 O   0  0  0  0  0  0  0  0  0  0  0  0
  -23.2525   -4.2906  -20.8001 C   0  0  0  0  0  0  0  0  0  0  0  0
  -20.6202   -5.6607  -21.9108 C   0  0  0  0  0  0  0  0  0  0  0  0
  -21.1118   -5.2897  -23.2848 C   0  0  0  0  0  0  0  0  0  0  0  0
  -19.2606   -5.8377  -21.6800 C   0  0  0  0  0  0  0  0  0  0  0  0
  -17.4657   -9.2068  -21.1954 H   0  0  0  0  0  0  0  0  0  0  0  0
  -18.0816   -7.8562  -22.2439 H   0  0  0  0  0  0  0  0  0  0  0  0
  -14.0024  -12.8288  -23.2360 H   0  0  0  0  0  0  0  0  0  0  0  0
  -13.9684   -8.1838  -16.3939 H   0  0  0  0  0  0  0  0  0  0  0  0
  -14.3148   -9.6899  -17.3094 H   0  0  0  0  0  0  0  0  0  0  0  0
  -12.6562   -9.0002  -17.3094 H   0  0  0  0  0  0  0  0  0  0  0  0
  -13.5468   -7.0923  -18.6362 H   0  0  0  0  0  0  0  0  0  0  0  0
  -14.6921   -7.8508  -21.4028 H   0  0  0  0  0  0  0  0  0  0  0  0
  -14.8422   -6.4342  -20.2804 H   0  0  0  0  0  0  0  0  0  0  0  0
  -15.2092   -8.4325  -22.5272 H   0  0  0  0  0  0  0  0  0  0  0  0
  -14.0446  -10.3881  -22.8161 H   0  0  0  0  0  0  0  0  0  0  0  0
  -16.0899  -14.0342  -23.7939 H   0  0  0  0  0  0  0  0  0  0  0  0
  -18.2316  -12.7940  -23.9224 H   0  0  0  0  0  0  0  0  0  0  0  0
  -18.2872  -10.3550  -23.5027 H   0  0  0  0  0  0  0  0  0  0  0  0
  -18.6542   -8.0597  -23.9380 H   0  0  0  0  0  0  0  0  0  0  0  0
  -19.1307   -6.7851  -26.0060 H   0  0  0  0  0  0  0  0  0  0  0  0
  -17.2688   -5.9312  -27.4026 H   0  0  0  0  0  0  0  0  0  0  0  0
  -14.9256   -6.3208  -26.7004 H   0  0  0  0  0  0  0  0  0  0  0  0
  -14.4383   -7.5880  -24.6300 H   0  0  0  0  0  0  0  0  0  0  0  0
  -19.2916   -6.5849  -18.3699 H   0  0  0  0  0  0  0  0  0  0  0  0
  -21.4351   -6.2244  -17.4411 H   0  0  0  0  0  0  0  0  0  0  0  0
  -22.7787   -5.5656  -18.4347 H   0  0  0  0  0  0  0  0  0  0  0  0
  -22.4433   -7.3303  -18.4347 H   0  0  0  0  0  0  0  0  0  0  0  0
  -23.3106   -4.1022  -19.7179 H   0  0  0  0  0  0  0  0  0  0  0  0
  -22.5250   -3.6015  -21.2537 H   0  0  0  0  0  0  0  0  0  0  0  0
  -24.2417   -4.1302  -21.2537 H   0  0  0  0  0  0  0  0  0  0  0  0
  -21.9870   -4.6293  -23.1952 H   0  0  0  0  0  0  0  0  0  0  0  0
  -20.3129   -4.7674  -23.8315 H   0  0  0  0  0  0  0  0  0  0  0  0
  -21.3948   -6.2013  -23.8315 H   0  0  0  0  0  0  0  0  0  0  0  0
  -18.5513   -5.6953  -22.5086 H   0  0  0  0  0  0  0  0  0  0  0  0
  1  2  1  0
  1  8  1  0
  1 21  1  0
  9  2  1  0
  3 11  2  0
  3 12  1  0
  4  5  1  0
  5  6  1  0
  6  7  2  0
  6  8  1  0
  9 10  1  0
  9 15  1  0
 10 11  1  0
 10 14  2  0
 12 13  2  0
 13 14  1  0
 15 16  2  0
 15 20  1  0
 16 17  1  0
 17 18  2  0
 18 19  1  0
 19 20  2  0
 21 22  2  0
 21 23  1  0
 23 24  2  0
 23 32  1  0
 24 25  1  0
 25 26  1  0
 25 27  2  0
 27 28  1  0
 27 30  1  0
 28 29  1  0
 30 31  1  0
 30 32  2  0
  2 33  1  0
  2 34  1  0
  3 35  1  0
  4 36  1  0
  4 37  1  0
  4 38  1  0
  5 39  1  0
  8 40  1  0
  8 41  1  0
  9 42  1  1
 11 43  1  0
 12 44  1  0
 13 45  1  0
 14 46  1  0
 16 47  1  0
 17 48  1  0
 18 49  1  0
 19 50  1  0
 20 51  1  0
 24 52  1  0
 26 53  1  0
 26 54  1  0
 26 55  1  0
 29 56  1  0
 29 57  1  0
 29 58  1  0
 31 59  1  0
 31 60  1  0
 31 61  1  0
 32 62  1  0
M  END
>  <filename_input>  (22) 
7OEO_V9Z_docked.sdf

>  <pdb_id>  (22) 
7OEO_V9Z

>  <pose_rank>  (22) 
21

>  <num_atoms_heavy>  (22) 
32

>  <num_torsions>  (22) 
8

>  <pose>  (22) 
[-16.631098880792287, -7.317958439744217, -20.851331326210147, -0.5631929272239473, 1.0440563166423718, 3.0954729476445575, 7.023122265885565, 0.006502981513617186, -11.952589317136898, -0.4678906306402132, -2.598707645349118, 0.6117954532505135, 0.19156725321630438, 0.628256605980296]

>  <energy>  (22) 
-609.0617229217356

>  <inter_energy>  (22) 
-625.6414347654489

>  <intra_energy>  (22) 
31.69964791417722

>  <rmsd>  (22) 
5.39106

>  <sdf_rank>  (22) 
0

$$$$

     RDKit          3D

 62 64  0  0  0  0  0  0  0  0999 V2000
  -18.0592   -7.8275  -23.5177 N   0  0  0  0  0  0  0  0  0  0  0  0
  -17.6224   -8.0917  -22.1475 C   0  0  0  0  0  0  0  0  0  0  0  0
  -14.5992   -7.4529  -18.9464 C   0  0  0  0  0  0  0  0  0  0  0  0
  -15.6647   -6.5065  -27.4933 C   0  0  0  0  0  0  0  0  0  0  0  0
  -16.3584   -7.4641  -26.6583 N   0  0  0  0  0  0  0  0  0  0  0  0
  -16.5201   -7.2836  -25.3560 C   0  0  0  0  0  0  0  0  0  0  0  0
  -16.0978   -6.2906  -24.7701 O   0  0  0  0  0  0  0  0  0  0  0  0
  -17.2515   -8.3729  -24.5923 C   0  0  0  0  0  0  0  0  0  0  0  0
  -16.2740   -8.8150  -22.0975 C   0  0  1  0  0  0  0  0  0  0  0  0
  -15.5948   -8.7293  -20.7316 C   0  0  0  0  0  0  0  0  0  0  0  0
  -15.2155   -7.5111  -20.1854 C   0  0  0  0  0  0  0  0  0  0  0  0
  -14.3525   -8.6054  -18.2405 C   0  0  0  0  0  0  0  0  0  0  0  0
  -14.7239   -9.8219  -18.7698 C   0  0  0  0  0  0  0  0  0  0  0  0
  -15.3404   -9.8850  -20.0068 C   0  0  0  0  0  0  0  0  0  0  0  0
  -16.4288  -10.2556  -22.5693 C   0  0  0  0  0  0  0  0  0  0  0  0
  -15.3161  -11.0225  -22.8848 C   0  0  0  0  0  0  0  0  0  0  0  0
  -15.4582  -12.3293  -23.3159 C   0  0  0  0  0  0  0  0  0  0  0  0
  -16.7126  -12.8862  -23.4417 C   0  0  0  0  0  0  0  0  0  0  0  0
  -17.8239  -12.1389  -23.1246 C   0  0  0  0  0  0  0  0  0  0  0  0
  -17.6855  -10.8320  -22.6910 C   0  0  0  0  0  0  0  0  0  0  0  0
  -19.1005   -7.0559  -23.8937 C   0  0  0  0  0  0  0  0  0  0  0  0
  -19.3680   -6.8716  -25.0669 O   0  0  0  0  0  0  0  0  0  0  0  0
  -19.9525   -6.4026  -22.8483 C   0  0  0  0  0  0  0  0  0  0  0  0
  -19.3694   -5.7041  -21.7934 C   0  0  0  0  0  0  0  0  0  0  0  0
  -20.1420   -5.0570  -20.8350 C   0  0  0  0  0  0  0  0  0  0  0  0
  -19.4800   -4.3287  -19.6912 C   0  0  0  0  0  0  0  0  0  0  0  0
  -21.5283   -5.1281  -20.9657 C   0  0  0  0  0  0  0  0  0  0  0  0
  -22.3151   -4.4889  -20.0347 O   0  0  0  0  0  0  0  0  0  0  0  0
  -23.0113   -5.3885  -19.1808 C   0  0  0  0  0  0  0  0  0  0  0  0
  -22.1516   -5.8074  -22.0202 C   0  0  0  0  0  0  0  0  0  0  0  0
  -23.6494   -5.8634  -22.1639 C   0  0  0  0  0  0  0  0  0  0  0  0
  -21.3364   -6.4280  -22.9601 C   0  0  0  0  0  0  0  0  0  0  0  0
  -17.5302   -7.1338  -21.6146 H   0  0  0  0  0  0  0  0  0  0  0  0
  -18.3720   -8.7434  -21.6747 H   0  0  0  0  0  0  0  0  0  0  0  0
  -14.3059   -6.4797  -18.5258 H   0  0  0  0  0  0  0  0  0  0  0  0
  -15.1380   -5.7795  -26.8577 H   0  0  0  0  0  0  0  0  0  0  0  0
  -14.9371   -7.0331  -28.1284 H   0  0  0  0  0  0  0  0  0  0  0  0
  -16.3918   -5.9793  -28.1284 H   0  0  0  0  0  0  0  0  0  0  0  0
  -16.7401   -8.3166  -27.0924 H   0  0  0  0  0  0  0  0  0  0  0  0
  -16.5120   -9.0664  -24.1654 H   0  0  0  0  0  0  0  0  0  0  0  0
  -17.9211   -8.8919  -25.2940 H   0  0  0  0  0  0  0  0  0  0  0  0
  -15.5987   -8.2916  -22.7903 H   0  0  0  0  0  0  0  0  0  0  0  0
  -15.4064   -6.5819  -20.7424 H   0  0  0  0  0  0  0  0  0  0  0  0
  -13.8610   -8.5571  -17.2576 H   0  0  0  0  0  0  0  0  0  0  0  0
  -14.5295  -10.7466  -18.2068 H   0  0  0  0  0  0  0  0  0  0  0  0
  -15.6320  -10.8618  -20.4201 H   0  0  0  0  0  0  0  0  0  0  0  0
  -14.3105  -10.5866  -22.7911 H   0  0  0  0  0  0  0  0  0  0  0  0
  -14.5668  -12.9261  -23.5591 H   0  0  0  0  0  0  0  0  0  0  0  0
  -16.8249  -13.9223  -23.7936 H   0  0  0  0  0  0  0  0  0  0  0  0
  -18.8264  -12.5822  -23.2162 H   0  0  0  0  0  0  0  0  0  0  0  0
  -18.5807  -10.2440  -22.4402 H   0  0  0  0  0  0  0  0  0  0  0  0
  -18.2729   -5.6634  -21.7167 H   0  0  0  0  0  0  0  0  0  0  0  0
  -19.8479   -4.7335  -18.7368 H   0  0  0  0  0  0  0  0  0  0  0  0
  -18.3902   -4.4649  -19.7515 H   0  0  0  0  0  0  0  0  0  0  0  0
  -19.7195   -3.2568  -19.7515 H   0  0  0  0  0  0  0  0  0  0  0  0
  -22.8097   -5.1280  -18.1313 H   0  0  0  0  0  0  0  0  0  0  0  0
  -24.0915   -5.3169  -19.3754 H   0  0  0  0  0  0  0  0  0  0  0  0
  -22.6710   -6.4163  -19.3754 H   0  0  0  0  0  0  0  0  0  0  0  0
  -24.1130   -5.8807  -21.1665 H   0  0  0  0  0  0  0  0  0  0  0  0
  -23.9982   -4.9776  -22.7150 H   0  0  0  0  0  0  0  0  0  0  0  0
  -23.9311   -6.7727  -22.7150 H   0  0  0  0  0  0  0  0  0  0  0  0
  -21.7978   -6.9506  -23.8110 H   0  0  0  0  0  0  0  0  0  0  0  0
  1  2  1  0
  1  8  1  0
  1 21  1  0
  9  2  1  0
  3 11  2  0
  3 12  1  0
  4  5  1  0
  5  6  1  0
  6  7  2  0
  6  8  1  0
  9 10  1  0
  9 15  1  0
 10 11  1  0
 10 14  2  0
 12 13  2  0
 13 14  1  0
 15 16  2  0
 15 20  1  0
 16 17  1  0
 17 18  2  0
 18 19  1  0
 19 20  2  0
 21 22  2  0
 21 23  1  0
 23 24  2  0
 23 32  1  0
 24 25  1  0
 25 26  1  0
 25 27  2  0
 27 28  1  0
 27 30  1  0
 28 29  1  0
 30 31  1  0
 30 32  2  0
  2 33  1  0
  2 34  1  0
  3 35  1  0
  4 36  1  0
  4 37  1  0
  4 38  1  0
  5 39  1  0
  8 40  1  0
  8 41  1  0
  9 42  1  6
 11 43  1  0
 12 44  1  0
 13 45  1  0
 14 46  1  0
 16 47  1  0
 17 48  1  0
 18 49  1  0
 19 50  1  0
 20 51  1  0
 24 52  1  0
 26 53  1  0
 26 54  1  0
 26 55  1  0
 29 56  1  0
 29 57  1  0
 29 58  1  0
 31 59  1  0
 31 60  1  0
 31 61  1  0
 32 62  1  0
M  END
>  <filename_input>  (23) 
7OEO_V9Z_docked.sdf

>  <pdb_id>  (23) 
7OEO_V9Z

>  <pose_rank>  (23) 
22

>  <num_atoms_heavy>  (23) 
32

>  <num_torsions>  (23) 
8

>  <pose>  (23) 
[-18.05917760475677, -7.8275387258282105, -23.517680982890308, 1.8522379662372477, 3.5129481767051893, 1.1196208258308191, -0.49552937640006817, -3.456785271325312, 1.348435439805333, -0.0008859698647330633, 4.766461671312511, 4.211212162913077, -0.18947210306016027, -5.740800471194963]

>  <energy>  (23) 
-429.5554427405407

>  <inter_energy>  (23) 
-545.3235409413222

>  <intra_energy>  (23) 
119.80462526401071

>  <rmsd>  (23) 
6.18115

>  <sdf_rank>  (23) 
0

$$$$

     RDKit          3D

 62 64  0  0  0  0  0  0  0  0999 V2000
  -18.2821   -6.4159  -21.0769 N   0  0  0  0  0  0  0  0  0  0  0  0
  -18.2469   -5.8694  -22.4326 C   0  0  0  0  0  0  0  0  0  0  0  0
  -21.5718   -7.6676  -25.6422 C   0  0  0  0  0  0  0  0  0  0  0  0
  -14.1571   -5.2267  -19.7986 C   0  0  0  0  0  0  0  0  0  0  0  0
  -15.2166   -5.9311  -20.4892 N   0  0  0  0  0  0  0  0  0  0  0  0
  -16.1626   -6.5977  -19.8447 C   0  0  0  0  0  0  0  0  0  0  0  0
  -16.2082   -6.6592  -18.6192 O   0  0  0  0  0  0  0  0  0  0  0  0
  -17.2057   -7.3077  -20.6888 C   0  0  0  0  0  0  0  0  0  0  0  0
  -18.4961   -6.9414  -23.4971 C   0  0  1  0  0  0  0  0  0  0  0  0
  -19.8754   -6.8369  -24.1458 C   0  0  0  0  0  0  0  0  0  0  0  0
  -20.3188   -7.7796  -25.0629 C   0  0  0  0  0  0  0  0  0  0  0  0
  -22.3942   -6.6163  -25.3167 C   0  0  0  0  0  0  0  0  0  0  0  0
  -21.9678   -5.6732  -24.4075 C   0  0  0  0  0  0  0  0  0  0  0  0
  -20.7172   -5.7811  -23.8257 C   0  0  0  0  0  0  0  0  0  0  0  0
  -17.3763   -6.9309  -24.5304 C   0  0  0  0  0  0  0  0  0  0  0  0
  -16.3216   -6.0353  -24.4247 C   0  0  0  0  0  0  0  0  0  0  0  0
  -15.3071   -6.0247  -25.3653 C   0  0  0  0  0  0  0  0  0  0  0  0
  -15.3344   -6.9048  -26.4255 C   0  0  0  0  0  0  0  0  0  0  0  0
  -16.3709   -7.8033  -26.5377 C   0  0  0  0  0  0  0  0  0  0  0  0
  -17.3862   -7.8182  -25.5976 C   0  0  0  0  0  0  0  0  0  0  0  0
  -19.2616   -6.2395  -20.1654 C   0  0  0  0  0  0  0  0  0  0  0  0
  -19.2141   -6.7632  -19.0675 O   0  0  0  0  0  0  0  0  0  0  0  0
  -20.4427   -5.3823  -20.5053 C   0  0  0  0  0  0  0  0  0  0  0  0
  -21.6101   -5.9513  -21.0093 C   0  0  0  0  0  0  0  0  0  0  0  0
  -22.7311   -5.1790  -21.2936 C   0  0  0  0  0  0  0  0  0  0  0  0
  -23.9725   -5.8223  -21.8610 C   0  0  0  0  0  0  0  0  0  0  0  0
  -22.6498   -3.8077  -21.0544 C   0  0  0  0  0  0  0  0  0  0  0  0
  -23.7486   -3.0227  -21.3197 O   0  0  0  0  0  0  0  0  0  0  0  0
  -24.5823   -2.8280  -20.1839 C   0  0  0  0  0  0  0  0  0  0  0  0
  -21.4995   -3.2009  -20.5343 C   0  0  0  0  0  0  0  0  0  0  0  0
  -21.4267   -1.7219  -20.2616 C   0  0  0  0  0  0  0  0  0  0  0  0
  -20.4090   -4.0169  -20.2545 C   0  0  0  0  0  0  0  0  0  0  0  0
  -19.0228   -5.0948  -22.5222 H   0  0  0  0  0  0  0  0  0  0  0  0
  -17.2429   -5.4533  -22.6022 H   0  0  0  0  0  0  0  0  0  0  0  0
  -21.9100   -8.4236  -26.3662 H   0  0  0  0  0  0  0  0  0  0  0  0
  -14.3007   -5.3221  -18.7122 H   0  0  0  0  0  0  0  0  0  0  0  0
  -13.1855   -5.6592  -20.0794 H   0  0  0  0  0  0  0  0  0  0  0  0
  -14.1800   -4.1634  -20.0794 H   0  0  0  0  0  0  0  0  0  0  0  0
  -15.2355   -5.9132  -21.5188 H   0  0  0  0  0  0  0  0  0  0  0  0
  -17.6262   -8.1418  -20.1079 H   0  0  0  0  0  0  0  0  0  0  0  0
  -16.7156   -7.6710  -21.6041 H   0  0  0  0  0  0  0  0  0  0  0  0
  -18.4895   -7.9150  -22.9853 H   0  0  0  0  0  0  0  0  0  0  0  0
  -19.6682   -8.6246  -25.3324 H   0  0  0  0  0  0  0  0  0  0  0  0
  -23.3882   -6.5281  -25.7796 H   0  0  0  0  0  0  0  0  0  0  0  0
  -22.6241   -4.8310  -24.1432 H   0  0  0  0  0  0  0  0  0  0  0  0
  -20.3867   -5.0219  -23.1015 H   0  0  0  0  0  0  0  0  0  0  0  0
  -16.2918   -5.3263  -23.5842 H   0  0  0  0  0  0  0  0  0  0  0  0
  -14.4757   -5.3113  -25.2666 H   0  0  0  0  0  0  0  0  0  0  0  0
  -14.5322   -6.8892  -27.1780 H   0  0  0  0  0  0  0  0  0  0  0  0
  -16.3922   -8.5126  -27.3782 H   0  0  0  0  0  0  0  0  0  0  0  0
  -18.2097   -8.5407  -25.6971 H   0  0  0  0  0  0  0  0  0  0  0  0
  -21.6461   -7.0363  -21.1863 H   0  0  0  0  0  0  0  0  0  0  0  0
  -24.6204   -6.1580  -21.0378 H   0  0  0  0  0  0  0  0  0  0  0  0
  -24.5144   -5.0915  -22.4793 H   0  0  0  0  0  0  0  0  0  0  0  0
  -23.6879   -6.6864  -22.4793 H   0  0  0  0  0  0  0  0  0  0  0  0
  -23.9908   -2.9661  -19.2668 H   0  0  0  0  0  0  0  0  0  0  0  0
  -24.9963   -1.8090  -20.2032 H   0  0  0  0  0  0  0  0  0  0  0  0
  -25.4048   -3.5582  -20.2032 H   0  0  0  0  0  0  0  0  0  0  0  0
  -21.4182   -1.5493  -19.1752 H   0  0  0  0  0  0  0  0  0  0  0  0
  -20.5073   -1.3120  -20.7051 H   0  0  0  0  0  0  0  0  0  0  0  0
  -22.3015   -1.2238  -20.7051 H   0  0  0  0  0  0  0  0  0  0  0  0
  -19.4997   -3.5711  -19.8251 H   0  0  0  0  0  0  0  0  0  0  0  0
  1  2  1  0
  1  8  1  0
  1 21  1  0
  9  2  1  0
  3 11  2  0
  3 12  1  0
  4  5  1  0
  5  6  1  0
  6  7  2  0
  6  8  1  0
  9 10  1  0
  9 15  1  0
 10 11  1  0
 10 14  2  0
 12 13  2  0
 13 14  1  0
 15 16  2  0
 15 20  1  0
 16 17  1  0
 17 18  2  0
 18 19  1  0
 19 20  2  0
 21 22  2  0
 21 23  1  0
 23 24  2  0
 23 32  1  0
 24 25  1  0
 25 26  1  0
 25 27  2  0
 27 28  1  0
 27 30  1  0
 28 29  1  0
 30 31  1  0
 30 32  2  0
  2 33  1  0
  2 34  1  0
  3 35  1  0
  4 36  1  0
  4 37  1  0
  4 38  1  0
  5 39  1  0
  8 40  1  0
  8 41  1  0
  9 42  1  1
 11 43  1  0
 12 44  1  0
 13 45  1  0
 14 46  1  0
 16 47  1  0
 17 48  1  0
 18 49  1  0
 19 50  1  0
 20 51  1  0
 24 52  1  0
 26 53  1  0
 26 54  1  0
 26 55  1  0
 29 56  1  0
 29 57  1  0
 29 58  1  0
 31 59  1  0
 31 60  1  0
 31 61  1  0
 32 62  1  0
M  END
>  <filename_input>  (24) 
7OEO_V9Z_docked.sdf

>  <pdb_id>  (24) 
7OEO_V9Z

>  <pose_rank>  (24) 
23

>  <num_atoms_heavy>  (24) 
32

>  <num_torsions>  (24) 
8

>  <pose>  (24) 
[-18.28212621968118, -6.4159082693140554, -21.0769098201961, -1.038490250528052, -0.5484589744960516, 2.5000131835717148, 0.3123441977757657, 0.09177894090841239, 2.454648797392454, -0.9697907175096236, -3.4927553253765162, 1.315322628699841, 3.4941240874893063, 1.6003330193922964]

>  <energy>  (24) 
-439.41128537688104

>  <inter_energy>  (24) 
-546.0871906846222

>  <intra_energy>  (24) 
100.09931083262238

>  <rmsd>  (24) 
6.16515

>  <sdf_rank>  (24) 
0

$$$$

     RDKit          3D

 62 64  0  0  0  0  0  0  0  0999 V2000
  -18.3143   -7.5565  -22.9770 N   0  0  0  0  0  0  0  0  0  0  0  0
  -17.4526   -6.8207  -22.0529 C   0  0  0  0  0  0  0  0  0  0  0  0
  -14.9559  -10.2732  -23.1436 C   0  0  0  0  0  0  0  0  0  0  0  0
  -16.0306   -6.3004  -26.4580 C   0  0  0  0  0  0  0  0  0  0  0  0
  -16.4245   -6.9658  -25.2342 N   0  0  0  0  0  0  0  0  0  0  0  0
  -17.3474   -7.9156  -25.2086 C   0  0  0  0  0  0  0  0  0  0  0  0
  -17.9271   -8.2996  -26.2207 O   0  0  0  0  0  0  0  0  0  0  0  0
  -17.6802   -8.5204  -23.8566 C   0  0  0  0  0  0  0  0  0  0  0  0
  -16.8273   -7.7313  -20.9927 C   0  0  1  0  0  0  0  0  0  0  0  0
  -16.3002   -9.0467  -21.5636 C   0  0  0  0  0  0  0  0  0  0  0  0
  -15.4220   -9.0708  -22.6381 C   0  0  0  0  0  0  0  0  0  0  0  0
  -15.3603  -11.4622  -22.5867 C   0  0  0  0  0  0  0  0  0  0  0  0
  -16.2313  -11.4538  -21.5193 C   0  0  0  0  0  0  0  0  0  0  0  0
  -16.6991  -10.2554  -21.0105 C   0  0  0  0  0  0  0  0  0  0  0  0
  -15.7573   -6.9774  -20.2126 C   0  0  0  0  0  0  0  0  0  0  0  0
  -15.0416   -5.9464  -20.8046 C   0  0  0  0  0  0  0  0  0  0  0  0
  -14.0683   -5.2648  -20.0961 C   0  0  0  0  0  0  0  0  0  0  0  0
  -13.7938   -5.6061  -18.7894 C   0  0  0  0  0  0  0  0  0  0  0  0
  -14.5018   -6.6217  -18.1881 C   0  0  0  0  0  0  0  0  0  0  0  0
  -15.4776   -7.3043  -18.8930 C   0  0  0  0  0  0  0  0  0  0  0  0
  -19.6397   -7.3757  -23.1554 C   0  0  0  0  0  0  0  0  0  0  0  0
  -20.2676   -8.0205  -23.9750 O   0  0  0  0  0  0  0  0  0  0  0  0
  -20.3646   -6.3556  -22.3312 C   0  0  0  0  0  0  0  0  0  0  0  0
  -21.2196   -5.4352  -22.9333 C   0  0  0  0  0  0  0  0  0  0  0  0
  -21.9323   -4.5062  -22.1829 C   0  0  0  0  0  0  0  0  0  0  0  0
  -22.8323   -3.5070  -22.8673 C   0  0  0  0  0  0  0  0  0  0  0  0
  -21.7646   -4.5269  -20.7989 C   0  0  0  0  0  0  0  0  0  0  0  0
  -22.4654   -3.6232  -20.0331 O   0  0  0  0  0  0  0  0  0  0  0  0
  -23.7522   -4.0944  -19.6521 C   0  0  0  0  0  0  0  0  0  0  0  0
  -20.9263   -5.4463  -20.1554 C   0  0  0  0  0  0  0  0  0  0  0  0
  -20.7654   -5.4736  -18.6586 C   0  0  0  0  0  0  0  0  0  0  0  0
  -20.2445   -6.3632  -20.9477 C   0  0  0  0  0  0  0  0  0  0  0  0
  -16.6465   -6.3405  -22.6270 H   0  0  0  0  0  0  0  0  0  0  0  0
  -18.0739   -6.0762  -21.5335 H   0  0  0  0  0  0  0  0  0  0  0  0
  -14.2589  -10.2761  -23.9946 H   0  0  0  0  0  0  0  0  0  0  0  0
  -15.4841   -5.3775  -26.2140 H   0  0  0  0  0  0  0  0  0  0  0  0
  -15.3813   -6.9667  -27.0449 H   0  0  0  0  0  0  0  0  0  0  0  0
  -16.9270   -6.0515  -27.0449 H   0  0  0  0  0  0  0  0  0  0  0  0
  -15.9708   -6.6906  -24.3514 H   0  0  0  0  0  0  0  0  0  0  0  0
  -16.7509   -8.8742  -23.3863 H   0  0  0  0  0  0  0  0  0  0  0  0
  -18.3831   -9.3512  -24.0171 H   0  0  0  0  0  0  0  0  0  0  0  0
  -17.6295   -8.0182  -20.2969 H   0  0  0  0  0  0  0  0  0  0  0  0
  -15.0928   -8.1250  -23.0932 H   0  0  0  0  0  0  0  0  0  0  0  0
  -14.9906  -12.4160  -22.9910 H   0  0  0  0  0  0  0  0  0  0  0  0
  -16.5560  -12.4038  -21.0697 H   0  0  0  0  0  0  0  0  0  0  0  0
  -17.3948  -10.2605  -20.1584 H   0  0  0  0  0  0  0  0  0  0  0  0
  -15.2504   -5.6682  -21.8481 H   0  0  0  0  0  0  0  0  0  0  0  0
  -13.5114   -4.4474  -20.5775 H   0  0  0  0  0  0  0  0  0  0  0  0
  -13.0131   -5.0698  -18.2300 H   0  0  0  0  0  0  0  0  0  0  0  0
  -14.2912   -6.8919  -17.1428 H   0  0  0  0  0  0  0  0  0  0  0  0
  -16.0374   -8.1142  -18.4024 H   0  0  0  0  0  0  0  0  0  0  0  0
  -21.3336   -5.4434  -24.0273 H   0  0  0  0  0  0  0  0  0  0  0  0
  -23.3659   -2.9147  -22.1094 H   0  0  0  0  0  0  0  0  0  0  0  0
  -22.2263   -2.8379  -23.4958 H   0  0  0  0  0  0  0  0  0  0  0  0
  -23.5609   -4.0401  -23.4958 H   0  0  0  0  0  0  0  0  0  0  0  0
  -23.8230   -4.1204  -18.5547 H   0  0  0  0  0  0  0  0  0  0  0  0
  -24.5232   -3.4203  -20.0534 H   0  0  0  0  0  0  0  0  0  0  0  0
  -23.9055   -5.1070  -20.0534 H   0  0  0  0  0  0  0  0  0  0  0  0
  -21.7427   -5.3078  -18.1817 H   0  0  0  0  0  0  0  0  0  0  0  0
  -20.3683   -6.4520  -18.3503 H   0  0  0  0  0  0  0  0  0  0  0  0
  -20.0678   -4.6810  -18.3503 H   0  0  0  0  0  0  0  0  0  0  0  0
  -19.5958   -7.1110  -20.4682 H   0  0  0  0  0  0  0  0  0  0  0  0
  1  2  1  0
  1  8  1  0
  1 21  1  0
  9  2  1  0
  3 11  2  0
  3 12  1  0
  4  5  1  0
  5  6  1  0
  6  7  2  0
  6  8  1  0
  9 10  1  0
  9 15  1  0
 10 11  1  0
 10 14  2  0
 12 13  2  0
 13 14  1  0
 15 16  2  0
 15 20  1  0
 16 17  1  0
 17 18  2  0
 18 19  1  0
 19 20  2  0
 21 22  2  0
 21 23  1  0
 23 24  2  0
 23 32  1  0
 24 25  1  0
 25 26  1  0
 25 27  2  0
 27 28  1  0
 27 30  1  0
 28 29  1  0
 30 31  1  0
 30 32  2  0
  2 33  1  0
  2 34  1  0
  3 35  1  0
  4 36  1  0
  4 37  1  0
  4 38  1  0
  5 39  1  0
  8 40  1  0
  8 41  1  0
  9 42  1  1
 11 43  1  0
 12 44  1  0
 13 45  1  0
 14 46  1  0
 16 47  1  0
 17 48  1  0
 18 49  1  0
 19 50  1  0
 20 51  1  0
 24 52  1  0
 26 53  1  0
 26 54  1  0
 26 55  1  0
 29 56  1  0
 29 57  1  0
 29 58  1  0
 31 59  1  0
 31 60  1  0
 31 61  1  0
 32 62  1  0
M  END
>  <filename_input>  (25) 
7OEO_V9Z_docked.sdf

>  <pdb_id>  (25) 
7OEO_V9Z

>  <pose_rank>  (25) 
24

>  <num_atoms_heavy>  (25) 
32

>  <num_torsions>  (25) 
8

>  <pose>  (25) 
[-18.31427724234613, -7.5565482395050045, -22.976996395866696, 2.1264457259893184, 3.5121323884938676, -0.809461602104268, 0.9595219794579154, -0.0017654876562588576, 6.378127316426109, -2.0751791238221484, 6.771667344456202, 7.086996619098307, 0.08937937147869715, 4.236826542296338]

>  <energy>  (25) 
-496.9966299800244

>  <inter_energy>  (25) 
-628.3434711555142

>  <intra_energy>  (25) 
134.58238297768284

>  <rmsd>  (25) 
6.25634

>  <sdf_rank>  (25) 
0

$$$$

     RDKit          3D

 62 64  0  0  0  0  0  0  0  0999 V2000
  -18.4510   -6.6480  -21.9140 N   0  0  0  0  0  0  0  0  0  0  0  0
  -17.4220   -6.4620  -22.9360 C   0  0  0  0  0  0  0  0  0  0  0  0
  -15.0210   -5.8470  -26.4300 C   0  0  0  0  0  0  0  0  0  0  0  0
  -21.9000   -3.2150  -21.4580 C   0  0  0  0  0  0  0  0  0  0  0  0
  -21.4280   -4.5060  -21.9120 N   0  0  0  0  0  0  0  0  0  0  0  0
  -20.1820   -4.9130  -21.7210 C   0  0  0  0  0  0  0  0  0  0  0  0
  -19.3450   -4.2260  -21.1420 O   0  0  0  0  0  0  0  0  0  0  0  0
  -19.8110   -6.2820  -22.2620 C   0  0  0  0  0  0  0  0  0  0  0  0
  -17.5390   -7.4840  -24.0700 C   0  0  1  0  0  0  0  0  0  0  0  0
  -16.7800   -7.0740  -25.3310 C   0  0  0  0  0  0  0  0  0  0  0  0
  -15.6960   -6.2090  -25.2760 C   0  0  0  0  0  0  0  0  0  0  0  0
  -15.4190   -6.3400  -27.6490 C   0  0  0  0  0  0  0  0  0  0  0  0
  -16.4930   -7.2000  -27.7190 C   0  0  0  0  0  0  0  0  0  0  0  0
  -17.1700   -7.5650  -26.5690 C   0  0  0  0  0  0  0  0  0  0  0  0
  -17.1280   -8.8670  -23.5800 C   0  0  0  0  0  0  0  0  0  0  0  0
  -15.7910   -9.1810  -23.3810 C   0  0  0  0  0  0  0  0  0  0  0  0
  -15.4190  -10.4380  -22.9390 C   0  0  0  0  0  0  0  0  0  0  0  0
  -16.3760  -11.3990  -22.6940 C   0  0  0  0  0  0  0  0  0  0  0  0
  -17.7060  -11.0980  -22.8800 C   0  0  0  0  0  0  0  0  0  0  0  0
  -18.0820   -9.8410  -23.3200 C   0  0  0  0  0  0  0  0  0  0  0  0
  -18.2550   -7.0540  -20.6420 C   0  0  0  0  0  0  0  0  0  0  0  0
  -19.1770   -7.1500  -19.8530 O   0  0  0  0  0  0  0  0  0  0  0  0
  -16.8710   -7.3940  -20.1790 C   0  0  0  0  0  0  0  0  0  0  0  0
  -15.9550   -6.3870  -19.8830 C   0  0  0  0  0  0  0  0  0  0  0  0
  -14.6790   -6.6800  -19.4140 C   0  0  0  0  0  0  0  0  0  0  0  0
  -13.7020   -5.5670  -19.1250 C   0  0  0  0  0  0  0  0  0  0  0  0
  -14.3440   -8.0230  -19.2460 C   0  0  0  0  0  0  0  0  0  0  0  0
  -13.0900   -8.3390  -18.7750 O   0  0  0  0  0  0  0  0  0  0  0  0
  -13.0230   -8.3860  -17.3550 C   0  0  0  0  0  0  0  0  0  0  0  0
  -15.2420   -9.0630  -19.5180 C   0  0  0  0  0  0  0  0  0  0  0  0
  -14.8780  -10.5100  -19.3160 C   0  0  0  0  0  0  0  0  0  0  0  0
  -16.5100   -8.7190  -19.9730 C   0  0  0  0  0  0  0  0  0  0  0  0
  -17.5217   -5.4514  -23.3587 H   0  0  0  0  0  0  0  0  0  0  0  0
  -16.4419   -6.6016  -22.4565 H   0  0  0  0  0  0  0  0  0  0  0  0
  -14.1626   -5.1618  -26.3702 H   0  0  0  0  0  0  0  0  0  0  0  0
  -21.9079   -3.1935  -20.3582 H   0  0  0  0  0  0  0  0  0  0  0  0
  -21.2319   -2.4269  -21.8354 H   0  0  0  0  0  0  0  0  0  0  0  0
  -22.9189   -3.0437  -21.8354 H   0  0  0  0  0  0  0  0  0  0  0  0
  -22.0848   -5.1307  -22.4012 H   0  0  0  0  0  0  0  0  0  0  0  0
  -19.9073   -6.2700  -23.3577 H   0  0  0  0  0  0  0  0  0  0  0  0
  -20.4899   -7.0224  -21.8137 H   0  0  0  0  0  0  0  0  0  0  0  0
  -18.5974   -7.5194  -24.3675 H   0  0  0  0  0  0  0  0  0  0  0  0
  -15.3695   -5.8067  -24.3057 H   0  0  0  0  0  0  0  0  0  0  0  0
  -14.8829   -6.0495  -28.5645 H   0  0  0  0  0  0  0  0  0  0  0  0
  -16.8135   -7.5980  -28.6931 H   0  0  0  0  0  0  0  0  0  0  0  0
  -18.0266   -8.2518  -26.6367 H   0  0  0  0  0  0  0  0  0  0  0  0
  -15.0189   -8.4224  -23.5768 H   0  0  0  0  0  0  0  0  0  0  0  0
  -14.3555  -10.6713  -22.7825 H   0  0  0  0  0  0  0  0  0  0  0  0
  -16.0784  -12.4011  -22.3517 H   0  0  0  0  0  0  0  0  0  0  0  0
  -18.4734  -11.8598  -22.6781 H   0  0  0  0  0  0  0  0  0  0  0  0
  -19.1479   -9.6114  -23.4652 H   0  0  0  0  0  0  0  0  0  0  0  0
  -16.2477   -5.3360  -20.0235 H   0  0  0  0  0  0  0  0  0  0  0  0
  -13.5956   -5.4458  -18.0369 H   0  0  0  0  0  0  0  0  0  0  0  0
  -12.7241   -5.8144  -19.5637 H   0  0  0  0  0  0  0  0  0  0  0  0
  -14.0741   -4.6294  -19.5637 H   0  0  0  0  0  0  0  0  0  0  0  0
  -13.8533   -7.8035  -16.9293 H   0  0  0  0  0  0  0  0  0  0  0  0
  -13.0977   -9.4307  -17.0188 H   0  0  0  0  0  0  0  0  0  0  0  0
  -12.0661   -7.9601  -17.0188 H   0  0  0  0  0  0  0  0  0  0  0  0
  -14.8233  -10.7274  -18.2391 H   0  0  0  0  0  0  0  0  0  0  0  0
  -15.6434  -11.1489  -19.7807 H   0  0  0  0  0  0  0  0  0  0  0  0
  -13.9014  -10.7107  -19.7807 H   0  0  0  0  0  0  0  0  0  0  0  0
  -17.2433   -9.5139  -20.1742 H   0  0  0  0  0  0  0  0  0  0  0  0
  1  2  1  0
  1  8  1  0
  1 21  1  0
  9  2  1  0
  3 11  2  0
  3 12  1  0
  4  5  1  0
  5  6  1  0
  6  7  2  0
  6  8  1  0
  9 10  1  0
  9 15  1  0
 10 11  1  0
 10 14  2  0
 12 13  2  0
 13 14  1  0
 15 16  2  0
 15 20  1  0
 16 17  1  0
 17 18  2  0
 18 19  1  0
 19 20  2  0
 21 22  2  0
 21 23  1  0
 23 24  2  0
 23 32  1  0
 24 25  1  0
 25 26  1  0
 25 27  2  0
 27 28  1  0
 27 30  1  0
 28 29  1  0
 30 31  1  0
 30 32  2  0
  2 33  1  0
  2 34  1  0
  3 35  1  0
  4 36  1  0
  4 37  1  0
  4 38  1  0
  5 39  1  0
  8 40  1  0
  8 41  1  0
  9 42  1  6
 11 43  1  0
 12 44  1  0
 13 45  1  0
 14 46  1  0
 16 47  1  0
 17 48  1  0
 18 49  1  0
 19 50  1  0
 20 51  1  0
 24 52  1  0
 26 53  1  0
 26 54  1  0
 26 55  1  0
 29 56  1  0
 29 57  1  0
 29 58  1  0
 31 59  1  0
 31 60  1  0
 31 61  1  0
 32 62  1  0
M  END
>  <filename_input>  (26) 
7OEO_V9Z_docked.sdf

>  <pdb_id>  (26) 
7OEO_V9Z

>  <pose_rank>  (26) 
25

>  <num_atoms_heavy>  (26) 
32

>  <num_torsions>  (26) 
8

>  <pose>  (26) 
[-18.451, -6.648, -21.914, 1e-06, 1e-06, 1e-06, 0.0, 0.0, 0.0, 0.0, 0.0, 0.0, 0.0, 0.0]

>  <energy>  (26) 
-820.440520255738

>  <inter_energy>  (26) 
-859.7093628378403

>  <intra_energy>  (26) 
41.80568306718922

>  <rmsd>  (26) 
0.0

>  <sdf_rank>  (26) 
0

$$$$
