
     RDKit          3D

 41 44  0  0  0  0  0  0  0  0999 V2000
   42.5902  -26.4934   10.0422 C   0  0  0  0  0  0  0  0  0  0  0  0
   34.9776  -25.5361    6.9331 C   0  0  0  0  0  0  0  0  0  0  0  0
   36.0970  -25.0766    7.5829 C   0  0  0  0  0  0  0  0  0  0  0  0
   36.3846  -25.5005    8.8685 C   0  0  0  0  0  0  0  0  0  0  0  0
   35.0963  -26.0353   11.9341 C   0  0  0  0  0  0  0  0  0  0  0  0
   39.9019  -27.9176   12.9901 C   0  0  0  0  0  0  0  0  0  0  0  0
   41.2034  -27.6757   13.4092 C   0  0  0  0  0  0  0  0  0  0  0  0
   42.1619  -27.2161   12.5197 C   0  0  0  0  0  0  0  0  0  0  0  0
   40.3786  -26.8937    9.3442 C   0  0  0  0  0  0  0  0  0  0  0  0
   39.3068  -26.9547    8.4509 C   0  0  0  0  0  0  0  0  0  0  0  0
   39.5195  -26.5854    7.1307 C   0  0  0  0  0  0  0  0  0  0  0  0
   41.7939  -26.9865   11.2071 C   0  0  0  0  0  0  0  0  0  0  0  0
   40.7651  -26.1481    6.7059 C   0  0  0  0  0  0  0  0  0  0  0  0
   41.8349  -26.0782    7.5902 C   0  0  0  0  0  0  0  0  0  0  0  0
   41.6261  -26.4534    8.9014 C   0  0  0  0  0  0  0  0  0  0  0  0
   40.4703  -27.2225   10.7731 C   0  0  0  0  0  0  0  0  0  0  0  0
   39.5168  -27.6870   11.6676 C   0  0  0  0  0  0  0  0  0  0  0  0
   38.1141  -27.9451   11.2119 C   0  0  0  0  0  0  0  0  0  0  0  0
   35.8601  -26.9070   10.9055 C   0  0  1  0  0  0  0  0  0  0  0  0
   35.5520  -26.4027    9.5078 C   0  0  0  0  0  0  0  0  0  0  0  0
   34.4283  -26.8613    8.8435 C   0  0  0  0  0  0  0  0  0  0  0  0
   34.1355  -26.4251    7.5619 C   0  0  0  0  0  0  0  0  0  0  0  0
   37.2772  -26.8786   11.2527 N   0  0  0  0  0  0  0  0  0  0  0  0
   43.7678  -26.1979   10.0298 O   0  0  0  0  0  0  0  0  0  0  0  0
   35.5015  -24.8531   12.1046 O   0  0  0  0  0  0  0  0  0  0  0  0
   34.1228  -26.5451   12.5063 O   0  0  0  0  0  0  0  0  0  0  0  0
   37.7777  -29.0612   10.8082 O   0  0  0  0  0  0  0  0  0  0  0  0
   34.7542  -25.1940    5.9118 H   0  0  0  0  0  0  0  0  0  0  0  0
   36.7693  -24.3672    7.0781 H   0  0  0  0  0  0  0  0  0  0  0  0
   37.2782  -25.1191    9.3842 H   0  0  0  0  0  0  0  0  0  0  0  0
   39.1626  -28.2968   13.7110 H   0  0  0  0  0  0  0  0  0  0  0  0
   41.4771  -27.8509   14.4601 H   0  0  0  0  0  0  0  0  0  0  0  0
   43.1953  -27.0376   12.8517 H   0  0  0  0  0  0  0  0  0  0  0  0
   38.3141  -27.2887    8.7873 H   0  0  0  0  0  0  0  0  0  0  0  0
   38.6892  -26.6401    6.4113 H   0  0  0  0  0  0  0  0  0  0  0  0
   40.9081  -25.8530    5.6559 H   0  0  0  0  0  0  0  0  0  0  0  0
   42.8233  -25.7323    7.2533 H   0  0  0  0  0  0  0  0  0  0  0  0
   35.5433  -27.9601   10.9277 H   0  0  0  0  0  0  0  0  0  0  0  0
   33.7597  -27.5808    9.3389 H   0  0  0  0  0  0  0  0  0  0  0  0
   33.2330  -26.7879    7.0483 H   0  0  0  0  0  0  0  0  0  0  0  0
   37.6735  -25.9764   11.5527 H   0  0  0  0  0  0  0  0  0  0  0  0
  1 12  1  0
  1 15  1  0
  1 24  2  0
  2  3  2  0
  2 22  1  0
  3  4  1  0
  4 20  2  0
  5 19  1  0
  5 25  1  0
  5 26  2  0
  6  7  2  0
  6 17  1  0
  7  8  1  0
  8 12  2  0
  9 10  2  0
  9 15  1  0
  9 16  1  0
 10 11  1  0
 11 13  2  0
 12 16  1  0
 13 14  1  0
 14 15  2  0
 16 17  2  0
 17 18  1  0
 18 23  1  0
 18 27  2  0
 19 20  1  0
 19 23  1  0
 20 21  1  0
 21 22  2  0
  2 28  1  0
  3 29  1  0
  4 30  1  0
  6 31  1  0
  7 32  1  0
  8 33  1  0
 10 34  1  0
 11 35  1  0
 13 36  1  0
 14 37  1  0
 19 38  1  6
 21 39  1  0
 22 40  1  0
 23 41  1  0
M  CHG  1  25  -1
M  END
>  <filename_input>  (1) 
7OFF_VCB_docked.sdf

>  <pdb_id>  (1) 
7OFF_VCB

>  <pose_rank>  (1) 
0

>  <num_atoms_heavy>  (1) 
27

>  <num_torsions>  (1) 
4

>  <pose>  (1) 
[42.590188632606775, -26.493402040109824, 10.042218181763433, 1.0054830777482036, -5.960712524773598, -1.6968619341696611, -6.1919447584602265, 0.0779457822748362, -0.13594192380944317, 0.49257725405834213]

>  <energy>  (1) 
-740.6163882037106

>  <inter_energy>  (1) 
-732.7296645123531

>  <intra_energy>  (1) 
10.977970909587569

>  <rmsd>  (1) 
0.681599

>  <sdf_rank>  (1) 
0

$$$$

     RDKit          3D

 41 44  0  0  0  0  0  0  0  0999 V2000
   42.6616  -26.3055   10.6160 C   0  0  0  0  0  0  0  0  0  0  0  0
   33.0836  -25.6184    7.0762 C   0  0  0  0  0  0  0  0  0  0  0  0
   34.3281  -25.9303    6.5858 C   0  0  0  0  0  0  0  0  0  0  0  0
   35.3282  -26.3653    7.4377 C   0  0  0  0  0  0  0  0  0  0  0  0
   35.7990  -26.5466   11.1820 C   0  0  0  0  0  0  0  0  0  0  0  0
   40.0647  -25.7611    7.3138 C   0  0  0  0  0  0  0  0  0  0  0  0
   41.3207  -25.1778    7.2119 C   0  0  0  0  0  0  0  0  0  0  0  0
   42.2414  -25.2904    8.2419 C   0  0  0  0  0  0  0  0  0  0  0  0
   40.5353  -27.3018   10.7740 C   0  0  0  0  0  0  0  0  0  0  0  0
   39.5043  -28.0379   11.3619 C   0  0  0  0  0  0  0  0  0  0  0  0
   39.7067  -28.5739   12.6254 C   0  0  0  0  0  0  0  0  0  0  0  0
   41.8919  -26.0100    9.3693 C   0  0  0  0  0  0  0  0  0  0  0  0
   40.9124  -28.3990   13.2878 C   0  0  0  0  0  0  0  0  0  0  0  0
   41.9456  -27.6736   12.7067 C   0  0  0  0  0  0  0  0  0  0  0  0
   41.7418  -27.1330   11.4537 C   0  0  0  0  0  0  0  0  0  0  0  0
   40.6191  -26.6134    9.4788 C   0  0  0  0  0  0  0  0  0  0  0  0
   39.7003  -26.4928    8.4461 C   0  0  0  0  0  0  0  0  0  0  0  0
   38.3476  -27.1246    8.5593 C   0  0  0  0  0  0  0  0  0  0  0  0
   36.1489  -27.0059    9.7439 C   0  0  1  0  0  0  0  0  0  0  0  0
   35.0794  -26.5022    8.7924 C   0  0  0  0  0  0  0  0  0  0  0  0
   33.8217  -26.1879    9.2758 C   0  0  0  0  0  0  0  0  0  0  0  0
   32.8265  -25.7399    8.4230 C   0  0  0  0  0  0  0  0  0  0  0  0
   37.4949  -26.5353    9.4340 N   0  0  0  0  0  0  0  0  0  0  0  0
   43.7880  -25.9424   10.8872 O   0  0  0  0  0  0  0  0  0  0  0  0
   35.1064  -27.3303   11.8871 O   0  0  0  0  0  0  0  0  0  0  0  0
   36.2402  -25.4512   11.5568 O   0  0  0  0  0  0  0  0  0  0  0  0
   38.0494  -28.1033    7.8701 O   0  0  0  0  0  0  0  0  0  0  0  0
   32.2936  -25.2720    6.3936 H   0  0  0  0  0  0  0  0  0  0  0  0
   34.5312  -25.8338    5.5090 H   0  0  0  0  0  0  0  0  0  0  0  0
   36.3246  -26.6030    7.0368 H   0  0  0  0  0  0  0  0  0  0  0  0
   39.3454  -25.6450    6.4897 H   0  0  0  0  0  0  0  0  0  0  0  0
   41.5883  -24.6195    6.3027 H   0  0  0  0  0  0  0  0  0  0  0  0
   43.2310  -24.8164    8.1637 H   0  0  0  0  0  0  0  0  0  0  0  0
   38.5513  -28.1896   10.8340 H   0  0  0  0  0  0  0  0  0  0  0  0
   38.9002  -29.1452   13.1081 H   0  0  0  0  0  0  0  0  0  0  0  0
   41.0528  -28.8399   14.2858 H   0  0  0  0  0  0  0  0  0  0  0  0
   42.9017  -27.5339   13.2324 H   0  0  0  0  0  0  0  0  0  0  0  0
   36.1583  -28.1011    9.6419 H   0  0  0  0  0  0  0  0  0  0  0  0
   33.6097  -26.2952   10.3498 H   0  0  0  0  0  0  0  0  0  0  0  0
   31.8339  -25.4820    8.8208 H   0  0  0  0  0  0  0  0  0  0  0  0
   37.8238  -25.6878    9.9183 H   0  0  0  0  0  0  0  0  0  0  0  0
  1 12  1  0
  1 15  1  0
  1 24  2  0
  2  3  2  0
  2 22  1  0
  3  4  1  0
  4 20  2  0
  5 19  1  0
  5 25  1  0
  5 26  2  0
  6  7  2  0
  6 17  1  0
  7  8  1  0
  8 12  2  0
  9 10  2  0
  9 15  1  0
  9 16  1  0
 10 11  1  0
 11 13  2  0
 12 16  1  0
 13 14  1  0
 14 15  2  0
 16 17  2  0
 17 18  1  0
 18 23  1  0
 18 27  2  0
 19 20  1  0
 19 23  1  0
 20 21  1  0
 21 22  2  0
  2 28  1  0
  3 29  1  0
  4 30  1  0
  6 31  1  0
  7 32  1  0
  8 33  1  0
 10 34  1  0
 11 35  1  0
 13 36  1  0
 14 37  1  0
 19 38  1  1
 21 39  1  0
 22 40  1  0
 23 41  1  0
M  CHG  1  25  -1
M  END
>  <filename_input>  (2) 
7OFF_VCB_docked.sdf

>  <pdb_id>  (2) 
7OFF_VCB

>  <pose_rank>  (2) 
1

>  <num_atoms_heavy>  (2) 
27

>  <num_torsions>  (2) 
4

>  <pose>  (2) 
[42.66161153690778, -26.305518048044735, 10.615994547043046, -2.788717602141904, -0.8332490298270396, -0.31024897689705083, -3.4207729204596853, 0.31502322742202943, 0.9723021658004803, 3.3315886725076145]

>  <energy>  (2) 
-629.8210982354271

>  <inter_energy>  (2) 
-662.3201665256108

>  <intra_energy>  (2) 
30.061014877626384

>  <rmsd>  (2) 
3.42868

>  <sdf_rank>  (2) 
0

$$$$

     RDKit          3D

 41 44  0  0  0  0  0  0  0  0999 V2000
   34.7799  -25.6197   10.8038 C   0  0  0  0  0  0  0  0  0  0  0  0
   45.4157  -25.9463   10.8232 C   0  0  0  0  0  0  0  0  0  0  0  0
   44.2698  -26.0955   11.5656 C   0  0  0  0  0  0  0  0  0  0  0  0
   43.0542  -25.6521   11.0750 C   0  0  0  0  0  0  0  0  0  0  0  0
   41.7535  -23.0845    8.9261 C   0  0  0  0  0  0  0  0  0  0  0  0
   38.7192  -25.7249   12.3582 C   0  0  0  0  0  0  0  0  0  0  0  0
   37.6900  -25.7056   13.2901 C   0  0  0  0  0  0  0  0  0  0  0  0
   36.3653  -25.6624   12.8842 C   0  0  0  0  0  0  0  0  0  0  0  0
   36.5306  -25.6660    9.2317 C   0  0  0  0  0  0  0  0  0  0  0  0
   37.1157  -25.6775    7.9637 C   0  0  0  0  0  0  0  0  0  0  0  0
   36.2895  -25.6441    6.8497 C   0  0  0  0  0  0  0  0  0  0  0  0
   36.0856  -25.6553   11.5304 C   0  0  0  0  0  0  0  0  0  0  0  0
   34.9098  -25.6166    6.9875 C   0  0  0  0  0  0  0  0  0  0  0  0
   34.3198  -25.6118    8.2458 C   0  0  0  0  0  0  0  0  0  0  0  0
   35.1412  -25.6364    9.3541 C   0  0  0  0  0  0  0  0  0  0  0  0
   37.1258  -25.6824   10.5747 C   0  0  0  0  0  0  0  0  0  0  0  0
   38.4498  -25.7209   10.9878 C   0  0  0  0  0  0  0  0  0  0  0  0
   39.5566  -25.7432    9.9797 C   0  0  0  0  0  0  0  0  0  0  0  0
   41.6553  -24.5969    9.2495 C   0  0  1  0  0  0  0  0  0  0  0  0
   42.9798  -25.0644    9.8240 C   0  0  0  0  0  0  0  0  0  0  0  0
   44.1395  -24.9212    9.0831 C   0  0  0  0  0  0  0  0  0  0  0  0
   45.3570  -25.3536    9.5822 C   0  0  0  0  0  0  0  0  0  0  0  0
   40.5146  -24.7961   10.1374 N   0  0  0  0  0  0  0  0  0  0  0  0
   33.6688  -25.5783   11.2916 O   0  0  0  0  0  0  0  0  0  0  0  0
   41.6261  -22.2780    9.8875 O   0  0  0  0  0  0  0  0  0  0  0  0
   41.9740  -22.7633    7.7501 O   0  0  0  0  0  0  0  0  0  0  0  0
   39.5804  -26.5959    9.0885 O   0  0  0  0  0  0  0  0  0  0  0  0
   46.3789  -26.2999   11.2197 H   0  0  0  0  0  0  0  0  0  0  0  0
   44.3187  -26.5706   12.5565 H   0  0  0  0  0  0  0  0  0  0  0  0
   42.1437  -25.7670   11.6814 H   0  0  0  0  0  0  0  0  0  0  0  0
   39.7630  -25.7437   12.7047 H   0  0  0  0  0  0  0  0  0  0  0  0
   37.9288  -25.7249   14.3637 H   0  0  0  0  0  0  0  0  0  0  0  0
   35.5525  -25.6342   13.6249 H   0  0  0  0  0  0  0  0  0  0  0  0
   38.2093  -25.7124    7.8505 H   0  0  0  0  0  0  0  0  0  0  0  0
   36.7346  -25.6394    5.8438 H   0  0  0  0  0  0  0  0  0  0  0  0
   34.2745  -25.5983    6.0897 H   0  0  0  0  0  0  0  0  0  0  0  0
   33.2255  -25.5890    8.3554 H   0  0  0  0  0  0  0  0  0  0  0  0
   41.4774  -25.2089    8.3529 H   0  0  0  0  0  0  0  0  0  0  0  0
   44.0940  -24.4585    8.0862 H   0  0  0  0  0  0  0  0  0  0  0  0
   46.2741  -25.2238    8.9887 H   0  0  0  0  0  0  0  0  0  0  0  0
   40.4302  -24.1673   10.9488 H   0  0  0  0  0  0  0  0  0  0  0  0
  1 12  1  0
  1 15  1  0
  1 24  2  0
  2  3  2  0
  2 22  1  0
  3  4  1  0
  4 20  2  0
  5 19  1  0
  5 25  1  0
  5 26  2  0
  6  7  2  0
  6 17  1  0
  7  8  1  0
  8 12  2  0
  9 10  2  0
  9 15  1  0
  9 16  1  0
 10 11  1  0
 11 13  2  0
 12 16  1  0
 13 14  1  0
 14 15  2  0
 16 17  2  0
 17 18  1  0
 18 23  1  0
 18 27  2  0
 19 20  1  0
 19 23  1  0
 20 21  1  0
 21 22  2  0
  2 28  1  0
  3 29  1  0
  4 30  1  0
  6 31  1  0
  7 32  1  0
  8 33  1  0
 10 34  1  0
 11 35  1  0
 13 36  1  0
 14 37  1  0
 19 38  1  6
 21 39  1  0
 22 40  1  0
 23 41  1  0
M  CHG  1  25  -1
M  END
>  <filename_input>  (3) 
7OFF_VCB_docked.sdf

>  <pdb_id>  (3) 
7OFF_VCB

>  <pose_rank>  (3) 
2

>  <num_atoms_heavy>  (3) 
27

>  <num_torsions>  (3) 
4

>  <pose>  (3) 
[34.77988168297603, -25.619659809524663, 10.803835603942051, 0.6208295266954086, -0.25855833142659285, 2.740013334795412, 3.832271136932754, -0.04113700318343671, 0.3424850737089973, 0.3470034794915635]

>  <energy>  (3) 
-429.0398167193931

>  <inter_energy>  (3) 
-451.7745571469433

>  <intra_energy>  (3) 
24.044028752042575

>  <rmsd>  (3) 
6.9352

>  <sdf_rank>  (3) 
0

$$$$

     RDKit          3D

 41 44  0  0  0  0  0  0  0  0999 V2000
   45.3957  -26.4832   12.3765 C   0  0  0  0  0  0  0  0  0  0  0  0
   38.5399  -24.7199   17.8886 C   0  0  0  0  0  0  0  0  0  0  0  0
   38.4154  -23.7940   16.8817 C   0  0  0  0  0  0  0  0  0  0  0  0
   39.4575  -22.9312   16.5904 C   0  0  0  0  0  0  0  0  0  0  0  0
   41.3445  -21.0101   15.9743 C   0  0  0  0  0  0  0  0  0  0  0  0
   45.3849  -24.2221   15.9587 C   0  0  0  0  0  0  0  0  0  0  0  0
   46.6095  -24.7445   15.5641 C   0  0  0  0  0  0  0  0  0  0  0  0
   46.7182  -25.5061   14.4111 C   0  0  0  0  0  0  0  0  0  0  0  0
   43.3272  -25.5825   13.0462 C   0  0  0  0  0  0  0  0  0  0  0  0
   41.9578  -25.3190   12.9693 C   0  0  0  0  0  0  0  0  0  0  0  0
   41.2395  -25.8390   11.9024 C   0  0  0  0  0  0  0  0  0  0  0  0
   45.5851  -25.7233   13.6496 C   0  0  0  0  0  0  0  0  0  0  0  0
   41.8671  -26.5916   10.9212 C   0  0  0  0  0  0  0  0  0  0  0  0
   43.2305  -26.8525   10.9870 C   0  0  0  0  0  0  0  0  0  0  0  0
   43.9439  -26.3429   12.0524 C   0  0  0  0  0  0  0  0  0  0  0  0
   44.3362  -25.1896   14.0390 C   0  0  0  0  0  0  0  0  0  0  0  0
   44.2335  -24.4321   15.1969 C   0  0  0  0  0  0  0  0  0  0  0  0
   42.9115  -23.8693   15.6179 C   0  0  0  0  0  0  0  0  0  0  0  0
   41.8105  -22.0885   16.9849 C   0  0  1  0  0  0  0  0  0  0  0  0
   40.6415  -23.0020   17.3038 C   0  0  0  0  0  0  0  0  0  0  0  0
   40.7575  -23.9400   18.3143 C   0  0  0  0  0  0  0  0  0  0  0  0
   39.7082  -24.7933   18.6129 C   0  0  0  0  0  0  0  0  0  0  0  0
   42.9662  -22.7730   16.4147 N   0  0  0  0  0  0  0  0  0  0  0  0
   46.2413  -27.0882   11.7495 O   0  0  0  0  0  0  0  0  0  0  0  0
   42.1671  -20.6560   15.0860 O   0  0  0  0  0  0  0  0  0  0  0  0
   40.1877  -20.5811   16.0870 O   0  0  0  0  0  0  0  0  0  0  0  0
   41.8571  -24.3780   15.2291 O   0  0  0  0  0  0  0  0  0  0  0  0
   37.7072  -25.4019   18.1158 H   0  0  0  0  0  0  0  0  0  0  0  0
   37.4815  -23.7379   16.3033 H   0  0  0  0  0  0  0  0  0  0  0  0
   39.3444  -22.1864   15.7888 H   0  0  0  0  0  0  0  0  0  0  0  0
   45.3208  -23.6337   16.8859 H   0  0  0  0  0  0  0  0  0  0  0  0
   47.5044  -24.5516   16.1741 H   0  0  0  0  0  0  0  0  0  0  0  0
   47.6872  -25.9293   14.1079 H   0  0  0  0  0  0  0  0  0  0  0  0
   41.4591  -24.7116   13.7389 H   0  0  0  0  0  0  0  0  0  0  0  0
   40.1577  -25.6518   11.8339 H   0  0  0  0  0  0  0  0  0  0  0  0
   41.2784  -26.9871   10.0804 H   0  0  0  0  0  0  0  0  0  0  0  0
   43.7283  -27.4503   10.2093 H   0  0  0  0  0  0  0  0  0  0  0  0
   42.1319  -21.6564   17.9441 H   0  0  0  0  0  0  0  0  0  0  0  0
   41.6941  -24.0089   18.8871 H   0  0  0  0  0  0  0  0  0  0  0  0
   39.8081  -25.5272   19.4261 H   0  0  0  0  0  0  0  0  0  0  0  0
   43.8980  -22.3933   16.6350 H   0  0  0  0  0  0  0  0  0  0  0  0
  1 12  1  0
  1 15  1  0
  1 24  2  0
  2  3  2  0
  2 22  1  0
  3  4  1  0
  4 20  2  0
  5 19  1  0
  5 25  1  0
  5 26  2  0
  6  7  2  0
  6 17  1  0
  7  8  1  0
  8 12  2  0
  9 10  2  0
  9 15  1  0
  9 16  1  0
 10 11  1  0
 11 13  2  0
 12 16  1  0
 13 14  1  0
 14 15  2  0
 16 17  2  0
 17 18  1  0
 18 23  1  0
 18 27  2  0
 19 20  1  0
 19 23  1  0
 20 21  1  0
 21 22  2  0
  2 28  1  0
  3 29  1  0
  4 30  1  0
  6 31  1  0
  7 32  1  0
  8 33  1  0
 10 34  1  0
 11 35  1  0
 13 36  1  0
 14 37  1  0
 19 38  1  1
 21 39  1  0
 22 40  1  0
 23 41  1  0
M  CHG  1  25  -1
M  END
>  <filename_input>  (4) 
7OFF_VCB_docked.sdf

>  <pdb_id>  (4) 
7OFF_VCB

>  <pose_rank>  (4) 
3

>  <num_atoms_heavy>  (4) 
27

>  <num_torsions>  (4) 
4

>  <pose>  (4) 
[45.39573696011378, -26.483151398237844, 12.376453754653186, 7.652650227963146, -6.537000825133006, 5.376627186128057, -19.95736556364745, 14.942382608764435, -7.912428714376289, -7.041832613352136]

>  <energy>  (4) 
41.34006171389365

>  <inter_energy>  (4) 
-86.60181618574525

>  <intra_energy>  (4) 
126.72865817757491

>  <rmsd>  (4) 
7.22992

>  <sdf_rank>  (4) 
0

$$$$

     RDKit          3D

 41 44  0  0  0  0  0  0  0  0999 V2000
   36.8121  -25.9138    8.2167 C   0  0  0  0  0  0  0  0  0  0  0  0
   40.0155  -26.3914   18.1216 C   0  0  0  0  0  0  0  0  0  0  0  0
   39.0257  -26.0061   17.2507 C   0  0  0  0  0  0  0  0  0  0  0  0
   39.0445  -26.4343   15.9348 C   0  0  0  0  0  0  0  0  0  0  0  0
   41.3665  -27.2522   13.3627 C   0  0  0  0  0  0  0  0  0  0  0  0
   35.9906  -27.3017   12.1339 C   0  0  0  0  0  0  0  0  0  0  0  0
   34.9363  -26.6991   11.4605 C   0  0  0  0  0  0  0  0  0  0  0  0
   35.1041  -26.2038   10.1769 C   0  0  0  0  0  0  0  0  0  0  0  0
   38.5894  -26.9486    9.3609 C   0  0  0  0  0  0  0  0  0  0  0  0
   39.8875  -27.4282    9.5487 C   0  0  0  0  0  0  0  0  0  0  0  0
   40.8089  -27.2726    8.5233 C   0  0  0  0  0  0  0  0  0  0  0  0
   36.3395  -26.3355    9.5706 C   0  0  0  0  0  0  0  0  0  0  0  0
   40.4482  -26.6688    7.3281 C   0  0  0  0  0  0  0  0  0  0  0  0
   39.1567  -26.1951    7.1308 C   0  0  0  0  0  0  0  0  0  0  0  0
   38.2422  -26.3419    8.1536 C   0  0  0  0  0  0  0  0  0  0  0  0
   37.4160  -26.9539   10.2448 C   0  0  0  0  0  0  0  0  0  0  0  0
   37.2426  -27.4434   11.5315 C   0  0  0  0  0  0  0  0  0  0  0  0
   38.3816  -28.0939   12.2535 C   0  0  0  0  0  0  0  0  0  0  0  0
   40.0836  -27.7749   14.0572 C   0  0  1  0  0  0  0  0  0  0  0  0
   40.0557  -27.2664   15.4867 C   0  0  0  0  0  0  0  0  0  0  0  0
   41.0464  -27.6508   16.3727 C   0  0  0  0  0  0  0  0  0  0  0  0
   41.0328  -27.2100   17.6857 C   0  0  0  0  0  0  0  0  0  0  0  0
   38.9360  -27.3654   13.2542 N   0  0  0  0  0  0  0  0  0  0  0  0
   36.1701  -25.3407    7.3602 O   0  0  0  0  0  0  0  0  0  0  0  0
   42.1539  -28.1112   12.8801 O   0  0  0  0  0  0  0  0  0  0  0  0
   41.5268  -26.0250   13.3042 O   0  0  0  0  0  0  0  0  0  0  0  0
   38.7534  -29.2303   11.9501 O   0  0  0  0  0  0  0  0  0  0  0  0
   39.9952  -26.0464   19.1659 H   0  0  0  0  0  0  0  0  0  0  0  0
   38.2130  -25.3530   17.6014 H   0  0  0  0  0  0  0  0  0  0  0  0
   38.2528  -26.1121   15.2425 H   0  0  0  0  0  0  0  0  0  0  0  0
   35.8373  -27.6734   13.1578 H   0  0  0  0  0  0  0  0  0  0  0  0
   33.9558  -26.6137   11.9518 H   0  0  0  0  0  0  0  0  0  0  0  0
   34.2706  -25.7154    9.6508 H   0  0  0  0  0  0  0  0  0  0  0  0
   40.1736  -27.9192   10.4906 H   0  0  0  0  0  0  0  0  0  0  0  0
   41.8391  -27.6329    8.6600 H   0  0  0  0  0  0  0  0  0  0  0  0
   41.1937  -26.5634    6.5261 H   0  0  0  0  0  0  0  0  0  0  0  0
   38.8706  -25.7153    6.1832 H   0  0  0  0  0  0  0  0  0  0  0  0
   40.0570  -28.8727   14.1222 H   0  0  0  0  0  0  0  0  0  0  0  0
   41.8542  -28.3143   16.0304 H   0  0  0  0  0  0  0  0  0  0  0  0
   41.8322  -27.5130   18.3778 H   0  0  0  0  0  0  0  0  0  0  0  0
   38.5133  -26.4499   13.4642 H   0  0  0  0  0  0  0  0  0  0  0  0
  1 12  1  0
  1 15  1  0
  1 24  2  0
  2  3  2  0
  2 22  1  0
  3  4  1  0
  4 20  2  0
  5 19  1  0
  5 25  1  0
  5 26  2  0
  6  7  2  0
  6 17  1  0
  7  8  1  0
  8 12  2  0
  9 10  2  0
  9 15  1  0
  9 16  1  0
 10 11  1  0
 11 13  2  0
 12 16  1  0
 13 14  1  0
 14 15  2  0
 16 17  2  0
 17 18  1  0
 18 23  1  0
 18 27  2  0
 19 20  1  0
 19 23  1  0
 20 21  1  0
 21 22  2  0
  2 28  1  0
  3 29  1  0
  4 30  1  0
  6 31  1  0
  7 32  1  0
  8 33  1  0
 10 34  1  0
 11 35  1  0
 13 36  1  0
 14 37  1  0
 19 38  1  1
 21 39  1  0
 22 40  1  0
 23 41  1  0
M  CHG  1  25  -1
M  END
>  <filename_input>  (5) 
7OFF_VCB_docked.sdf

>  <pdb_id>  (5) 
7OFF_VCB

>  <pose_rank>  (5) 
4

>  <num_atoms_heavy>  (5) 
27

>  <num_torsions>  (5) 
4

>  <pose>  (5) 
[36.812075896433115, -25.91384784852224, 8.216715423729653, 1.6234979679940442, 1.0107008903287167, -3.146197123962054, -2.8072522805492293, 5.516069731899758, 0.2674558722036865, -2.409728579468973]

>  <energy>  (5) 
-525.0599529760538

>  <inter_energy>  (5) 
-535.2788586772394

>  <intra_energy>  (5) 
5.5010556028338415

>  <rmsd>  (5) 
6.19882

>  <sdf_rank>  (5) 
0

$$$$

     RDKit          3D

 41 44  0  0  0  0  0  0  0  0999 V2000
   42.9466  -26.4975   10.7585 C   0  0  0  0  0  0  0  0  0  0  0  0
   46.0346  -18.6257    9.7826 C   0  0  0  0  0  0  0  0  0  0  0  0
   44.9818  -17.7445    9.7425 C   0  0  0  0  0  0  0  0  0  0  0  0
   43.7325  -18.1240   10.2012 C   0  0  0  0  0  0  0  0  0  0  0  0
   41.8520  -18.9854   12.5147 C   0  0  0  0  0  0  0  0  0  0  0  0
   40.5306  -23.8546   13.0219 C   0  0  0  0  0  0  0  0  0  0  0  0
   40.6459  -25.1508   13.5064 C   0  0  0  0  0  0  0  0  0  0  0  0
   41.4066  -26.0948   12.8345 C   0  0  0  0  0  0  0  0  0  0  0  0
   42.7559  -24.2948    9.9523 C   0  0  0  0  0  0  0  0  0  0  0  0
   42.9789  -23.2222    9.0861 C   0  0  0  0  0  0  0  0  0  0  0  0
   43.7844  -23.4218    7.9743 C   0  0  0  0  0  0  0  0  0  0  0  0
   42.0638  -25.7173   11.6784 C   0  0  0  0  0  0  0  0  0  0  0  0
   44.3715  -24.6547    7.7329 C   0  0  0  0  0  0  0  0  0  0  0  0
   44.1600  -25.7249    8.5938 C   0  0  0  0  0  0  0  0  0  0  0  0
   43.3521  -25.5295    9.6951 C   0  0  0  0  0  0  0  0  0  0  0  0
   41.9587  -24.3988   11.1819 C   0  0  0  0  0  0  0  0  0  0  0  0
   41.1917  -23.4600   11.8568 C   0  0  0  0  0  0  0  0  0  0  0  0
   41.0713  -22.0629   11.3318 C   0  0  0  0  0  0  0  0  0  0  0  0
   42.1833  -19.8247   11.2548 C   0  0  1  0  0  0  0  0  0  0  0  0
   43.5352  -19.3931   10.7172 C   0  0  0  0  0  0  0  0  0  0  0  0
   44.6029  -20.2722   10.7555 C   0  0  0  0  0  0  0  0  0  0  0  0
   45.8490  -19.8945   10.2833 C   0  0  0  0  0  0  0  0  0  0  0  0
   42.1072  -21.2358   11.6188 N   0  0  0  0  0  0  0  0  0  0  0  0
   43.2573  -27.6673   10.8554 O   0  0  0  0  0  0  0  0  0  0  0  0
   42.6097  -19.1189   13.5142 O   0  0  0  0  0  0  0  0  0  0  0  0
   40.8799  -18.2197   12.4536 O   0  0  0  0  0  0  0  0  0  0  0  0
   40.0915  -21.7228   10.6638 O   0  0  0  0  0  0  0  0  0  0  0  0
   47.0247  -18.3180    9.4151 H   0  0  0  0  0  0  0  0  0  0  0  0
   45.1326  -16.7307    9.3432 H   0  0  0  0  0  0  0  0  0  0  0  0
   42.8932  -17.4144   10.1557 H   0  0  0  0  0  0  0  0  0  0  0  0
   39.9087  -23.1272   13.5643 H   0  0  0  0  0  0  0  0  0  0  0  0
   40.1272  -25.4319   14.4348 H   0  0  0  0  0  0  0  0  0  0  0  0
   41.4857  -27.1244   13.2138 H   0  0  0  0  0  0  0  0  0  0  0  0
   42.5253  -22.2393    9.2813 H   0  0  0  0  0  0  0  0  0  0  0  0
   43.9596  -22.5910    7.2749 H   0  0  0  0  0  0  0  0  0  0  0  0
   45.0128  -24.7872    6.8490 H   0  0  0  0  0  0  0  0  0  0  0  0
   44.6249  -26.7033    8.4020 H   0  0  0  0  0  0  0  0  0  0  0  0
   41.4634  -19.6624   10.4390 H   0  0  0  0  0  0  0  0  0  0  0  0
   44.4605  -21.2828   11.1658 H   0  0  0  0  0  0  0  0  0  0  0  0
   46.6875  -20.6060   10.3083 H   0  0  0  0  0  0  0  0  0  0  0  0
   42.9038  -21.6356   12.1350 H   0  0  0  0  0  0  0  0  0  0  0  0
  1 12  1  0
  1 15  1  0
  1 24  2  0
  2  3  2  0
  2 22  1  0
  3  4  1  0
  4 20  2  0
  5 19  1  0
  5 25  1  0
  5 26  2  0
  6  7  2  0
  6 17  1  0
  7  8  1  0
  8 12  2  0
  9 10  2  0
  9 15  1  0
  9 16  1  0
 10 11  1  0
 11 13  2  0
 12 16  1  0
 13 14  1  0
 14 15  2  0
 16 17  2  0
 17 18  1  0
 18 23  1  0
 18 27  2  0
 19 20  1  0
 19 23  1  0
 20 21  1  0
 21 22  2  0
  2 28  1  0
  3 29  1  0
  4 30  1  0
  6 31  1  0
  7 32  1  0
  8 33  1  0
 10 34  1  0
 11 35  1  0
 13 36  1  0
 14 37  1  0
 19 38  1  6
 21 39  1  0
 22 40  1  0
 23 41  1  0
M  CHG  1  25  -1
M  END
>  <filename_input>  (6) 
7OFF_VCB_docked.sdf

>  <pdb_id>  (6) 
7OFF_VCB

>  <pose_rank>  (6) 
5

>  <num_atoms_heavy>  (6) 
27

>  <num_torsions>  (6) 
4

>  <pose>  (6) 
[42.94658536736817, -26.497547063764557, 10.758543538367258, 0.2754597567969422, -0.27148948522595406, -1.525881324274736, 0.20341846894637725, -0.5722464806446903, -2.938640139206557, 0.6247166373503185]

>  <energy>  (6) 
-154.69410462081612

>  <inter_energy>  (6) 
-159.0950628337794

>  <intra_energy>  (6) 
4.789860619836972

>  <rmsd>  (6) 
7.51089

>  <sdf_rank>  (6) 
0

$$$$

     RDKit          3D

 41 44  0  0  0  0  0  0  0  0999 V2000
   36.7922  -25.9882    8.4339 C   0  0  0  0  0  0  0  0  0  0  0  0
   41.0940  -25.9446   16.8082 C   0  0  0  0  0  0  0  0  0  0  0  0
   40.5305  -25.5768   15.6108 C   0  0  0  0  0  0  0  0  0  0  0  0
   40.4469  -26.4829   14.5681 C   0  0  0  0  0  0  0  0  0  0  0  0
   42.1582  -29.5565   13.4943 C   0  0  0  0  0  0  0  0  0  0  0  0
   40.4620  -27.9249    9.2868 C   0  0  0  0  0  0  0  0  0  0  0  0
   40.3773  -27.2787    8.0606 C   0  0  0  0  0  0  0  0  0  0  0  0
   39.2165  -26.6223    7.6826 C   0  0  0  0  0  0  0  0  0  0  0  0
   36.9498  -27.0749   10.5155 C   0  0  0  0  0  0  0  0  0  0  0  0
   36.5174  -27.5154   11.7683 C   0  0  0  0  0  0  0  0  0  0  0  0
   35.2306  -27.1971   12.1775 C   0  0  0  0  0  0  0  0  0  0  0  0
   38.1465  -26.6085    8.5579 C   0  0  0  0  0  0  0  0  0  0  0  0
   34.3929  -26.4431   11.3695 C   0  0  0  0  0  0  0  0  0  0  0  0
   34.8181  -25.9953   10.1245 C   0  0  0  0  0  0  0  0  0  0  0  0
   36.0948  -26.3188    9.7133 C   0  0  0  0  0  0  0  0  0  0  0  0
   38.2259  -27.2566    9.8108 C   0  0  0  0  0  0  0  0  0  0  0  0
   39.3893  -27.9158   10.1810 C   0  0  0  0  0  0  0  0  0  0  0  0
   39.4770  -28.6100   11.5047 C   0  0  0  0  0  0  0  0  0  0  0  0
   40.8129  -28.7961   13.6101 C   0  0  1  0  0  0  0  0  0  0  0  0
   40.9197  -27.7740   14.7267 C   0  0  0  0  0  0  0  0  0  0  0  0
   41.4831  -28.1351   15.9378 C   0  0  0  0  0  0  0  0  0  0  0  0
   41.5779  -27.2224   16.9753 C   0  0  0  0  0  0  0  0  0  0  0  0
   40.5030  -28.2245   12.3038 N   0  0  0  0  0  0  0  0  0  0  0  0
   36.3559  -25.3593    7.4915 O   0  0  0  0  0  0  0  0  0  0  0  0
   43.1113  -28.9617   12.9211 O   0  0  0  0  0  0  0  0  0  0  0  0
   42.2206  -30.6895   13.9919 O   0  0  0  0  0  0  0  0  0  0  0  0
   38.6407  -29.4568   11.8291 O   0  0  0  0  0  0  0  0  0  0  0  0
   41.1584  -25.2190   17.6325 H   0  0  0  0  0  0  0  0  0  0  0  0
   40.1432  -24.5556   15.4798 H   0  0  0  0  0  0  0  0  0  0  0  0
   40.0030  -26.1758   13.6096 H   0  0  0  0  0  0  0  0  0  0  0  0
   41.3885  -28.4521    9.5581 H   0  0  0  0  0  0  0  0  0  0  0  0
   41.2421  -27.2878    7.3809 H   0  0  0  0  0  0  0  0  0  0  0  0
   39.1479  -26.1223    6.7053 H   0  0  0  0  0  0  0  0  0  0  0  0
   37.1837  -28.1026   12.4174 H   0  0  0  0  0  0  0  0  0  0  0  0
   34.8700  -27.5475   13.1559 H   0  0  0  0  0  0  0  0  0  0  0  0
   33.3793  -26.1964   11.7183 H   0  0  0  0  0  0  0  0  0  0  0  0
   34.1534  -25.3980    9.4830 H   0  0  0  0  0  0  0  0  0  0  0  0
   39.9766  -29.4578   13.8797 H   0  0  0  0  0  0  0  0  0  0  0  0
   41.8601  -29.1589   16.0782 H   0  0  0  0  0  0  0  0  0  0  0  0
   42.0383  -27.5177   17.9296 H   0  0  0  0  0  0  0  0  0  0  0  0
   41.1120  -27.4678   11.9611 H   0  0  0  0  0  0  0  0  0  0  0  0
  1 12  1  0
  1 15  1  0
  1 24  2  0
  2  3  2  0
  2 22  1  0
  3  4  1  0
  4 20  2  0
  5 19  1  0
  5 25  1  0
  5 26  2  0
  6  7  2  0
  6 17  1  0
  7  8  1  0
  8 12  2  0
  9 10  2  0
  9 15  1  0
  9 16  1  0
 10 11  1  0
 11 13  2  0
 12 16  1  0
 13 14  1  0
 14 15  2  0
 16 17  2  0
 17 18  1  0
 18 23  1  0
 18 27  2  0
 19 20  1  0
 19 23  1  0
 20 21  1  0
 21 22  2  0
  2 28  1  0
  3 29  1  0
  4 30  1  0
  6 31  1  0
  7 32  1  0
  8 33  1  0
 10 34  1  0
 11 35  1  0
 13 36  1  0
 14 37  1  0
 19 38  1  1
 21 39  1  0
 22 40  1  0
 23 41  1  0
M  CHG  1  25  -1
M  END
>  <filename_input>  (7) 
7OFF_VCB_docked.sdf

>  <pdb_id>  (7) 
7OFF_VCB

>  <pose_rank>  (7) 
6

>  <num_atoms_heavy>  (7) 
27

>  <num_torsions>  (7) 
4

>  <pose>  (7) 
[36.79222456330427, -25.988234036407516, 8.43392117656168, 0.24577452946318923, 1.9452523530886798, 0.2723925910022111, 12.01027826140105, 12.175013799151873, -5.707726057629004, -5.896251518352805]

>  <energy>  (7) 
-492.44802954297944

>  <inter_energy>  (7) 
-508.35596297208804

>  <intra_energy>  (7) 
23.34394288162338

>  <rmsd>  (7) 
6.71014

>  <sdf_rank>  (7) 
0

$$$$

     RDKit          3D

 41 44  0  0  0  0  0  0  0  0999 V2000
   35.5945  -26.6940   11.8103 C   0  0  0  0  0  0  0  0  0  0  0  0
   45.3992  -24.9563    8.9730 C   0  0  0  0  0  0  0  0  0  0  0  0
   45.1494  -26.2882    9.1969 C   0  0  0  0  0  0  0  0  0  0  0  0
   43.8869  -26.8109    8.9778 C   0  0  0  0  0  0  0  0  0  0  0  0
   40.7380  -25.5893    7.2785 C   0  0  0  0  0  0  0  0  0  0  0  0
   39.5922  -28.0544   12.1456 C   0  0  0  0  0  0  0  0  0  0  0  0
   38.8613  -27.9948   13.3247 C   0  0  0  0  0  0  0  0  0  0  0  0
   37.5468  -27.5551   13.3237 C   0  0  0  0  0  0  0  0  0  0  0  0
   36.8371  -26.8110    9.8151 C   0  0  0  0  0  0  0  0  0  0  0  0
   37.0782  -26.6865    8.4451 C   0  0  0  0  0  0  0  0  0  0  0  0
   36.0569  -26.2208    7.6298 C   0  0  0  0  0  0  0  0  0  0  0  0
   36.9693  -27.1912   12.1216 C   0  0  0  0  0  0  0  0  0  0  0  0
   34.8152  -25.9001    8.1574 C   0  0  0  0  0  0  0  0  0  0  0  0
   34.5653  -26.0278    9.5185 C   0  0  0  0  0  0  0  0  0  0  0  0
   35.5832  -26.4827   10.3312 C   0  0  0  0  0  0  0  0  0  0  0  0
   37.7026  -27.2556   10.9157 C   0  0  0  0  0  0  0  0  0  0  0  0
   39.0195  -27.6923   10.9244 C   0  0  0  0  0  0  0  0  0  0  0  0
   39.8037  -27.7566    9.6505 C   0  0  0  0  0  0  0  0  0  0  0  0
   41.4803  -26.5511    8.2406 C   0  0  1  0  0  0  0  0  0  0  0  0
   42.8657  -25.9975    8.5180 C   0  0  0  0  0  0  0  0  0  0  0  0
   43.1285  -24.6578    8.2930 C   0  0  0  0  0  0  0  0  0  0  0  0
   44.3895  -24.1343    8.5261 C   0  0  0  0  0  0  0  0  0  0  0  0
   40.6557  -26.7241    9.4320 N   0  0  0  0  0  0  0  0  0  0  0  0
   34.6888  -26.4987   12.5951 O   0  0  0  0  0  0  0  0  0  0  0  0
   40.9536  -25.7264    6.0434 O   0  0  0  0  0  0  0  0  0  0  0  0
   39.9627  -24.7632    7.7799 O   0  0  0  0  0  0  0  0  0  0  0  0
   39.6785  -28.7124    8.8808 O   0  0  0  0  0  0  0  0  0  0  0  0
   46.4047  -24.5471    9.1504 H   0  0  0  0  0  0  0  0  0  0  0  0
   45.9580  -26.9436    9.5528 H   0  0  0  0  0  0  0  0  0  0  0  0
   43.6942  -27.8767    9.1696 H   0  0  0  0  0  0  0  0  0  0  0  0
   40.6387  -28.3922   12.1738 H   0  0  0  0  0  0  0  0  0  0  0  0
   39.3312  -28.3003   14.2712 H   0  0  0  0  0  0  0  0  0  0  0  0
   36.9743  -27.4968   14.2612 H   0  0  0  0  0  0  0  0  0  0  0  0
   38.0578  -26.9522    8.0212 H   0  0  0  0  0  0  0  0  0  0  0  0
   36.2344  -26.1044    6.5505 H   0  0  0  0  0  0  0  0  0  0  0  0
   34.0180  -25.5401    7.4903 H   0  0  0  0  0  0  0  0  0  0  0  0
   33.5807  -25.7725    9.9374 H   0  0  0  0  0  0  0  0  0  0  0  0
   41.6313  -27.5497    7.8046 H   0  0  0  0  0  0  0  0  0  0  0  0
   42.3268  -24.0009    7.9248 H   0  0  0  0  0  0  0  0  0  0  0  0
   44.5834  -23.0652    8.3547 H   0  0  0  0  0  0  0  0  0  0  0  0
   40.7263  -26.0046   10.1657 H   0  0  0  0  0  0  0  0  0  0  0  0
  1 12  1  0
  1 15  1  0
  1 24  2  0
  2  3  2  0
  2 22  1  0
  3  4  1  0
  4 20  2  0
  5 19  1  0
  5 25  1  0
  5 26  2  0
  6  7  2  0
  6 17  1  0
  7  8  1  0
  8 12  2  0
  9 10  2  0
  9 15  1  0
  9 16  1  0
 10 11  1  0
 11 13  2  0
 12 16  1  0
 13 14  1  0
 14 15  2  0
 16 17  2  0
 17 18  1  0
 18 23  1  0
 18 27  2  0
 19 20  1  0
 19 23  1  0
 20 21  1  0
 21 22  2  0
  2 28  1  0
  3 29  1  0
  4 30  1  0
  6 31  1  0
  7 32  1  0
  8 33  1  0
 10 34  1  0
 11 35  1  0
 13 36  1  0
 14 37  1  0
 19 38  1  6
 21 39  1  0
 22 40  1  0
 23 41  1  0
M  CHG  1  25  -1
M  END
>  <filename_input>  (8) 
7OFF_VCB_docked.sdf

>  <pdb_id>  (8) 
7OFF_VCB

>  <pose_rank>  (8) 
7

>  <num_atoms_heavy>  (8) 
27

>  <num_torsions>  (8) 
4

>  <pose>  (8) 
[35.594453800865224, -26.69402624170933, 11.810288949266821, 0.9213138304953197, -0.4952658857418491, 2.3627597100070483, -2.923643649038231, -6.943582673861805, 1.712758110937343, 3.203904700090098]

>  <energy>  (8) 
-615.1733430084829

>  <inter_energy>  (8) 
-628.2838298882708

>  <intra_energy>  (8) 
9.814795797954005

>  <rmsd>  (8) 
6.48381

>  <sdf_rank>  (8) 
0

$$$$

     RDKit          3D

 41 44  0  0  0  0  0  0  0  0999 V2000
   35.1651  -26.4227   12.2139 C   0  0  0  0  0  0  0  0  0  0  0  0
   43.3603  -25.0937   11.4480 C   0  0  0  0  0  0  0  0  0  0  0  0
   43.6012  -26.2316   10.7174 C   0  0  0  0  0  0  0  0  0  0  0  0
   42.7374  -26.6100    9.7046 C   0  0  0  0  0  0  0  0  0  0  0  0
   40.8955  -25.2365    7.1003 C   0  0  0  0  0  0  0  0  0  0  0  0
   36.0561  -26.8559    8.0952 C   0  0  0  0  0  0  0  0  0  0  0  0
   34.7320  -26.5847    8.4134 C   0  0  0  0  0  0  0  0  0  0  0  0
   34.3355  -26.4336    9.7329 C   0  0  0  0  0  0  0  0  0  0  0  0
   37.4093  -26.8694   11.6641 C   0  0  0  0  0  0  0  0  0  0  0  0
   38.7652  -27.1058   11.9009 C   0  0  0  0  0  0  0  0  0  0  0  0
   39.2197  -27.1144   13.2116 C   0  0  0  0  0  0  0  0  0  0  0  0
   35.2879  -26.5419   10.7290 C   0  0  0  0  0  0  0  0  0  0  0  0
   38.3523  -26.8770   14.2672 C   0  0  0  0  0  0  0  0  0  0  0  0
   37.0030  -26.6342   14.0394 C   0  0  0  0  0  0  0  0  0  0  0  0
   36.5488  -26.6341   12.7365 C   0  0  0  0  0  0  0  0  0  0  0  0
   36.6389  -26.8101   10.4146 C   0  0  0  0  0  0  0  0  0  0  0  0
   37.0283  -26.9649    9.0919 C   0  0  0  0  0  0  0  0  0  0  0  0
   38.4574  -27.2558    8.7530 C   0  0  0  0  0  0  0  0  0  0  0  0
   40.6811  -26.2128    8.2846 C   0  0  1  0  0  0  0  0  0  0  0  0
   41.6276  -25.8372    9.4097 C   0  0  0  0  0  0  0  0  0  0  0  0
   41.3956  -24.6914   10.1498 C   0  0  0  0  0  0  0  0  0  0  0  0
   42.2542  -24.3222   11.1719 C   0  0  0  0  0  0  0  0  0  0  0  0
   39.2695  -26.1741    8.6525 N   0  0  0  0  0  0  0  0  0  0  0  0
   34.1549  -26.2080   12.8524 O   0  0  0  0  0  0  0  0  0  0  0  0
   42.0268  -24.6880    7.0005 O   0  0  0  0  0  0  0  0  0  0  0  0
   39.9521  -25.0742    6.3137 O   0  0  0  0  0  0  0  0  0  0  0  0
   38.8463  -28.4170    8.6044 O   0  0  0  0  0  0  0  0  0  0  0  0
   44.0503  -24.7993   12.2525 H   0  0  0  0  0  0  0  0  0  0  0  0
   44.4863  -26.8460   10.9388 H   0  0  0  0  0  0  0  0  0  0  0  0
   42.9335  -27.5284    9.1318 H   0  0  0  0  0  0  0  0  0  0  0  0
   36.3439  -26.9870    7.0416 H   0  0  0  0  0  0  0  0  0  0  0  0
   33.9886  -26.4886    7.6084 H   0  0  0  0  0  0  0  0  0  0  0  0
   33.2834  -26.2315    9.9827 H   0  0  0  0  0  0  0  0  0  0  0  0
   39.4586  -27.2817   11.0653 H   0  0  0  0  0  0  0  0  0  0  0  0
   40.2823  -27.3121   13.4163 H   0  0  0  0  0  0  0  0  0  0  0  0
   38.7369  -26.8810   15.2978 H   0  0  0  0  0  0  0  0  0  0  0  0
   36.3146  -26.4468   14.8766 H   0  0  0  0  0  0  0  0  0  0  0  0
   40.9175  -27.2541    8.0204 H   0  0  0  0  0  0  0  0  0  0  0  0
   40.5189  -24.0666    9.9239 H   0  0  0  0  0  0  0  0  0  0  0  0
   42.0530  -23.4153   11.7611 H   0  0  0  0  0  0  0  0  0  0  0  0
   38.8569  -25.2516    8.8517 H   0  0  0  0  0  0  0  0  0  0  0  0
  1 12  1  0
  1 15  1  0
  1 24  2  0
  2  3  2  0
  2 22  1  0
  3  4  1  0
  4 20  2  0
  5 19  1  0
  5 25  1  0
  5 26  2  0
  6  7  2  0
  6 17  1  0
  7  8  1  0
  8 12  2  0
  9 10  2  0
  9 15  1  0
  9 16  1  0
 10 11  1  0
 11 13  2  0
 12 16  1  0
 13 14  1  0
 14 15  2  0
 16 17  2  0
 17 18  1  0
 18 23  1  0
 18 27  2  0
 19 20  1  0
 19 23  1  0
 20 21  1  0
 21 22  2  0
  2 28  1  0
  3 29  1  0
  4 30  1  0
  6 31  1  0
  7 32  1  0
  8 33  1  0
 10 34  1  0
 11 35  1  0
 13 36  1  0
 14 37  1  0
 19 38  1  6
 21 39  1  0
 22 40  1  0
 23 41  1  0
M  CHG  1  25  -1
M  END
>  <filename_input>  (9) 
7OFF_VCB_docked.sdf

>  <pdb_id>  (9) 
7OFF_VCB

>  <pose_rank>  (9) 
8

>  <num_atoms_heavy>  (9) 
27

>  <num_torsions>  (9) 
4

>  <pose>  (9) 
[35.16506265000786, -26.422683007245265, 12.213871779692361, -0.015893858945403565, -2.619727082968499, -0.37569250789796615, 0.130485998672463, -0.14134504486758387, 2.626384629449718, 2.185076315950532]

>  <energy>  (9) 
-603.4109600424189

>  <inter_energy>  (9) 
-611.9808703533275

>  <intra_energy>  (9) 
8.546350957970027

>  <rmsd>  (9) 
6.91749

>  <sdf_rank>  (9) 
0

$$$$

     RDKit          3D

 41 44  0  0  0  0  0  0  0  0999 V2000
   35.2489  -25.1929   12.5790 C   0  0  0  0  0  0  0  0  0  0  0  0
   42.7972  -23.3199    9.6549 C   0  0  0  0  0  0  0  0  0  0  0  0
   41.8566  -23.2515    8.6564 C   0  0  0  0  0  0  0  0  0  0  0  0
   41.1213  -24.3711    8.3085 C   0  0  0  0  0  0  0  0  0  0  0  0
   40.4597  -26.9666    7.0920 C   0  0  0  0  0  0  0  0  0  0  0  0
   36.1803  -28.2015    9.7460 C   0  0  0  0  0  0  0  0  0  0  0  0
   34.8335  -28.0207   10.0317 C   0  0  0  0  0  0  0  0  0  0  0  0
   34.4245  -27.0674   10.9511 C   0  0  0  0  0  0  0  0  0  0  0  0
   37.5282  -25.4976   12.0784 C   0  0  0  0  0  0  0  0  0  0  0  0
   38.9023  -25.2631   12.1629 C   0  0  0  0  0  0  0  0  0  0  0  0
   39.3571  -24.2799   13.0296 C   0  0  0  0  0  0  0  0  0  0  0  0
   35.3833  -26.2861   11.5685 C   0  0  0  0  0  0  0  0  0  0  0  0
   38.4681  -23.5314   13.7862 C   0  0  0  0  0  0  0  0  0  0  0  0
   37.0988  -23.7540   13.7027 C   0  0  0  0  0  0  0  0  0  0  0  0
   36.6464  -24.7376   12.8472 C   0  0  0  0  0  0  0  0  0  0  0  0
   36.7554  -26.4575   11.2787 C   0  0  0  0  0  0  0  0  0  0  0  0
   37.1584  -27.4168   10.3608 C   0  0  0  0  0  0  0  0  0  0  0  0
   38.6115  -27.6075   10.0544 C   0  0  0  0  0  0  0  0  0  0  0  0
   40.5046  -26.8036    8.6324 C   0  0  1  0  0  0  0  0  0  0  0  0
   41.3184  -25.5690    8.9733 C   0  0  0  0  0  0  0  0  0  0  0  0
   42.2665  -25.6265    9.9793 C   0  0  0  0  0  0  0  0  0  0  0  0
   43.0107  -24.5080   10.3164 C   0  0  0  0  0  0  0  0  0  0  0  0
   39.1309  -26.7688    9.1235 N   0  0  0  0  0  0  0  0  0  0  0  0
   34.2233  -24.7746   13.0765 O   0  0  0  0  0  0  0  0  0  0  0  0
   39.3266  -26.9292    6.5392 O   0  0  0  0  0  0  0  0  0  0  0  0
   41.5390  -27.0994    6.4983 O   0  0  0  0  0  0  0  0  0  0  0  0
   39.2730  -28.4652   10.6448 O   0  0  0  0  0  0  0  0  0  0  0  0
   43.3792  -22.4265    9.9255 H   0  0  0  0  0  0  0  0  0  0  0  0
   41.6867  -22.3008    8.1298 H   0  0  0  0  0  0  0  0  0  0  0  0
   40.3773  -24.3087    7.5006 H   0  0  0  0  0  0  0  0  0  0  0  0
   36.4815  -28.9749    9.0240 H   0  0  0  0  0  0  0  0  0  0  0  0
   34.0819  -28.6416    9.5222 H   0  0  0  0  0  0  0  0  0  0  0  0
   33.3578  -26.9352   11.1849 H   0  0  0  0  0  0  0  0  0  0  0  0
   39.6096  -25.8461   11.5546 H   0  0  0  0  0  0  0  0  0  0  0  0
   40.4373  -24.0916   13.1178 H   0  0  0  0  0  0  0  0  0  0  0  0
   38.8514  -22.7517   14.4608 H   0  0  0  0  0  0  0  0  0  0  0  0
   36.3935  -23.1611   14.3034 H   0  0  0  0  0  0  0  0  0  0  0  0
   41.0045  -27.6471    9.1311 H   0  0  0  0  0  0  0  0  0  0  0  0
   42.4311  -26.5715   10.5178 H   0  0  0  0  0  0  0  0  0  0  0  0
   43.7698  -24.5690   11.1102 H   0  0  0  0  0  0  0  0  0  0  0  0
   38.5058  -26.0499    8.7320 H   0  0  0  0  0  0  0  0  0  0  0  0
  1 12  1  0
  1 15  1  0
  1 24  2  0
  2  3  2  0
  2 22  1  0
  3  4  1  0
  4 20  2  0
  5 19  1  0
  5 25  1  0
  5 26  2  0
  6  7  2  0
  6 17  1  0
  7  8  1  0
  8 12  2  0
  9 10  2  0
  9 15  1  0
  9 16  1  0
 10 11  1  0
 11 13  2  0
 12 16  1  0
 13 14  1  0
 14 15  2  0
 16 17  2  0
 17 18  1  0
 18 23  1  0
 18 27  2  0
 19 20  1  0
 19 23  1  0
 20 21  1  0
 21 22  2  0
  2 28  1  0
  3 29  1  0
  4 30  1  0
  6 31  1  0
  7 32  1  0
  8 33  1  0
 10 34  1  0
 11 35  1  0
 13 36  1  0
 14 37  1  0
 19 38  1  1
 21 39  1  0
 22 40  1  0
 23 41  1  0
M  CHG  1  25  -1
M  END
>  <filename_input>  (10) 
7OFF_VCB_docked.sdf

>  <pdb_id>  (10) 
7OFF_VCB

>  <pose_rank>  (10) 
9

>  <num_atoms_heavy>  (10) 
27

>  <num_torsions>  (10) 
4

>  <pose>  (10) 
[35.24887323206729, -25.192869458743264, 12.578972483914947, -0.027421381813664214, 3.589260681181619, -1.0039688175993777, 0.145942137194362, -0.1976015051790401, -0.9842878821145027, -0.340990009069032]

>  <energy>  (10) 
-544.4809119008057

>  <inter_energy>  (10) 
-543.7714430316618

>  <intra_energy>  (10) 
5.775786925452096

>  <rmsd>  (10) 
6.60698

>  <sdf_rank>  (10) 
0

$$$$

     RDKit          3D

 41 44  0  0  0  0  0  0  0  0999 V2000
   38.8661  -26.7157   11.0535 C   0  0  0  0  0  0  0  0  0  0  0  0
   43.5372  -20.9857   16.1777 C   0  0  0  0  0  0  0  0  0  0  0  0
   43.7153  -22.3470   16.2183 C   0  0  0  0  0  0  0  0  0  0  0  0
   44.1075  -23.0365   15.0843 C   0  0  0  0  0  0  0  0  0  0  0  0
   45.6462  -22.1166   11.7889 C   0  0  0  0  0  0  0  0  0  0  0  0
   42.3250  -24.8702    9.4486 C   0  0  0  0  0  0  0  0  0  0  0  0
   41.3017  -25.1457    8.5513 C   0  0  0  0  0  0  0  0  0  0  0  0
   40.1314  -25.7560    8.9746 C   0  0  0  0  0  0  0  0  0  0  0  0
   40.6005  -26.2328   12.5691 C   0  0  0  0  0  0  0  0  0  0  0  0
   41.2464  -26.1856   13.8065 C   0  0  0  0  0  0  0  0  0  0  0  0
   40.5938  -26.7003   14.9173 C   0  0  0  0  0  0  0  0  0  0  0  0
   39.9939  -26.0718   10.3134 C   0  0  0  0  0  0  0  0  0  0  0  0
   39.3195  -27.2366   14.8090 C   0  0  0  0  0  0  0  0  0  0  0  0
   38.6675  -27.2810   13.5826 C   0  0  0  0  0  0  0  0  0  0  0  0
   39.3194  -26.7770   12.4759 C   0  0  0  0  0  0  0  0  0  0  0  0
   41.0265  -25.7885   11.2352 C   0  0  0  0  0  0  0  0  0  0  0  0
   42.1974  -25.1817   10.8040 C   0  0  0  0  0  0  0  0  0  0  0  0
   43.2977  -24.8849   11.7751 C   0  0  0  0  0  0  0  0  0  0  0  0
   44.7967  -23.0852   12.6502 C   0  0  1  0  0  0  0  0  0  0  0  0
   44.3367  -22.3578   13.9000 C   0  0  0  0  0  0  0  0  0  0  0  0
   44.1571  -20.9862   13.8705 C   0  0  0  0  0  0  0  0  0  0  0  0
   43.7513  -20.3003   15.0033 C   0  0  0  0  0  0  0  0  0  0  0  0
   43.7098  -23.5935   11.8198 N   0  0  0  0  0  0  0  0  0  0  0  0
   37.8142  -27.1089   10.5918 O   0  0  0  0  0  0  0  0  0  0  0  0
   45.1158  -21.6586   10.7402 O   0  0  0  0  0  0  0  0  0  0  0  0
   46.7821  -21.8347   12.1955 O   0  0  0  0  0  0  0  0  0  0  0  0
   43.7627  -25.7746   12.4920 O   0  0  0  0  0  0  0  0  0  0  0  0
   43.2241  -20.4440   17.0824 H   0  0  0  0  0  0  0  0  0  0  0  0
   43.5449  -22.8926   17.1581 H   0  0  0  0  0  0  0  0  0  0  0  0
   44.2377  -24.1280   15.1244 H   0  0  0  0  0  0  0  0  0  0  0  0
   43.2506  -24.3992    9.0861 H   0  0  0  0  0  0  0  0  0  0  0  0
   41.4212  -24.8763    7.4916 H   0  0  0  0  0  0  0  0  0  0  0  0
   39.3277  -25.9847    8.2592 H   0  0  0  0  0  0  0  0  0  0  0  0
   42.2519  -25.7493   13.8985 H   0  0  0  0  0  0  0  0  0  0  0  0
   41.0938  -26.6828   15.8970 H   0  0  0  0  0  0  0  0  0  0  0  0
   38.8186  -27.6317   15.7051 H   0  0  0  0  0  0  0  0  0  0  0  0
   37.6571  -27.7071   13.4963 H   0  0  0  0  0  0  0  0  0  0  0  0
   45.3724  -23.9559   12.9971 H   0  0  0  0  0  0  0  0  0  0  0  0
   44.3386  -20.4341   12.9366 H   0  0  0  0  0  0  0  0  0  0  0  0
   43.6006  -19.2113   14.9646 H   0  0  0  0  0  0  0  0  0  0  0  0
   43.2160  -22.9175   11.2196 H   0  0  0  0  0  0  0  0  0  0  0  0
  1 12  1  0
  1 15  1  0
  1 24  2  0
  2  3  2  0
  2 22  1  0
  3  4  1  0
  4 20  2  0
  5 19  1  0
  5 25  1  0
  5 26  2  0
  6  7  2  0
  6 17  1  0
  7  8  1  0
  8 12  2  0
  9 10  2  0
  9 15  1  0
  9 16  1  0
 10 11  1  0
 11 13  2  0
 12 16  1  0
 13 14  1  0
 14 15  2  0
 16 17  2  0
 17 18  1  0
 18 23  1  0
 18 27  2  0
 19 20  1  0
 19 23  1  0
 20 21  1  0
 21 22  2  0
  2 28  1  0
  3 29  1  0
  4 30  1  0
  6 31  1  0
  7 32  1  0
  8 33  1  0
 10 34  1  0
 11 35  1  0
 13 36  1  0
 14 37  1  0
 19 38  1  1
 21 39  1  0
 22 40  1  0
 23 41  1  0
M  CHG  1  25  -1
M  END
>  <filename_input>  (11) 
7OFF_VCB_docked.sdf

>  <pdb_id>  (11) 
7OFF_VCB

>  <pose_rank>  (11) 
10

>  <num_atoms_heavy>  (11) 
27

>  <num_torsions>  (11) 
4

>  <pose>  (11) 
[38.86611436139358, -26.715686759824564, 11.053483144257594, -0.9103999362530444, 2.554740348411899, 0.6036243376395961, -0.5656871916260107, 0.0335498572178857, -4.4196851867579925, -0.11778150091670032]

>  <energy>  (11) 
-163.58356001187042

>  <inter_energy>  (11) 
-188.58266687542593

>  <intra_energy>  (11) 
27.09765545385001

>  <rmsd>  (11) 
8.14617

>  <sdf_rank>  (11) 
0

$$$$

     RDKit          3D

 41 44  0  0  0  0  0  0  0  0999 V2000
   42.0545  -25.1459    9.2200 C   0  0  0  0  0  0  0  0  0  0  0  0
   34.0801  -26.4860    7.6331 C   0  0  0  0  0  0  0  0  0  0  0  0
   33.6819  -25.9015    8.8104 C   0  0  0  0  0  0  0  0  0  0  0  0
   34.2775  -26.2595   10.0072 C   0  0  0  0  0  0  0  0  0  0  0  0
   35.0991  -27.1460   12.5151 C   0  0  0  0  0  0  0  0  0  0  0  0
   39.5553  -25.0176   12.6381 C   0  0  0  0  0  0  0  0  0  0  0  0
   40.8871  -24.6779   12.8361 C   0  0  0  0  0  0  0  0  0  0  0  0
   41.7887  -24.6967   11.7834 C   0  0  0  0  0  0  0  0  0  0  0  0
   39.7927  -25.7072    8.8916 C   0  0  0  0  0  0  0  0  0  0  0  0
   38.6599  -26.1015    8.1762 C   0  0  0  0  0  0  0  0  0  0  0  0
   38.7859  -26.3544    6.8179 C   0  0  0  0  0  0  0  0  0  0  0  0
   41.3335  -25.0449   10.5254 C   0  0  0  0  0  0  0  0  0  0  0  0
   40.0060  -26.2041    6.1762 C   0  0  0  0  0  0  0  0  0  0  0  0
   41.1363  -25.8056    6.8797 C   0  0  0  0  0  0  0  0  0  0  0  0
   41.0136  -25.5622    8.2323 C   0  0  0  0  0  0  0  0  0  0  0  0
   39.9787  -25.3848   10.3127 C   0  0  0  0  0  0  0  0  0  0  0  0
   39.0824  -25.3685   11.3717 C   0  0  0  0  0  0  0  0  0  0  0  0
   37.6469  -25.7340   11.1536 C   0  0  0  0  0  0  0  0  0  0  0  0
   35.9812  -27.5911   11.3213 C   0  0  1  0  0  0  0  0  0  0  0  0
   35.2905  -27.2025   10.0271 C   0  0  0  0  0  0  0  0  0  0  0  0
   35.6861  -27.7834    8.8353 C   0  0  0  0  0  0  0  0  0  0  0  0
   35.0790  -27.4332    7.6406 C   0  0  0  0  0  0  0  0  0  0  0  0
   37.3050  -27.0019   11.4930 N   0  0  0  0  0  0  0  0  0  0  0  0
   43.2333  -24.9403    9.0142 O   0  0  0  0  0  0  0  0  0  0  0  0
   35.5094  -26.1743   13.2067 O   0  0  0  0  0  0  0  0  0  0  0  0
   34.0366  -27.7556   12.7011 O   0  0  0  0  0  0  0  0  0  0  0  0
   36.8453  -24.9056   10.7144 O   0  0  0  0  0  0  0  0  0  0  0  0
   33.6016  -26.1978    6.6855 H   0  0  0  0  0  0  0  0  0  0  0  0
   32.8844  -25.1439    8.8020 H   0  0  0  0  0  0  0  0  0  0  0  0
   33.9446  -25.7930   10.9461 H   0  0  0  0  0  0  0  0  0  0  0  0
   38.8620  -25.0102   13.4920 H   0  0  0  0  0  0  0  0  0  0  0  0
   41.2308  -24.3904   13.8406 H   0  0  0  0  0  0  0  0  0  0  0  0
   42.8458  -24.4395   11.9459 H   0  0  0  0  0  0  0  0  0  0  0  0
   37.6877  -26.2092    8.6793 H   0  0  0  0  0  0  0  0  0  0  0  0
   37.9062  -26.6784    6.2424 H   0  0  0  0  0  0  0  0  0  0  0  0
   40.0801  -26.4027    5.0968 H   0  0  0  0  0  0  0  0  0  0  0  0
   42.1044  -25.6873    6.3711 H   0  0  0  0  0  0  0  0  0  0  0  0
   36.1161  -28.6821   11.2807 H   0  0  0  0  0  0  0  0  0  0  0  0
   36.4920  -28.5320    8.8366 H   0  0  0  0  0  0  0  0  0  0  0  0
   35.3941  -27.9104    6.7009 H   0  0  0  0  0  0  0  0  0  0  0  0
   38.0385  -27.5963   11.9048 H   0  0  0  0  0  0  0  0  0  0  0  0
  1 12  1  0
  1 15  1  0
  1 24  2  0
  2  3  2  0
  2 22  1  0
  3  4  1  0
  4 20  2  0
  5 19  1  0
  5 25  1  0
  5 26  2  0
  6  7  2  0
  6 17  1  0
  7  8  1  0
  8 12  2  0
  9 10  2  0
  9 15  1  0
  9 16  1  0
 10 11  1  0
 11 13  2  0
 12 16  1  0
 13 14  1  0
 14 15  2  0
 16 17  2  0
 17 18  1  0
 18 23  1  0
 18 27  2  0
 19 20  1  0
 19 23  1  0
 20 21  1  0
 21 22  2  0
  2 28  1  0
  3 29  1  0
  4 30  1  0
  6 31  1  0
  7 32  1  0
  8 33  1  0
 10 34  1  0
 11 35  1  0
 13 36  1  0
 14 37  1  0
 19 38  1  6
 21 39  1  0
 22 40  1  0
 23 41  1  0
M  CHG  1  25  -1
M  END
>  <filename_input>  (12) 
7OFF_VCB_docked.sdf

>  <pdb_id>  (12) 
7OFF_VCB

>  <pose_rank>  (12) 
11

>  <num_atoms_heavy>  (12) 
27

>  <num_torsions>  (12) 
4

>  <pose>  (12) 
[42.05448693729538, -25.145924194860907, 9.220033383744573, 5.741307925035289, -0.883751250358326, 0.4155926787781884, -2.940369060257484, -3.778585354026784, 4.801312491135114, 6.121564695383913]

>  <energy>  (12) 
-588.7867775966446

>  <inter_energy>  (12) 
-633.5938981632974

>  <intra_energy>  (12) 
58.68546738789949

>  <rmsd>  (12) 
2.17704

>  <sdf_rank>  (12) 
0

$$$$

     RDKit          3D

 41 44  0  0  0  0  0  0  0  0999 V2000
   36.5143  -26.7734    8.9769 C   0  0  0  0  0  0  0  0  0  0  0  0
   44.0198  -25.5536   12.1945 C   0  0  0  0  0  0  0  0  0  0  0  0
   43.0129  -26.4875   12.1738 C   0  0  0  0  0  0  0  0  0  0  0  0
   41.8149  -26.2409   12.8214 C   0  0  0  0  0  0  0  0  0  0  0  0
   40.2892  -25.4256   15.5660 C   0  0  0  0  0  0  0  0  0  0  0  0
   35.8298  -25.0966   12.8065 C   0  0  0  0  0  0  0  0  0  0  0  0
   34.7472  -25.7279   12.2084 C   0  0  0  0  0  0  0  0  0  0  0  0
   34.8650  -26.3013   10.9519 C   0  0  0  0  0  0  0  0  0  0  0  0
   38.3469  -25.7129   10.0042 C   0  0  0  0  0  0  0  0  0  0  0  0
   39.6597  -25.2518   10.1245 C   0  0  0  0  0  0  0  0  0  0  0  0
   40.5443  -25.4841    9.0814 C   0  0  0  0  0  0  0  0  0  0  0  0
   36.0880  -26.2477   10.3096 C   0  0  0  0  0  0  0  0  0  0  0  0
   40.1423  -26.1743    7.9477 C   0  0  0  0  0  0  0  0  0  0  0  0
   38.8397  -26.6423    7.8234 C   0  0  0  0  0  0  0  0  0  0  0  0
   37.9571  -26.4041    8.8568 C   0  0  0  0  0  0  0  0  0  0  0  0
   37.1972  -25.6142   10.9134 C   0  0  0  0  0  0  0  0  0  0  0  0
   37.0712  -25.0381   12.1693 C   0  0  0  0  0  0  0  0  0  0  0  0
   38.2414  -24.3597   12.8113 C   0  0  0  0  0  0  0  0  0  0  0  0
   40.3008  -24.7350   14.1787 C   0  0  1  0  0  0  0  0  0  0  0  0
   41.6155  -25.0434   13.4863 C   0  0  0  0  0  0  0  0  0  0  0  0
   42.6351  -24.1083   13.4989 C   0  0  0  0  0  0  0  0  0  0  0  0
   43.8381  -24.3632   12.8615 C   0  0  0  0  0  0  0  0  0  0  0  0
   39.1199  -25.1767   13.4441 N   0  0  0  0  0  0  0  0  0  0  0  0
   35.8296  -27.3654    8.1677 O   0  0  0  0  0  0  0  0  0  0  0  0
   40.9425  -24.8730   16.4926 O   0  0  0  0  0  0  0  0  0  0  0  0
   39.6212  -26.4623   15.6842 O   0  0  0  0  0  0  0  0  0  0  0  0
   38.3825  -23.1368   12.7321 O   0  0  0  0  0  0  0  0  0  0  0  0
   44.9699  -25.7566   11.6787 H   0  0  0  0  0  0  0  0  0  0  0  0
   43.1596  -27.4376   11.6392 H   0  0  0  0  0  0  0  0  0  0  0  0
   41.0183  -26.9993   12.8076 H   0  0  0  0  0  0  0  0  0  0  0  0
   35.7077  -24.6354   13.7976 H   0  0  0  0  0  0  0  0  0  0  0  0
   33.7843  -25.7735   12.7382 H   0  0  0  0  0  0  0  0  0  0  0  0
   34.0022  -26.7895   10.4752 H   0  0  0  0  0  0  0  0  0  0  0  0
   39.9856  -24.7153   11.0278 H   0  0  0  0  0  0  0  0  0  0  0  0
   41.5783  -25.1161    9.1545 H   0  0  0  0  0  0  0  0  0  0  0  0
   40.8635  -26.3535    7.1367 H   0  0  0  0  0  0  0  0  0  0  0  0
   38.5203  -27.1890    6.9239 H   0  0  0  0  0  0  0  0  0  0  0  0
   40.2437  -23.6390   14.2531 H   0  0  0  0  0  0  0  0  0  0  0  0
   42.4887  -23.1513   14.0211 H   0  0  0  0  0  0  0  0  0  0  0  0
   44.6457  -23.6168   12.8881 H   0  0  0  0  0  0  0  0  0  0  0  0
   38.9391  -26.1899   13.4027 H   0  0  0  0  0  0  0  0  0  0  0  0
  1 12  1  0
  1 15  1  0
  1 24  2  0
  2  3  2  0
  2 22  1  0
  3  4  1  0
  4 20  2  0
  5 19  1  0
  5 25  1  0
  5 26  2  0
  6  7  2  0
  6 17  1  0
  7  8  1  0
  8 12  2  0
  9 10  2  0
  9 15  1  0
  9 16  1  0
 10 11  1  0
 11 13  2  0
 12 16  1  0
 13 14  1  0
 14 15  2  0
 16 17  2  0
 17 18  1  0
 18 23  1  0
 18 27  2  0
 19 20  1  0
 19 23  1  0
 20 21  1  0
 21 22  2  0
  2 28  1  0
  3 29  1  0
  4 30  1  0
  6 31  1  0
  7 32  1  0
  8 33  1  0
 10 34  1  0
 11 35  1  0
 13 36  1  0
 14 37  1  0
 19 38  1  1
 21 39  1  0
 22 40  1  0
 23 41  1  0
M  CHG  1  25  -1
M  END
>  <filename_input>  (13) 
7OFF_VCB_docked.sdf

>  <pdb_id>  (13) 
7OFF_VCB

>  <pose_rank>  (13) 
12

>  <num_atoms_heavy>  (13) 
27

>  <num_torsions>  (13) 
4

>  <pose>  (13) 
[36.51427753328103, -26.773425001163854, 8.976945317742917, -1.3469944085935455, -0.037207277191151446, 3.1684950194113783, 0.17756757487450642, -0.07672035086127563, 5.9103859666844745, 3.098999129203868]

>  <energy>  (13) 
-378.17472212841403

>  <inter_energy>  (13) 
-384.0807795886767

>  <intra_energy>  (13) 
5.411353168035396

>  <rmsd>  (13) 
6.14101

>  <sdf_rank>  (13) 
0

$$$$

     RDKit          3D

 41 44  0  0  0  0  0  0  0  0999 V2000
   35.8845  -25.8249    8.6194 C   0  0  0  0  0  0  0  0  0  0  0  0
   39.5152  -24.8848   16.5053 C   0  0  0  0  0  0  0  0  0  0  0  0
   40.2852  -24.4536   15.4529 C   0  0  0  0  0  0  0  0  0  0  0  0
   40.6650  -25.3344   14.4554 C   0  0  0  0  0  0  0  0  0  0  0  0
   42.1826  -27.6937   13.2924 C   0  0  0  0  0  0  0  0  0  0  0  0
   39.6926  -27.6458    8.9769 C   0  0  0  0  0  0  0  0  0  0  0  0
   39.3548  -27.1672    7.7179 C   0  0  0  0  0  0  0  0  0  0  0  0
   38.1280  -26.5621    7.4940 C   0  0  0  0  0  0  0  0  0  0  0  0
   36.4712  -26.6273   10.7526 C   0  0  0  0  0  0  0  0  0  0  0  0
   36.3028  -26.8966   12.1126 C   0  0  0  0  0  0  0  0  0  0  0  0
   35.1143  -26.5221   12.7225 C   0  0  0  0  0  0  0  0  0  0  0  0
   37.2503  -26.4285    8.5536 C   0  0  0  0  0  0  0  0  0  0  0  0
   34.1179  -25.8784   12.0043 C   0  0  0  0  0  0  0  0  0  0  0  0
   34.2806  -25.6008   10.6523 C   0  0  0  0  0  0  0  0  0  0  0  0
   35.4589  -25.9807   10.0432 C   0  0  0  0  0  0  0  0  0  0  0  0
   37.5882  -26.9055    9.8399 C   0  0  0  0  0  0  0  0  0  0  0  0
   38.8160  -27.5145   10.0561 C   0  0  0  0  0  0  0  0  0  0  0  0
   39.1770  -28.0279   11.4155 C   0  0  0  0  0  0  0  0  0  0  0  0
   40.6381  -27.6370   13.4065 C   0  0  1  0  0  0  0  0  0  0  0  0
   40.2612  -26.6575   14.5026 C   0  0  0  0  0  0  0  0  0  0  0  0
   39.4835  -27.0811   15.5656 C   0  0  0  0  0  0  0  0  0  0  0  0
   39.1160  -26.2007   16.5697 C   0  0  0  0  0  0  0  0  0  0  0  0
   40.1000  -27.3003   12.0926 N   0  0  0  0  0  0  0  0  0  0  0  0
   35.2580  -25.3244    7.7077 O   0  0  0  0  0  0  0  0  0  0  0  0
   42.8172  -28.1776   14.2692 O   0  0  0  0  0  0  0  0  0  0  0  0
   42.6949  -27.2831   12.2418 O   0  0  0  0  0  0  0  0  0  0  0  0
   38.6346  -29.0371   11.8727 O   0  0  0  0  0  0  0  0  0  0  0  0
   39.2178  -24.1797   17.2955 H   0  0  0  0  0  0  0  0  0  0  0  0
   40.6020  -23.4014   15.4026 H   0  0  0  0  0  0  0  0  0  0  0  0
   41.2902  -24.9817   13.6218 H   0  0  0  0  0  0  0  0  0  0  0  0
   40.6659  -28.1361    9.1265 H   0  0  0  0  0  0  0  0  0  0  0  0
   40.0696  -27.2694    6.8881 H   0  0  0  0  0  0  0  0  0  0  0  0
   37.8581  -26.1954    6.4927 H   0  0  0  0  0  0  0  0  0  0  0  0
   37.0962  -27.3955   12.6884 H   0  0  0  0  0  0  0  0  0  0  0  0
   34.9604  -26.7386   13.7899 H   0  0  0  0  0  0  0  0  0  0  0  0
   33.1871  -25.5838   12.5110 H   0  0  0  0  0  0  0  0  0  0  0  0
   33.4900  -25.0910   10.0822 H   0  0  0  0  0  0  0  0  0  0  0  0
   40.2011  -28.6039   13.6964 H   0  0  0  0  0  0  0  0  0  0  0  0
   39.1532  -28.1292   15.6139 H   0  0  0  0  0  0  0  0  0  0  0  0
   38.5072  -26.5518   17.4159 H   0  0  0  0  0  0  0  0  0  0  0  0
   40.4489  -26.4416   11.6434 H   0  0  0  0  0  0  0  0  0  0  0  0
  1 12  1  0
  1 15  1  0
  1 24  2  0
  2  3  2  0
  2 22  1  0
  3  4  1  0
  4 20  2  0
  5 19  1  0
  5 25  1  0
  5 26  2  0
  6  7  2  0
  6 17  1  0
  7  8  1  0
  8 12  2  0
  9 10  2  0
  9 15  1  0
  9 16  1  0
 10 11  1  0
 11 13  2  0
 12 16  1  0
 13 14  1  0
 14 15  2  0
 16 17  2  0
 17 18  1  0
 18 23  1  0
 18 27  2  0
 19 20  1  0
 19 23  1  0
 20 21  1  0
 21 22  2  0
  2 28  1  0
  3 29  1  0
  4 30  1  0
  6 31  1  0
  7 32  1  0
  8 33  1  0
 10 34  1  0
 11 35  1  0
 13 36  1  0
 14 37  1  0
 19 38  1  1
 21 39  1  0
 22 40  1  0
 23 41  1  0
M  CHG  1  25  -1
M  END
>  <filename_input>  (14) 
7OFF_VCB_docked.sdf

>  <pdb_id>  (14) 
7OFF_VCB

>  <pose_rank>  (14) 
13

>  <num_atoms_heavy>  (14) 
27

>  <num_torsions>  (14) 
4

>  <pose>  (14) 
[35.884492916867096, -25.824888794981277, 8.61943461583176, 0.18211020583099555, 2.1516203817353428, 0.1278378307884975, -6.536218576771652, -6.456325716374106, -0.7765907342257886, -3.387136927680955]

>  <energy>  (14) 
-516.7431630861033

>  <inter_energy>  (14) 
-515.0149635559097

>  <intra_energy>  (14) 
6.3731210898511375

>  <rmsd>  (14) 
6.63266

>  <sdf_rank>  (14) 
0

$$$$

     RDKit          3D

 41 44  0  0  0  0  0  0  0  0999 V2000
   40.9160  -27.4678   11.5241 C   0  0  0  0  0  0  0  0  0  0  0  0
   43.2235  -20.5024    7.8322 C   0  0  0  0  0  0  0  0  0  0  0  0
   42.4261  -20.8749    8.8866 C   0  0  0  0  0  0  0  0  0  0  0  0
   42.9900  -21.3433   10.0604 C   0  0  0  0  0  0  0  0  0  0  0  0
   46.5493  -21.9264   11.2892 C   0  0  0  0  0  0  0  0  0  0  0  0
   44.8411  -26.3335   12.6431 C   0  0  0  0  0  0  0  0  0  0  0  0
   44.3464  -27.4938   13.2238 C   0  0  0  0  0  0  0  0  0  0  0  0
   43.0695  -27.9461   12.9302 C   0  0  0  0  0  0  0  0  0  0  0  0
   41.7678  -25.5097   10.5349 C   0  0  0  0  0  0  0  0  0  0  0  0
   41.7581  -24.3760    9.7193 C   0  0  0  0  0  0  0  0  0  0  0  0
   40.6197  -24.1017    8.9754 C   0  0  0  0  0  0  0  0  0  0  0  0
   42.3006  -27.2280   12.0334 C   0  0  0  0  0  0  0  0  0  0  0  0
   39.5177  -24.9422    9.0247 C   0  0  0  0  0  0  0  0  0  0  0  0
   39.5222  -26.0758    9.8285 C   0  0  0  0  0  0  0  0  0  0  0  0
   40.6509  -26.3445   10.5752 C   0  0  0  0  0  0  0  0  0  0  0  0
   42.7981  -26.0505   11.4317 C   0  0  0  0  0  0  0  0  0  0  0  0
   44.0754  -25.6007   11.7336 C   0  0  0  0  0  0  0  0  0  0  0  0
   44.6056  -24.3499   11.1041 C   0  0  0  0  0  0  0  0  0  0  0  0
   45.0108  -21.9104   11.4738 C   0  0  1  0  0  0  0  0  0  0  0  0
   44.3657  -21.4290   10.1873 C   0  0  0  0  0  0  0  0  0  0  0  0
   45.1600  -21.0488    9.1202 C   0  0  0  0  0  0  0  0  0  0  0  0
   44.5927  -20.5931    7.9417 C   0  0  0  0  0  0  0  0  0  0  0  0
   44.5916  -23.2447   11.8902 N   0  0  0  0  0  0  0  0  0  0  0  0
   40.1695  -28.3767   11.8259 O   0  0  0  0  0  0  0  0  0  0  0  0
   47.2166  -21.0622   11.9207 O   0  0  0  0  0  0  0  0  0  0  0  0
   47.0290  -22.7999   10.5531 O   0  0  0  0  0  0  0  0  0  0  0  0
   45.0424  -24.3611    9.9505 O   0  0  0  0  0  0  0  0  0  0  0  0
   42.7687  -20.1321    6.9016 H   0  0  0  0  0  0  0  0  0  0  0  0
   41.3323  -20.8005    8.7976 H   0  0  0  0  0  0  0  0  0  0  0  0
   42.3426  -21.6487   10.8956 H   0  0  0  0  0  0  0  0  0  0  0  0
   45.8518  -25.9861   12.9036 H   0  0  0  0  0  0  0  0  0  0  0  0
   44.9756  -28.0611   13.9255 H   0  0  0  0  0  0  0  0  0  0  0  0
   42.6756  -28.8586   13.4015 H   0  0  0  0  0  0  0  0  0  0  0  0
   42.6352  -23.7141    9.6678 H   0  0  0  0  0  0  0  0  0  0  0  0
   40.5908  -23.2057    8.3380 H   0  0  0  0  0  0  0  0  0  0  0  0
   38.6290  -24.7087    8.4200 H   0  0  0  0  0  0  0  0  0  0  0  0
   38.6478  -26.7421    9.8685 H   0  0  0  0  0  0  0  0  0  0  0  0
   44.6877  -21.2107   12.2587 H   0  0  0  0  0  0  0  0  0  0  0  0
   46.2548  -21.1090    9.2088 H   0  0  0  0  0  0  0  0  0  0  0  0
   45.2342  -20.3046    7.0960 H   0  0  0  0  0  0  0  0  0  0  0  0
   44.2585  -23.3560   12.8585 H   0  0  0  0  0  0  0  0  0  0  0  0
  1 12  1  0
  1 15  1  0
  1 24  2  0
  2  3  2  0
  2 22  1  0
  3  4  1  0
  4 20  2  0
  5 19  1  0
  5 25  1  0
  5 26  2  0
  6  7  2  0
  6 17  1  0
  7  8  1  0
  8 12  2  0
  9 10  2  0
  9 15  1  0
  9 16  1  0
 10 11  1  0
 11 13  2  0
 12 16  1  0
 13 14  1  0
 14 15  2  0
 16 17  2  0
 17 18  1  0
 18 23  1  0
 18 27  2  0
 19 20  1  0
 19 23  1  0
 20 21  1  0
 21 22  2  0
  2 28  1  0
  3 29  1  0
  4 30  1  0
  6 31  1  0
  7 32  1  0
  8 33  1  0
 10 34  1  0
 11 35  1  0
 13 36  1  0
 14 37  1  0
 19 38  1  1
 21 39  1  0
 22 40  1  0
 23 41  1  0
M  CHG  1  25  -1
M  END
>  <filename_input>  (15) 
7OFF_VCB_docked.sdf

>  <pdb_id>  (15) 
7OFF_VCB

>  <pose_rank>  (15) 
14

>  <num_atoms_heavy>  (15) 
27

>  <num_torsions>  (15) 
4

>  <pose>  (15) 
[40.915954123848174, -27.467807816693345, 11.524135569307605, -1.0440116082705972, 1.0841486969739687, -2.283782534065229, -9.173895493741872, -16.13834923062983, 1.326675284669207, 3.6502538921593053]

>  <energy>  (15) 
-121.32996920177978

>  <inter_energy>  (15) 
-200.42756652413027

>  <intra_energy>  (15) 
76.81645781394407

>  <rmsd>  (15) 
7.35474

>  <sdf_rank>  (15) 
0

$$$$

     RDKit          3D

 41 44  0  0  0  0  0  0  0  0999 V2000
   46.5238  -22.1330   12.6058 C   0  0  0  0  0  0  0  0  0  0  0  0
   37.6767  -26.4760   14.0200 C   0  0  0  0  0  0  0  0  0  0  0  0
   36.9494  -25.3110   14.0349 C   0  0  0  0  0  0  0  0  0  0  0  0
   37.5614  -24.0993   13.7657 C   0  0  0  0  0  0  0  0  0  0  0  0
   39.5670  -22.5253   11.6030 C   0  0  0  0  0  0  0  0  0  0  0  0
   43.5372  -23.5697   15.2442 C   0  0  0  0  0  0  0  0  0  0  0  0
   44.7867  -23.3302   15.8006 C   0  0  0  0  0  0  0  0  0  0  0  0
   45.8344  -22.8670   15.0202 C   0  0  0  0  0  0  0  0  0  0  0  0
   44.3991  -22.5292   11.6745 C   0  0  0  0  0  0  0  0  0  0  0  0
   43.4283  -22.5856   10.6720 C   0  0  0  0  0  0  0  0  0  0  0  0
   43.7803  -22.2104    9.3837 C   0  0  0  0  0  0  0  0  0  0  0  0
   45.6081  -22.6312   13.6770 C   0  0  0  0  0  0  0  0  0  0  0  0
   45.0640  -21.7717    9.0959 C   0  0  0  0  0  0  0  0  0  0  0  0
   46.0337  -21.7062   10.0892 C   0  0  0  0  0  0  0  0  0  0  0  0
   45.6866  -22.0874   11.3690 C   0  0  0  0  0  0  0  0  0  0  0  0
   44.3382  -22.8646   13.1035 C   0  0  0  0  0  0  0  0  0  0  0  0
   43.2950  -23.3329   13.8893 C   0  0  0  0  0  0  0  0  0  0  0  0
   41.9487  -23.5883   13.2858 C   0  0  0  0  0  0  0  0  0  0  0  0
   39.6012  -22.7404   13.1373 C   0  0  1  0  0  0  0  0  0  0  0  0
   38.9118  -24.0517   13.4660 C   0  0  0  0  0  0  0  0  0  0  0  0
   39.6348  -25.2313   13.4510 C   0  0  0  0  0  0  0  0  0  0  0  0
   39.0228  -26.4411   13.7341 C   0  0  0  0  0  0  0  0  0  0  0  0
   40.9923  -22.6704   13.5726 N   0  0  0  0  0  0  0  0  0  0  0  0
   47.6960  -21.8380   12.7201 O   0  0  0  0  0  0  0  0  0  0  0  0
   39.8537  -21.3745   11.1737 O   0  0  0  0  0  0  0  0  0  0  0  0
   39.2839  -23.5011   10.8939 O   0  0  0  0  0  0  0  0  0  0  0  0
   41.7592  -24.5669   12.5590 O   0  0  0  0  0  0  0  0  0  0  0  0
   37.1842  -27.4355   14.2362 H   0  0  0  0  0  0  0  0  0  0  0  0
   35.8736  -25.3412   14.2624 H   0  0  0  0  0  0  0  0  0  0  0  0
   36.9724  -23.1706   13.7900 H   0  0  0  0  0  0  0  0  0  0  0  0
   42.7254  -23.9519   15.8806 H   0  0  0  0  0  0  0  0  0  0  0  0
   44.9471  -23.5104   16.8738 H   0  0  0  0  0  0  0  0  0  0  0  0
   46.8266  -22.6904   15.4611 H   0  0  0  0  0  0  0  0  0  0  0  0
   42.4056  -22.9208   10.8993 H   0  0  0  0  0  0  0  0  0  0  0  0
   43.0313  -22.2614    8.5797 H   0  0  0  0  0  0  0  0  0  0  0  0
   45.3179  -21.4718    8.0684 H   0  0  0  0  0  0  0  0  0  0  0  0
   47.0522  -21.3591    9.8610 H   0  0  0  0  0  0  0  0  0  0  0  0
   39.0519  -21.9601   13.6846 H   0  0  0  0  0  0  0  0  0  0  0  0
   40.7082  -25.2080   13.2114 H   0  0  0  0  0  0  0  0  0  0  0  0
   39.6104  -27.3709   13.7305 H   0  0  0  0  0  0  0  0  0  0  0  0
   41.2700  -21.8592   14.1432 H   0  0  0  0  0  0  0  0  0  0  0  0
  1 12  1  0
  1 15  1  0
  1 24  2  0
  2  3  2  0
  2 22  1  0
  3  4  1  0
  4 20  2  0
  5 19  1  0
  5 25  1  0
  5 26  2  0
  6  7  2  0
  6 17  1  0
  7  8  1  0
  8 12  2  0
  9 10  2  0
  9 15  1  0
  9 16  1  0
 10 11  1  0
 11 13  2  0
 12 16  1  0
 13 14  1  0
 14 15  2  0
 16 17  2  0
 17 18  1  0
 18 23  1  0
 18 27  2  0
 19 20  1  0
 19 23  1  0
 20 21  1  0
 21 22  2  0
  2 28  1  0
  3 29  1  0
  4 30  1  0
  6 31  1  0
  7 32  1  0
  8 33  1  0
 10 34  1  0
 11 35  1  0
 13 36  1  0
 14 37  1  0
 19 38  1  1
 21 39  1  0
 22 40  1  0
 23 41  1  0
M  CHG  1  25  -1
M  END
>  <filename_input>  (16) 
7OFF_VCB_docked.sdf

>  <pdb_id>  (16) 
7OFF_VCB

>  <pose_rank>  (16) 
15

>  <num_atoms_heavy>  (16) 
27

>  <num_torsions>  (16) 
4

>  <pose>  (16) 
[46.523768423997524, -22.13300874686906, 12.605769384216527, 0.4728501748891459, -12.659163492501714, 0.13181055898565228, 6.060911815649062, 2.7279706941195734, -3.3974912527357444, -1.6450057492408359]

>  <energy>  (16) 
-9.396822068258189

>  <inter_energy>  (16) 
-109.3747316760774

>  <intra_energy>  (16) 
102.3785234153168

>  <rmsd>  (16) 
6.05555

>  <sdf_rank>  (16) 
0

$$$$

     RDKit          3D

 41 44  0  0  0  0  0  0  0  0999 V2000
   43.6685  -22.8832    8.3487 C   0  0  0  0  0  0  0  0  0  0  0  0
   34.2933  -26.8753   10.6565 C   0  0  0  0  0  0  0  0  0  0  0  0
   34.9579  -27.9733   10.1673 C   0  0  0  0  0  0  0  0  0  0  0  0
   36.3406  -27.9892   10.1139 C   0  0  0  0  0  0  0  0  0  0  0  0
   39.1059  -27.1525   11.9852 C   0  0  0  0  0  0  0  0  0  0  0  0
   39.4335  -22.9649    8.2911 C   0  0  0  0  0  0  0  0  0  0  0  0
   40.0288  -21.7331    8.0534 C   0  0  0  0  0  0  0  0  0  0  0  0
   41.4083  -21.5983    8.0591 C   0  0  0  0  0  0  0  0  0  0  0  0
   42.6508  -24.9693    8.7374 C   0  0  0  0  0  0  0  0  0  0  0  0
   42.5945  -26.3385    9.0071 C   0  0  0  0  0  0  0  0  0  0  0  0
   43.7838  -27.0328    9.1744 C   0  0  0  0  0  0  0  0  0  0  0  0
   42.1840  -22.7190    8.2902 C   0  0  0  0  0  0  0  0  0  0  0  0
   45.0063  -26.3881    9.0606 C   0  0  0  0  0  0  0  0  0  0  0  0
   45.0709  -25.0274    8.7857 C   0  0  0  0  0  0  0  0  0  0  0  0
   43.8883  -24.3346    8.6277 C   0  0  0  0  0  0  0  0  0  0  0  0
   41.5876  -23.9779    8.5255 C   0  0  0  0  0  0  0  0  0  0  0  0
   40.2060  -24.1051    8.5232 C   0  0  0  0  0  0  0  0  0  0  0  0
   39.5681  -25.4354    8.7784 C   0  0  0  0  0  0  0  0  0  0  0  0
   38.5858  -26.9053   10.5465 C   0  0  1  0  0  0  0  0  0  0  0  0
   37.0683  -26.9019   10.5656 C   0  0  0  0  0  0  0  0  0  0  0  0
   36.3894  -25.8019   11.0589 C   0  0  0  0  0  0  0  0  0  0  0  0
   35.0050  -25.7831   11.0986 C   0  0  0  0  0  0  0  0  0  0  0  0
   39.1805  -25.6657   10.0576 N   0  0  0  0  0  0  0  0  0  0  0  0
   44.5093  -22.0188    8.2068 O   0  0  0  0  0  0  0  0  0  0  0  0
   39.1488  -26.1606   12.7631 O   0  0  0  0  0  0  0  0  0  0  0  0
   39.4241  -28.3109   12.2882 O   0  0  0  0  0  0  0  0  0  0  0  0
   39.3981  -26.2398    7.8587 O   0  0  0  0  0  0  0  0  0  0  0  0
   33.1940  -26.8687   10.6949 H   0  0  0  0  0  0  0  0  0  0  0  0
   34.3873  -28.8456    9.8157 H   0  0  0  0  0  0  0  0  0  0  0  0
   36.8634  -28.8693    9.7111 H   0  0  0  0  0  0  0  0  0  0  0  0
   38.3363  -23.0439    8.2968 H   0  0  0  0  0  0  0  0  0  0  0  0
   39.3978  -20.8535    7.8581 H   0  0  0  0  0  0  0  0  0  0  0  0
   41.8767  -20.6187    7.8831 H   0  0  0  0  0  0  0  0  0  0  0  0
   41.6268  -26.8557    9.0852 H   0  0  0  0  0  0  0  0  0  0  0  0
   43.7567  -28.1091    9.4003 H   0  0  0  0  0  0  0  0  0  0  0  0
   45.9365  -26.9610    9.1895 H   0  0  0  0  0  0  0  0  0  0  0  0
   46.0405  -24.5156    8.6963 H   0  0  0  0  0  0  0  0  0  0  0  0
   38.8814  -27.7025    9.8487 H   0  0  0  0  0  0  0  0  0  0  0  0
   36.9556  -24.9323   11.4238 H   0  0  0  0  0  0  0  0  0  0  0  0
   34.4760  -24.8982   11.4823 H   0  0  0  0  0  0  0  0  0  0  0  0
   39.3169  -24.9048   10.7383 H   0  0  0  0  0  0  0  0  0  0  0  0
  1 12  1  0
  1 15  1  0
  1 24  2  0
  2  3  2  0
  2 22  1  0
  3  4  1  0
  4 20  2  0
  5 19  1  0
  5 25  1  0
  5 26  2  0
  6  7  2  0
  6 17  1  0
  7  8  1  0
  8 12  2  0
  9 10  2  0
  9 15  1  0
  9 16  1  0
 10 11  1  0
 11 13  2  0
 12 16  1  0
 13 14  1  0
 14 15  2  0
 16 17  2  0
 17 18  1  0
 18 23  1  0
 18 27  2  0
 19 20  1  0
 19 23  1  0
 20 21  1  0
 21 22  2  0
  2 28  1  0
  3 29  1  0
  4 30  1  0
  6 31  1  0
  7 32  1  0
  8 33  1  0
 10 34  1  0
 11 35  1  0
 13 36  1  0
 14 37  1  0
 19 38  1  6
 21 39  1  0
 22 40  1  0
 23 41  1  0
M  CHG  1  25  -1
M  END
>  <filename_input>  (17) 
7OFF_VCB_docked.sdf

>  <pdb_id>  (17) 
7OFF_VCB

>  <pose_rank>  (17) 
16

>  <num_atoms_heavy>  (17) 
27

>  <num_torsions>  (17) 
4

>  <pose>  (17) 
[43.66850594438292, -22.883236915000193, 8.348650712888642, -1.7514855245832675, -0.921229137707278, 0.4837583787036928, 3.285284533296439, 6.44468766454544, 2.6900108928844135, 0.31324820356078076]

>  <energy>  (17) 
-430.9932326280313

>  <inter_energy>  (17) 
-441.6759769846747

>  <intra_energy>  (17) 
4.758605415906685

>  <rmsd>  (17) 
4.39811

>  <sdf_rank>  (17) 
0

$$$$

     RDKit          3D

 41 44  0  0  0  0  0  0  0  0999 V2000
   36.3365  -26.1451    7.3637 C   0  0  0  0  0  0  0  0  0  0  0  0
   42.8297  -30.0949   13.5055 C   0  0  0  0  0  0  0  0  0  0  0  0
   43.3736  -29.2493   12.5698 C   0  0  0  0  0  0  0  0  0  0  0  0
   42.7448  -28.0582   12.2520 C   0  0  0  0  0  0  0  0  0  0  0  0
   39.6617  -26.2234   13.5301 C   0  0  0  0  0  0  0  0  0  0  0  0
   40.4500  -26.8936    8.0455 C   0  0  0  0  0  0  0  0  0  0  0  0
   40.0901  -26.5730    6.7432 C   0  0  0  0  0  0  0  0  0  0  0  0
   38.7679  -26.3186    6.4141 C   0  0  0  0  0  0  0  0  0  0  0  0
   36.9578  -26.6763    9.5706 C   0  0  0  0  0  0  0  0  0  0  0  0
   36.7688  -26.9226   10.9323 C   0  0  0  0  0  0  0  0  0  0  0  0
   35.4840  -26.8456   11.4499 C   0  0  0  0  0  0  0  0  0  0  0  0
   37.8128  -26.3740    7.4120 C   0  0  0  0  0  0  0  0  0  0  0  0
   34.4087  -26.5147   10.6391 C   0  0  0  0  0  0  0  0  0  0  0  0
   34.5896  -26.2615    9.2847 C   0  0  0  0  0  0  0  0  0  0  0  0
   35.8659  -26.3463    8.7675 C   0  0  0  0  0  0  0  0  0  0  0  0
   38.1704  -26.6918    8.7413 C   0  0  0  0  0  0  0  0  0  0  0  0
   39.4951  -26.9500    9.0631 C   0  0  0  0  0  0  0  0  0  0  0  0
   39.8791  -27.2937   10.4689 C   0  0  0  0  0  0  0  0  0  0  0  0
   40.8725  -26.3875   12.5769 C   0  0  1  0  0  0  0  0  0  0  0  0
   41.5664  -27.7015   12.8845 C   0  0  0  0  0  0  0  0  0  0  0  0
   41.0282  -28.5591   13.8274 C   0  0  0  0  0  0  0  0  0  0  0  0
   41.6524  -29.7570   14.1338 C   0  0  0  0  0  0  0  0  0  0  0  0
   40.3867  -26.2743   11.2056 N   0  0  0  0  0  0  0  0  0  0  0  0
   35.6683  -25.8641    6.3897 O   0  0  0  0  0  0  0  0  0  0  0  0
   39.7558  -25.3554   14.4404 O   0  0  0  0  0  0  0  0  0  0  0  0
   38.6699  -26.9368   13.3245 O   0  0  0  0  0  0  0  0  0  0  0  0
   39.7103  -28.4343   10.9075 O   0  0  0  0  0  0  0  0  0  0  0  0
   43.3340  -31.0408   13.7524 H   0  0  0  0  0  0  0  0  0  0  0  0
   44.3151  -29.5206   12.0697 H   0  0  0  0  0  0  0  0  0  0  0  0
   43.1831  -27.3924   11.4939 H   0  0  0  0  0  0  0  0  0  0  0  0
   41.5035  -27.1064    8.2792 H   0  0  0  0  0  0  0  0  0  0  0  0
   40.8639  -26.5202    5.9631 H   0  0  0  0  0  0  0  0  0  0  0  0
   38.4841  -26.0775    5.3791 H   0  0  0  0  0  0  0  0  0  0  0  0
   37.6212  -27.1727   11.5810 H   0  0  0  0  0  0  0  0  0  0  0  0
   35.3160  -27.0496   12.5177 H   0  0  0  0  0  0  0  0  0  0  0  0
   33.4001  -26.4519   11.0734 H   0  0  0  0  0  0  0  0  0  0  0  0
   33.7367  -25.9999    8.6411 H   0  0  0  0  0  0  0  0  0  0  0  0
   41.6291  -25.6015   12.7174 H   0  0  0  0  0  0  0  0  0  0  0  0
   40.0938  -28.2865   14.3397 H   0  0  0  0  0  0  0  0  0  0  0  0
   41.2089  -30.4361   14.8768 H   0  0  0  0  0  0  0  0  0  0  0  0
   40.4329  -25.3460   10.7616 H   0  0  0  0  0  0  0  0  0  0  0  0
  1 12  1  0
  1 15  1  0
  1 24  2  0
  2  3  2  0
  2 22  1  0
  3  4  1  0
  4 20  2  0
  5 19  1  0
  5 25  1  0
  5 26  2  0
  6  7  2  0
  6 17  1  0
  7  8  1  0
  8 12  2  0
  9 10  2  0
  9 15  1  0
  9 16  1  0
 10 11  1  0
 11 13  2  0
 12 16  1  0
 13 14  1  0
 14 15  2  0
 16 17  2  0
 17 18  1  0
 18 23  1  0
 18 27  2  0
 19 20  1  0
 19 23  1  0
 20 21  1  0
 21 22  2  0
  2 28  1  0
  3 29  1  0
  4 30  1  0
  6 31  1  0
  7 32  1  0
  8 33  1  0
 10 34  1  0
 11 35  1  0
 13 36  1  0
 14 37  1  0
 19 38  1  1
 21 39  1  0
 22 40  1  0
 23 41  1  0
M  CHG  1  25  -1
M  END
>  <filename_input>  (18) 
7OFF_VCB_docked.sdf

>  <pdb_id>  (18) 
7OFF_VCB

>  <pose_rank>  (18) 
17

>  <num_atoms_heavy>  (18) 
27

>  <num_torsions>  (18) 
4

>  <pose>  (18) 
[36.33651618162468, -26.14510866129806, 7.363729208754293, 0.26191157129101467, -4.131261248369901, -0.4444462917057471, -6.402599614400281, -3.848092237743381, 1.4393044805211608, -2.6536752451630217]

>  <energy>  (18) 
-446.0728550132735

>  <inter_energy>  (18) 
-502.96397262861115

>  <intra_energy>  (18) 
67.1601501915712

>  <rmsd>  (18) 
6.42786

>  <sdf_rank>  (18) 
0

$$$$

     RDKit          3D

 41 44  0  0  0  0  0  0  0  0999 V2000
   33.8570  -25.5012   12.5738 C   0  0  0  0  0  0  0  0  0  0  0  0
   42.0567  -25.5219    7.1097 C   0  0  0  0  0  0  0  0  0  0  0  0
   42.4314  -24.8430    8.2433 C   0  0  0  0  0  0  0  0  0  0  0  0
   41.8953  -25.1828    9.4731 C   0  0  0  0  0  0  0  0  0  0  0  0
   41.1107  -27.9277   11.3900 C   0  0  0  0  0  0  0  0  0  0  0  0
   36.0752  -27.5799    9.6235 C   0  0  0  0  0  0  0  0  0  0  0  0
   34.7504  -27.9643    9.7822 C   0  0  0  0  0  0  0  0  0  0  0  0
   33.9417  -27.3520   10.7269 C   0  0  0  0  0  0  0  0  0  0  0  0
   36.0997  -24.8475   12.2884 C   0  0  0  0  0  0  0  0  0  0  0  0
   37.2628  -24.1138   12.5323 C   0  0  0  0  0  0  0  0  0  0  0  0
   37.2382  -23.1360   13.5161 C   0  0  0  0  0  0  0  0  0  0  0  0
   34.4747  -26.3371   11.4995 C   0  0  0  0  0  0  0  0  0  0  0  0
   36.0800  -22.8774   14.2336 C   0  0  0  0  0  0  0  0  0  0  0  0
   34.9167  -23.5985   13.9921 C   0  0  0  0  0  0  0  0  0  0  0  0
   34.9430  -24.5770   13.0198 C   0  0  0  0  0  0  0  0  0  0  0  0
   35.8193  -25.9339   11.3401 C   0  0  0  0  0  0  0  0  0  0  0  0
   36.6247  -26.5543   10.3958 C   0  0  0  0  0  0  0  0  0  0  0  0
   38.0523  -26.1357   10.2268 C   0  0  0  0  0  0  0  0  0  0  0  0
   40.4044  -26.6331   10.9140 C   0  0  1  0  0  0  0  0  0  0  0  0
   40.9845  -26.2201    9.5739 C   0  0  0  0  0  0  0  0  0  0  0  0
   40.6157  -26.8993    8.4263 C   0  0  0  0  0  0  0  0  0  0  0  0
   41.1435  -26.5484    7.1948 C   0  0  0  0  0  0  0  0  0  0  0  0
   38.9671  -26.8845   10.8916 N   0  0  0  0  0  0  0  0  0  0  0  0
   32.7200  -25.5685   12.9943 O   0  0  0  0  0  0  0  0  0  0  0  0
   40.4586  -29.0045   11.3121 O   0  0  0  0  0  0  0  0  0  0  0  0
   42.2776  -27.8282   11.7943 O   0  0  0  0  0  0  0  0  0  0  0  0
   38.3479  -25.1812    9.5033 O   0  0  0  0  0  0  0  0  0  0  0  0
   42.4857  -25.2457    6.1351 H   0  0  0  0  0  0  0  0  0  0  0  0
   43.1623  -24.0239    8.1733 H   0  0  0  0  0  0  0  0  0  0  0  0
   42.1942  -24.6266   10.3737 H   0  0  0  0  0  0  0  0  0  0  0  0
   36.7017  -28.0912    8.8777 H   0  0  0  0  0  0  0  0  0  0  0  0
   34.3375  -28.7647    9.1505 H   0  0  0  0  0  0  0  0  0  0  0  0
   32.8962  -27.6674   10.8592 H   0  0  0  0  0  0  0  0  0  0  0  0
   38.1797  -24.3074   11.9562 H   0  0  0  0  0  0  0  0  0  0  0  0
   38.1494  -22.5581   13.7298 H   0  0  0  0  0  0  0  0  0  0  0  0
   36.0820  -22.0918   15.0036 H   0  0  0  0  0  0  0  0  0  0  0  0
   33.9982  -23.3942   14.5618 H   0  0  0  0  0  0  0  0  0  0  0  0
   40.5735  -25.7860   11.5950 H   0  0  0  0  0  0  0  0  0  0  0  0
   39.8950  -27.7277    8.4928 H   0  0  0  0  0  0  0  0  0  0  0  0
   40.8338  -27.0881    6.2877 H   0  0  0  0  0  0  0  0  0  0  0  0
   38.6196  -27.6954   11.4232 H   0  0  0  0  0  0  0  0  0  0  0  0
  1 12  1  0
  1 15  1  0
  1 24  2  0
  2  3  2  0
  2 22  1  0
  3  4  1  0
  4 20  2  0
  5 19  1  0
  5 25  1  0
  5 26  2  0
  6  7  2  0
  6 17  1  0
  7  8  1  0
  8 12  2  0
  9 10  2  0
  9 15  1  0
  9 16  1  0
 10 11  1  0
 11 13  2  0
 12 16  1  0
 13 14  1  0
 14 15  2  0
 16 17  2  0
 17 18  1  0
 18 23  1  0
 18 27  2  0
 19 20  1  0
 19 23  1  0
 20 21  1  0
 21 22  2  0
  2 28  1  0
  3 29  1  0
  4 30  1  0
  6 31  1  0
  7 32  1  0
  8 33  1  0
 10 34  1  0
 11 35  1  0
 13 36  1  0
 14 37  1  0
 19 38  1  1
 21 39  1  0
 22 40  1  0
 23 41  1  0
M  CHG  1  25  -1
M  END
>  <filename_input>  (19) 
7OFF_VCB_docked.sdf

>  <pdb_id>  (19) 
7OFF_VCB

>  <pose_rank>  (19) 
18

>  <num_atoms_heavy>  (19) 
27

>  <num_torsions>  (19) 
4

>  <pose>  (19) 
[33.857035187335626, -25.501228395929616, 12.57376579360813, -0.6942903730409015, 3.3240109142391514, -0.9508793653270469, 3.2934183019274936, -5.186252396322468, 2.6970902897433837, -0.10812708409972283]

>  <energy>  (19) 
-477.98616062942835

>  <inter_energy>  (19) 
-514.2923052182219

>  <intra_energy>  (19) 
38.47777044922588

>  <rmsd>  (19) 
6.86648

>  <sdf_rank>  (19) 
0

$$$$

     RDKit          3D

 41 44  0  0  0  0  0  0  0  0999 V2000
   36.3671  -26.8682    9.4374 C   0  0  0  0  0  0  0  0  0  0  0  0
   43.3176  -28.9733   16.5184 C   0  0  0  0  0  0  0  0  0  0  0  0
   42.0241  -29.2451   16.1447 C   0  0  0  0  0  0  0  0  0  0  0  0
   41.6173  -29.0513   14.8362 C   0  0  0  0  0  0  0  0  0  0  0  0
   42.8128  -27.1427   11.8781 C   0  0  0  0  0  0  0  0  0  0  0  0
   37.5408  -27.5349   13.4528 C   0  0  0  0  0  0  0  0  0  0  0  0
   36.1790  -27.6029   13.1901 C   0  0  0  0  0  0  0  0  0  0  0  0
   35.6914  -27.3914   11.9099 C   0  0  0  0  0  0  0  0  0  0  0  0
   38.6744  -26.7681    9.8898 C   0  0  0  0  0  0  0  0  0  0  0  0
   40.0313  -26.6009    9.6044 C   0  0  0  0  0  0  0  0  0  0  0  0
   40.4058  -26.3121    8.3002 C   0  0  0  0  0  0  0  0  0  0  0  0
   36.5894  -27.1269   10.8927 C   0  0  0  0  0  0  0  0  0  0  0  0
   39.4573  -26.2071    7.2940 C   0  0  0  0  0  0  0  0  0  0  0  0
   38.1059  -26.3789    7.5686 C   0  0  0  0  0  0  0  0  0  0  0  0
   37.7320  -26.6577    8.8671 C   0  0  0  0  0  0  0  0  0  0  0  0
   37.9773  -27.0633   11.1488 C   0  0  0  0  0  0  0  0  0  0  0  0
   38.4584  -27.2713   12.4335 C   0  0  0  0  0  0  0  0  0  0  0  0
   39.9277  -27.1987   12.7122 C   0  0  0  0  0  0  0  0  0  0  0  0
   42.1032  -28.4007   12.4397 C   0  0  1  0  0  0  0  0  0  0  0  0
   42.5150  -28.5929   13.8876 C   0  0  0  0  0  0  0  0  0  0  0  0
   43.8162  -28.3246   14.2738 C   0  0  0  0  0  0  0  0  0  0  0  0
   44.2173  -28.5065   15.5870 C   0  0  0  0  0  0  0  0  0  0  0  0
   40.6668  -28.2349   12.2434 N   0  0  0  0  0  0  0  0  0  0  0  0
   35.3040  -26.8308    8.8521 O   0  0  0  0  0  0  0  0  0  0  0  0
   43.2823  -26.3223   12.7132 O   0  0  0  0  0  0  0  0  0  0  0  0
   42.8953  -27.0332   10.6468 O   0  0  0  0  0  0  0  0  0  0  0  0
   40.4088  -26.2335   13.3112 O   0  0  0  0  0  0  0  0  0  0  0  0
   43.6340  -29.1283   17.5604 H   0  0  0  0  0  0  0  0  0  0  0  0
   41.3070  -29.6192   16.8902 H   0  0  0  0  0  0  0  0  0  0  0  0
   40.5767  -29.2624   14.5490 H   0  0  0  0  0  0  0  0  0  0  0  0
   37.9026  -27.6912   14.4798 H   0  0  0  0  0  0  0  0  0  0  0  0
   35.4785  -27.8273   14.0080 H   0  0  0  0  0  0  0  0  0  0  0  0
   34.6110  -27.4332   11.7074 H   0  0  0  0  0  0  0  0  0  0  0  0
   40.7875  -26.6962   10.3975 H   0  0  0  0  0  0  0  0  0  0  0  0
   41.4693  -26.1644    8.0610 H   0  0  0  0  0  0  0  0  0  0  0  0
   39.7786  -25.9851    6.2657 H   0  0  0  0  0  0  0  0  0  0  0  0
   37.3532  -26.2947    6.7708 H   0  0  0  0  0  0  0  0  0  0  0  0
   42.3971  -29.3207   11.9131 H   0  0  0  0  0  0  0  0  0  0  0  0
   44.5406  -27.9627   13.5293 H   0  0  0  0  0  0  0  0  0  0  0  0
   45.2515  -28.2787   15.8847 H   0  0  0  0  0  0  0  0  0  0  0  0
   40.1749  -28.9629   11.7060 H   0  0  0  0  0  0  0  0  0  0  0  0
  1 12  1  0
  1 15  1  0
  1 24  2  0
  2  3  2  0
  2 22  1  0
  3  4  1  0
  4 20  2  0
  5 19  1  0
  5 25  1  0
  5 26  2  0
  6  7  2  0
  6 17  1  0
  7  8  1  0
  8 12  2  0
  9 10  2  0
  9 15  1  0
  9 16  1  0
 10 11  1  0
 11 13  2  0
 12 16  1  0
 13 14  1  0
 14 15  2  0
 16 17  2  0
 17 18  1  0
 18 23  1  0
 18 27  2  0
 19 20  1  0
 19 23  1  0
 20 21  1  0
 21 22  2  0
  2 28  1  0
  3 29  1  0
  4 30  1  0
  6 31  1  0
  7 32  1  0
  8 33  1  0
 10 34  1  0
 11 35  1  0
 13 36  1  0
 14 37  1  0
 19 38  1  6
 21 39  1  0
 22 40  1  0
 23 41  1  0
M  CHG  1  25  -1
M  END
>  <filename_input>  (20) 
7OFF_VCB_docked.sdf

>  <pdb_id>  (20) 
7OFF_VCB

>  <pose_rank>  (20) 
19

>  <num_atoms_heavy>  (20) 
27

>  <num_torsions>  (20) 
4

>  <pose>  (20) 
[36.36706524345724, -26.86817584037726, 9.4374286369865, 0.7125029365157818, 0.7970838471058153, -3.114716021938057, 0.3489387533990407, 2.9387803802010986, 0.7054454128641681, 1.4198589309728014]

>  <energy>  (20) 
-341.1621620115623

>  <inter_energy>  (20) 
-426.8336300653991

>  <intra_energy>  (20) 
83.81941854248936

>  <rmsd>  (20) 
6.67139

>  <sdf_rank>  (20) 
0

$$$$

     RDKit          3D

 41 44  0  0  0  0  0  0  0  0999 V2000
   43.3102  -24.1417    9.5111 C   0  0  0  0  0  0  0  0  0  0  0  0
   33.3141  -25.6052    9.0791 C   0  0  0  0  0  0  0  0  0  0  0  0
   34.2331  -26.0039    8.1395 C   0  0  0  0  0  0  0  0  0  0  0  0
   35.4802  -26.4605    8.5288 C   0  0  0  0  0  0  0  0  0  0  0  0
   37.3671  -26.6810   11.8155 C   0  0  0  0  0  0  0  0  0  0  0  0
   40.5557  -26.4518    7.2702 C   0  0  0  0  0  0  0  0  0  0  0  0
   41.5115  -25.7560    6.5419 C   0  0  0  0  0  0  0  0  0  0  0  0
   42.4532  -24.9643    7.1803 C   0  0  0  0  0  0  0  0  0  0  0  0
   41.6948  -25.3351   10.7377 C   0  0  0  0  0  0  0  0  0  0  0  0
   41.0242  -25.7856   11.8770 C   0  0  0  0  0  0  0  0  0  0  0  0
   41.4590  -25.3502   13.1203 C   0  0  0  0  0  0  0  0  0  0  0  0
   42.4342  -24.8924    8.5607 C   0  0  0  0  0  0  0  0  0  0  0  0
   42.5472  -24.4982   13.2355 C   0  0  0  0  0  0  0  0  0  0  0  0
   43.2239  -24.0509   12.1071 C   0  0  0  0  0  0  0  0  0  0  0  0
   42.7866  -24.4768   10.8697 C   0  0  0  0  0  0  0  0  0  0  0  0
   41.4704  -25.6027    9.3108 C   0  0  0  0  0  0  0  0  0  0  0  0
   40.5276  -26.3897    8.6652 C   0  0  0  0  0  0  0  0  0  0  0  0
   39.4997  -27.1397    9.4544 C   0  0  0  0  0  0  0  0  0  0  0  0
   37.1579  -27.0567   10.3267 C   0  0  1  0  0  0  0  0  0  0  0  0
   35.8089  -26.5315    9.8714 C   0  0  0  0  0  0  0  0  0  0  0  0
   34.8750  -26.1299   10.8100 C   0  0  0  0  0  0  0  0  0  0  0  0
   33.6325  -25.6605   10.4172 C   0  0  0  0  0  0  0  0  0  0  0  0
   38.2896  -26.5372    9.5661 N   0  0  0  0  0  0  0  0  0  0  0  0
   44.2402  -23.4124    9.2328 O   0  0  0  0  0  0  0  0  0  0  0  0
   36.7167  -25.6961   12.2604 O   0  0  0  0  0  0  0  0  0  0  0  0
   38.1405  -27.3842   12.4806 O   0  0  0  0  0  0  0  0  0  0  0  0
   39.7594  -28.2438    9.9394 O   0  0  0  0  0  0  0  0  0  0  0  0
   32.3251  -25.2421    8.7628 H   0  0  0  0  0  0  0  0  0  0  0  0
   33.9763  -25.9601    7.0708 H   0  0  0  0  0  0  0  0  0  0  0  0
   36.2130  -26.7682    7.7683 H   0  0  0  0  0  0  0  0  0  0  0  0
   39.8091  -27.0615    6.7403 H   0  0  0  0  0  0  0  0  0  0  0  0
   41.5214  -25.8340    5.4447 H   0  0  0  0  0  0  0  0  0  0  0  0
   43.2011  -24.4041    6.5999 H   0  0  0  0  0  0  0  0  0  0  0  0
   40.1688  -26.4717   11.7901 H   0  0  0  0  0  0  0  0  0  0  0  0
   40.9337  -25.6852   14.0269 H   0  0  0  0  0  0  0  0  0  0  0  0
   42.8787  -24.1724   14.2325 H   0  0  0  0  0  0  0  0  0  0  0  0
   44.0865  -23.3744   12.1982 H   0  0  0  0  0  0  0  0  0  0  0  0
   37.1329  -28.1446   10.1661 H   0  0  0  0  0  0  0  0  0  0  0  0
   35.1222  -26.1840   11.8805 H   0  0  0  0  0  0  0  0  0  0  0  0
   32.9024  -25.3331   11.1721 H   0  0  0  0  0  0  0  0  0  0  0  0
   38.1592  -25.6414    9.0748 H   0  0  0  0  0  0  0  0  0  0  0  0
  1 12  1  0
  1 15  1  0
  1 24  2  0
  2  3  2  0
  2 22  1  0
  3  4  1  0
  4 20  2  0
  5 19  1  0
  5 25  1  0
  5 26  2  0
  6  7  2  0
  6 17  1  0
  7  8  1  0
  8 12  2  0
  9 10  2  0
  9 15  1  0
  9 16  1  0
 10 11  1  0
 11 13  2  0
 12 16  1  0
 13 14  1  0
 14 15  2  0
 16 17  2  0
 17 18  1  0
 18 23  1  0
 18 27  2  0
 19 20  1  0
 19 23  1  0
 20 21  1  0
 21 22  2  0
  2 28  1  0
  3 29  1  0
  4 30  1  0
  6 31  1  0
  7 32  1  0
  8 33  1  0
 10 34  1  0
 11 35  1  0
 13 36  1  0
 14 37  1  0
 19 38  1  1
 21 39  1  0
 22 40  1  0
 23 41  1  0
M  CHG  1  25  -1
M  END
>  <filename_input>  (21) 
7OFF_VCB_docked.sdf

>  <pdb_id>  (21) 
7OFF_VCB

>  <pose_rank>  (21) 
20

>  <num_atoms_heavy>  (21) 
27

>  <num_torsions>  (21) 
4

>  <pose>  (21) 
[43.3101966444208, -24.141660583413586, 9.51105042878327, -3.0773067728902608, -1.5668204777197237, 0.2991787467459131, 3.307836253041235, 5.357837349718497, 1.1008245445794764, 1.327505118089863]

>  <energy>  (21) 
-483.09428206565343

>  <inter_energy>  (21) 
-526.0675738379737

>  <intra_energy>  (21) 
53.171376803704156

>  <rmsd>  (21) 
3.74154

>  <sdf_rank>  (21) 
0

$$$$

     RDKit          3D

 41 44  0  0  0  0  0  0  0  0999 V2000
   39.1472  -26.5490    8.1093 C   0  0  0  0  0  0  0  0  0  0  0  0
   45.4498  -25.2788   15.7012 C   0  0  0  0  0  0  0  0  0  0  0  0
   44.9363  -24.0515   16.0427 C   0  0  0  0  0  0  0  0  0  0  0  0
   44.0092  -23.4280   15.2260 C   0  0  0  0  0  0  0  0  0  0  0  0
   41.1666  -23.4364   13.8753 C   0  0  0  0  0  0  0  0  0  0  0  0
   42.7876  -24.4611    8.6869 C   0  0  0  0  0  0  0  0  0  0  0  0
   42.7120  -25.2662    7.5580 C   0  0  0  0  0  0  0  0  0  0  0  0
   41.5672  -25.9976    7.2828 C   0  0  0  0  0  0  0  0  0  0  0  0
   39.2798  -25.1717   10.0130 C   0  0  0  0  0  0  0  0  0  0  0  0
   38.8380  -24.5669   11.1917 C   0  0  0  0  0  0  0  0  0  0  0  0
   37.5611  -24.8571   11.6499 C   0  0  0  0  0  0  0  0  0  0  0  0
   40.4924  -25.8984    8.1465 C   0  0  0  0  0  0  0  0  0  0  0  0
   36.7307  -25.7165   10.9463 C   0  0  0  0  0  0  0  0  0  0  0  0
   37.1606  -26.3170    9.7690 C   0  0  0  0  0  0  0  0  0  0  0  0
   38.4335  -26.0355    9.3173 C   0  0  0  0  0  0  0  0  0  0  0  0
   40.5571  -25.0761    9.2935 C   0  0  0  0  0  0  0  0  0  0  0  0
   41.7078  -24.3502    9.5656 C   0  0  0  0  0  0  0  0  0  0  0  0
   41.7846  -23.4821   10.7831 C   0  0  0  0  0  0  0  0  0  0  0  0
   42.5429  -23.3944   13.1641 C   0  0  1  0  0  0  0  0  0  0  0  0
   43.5808  -24.0421   14.0619 C   0  0  0  0  0  0  0  0  0  0  0  0
   44.1023  -25.2795   13.7285 C   0  0  0  0  0  0  0  0  0  0  0  0
   45.0402  -25.8953   14.5406 C   0  0  0  0  0  0  0  0  0  0  0  0
   42.3976  -24.0332   11.8602 N   0  0  0  0  0  0  0  0  0  0  0  0
   38.7324  -27.3311    7.2784 O   0  0  0  0  0  0  0  0  0  0  0  0
   40.6233  -24.5658   14.0173 O   0  0  0  0  0  0  0  0  0  0  0  0
   40.6979  -22.3633   14.2800 O   0  0  0  0  0  0  0  0  0  0  0  0
   41.3315  -22.3348   10.7689 O   0  0  0  0  0  0  0  0  0  0  0  0
   46.1874  -25.7683   16.3542 H   0  0  0  0  0  0  0  0  0  0  0  0
   45.2640  -23.5611   16.9712 H   0  0  0  0  0  0  0  0  0  0  0  0
   43.6113  -22.4406   15.5031 H   0  0  0  0  0  0  0  0  0  0  0  0
   43.7124  -23.9021    8.8922 H   0  0  0  0  0  0  0  0  0  0  0  0
   43.5712  -25.3241    6.8736 H   0  0  0  0  0  0  0  0  0  0  0  0
   41.5150  -26.6444    6.3946 H   0  0  0  0  0  0  0  0  0  0  0  0
   39.4891  -23.8746   11.7455 H   0  0  0  0  0  0  0  0  0  0  0  0
   37.2024  -24.3993   12.5836 H   0  0  0  0  0  0  0  0  0  0  0  0
   35.7193  -25.9256   11.3248 H   0  0  0  0  0  0  0  0  0  0  0  0
   36.5025  -26.9995    9.2112 H   0  0  0  0  0  0  0  0  0  0  0  0
   42.8927  -22.3673   12.9834 H   0  0  0  0  0  0  0  0  0  0  0  0
   43.7683  -25.7800   12.8077 H   0  0  0  0  0  0  0  0  0  0  0  0
   45.4563  -26.8739   14.2591 H   0  0  0  0  0  0  0  0  0  0  0  0
   42.7921  -24.9781   11.7490 H   0  0  0  0  0  0  0  0  0  0  0  0
  1 12  1  0
  1 15  1  0
  1 24  2  0
  2  3  2  0
  2 22  1  0
  3  4  1  0
  4 20  2  0
  5 19  1  0
  5 25  1  0
  5 26  2  0
  6  7  2  0
  6 17  1  0
  7  8  1  0
  8 12  2  0
  9 10  2  0
  9 15  1  0
  9 16  1  0
 10 11  1  0
 11 13  2  0
 12 16  1  0
 13 14  1  0
 14 15  2  0
 16 17  2  0
 17 18  1  0
 18 23  1  0
 18 27  2  0
 19 20  1  0
 19 23  1  0
 20 21  1  0
 21 22  2  0
  2 28  1  0
  3 29  1  0
  4 30  1  0
  6 31  1  0
  7 32  1  0
  8 33  1  0
 10 34  1  0
 11 35  1  0
 13 36  1  0
 14 37  1  0
 19 38  1  6
 21 39  1  0
 22 40  1  0
 23 41  1  0
M  CHG  1  25  -1
M  END
>  <filename_input>  (22) 
7OFF_VCB_docked.sdf

>  <pdb_id>  (22) 
7OFF_VCB

>  <pose_rank>  (22) 
21

>  <num_atoms_heavy>  (22) 
27

>  <num_torsions>  (22) 
4

>  <pose>  (22) 
[39.14721844430137, -26.549002487841573, 8.109271576037507, 2.0764163030033136, -3.434819014674212, 0.4718404949509735, -2.972690174624778, 5.2363534978434, -3.0240371109496222, 0.5336485317418375]

>  <energy>  (22) 
-294.51540957448645

>  <inter_energy>  (22) 
-294.6635383988363

>  <intra_energy>  (22) 
6.482313940442498

>  <rmsd>  (22) 
7.1911

>  <sdf_rank>  (22) 
0

$$$$

     RDKit          3D

 41 44  0  0  0  0  0  0  0  0999 V2000
   34.5615  -25.0734   12.1278 C   0  0  0  0  0  0  0  0  0  0  0  0
   40.1699  -27.4536    6.4951 C   0  0  0  0  0  0  0  0  0  0  0  0
   41.0936  -26.4554    6.6863 C   0  0  0  0  0  0  0  0  0  0  0  0
   41.3957  -26.0153    7.9632 C   0  0  0  0  0  0  0  0  0  0  0  0
   41.7468  -27.3349   11.2371 C   0  0  0  0  0  0  0  0  0  0  0  0
   38.3664  -23.4626   13.0624 C   0  0  0  0  0  0  0  0  0  0  0  0
   37.3409  -23.1769   13.9540 C   0  0  0  0  0  0  0  0  0  0  0  0
   36.0567  -23.6498   13.7344 C   0  0  0  0  0  0  0  0  0  0  0  0
   36.3086  -25.5635   10.6292 C   0  0  0  0  0  0  0  0  0  0  0  0
   36.9101  -26.1199    9.4982 C   0  0  0  0  0  0  0  0  0  0  0  0
   36.1289  -26.8685    8.6299 C   0  0  0  0  0  0  0  0  0  0  0  0
   35.8176  -24.4274   12.6167 C   0  0  0  0  0  0  0  0  0  0  0  0
   34.7816  -27.0766    8.8844 C   0  0  0  0  0  0  0  0  0  0  0  0
   34.1774  -26.5320   10.0111 C   0  0  0  0  0  0  0  0  0  0  0  0
   34.9518  -25.7802   10.8706 C   0  0  0  0  0  0  0  0  0  0  0  0
   36.8561  -24.7298   11.7078 C   0  0  0  0  0  0  0  0  0  0  0  0
   38.1384  -24.2492   11.9311 C   0  0  0  0  0  0  0  0  0  0  0  0
   39.2416  -24.5609   10.9680 C   0  0  0  0  0  0  0  0  0  0  0  0
   41.1128  -26.1443   10.4743 C   0  0  1  0  0  0  0  0  0  0  0  0
   40.7778  -26.5869    9.0620 C   0  0  0  0  0  0  0  0  0  0  0  0
   39.8507  -27.5936    8.8585 C   0  0  0  0  0  0  0  0  0  0  0  0
   39.5402  -28.0228    7.5788 C   0  0  0  0  0  0  0  0  0  0  0  0
   39.9640  -25.6756   11.2425 N   0  0  0  0  0  0  0  0  0  0  0  0
   33.4624  -25.0244   12.6414 O   0  0  0  0  0  0  0  0  0  0  0  0
   41.0111  -27.9589   12.0497 O   0  0  0  0  0  0  0  0  0  0  0  0
   42.9272  -27.6138   10.9844 O   0  0  0  0  0  0  0  0  0  0  0  0
   39.4406  -23.8441    9.9840 O   0  0  0  0  0  0  0  0  0  0  0  0
   39.9335  -27.7978    5.4774 H   0  0  0  0  0  0  0  0  0  0  0  0
   41.5966  -26.0027    5.8190 H   0  0  0  0  0  0  0  0  0  0  0  0
   42.1295  -25.2083    8.1054 H   0  0  0  0  0  0  0  0  0  0  0  0
   39.3740  -23.0632   13.2500 H   0  0  0  0  0  0  0  0  0  0  0  0
   37.5504  -22.5676   14.8456 H   0  0  0  0  0  0  0  0  0  0  0  0
   35.2436  -23.4111   14.4358 H   0  0  0  0  0  0  0  0  0  0  0  0
   37.9813  -25.9677    9.2999 H   0  0  0  0  0  0  0  0  0  0  0  0
   36.5842  -27.3028    7.7276 H   0  0  0  0  0  0  0  0  0  0  0  0
   34.1838  -27.6803    8.1857 H   0  0  0  0  0  0  0  0  0  0  0  0
   33.1085  -26.6962   10.2127 H   0  0  0  0  0  0  0  0  0  0  0  0
   41.8025  -25.2934   10.3730 H   0  0  0  0  0  0  0  0  0  0  0  0
   39.3545  -28.0585    9.7232 H   0  0  0  0  0  0  0  0  0  0  0  0
   38.7929  -28.8160    7.4289 H   0  0  0  0  0  0  0  0  0  0  0  0
   39.6791  -26.2359   12.0584 H   0  0  0  0  0  0  0  0  0  0  0  0
  1 12  1  0
  1 15  1  0
  1 24  2  0
  2  3  2  0
  2 22  1  0
  3  4  1  0
  4 20  2  0
  5 19  1  0
  5 25  1  0
  5 26  2  0
  6  7  2  0
  6 17  1  0
  7  8  1  0
  8 12  2  0
  9 10  2  0
  9 15  1  0
  9 16  1  0
 10 11  1  0
 11 13  2  0
 12 16  1  0
 13 14  1  0
 14 15  2  0
 16 17  2  0
 17 18  1  0
 18 23  1  0
 18 27  2  0
 19 20  1  0
 19 23  1  0
 20 21  1  0
 21 22  2  0
  2 28  1  0
  3 29  1  0
  4 30  1  0
  6 31  1  0
  7 32  1  0
  8 33  1  0
 10 34  1  0
 11 35  1  0
 13 36  1  0
 14 37  1  0
 19 38  1  6
 21 39  1  0
 22 40  1  0
 23 41  1  0
M  CHG  1  25  -1
M  END
>  <filename_input>  (23) 
7OFF_VCB_docked.sdf

>  <pdb_id>  (23) 
7OFF_VCB

>  <pose_rank>  (23) 
22

>  <num_atoms_heavy>  (23) 
27

>  <num_torsions>  (23) 
4

>  <pose>  (23) 
[34.561453795228076, -25.073363956368517, 12.127752732483998, -0.6549270840907943, -0.7016414284688617, -3.194784632938606, -6.269206976828486, -5.6217753569719635, 2.4643262301870874, -0.04813403728070045]

>  <energy>  (23) 
-518.4282706372157

>  <inter_energy>  (23) 
-518.8212193864845

>  <intra_energy>  (23) 
13.94652269970603

>  <rmsd>  (23) 
6.14165

>  <sdf_rank>  (23) 
0

$$$$

     RDKit          3D

 41 44  0  0  0  0  0  0  0  0999 V2000
   41.4279  -25.4766    8.2284 C   0  0  0  0  0  0  0  0  0  0  0  0
   48.5171  -24.8765   14.9215 C   0  0  0  0  0  0  0  0  0  0  0  0
   47.2073  -24.5890   15.2188 C   0  0  0  0  0  0  0  0  0  0  0  0
   46.3916  -23.9848   14.2782 C   0  0  0  0  0  0  0  0  0  0  0  0
   45.5215  -21.6590   12.4722 C   0  0  0  0  0  0  0  0  0  0  0  0
   42.6924  -26.6619   12.0938 C   0  0  0  0  0  0  0  0  0  0  0  0
   41.5058  -27.2195   11.6363 C   0  0  0  0  0  0  0  0  0  0  0  0
   41.0014  -26.8900   10.3880 C   0  0  0  0  0  0  0  0  0  0  0  0
   43.4449  -24.5470    9.0069 C   0  0  0  0  0  0  0  0  0  0  0  0
   44.5945  -23.7554    8.9602 C   0  0  0  0  0  0  0  0  0  0  0  0
   44.8301  -22.9911    7.8267 C   0  0  0  0  0  0  0  0  0  0  0  0
   41.7115  -26.0061    9.5971 C   0  0  0  0  0  0  0  0  0  0  0  0
   43.9534  -23.0221    6.7526 C   0  0  0  0  0  0  0  0  0  0  0  0
   42.8109  -23.8124    6.7886 C   0  0  0  0  0  0  0  0  0  0  0  0
   42.5715  -24.5662    7.9192 C   0  0  0  0  0  0  0  0  0  0  0  0
   42.9236  -25.4395   10.0508 C   0  0  0  0  0  0  0  0  0  0  0  0
   43.4205  -25.7699   11.3035 C   0  0  0  0  0  0  0  0  0  0  0  0
   44.7012  -25.1677   11.7923 C   0  0  0  0  0  0  0  0  0  0  0  0
   46.0044  -23.0406   11.9628 C   0  0  1  0  0  0  0  0  0  0  0  0
   46.8855  -23.6755   13.0227 C   0  0  0  0  0  0  0  0  0  0  0  0
   48.2054  -23.9717   12.7325 C   0  0  0  0  0  0  0  0  0  0  0  0
   49.0236  -24.5641   13.6802 C   0  0  0  0  0  0  0  0  0  0  0  0
   44.8279  -23.8294   11.6119 N   0  0  0  0  0  0  0  0  0  0  0  0
   40.4695  -25.7294    7.5271 O   0  0  0  0  0  0  0  0  0  0  0  0
   44.4272  -21.6236   13.0984 O   0  0  0  0  0  0  0  0  0  0  0  0
   46.2503  -20.6812   12.2537 O   0  0  0  0  0  0  0  0  0  0  0  0
   45.5570  -25.8661   12.3415 O   0  0  0  0  0  0  0  0  0  0  0  0
   49.1604  -25.3556   15.6742 H   0  0  0  0  0  0  0  0  0  0  0  0
   46.8042  -24.8406   16.2108 H   0  0  0  0  0  0  0  0  0  0  0  0
   45.3468  -23.7495   14.5293 H   0  0  0  0  0  0  0  0  0  0  0  0
   43.0648  -26.9270   13.0944 H   0  0  0  0  0  0  0  0  0  0  0  0
   40.9594  -27.9314   12.2724 H   0  0  0  0  0  0  0  0  0  0  0  0
   40.0546  -27.3235   10.0336 H   0  0  0  0  0  0  0  0  0  0  0  0
   45.2988  -23.7383    9.8050 H   0  0  0  0  0  0  0  0  0  0  0  0
   45.7242  -22.3521    7.7791 H   0  0  0  0  0  0  0  0  0  0  0  0
   44.1650  -22.4136    5.8610 H   0  0  0  0  0  0  0  0  0  0  0  0
   42.1148  -23.8365    5.9371 H   0  0  0  0  0  0  0  0  0  0  0  0
   46.6231  -22.9630   11.0566 H   0  0  0  0  0  0  0  0  0  0  0  0
   48.6098  -23.7339   11.7375 H   0  0  0  0  0  0  0  0  0  0  0  0
   50.0746  -24.7842   13.4417 H   0  0  0  0  0  0  0  0  0  0  0  0
   44.0300  -23.3300   11.1939 H   0  0  0  0  0  0  0  0  0  0  0  0
  1 12  1  0
  1 15  1  0
  1 24  2  0
  2  3  2  0
  2 22  1  0
  3  4  1  0
  4 20  2  0
  5 19  1  0
  5 25  1  0
  5 26  2  0
  6  7  2  0
  6 17  1  0
  7  8  1  0
  8 12  2  0
  9 10  2  0
  9 15  1  0
  9 16  1  0
 10 11  1  0
 11 13  2  0
 12 16  1  0
 13 14  1  0
 14 15  2  0
 16 17  2  0
 17 18  1  0
 18 23  1  0
 18 27  2  0
 19 20  1  0
 19 23  1  0
 20 21  1  0
 21 22  2  0
  2 28  1  0
  3 29  1  0
  4 30  1  0
  6 31  1  0
  7 32  1  0
  8 33  1  0
 10 34  1  0
 11 35  1  0
 13 36  1  0
 14 37  1  0
 19 38  1  6
 21 39  1  0
 22 40  1  0
 23 41  1  0
M  CHG  1  25  -1
M  END
>  <filename_input>  (24) 
7OFF_VCB_docked.sdf

>  <pdb_id>  (24) 
7OFF_VCB

>  <pose_rank>  (24) 
23

>  <num_atoms_heavy>  (24) 
27

>  <num_torsions>  (24) 
4

>  <pose>  (24) 
[41.42787745646416, -25.47664927606473, 8.228411660269005, -2.9432375014096324, -6.567710117844239, 14.228915846821861, 14.98069639014638, 51.68469804982859, -13.27421831106935, 0.14121899173593203]

>  <energy>  (24) 
-80.10741549586761

>  <inter_energy>  (24) 
-189.8144366706369

>  <intra_energy>  (24) 
111.21349623022424

>  <rmsd>  (24) 
8.53596

>  <sdf_rank>  (24) 
0

$$$$

     RDKit          3D

 41 44  0  0  0  0  0  0  0  0999 V2000
   37.9876  -22.8205   16.9778 C   0  0  0  0  0  0  0  0  0  0  0  0
   47.6142  -24.3798   13.4346 C   0  0  0  0  0  0  0  0  0  0  0  0
   46.6234  -25.1693   12.9042 C   0  0  0  0  0  0  0  0  0  0  0  0
   45.5126  -25.5020   13.6596 C   0  0  0  0  0  0  0  0  0  0  0  0
   43.6422  -26.7619   15.4027 C   0  0  0  0  0  0  0  0  0  0  0  0
   41.6519  -21.4512   15.3519 C   0  0  0  0  0  0  0  0  0  0  0  0
   40.5239  -20.7016   15.0453 C   0  0  0  0  0  0  0  0  0  0  0  0
   39.2754  -21.0702   15.5213 C   0  0  0  0  0  0  0  0  0  0  0  0
   39.9068  -24.0773   17.5029 C   0  0  0  0  0  0  0  0  0  0  0  0
   40.6430  -25.1116   18.0849 C   0  0  0  0  0  0  0  0  0  0  0  0
   39.9737  -26.0546   18.8513 C   0  0  0  0  0  0  0  0  0  0  0  0
   39.1751  -22.1920   16.3229 C   0  0  0  0  0  0  0  0  0  0  0  0
   38.6044  -25.9666   19.0520 C   0  0  0  0  0  0  0  0  0  0  0  0
   37.8659  -24.9366   18.4820 C   0  0  0  0  0  0  0  0  0  0  0  0
   38.5296  -24.0032   17.7126 C   0  0  0  0  0  0  0  0  0  0  0  0
   40.3181  -22.9568   16.6465 C   0  0  0  0  0  0  0  0  0  0  0  0
   41.5643  -22.5849   16.1628 C   0  0  0  0  0  0  0  0  0  0  0  0
   42.7782  -23.3951   16.4971 C   0  0  0  0  0  0  0  0  0  0  0  0
   44.1620  -25.3555   15.7944 C   0  0  1  0  0  0  0  0  0  0  0  0
   45.3838  -25.0309   14.9548 C   0  0  0  0  0  0  0  0  0  0  0  0
   46.3862  -24.2342   15.4787 C   0  0  0  0  0  0  0  0  0  0  0  0
   47.5033  -23.9138   14.7252 C   0  0  0  0  0  0  0  0  0  0  0  0
   43.0625  -24.4084   15.6415 N   0  0  0  0  0  0  0  0  0  0  0  0
   36.8330  -22.4499   16.9162 O   0  0  0  0  0  0  0  0  0  0  0  0
   44.3090  -27.7562   15.7996 O   0  0  0  0  0  0  0  0  0  0  0  0
   42.5935  -26.8225   14.7457 O   0  0  0  0  0  0  0  0  0  0  0  0
   43.4690  -23.1191   17.4812 O   0  0  0  0  0  0  0  0  0  0  0  0
   48.4951  -24.1202   12.8291 H   0  0  0  0  0  0  0  0  0  0  0  0
   46.7133  -25.5395   11.8723 H   0  0  0  0  0  0  0  0  0  0  0  0
   44.7292  -26.1431   13.2293 H   0  0  0  0  0  0  0  0  0  0  0  0
   42.6296  -21.1474   14.9498 H   0  0  0  0  0  0  0  0  0  0  0  0
   40.6225  -19.8041   14.4170 H   0  0  0  0  0  0  0  0  0  0  0  0
   38.3819  -20.4816   15.2662 H   0  0  0  0  0  0  0  0  0  0  0  0
   41.7312  -25.1772   17.9385 H   0  0  0  0  0  0  0  0  0  0  0  0
   40.5367  -26.8831   19.3059 H   0  0  0  0  0  0  0  0  0  0  0  0
   38.0964  -26.7216   19.6701 H   0  0  0  0  0  0  0  0  0  0  0  0
   36.7795  -24.8671   18.6403 H   0  0  0  0  0  0  0  0  0  0  0  0
   44.4890  -25.3041   16.8434 H   0  0  0  0  0  0  0  0  0  0  0  0
   46.2950  -23.8507   16.5057 H   0  0  0  0  0  0  0  0  0  0  0  0
   48.2993  -23.2891   15.1566 H   0  0  0  0  0  0  0  0  0  0  0  0
   42.4536  -24.5182   14.8180 H   0  0  0  0  0  0  0  0  0  0  0  0
  1 12  1  0
  1 15  1  0
  1 24  2  0
  2  3  2  0
  2 22  1  0
  3  4  1  0
  4 20  2  0
  5 19  1  0
  5 25  1  0
  5 26  2  0
  6  7  2  0
  6 17  1  0
  7  8  1  0
  8 12  2  0
  9 10  2  0
  9 15  1  0
  9 16  1  0
 10 11  1  0
 11 13  2  0
 12 16  1  0
 13 14  1  0
 14 15  2  0
 16 17  2  0
 17 18  1  0
 18 23  1  0
 18 27  2  0
 19 20  1  0
 19 23  1  0
 20 21  1  0
 21 22  2  0
  2 28  1  0
  3 29  1  0
  4 30  1  0
  6 31  1  0
  7 32  1  0
  8 33  1  0
 10 34  1  0
 11 35  1  0
 13 36  1  0
 14 37  1  0
 19 38  1  1
 21 39  1  0
 22 40  1  0
 23 41  1  0
M  CHG  1  25  -1
M  END
>  <filename_input>  (25) 
7OFF_VCB_docked.sdf

>  <pdb_id>  (25) 
7OFF_VCB

>  <pose_rank>  (25) 
24

>  <num_atoms_heavy>  (25) 
27

>  <num_torsions>  (25) 
4

>  <pose>  (25) 
[37.9875879312742, -22.82051687738079, 16.977782200868976, -0.05276173081997592, -2.946022392854675, -1.877295010871969, -3.114580990863437, -6.203876468727698, -1.2263099948254712, -3.2557719385626913]

>  <energy>  (25) 
-70.45919476085353

>  <inter_energy>  (25) 
-77.04286207931254

>  <intra_energy>  (25) 
4.890806464864159

>  <rmsd>  (25) 
9.86427

>  <sdf_rank>  (25) 
0

$$$$

     RDKit          3D

 41 44  0  0  0  0  0  0  0  0999 V2000
   42.9960  -26.7080   10.4090 C   0  0  0  0  0  0  0  0  0  0  0  0
   35.2140  -25.2050    7.6770 C   0  0  0  0  0  0  0  0  0  0  0  0
   36.4050  -24.9180    8.2980 C   0  0  0  0  0  0  0  0  0  0  0  0
   36.7370  -25.5300    9.4940 C   0  0  0  0  0  0  0  0  0  0  0  0
   35.4450  -26.4970   12.5280 C   0  0  0  0  0  0  0  0  0  0  0  0
   40.2930  -28.1310   13.3440 C   0  0  0  0  0  0  0  0  0  0  0  0
   41.5930  -27.8910   13.7690 C   0  0  0  0  0  0  0  0  0  0  0  0
   42.5560  -27.4320   12.8840 C   0  0  0  0  0  0  0  0  0  0  0  0
   40.7870  -27.1050    9.7010 C   0  0  0  0  0  0  0  0  0  0  0  0
   39.7190  -27.1640    8.8030 C   0  0  0  0  0  0  0  0  0  0  0  0
   39.9380  -26.7940    7.4840 C   0  0  0  0  0  0  0  0  0  0  0  0
   42.1940  -27.2010   11.5700 C   0  0  0  0  0  0  0  0  0  0  0  0
   41.1860  -26.3580    7.0650 C   0  0  0  0  0  0  0  0  0  0  0  0
   42.2520  -26.2900    7.9540 C   0  0  0  0  0  0  0  0  0  0  0  0
   42.0370  -26.6660    9.2640 C   0  0  0  0  0  0  0  0  0  0  0  0
   40.8720  -27.4350   11.1300 C   0  0  0  0  0  0  0  0  0  0  0  0
   39.9140  -27.8990   12.0200 C   0  0  0  0  0  0  0  0  0  0  0  0
   38.5130  -28.1550   11.5580 C   0  0  0  0  0  0  0  0  0  0  0  0
   36.2290  -27.1560   11.3650 C   0  0  1  0  0  0  0  0  0  0  0  0
   35.8760  -26.4480   10.0700 C   0  0  0  0  0  0  0  0  0  0  0  0
   34.6800  -26.7320    9.4350 C   0  0  0  0  0  0  0  0  0  0  0  0
   34.3440  -26.1080    8.2450 C   0  0  0  0  0  0  0  0  0  0  0  0
   37.6490  -27.1190   11.6990 N   0  0  0  0  0  0  0  0  0  0  0  0
   44.1740  -26.4140   10.4020 O   0  0  0  0  0  0  0  0  0  0  0  0
   36.0630  -25.6600   13.2410 O   0  0  0  0  0  0  0  0  0  0  0  0
   34.2560  -26.8150   12.6700 O   0  0  0  0  0  0  0  0  0  0  0  0
   38.2010  -29.2410   11.0630 O   0  0  0  0  0  0  0  0  0  0  0  0
   34.9557  -24.7140    6.7272 H   0  0  0  0  0  0  0  0  0  0  0  0
   37.0994  -24.1971    7.8418 H   0  0  0  0  0  0  0  0  0  0  0  0
   37.6887  -25.2860    9.9887 H   0  0  0  0  0  0  0  0  0  0  0  0
   39.5501  -28.5098   14.0614 H   0  0  0  0  0  0  0  0  0  0  0  0
   41.8619  -28.0673   14.8210 H   0  0  0  0  0  0  0  0  0  0  0  0
   43.5881  -27.2550   13.2207 H   0  0  0  0  0  0  0  0  0  0  0  0
   38.7245  -27.4970    9.1348 H   0  0  0  0  0  0  0  0  0  0  0  0
   39.1108  -26.8472    6.7609 H   0  0  0  0  0  0  0  0  0  0  0  0
   41.3340  -26.0623    6.0159 H   0  0  0  0  0  0  0  0  0  0  0  0
   43.2422  -25.9451    7.6216 H   0  0  0  0  0  0  0  0  0  0  0  0
   35.9588  -28.2124   11.2199 H   0  0  0  0  0  0  0  0  0  0  0  0
   33.9879  -27.4619    9.8804 H   0  0  0  0  0  0  0  0  0  0  0  0
   33.3851  -26.3333    7.7554 H   0  0  0  0  0  0  0  0  0  0  0  0
   38.0253  -26.2356   12.0716 H   0  0  0  0  0  0  0  0  0  0  0  0
  1 12  1  0
  1 15  1  0
  1 24  2  0
  2  3  2  0
  2 22  1  0
  3  4  1  0
  4 20  2  0
  5 19  1  0
  5 25  1  0
  5 26  2  0
  6  7  2  0
  6 17  1  0
  7  8  1  0
  8 12  2  0
  9 10  2  0
  9 15  1  0
  9 16  1  0
 10 11  1  0
 11 13  2  0
 12 16  1  0
 13 14  1  0
 14 15  2  0
 16 17  2  0
 17 18  1  0
 18 23  1  0
 18 27  2  0
 19 20  1  0
 19 23  1  0
 20 21  1  0
 21 22  2  0
  2 28  1  0
  3 29  1  0
  4 30  1  0
  6 31  1  0
  7 32  1  0
  8 33  1  0
 10 34  1  0
 11 35  1  0
 13 36  1  0
 14 37  1  0
 19 38  1  6
 21 39  1  0
 22 40  1  0
 23 41  1  0
M  CHG  1  25  -1
M  END
>  <filename_input>  (26) 
7OFF_VCB_docked.sdf

>  <pdb_id>  (26) 
7OFF_VCB

>  <pose_rank>  (26) 
25

>  <num_atoms_heavy>  (26) 
27

>  <num_torsions>  (26) 
4

>  <pose>  (26) 
[42.996, -26.708, 10.409, 1e-06, 1e-06, 1e-06, 0.0, 0.0, 0.0, 0.0]

>  <energy>  (26) 
-733.5751978563936

>  <inter_energy>  (26) 
-742.3732608950593

>  <intra_energy>  (26) 
8.186149612384588

>  <rmsd>  (26) 
0.0

>  <sdf_rank>  (26) 
0

$$$$
