
     RDKit          3D

 53 55  0  0  0  0  0  0  0  0999 V2000
  -26.8427    0.2919   -9.1506 C   0  0  0  0  0  0  0  0  0  0  0  0
  -27.4066    0.9745  -10.3611 C   0  0  0  0  0  0  0  0  0  0  0  0
  -26.0499   -2.0330  -14.0575 C   0  0  0  0  0  0  0  0  0  0  0  0
  -26.3102   -1.9591  -15.4137 C   0  0  0  0  0  0  0  0  0  0  0  0
  -27.0783   -0.9579  -15.9574 C   0  0  0  0  0  0  0  0  0  0  0  0
  -27.5967    0.0418  -15.1608 C   0  0  0  0  0  0  0  0  0  0  0  0
  -27.3324   -0.0262  -13.8122 C   0  0  0  0  0  0  0  0  0  0  0  0
  -27.7801    0.9293  -12.7665 C   0  0  2  0  0  0  0  0  0  0  0  0
  -27.1726    2.2856  -13.0118 C   0  0  0  0  0  0  0  0  0  0  0  0
  -27.8273    4.4419  -14.0720 C   0  0  0  0  0  0  0  0  0  0  0  0
  -27.2071    6.9640  -15.0598 C   0  0  0  0  0  0  0  0  0  0  0  0
  -28.2402    6.2221  -15.6049 C   0  0  0  0  0  0  0  0  0  0  0  0
  -28.5551    4.9739  -15.1058 C   0  0  0  0  0  0  0  0  0  0  0  0
  -26.8588    8.3347  -15.6118 C   0  0  1  0  0  0  0  0  0  0  0  0
  -27.9010    9.3435  -15.1788 C   0  0  1  0  0  0  0  0  0  0  0  0
  -24.0857   -2.6354  -16.9544 C   0  0  0  0  0  0  0  0  0  0  0  0
  -28.0896    1.9834  -10.2562 O   0  0  0  0  0  0  0  0  0  0  0  0
  -27.1141    0.4037  -11.5904 N   0  0  0  0  0  0  0  0  0  0  0  0
  -26.4265   -0.8647  -11.8026 C   0  0  0  0  0  0  0  0  0  0  0  0
  -26.5717   -1.0327  -13.2736 C   0  0  0  0  0  0  0  0  0  0  0  0
  -25.9893    2.4886  -12.8056 O   0  0  0  0  0  0  0  0  0  0  0  0
  -28.1017    3.1559  -13.5477 N   0  0  0  0  0  0  0  0  0  0  0  0
  -26.7974    5.1625  -13.5225 C   0  0  0  0  0  0  0  0  0  0  0  0
  -26.4915    6.4157  -14.0167 C   0  0  0  0  0  0  0  0  0  0  0  0
  -25.5961    8.7679  -15.1008 O   0  0  0  0  0  0  0  0  0  0  0  0
  -29.0020    9.2140  -15.9418 F   0  0  0  0  0  0  0  0  0  0  0  0
  -28.2792    9.2405  -13.8687 F   0  0  0  0  0  0  0  0  0  0  0  0
  -27.4462   10.6000  -15.3566 F   0  0  0  0  0  0  0  0  0  0  0  0
  -26.7452    8.3230  -17.1285 C   0  0  2  0  0  0  0  0  0  0  0  0
  -26.8712    9.5753  -17.6658 F   0  0  0  0  0  0  0  0  0  0  0  0
  -27.6758    7.5252  -17.6853 F   0  0  0  0  0  0  0  0  0  0  0  0
  -25.5473    7.8480  -17.5060 F   0  0  0  0  0  0  0  0  0  0  0  0
  -25.6934   -3.2303  -16.5016 S   0  0  1  0  0  0  0  0  0  0  0  0
  -25.4915   -4.4397  -15.7220 O   0  0  0  0  0  0  0  0  0  0  0  0
  -26.5391   -3.1887  -17.6709 O   0  0  0  0  0  0  0  0  0  0  0  0
  -27.2380    0.7704   -8.2424 H   0  0  0  0  0  0  0  0  0  0  0  0
  -27.1307   -0.7697   -9.1607 H   0  0  0  0  0  0  0  0  0  0  0  0
  -25.7458    0.3744   -9.1607 H   0  0  0  0  0  0  0  0  0  0  0  0
  -25.4546   -2.8521  -13.6277 H   0  0  0  0  0  0  0  0  0  0  0  0
  -27.2818   -0.9536  -17.0384 H   0  0  0  0  0  0  0  0  0  0  0  0
  -28.1967    0.8597  -15.5862 H   0  0  0  0  0  0  0  0  0  0  0  0
  -28.8744    1.0282  -12.7140 H   0  0  0  0  0  0  0  0  0  0  0  0
  -28.8179    6.6320  -16.4465 H   0  0  0  0  0  0  0  0  0  0  0  0
  -29.3914    4.4049  -15.5381 H   0  0  0  0  0  0  0  0  0  0  0  0
  -23.5048   -2.4205  -16.0453 H   0  0  0  0  0  0  0  0  0  0  0  0
  -23.5657   -3.4006  -17.5494 H   0  0  0  0  0  0  0  0  0  0  0  0
  -24.1890   -1.7160  -17.5494 H   0  0  0  0  0  0  0  0  0  0  0  0
  -25.3687   -0.8038  -11.5068 H   0  0  0  0  0  0  0  0  0  0  0  0
  -26.8301   -1.7002  -11.2118 H   0  0  0  0  0  0  0  0  0  0  0  0
  -29.0821    2.8410  -13.5677 H   0  0  0  0  0  0  0  0  0  0  0  0
  -26.2155    4.7427  -12.6887 H   0  0  0  0  0  0  0  0  0  0  0  0
  -25.6632    6.9856  -13.5705 H   0  0  0  0  0  0  0  0  0  0  0  0
  -25.6202    8.7597  -14.1111 H   0  0  0  0  0  0  0  0  0  0  0  0
  1  2  1  0
  2 17  2  0
  2 18  1  0
  3  4  2  0
  3 20  1  0
  4  5  1  0
  4 33  1  0
  5  6  2  0
  6  7  1  0
  7  8  1  0
  7 20  2  0
  8  9  1  0
  8 18  1  0
  9 21  2  0
  9 22  1  0
 10 13  2  0
 10 22  1  0
 10 23  1  0
 11 12  2  0
 11 14  1  0
 11 24  1  0
 12 13  1  0
 14 15  1  0
 14 25  1  1
 14 29  1  0
 15 26  1  6
 15 27  1  0
 15 28  1  0
 33 16  1  6
 18 19  1  0
 19 20  1  0
 23 24  2  0
 29 30  1  6
 29 31  1  0
 29 32  1  0
 33 34  2  0
 33 35  2  0
  1 36  1  0
  1 37  1  0
  1 38  1  0
  3 39  1  0
  5 40  1  0
  6 41  1  0
  8 42  1  1
 12 43  1  0
 13 44  1  0
 16 45  1  0
 16 46  1  0
 16 47  1  0
 19 48  1  0
 19 49  1  0
 22 50  1  0
 23 51  1  0
 24 52  1  0
 25 53  1  0
M  END
>  <filename_input>  (1) 
7OFK_VCH_docked.sdf

>  <pdb_id>  (1) 
7OFK_VCH

>  <pose_rank>  (1) 
0

>  <num_atoms_heavy>  (1) 
35

>  <num_torsions>  (1) 
6

>  <pose>  (1) 
[-27.172593797160477, 2.2856111772602534, -13.011825199925367, -0.18926331009526368, -6.079697669670549, -0.5622089160051774, -6.210891728674626, 0.14545512979998482, 9.088909872003816, -2.8465057464021672, -4.361788212379094, -0.3733622831115648]

>  <energy>  (1) 
-1077.7131926081313

>  <inter_energy>  (1) 
-1130.6447382511988

>  <intra_energy>  (1) 
55.344821249262594

>  <rmsd>  (1) 
0.302578

>  <sdf_rank>  (1) 
0

$$$$

     RDKit          3D

 53 55  0  0  0  0  0  0  0  0999 V2000
  -27.0798    0.6325   -9.4742 C   0  0  0  0  0  0  0  0  0  0  0  0
  -27.6370    1.2303  -10.7318 C   0  0  0  0  0  0  0  0  0  0  0  0
  -26.0455   -1.8889  -14.2370 C   0  0  0  0  0  0  0  0  0  0  0  0
  -26.2691   -1.8921  -15.6017 C   0  0  0  0  0  0  0  0  0  0  0  0
  -27.0633   -0.9533  -16.2148 C   0  0  0  0  0  0  0  0  0  0  0  0
  -27.6471    0.0597  -15.4828 C   0  0  0  0  0  0  0  0  0  0  0  0
  -27.4195    0.0686  -14.1259 C   0  0  0  0  0  0  0  0  0  0  0  0
  -27.9381    1.0526  -13.1411 C   0  0  2  0  0  0  0  0  0  0  0  0
  -27.3825    2.4211  -13.4368 C   0  0  0  0  0  0  0  0  0  0  0  0
  -28.1670    4.5580  -14.4471 C   0  0  0  0  0  0  0  0  0  0  0  0
  -27.8452    7.0794  -15.5695 C   0  0  0  0  0  0  0  0  0  0  0  0
  -27.1452    6.7133  -14.4333 C   0  0  0  0  0  0  0  0  0  0  0  0
  -27.2971    5.4561  -13.8830 C   0  0  0  0  0  0  0  0  0  0  0  0
  -27.6807    8.4634  -16.1716 C   0  0  1  0  0  0  0  0  0  0  0  0
  -26.4685    8.4892  -17.0779 C   0  0  1  0  0  0  0  0  0  0  0  0
  -23.9357   -2.5877  -16.9622 C   0  0  0  0  0  0  0  0  0  0  0  0
  -28.3655    2.2118  -10.6953 O   0  0  0  0  0  0  0  0  0  0  0  0
  -27.2846    0.6144  -11.9230 N   0  0  0  0  0  0  0  0  0  0  0  0
  -26.5373   -0.6311  -12.0536 C   0  0  0  0  0  0  0  0  0  0  0  0
  -26.6323   -0.8760  -13.5178 C   0  0  0  0  0  0  0  0  0  0  0  0
  -26.1915    2.6512  -13.3249 O   0  0  0  0  0  0  0  0  0  0  0  0
  -28.3702    3.2683  -13.8998 N   0  0  0  0  0  0  0  0  0  0  0  0
  -28.8715    4.9062  -15.5715 C   0  0  0  0  0  0  0  0  0  0  0  0
  -28.7094    6.1608  -16.1262 C   0  0  0  0  0  0  0  0  0  0  0  0
  -28.8226    8.7973  -16.9639 O   0  0  0  0  0  0  0  0  0  0  0  0
  -26.2371    9.7493  -17.4900 F   0  0  0  0  0  0  0  0  0  0  0  0
  -25.3218    8.0142  -16.5038 F   0  0  0  0  0  0  0  0  0  0  0  0
  -26.6878    7.7491  -18.1831 F   0  0  0  0  0  0  0  0  0  0  0  0
  -27.5523    9.5360  -15.1009 C   0  0  2  0  0  0  0  0  0  0  0  0
  -27.8741   10.7792  -15.5736 F   0  0  0  0  0  0  0  0  0  0  0  0
  -26.3044    9.5817  -14.5976 F   0  0  0  0  0  0  0  0  0  0  0  0
  -28.3779    9.2758  -14.0744 F   0  0  0  0  0  0  0  0  0  0  0  0
  -25.5669   -3.1857  -16.6084 S   0  0  1  0  0  0  0  0  0  0  0  0
  -25.4116   -4.3720  -15.7840 O   0  0  0  0  0  0  0  0  0  0  0  0
  -26.3278   -3.1832  -17.8353 O   0  0  0  0  0  0  0  0  0  0  0  0
  -27.5365    1.1225   -8.6017 H   0  0  0  0  0  0  0  0  0  0  0  0
  -27.3041   -0.4441   -9.4493 H   0  0  0  0  0  0  0  0  0  0  0  0
  -25.9901    0.7807   -9.4493 H   0  0  0  0  0  0  0  0  0  0  0  0
  -25.4283   -2.6591  -13.7513 H   0  0  0  0  0  0  0  0  0  0  0  0
  -27.2353   -1.0102  -17.2998 H   0  0  0  0  0  0  0  0  0  0  0  0
  -28.2691    0.8287  -15.9641 H   0  0  0  0  0  0  0  0  0  0  0  0
  -29.0366    1.1054  -13.1232 H   0  0  0  0  0  0  0  0  0  0  0  0
  -26.4592    7.4328  -13.9626 H   0  0  0  0  0  0  0  0  0  0  0  0
  -26.7193    5.1742  -12.9905 H   0  0  0  0  0  0  0  0  0  0  0  0
  -23.4040   -2.3928  -16.0191 H   0  0  0  0  0  0  0  0  0  0  0  0
  -23.3863   -3.3429  -17.5435 H   0  0  0  0  0  0  0  0  0  0  0  0
  -24.0046   -1.6563  -17.5435 H   0  0  0  0  0  0  0  0  0  0  0  0
  -25.4922   -0.5092  -11.7327 H   0  0  0  0  0  0  0  0  0  0  0  0
  -26.9217   -1.4542  -11.4333 H   0  0  0  0  0  0  0  0  0  0  0  0
  -29.3419    2.9315  -13.8417 H   0  0  0  0  0  0  0  0  0  0  0  0
  -29.5650    4.1866  -16.0311 H   0  0  0  0  0  0  0  0  0  0  0  0
  -29.2795    6.4315  -17.0272 H   0  0  0  0  0  0  0  0  0  0  0  0
  -29.5828    9.0197  -16.3699 H   0  0  0  0  0  0  0  0  0  0  0  0
  1  2  1  0
  2 17  2  0
  2 18  1  0
  3  4  2  0
  3 20  1  0
  4  5  1  0
  4 33  1  0
  5  6  2  0
  6  7  1  0
  7  8  1  0
  7 20  2  0
  8  9  1  0
  8 18  1  0
  9 21  2  0
  9 22  1  0
 10 13  2  0
 10 22  1  0
 10 23  1  0
 11 12  2  0
 11 14  1  0
 11 24  1  0
 12 13  1  0
 14 15  1  0
 14 25  1  6
 14 29  1  0
 15 26  1  6
 15 27  1  0
 15 28  1  0
 33 16  1  6
 18 19  1  0
 19 20  1  0
 23 24  2  0
 29 30  1  6
 29 31  1  0
 29 32  1  0
 33 34  2  0
 33 35  2  0
  1 36  1  0
  1 37  1  0
  1 38  1  0
  3 39  1  0
  5 40  1  0
  6 41  1  0
  8 42  1  1
 12 43  1  0
 13 44  1  0
 16 45  1  0
 16 46  1  0
 16 47  1  0
 19 48  1  0
 19 49  1  0
 22 50  1  0
 23 51  1  0
 24 52  1  0
 25 53  1  0
M  END
>  <filename_input>  (2) 
7OFK_VCH_docked.sdf

>  <pdb_id>  (2) 
7OFK_VCH

>  <pose_rank>  (2) 
1

>  <num_atoms_heavy>  (2) 
35

>  <num_torsions>  (2) 
6

>  <pose>  (2) 
[-27.382465152597806, 2.4211056800388753, -13.4367933517972, -0.02083311917044065, -5.960667750094774, -0.8954049237380044, -6.0926916048923125, 0.20505848770513113, -0.5376892736788076, -2.676117910917698, 0.26293696521904036, 0.3536871402225923]

>  <energy>  (2) 
-1103.9577003839831

>  <inter_energy>  (2) 
-1123.7198079789755

>  <intra_energy>  (2) 
35.80539740863787

>  <rmsd>  (2) 
0.96913

>  <sdf_rank>  (2) 
0

$$$$

     RDKit          3D

 53 55  0  0  0  0  0  0  0  0999 V2000
  -27.4874    0.1119   -9.5454 C   0  0  0  0  0  0  0  0  0  0  0  0
  -27.9327    0.8322  -10.7832 C   0  0  0  0  0  0  0  0  0  0  0  0
  -26.1621   -2.0267  -14.4219 C   0  0  0  0  0  0  0  0  0  0  0  0
  -26.2822   -1.9065  -15.7944 C   0  0  0  0  0  0  0  0  0  0  0  0
  -27.0036   -0.8939  -16.3794 C   0  0  0  0  0  0  0  0  0  0  0  0
  -27.6146    0.0713  -15.6063 C   0  0  0  0  0  0  0  0  0  0  0  0
  -27.4898   -0.0426  -14.2409 C   0  0  0  0  0  0  0  0  0  0  0  0
  -28.0557    0.8701  -13.2144 C   0  0  2  0  0  0  0  0  0  0  0  0
  -27.4444    2.2402  -13.3482 C   0  0  0  0  0  0  0  0  0  0  0  0
  -28.0214    4.4308  -14.3830 C   0  0  0  0  0  0  0  0  0  0  0  0
  -27.3304    6.9830  -15.2373 C   0  0  0  0  0  0  0  0  0  0  0  0
  -28.5394    6.4158  -15.6000 C   0  0  0  0  0  0  0  0  0  0  0  0
  -28.8868    5.1521  -15.1655 C   0  0  0  0  0  0  0  0  0  0  0  0
  -26.9474    8.3710  -15.7187 C   0  0  1  0  0  0  0  0  0  0  0  0
  -25.8801    8.2683  -16.7872 C   0  0  1  0  0  0  0  0  0  0  0  0
  -25.6982   -4.6309  -15.9231 C   0  0  0  0  0  0  0  0  0  0  0  0
  -28.6364    1.8299  -10.7144 O   0  0  0  0  0  0  0  0  0  0  0  0
  -27.5074    0.3090  -11.9948 N   0  0  0  0  0  0  0  0  0  0  0  0
  -26.7847   -0.9442  -12.1788 C   0  0  0  0  0  0  0  0  0  0  0  0
  -26.7753   -1.0604  -13.6618 C   0  0  0  0  0  0  0  0  0  0  0  0
  -26.2889    2.4452  -13.0216 O   0  0  0  0  0  0  0  0  0  0  0  0
  -28.3287    3.1229  -13.9372 N   0  0  0  0  0  0  0  0  0  0  0  0
  -26.8172    4.9769  -14.0174 C   0  0  0  0  0  0  0  0  0  0  0  0
  -26.4769    6.2456  -14.4446 C   0  0  0  0  0  0  0  0  0  0  0  0
  -28.0796    9.0243  -16.2970 O   0  0  0  0  0  0  0  0  0  0  0  0
  -26.1480    7.2276  -17.5973 F   0  0  0  0  0  0  0  0  0  0  0  0
  -25.7466    9.3859  -17.5638 F   0  0  0  0  0  0  0  0  0  0  0  0
  -24.6748    8.0325  -16.2313 F   0  0  0  0  0  0  0  0  0  0  0  0
  -26.4589    9.2518  -14.5789 C   0  0  2  0  0  0  0  0  0  0  0  0
  -27.1987    9.0810  -13.4404 F   0  0  0  0  0  0  0  0  0  0  0  0
  -26.4906   10.5548  -14.9159 F   0  0  0  0  0  0  0  0  0  0  0  0
  -25.1850    8.9587  -14.2719 F   0  0  0  0  0  0  0  0  0  0  0  0
  -25.5396   -3.1316  -16.8563 S   0  0  1  0  0  0  0  0  0  0  0  0
  -26.3745   -3.2791  -18.0363 O   0  0  0  0  0  0  0  0  0  0  0  0
  -24.1393   -2.7883  -16.9301 O   0  0  0  0  0  0  0  0  0  0  0  0
  -27.8287    0.6640   -8.6572 H   0  0  0  0  0  0  0  0  0  0  0  0
  -27.9175   -0.9004   -9.5355 H   0  0  0  0  0  0  0  0  0  0  0  0
  -26.3896    0.0441   -9.5355 H   0  0  0  0  0  0  0  0  0  0  0  0
  -25.6033   -2.8549  -13.9617 H   0  0  0  0  0  0  0  0  0  0  0  0
  -27.0946   -0.8526  -17.4749 H   0  0  0  0  0  0  0  0  0  0  0  0
  -28.1786    0.8981  -16.0628 H   0  0  0  0  0  0  0  0  0  0  0  0
  -29.1508    0.9564  -13.2720 H   0  0  0  0  0  0  0  0  0  0  0  0
  -29.2323    6.9787  -16.2426 H   0  0  0  0  0  0  0  0  0  0  0  0
  -29.8596    4.7230  -15.4474 H   0  0  0  0  0  0  0  0  0  0  0  0
  -25.6736   -4.3981  -14.8483 H   0  0  0  0  0  0  0  0  0  0  0  0
  -26.6529   -5.1179  -16.1710 H   0  0  0  0  0  0  0  0  0  0  0  0
  -24.8665   -5.3068  -16.1710 H   0  0  0  0  0  0  0  0  0  0  0  0
  -25.7640   -0.8837  -11.7731 H   0  0  0  0  0  0  0  0  0  0  0  0
  -27.2358   -1.8044  -11.6624 H   0  0  0  0  0  0  0  0  0  0  0  0
  -29.2987    2.8004  -14.0633 H   0  0  0  0  0  0  0  0  0  0  0  0
  -26.1231    4.4047  -13.3843 H   0  0  0  0  0  0  0  0  0  0  0  0
  -25.5086    6.6747  -14.1473 H   0  0  0  0  0  0  0  0  0  0  0  0
  -28.6681    9.3639  -15.5770 H   0  0  0  0  0  0  0  0  0  0  0  0
  1  2  1  0
  2 17  2  0
  2 18  1  0
  3  4  2  0
  3 20  1  0
  4  5  1  0
  4 33  1  0
  5  6  2  0
  6  7  1  0
  7  8  1  0
  7 20  2  0
  8  9  1  0
  8 18  1  0
  9 21  2  0
  9 22  1  0
 10 13  2  0
 10 22  1  0
 10 23  1  0
 11 12  2  0
 11 14  1  0
 11 24  1  0
 12 13  1  0
 14 15  1  0
 14 25  1  6
 14 29  1  0
 15 26  1  6
 15 27  1  0
 15 28  1  0
 33 16  1  1
 18 19  1  0
 19 20  1  0
 23 24  2  0
 29 30  1  1
 29 31  1  0
 29 32  1  0
 33 34  2  0
 33 35  2  0
  1 36  1  0
  1 37  1  0
  1 38  1  0
  3 39  1  0
  5 40  1  0
  6 41  1  0
  8 42  1  1
 12 43  1  0
 13 44  1  0
 16 45  1  0
 16 46  1  0
 16 47  1  0
 19 48  1  0
 19 49  1  0
 22 50  1  0
 23 51  1  0
 24 52  1  0
 25 53  1  0
M  END
>  <filename_input>  (3) 
7OFK_VCH_docked.sdf

>  <pdb_id>  (3) 
7OFK_VCH

>  <pose_rank>  (3) 
2

>  <num_atoms_heavy>  (3) 
35

>  <num_torsions>  (3) 
6

>  <pose>  (3) 
[-27.444379861770244, 2.240243373405291, -13.348187878531455, -2.8129026696720074, -5.1372828922934355, -2.0026125127578034, -6.202695921076157, 2.2880088212201075, -3.1258890138175053, 0.28072124679606947, -2.3052765031159024, 2.414574565113086]

>  <energy>  (3) 
-980.5663976694443

>  <inter_energy>  (3) 
-1033.6223353767436

>  <intra_energy>  (3) 
55.18794110407131

>  <rmsd>  (3) 
1.24645

>  <sdf_rank>  (3) 
0

$$$$

     RDKit          3D

 53 55  0  0  0  0  0  0  0  0999 V2000
  -27.2623   -1.1081  -16.6440 C   0  0  0  0  0  0  0  0  0  0  0  0
  -26.1934   -0.3763  -15.8882 C   0  0  0  0  0  0  0  0  0  0  0  0
  -27.8303   -0.5481  -11.2150 C   0  0  0  0  0  0  0  0  0  0  0  0
  -27.2575   -0.0777  -10.0474 C   0  0  0  0  0  0  0  0  0  0  0  0
  -26.0264    0.5323  -10.0310 C   0  0  0  0  0  0  0  0  0  0  0  0
  -25.3236    0.7288  -11.2016 C   0  0  0  0  0  0  0  0  0  0  0  0
  -25.8955    0.2680  -12.3651 C   0  0  0  0  0  0  0  0  0  0  0  0
  -25.3311    0.3657  -13.7358 C   0  0  2  0  0  0  0  0  0  0  0  0
  -25.2095    1.8109  -14.1424 C   0  0  0  0  0  0  0  0  0  0  0  0
  -26.7170    3.7489  -14.5596 C   0  0  0  0  0  0  0  0  0  0  0  0
  -27.3662    6.2794  -15.5063 C   0  0  0  0  0  0  0  0  0  0  0  0
  -26.0860    5.9928  -15.0658 C   0  0  0  0  0  0  0  0  0  0  0  0
  -25.7614    4.7319  -14.6065 C   0  0  0  0  0  0  0  0  0  0  0  0
  -27.7235    7.6673  -16.0075 C   0  0  1  0  0  0  0  0  0  0  0  0
  -26.9453    7.9746  -17.2689 C   0  0  1  0  0  0  0  0  0  0  0  0
  -26.8053   -0.8757   -7.4134 C   0  0  0  0  0  0  0  0  0  0  0  0
  -25.1832    0.0223  -16.4503 O   0  0  0  0  0  0  0  0  0  0  0  0
  -26.4122   -0.1806  -14.5332 N   0  0  0  0  0  0  0  0  0  0  0  0
  -27.5150   -0.7344  -13.7560 C   0  0  0  0  0  0  0  0  0  0  0  0
  -27.1213   -0.3478  -12.3745 C   0  0  0  0  0  0  0  0  0  0  0  0
  -24.1499    2.2633  -14.5381 O   0  0  0  0  0  0  0  0  0  0  0  0
  -26.4317    2.4507  -14.0727 N   0  0  0  0  0  0  0  0  0  0  0  0
  -27.9919    4.0173  -14.9890 C   0  0  0  0  0  0  0  0  0  0  0  0
  -28.3111    5.2766  -15.4582 C   0  0  0  0  0  0  0  0  0  0  0  0
  -29.1148    7.7348  -16.3280 O   0  0  0  0  0  0  0  0  0  0  0  0
  -27.5944    8.9109  -17.9854 F   0  0  0  0  0  0  0  0  0  0  0  0
  -25.6688    8.4155  -17.0539 F   0  0  0  0  0  0  0  0  0  0  0  0
  -26.8540    6.8782  -18.0478 F   0  0  0  0  0  0  0  0  0  0  0  0
  -27.4557    8.7353  -14.9582 C   0  0  2  0  0  0  0  0  0  0  0  0
  -27.8103    8.3256  -13.7016 F   0  0  0  0  0  0  0  0  0  0  0  0
  -28.1161    9.8750  -15.2367 F   0  0  0  0  0  0  0  0  0  0  0  0
  -26.1485    9.0405  -14.9219 F   0  0  0  0  0  0  0  0  0  0  0  0
  -28.0970   -0.3185   -8.4927 S   0  0  1  0  0  0  0  0  0  0  0  0
  -28.5273    0.9791   -8.0006 O   0  0  0  0  0  0  0  0  0  0  0  0
  -29.0129   -1.4134   -8.7081 O   0  0  0  0  0  0  0  0  0  0  0  0
  -27.9549   -1.5822  -15.9331 H   0  0  0  0  0  0  0  0  0  0  0  0
  -27.8154   -0.3983  -17.2767 H   0  0  0  0  0  0  0  0  0  0  0  0
  -26.8007   -1.8805  -17.2767 H   0  0  0  0  0  0  0  0  0  0  0  0
  -28.8052   -1.0575  -11.2152 H   0  0  0  0  0  0  0  0  0  0  0  0
  -25.5971    0.8672   -9.0752 H   0  0  0  0  0  0  0  0  0  0  0  0
  -24.3461    1.2332  -11.2047 H   0  0  0  0  0  0  0  0  0  0  0  0
  -24.3491   -0.1203  -13.8325 H   0  0  0  0  0  0  0  0  0  0  0  0
  -25.3174    6.7795  -15.0819 H   0  0  0  0  0  0  0  0  0  0  0  0
  -24.7344    4.5152  -14.2774 H   0  0  0  0  0  0  0  0  0  0  0  0
  -27.1179   -0.7409   -6.3674 H   0  0  0  0  0  0  0  0  0  0  0  0
  -26.6041   -1.9406   -7.6016 H   0  0  0  0  0  0  0  0  0  0  0  0
  -25.8926   -0.2912   -7.6016 H   0  0  0  0  0  0  0  0  0  0  0  0
  -28.4762   -0.2824  -14.0422 H   0  0  0  0  0  0  0  0  0  0  0  0
  -27.6663   -1.8150  -13.8955 H   0  0  0  0  0  0  0  0  0  0  0  0
  -27.2048    1.9371  -13.6263 H   0  0  0  0  0  0  0  0  0  0  0  0
  -28.7596    3.2300  -14.9596 H   0  0  0  0  0  0  0  0  0  0  0  0
  -29.3364    5.4828  -15.7993 H   0  0  0  0  0  0  0  0  0  0  0  0
  -29.6451    7.7605  -15.4924 H   0  0  0  0  0  0  0  0  0  0  0  0
  1  2  1  0
  2 17  2  0
  2 18  1  0
  3  4  2  0
  3 20  1  0
  4  5  1  0
  4 33  1  0
  5  6  2  0
  6  7  1  0
  7  8  1  0
  7 20  2  0
  8  9  1  0
  8 18  1  0
  9 21  2  0
  9 22  1  0
 10 13  2  0
 10 22  1  0
 10 23  1  0
 11 12  2  0
 11 14  1  0
 11 24  1  0
 12 13  1  0
 14 15  1  0
 14 25  1  6
 14 29  1  0
 15 26  1  6
 15 27  1  0
 15 28  1  0
 33 16  1  1
 18 19  1  0
 19 20  1  0
 23 24  2  0
 29 30  1  1
 29 31  1  0
 29 32  1  0
 33 34  2  0
 33 35  2  0
  1 36  1  0
  1 37  1  0
  1 38  1  0
  3 39  1  0
  5 40  1  0
  6 41  1  0
  8 42  1  1
 12 43  1  0
 13 44  1  0
 16 45  1  0
 16 46  1  0
 16 47  1  0
 19 48  1  0
 19 49  1  0
 22 50  1  0
 23 51  1  0
 24 52  1  0
 25 53  1  0
M  END
>  <filename_input>  (4) 
7OFK_VCH_docked.sdf

>  <pdb_id>  (4) 
7OFK_VCH

>  <pose_rank>  (4) 
3

>  <num_atoms_heavy>  (4) 
35

>  <num_torsions>  (4) 
6

>  <pose>  (4) 
[-25.20947409217956, 1.8109251070757122, -14.142438419943437, 0.016809662787283033, 0.7032238462373354, 0.23183724676718206, 3.5433159591662724, -2.2352325641312607, -0.3028576492855301, 3.272458560380585, -0.27146969908028484, 2.417385880940087]

>  <energy>  (4) 
-746.9586367911905

>  <inter_energy>  (4) 
-786.1896210051565

>  <intra_energy>  (4) 
49.66546861228176

>  <rmsd>  (4) 
4.46072

>  <sdf_rank>  (4) 
0

$$$$

     RDKit          3D

 53 55  0  0  0  0  0  0  0  0999 V2000
  -28.7590    1.7662  -11.2457 C   0  0  0  0  0  0  0  0  0  0  0  0
  -27.3796    2.1945  -11.6495 C   0  0  0  0  0  0  0  0  0  0  0  0
  -28.2416    6.1625  -14.4885 C   0  0  0  0  0  0  0  0  0  0  0  0
  -27.3600    7.0186  -15.1229 C   0  0  0  0  0  0  0  0  0  0  0  0
  -25.9976    6.8794  -15.0114 C   0  0  0  0  0  0  0  0  0  0  0  0
  -25.4543    5.8450  -14.2782 C   0  0  0  0  0  0  0  0  0  0  0  0
  -26.3302    4.9879  -13.6525 C   0  0  0  0  0  0  0  0  0  0  0  0
  -25.9817    3.8109  -12.8159 C   0  0  2  0  0  0  0  0  0  0  0  0
  -25.2669    2.7789  -13.6482 C   0  0  0  0  0  0  0  0  0  0  0  0
  -25.8370    0.7353  -14.9525 C   0  0  0  0  0  0  0  0  0  0  0  0
  -25.2497   -1.6453  -16.2596 C   0  0  0  0  0  0  0  0  0  0  0  0
  -24.9597   -0.4245  -16.8432 C   0  0  0  0  0  0  0  0  0  0  0  0
  -25.2414    0.7577  -16.1879 C   0  0  0  0  0  0  0  0  0  0  0  0
  -24.9434   -2.9448  -16.9825 C   0  0  1  0  0  0  0  0  0  0  0  0
  -23.4860   -2.9755  -17.3901 C   0  0  1  0  0  0  0  0  0  0  0  0
  -28.2358    9.6519  -14.8432 C   0  0  0  0  0  0  0  0  0  0  0  0
  -26.3888    1.6278  -11.2106 O   0  0  0  0  0  0  0  0  0  0  0  0
  -27.2922    3.2563  -12.5368 N   0  0  0  0  0  0  0  0  0  0  0  0
  -28.4055    4.0741  -13.0043 C   0  0  0  0  0  0  0  0  0  0  0  0
  -27.6896    5.1365  -13.7605 C   0  0  0  0  0  0  0  0  0  0  0  0
  -24.0501    2.7262  -13.6715 O   0  0  0  0  0  0  0  0  0  0  0  0
  -26.1647    1.9246  -14.2581 N   0  0  0  0  0  0  0  0  0  0  0  0
  -26.1345   -0.4663  -14.3614 C   0  0  0  0  0  0  0  0  0  0  0  0
  -25.8418   -1.6477  -15.0145 C   0  0  0  0  0  0  0  0  0  0  0  0
  -25.1763   -4.0590  -16.1178 O   0  0  0  0  0  0  0  0  0  0  0  0
  -22.7315   -3.3669  -16.3466 F   0  0  0  0  0  0  0  0  0  0  0  0
  -23.2100   -3.8004  -18.4452 F   0  0  0  0  0  0  0  0  0  0  0  0
  -23.0655   -1.7427  -17.7374 F   0  0  0  0  0  0  0  0  0  0  0  0
  -25.8290   -3.1363  -18.2042 C   0  0  2  0  0  0  0  0  0  0  0  0
  -26.7609   -4.1209  -18.0177 F   0  0  0  0  0  0  0  0  0  0  0  0
  -25.1021   -3.4393  -19.2961 F   0  0  0  0  0  0  0  0  0  0  0  0
  -26.4972   -2.0051  -18.4816 F   0  0  0  0  0  0  0  0  0  0  0  0
  -27.9899    8.3934  -16.0678 S   0  0  1  0  0  0  0  0  0  0  0  0
  -26.9344    8.8631  -16.9491 O   0  0  0  0  0  0  0  0  0  0  0  0
  -29.2827    7.9741  -16.5544 O   0  0  0  0  0  0  0  0  0  0  0  0
  -28.8295    1.7443  -10.1482 H   0  0  0  0  0  0  0  0  0  0  0  0
  -29.4959    2.4779  -11.6463 H   0  0  0  0  0  0  0  0  0  0  0  0
  -28.9633    0.7624  -11.6463 H   0  0  0  0  0  0  0  0  0  0  0  0
  -29.3309    6.2965  -14.5631 H   0  0  0  0  0  0  0  0  0  0  0  0
  -25.3337    7.5998  -15.5116 H   0  0  0  0  0  0  0  0  0  0  0  0
  -24.3655    5.7107  -14.1970 H   0  0  0  0  0  0  0  0  0  0  0  0
  -25.3576    4.0696  -11.9477 H   0  0  0  0  0  0  0  0  0  0  0  0
  -24.4991   -0.3956  -17.8416 H   0  0  0  0  0  0  0  0  0  0  0  0
  -24.9875    1.7194  -16.6575 H   0  0  0  0  0  0  0  0  0  0  0  0
  -28.1493    9.2091  -13.8400 H   0  0  0  0  0  0  0  0  0  0  0  0
  -27.4739   10.4359  -14.9650 H   0  0  0  0  0  0  0  0  0  0  0  0
  -29.2369   10.0913  -14.9650 H   0  0  0  0  0  0  0  0  0  0  0  0
  -29.0803    3.5006  -13.6567 H   0  0  0  0  0  0  0  0  0  0  0  0
  -29.0548    4.4527  -12.2010 H   0  0  0  0  0  0  0  0  0  0  0  0
  -27.1622    2.1754  -14.2028 H   0  0  0  0  0  0  0  0  0  0  0  0
  -26.6059   -0.4891  -13.3678 H   0  0  0  0  0  0  0  0  0  0  0  0
  -26.0851   -2.6065  -14.5333 H   0  0  0  0  0  0  0  0  0  0  0  0
  -25.1146   -3.7635  -15.1750 H   0  0  0  0  0  0  0  0  0  0  0  0
  1  2  1  0
  2 17  2  0
  2 18  1  0
  3  4  2  0
  3 20  1  0
  4  5  1  0
  4 33  1  0
  5  6  2  0
  6  7  1  0
  7  8  1  0
  7 20  2  0
  8  9  1  0
  8 18  1  0
  9 21  2  0
  9 22  1  0
 10 13  2  0
 10 22  1  0
 10 23  1  0
 11 12  2  0
 11 14  1  0
 11 24  1  0
 12 13  1  0
 14 15  1  0
 14 25  1  1
 14 29  1  0
 15 26  1  1
 15 27  1  0
 15 28  1  0
 33 16  1  1
 18 19  1  0
 19 20  1  0
 23 24  2  0
 29 30  1  1
 29 31  1  0
 29 32  1  0
 33 34  2  0
 33 35  2  0
  1 36  1  0
  1 37  1  0
  1 38  1  0
  3 39  1  0
  5 40  1  0
  6 41  1  0
  8 42  1  1
 12 43  1  0
 13 44  1  0
 16 45  1  0
 16 46  1  0
 16 47  1  0
 19 48  1  0
 19 49  1  0
 22 50  1  0
 23 51  1  0
 24 52  1  0
 25 53  1  0
M  END
>  <filename_input>  (5) 
7OFK_VCH_docked.sdf

>  <pdb_id>  (5) 
7OFK_VCH

>  <pose_rank>  (5) 
4

>  <num_atoms_heavy>  (5) 
35

>  <num_torsions>  (5) 
6

>  <pose>  (5) 
[-25.266865804385546, 2.7789046494331306, -13.648245452837061, -2.125511758492609, 0.08812690124727088, -0.46289233748507447, -3.2739688874572206, -3.1100886440040703, -1.0484140851639492, 3.0869322077722283, -1.5660173859383553, 1.2244303544793196]

>  <energy>  (5) 
-683.5726861924109

>  <inter_energy>  (5) 
-774.9219469319743

>  <intra_energy>  (5) 
93.28612019063718

>  <rmsd>  (5) 
9.08656

>  <sdf_rank>  (5) 
0

$$$$

     RDKit          3D

 53 55  0  0  0  0  0  0  0  0999 V2000
  -29.1014    3.9897  -14.2310 C   0  0  0  0  0  0  0  0  0  0  0  0
  -27.7721    3.5702  -13.6777 C   0  0  0  0  0  0  0  0  0  0  0  0
  -26.9034   -0.7106  -16.0161 C   0  0  0  0  0  0  0  0  0  0  0  0
  -25.8130   -1.5591  -15.9555 C   0  0  0  0  0  0  0  0  0  0  0  0
  -24.7110   -1.2797  -15.1839 C   0  0  0  0  0  0  0  0  0  0  0  0
  -24.6681   -0.1416  -14.4056 C   0  0  0  0  0  0  0  0  0  0  0  0
  -25.7554    0.6998  -14.4589 C   0  0  0  0  0  0  0  0  0  0  0  0
  -25.9351    1.9730  -13.7148 C   0  0  2  0  0  0  0  0  0  0  0  0
  -25.9745    1.7041  -12.2332 C   0  0  0  0  0  0  0  0  0  0  0  0
  -27.0479    0.0855  -10.6743 C   0  0  0  0  0  0  0  0  0  0  0  0
  -27.7299   -0.8445   -8.1463 C   0  0  0  0  0  0  0  0  0  0  0  0
  -28.4104    0.2146   -8.7208 C   0  0  0  0  0  0  0  0  0  0  0  0
  -28.0784    0.6685   -9.9817 C   0  0  0  0  0  0  0  0  0  0  0  0
  -28.0928   -1.3404   -6.7580 C   0  0  1  0  0  0  0  0  0  0  0  0
  -26.8405   -1.4867   -5.9204 C   0  0  1  0  0  0  0  0  0  0  0  0
  -25.9052   -4.3397  -15.7570 C   0  0  0  0  0  0  0  0  0  0  0  0
  -27.1548    4.2891  -12.9047 O   0  0  0  0  0  0  0  0  0  0  0  0
  -27.2884    2.3371  -14.0875 N   0  0  0  0  0  0  0  0  0  0  0  0
  -27.8863    1.4784  -15.1034 C   0  0  0  0  0  0  0  0  0  0  0  0
  -26.8495    0.4200  -15.2375 C   0  0  0  0  0  0  0  0  0  0  0  0
  -25.5024    2.4986  -11.4396 O   0  0  0  0  0  0  0  0  0  0  0  0
  -26.6599    0.5367  -11.9587 N   0  0  0  0  0  0  0  0  0  0  0  0
  -26.3605   -0.9632  -10.1179 C   0  0  0  0  0  0  0  0  0  0  0  0
  -26.7019   -1.4223   -8.8606 C   0  0  0  0  0  0  0  0  0  0  0  0
  -28.9459   -0.3987   -6.1033 O   0  0  0  0  0  0  0  0  0  0  0  0
  -27.1753   -1.6216   -4.6239 F   0  0  0  0  0  0  0  0  0  0  0  0
  -26.0486   -2.5466   -6.2657 F   0  0  0  0  0  0  0  0  0  0  0  0
  -26.0759   -0.3804   -6.0149 F   0  0  0  0  0  0  0  0  0  0  0  0
  -28.8432   -2.6626   -6.8065 C   0  0  2  0  0  0  0  0  0  0  0  0
  -28.0696   -3.6780   -7.2994 F   0  0  0  0  0  0  0  0  0  0  0  0
  -29.9549   -2.5699   -7.5601 F   0  0  0  0  0  0  0  0  0  0  0  0
  -29.2358   -3.0251   -5.5745 F   0  0  0  0  0  0  0  0  0  0  0  0
  -25.7874   -3.0366  -16.9536 S   0  0  1  0  0  0  0  0  0  0  0  0
  -27.0076   -3.0762  -17.7416 O   0  0  0  0  0  0  0  0  0  0  0  0
  -24.4731   -3.0839  -17.5490 O   0  0  0  0  0  0  0  0  0  0  0  0
  -29.7914    4.2075  -13.4024 H   0  0  0  0  0  0  0  0  0  0  0  0
  -28.9737    4.8912  -14.8483 H   0  0  0  0  0  0  0  0  0  0  0  0
  -29.5143    3.1782  -14.8483 H   0  0  0  0  0  0  0  0  0  0  0  0
  -27.7708   -0.9302  -16.6559 H   0  0  0  0  0  0  0  0  0  0  0  0
  -23.8547   -1.9701  -15.1869 H   0  0  0  0  0  0  0  0  0  0  0  0
  -23.8002    0.0839  -13.7684 H   0  0  0  0  0  0  0  0  0  0  0  0
  -25.1469    2.7103  -13.9269 H   0  0  0  0  0  0  0  0  0  0  0  0
  -29.2261    0.7011   -8.1658 H   0  0  0  0  0  0  0  0  0  0  0  0
  -28.6414    1.4994  -10.4319 H   0  0  0  0  0  0  0  0  0  0  0  0
  -25.8666   -3.9121  -14.7442 H   0  0  0  0  0  0  0  0  0  0  0  0
  -26.8556   -4.8769  -15.8921 H   0  0  0  0  0  0  0  0  0  0  0  0
  -25.0666   -5.0386  -15.8921 H   0  0  0  0  0  0  0  0  0  0  0  0
  -28.8459    1.0614  -14.7641 H   0  0  0  0  0  0  0  0  0  0  0  0
  -28.1275    1.9946  -16.0443 H   0  0  0  0  0  0  0  0  0  0  0  0
  -26.9111   -0.0590  -12.7606 H   0  0  0  0  0  0  0  0  0  0  0  0
  -25.5380   -1.4382  -10.6726 H   0  0  0  0  0  0  0  0  0  0  0  0
  -26.1442   -2.2629   -8.4220 H   0  0  0  0  0  0  0  0  0  0  0  0
  -28.8558   -0.4981   -5.1224 H   0  0  0  0  0  0  0  0  0  0  0  0
  1  2  1  0
  2 17  2  0
  2 18  1  0
  3  4  2  0
  3 20  1  0
  4  5  1  0
  4 33  1  0
  5  6  2  0
  6  7  1  0
  7  8  1  0
  7 20  2  0
  8  9  1  0
  8 18  1  0
  9 21  2  0
  9 22  1  0
 10 13  2  0
 10 22  1  0
 10 23  1  0
 11 12  2  0
 11 14  1  0
 11 24  1  0
 12 13  1  0
 14 15  1  0
 14 25  1  1
 14 29  1  0
 15 26  1  1
 15 27  1  0
 15 28  1  0
 33 16  1  1
 18 19  1  0
 19 20  1  0
 23 24  2  0
 29 30  1  6
 29 31  1  0
 29 32  1  0
 33 34  2  0
 33 35  2  0
  1 36  1  0
  1 37  1  0
  1 38  1  0
  3 39  1  0
  5 40  1  0
  6 41  1  0
  8 42  1  1
 12 43  1  0
 13 44  1  0
 16 45  1  0
 16 46  1  0
 16 47  1  0
 19 48  1  0
 19 49  1  0
 22 50  1  0
 23 51  1  0
 24 52  1  0
 25 53  1  0
M  END
>  <filename_input>  (6) 
7OFK_VCH_docked.sdf

>  <pdb_id>  (6) 
7OFK_VCH

>  <pose_rank>  (6) 
5

>  <num_atoms_heavy>  (6) 
35

>  <num_torsions>  (6) 
6

>  <pose>  (6) 
[-25.974502442751646, 1.7041246773776066, -12.233229893005515, -2.5978850647665905, -1.291650096616687, -2.4078985749283497, 3.872327960777938, -0.2544304164032684, 1.5032347686893845, -0.15795465361236666, -0.10440874068815852, -2.0300486487422105]

>  <energy>  (6) 
-680.1616092425418

>  <inter_energy>  (6) 
-720.9965589736474

>  <intra_energy>  (6) 
47.81326143905021

>  <rmsd>  (6) 
8.92843

>  <sdf_rank>  (6) 
0

$$$$

     RDKit          3D

 53 55  0  0  0  0  0  0  0  0999 V2000
  -30.3521    5.6077  -18.8652 C   0  0  0  0  0  0  0  0  0  0  0  0
  -30.0029    6.3005  -17.5816 C   0  0  0  0  0  0  0  0  0  0  0  0
  -25.6864    8.4878  -18.6458 C   0  0  0  0  0  0  0  0  0  0  0  0
  -24.8837    9.3080  -17.8741 C   0  0  0  0  0  0  0  0  0  0  0  0
  -25.2307    9.6796  -16.5976 C   0  0  0  0  0  0  0  0  0  0  0  0
  -26.3939    9.2132  -16.0214 C   0  0  0  0  0  0  0  0  0  0  0  0
  -27.1901    8.3910  -16.7852 C   0  0  0  0  0  0  0  0  0  0  0  0
  -28.4784    7.7712  -16.3815 C   0  0  2  0  0  0  0  0  0  0  0  0
  -28.2560    6.8144  -15.2398 C   0  0  0  0  0  0  0  0  0  0  0  0
  -27.7293    4.4008  -14.9242 C   0  0  0  0  0  0  0  0  0  0  0  0
  -27.4291    2.1251  -13.3583 C   0  0  0  0  0  0  0  0  0  0  0  0
  -28.6128    2.3733  -14.0307 C   0  0  0  0  0  0  0  0  0  0  0  0
  -28.7570    3.4985  -14.8178 C   0  0  0  0  0  0  0  0  0  0  0  0
  -27.2727    0.8897  -12.4897 C   0  0  1  0  0  0  0  0  0  0  0  0
  -26.9555    1.2980  -11.0671 C   0  0  1  0  0  0  0  0  0  0  0  0
  -23.2862    9.2028  -20.1581 C   0  0  0  0  0  0  0  0  0  0  0  0
  -30.7698    6.2892  -16.6292 O   0  0  0  0  0  0  0  0  0  0  0  0
  -28.7772    6.9471  -17.5367 N   0  0  0  0  0  0  0  0  0  0  0  0
  -27.8635    7.1272  -18.6591 C   0  0  0  0  0  0  0  0  0  0  0  0
  -26.8428    8.0299  -18.0621 C   0  0  0  0  0  0  0  0  0  0  0  0
  -28.4984    7.1418  -14.0917 O   0  0  0  0  0  0  0  0  0  0  0  0
  -27.8452    5.5787  -15.7006 N   0  0  0  0  0  0  0  0  0  0  0  0
  -26.5504    4.1717  -14.2612 C   0  0  0  0  0  0  0  0  0  0  0  0
  -26.4051    3.0397  -13.4831 C   0  0  0  0  0  0  0  0  0  0  0  0
  -28.4918    0.1437  -12.4661 O   0  0  0  0  0  0  0  0  0  0  0  0
  -27.3206    2.5784  -10.8707 F   0  0  0  0  0  0  0  0  0  0  0  0
  -27.5622    0.5331  -10.1095 F   0  0  0  0  0  0  0  0  0  0  0  0
  -25.6286    1.2292  -10.8395 F   0  0  0  0  0  0  0  0  0  0  0  0
  -26.1913   -0.0408  -13.0170 C   0  0  2  0  0  0  0  0  0  0  0  0
  -26.2132   -0.1376  -14.3818 F   0  0  0  0  0  0  0  0  0  0  0  0
  -26.3122   -1.2782  -12.5003 F   0  0  0  0  0  0  0  0  0  0  0  0
  -24.9746    0.4096  -12.6707 F   0  0  0  0  0  0  0  0  0  0  0  0
  -23.3770    9.9690  -18.5617 S   0  0  1  0  0  0  0  0  0  0  0  0
  -23.5641   11.3922  -18.7870 O   0  0  0  0  0  0  0  0  0  0  0  0
  -22.3099    9.4429  -17.7439 O   0  0  0  0  0  0  0  0  0  0  0  0
  -30.8369    4.6458  -18.6425 H   0  0  0  0  0  0  0  0  0  0  0  0
  -31.0397    6.2389  -19.4472 H   0  0  0  0  0  0  0  0  0  0  0  0
  -29.4357    5.4304  -19.4472 H   0  0  0  0  0  0  0  0  0  0  0  0
  -25.4127    8.2156  -19.6758 H   0  0  0  0  0  0  0  0  0  0  0  0
  -24.5745   10.3556  -16.0297 H   0  0  0  0  0  0  0  0  0  0  0  0
  -26.6736    9.4873  -14.9934 H   0  0  0  0  0  0  0  0  0  0  0  0
  -29.2389    8.5106  -16.0899 H   0  0  0  0  0  0  0  0  0  0  0  0
  -29.4495    1.6653  -13.9369 H   0  0  0  0  0  0  0  0  0  0  0  0
  -29.6979    3.6717  -15.3606 H   0  0  0  0  0  0  0  0  0  0  0  0
  -23.1576    8.1171  -20.0370 H   0  0  0  0  0  0  0  0  0  0  0  0
  -24.2143    9.4023  -20.7139 H   0  0  0  0  0  0  0  0  0  0  0  0
  -22.4305    9.6136  -20.7139 H   0  0  0  0  0  0  0  0  0  0  0  0
  -27.4203    6.1713  -18.9749 H   0  0  0  0  0  0  0  0  0  0  0  0
  -28.3393    7.5241  -19.5680 H   0  0  0  0  0  0  0  0  0  0  0  0
  -27.6014    5.5081  -16.6989 H   0  0  0  0  0  0  0  0  0  0  0  0
  -25.7212    4.8892  -14.3492 H   0  0  0  0  0  0  0  0  0  0  0  0
  -25.4565    2.8651  -12.9542 H   0  0  0  0  0  0  0  0  0  0  0  0
  -28.7601   -0.0204  -11.5273 H   0  0  0  0  0  0  0  0  0  0  0  0
  1  2  1  0
  2 17  2  0
  2 18  1  0
  3  4  2  0
  3 20  1  0
  4  5  1  0
  4 33  1  0
  5  6  2  0
  6  7  1  0
  7  8  1  0
  7 20  2  0
  8  9  1  0
  8 18  1  0
  9 21  2  0
  9 22  1  0
 10 13  2  0
 10 22  1  0
 10 23  1  0
 11 12  2  0
 11 14  1  0
 11 24  1  0
 12 13  1  0
 14 15  1  0
 14 25  1  1
 14 29  1  0
 15 26  1  6
 15 27  1  0
 15 28  1  0
 33 16  1  6
 18 19  1  0
 19 20  1  0
 23 24  2  0
 29 30  1  6
 29 31  1  0
 29 32  1  0
 33 34  2  0
 33 35  2  0
  1 36  1  0
  1 37  1  0
  1 38  1  0
  3 39  1  0
  5 40  1  0
  6 41  1  0
  8 42  1  1
 12 43  1  0
 13 44  1  0
 16 45  1  0
 16 46  1  0
 16 47  1  0
 19 48  1  0
 19 49  1  0
 22 50  1  0
 23 51  1  0
 24 52  1  0
 25 53  1  0
M  END
>  <filename_input>  (7) 
7OFK_VCH_docked.sdf

>  <pdb_id>  (7) 
7OFK_VCH

>  <pose_rank>  (7) 
6

>  <num_atoms_heavy>  (7) 
35

>  <num_torsions>  (7) 
6

>  <pose>  (7) 
[-28.255986765766078, 6.814360493661754, -15.23976149276397, 1.5785965969093234, 1.2038102380250537, 2.7002520549943174, -3.2005162158756746, 1.619615251368508, 1.8356089199249224, 0.030956593268046024, -2.6532052367552748, 2.4151848671571945]

>  <energy>  (7) 
-563.2165543639135

>  <inter_energy>  (7) 
-633.1984743184349

>  <intra_energy>  (7) 
62.83896551099498

>  <rmsd>  (7) 
9.20025

>  <sdf_rank>  (7) 
0

$$$$

     RDKit          3D

 53 55  0  0  0  0  0  0  0  0999 V2000
  -28.5929   10.5529  -15.2915 C   0  0  0  0  0  0  0  0  0  0  0  0
  -27.8899    9.2378  -15.4517 C   0  0  0  0  0  0  0  0  0  0  0  0
  -30.6357    6.9263  -18.8672 C   0  0  0  0  0  0  0  0  0  0  0  0
  -30.4700    5.6891  -19.4625 C   0  0  0  0  0  0  0  0  0  0  0  0
  -29.4006    4.8761  -19.1737 C   0  0  0  0  0  0  0  0  0  0  0  0
  -28.4589    5.2580  -18.2410 C   0  0  0  0  0  0  0  0  0  0  0  0
  -28.6264    6.4855  -17.6423 C   0  0  0  0  0  0  0  0  0  0  0  0
  -27.7485    7.1044  -16.6162 C   0  0  2  0  0  0  0  0  0  0  0  0
  -27.7601    6.2756  -15.3585 C   0  0  0  0  0  0  0  0  0  0  0  0
  -26.8418    4.0999  -14.5678 C   0  0  0  0  0  0  0  0  0  0  0  0
  -26.5932    2.0079  -12.7560 C   0  0  0  0  0  0  0  0  0  0  0  0
  -27.8269    2.3493  -13.2816 C   0  0  0  0  0  0  0  0  0  0  0  0
  -27.9477    3.3814  -14.1907 C   0  0  0  0  0  0  0  0  0  0  0  0
  -26.4618    0.8754  -11.7534 C   0  0  1  0  0  0  0  0  0  0  0  0
  -26.6668   -0.4534  -12.4486 C   0  0  1  0  0  0  0  0  0  0  0  0
  -31.1328    3.4694  -21.0159 C   0  0  0  0  0  0  0  0  0  0  0  0
  -26.8463    9.0035  -14.8589 O   0  0  0  0  0  0  0  0  0  0  0  0
  -28.4821    8.3147  -16.2999 N   0  0  0  0  0  0  0  0  0  0  0  0
  -29.6447    8.5543  -17.1472 C   0  0  0  0  0  0  0  0  0  0  0  0
  -29.6916    7.2968  -17.9406 C   0  0  0  0  0  0  0  0  0  0  0  0
  -28.4918    6.5606  -14.4272 O   0  0  0  0  0  0  0  0  0  0  0  0
  -26.9263    5.1809  -15.4779 N   0  0  0  0  0  0  0  0  0  0  0  0
  -25.6118    3.7770  -14.0535 C   0  0  0  0  0  0  0  0  0  0  0  0
  -25.4922    2.7368  -13.1524 C   0  0  0  0  0  0  0  0  0  0  0  0
  -25.1513    0.8694  -11.1824 O   0  0  0  0  0  0  0  0  0  0  0  0
  -27.8733   -0.4720  -13.0445 F   0  0  0  0  0  0  0  0  0  0  0  0
  -25.7235   -0.7501  -13.3932 F   0  0  0  0  0  0  0  0  0  0  0  0
  -26.6553   -1.4623  -11.5546 F   0  0  0  0  0  0  0  0  0  0  0  0
  -27.4477    1.0184  -10.6041 C   0  0  2  0  0  0  0  0  0  0  0  0
  -28.6544    0.4364  -10.8830 F   0  0  0  0  0  0  0  0  0  0  0  0
  -27.6598    2.3117  -10.2960 F   0  0  0  0  0  0  0  0  0  0  0  0
  -26.9684    0.4271   -9.4979 F   0  0  0  0  0  0  0  0  0  0  0  0
  -31.6346    5.1396  -20.6961 S   0  0  1  0  0  0  0  0  0  0  0  0
  -32.9508    5.0747  -20.0841 O   0  0  0  0  0  0  0  0  0  0  0  0
  -31.3601    5.9298  -21.8727 O   0  0  0  0  0  0  0  0  0  0  0  0
  -28.7126   10.7767  -14.2212 H   0  0  0  0  0  0  0  0  0  0  0  0
  -27.9988   11.3467  -15.7679 H   0  0  0  0  0  0  0  0  0  0  0  0
  -29.5830   10.4998  -15.7679 H   0  0  0  0  0  0  0  0  0  0  0  0
  -31.4817    7.5813  -19.1230 H   0  0  0  0  0  0  0  0  0  0  0  0
  -29.2945    3.9112  -19.6913 H   0  0  0  0  0  0  0  0  0  0  0  0
  -27.6088    4.6080  -17.9863 H   0  0  0  0  0  0  0  0  0  0  0  0
  -26.7100    7.2289  -16.9568 H   0  0  0  0  0  0  0  0  0  0  0  0
  -28.7227    1.7913  -12.9713 H   0  0  0  0  0  0  0  0  0  0  0  0
  -28.9328    3.6281  -14.6133 H   0  0  0  0  0  0  0  0  0  0  0  0
  -30.9752    2.9448  -20.0620 H   0  0  0  0  0  0  0  0  0  0  0  0
  -31.9161    2.9552  -21.5921 H   0  0  0  0  0  0  0  0  0  0  0  0
  -30.1958    3.4720  -21.5921 H   0  0  0  0  0  0  0  0  0  0  0  0
  -30.5583    8.6873  -16.5490 H   0  0  0  0  0  0  0  0  0  0  0  0
  -29.5781    9.4685  -17.7554 H   0  0  0  0  0  0  0  0  0  0  0  0
  -26.3109    5.1481  -16.3032 H   0  0  0  0  0  0  0  0  0  0  0  0
  -24.7211    4.3460  -14.3584 H   0  0  0  0  0  0  0  0  0  0  0  0
  -24.5020    2.4859  -12.7443 H   0  0  0  0  0  0  0  0  0  0  0  0
  -25.2216    0.8698  -10.1949 H   0  0  0  0  0  0  0  0  0  0  0  0
  1  2  1  0
  2 17  2  0
  2 18  1  0
  3  4  2  0
  3 20  1  0
  4  5  1  0
  4 33  1  0
  5  6  2  0
  6  7  1  0
  7  8  1  0
  7 20  2  0
  8  9  1  0
  8 18  1  0
  9 21  2  0
  9 22  1  0
 10 13  2  0
 10 22  1  0
 10 23  1  0
 11 12  2  0
 11 14  1  0
 11 24  1  0
 12 13  1  0
 14 15  1  0
 14 25  1  1
 14 29  1  0
 15 26  1  6
 15 27  1  0
 15 28  1  0
 33 16  1  6
 18 19  1  0
 19 20  1  0
 23 24  2  0
 29 30  1  6
 29 31  1  0
 29 32  1  0
 33 34  2  0
 33 35  2  0
  1 36  1  0
  1 37  1  0
  1 38  1  0
  3 39  1  0
  5 40  1  0
  6 41  1  0
  8 42  1  6
 12 43  1  0
 13 44  1  0
 16 45  1  0
 16 46  1  0
 16 47  1  0
 19 48  1  0
 19 49  1  0
 22 50  1  0
 23 51  1  0
 24 52  1  0
 25 53  1  0
M  END
>  <filename_input>  (8) 
7OFK_VCH_docked.sdf

>  <pdb_id>  (8) 
7OFK_VCH

>  <pose_rank>  (8) 
7

>  <num_atoms_heavy>  (8) 
35

>  <num_torsions>  (8) 
6

>  <pose>  (8) 
[-27.760084287324133, 6.2756429624180425, -15.358513194610765, 0.8869670346057249, 1.565628087019498, 2.859062764058868, -0.3509570204318947, -1.3341225790964841, 1.162545389479093, 3.391934416290532, 2.2784255410563867, -1.634155735739859]

>  <energy>  (8) 
-609.155838501298

>  <inter_energy>  (8) 
-662.2556909936237

>  <intra_energy>  (8) 
58.121673857192164

>  <rmsd>  (8) 
8.70657

>  <sdf_rank>  (8) 
0

$$$$

     RDKit          3D

 53 55  0  0  0  0  0  0  0  0999 V2000
  -28.7624    9.8729  -14.6096 C   0  0  0  0  0  0  0  0  0  0  0  0
  -27.7488    8.9438  -15.2085 C   0  0  0  0  0  0  0  0  0  0  0  0
  -30.3702    6.5113  -18.6377 C   0  0  0  0  0  0  0  0  0  0  0  0
  -29.9773    5.5480  -19.5489 C   0  0  0  0  0  0  0  0  0  0  0  0
  -28.6746    5.1223  -19.6469 C   0  0  0  0  0  0  0  0  0  0  0  0
  -27.7054    5.6253  -18.8040 C   0  0  0  0  0  0  0  0  0  0  0  0
  -28.0962    6.5783  -17.8918 C   0  0  0  0  0  0  0  0  0  0  0  0
  -27.2366    7.2585  -16.8891 C   0  0  2  0  0  0  0  0  0  0  0  0
  -26.7035    6.2551  -15.9002 C   0  0  0  0  0  0  0  0  0  0  0  0
  -27.5778    4.3822  -14.5109 C   0  0  0  0  0  0  0  0  0  0  0  0
  -27.3747    2.4385  -12.5356 C   0  0  0  0  0  0  0  0  0  0  0  0
  -27.2143    3.7790  -12.2320 C   0  0  0  0  0  0  0  0  0  0  0  0
  -27.3269    4.7449  -13.2121 C   0  0  0  0  0  0  0  0  0  0  0  0
  -27.2468    1.3766  -11.4581 C   0  0  1  0  0  0  0  0  0  0  0  0
  -25.8951    0.7025  -11.5583 C   0  0  1  0  0  0  0  0  0  0  0  0
  -32.7259    5.3320  -19.9712 C   0  0  0  0  0  0  0  0  0  0  0  0
  -26.5761    8.9819  -14.8639 O   0  0  0  0  0  0  0  0  0  0  0  0
  -28.2105    8.0510  -16.1635 N   0  0  0  0  0  0  0  0  0  0  0  0
  -29.5536    8.0244  -16.7312 C   0  0  0  0  0  0  0  0  0  0  0  0
  -29.3967    7.0057  -17.8039 C   0  0  0  0  0  0  0  0  0  0  0  0
  -25.5716    6.3498  -15.4601 O   0  0  0  0  0  0  0  0  0  0  0  0
  -27.6761    5.3391  -15.5495 N   0  0  0  0  0  0  0  0  0  0  0  0
  -27.7359    3.0573  -14.8297 C   0  0  0  0  0  0  0  0  0  0  0  0
  -27.6335    2.0938  -13.8452 C   0  0  0  0  0  0  0  0  0  0  0  0
  -27.3401    1.9726  -10.1622 O   0  0  0  0  0  0  0  0  0  0  0  0
  -25.1487    1.0214  -10.4847 F   0  0  0  0  0  0  0  0  0  0  0  0
  -25.9473   -0.6610  -11.6478 F   0  0  0  0  0  0  0  0  0  0  0  0
  -25.2272    1.1402  -12.6443 F   0  0  0  0  0  0  0  0  0  0  0  0
  -28.3539    0.3379  -11.5515 C   0  0  2  0  0  0  0  0  0  0  0  0
  -28.3494   -0.3155  -12.7538 F   0  0  0  0  0  0  0  0  0  0  0  0
  -29.5668    0.8945  -11.3739 F   0  0  0  0  0  0  0  0  0  0  0  0
  -28.2072   -0.5921  -10.5940 F   0  0  0  0  0  0  0  0  0  0  0  0
  -31.1709    4.8706  -20.6875 S   0  0  1  0  0  0  0  0  0  0  0  0
  -31.0576    5.5865  -21.9468 O   0  0  0  0  0  0  0  0  0  0  0  0
  -31.0337    3.4367  -20.5908 O   0  0  0  0  0  0  0  0  0  0  0  0
  -28.7049    9.8202  -13.5123 H   0  0  0  0  0  0  0  0  0  0  0  0
  -28.5560   10.9020  -14.9385 H   0  0  0  0  0  0  0  0  0  0  0  0
  -29.7698    9.5779  -14.9385 H   0  0  0  0  0  0  0  0  0  0  0  0
  -31.4107    6.8641  -18.5832 H   0  0  0  0  0  0  0  0  0  0  0  0
  -28.4019    4.3732  -20.4048 H   0  0  0  0  0  0  0  0  0  0  0  0
  -26.6628    5.2787  -18.8589 H   0  0  0  0  0  0  0  0  0  0  0  0
  -26.3940    7.8014  -17.3422 H   0  0  0  0  0  0  0  0  0  0  0  0
  -26.9943    4.0788  -11.1968 H   0  0  0  0  0  0  0  0  0  0  0  0
  -27.2151    5.8076  -12.9509 H   0  0  0  0  0  0  0  0  0  0  0  0
  -32.6458    5.3082  -18.8744 H   0  0  0  0  0  0  0  0  0  0  0  0
  -32.9928    6.3480  -20.2975 H   0  0  0  0  0  0  0  0  0  0  0  0
  -33.5037    4.6259  -20.2975 H   0  0  0  0  0  0  0  0  0  0  0  0
  -30.2997    7.7124  -15.9856 H   0  0  0  0  0  0  0  0  0  0  0  0
  -29.9116    9.0017  -17.0870 H   0  0  0  0  0  0  0  0  0  0  0  0
  -28.5513    5.3537  -16.0923 H   0  0  0  0  0  0  0  0  0  0  0  0
  -27.9441    2.7624  -15.8688 H   0  0  0  0  0  0  0  0  0  0  0  0
  -27.7605    1.0339  -14.1105 H   0  0  0  0  0  0  0  0  0  0  0  0
  -27.2307    1.2742   -9.4691 H   0  0  0  0  0  0  0  0  0  0  0  0
  1  2  1  0
  2 17  2  0
  2 18  1  0
  3  4  2  0
  3 20  1  0
  4  5  1  0
  4 33  1  0
  5  6  2  0
  6  7  1  0
  7  8  1  0
  7 20  2  0
  8  9  1  0
  8 18  1  0
  9 21  2  0
  9 22  1  0
 10 13  2  0
 10 22  1  0
 10 23  1  0
 11 12  2  0
 11 14  1  0
 11 24  1  0
 12 13  1  0
 14 15  1  0
 14 25  1  1
 14 29  1  0
 15 26  1  1
 15 27  1  0
 15 28  1  0
 33 16  1  1
 18 19  1  0
 19 20  1  0
 23 24  2  0
 29 30  1  6
 29 31  1  0
 29 32  1  0
 33 34  2  0
 33 35  2  0
  1 36  1  0
  1 37  1  0
  1 38  1  0
  3 39  1  0
  5 40  1  0
  6 41  1  0
  8 42  1  6
 12 43  1  0
 13 44  1  0
 16 45  1  0
 16 46  1  0
 16 47  1  0
 19 48  1  0
 19 49  1  0
 22 50  1  0
 23 51  1  0
 24 52  1  0
 25 53  1  0
M  END
>  <filename_input>  (9) 
7OFK_VCH_docked.sdf

>  <pdb_id>  (9) 
7OFK_VCH

>  <pose_rank>  (9) 
8

>  <num_atoms_heavy>  (9) 
35

>  <num_torsions>  (9) 
6

>  <pose>  (9) 
[-26.703549089829643, 6.25513417797905, -15.900212502858611, -3.229970479181218, -0.3921199749558334, -1.1853539952368426, -2.4558133706765197, -4.874619870197942, -5.065004089091207, 0.3583878090674158, -1.0431218974527299, -2.1182490741824322]

>  <energy>  (9) 
-605.661992691732

>  <inter_energy>  (9) 
-661.2464940813328

>  <intra_energy>  (9) 
58.07496607569347

>  <rmsd>  (9) 
8.52709

>  <sdf_rank>  (9) 
0

$$$$

     RDKit          3D

 53 55  0  0  0  0  0  0  0  0999 V2000
  -29.8161    4.4069  -18.3455 C   0  0  0  0  0  0  0  0  0  0  0  0
  -29.6079    4.9647  -16.9689 C   0  0  0  0  0  0  0  0  0  0  0  0
  -27.1620    9.1835  -17.8449 C   0  0  0  0  0  0  0  0  0  0  0  0
  -26.7229   10.1621  -16.9720 C   0  0  0  0  0  0  0  0  0  0  0  0
  -26.9580   10.0948  -15.6199 C   0  0  0  0  0  0  0  0  0  0  0  0
  -27.6217    9.0155  -15.0746 C   0  0  0  0  0  0  0  0  0  0  0  0
  -28.0527    8.0373  -15.9410 C   0  0  0  0  0  0  0  0  0  0  0  0
  -28.7824    6.7923  -15.5885 C   0  0  2  0  0  0  0  0  0  0  0  0
  -27.9169    5.9135  -14.7239 C   0  0  0  0  0  0  0  0  0  0  0  0
  -28.0247    3.6481  -13.6951 C   0  0  0  0  0  0  0  0  0  0  0  0
  -27.1291    1.6184  -12.0219 C   0  0  0  0  0  0  0  0  0  0  0  0
  -27.3055    2.9055  -11.5454 C   0  0  0  0  0  0  0  0  0  0  0  0
  -27.7617    3.9108  -12.3747 C   0  0  0  0  0  0  0  0  0  0  0  0
  -26.6237    0.5144  -11.1104 C   0  0  1  0  0  0  0  0  0  0  0  0
  -25.1113    0.5457  -11.0546 C   0  0  1  0  0  0  0  0  0  0  0  0
  -26.7682   11.9679  -19.0972 C   0  0  0  0  0  0  0  0  0  0  0  0
  -30.0798    4.4117  -15.9856 O   0  0  0  0  0  0  0  0  0  0  0  0
  -28.8601    6.1285  -16.8755 N   0  0  0  0  0  0  0  0  0  0  0  0
  -28.3757    6.9262  -17.9961 C   0  0  0  0  0  0  0  0  0  0  0  0
  -27.8224    8.1137  -17.2911 C   0  0  0  0  0  0  0  0  0  0  0  0
  -26.9111    6.3515  -14.1942 O   0  0  0  0  0  0  0  0  0  0  0  0
  -28.4701    4.6556  -14.5841 N   0  0  0  0  0  0  0  0  0  0  0  0
  -27.8516    2.3783  -14.1845 C   0  0  0  0  0  0  0  0  0  0  0  0
  -27.4055    1.3720  -13.3500 C   0  0  0  0  0  0  0  0  0  0  0  0
  -27.1116    0.7081   -9.7809 O   0  0  0  0  0  0  0  0  0  0  0  0
  -24.6993    1.7387  -10.5875 F   0  0  0  0  0  0  0  0  0  0  0  0
  -24.5529   -0.4298  -10.2757 F   0  0  0  0  0  0  0  0  0  0  0  0
  -24.5890    0.4064  -12.2895 F   0  0  0  0  0  0  0  0  0  0  0  0
  -27.0990   -0.8574  -11.5640 C   0  0  2  0  0  0  0  0  0  0  0  0
  -27.9256   -0.7841  -12.6521 F   0  0  0  0  0  0  0  0  0  0  0  0
  -27.7492   -1.5035  -10.5780 F   0  0  0  0  0  0  0  0  0  0  0  0
  -26.0536   -1.6254  -11.9109 F   0  0  0  0  0  0  0  0  0  0  0  0
  -25.8795   11.5988  -17.6080 S   0  0  1  0  0  0  0  0  0  0  0  0
  -26.1097   12.7049  -16.6943 O   0  0  0  0  0  0  0  0  0  0  0  0
  -24.5562   11.1480  -17.9684 O   0  0  0  0  0  0  0  0  0  0  0  0
  -30.2000    3.3788  -18.2703 H   0  0  0  0  0  0  0  0  0  0  0  0
  -30.5420    5.0306  -18.8879 H   0  0  0  0  0  0  0  0  0  0  0  0
  -28.8592    4.4022  -18.8879 H   0  0  0  0  0  0  0  0  0  0  0  0
  -26.9909    9.2580  -18.9290 H   0  0  0  0  0  0  0  0  0  0  0  0
  -26.6136   10.9096  -14.9659 H   0  0  0  0  0  0  0  0  0  0  0  0
  -27.7991    8.9399  -13.9916 H   0  0  0  0  0  0  0  0  0  0  0  0
  -29.7339    6.9831  -15.0707 H   0  0  0  0  0  0  0  0  0  0  0  0
  -27.0795    3.1307  -10.4927 H   0  0  0  0  0  0  0  0  0  0  0  0
  -27.9144    4.9244  -11.9758 H   0  0  0  0  0  0  0  0  0  0  0  0
  -27.7564   12.3784  -18.8423 H   0  0  0  0  0  0  0  0  0  0  0  0
  -26.2053   12.7067  -19.6866 H   0  0  0  0  0  0  0  0  0  0  0  0
  -26.8943   11.0478  -19.6866 H   0  0  0  0  0  0  0  0  0  0  0  0
  -27.5964    6.3945  -18.5617 H   0  0  0  0  0  0  0  0  0  0  0  0
  -29.1452    7.1651  -18.7449 H   0  0  0  0  0  0  0  0  0  0  0  0
  -29.2792    4.4304  -15.1804 H   0  0  0  0  0  0  0  0  0  0  0  0
  -28.0680    2.1616  -15.2410 H   0  0  0  0  0  0  0  0  0  0  0  0
  -27.2685    0.3572  -13.7517 H   0  0  0  0  0  0  0  0  0  0  0  0
  -26.4173    0.4325   -9.1312 H   0  0  0  0  0  0  0  0  0  0  0  0
  1  2  1  0
  2 17  2  0
  2 18  1  0
  3  4  2  0
  3 20  1  0
  4  5  1  0
  4 33  1  0
  5  6  2  0
  6  7  1  0
  7  8  1  0
  7 20  2  0
  8  9  1  0
  8 18  1  0
  9 21  2  0
  9 22  1  0
 10 13  2  0
 10 22  1  0
 10 23  1  0
 11 12  2  0
 11 14  1  0
 11 24  1  0
 12 13  1  0
 14 15  1  0
 14 25  1  1
 14 29  1  0
 15 26  1  1
 15 27  1  0
 15 28  1  0
 33 16  1  6
 18 19  1  0
 19 20  1  0
 23 24  2  0
 29 30  1  6
 29 31  1  0
 29 32  1  0
 33 34  2  0
 33 35  2  0
  1 36  1  0
  1 37  1  0
  1 38  1  0
  3 39  1  0
  5 40  1  0
  6 41  1  0
  8 42  1  1
 12 43  1  0
 13 44  1  0
 16 45  1  0
 16 46  1  0
 16 47  1  0
 19 48  1  0
 19 49  1  0
 22 50  1  0
 23 51  1  0
 24 52  1  0
 25 53  1  0
M  END
>  <filename_input>  (10) 
7OFK_VCH_docked.sdf

>  <pdb_id>  (10) 
7OFK_VCH

>  <pose_rank>  (10) 
9

>  <num_atoms_heavy>  (10) 
35

>  <num_torsions>  (10) 
6

>  <pose>  (10) 
[-27.9169206291403, 5.913509947208569, -14.723852851190578, -2.81311171271882, -0.817101228941795, -1.2393373299665218, 1.5897947101356709, -3.903543083890381, 1.0526228020704165, 0.665687997153553, -1.9597125270926852, 3.0678726140069874]

>  <energy>  (10) 
-435.7018826583667

>  <inter_energy>  (10) 
-603.1075547455262

>  <intra_energy>  (10) 
168.0386646452449

>  <rmsd>  (10) 
9.67888

>  <sdf_rank>  (10) 
0

$$$$

     RDKit          3D

 53 55  0  0  0  0  0  0  0  0999 V2000
  -28.7717    9.9006  -14.6689 C   0  0  0  0  0  0  0  0  0  0  0  0
  -27.7934    8.9734  -15.3266 C   0  0  0  0  0  0  0  0  0  0  0  0
  -30.6109    6.5251  -18.5847 C   0  0  0  0  0  0  0  0  0  0  0  0
  -30.2711    5.5610  -19.5163 C   0  0  0  0  0  0  0  0  0  0  0  0
  -28.9754    5.1392  -19.6926 C   0  0  0  0  0  0  0  0  0  0  0  0
  -27.9582    5.6471  -18.9114 C   0  0  0  0  0  0  0  0  0  0  0  0
  -28.2959    6.6009  -17.9790 C   0  0  0  0  0  0  0  0  0  0  0  0
  -27.3791    7.2860  -17.0319 C   0  0  2  0  0  0  0  0  0  0  0  0
  -26.7834    6.2866  -16.0753 C   0  0  0  0  0  0  0  0  0  0  0  0
  -27.5141    4.2625  -14.8216 C   0  0  0  0  0  0  0  0  0  0  0  0
  -27.2573    2.2456  -12.9277 C   0  0  0  0  0  0  0  0  0  0  0  0
  -26.4037    3.3348  -12.9254 C   0  0  0  0  0  0  0  0  0  0  0  0
  -26.5394    4.3421  -13.8597 C   0  0  0  0  0  0  0  0  0  0  0  0
  -27.1049    1.1363  -11.9024 C   0  0  1  0  0  0  0  0  0  0  0  0
  -27.8216    1.5154  -10.6241 C   0  0  1  0  0  0  0  0  0  0  0  0
  -31.4185    5.8770  -22.0388 C   0  0  0  0  0  0  0  0  0  0  0  0
  -26.6021    9.0160  -15.0541 O   0  0  0  0  0  0  0  0  0  0  0  0
  -28.3095    8.0771  -16.2499 N   0  0  0  0  0  0  0  0  0  0  0  0
  -29.6846    8.0450  -16.7346 C   0  0  0  0  0  0  0  0  0  0  0  0
  -29.5900    7.0244  -17.8129 C   0  0  0  0  0  0  0  0  0  0  0  0
  -25.6830    6.4675  -15.5851 O   0  0  0  0  0  0  0  0  0  0  0  0
  -27.6710    5.2614  -15.8124 N   0  0  0  0  0  0  0  0  0  0  0  0
  -28.3663    3.1877  -14.8404 C   0  0  0  0  0  0  0  0  0  0  0  0
  -28.2352    2.1866  -13.8977 C   0  0  0  0  0  0  0  0  0  0  0  0
  -27.6941   -0.0718  -12.3889 O   0  0  0  0  0  0  0  0  0  0  0  0
  -27.1363    1.0480   -9.5643 F   0  0  0  0  0  0  0  0  0  0  0  0
  -28.0011    2.8601  -10.4527 F   0  0  0  0  0  0  0  0  0  0  0  0
  -29.0443    0.9493  -10.5812 F   0  0  0  0  0  0  0  0  0  0  0  0
  -25.6438    0.8325  -11.6087 C   0  0  2  0  0  0  0  0  0  0  0  0
  -25.4963   -0.2534  -10.7891 F   0  0  0  0  0  0  0  0  0  0  0  0
  -25.0279    1.8843  -11.0369 F   0  0  0  0  0  0  0  0  0  0  0  0
  -24.9823    0.5638  -12.7460 F   0  0  0  0  0  0  0  0  0  0  0  0
  -31.5296    4.8773  -20.5786 S   0  0  1  0  0  0  0  0  0  0  0  0
  -31.1272    3.5332  -20.9562 O   0  0  0  0  0  0  0  0  0  0  0  0
  -32.7869    5.1609  -19.9284 O   0  0  0  0  0  0  0  0  0  0  0  0
  -28.6808    9.8144  -13.5760 H   0  0  0  0  0  0  0  0  0  0  0  0
  -28.5581   10.9356  -14.9741 H   0  0  0  0  0  0  0  0  0  0  0  0
  -29.7938    9.6318  -14.9741 H   0  0  0  0  0  0  0  0  0  0  0  0
  -31.6473    6.8747  -18.4676 H   0  0  0  0  0  0  0  0  0  0  0  0
  -28.7469    4.3893  -20.4643 H   0  0  0  0  0  0  0  0  0  0  0  0
  -26.9199    5.3037  -19.0291 H   0  0  0  0  0  0  0  0  0  0  0  0
  -26.5674    7.8306  -17.5366 H   0  0  0  0  0  0  0  0  0  0  0  0
  -25.6070    3.3988  -12.1696 H   0  0  0  0  0  0  0  0  0  0  0  0
  -25.8646    5.2104  -13.8327 H   0  0  0  0  0  0  0  0  0  0  0  0
  -31.3013    6.9326  -21.7524 H   0  0  0  0  0  0  0  0  0  0  0  0
  -30.5501    5.5602  -22.6349 H   0  0  0  0  0  0  0  0  0  0  0  0
  -32.3354    5.7585  -22.6349 H   0  0  0  0  0  0  0  0  0  0  0  0
  -30.3829    7.7322  -15.9443 H   0  0  0  0  0  0  0  0  0  0  0  0
  -30.0669    9.0204  -17.0699 H   0  0  0  0  0  0  0  0  0  0  0  0
  -28.5235    5.2199  -16.3890 H   0  0  0  0  0  0  0  0  0  0  0  0
  -29.1538    3.1232  -15.6058 H   0  0  0  0  0  0  0  0  0  0  0  0
  -28.9224    1.3281  -13.9214 H   0  0  0  0  0  0  0  0  0  0  0  0
  -27.9694   -0.6362  -11.6236 H   0  0  0  0  0  0  0  0  0  0  0  0
  1  2  1  0
  2 17  2  0
  2 18  1  0
  3  4  2  0
  3 20  1  0
  4  5  1  0
  4 33  1  0
  5  6  2  0
  6  7  1  0
  7  8  1  0
  7 20  2  0
  8  9  1  0
  8 18  1  0
  9 21  2  0
  9 22  1  0
 10 13  2  0
 10 22  1  0
 10 23  1  0
 11 12  2  0
 11 14  1  0
 11 24  1  0
 12 13  1  0
 14 15  1  0
 14 25  1  6
 14 29  1  0
 15 26  1  1
 15 27  1  0
 15 28  1  0
 33 16  1  6
 18 19  1  0
 19 20  1  0
 23 24  2  0
 29 30  1  1
 29 31  1  0
 29 32  1  0
 33 34  2  0
 33 35  2  0
  1 36  1  0
  1 37  1  0
  1 38  1  0
  3 39  1  0
  5 40  1  0
  6 41  1  0
  8 42  1  6
 12 43  1  0
 13 44  1  0
 16 45  1  0
 16 46  1  0
 16 47  1  0
 19 48  1  0
 19 49  1  0
 22 50  1  0
 23 51  1  0
 24 52  1  0
 25 53  1  0
M  END
>  <filename_input>  (11) 
7OFK_VCH_docked.sdf

>  <pdb_id>  (11) 
7OFK_VCH

>  <pose_rank>  (11) 
10

>  <num_atoms_heavy>  (11) 
35

>  <num_torsions>  (11) 
6

>  <pose>  (11) 
[-26.78341257628451, 6.286557634470788, -16.075324275059284, -3.105456620760702, -0.4948903917176213, -1.2465397858297007, -2.3067239590210344, 3.3424163987384286, 0.4099779965638326, 3.6102418020120304, 0.7596936365505648, 0.08364090222810652]

>  <energy>  (11) 
-578.4571362673069

>  <inter_energy>  (11) 
-653.266035522355

>  <intra_energy>  (11) 
79.3828136824493

>  <rmsd>  (11) 
8.48064

>  <sdf_rank>  (11) 
0

$$$$

     RDKit          3D

 53 55  0  0  0  0  0  0  0  0999 V2000
  -28.7303    4.1545  -14.0522 C   0  0  0  0  0  0  0  0  0  0  0  0
  -27.4516    3.5790  -13.5200 C   0  0  0  0  0  0  0  0  0  0  0  0
  -27.1500   -0.7836  -15.8493 C   0  0  0  0  0  0  0  0  0  0  0  0
  -26.1693   -1.7576  -15.8033 C   0  0  0  0  0  0  0  0  0  0  0  0
  -25.0277   -1.6109  -15.0528 C   0  0  0  0  0  0  0  0  0  0  0  0
  -24.8332   -0.4838  -14.2818 C   0  0  0  0  0  0  0  0  0  0  0  0
  -25.8115    0.4829  -14.3207 C   0  0  0  0  0  0  0  0  0  0  0  0
  -25.8223    1.7710  -13.5806 C   0  0  2  0  0  0  0  0  0  0  0  0
  -25.8669    1.5140  -12.0971 C   0  0  0  0  0  0  0  0  0  0  0  0
  -27.3258    0.3211  -10.4690 C   0  0  0  0  0  0  0  0  0  0  0  0
  -28.1425   -0.3656   -7.9033 C   0  0  0  0  0  0  0  0  0  0  0  0
  -28.3694    0.9040   -8.4048 C   0  0  0  0  0  0  0  0  0  0  0  0
  -27.9735    1.2407   -9.6840 C   0  0  0  0  0  0  0  0  0  0  0  0
  -28.5745   -0.7340   -6.4952 C   0  0  1  0  0  0  0  0  0  0  0  0
  -27.5005   -1.5671   -5.8292 C   0  0  1  0  0  0  0  0  0  0  0  0
  -24.8373   -3.2691  -17.7322 C   0  0  0  0  0  0  0  0  0  0  0  0
  -26.7379    4.2205  -12.7621 O   0  0  0  0  0  0  0  0  0  0  0  0
  -27.1282    2.2951  -13.9314 N   0  0  0  0  0  0  0  0  0  0  0  0
  -27.8440    1.5115  -14.9317 C   0  0  0  0  0  0  0  0  0  0  0  0
  -26.9455    0.3349  -15.0782 C   0  0  0  0  0  0  0  0  0  0  0  0
  -25.1174    2.1007  -11.3369 O   0  0  0  0  0  0  0  0  0  0  0  0
  -26.8817    0.6337  -11.7763 N   0  0  0  0  0  0  0  0  0  0  0  0
  -27.0897   -0.9409   -9.9859 C   0  0  0  0  0  0  0  0  0  0  0  0
  -27.4965   -1.2785   -8.7097 C   0  0  0  0  0  0  0  0  0  0  0  0
  -28.7588    0.4458   -5.7095 O   0  0  0  0  0  0  0  0  0  0  0  0
  -27.7273   -1.6239   -4.5038 F   0  0  0  0  0  0  0  0  0  0  0  0
  -27.4054   -2.8483   -6.2978 F   0  0  0  0  0  0  0  0  0  0  0  0
  -26.2894   -0.9992   -5.9958 F   0  0  0  0  0  0  0  0  0  0  0  0
  -29.8964   -1.4862   -6.4863 C   0  0  2  0  0  0  0  0  0  0  0  0
  -29.8156   -2.6647   -5.7954 F   0  0  0  0  0  0  0  0  0  0  0  0
  -30.3188   -1.7535   -7.7363 F   0  0  0  0  0  0  0  0  0  0  0  0
  -30.8529   -0.7478   -5.9005 F   0  0  0  0  0  0  0  0  0  0  0  0
  -26.3409   -3.2308  -16.7933 S   0  0  1  0  0  0  0  0  0  0  0  0
  -26.3141   -4.3819  -15.9070 O   0  0  0  0  0  0  0  0  0  0  0  0
  -27.4350   -2.9689  -17.6980 O   0  0  0  0  0  0  0  0  0  0  0  0
  -29.3784    4.4462  -13.2127 H   0  0  0  0  0  0  0  0  0  0  0  0
  -28.5065    5.0387  -14.6671 H   0  0  0  0  0  0  0  0  0  0  0  0
  -29.2437    3.4006  -14.6671 H   0  0  0  0  0  0  0  0  0  0  0  0
  -28.0491   -0.8987  -16.4724 H   0  0  0  0  0  0  0  0  0  0  0  0
  -24.2614   -2.4000  -15.0670 H   0  0  0  0  0  0  0  0  0  0  0  0
  -23.9330   -0.3628  -13.6613 H   0  0  0  0  0  0  0  0  0  0  0  0
  -24.9547    2.4068  -13.8108 H   0  0  0  0  0  0  0  0  0  0  0  0
  -28.8714    1.6544   -7.7765 H   0  0  0  0  0  0  0  0  0  0  0  0
  -28.1780    2.2486  -10.0744 H   0  0  0  0  0  0  0  0  0  0  0  0
  -23.9774   -3.2910  -17.0465 H   0  0  0  0  0  0  0  0  0  0  0  0
  -24.8237   -4.1679  -18.3662 H   0  0  0  0  0  0  0  0  0  0  0  0
  -24.7779   -2.3722  -18.3662 H   0  0  0  0  0  0  0  0  0  0  0  0
  -28.8407    1.2149  -14.5731 H   0  0  0  0  0  0  0  0  0  0  0  0
  -28.0381    2.0498  -15.8711 H   0  0  0  0  0  0  0  0  0  0  0  0
  -27.3582    0.1623  -12.5584 H   0  0  0  0  0  0  0  0  0  0  0  0
  -26.5767   -1.6838  -10.6144 H   0  0  0  0  0  0  0  0  0  0  0  0
  -27.3018   -2.2925   -8.3304 H   0  0  0  0  0  0  0  0  0  0  0  0
  -28.7222    0.2113   -4.7484 H   0  0  0  0  0  0  0  0  0  0  0  0
  1  2  1  0
  2 17  2  0
  2 18  1  0
  3  4  2  0
  3 20  1  0
  4  5  1  0
  4 33  1  0
  5  6  2  0
  6  7  1  0
  7  8  1  0
  7 20  2  0
  8  9  1  0
  8 18  1  0
  9 21  2  0
  9 22  1  0
 10 13  2  0
 10 22  1  0
 10 23  1  0
 11 12  2  0
 11 14  1  0
 11 24  1  0
 12 13  1  0
 14 15  1  0
 14 25  1  1
 14 29  1  0
 15 26  1  1
 15 27  1  0
 15 28  1  0
 33 16  1  6
 18 19  1  0
 19 20  1  0
 23 24  2  0
 29 30  1  1
 29 31  1  0
 29 32  1  0
 33 34  2  0
 33 35  2  0
  1 36  1  0
  1 37  1  0
  1 38  1  0
  3 39  1  0
  5 40  1  0
  6 41  1  0
  8 42  1  1
 12 43  1  0
 13 44  1  0
 16 45  1  0
 16 46  1  0
 16 47  1  0
 19 48  1  0
 19 49  1  0
 22 50  1  0
 23 51  1  0
 24 52  1  0
 25 53  1  0
M  END
>  <filename_input>  (12) 
7OFK_VCH_docked.sdf

>  <pdb_id>  (12) 
7OFK_VCH

>  <pose_rank>  (12) 
11

>  <num_atoms_heavy>  (12) 
35

>  <num_torsions>  (12) 
6

>  <pose>  (12) 
[-25.866923011316864, 1.514032188009692, -12.097121965324769, -3.091442048445081, -0.9483024760552907, -2.2803766474781098, 3.655289134720053, -2.404576048394018, 1.4088421976616896, -0.2814057631117333, -0.11160476542326653, -0.9446011313309316]

>  <energy>  (12) 
-626.2868741120236

>  <inter_energy>  (12) 
-669.7673140506727

>  <intra_energy>  (12) 
45.68345283234192

>  <rmsd>  (12) 
8.77028

>  <sdf_rank>  (12) 
0

$$$$

     RDKit          3D

 53 55  0  0  0  0  0  0  0  0999 V2000
  -28.0961    2.3613   -9.6779 C   0  0  0  0  0  0  0  0  0  0  0  0
  -28.2072    0.8671   -9.6130 C   0  0  0  0  0  0  0  0  0  0  0  0
  -24.4321   -0.3942   -6.6624 C   0  0  0  0  0  0  0  0  0  0  0  0
  -24.0366   -1.6340   -6.1943 C   0  0  0  0  0  0  0  0  0  0  0  0
  -24.7264   -2.7835   -6.4956 C   0  0  0  0  0  0  0  0  0  0  0  0
  -25.8352   -2.7435   -7.3151 C   0  0  0  0  0  0  0  0  0  0  0  0
  -26.2256   -1.5117   -7.7878 C   0  0  0  0  0  0  0  0  0  0  0  0
  -27.3787   -1.2229   -8.6788 C   0  0  2  0  0  0  0  0  0  0  0  0
  -27.1764   -1.8851  -10.0165 C   0  0  0  0  0  0  0  0  0  0  0  0
  -26.3597   -1.2617  -12.2851 C   0  0  0  0  0  0  0  0  0  0  0  0
  -26.0618   -1.7800  -14.9987 C   0  0  0  0  0  0  0  0  0  0  0  0
  -25.7857   -0.5269  -14.4806 C   0  0  0  0  0  0  0  0  0  0  0  0
  -25.9229   -0.2736  -13.1303 C   0  0  0  0  0  0  0  0  0  0  0  0
  -25.9146   -2.0568  -16.4842 C   0  0  1  0  0  0  0  0  0  0  0  0
  -24.4938   -2.4797  -16.7902 C   0  0  1  0  0  0  0  0  0  0  0  0
  -21.2627   -1.9236   -6.2304 C   0  0  0  0  0  0  0  0  0  0  0  0
  -29.1320    0.2787  -10.1551 O   0  0  0  0  0  0  0  0  0  0  0  0
  -27.2150    0.1990   -8.9118 N   0  0  0  0  0  0  0  0  0  0  0  0
  -26.1566    0.8215   -8.1250 C   0  0  0  0  0  0  0  0  0  0  0  0
  -25.5380   -0.3661   -7.4770 C   0  0  0  0  0  0  0  0  0  0  0  0
  -27.6128   -3.0012  -10.2354 O   0  0  0  0  0  0  0  0  0  0  0  0
  -26.5373   -1.0362  -10.8989 N   0  0  0  0  0  0  0  0  0  0  0  0
  -26.6414   -2.5085  -12.7829 C   0  0  0  0  0  0  0  0  0  0  0  0
  -26.4928   -2.7623  -14.1326 C   0  0  0  0  0  0  0  0  0  0  0  0
  -26.7799   -3.1246  -16.8769 O   0  0  0  0  0  0  0  0  0  0  0  0
  -24.0892   -3.3948  -15.8901 F   0  0  0  0  0  0  0  0  0  0  0  0
  -24.3163   -3.0072  -18.0393 F   0  0  0  0  0  0  0  0  0  0  0  0
  -23.6546   -1.4299  -16.6865 F   0  0  0  0  0  0  0  0  0  0  0  0
  -26.2897   -0.8469  -17.3262 C   0  0  2  0  0  0  0  0  0  0  0  0
  -25.1896   -0.1996  -17.8195 F   0  0  0  0  0  0  0  0  0  0  0  0
  -27.0222    0.0353  -16.6208 F   0  0  0  0  0  0  0  0  0  0  0  0
  -27.0354   -1.2203  -18.3786 F   0  0  0  0  0  0  0  0  0  0  0  0
  -22.6268   -1.7596   -5.1096 S   0  0  1  0  0  0  0  0  0  0  0  0
  -22.4613   -0.4876   -4.4271 O   0  0  0  0  0  0  0  0  0  0  0  0
  -22.7869   -3.0083   -4.4030 O   0  0  0  0  0  0  0  0  0  0  0  0
  -28.0656    2.7714   -8.6576 H   0  0  0  0  0  0  0  0  0  0  0  0
  -27.1749    2.6377  -10.2118 H   0  0  0  0  0  0  0  0  0  0  0  0
  -28.9663    2.7709  -10.2118 H   0  0  0  0  0  0  0  0  0  0  0  0
  -23.8881    0.5239   -6.3956 H   0  0  0  0  0  0  0  0  0  0  0  0
  -24.3912   -3.7448   -6.0792 H   0  0  0  0  0  0  0  0  0  0  0  0
  -26.3848   -3.6589   -7.5799 H   0  0  0  0  0  0  0  0  0  0  0  0
  -28.3408   -1.5487   -8.2567 H   0  0  0  0  0  0  0  0  0  0  0  0
  -25.4527    0.2774  -15.1530 H   0  0  0  0  0  0  0  0  0  0  0  0
  -25.6814    0.7227  -12.7315 H   0  0  0  0  0  0  0  0  0  0  0  0
  -20.3297   -2.0357   -5.6586 H   0  0  0  0  0  0  0  0  0  0  0  0
  -21.4132   -2.8101   -6.8640 H   0  0  0  0  0  0  0  0  0  0  0  0
  -21.1989   -1.0266   -6.8640 H   0  0  0  0  0  0  0  0  0  0  0  0
  -25.4366    1.3511   -8.7661 H   0  0  0  0  0  0  0  0  0  0  0  0
  -26.5111    1.5865   -7.4185 H   0  0  0  0  0  0  0  0  0  0  0  0
  -26.1557   -0.1604  -10.5137 H   0  0  0  0  0  0  0  0  0  0  0  0
  -26.9853   -3.3058  -12.1076 H   0  0  0  0  0  0  0  0  0  0  0  0
  -26.7223   -3.7648  -14.5228 H   0  0  0  0  0  0  0  0  0  0  0  0
  -27.1411   -3.5704  -16.0700 H   0  0  0  0  0  0  0  0  0  0  0  0
  1  2  1  0
  2 17  2  0
  2 18  1  0
  3  4  2  0
  3 20  1  0
  4  5  1  0
  4 33  1  0
  5  6  2  0
  6  7  1  0
  7  8  1  0
  7 20  2  0
  8  9  1  0
  8 18  1  0
  9 21  2  0
  9 22  1  0
 10 13  2  0
 10 22  1  0
 10 23  1  0
 11 12  2  0
 11 14  1  0
 11 24  1  0
 12 13  1  0
 14 15  1  0
 14 25  1  6
 14 29  1  0
 15 26  1  1
 15 27  1  0
 15 28  1  0
 33 16  1  6
 18 19  1  0
 19 20  1  0
 23 24  2  0
 29 30  1  6
 29 31  1  0
 29 32  1  0
 33 34  2  0
 33 35  2  0
  1 36  1  0
  1 37  1  0
  1 38  1  0
  3 39  1  0
  5 40  1  0
  6 41  1  0
  8 42  1  1
 12 43  1  0
 13 44  1  0
 16 45  1  0
 16 46  1  0
 16 47  1  0
 19 48  1  0
 19 49  1  0
 22 50  1  0
 23 51  1  0
 24 52  1  0
 25 53  1  0
M  END
>  <filename_input>  (13) 
7OFK_VCH_docked.sdf

>  <pdb_id>  (13) 
7OFK_VCH

>  <pose_rank>  (13) 
12

>  <num_atoms_heavy>  (13) 
35

>  <num_torsions>  (13) 
6

>  <pose>  (13) 
[-27.176362203954643, -1.8851328026141203, -10.016456247145284, 0.39471874188120165, -2.086265969487347, 3.3502419994172987, -9.61951010060256, 0.15581444442662004, -3.1218499705337366, -2.613536683607059, -2.197247449125989, -1.3546657256615502]

>  <energy>  (13) 
-499.0400658382781

>  <inter_energy>  (13) 
-571.8733065102365

>  <intra_energy>  (13) 
98.31510750233193

>  <rmsd>  (13) 
8.76907

>  <sdf_rank>  (13) 
0

$$$$

     RDKit          3D

 53 55  0  0  0  0  0  0  0  0999 V2000
  -23.0860   -0.8151   -8.5083 C   0  0  0  0  0  0  0  0  0  0  0  0
  -24.3535   -0.1043   -8.8791 C   0  0  0  0  0  0  0  0  0  0  0  0
  -27.8650   -3.0676   -7.0253 C   0  0  0  0  0  0  0  0  0  0  0  0
  -29.2408   -2.9275   -7.0134 C   0  0  0  0  0  0  0  0  0  0  0  0
  -29.8681   -1.8251   -7.5418 C   0  0  0  0  0  0  0  0  0  0  0  0
  -29.1373   -0.8202   -8.1410 C   0  0  0  0  0  0  0  0  0  0  0  0
  -27.7689   -0.9617   -8.1603 C   0  0  0  0  0  0  0  0  0  0  0  0
  -26.7829   -0.0173   -8.7458 C   0  0  2  0  0  0  0  0  0  0  0  0
  -26.9853    0.0833  -10.2350 C   0  0  0  0  0  0  0  0  0  0  0  0
  -26.3196   -1.1700  -12.2816 C   0  0  0  0  0  0  0  0  0  0  0  0
  -25.9433   -1.4162  -15.0237 C   0  0  0  0  0  0  0  0  0  0  0  0
  -26.8928   -2.1783  -14.3659 C   0  0  0  0  0  0  0  0  0  0  0  0
  -27.0870   -2.0469  -13.0053 C   0  0  0  0  0  0  0  0  0  0  0  0
  -25.7275   -1.5642  -16.5192 C   0  0  1  0  0  0  0  0  0  0  0  0
  -27.0613   -1.5530  -17.2349 C   0  0  1  0  0  0  0  0  0  0  0  0
  -29.7085   -4.1396   -4.5453 C   0  0  0  0  0  0  0  0  0  0  0  0
  -24.3272    0.9862   -9.4319 O   0  0  0  0  0  0  0  0  0  0  0  0
  -25.5418   -0.7448   -8.5629 N   0  0  0  0  0  0  0  0  0  0  0  0
  -25.6713   -1.9738   -7.7885 C   0  0  0  0  0  0  0  0  0  0  0  0
  -27.1472   -2.0606   -7.6239 C   0  0  0  0  0  0  0  0  0  0  0  0
  -27.4829    1.0770  -10.7339 O   0  0  0  0  0  0  0  0  0  0  0  0
  -26.4701   -1.0232  -10.8817 N   0  0  0  0  0  0  0  0  0  0  0  0
  -25.3714   -0.4095  -12.9175 C   0  0  0  0  0  0  0  0  0  0  0  0
  -25.1866   -0.5352  -14.2807 C   0  0  0  0  0  0  0  0  0  0  0  0
  -24.9571   -0.4687  -17.0189 O   0  0  0  0  0  0  0  0  0  0  0  0
  -26.8793   -1.2274  -18.5279 F   0  0  0  0  0  0  0  0  0  0  0  0
  -27.7391   -2.7398  -17.1884 F   0  0  0  0  0  0  0  0  0  0  0  0
  -27.8747   -0.6174  -16.7056 F   0  0  0  0  0  0  0  0  0  0  0  0
  -24.9658   -2.8361  -16.8590 C   0  0  2  0  0  0  0  0  0  0  0  0
  -25.1741   -3.2334  -18.1518 F   0  0  0  0  0  0  0  0  0  0  0  0
  -25.3101   -3.8489  -16.0415 F   0  0  0  0  0  0  0  0  0  0  0  0
  -23.6448   -2.6462  -16.7102 F   0  0  0  0  0  0  0  0  0  0  0  0
  -30.2486   -4.1750   -6.2338 S   0  0  1  0  0  0  0  0  0  0  0  0
  -31.6283   -3.7195   -6.2449 O   0  0  0  0  0  0  0  0  0  0  0  0
  -29.8375   -5.4303   -6.8162 O   0  0  0  0  0  0  0  0  0  0  0  0
  -22.9998   -0.8635   -7.4127 H   0  0  0  0  0  0  0  0  0  0  0  0
  -23.1037   -1.8350   -8.9201 H   0  0  0  0  0  0  0  0  0  0  0  0
  -22.2250   -0.2683   -8.9201 H   0  0  0  0  0  0  0  0  0  0  0  0
  -27.3699   -3.9420   -6.5777 H   0  0  0  0  0  0  0  0  0  0  0  0
  -30.9636   -1.7431   -7.4864 H   0  0  0  0  0  0  0  0  0  0  0  0
  -29.6285    0.0581   -8.5852 H   0  0  0  0  0  0  0  0  0  0  0  0
  -26.8371    0.9892   -8.3055 H   0  0  0  0  0  0  0  0  0  0  0  0
  -27.5004   -2.8979  -14.9342 H   0  0  0  0  0  0  0  0  0  0  0  0
  -27.8587   -2.6466  -12.5006 H   0  0  0  0  0  0  0  0  0  0  0  0
  -30.5823   -4.1968   -3.8796 H   0  0  0  0  0  0  0  0  0  0  0  0
  -29.0455   -4.9963   -4.3545 H   0  0  0  0  0  0  0  0  0  0  0  0
  -29.1627   -3.2039   -4.3545 H   0  0  0  0  0  0  0  0  0  0  0  0
  -25.2758   -2.8401   -8.3390 H   0  0  0  0  0  0  0  0  0  0  0  0
  -25.1119   -1.9704   -6.8414 H   0  0  0  0  0  0  0  0  0  0  0  0
  -26.1683   -1.8122  -10.2925 H   0  0  0  0  0  0  0  0  0  0  0  0
  -24.7585    0.3000  -12.3422 H   0  0  0  0  0  0  0  0  0  0  0  0
  -24.4230    0.0778  -14.7817 H   0  0  0  0  0  0  0  0  0  0  0  0
  -24.5915    0.0511  -16.2597 H   0  0  0  0  0  0  0  0  0  0  0  0
  1  2  1  0
  2 17  2  0
  2 18  1  0
  3  4  2  0
  3 20  1  0
  4  5  1  0
  4 33  1  0
  5  6  2  0
  6  7  1  0
  7  8  1  0
  7 20  2  0
  8  9  1  0
  8 18  1  0
  9 21  2  0
  9 22  1  0
 10 13  2  0
 10 22  1  0
 10 23  1  0
 11 12  2  0
 11 14  1  0
 11 24  1  0
 12 13  1  0
 14 15  1  0
 14 25  1  6
 14 29  1  0
 15 26  1  6
 15 27  1  0
 15 28  1  0
 33 16  1  1
 18 19  1  0
 19 20  1  0
 23 24  2  0
 29 30  1  6
 29 31  1  0
 29 32  1  0
 33 34  2  0
 33 35  2  0
  1 36  1  0
  1 37  1  0
  1 38  1  0
  3 39  1  0
  5 40  1  0
  6 41  1  0
  8 42  1  1
 12 43  1  0
 13 44  1  0
 16 45  1  0
 16 46  1  0
 16 47  1  0
 19 48  1  0
 19 49  1  0
 22 50  1  0
 23 51  1  0
 24 52  1  0
 25 53  1  0
M  END
>  <filename_input>  (14) 
7OFK_VCH_docked.sdf

>  <pdb_id>  (14) 
7OFK_VCH

>  <pose_rank>  (14) 
13

>  <num_atoms_heavy>  (14) 
35

>  <num_torsions>  (14) 
6

>  <pose>  (14) 
[-26.985276292709678, 0.08327441381855288, -10.235013554197328, -1.2950431867535366, -0.8258659064645599, 1.594776109456628, -15.64891216381781, -3.5174000180670033, -1.707484714311351, 2.9615242824468186, -0.2211111262184709, -6.690855727169072]

>  <energy>  (14) 
-547.5176356294818

>  <inter_energy>  (14) 
-593.3205994475284

>  <intra_energy>  (14) 
45.27427660423627

>  <rmsd>  (14) 
8.67032

>  <sdf_rank>  (14) 
0

$$$$

     RDKit          3D

 53 55  0  0  0  0  0  0  0  0999 V2000
  -23.0213   -1.2043   -7.4963 C   0  0  0  0  0  0  0  0  0  0  0  0
  -24.1842   -0.4052   -8.0046 C   0  0  0  0  0  0  0  0  0  0  0  0
  -28.0365   -3.4074   -7.1706 C   0  0  0  0  0  0  0  0  0  0  0  0
  -29.3878   -3.2127   -7.3908 C   0  0  0  0  0  0  0  0  0  0  0  0
  -29.8847   -2.0338   -7.8921 C   0  0  0  0  0  0  0  0  0  0  0  0
  -29.0359   -1.0001   -8.2292 C   0  0  0  0  0  0  0  0  0  0  0  0
  -27.6903   -1.1950   -8.0177 C   0  0  0  0  0  0  0  0  0  0  0  0
  -26.5944   -0.2332   -8.3023 C   0  0  2  0  0  0  0  0  0  0  0  0
  -26.5175    0.0392   -9.7817 C   0  0  0  0  0  0  0  0  0  0  0  0
  -26.5278   -1.2613  -11.9056 C   0  0  0  0  0  0  0  0  0  0  0  0
  -26.1448   -1.6348  -14.6323 C   0  0  0  0  0  0  0  0  0  0  0  0
  -26.6909   -0.4598  -14.1463 C   0  0  0  0  0  0  0  0  0  0  0  0
  -26.8701   -0.2706  -12.7905 C   0  0  0  0  0  0  0  0  0  0  0  0
  -25.9518   -1.8438  -16.1237 C   0  0  1  0  0  0  0  0  0  0  0  0
  -24.8756   -0.9121  -16.6385 C   0  0  1  0  0  0  0  0  0  0  0  0
  -31.7486   -3.6432   -5.9691 C   0  0  0  0  0  0  0  0  0  0  0  0
  -24.0344    0.7376   -8.4134 O   0  0  0  0  0  0  0  0  0  0  0  0
  -25.4233   -1.0271   -7.9843 N   0  0  0  0  0  0  0  0  0  0  0  0
  -25.7180   -2.3276   -7.3937 C   0  0  0  0  0  0  0  0  0  0  0  0
  -27.2005   -2.3710   -7.5091 C   0  0  0  0  0  0  0  0  0  0  0  0
  -26.2388    1.1486  -10.2008 O   0  0  0  0  0  0  0  0  0  0  0  0
  -26.7183   -1.1169  -10.5104 N   0  0  0  0  0  0  0  0  0  0  0  0
  -25.9886   -2.4337  -12.3710 C   0  0  0  0  0  0  0  0  0  0  0  0
  -25.8004   -2.6161  -13.7272 C   0  0  0  0  0  0  0  0  0  0  0  0
  -25.5278   -3.1837  -16.3849 O   0  0  0  0  0  0  0  0  0  0  0  0
  -25.4433    0.1841  -17.1746 F   0  0  0  0  0  0  0  0  0  0  0  0
  -23.9787   -0.5038  -15.6905 F   0  0  0  0  0  0  0  0  0  0  0  0
  -24.1653   -1.5051  -17.6189 F   0  0  0  0  0  0  0  0  0  0  0  0
  -27.2424   -1.6259  -16.8984 C   0  0  2  0  0  0  0  0  0  0  0  0
  -27.1845   -2.1562  -18.1586 F   0  0  0  0  0  0  0  0  0  0  0  0
  -27.5397   -0.3168  -17.0006 F   0  0  0  0  0  0  0  0  0  0  0  0
  -28.2730   -2.2123  -16.2682 F   0  0  0  0  0  0  0  0  0  0  0  0
  -30.5471   -4.4959   -6.9557 S   0  0  1  0  0  0  0  0  0  0  0  0
  -31.2252   -4.9279   -8.1660 O   0  0  0  0  0  0  0  0  0  0  0  0
  -29.8212   -5.4059   -6.1018 O   0  0  0  0  0  0  0  0  0  0  0  0
  -23.0267   -1.2006   -6.3963 H   0  0  0  0  0  0  0  0  0  0  0  0
  -23.1009   -2.2394   -7.8599 H   0  0  0  0  0  0  0  0  0  0  0  0
  -22.0835   -0.7590   -7.8599 H   0  0  0  0  0  0  0  0  0  0  0  0
  -27.6501   -4.3455   -6.7456 H   0  0  0  0  0  0  0  0  0  0  0  0
  -30.9698   -1.9133   -8.0260 H   0  0  0  0  0  0  0  0  0  0  0  0
  -29.4189   -0.0586   -8.6497 H   0  0  0  0  0  0  0  0  0  0  0  0
  -26.7081    0.7200   -7.7653 H   0  0  0  0  0  0  0  0  0  0  0  0
  -26.9860    0.3333  -14.8490 H   0  0  0  0  0  0  0  0  0  0  0  0
  -27.2882    0.6766  -12.4190 H   0  0  0  0  0  0  0  0  0  0  0  0
  -31.5264   -3.8009   -4.9033 H   0  0  0  0  0  0  0  0  0  0  0  0
  -31.7125   -2.5675   -6.1959 H   0  0  0  0  0  0  0  0  0  0  0  0
  -32.7521   -4.0324   -6.1959 H   0  0  0  0  0  0  0  0  0  0  0  0
  -25.2459   -3.1435   -7.9606 H   0  0  0  0  0  0  0  0  0  0  0  0
  -25.3423   -2.4517   -6.3674 H   0  0  0  0  0  0  0  0  0  0  0  0
  -27.0350   -1.9487   -9.9920 H   0  0  0  0  0  0  0  0  0  0  0  0
  -25.7063   -3.2281  -11.6645 H   0  0  0  0  0  0  0  0  0  0  0  0
  -25.3685   -3.5600  -14.0912 H   0  0  0  0  0  0  0  0  0  0  0  0
  -25.3785   -3.6556  -15.5275 H   0  0  0  0  0  0  0  0  0  0  0  0
  1  2  1  0
  2 17  2  0
  2 18  1  0
  3  4  2  0
  3 20  1  0
  4  5  1  0
  4 33  1  0
  5  6  2  0
  6  7  1  0
  7  8  1  0
  7 20  2  0
  8  9  1  0
  8 18  1  0
  9 21  2  0
  9 22  1  0
 10 13  2  0
 10 22  1  0
 10 23  1  0
 11 12  2  0
 11 14  1  0
 11 24  1  0
 12 13  1  0
 14 15  1  0
 14 25  1  1
 14 29  1  0
 15 26  1  6
 15 27  1  0
 15 28  1  0
 33 16  1  1
 18 19  1  0
 19 20  1  0
 23 24  2  0
 29 30  1  6
 29 31  1  0
 29 32  1  0
 33 34  2  0
 33 35  2  0
  1 36  1  0
  1 37  1  0
  1 38  1  0
  3 39  1  0
  5 40  1  0
  6 41  1  0
  8 42  1  1
 12 43  1  0
 13 44  1  0
 16 45  1  0
 16 46  1  0
 16 47  1  0
 19 48  1  0
 19 49  1  0
 22 50  1  0
 23 51  1  0
 24 52  1  0
 25 53  1  0
M  END
>  <filename_input>  (15) 
7OFK_VCH_docked.sdf

>  <pdb_id>  (15) 
7OFK_VCH

>  <pose_rank>  (15) 
14

>  <num_atoms_heavy>  (15) 
35

>  <num_torsions>  (15) 
6

>  <pose>  (15) 
[-26.517534236557086, 0.03921026116021634, -9.78174376755896, 3.613180394899095, 1.1216970001876234, -2.4830268341889714, 3.8421387487839898, -2.3421359314387864, -0.4529772340097892, -2.949104176932169, 1.5876456157758179, 0.2700654593933708]

>  <energy>  (15) 
-501.16531694898765

>  <inter_energy>  (15) 
-559.829786773357

>  <intra_energy>  (15) 
62.77666650086553

>  <rmsd>  (15) 
8.42947

>  <sdf_rank>  (15) 
0

$$$$

     RDKit          3D

 53 55  0  0  0  0  0  0  0  0999 V2000
  -26.5374   -1.3263  -16.6549 C   0  0  0  0  0  0  0  0  0  0  0  0
  -26.8686   -1.0097  -15.2268 C   0  0  0  0  0  0  0  0  0  0  0  0
  -26.6746    3.9400  -15.1190 C   0  0  0  0  0  0  0  0  0  0  0  0
  -26.9257    4.8239  -14.0855 C   0  0  0  0  0  0  0  0  0  0  0  0
  -27.3283    4.3998  -12.8421 C   0  0  0  0  0  0  0  0  0  0  0  0
  -27.4660    3.0548  -12.5687 C   0  0  0  0  0  0  0  0  0  0  0  0
  -27.2093    2.1737  -13.5938 C   0  0  0  0  0  0  0  0  0  0  0  0
  -27.2896    0.6914  -13.5367 C   0  0  2  0  0  0  0  0  0  0  0  0
  -26.2706    0.1560  -12.5653 C   0  0  0  0  0  0  0  0  0  0  0  0
  -26.2143   -0.7006  -10.2274 C   0  0  0  0  0  0  0  0  0  0  0  0
  -24.9222   -1.3849   -7.8645 C   0  0  0  0  0  0  0  0  0  0  0  0
  -25.4152   -2.3609   -8.7127 C   0  0  0  0  0  0  0  0  0  0  0  0
  -26.0468   -2.0201   -9.8922 C   0  0  0  0  0  0  0  0  0  0  0  0
  -24.2314   -1.7603   -6.5657 C   0  0  1  0  0  0  0  0  0  0  0  0
  -24.4412   -0.6693   -5.5376 C   0  0  1  0  0  0  0  0  0  0  0  0
  -28.4074    7.0212  -14.9552 C   0  0  0  0  0  0  0  0  0  0  0  0
  -27.1740   -1.8934  -14.4387 O   0  0  0  0  0  0  0  0  0  0  0  0
  -26.8106    0.3249  -14.8555 N   0  0  0  0  0  0  0  0  0  0  0  0
  -26.5898    1.4535  -15.7524 C   0  0  0  0  0  0  0  0  0  0  0  0
  -26.8156    2.6031  -14.8357 C   0  0  0  0  0  0  0  0  0  0  0  0
  -25.0785    0.2253  -12.8062 O   0  0  0  0  0  0  0  0  0  0  0  0
  -26.8777   -0.3086  -11.4149 N   0  0  0  0  0  0  0  0  0  0  0  0
  -25.7348    0.2796   -9.3960 C   0  0  0  0  0  0  0  0  0  0  0  0
  -25.0937   -0.0644   -8.2218 C   0  0  0  0  0  0  0  0  0  0  0  0
  -24.7891   -2.9666   -6.0391 O   0  0  0  0  0  0  0  0  0  0  0  0
  -24.2411   -1.1654   -4.3027 F   0  0  0  0  0  0  0  0  0  0  0  0
  -23.6287    0.4195   -5.6933 F   0  0  0  0  0  0  0  0  0  0  0  0
  -25.7109   -0.2185   -5.5781 F   0  0  0  0  0  0  0  0  0  0  0  0
  -22.7440   -2.0074   -6.7656 C   0  0  2  0  0  0  0  0  0  0  0  0
  -22.4915   -3.2477   -7.2856 F   0  0  0  0  0  0  0  0  0  0  0  0
  -22.0652   -1.8841   -5.6095 F   0  0  0  0  0  0  0  0  0  0  0  0
  -22.2290   -1.1072   -7.6186 F   0  0  0  0  0  0  0  0  0  0  0  0
  -26.7923    6.5788  -14.3725 S   0  0  1  0  0  0  0  0  0  0  0  0
  -26.6111    7.2384  -13.0906 O   0  0  0  0  0  0  0  0  0  0  0  0
  -25.8592    6.7269  -15.4641 O   0  0  0  0  0  0  0  0  0  0  0  0
  -25.7426   -2.0860  -16.6872 H   0  0  0  0  0  0  0  0  0  0  0  0
  -27.4340   -1.7117  -17.1624 H   0  0  0  0  0  0  0  0  0  0  0  0
  -26.1927   -0.4133  -17.1624 H   0  0  0  0  0  0  0  0  0  0  0  0
  -26.3768    4.2900  -16.1184 H   0  0  0  0  0  0  0  0  0  0  0  0
  -27.5429    5.1400  -12.0572 H   0  0  0  0  0  0  0  0  0  0  0  0
  -27.7686    2.7012  -11.5720 H   0  0  0  0  0  0  0  0  0  0  0  0
  -28.2869    0.3251  -13.2519 H   0  0  0  0  0  0  0  0  0  0  0  0
  -25.3024   -3.4215   -8.4439 H   0  0  0  0  0  0  0  0  0  0  0  0
  -26.4164   -2.8084  -10.5645 H   0  0  0  0  0  0  0  0  0  0  0  0
  -29.0701    7.2027  -14.0961 H   0  0  0  0  0  0  0  0  0  0  0  0
  -28.3399    7.9339  -15.5654 H   0  0  0  0  0  0  0  0  0  0  0  0
  -28.8144    6.2014  -15.5654 H   0  0  0  0  0  0  0  0  0  0  0  0
  -25.5659    1.4541  -16.1544 H   0  0  0  0  0  0  0  0  0  0  0  0
  -27.2355    1.4540  -16.6430 H   0  0  0  0  0  0  0  0  0  0  0  0
  -27.9055   -0.3759  -11.4217 H   0  0  0  0  0  0  0  0  0  0  0  0
  -25.8608    1.3389   -9.6642 H   0  0  0  0  0  0  0  0  0  0  0  0
  -24.7137    0.7284   -7.5608 H   0  0  0  0  0  0  0  0  0  0  0  0
  -24.7736   -2.9329   -5.0498 H   0  0  0  0  0  0  0  0  0  0  0  0
  1  2  1  0
  2 17  2  0
  2 18  1  0
  3  4  2  0
  3 20  1  0
  4  5  1  0
  4 33  1  0
  5  6  2  0
  6  7  1  0
  7  8  1  0
  7 20  2  0
  8  9  1  0
  8 18  1  0
  9 21  2  0
  9 22  1  0
 10 13  2  0
 10 22  1  0
 10 23  1  0
 11 12  2  0
 11 14  1  0
 11 24  1  0
 12 13  1  0
 14 15  1  0
 14 25  1  1
 14 29  1  0
 15 26  1  1
 15 27  1  0
 15 28  1  0
 33 16  1  6
 18 19  1  0
 19 20  1  0
 23 24  2  0
 29 30  1  6
 29 31  1  0
 29 32  1  0
 33 34  2  0
 33 35  2  0
  1 36  1  0
  1 37  1  0
  1 38  1  0
  3 39  1  0
  5 40  1  0
  6 41  1  0
  8 42  1  1
 12 43  1  0
 13 44  1  0
 16 45  1  0
 16 46  1  0
 16 47  1  0
 19 48  1  0
 19 49  1  0
 22 50  1  0
 23 51  1  0
 24 52  1  0
 25 53  1  0
M  END
>  <filename_input>  (16) 
7OFK_VCH_docked.sdf

>  <pdb_id>  (16) 
7OFK_VCH

>  <pose_rank>  (16) 
15

>  <num_atoms_heavy>  (16) 
35

>  <num_torsions>  (16) 
6

>  <pose>  (16) 
[-26.27055273966355, 0.1559600849015883, -12.565268598146982, 2.347069351838598, 0.5160752688740867, 0.12110075649784366, 0.13928957399224837, -3.056506076435702, 4.692983338170141, -0.48298217573815533, -0.2156583337505228, 1.7322084144952583]

>  <energy>  (16) 
-545.9502129611842

>  <inter_energy>  (16) 
-574.3553332992717

>  <intra_energy>  (16) 
33.11682637831585

>  <rmsd>  (16) 
10.0298

>  <sdf_rank>  (16) 
0

$$$$

     RDKit          3D

 53 55  0  0  0  0  0  0  0  0999 V2000
  -24.1882   -0.8984  -16.2775 C   0  0  0  0  0  0  0  0  0  0  0  0
  -25.3014   -0.8181  -15.2756 C   0  0  0  0  0  0  0  0  0  0  0  0
  -26.0484    4.0608  -14.8431 C   0  0  0  0  0  0  0  0  0  0  0  0
  -26.9753    4.7620  -14.0936 C   0  0  0  0  0  0  0  0  0  0  0  0
  -27.9181    4.1302  -13.3192 C   0  0  0  0  0  0  0  0  0  0  0  0
  -27.9517    2.7537  -13.2359 C   0  0  0  0  0  0  0  0  0  0  0  0
  -27.0255    2.0547  -13.9752 C   0  0  0  0  0  0  0  0  0  0  0  0
  -26.8692    0.5790  -14.0438 C   0  0  2  0  0  0  0  0  0  0  0  0
  -26.4829    0.0371  -12.6925 C   0  0  0  0  0  0  0  0  0  0  0  0
  -27.6174   -0.8690  -10.6691 C   0  0  0  0  0  0  0  0  0  0  0  0
  -27.7161   -1.5882   -7.9869 C   0  0  0  0  0  0  0  0  0  0  0  0
  -27.5879   -2.5482   -8.9753 C   0  0  0  0  0  0  0  0  0  0  0  0
  -27.5274   -2.1890  -10.3070 C   0  0  0  0  0  0  0  0  0  0  0  0
  -27.7867   -1.9843   -6.5229 C   0  0  1  0  0  0  0  0  0  0  0  0
  -28.7052   -1.0393   -5.7782 C   0  0  1  0  0  0  0  0  0  0  0  0
  -27.9911    6.8715  -15.6095 C   0  0  0  0  0  0  0  0  0  0  0  0
  -25.8349   -1.8295  -14.8423 O   0  0  0  0  0  0  0  0  0  0  0  0
  -25.6872    0.4517  -14.8743 N   0  0  0  0  0  0  0  0  0  0  0  0
  -25.2045    1.7091  -15.4336 C   0  0  0  0  0  0  0  0  0  0  0  0
  -26.0916    2.6906  -14.7532 C   0  0  0  0  0  0  0  0  0  0  0  0
  -25.3387    0.1285  -12.2846 O   0  0  0  0  0  0  0  0  0  0  0  0
  -27.5844   -0.4608  -12.0241 N   0  0  0  0  0  0  0  0  0  0  0  0
  -27.7485    0.0951   -9.7020 C   0  0  0  0  0  0  0  0  0  0  0  0
  -27.7979   -0.2663   -8.3697 C   0  0  0  0  0  0  0  0  0  0  0  0
  -28.3218   -3.3033   -6.3923 O   0  0  0  0  0  0  0  0  0  0  0  0
  -29.0879   -1.6005   -4.6164 F   0  0  0  0  0  0  0  0  0  0  0  0
  -28.1560    0.1813   -5.4982 F   0  0  0  0  0  0  0  0  0  0  0  0
  -29.8263   -0.8092   -6.4906 F   0  0  0  0  0  0  0  0  0  0  0  0
  -26.4123   -1.9945   -5.8715 C   0  0  2  0  0  0  0  0  0  0  0  0
  -25.7164   -3.1392   -6.1512 F   0  0  0  0  0  0  0  0  0  0  0  0
  -26.5008   -1.8661   -4.5343 F   0  0  0  0  0  0  0  0  0  0  0  0
  -25.6749   -0.9636   -6.3148 F   0  0  0  0  0  0  0  0  0  0  0  0
  -27.0077    6.5432  -14.1711 S   0  0  1  0  0  0  0  0  0  0  0  0
  -27.7559    7.0362  -13.0273 O   0  0  0  0  0  0  0  0  0  0  0  0
  -25.6496    6.9476  -14.4473 O   0  0  0  0  0  0  0  0  0  0  0  0
  -23.2251   -0.9679  -15.7506 H   0  0  0  0  0  0  0  0  0  0  0  0
  -24.3262   -1.7889  -16.9083 H   0  0  0  0  0  0  0  0  0  0  0  0
  -24.1969    0.0027  -16.9083 H   0  0  0  0  0  0  0  0  0  0  0  0
  -25.3132    4.5746  -15.4798 H   0  0  0  0  0  0  0  0  0  0  0  0
  -28.6533    4.7278  -12.7603 H   0  0  0  0  0  0  0  0  0  0  0  0
  -28.6888    2.2361  -12.6043 H   0  0  0  0  0  0  0  0  0  0  0  0
  -27.7776    0.0658  -14.3922 H   0  0  0  0  0  0  0  0  0  0  0  0
  -27.5337   -3.6109   -8.6965 H   0  0  0  0  0  0  0  0  0  0  0  0
  -27.4066   -2.9629  -11.0793 H   0  0  0  0  0  0  0  0  0  0  0  0
  -28.9926    7.2057  -15.3006 H   0  0  0  0  0  0  0  0  0  0  0  0
  -27.5112    7.6581  -16.2102 H   0  0  0  0  0  0  0  0  0  0  0  0
  -28.0798    5.9542  -16.2102 H   0  0  0  0  0  0  0  0  0  0  0  0
  -24.1471    1.8813  -15.1838 H   0  0  0  0  0  0  0  0  0  0  0  0
  -25.2393    1.7563  -16.5320 H   0  0  0  0  0  0  0  0  0  0  0  0
  -28.4604   -0.5424  -12.5598 H   0  0  0  0  0  0  0  0  0  0  0  0
  -27.8141    1.1554   -9.9874 H   0  0  0  0  0  0  0  0  0  0  0  0
  -27.9044    0.5137   -7.6014 H   0  0  0  0  0  0  0  0  0  0  0  0
  -28.4132   -3.5288   -5.4326 H   0  0  0  0  0  0  0  0  0  0  0  0
  1  2  1  0
  2 17  2  0
  2 18  1  0
  3  4  2  0
  3 20  1  0
  4  5  1  0
  4 33  1  0
  5  6  2  0
  6  7  1  0
  7  8  1  0
  7 20  2  0
  8  9  1  0
  8 18  1  0
  9 21  2  0
  9 22  1  0
 10 13  2  0
 10 22  1  0
 10 23  1  0
 11 12  2  0
 11 14  1  0
 11 24  1  0
 12 13  1  0
 14 15  1  0
 14 25  1  6
 14 29  1  0
 15 26  1  1
 15 27  1  0
 15 28  1  0
 33 16  1  6
 18 19  1  0
 19 20  1  0
 23 24  2  0
 29 30  1  1
 29 31  1  0
 29 32  1  0
 33 34  2  0
 33 35  2  0
  1 36  1  0
  1 37  1  0
  1 38  1  0
  3 39  1  0
  5 40  1  0
  6 41  1  0
  8 42  1  6
 12 43  1  0
 13 44  1  0
 16 45  1  0
 16 46  1  0
 16 47  1  0
 19 48  1  0
 19 49  1  0
 22 50  1  0
 23 51  1  0
 24 52  1  0
 25 53  1  0
M  END
>  <filename_input>  (17) 
7OFK_VCH_docked.sdf

>  <pdb_id>  (17) 
7OFK_VCH

>  <pose_rank>  (17) 
16

>  <num_atoms_heavy>  (17) 
35

>  <num_torsions>  (17) 
6

>  <pose>  (17) 
[-26.482935569764734, 0.037104699048441735, -12.692495802165087, 2.198584377007447, 0.2674444337356649, 0.7454162472906612, -0.024266809656584013, -3.119817039981476, 4.768903302343315, -0.40231101841768735, -0.17965732260643566, 1.7151331115218797]

>  <energy>  (17) 
-521.1429986477264

>  <inter_energy>  (17) 
-554.6803380893506

>  <intra_energy>  (17) 
36.51018706428801

>  <rmsd>  (17) 
10.0078

>  <sdf_rank>  (17) 
0

$$$$

     RDKit          3D

 53 55  0  0  0  0  0  0  0  0999 V2000
  -25.1114    8.9278  -17.3435 C   0  0  0  0  0  0  0  0  0  0  0  0
  -26.5114    8.3901  -17.3425 C   0  0  0  0  0  0  0  0  0  0  0  0
  -26.1908    4.4799  -14.3167 C   0  0  0  0  0  0  0  0  0  0  0  0
  -27.1655    3.5987  -13.8854 C   0  0  0  0  0  0  0  0  0  0  0  0
  -28.4824    3.7264  -14.2562 C   0  0  0  0  0  0  0  0  0  0  0  0
  -28.8775    4.7342  -15.1112 C   0  0  0  0  0  0  0  0  0  0  0  0
  -27.9075    5.6072  -15.5471 C   0  0  0  0  0  0  0  0  0  0  0  0
  -28.0931    6.7605  -16.4650 C   0  0  2  0  0  0  0  0  0  0  0  0
  -28.5365    6.2757  -17.8204 C   0  0  0  0  0  0  0  0  0  0  0  0
  -30.5339    5.1866  -18.8336 C   0  0  0  0  0  0  0  0  0  0  0  0
  -31.9185    3.9219  -20.8841 C   0  0  0  0  0  0  0  0  0  0  0  0
  -30.6836    3.4560  -20.4683 C   0  0  0  0  0  0  0  0  0  0  0  0
  -30.0017    4.0781  -19.4415 C   0  0  0  0  0  0  0  0  0  0  0  0
  -32.6659    3.2397  -22.0160 C   0  0  1  0  0  0  0  0  0  0  0  0
  -33.1663    4.2756  -22.9997 C   0  0  1  0  0  0  0  0  0  0  0  0
  -24.9728    2.1619  -12.9329 C   0  0  0  0  0  0  0  0  0  0  0  0
  -27.4096    8.9667  -17.9393 O   0  0  0  0  0  0  0  0  0  0  0  0
  -26.7273    7.2174  -16.6350 N   0  0  0  0  0  0  0  0  0  0  0  0
  -25.7539    6.5380  -15.7878 C   0  0  0  0  0  0  0  0  0  0  0  0
  -26.5956    5.4800  -15.1671 C   0  0  0  0  0  0  0  0  0  0  0  0
  -27.7529    6.2144  -18.7510 O   0  0  0  0  0  0  0  0  0  0  0  0
  -29.8560    5.8681  -17.7944 N   0  0  0  0  0  0  0  0  0  0  0  0
  -31.7554    5.6638  -19.2362 C   0  0  0  0  0  0  0  0  0  0  0  0
  -32.4404    5.0329  -20.2564 C   0  0  0  0  0  0  0  0  0  0  0  0
  -31.7936    2.3550  -22.7228 O   0  0  0  0  0  0  0  0  0  0  0  0
  -32.2298    5.2267  -23.1724 F   0  0  0  0  0  0  0  0  0  0  0  0
  -33.4948    3.7766  -24.2298 F   0  0  0  0  0  0  0  0  0  0  0  0
  -34.2662    4.8907  -22.5211 F   0  0  0  0  0  0  0  0  0  0  0  0
  -33.8292    2.4039  -21.5045 C   0  0  2  0  0  0  0  0  0  0  0  0
  -34.4939    3.0171  -20.4775 F   0  0  0  0  0  0  0  0  0  0  0  0
  -33.4171    1.1936  -21.0825 F   0  0  0  0  0  0  0  0  0  0  0  0
  -34.7221    2.1923  -22.4848 F   0  0  0  0  0  0  0  0  0  0  0  0
  -26.7330    2.2859  -12.7587 S   0  0  1  0  0  0  0  0  0  0  0  0
  -26.9916    2.7435  -11.4041 O   0  0  0  0  0  0  0  0  0  0  0  0
  -27.3290    1.0897  -13.3046 O   0  0  0  0  0  0  0  0  0  0  0  0
  -24.7685    9.0596  -16.3066 H   0  0  0  0  0  0  0  0  0  0  0  0
  -24.4474    8.2208  -17.8622 H   0  0  0  0  0  0  0  0  0  0  0  0
  -25.0915    9.8976  -17.8622 H   0  0  0  0  0  0  0  0  0  0  0  0
  -25.1433    4.3846  -13.9947 H   0  0  0  0  0  0  0  0  0  0  0  0
  -29.2288    3.0180  -13.8674 H   0  0  0  0  0  0  0  0  0  0  0  0
  -29.9249    4.8357  -15.4313 H   0  0  0  0  0  0  0  0  0  0  0  0
  -28.8192    7.4966  -16.0897 H   0  0  0  0  0  0  0  0  0  0  0  0
  -30.2397    2.5789  -20.9619 H   0  0  0  0  0  0  0  0  0  0  0  0
  -29.0296    3.6840  -19.1103 H   0  0  0  0  0  0  0  0  0  0  0  0
  -24.5073    2.1291  -11.9368 H   0  0  0  0  0  0  0  0  0  0  0  0
  -24.7228    1.2439  -13.4849 H   0  0  0  0  0  0  0  0  0  0  0  0
  -24.5965    3.0357  -13.4849 H   0  0  0  0  0  0  0  0  0  0  0  0
  -24.9358    6.1048  -16.3820 H   0  0  0  0  0  0  0  0  0  0  0  0
  -25.2503    7.1955  -15.0638 H   0  0  0  0  0  0  0  0  0  0  0  0
  -30.3951    6.0789  -16.9425 H   0  0  0  0  0  0  0  0  0  0  0  0
  -32.1891    6.5483  -18.7469 H   0  0  0  0  0  0  0  0  0  0  0  0
  -33.4187    5.4235  -20.5733 H   0  0  0  0  0  0  0  0  0  0  0  0
  -31.2681    1.8222  -22.0746 H   0  0  0  0  0  0  0  0  0  0  0  0
  1  2  1  0
  2 17  2  0
  2 18  1  0
  3  4  2  0
  3 20  1  0
  4  5  1  0
  4 33  1  0
  5  6  2  0
  6  7  1  0
  7  8  1  0
  7 20  2  0
  8  9  1  0
  8 18  1  0
  9 21  2  0
  9 22  1  0
 10 13  2  0
 10 22  1  0
 10 23  1  0
 11 12  2  0
 11 14  1  0
 11 24  1  0
 12 13  1  0
 14 15  1  0
 14 25  1  6
 14 29  1  0
 15 26  1  6
 15 27  1  0
 15 28  1  0
 33 16  1  1
 18 19  1  0
 19 20  1  0
 23 24  2  0
 29 30  1  1
 29 31  1  0
 29 32  1  0
 33 34  2  0
 33 35  2  0
  1 36  1  0
  1 37  1  0
  1 38  1  0
  3 39  1  0
  5 40  1  0
  6 41  1  0
  8 42  1  1
 12 43  1  0
 13 44  1  0
 16 45  1  0
 16 46  1  0
 16 47  1  0
 19 48  1  0
 19 49  1  0
 22 50  1  0
 23 51  1  0
 24 52  1  0
 25 53  1  0
M  END
>  <filename_input>  (18) 
7OFK_VCH_docked.sdf

>  <pdb_id>  (18) 
7OFK_VCH

>  <pose_rank>  (18) 
17

>  <num_atoms_heavy>  (18) 
35

>  <num_torsions>  (18) 
6

>  <pose>  (18) 
[-28.536530356599723, 6.275696442177782, -17.820424851295297, 3.8795574486897206, -1.9079325033536225, -0.6605049197778028, -0.4543096519841948, 1.3665663803082162, 1.0786210077206497, -0.1750449408091279, -2.301928114810109, -2.4743041187201693]

>  <energy>  (18) 
-452.57935506668537

>  <inter_energy>  (18) 
-513.4760025983061

>  <intra_energy>  (18) 
69.48826772154811

>  <rmsd>  (18) 
8.44919

>  <sdf_rank>  (18) 
0

$$$$

     RDKit          3D

 53 55  0  0  0  0  0  0  0  0999 V2000
  -23.2338   -4.1173   -8.1759 C   0  0  0  0  0  0  0  0  0  0  0  0
  -23.7416   -2.8347   -7.5872 C   0  0  0  0  0  0  0  0  0  0  0  0
  -28.3944   -3.9684   -6.3165 C   0  0  0  0  0  0  0  0  0  0  0  0
  -29.3626   -3.2060   -5.6890 C   0  0  0  0  0  0  0  0  0  0  0  0
  -29.1231   -1.9189   -5.2719 C   0  0  0  0  0  0  0  0  0  0  0  0
  -27.8999   -1.3227   -5.4979 C   0  0  0  0  0  0  0  0  0  0  0  0
  -26.9379   -2.0775   -6.1288 C   0  0  0  0  0  0  0  0  0  0  0  0
  -25.5575   -1.6528   -6.4769 C   0  0  2  0  0  0  0  0  0  0  0  0
  -25.6001   -0.5254   -7.4748 C   0  0  0  0  0  0  0  0  0  0  0  0
  -26.4519   -0.1266   -9.7808 C   0  0  0  0  0  0  0  0  0  0  0  0
  -26.6055    1.2565  -12.1859 C   0  0  0  0  0  0  0  0  0  0  0  0
  -27.3035    1.6891  -11.0721 C   0  0  0  0  0  0  0  0  0  0  0  0
  -27.2174    1.0078   -9.8743 C   0  0  0  0  0  0  0  0  0  0  0  0
  -26.7039    2.0040  -13.5037 C   0  0  1  0  0  0  0  0  0  0  0  0
  -26.5288    3.4888  -13.2671 C   0  0  1  0  0  0  0  0  0  0  0  0
  -30.5638   -5.3682   -4.4000 C   0  0  0  0  0  0  0  0  0  0  0  0
  -23.0065   -1.8665   -7.4542 O   0  0  0  0  0  0  0  0  0  0  0  0
  -25.0745   -2.8094   -7.2062 N   0  0  0  0  0  0  0  0  0  0  0  0
  -25.9845   -3.9490   -7.2017 C   0  0  0  0  0  0  0  0  0  0  0  0
  -27.1798   -3.3650   -6.5357 C   0  0  0  0  0  0  0  0  0  0  0  0
  -24.9643    0.4975   -7.2918 O   0  0  0  0  0  0  0  0  0  0  0  0
  -26.3565   -0.8679   -8.5786 N   0  0  0  0  0  0  0  0  0  0  0  0
  -25.7565   -0.5713  -10.8764 C   0  0  0  0  0  0  0  0  0  0  0  0
  -25.8359    0.1185  -12.0706 C   0  0  0  0  0  0  0  0  0  0  0  0
  -25.6669    1.5803  -14.3916 O   0  0  0  0  0  0  0  0  0  0  0  0
  -27.4653    3.9239  -12.4041 F   0  0  0  0  0  0  0  0  0  0  0  0
  -25.3029    3.8435  -12.7760 F   0  0  0  0  0  0  0  0  0  0  0  0
  -26.7037    4.1748  -14.4143 F   0  0  0  0  0  0  0  0  0  0  0  0
  -28.0270    1.7419  -14.2067 C   0  0  2  0  0  0  0  0  0  0  0  0
  -28.7342    0.7300  -13.6165 F   0  0  0  0  0  0  0  0  0  0  0  0
  -27.8419    1.4320  -15.5037 F   0  0  0  0  0  0  0  0  0  0  0  0
  -28.8012    2.8386  -14.1740 F   0  0  0  0  0  0  0  0  0  0  0  0
  -30.9598   -3.9187   -5.3414 S   0  0  1  0  0  0  0  0  0  0  0  0
  -31.6763   -3.0208   -4.4518 O   0  0  0  0  0  0  0  0  0  0  0  0
  -31.4880   -4.3366   -6.6183 O   0  0  0  0  0  0  0  0  0  0  0  0
  -22.9598   -4.8093   -7.3659 H   0  0  0  0  0  0  0  0  0  0  0  0
  -24.0196   -4.5722   -8.7967 H   0  0  0  0  0  0  0  0  0  0  0  0
  -22.3495   -3.9109   -8.7967 H   0  0  0  0  0  0  0  0  0  0  0  0
  -28.5872   -5.0066   -6.6247 H   0  0  0  0  0  0  0  0  0  0  0  0
  -29.9145   -1.3584   -4.7526 H   0  0  0  0  0  0  0  0  0  0  0  0
  -27.7016   -0.2865   -5.1865 H   0  0  0  0  0  0  0  0  0  0  0  0
  -24.9705   -1.3380   -5.6015 H   0  0  0  0  0  0  0  0  0  0  0  0
  -27.9349    2.5872  -11.1418 H   0  0  0  0  0  0  0  0  0  0  0  0
  -27.7637    1.3754   -8.9932 H   0  0  0  0  0  0  0  0  0  0  0  0
  -30.6270   -5.1368   -3.3265 H   0  0  0  0  0  0  0  0  0  0  0  0
  -31.2757   -6.1702   -4.6448 H   0  0  0  0  0  0  0  0  0  0  0  0
  -29.5429   -5.6968   -4.6448 H   0  0  0  0  0  0  0  0  0  0  0  0
  -26.2162   -4.2834   -8.2237 H   0  0  0  0  0  0  0  0  0  0  0  0
  -25.5834   -4.8438   -6.7032 H   0  0  0  0  0  0  0  0  0  0  0  0
  -26.8999   -1.7411   -8.5219 H   0  0  0  0  0  0  0  0  0  0  0  0
  -25.1359   -1.4767  -10.8041 H   0  0  0  0  0  0  0  0  0  0  0  0
  -25.2757   -0.2463  -12.9441 H   0  0  0  0  0  0  0  0  0  0  0  0
  -24.8908    1.2632  -13.8652 H   0  0  0  0  0  0  0  0  0  0  0  0
  1  2  1  0
  2 17  2  0
  2 18  1  0
  3  4  2  0
  3 20  1  0
  4  5  1  0
  4 33  1  0
  5  6  2  0
  6  7  1  0
  7  8  1  0
  7 20  2  0
  8  9  1  0
  8 18  1  0
  9 21  2  0
  9 22  1  0
 10 13  2  0
 10 22  1  0
 10 23  1  0
 11 12  2  0
 11 14  1  0
 11 24  1  0
 12 13  1  0
 14 15  1  0
 14 25  1  6
 14 29  1  0
 15 26  1  1
 15 27  1  0
 15 28  1  0
 33 16  1  1
 18 19  1  0
 19 20  1  0
 23 24  2  0
 29 30  1  1
 29 31  1  0
 29 32  1  0
 33 34  2  0
 33 35  2  0
  1 36  1  0
  1 37  1  0
  1 38  1  0
  3 39  1  0
  5 40  1  0
  6 41  1  0
  8 42  1  1
 12 43  1  0
 13 44  1  0
 16 45  1  0
 16 46  1  0
 16 47  1  0
 19 48  1  0
 19 49  1  0
 22 50  1  0
 23 51  1  0
 24 52  1  0
 25 53  1  0
M  END
>  <filename_input>  (19) 
7OFK_VCH_docked.sdf

>  <pdb_id>  (19) 
7OFK_VCH

>  <pose_rank>  (19) 
18

>  <num_atoms_heavy>  (19) 
35

>  <num_torsions>  (19) 
6

>  <pose>  (19) 
[-25.600138983672, -0.5253664538304914, -7.474754178550222, 3.794497030295598, 1.3265514797393032, -3.4655220031429614, -2.6842908004263326, 2.6637591619065177, -1.123150506480292, 2.9642871430049436, 2.268644750553584, -3.3424482033555543]

>  <energy>  (19) 
-415.40872070139744

>  <inter_energy>  (19) 
-461.3507134117382

>  <intra_energy>  (19) 
52.77336760952466

>  <rmsd>  (19) 
8.08273

>  <sdf_rank>  (19) 
0

$$$$

     RDKit          3D

 53 55  0  0  0  0  0  0  0  0999 V2000
  -31.1174    4.8025  -14.3354 C   0  0  0  0  0  0  0  0  0  0  0  0
  -29.7697    4.7002  -14.9855 C   0  0  0  0  0  0  0  0  0  0  0  0
  -27.1519    2.0800  -11.6946 C   0  0  0  0  0  0  0  0  0  0  0  0
  -25.8463    1.6267  -11.7456 C   0  0  0  0  0  0  0  0  0  0  0  0
  -25.0392    1.8431  -12.8362 C   0  0  0  0  0  0  0  0  0  0  0  0
  -25.5003    2.5598  -13.9209 C   0  0  0  0  0  0  0  0  0  0  0  0
  -26.7967    3.0179  -13.8686 C   0  0  0  0  0  0  0  0  0  0  0  0
  -27.5065    3.8063  -14.9086 C   0  0  2  0  0  0  0  0  0  0  0  0
  -26.8385    5.1443  -15.0881 C   0  0  0  0  0  0  0  0  0  0  0  0
  -27.1496    7.1982  -16.4617 C   0  0  0  0  0  0  0  0  0  0  0  0
  -26.2861    9.5905  -17.5808 C   0  0  0  0  0  0  0  0  0  0  0  0
  -27.1969    9.5818  -16.5390 C   0  0  0  0  0  0  0  0  0  0  0  0
  -27.6165    8.3930  -15.9759 C   0  0  0  0  0  0  0  0  0  0  0  0
  -25.8282   10.8980  -18.2022 C   0  0  1  0  0  0  0  0  0  0  0  0
  -24.3259   10.8815  -18.3863 C   0  0  1  0  0  0  0  0  0  0  0  0
  -25.5162   -1.0024  -10.8747 C   0  0  0  0  0  0  0  0  0  0  0  0
  -29.5746    5.1455  -16.1075 O   0  0  0  0  0  0  0  0  0  0  0  0
  -28.7703    4.0793  -14.2519 N   0  0  0  0  0  0  0  0  0  0  0  0
  -28.9436    3.4030  -12.9716 C   0  0  0  0  0  0  0  0  0  0  0  0
  -27.6009    2.7917  -12.7806 C   0  0  0  0  0  0  0  0  0  0  0  0
  -25.7554    5.3767  -14.5814 O   0  0  0  0  0  0  0  0  0  0  0  0
  -27.5734    5.9570  -15.9291 N   0  0  0  0  0  0  0  0  0  0  0  0
  -26.2491    7.1889  -17.4965 C   0  0  0  0  0  0  0  0  0  0  0  0
  -25.8227    8.3801  -18.0509 C   0  0  0  0  0  0  0  0  0  0  0  0
  -26.4221   11.0681  -19.4912 O   0  0  0  0  0  0  0  0  0  0  0  0
  -23.7895    9.8912  -17.6494 F   0  0  0  0  0  0  0  0  0  0  0  0
  -23.9155   10.7164  -19.6802 F   0  0  0  0  0  0  0  0  0  0  0  0
  -23.7825   12.0348  -17.9481 F   0  0  0  0  0  0  0  0  0  0  0  0
  -26.2359   12.0984  -17.3619 C   0  0  2  0  0  0  0  0  0  0  0  0
  -27.2323   12.8277  -17.9518 F   0  0  0  0  0  0  0  0  0  0  0  0
  -25.1906   12.9148  -17.1306 F   0  0  0  0  0  0  0  0  0  0  0  0
  -26.6924   11.6996  -16.1637 F   0  0  0  0  0  0  0  0  0  0  0  0
  -25.1898    0.6717  -10.3903 S   0  0  1  0  0  0  0  0  0  0  0  0
  -23.7458    0.8326  -10.3760 O   0  0  0  0  0  0  0  0  0  0  0  0
  -26.0203    0.9855   -9.2520 O   0  0  0  0  0  0  0  0  0  0  0  0
  -30.9987    4.7935  -13.2419 H   0  0  0  0  0  0  0  0  0  0  0  0
  -31.6031    5.7400  -14.6438 H   0  0  0  0  0  0  0  0  0  0  0  0
  -31.7390    3.9489  -14.6438 H   0  0  0  0  0  0  0  0  0  0  0  0
  -27.7988    1.8805  -10.8276 H   0  0  0  0  0  0  0  0  0  0  0  0
  -24.0153    1.4411  -12.8445 H   0  0  0  0  0  0  0  0  0  0  0  0
  -24.8581    2.7569  -14.7919 H   0  0  0  0  0  0  0  0  0  0  0  0
  -27.5534    3.2930  -15.8804 H   0  0  0  0  0  0  0  0  0  0  0  0
  -27.5915   10.5339  -16.1546 H   0  0  0  0  0  0  0  0  0  0  0  0
  -28.3267    8.4041  -15.1360 H   0  0  0  0  0  0  0  0  0  0  0  0
  -25.6380   -1.6267   -9.9772 H   0  0  0  0  0  0  0  0  0  0  0  0
  -26.4382   -1.0377  -11.4736 H   0  0  0  0  0  0  0  0  0  0  0  0
  -24.6751   -1.3815  -11.4736 H   0  0  0  0  0  0  0  0  0  0  0  0
  -29.1793    4.1163  -12.1680 H   0  0  0  0  0  0  0  0  0  0  0  0
  -29.7738    2.6816  -12.9520 H   0  0  0  0  0  0  0  0  0  0  0  0
  -28.5141    5.6306  -16.1924 H   0  0  0  0  0  0  0  0  0  0  0  0
  -25.8667    6.2333  -17.8847 H   0  0  0  0  0  0  0  0  0  0  0  0
  -25.1014    8.3627  -18.8811 H   0  0  0  0  0  0  0  0  0  0  0  0
  -27.3684   11.3392  -19.3854 H   0  0  0  0  0  0  0  0  0  0  0  0
  1  2  1  0
  2 17  2  0
  2 18  1  0
  3  4  2  0
  3 20  1  0
  4  5  1  0
  4 33  1  0
  5  6  2  0
  6  7  1  0
  7  8  1  0
  7 20  2  0
  8  9  1  0
  8 18  1  0
  9 21  2  0
  9 22  1  0
 10 13  2  0
 10 22  1  0
 10 23  1  0
 11 12  2  0
 11 14  1  0
 11 24  1  0
 12 13  1  0
 14 15  1  0
 14 25  1  6
 14 29  1  0
 15 26  1  1
 15 27  1  0
 15 28  1  0
 33 16  1  6
 18 19  1  0
 19 20  1  0
 23 24  2  0
 29 30  1  6
 29 31  1  0
 29 32  1  0
 33 34  2  0
 33 35  2  0
  1 36  1  0
  1 37  1  0
  1 38  1  0
  3 39  1  0
  5 40  1  0
  6 41  1  0
  8 42  1  6
 12 43  1  0
 13 44  1  0
 16 45  1  0
 16 46  1  0
 16 47  1  0
 19 48  1  0
 19 49  1  0
 22 50  1  0
 23 51  1  0
 24 52  1  0
 25 53  1  0
M  END
>  <filename_input>  (20) 
7OFK_VCH_docked.sdf

>  <pdb_id>  (20) 
7OFK_VCH

>  <pose_rank>  (20) 
19

>  <num_atoms_heavy>  (20) 
35

>  <num_torsions>  (20) 
6

>  <pose>  (20) 
[-26.838464186069263, 5.144256659204292, -15.088132937552327, 3.7204441111462567, 4.880884865245112, -0.41035648638111666, -4.756228332866695, -2.977921300025567, -7.880282548528893, 4.49455113780251, -9.558301268978397, 1.2218154679595585]

>  <energy>  (20) 
-276.89335887015704

>  <inter_energy>  (20) 
-475.364003471477

>  <intra_energy>  (20) 
206.26946715485698

>  <rmsd>  (20) 
4.89597

>  <sdf_rank>  (20) 
0

$$$$

     RDKit          3D

 53 55  0  0  0  0  0  0  0  0999 V2000
  -25.1325   -2.1605  -17.1379 C   0  0  0  0  0  0  0  0  0  0  0  0
  -26.5037   -1.8517  -16.6145 C   0  0  0  0  0  0  0  0  0  0  0  0
  -25.6958   -1.0801  -11.7875 C   0  0  0  0  0  0  0  0  0  0  0  0
  -26.5706   -0.7174  -10.7797 C   0  0  0  0  0  0  0  0  0  0  0  0
  -27.9014   -0.4734  -11.0193 C   0  0  0  0  0  0  0  0  0  0  0  0
  -28.4251   -0.6163  -12.2874 C   0  0  0  0  0  0  0  0  0  0  0  0
  -27.5575   -0.9843  -13.2898 C   0  0  0  0  0  0  0  0  0  0  0  0
  -27.8889   -1.1985  -14.7220 C   0  0  2  0  0  0  0  0  0  0  0  0
  -28.8452   -2.3536  -14.8637 C   0  0  0  0  0  0  0  0  0  0  0  0
  -31.3058   -2.7125  -15.0014 C   0  0  0  0  0  0  0  0  0  0  0  0
  -33.5762   -4.3082  -14.8603 C   0  0  0  0  0  0  0  0  0  0  0  0
  -33.3749   -3.4525  -15.9290 C   0  0  0  0  0  0  0  0  0  0  0  0
  -32.2409   -2.6686  -16.0040 C   0  0  0  0  0  0  0  0  0  0  0  0
  -34.8254   -5.1670  -14.7766 C   0  0  1  0  0  0  0  0  0  0  0  0
  -35.2667   -5.5700  -16.1674 C   0  0  1  0  0  0  0  0  0  0  0  0
  -26.9908    0.8030   -8.4793 C   0  0  0  0  0  0  0  0  0  0  0  0
  -27.4630   -1.7681  -17.3682 O   0  0  0  0  0  0  0  0  0  0  0  0
  -26.6205   -1.6678  -15.2453 N   0  0  0  0  0  0  0  0  0  0  0  0
  -25.5179   -1.6148  -14.2922 C   0  0  0  0  0  0  0  0  0  0  0  0
  -26.2280   -1.2186  -13.0465 C   0  0  0  0  0  0  0  0  0  0  0  0
  -28.4572   -3.5040  -14.7633 O   0  0  0  0  0  0  0  0  0  0  0  0
  -30.1419   -1.9071  -15.0278 N   0  0  0  0  0  0  0  0  0  0  0  0
  -31.4917   -3.5527  -13.9330 C   0  0  0  0  0  0  0  0  0  0  0  0
  -32.6219   -4.3439  -13.8659 C   0  0  0  0  0  0  0  0  0  0  0  0
  -34.5552   -6.3636  -14.0428 O   0  0  0  0  0  0  0  0  0  0  0  0
  -36.0942   -4.6349  -16.6693 F   0  0  0  0  0  0  0  0  0  0  0  0
  -34.2433   -5.7508  -17.0562 F   0  0  0  0  0  0  0  0  0  0  0  0
  -35.9590   -6.7260  -16.1281 F   0  0  0  0  0  0  0  0  0  0  0  0
  -35.9589   -4.4506  -14.0587 C   0  0  2  0  0  0  0  0  0  0  0  0
  -36.2641   -3.2512  -14.6427 F   0  0  0  0  0  0  0  0  0  0  0  0
  -35.6601   -4.2302  -12.7646 F   0  0  0  0  0  0  0  0  0  0  0  0
  -37.0746   -5.1975  -14.0801 F   0  0  0  0  0  0  0  0  0  0  0  0
  -25.9598   -0.4896   -9.1199 S   0  0  1  0  0  0  0  0  0  0  0  0
  -26.2607   -1.6874   -8.3545 O   0  0  0  0  0  0  0  0  0  0  0  0
  -24.6196    0.0275   -9.2637 O   0  0  0  0  0  0  0  0  0  0  0  0
  -24.4443   -2.3155  -16.2939 H   0  0  0  0  0  0  0  0  0  0  0  0
  -25.1712   -3.0725  -17.7518 H   0  0  0  0  0  0  0  0  0  0  0  0
  -24.7765   -1.3201  -17.7518 H   0  0  0  0  0  0  0  0  0  0  0  0
  -24.6268   -1.2492  -11.5908 H   0  0  0  0  0  0  0  0  0  0  0  0
  -28.5555   -0.1611  -10.1918 H   0  0  0  0  0  0  0  0  0  0  0  0
  -29.4925   -0.4430  -12.4889 H   0  0  0  0  0  0  0  0  0  0  0  0
  -28.3242   -0.3089  -15.2007 H   0  0  0  0  0  0  0  0  0  0  0  0
  -34.1279   -3.3962  -16.7289 H   0  0  0  0  0  0  0  0  0  0  0  0
  -32.0869   -2.0074  -16.8695 H   0  0  0  0  0  0  0  0  0  0  0  0
  -26.9704    0.7773   -7.3798 H   0  0  0  0  0  0  0  0  0  0  0  0
  -26.6187    1.7768   -8.8304 H   0  0  0  0  0  0  0  0  0  0  0  0
  -28.0230    0.6566   -8.8304 H   0  0  0  0  0  0  0  0  0  0  0  0
  -25.0317   -2.5955  -14.1840 H   0  0  0  0  0  0  0  0  0  0  0  0
  -24.7039   -0.9342  -14.5825 H   0  0  0  0  0  0  0  0  0  0  0  0
  -30.2739   -0.8975  -15.1834 H   0  0  0  0  0  0  0  0  0  0  0  0
  -30.7410   -3.5962  -13.1301 H   0  0  0  0  0  0  0  0  0  0  0  0
  -32.7630   -5.0135  -13.0047 H   0  0  0  0  0  0  0  0  0  0  0  0
  -34.5984   -6.1724  -13.0724 H   0  0  0  0  0  0  0  0  0  0  0  0
  1  2  1  0
  2 17  2  0
  2 18  1  0
  3  4  2  0
  3 20  1  0
  4  5  1  0
  4 33  1  0
  5  6  2  0
  6  7  1  0
  7  8  1  0
  7 20  2  0
  8  9  1  0
  8 18  1  0
  9 21  2  0
  9 22  1  0
 10 13  2  0
 10 22  1  0
 10 23  1  0
 11 12  2  0
 11 14  1  0
 11 24  1  0
 12 13  1  0
 14 15  1  0
 14 25  1  1
 14 29  1  0
 15 26  1  6
 15 27  1  0
 15 28  1  0
 33 16  1  1
 18 19  1  0
 19 20  1  0
 23 24  2  0
 29 30  1  6
 29 31  1  0
 29 32  1  0
 33 34  2  0
 33 35  2  0
  1 36  1  0
  1 37  1  0
  1 38  1  0
  3 39  1  0
  5 40  1  0
  6 41  1  0
  8 42  1  6
 12 43  1  0
 13 44  1  0
 16 45  1  0
 16 46  1  0
 16 47  1  0
 19 48  1  0
 19 49  1  0
 22 50  1  0
 23 51  1  0
 24 52  1  0
 25 53  1  0
M  END
>  <filename_input>  (21) 
7OFK_VCH_docked.sdf

>  <pdb_id>  (21) 
7OFK_VCH

>  <pose_rank>  (21) 
20

>  <num_atoms_heavy>  (21) 
35

>  <num_torsions>  (21) 
6

>  <pose>  (21) 
[-28.845175825391234, -2.3536465728651903, -14.863718773607982, 2.5898721174494628, -1.6772590248179282, 1.0173765188408146, 0.0052255993631369155, -2.0223780247129373, 4.262714789135091, 2.717372960542879, 1.7383533716205468, -2.181901128616318]

>  <energy>  (21) 
-323.7200369972108

>  <inter_energy>  (21) 
-339.9363837537667

>  <intra_energy>  (21) 
45.589407786911806

>  <rmsd>  (21) 
10.7917

>  <sdf_rank>  (21) 
0

$$$$

     RDKit          3D

 53 55  0  0  0  0  0  0  0  0999 V2000
  -27.5297    1.9382  -12.4335 C   0  0  0  0  0  0  0  0  0  0  0  0
  -27.9867    0.5287  -12.6652 C   0  0  0  0  0  0  0  0  0  0  0  0
  -24.6051   -1.2218  -15.8353 C   0  0  0  0  0  0  0  0  0  0  0  0
  -24.4652   -2.4804  -16.3909 C   0  0  0  0  0  0  0  0  0  0  0  0
  -25.3144   -3.5151  -16.0809 C   0  0  0  0  0  0  0  0  0  0  0  0
  -26.3720   -3.3217  -15.2166 C   0  0  0  0  0  0  0  0  0  0  0  0
  -26.5170   -2.0680  -14.6687 C   0  0  0  0  0  0  0  0  0  0  0  0
  -27.5718   -1.6256  -13.7207 C   0  0  2  0  0  0  0  0  0  0  0  0
  -28.9240   -1.7034  -14.3796 C   0  0  0  0  0  0  0  0  0  0  0  0
  -31.0403   -2.9893  -14.1143 C   0  0  0  0  0  0  0  0  0  0  0  0
  -33.5513   -3.8974  -14.8829 C   0  0  0  0  0  0  0  0  0  0  0  0
  -32.8481   -3.0028  -15.6703 C   0  0  0  0  0  0  0  0  0  0  0  0
  -31.5955   -2.5611  -15.2932 C   0  0  0  0  0  0  0  0  0  0  0  0
  -34.9304   -4.3796  -15.2962 C   0  0  1  0  0  0  0  0  0  0  0  0
  -34.8023   -5.5505  -16.2469 C   0  0  1  0  0  0  0  0  0  0  0  0
  -21.7839   -3.2487  -16.4007 C   0  0  0  0  0  0  0  0  0  0  0  0
  -28.9421    0.0668  -12.0576 O   0  0  0  0  0  0  0  0  0  0  0  0
  -27.2731   -0.2121  -13.5949 N   0  0  0  0  0  0  0  0  0  0  0  0
  -26.0467    0.2073  -14.2634 C   0  0  0  0  0  0  0  0  0  0  0  0
  -25.6612   -1.0407  -14.9754 C   0  0  0  0  0  0  0  0  0  0  0  0
  -29.1424   -1.1288  -15.4313 O   0  0  0  0  0  0  0  0  0  0  0  0
  -29.7697   -2.5416  -13.6794 N   0  0  0  0  0  0  0  0  0  0  0  0
  -31.7256   -3.8733  -13.3201 C   0  0  0  0  0  0  0  0  0  0  0  0
  -32.9740   -4.3220  -13.7051 C   0  0  0  0  0  0  0  0  0  0  0  0
  -35.6618   -4.8267  -14.1523 O   0  0  0  0  0  0  0  0  0  0  0  0
  -34.4770   -6.6602  -15.5583 F   0  0  0  0  0  0  0  0  0  0  0  0
  -35.9305   -5.8176  -16.9720 F   0  0  0  0  0  0  0  0  0  0  0  0
  -33.8101   -5.3342  -17.1334 F   0  0  0  0  0  0  0  0  0  0  0  0
  -35.7480   -3.2720  -15.9428 C   0  0  2  0  0  0  0  0  0  0  0  0
  -35.6535   -2.0919  -15.2564 F   0  0  0  0  0  0  0  0  0  0  0  0
  -37.0483   -3.6091  -16.0331 F   0  0  0  0  0  0  0  0  0  0  0  0
  -35.3173   -3.0392  -17.1932 F   0  0  0  0  0  0  0  0  0  0  0  0
  -23.1065   -2.8110  -17.4975 S   0  0  1  0  0  0  0  0  0  0  0  0
  -23.4255   -4.0001  -18.2693 O   0  0  0  0  0  0  0  0  0  0  0  0
  -22.7863   -1.5450  -18.1130 O   0  0  0  0  0  0  0  0  0  0  0  0
  -27.4674    2.1304  -11.3522 H   0  0  0  0  0  0  0  0  0  0  0  0
  -26.5390    2.0821  -12.8892 H   0  0  0  0  0  0  0  0  0  0  0  0
  -28.2477    2.6360  -12.8892 H   0  0  0  0  0  0  0  0  0  0  0  0
  -23.9056   -0.4061  -16.0702 H   0  0  0  0  0  0  0  0  0  0  0  0
  -25.1494   -4.5073  -16.5262 H   0  0  0  0  0  0  0  0  0  0  0  0
  -27.0706   -4.1364  -14.9753 H   0  0  0  0  0  0  0  0  0  0  0  0
  -27.5889   -2.2134  -12.7911 H   0  0  0  0  0  0  0  0  0  0  0  0
  -33.2926   -2.6390  -16.6084 H   0  0  0  0  0  0  0  0  0  0  0  0
  -31.0416   -1.8643  -15.9396 H   0  0  0  0  0  0  0  0  0  0  0  0
  -22.1194   -3.1377  -15.3591 H   0  0  0  0  0  0  0  0  0  0  0  0
  -21.4881   -4.2927  -16.5813 H   0  0  0  0  0  0  0  0  0  0  0  0
  -20.9237   -2.5874  -16.5813 H   0  0  0  0  0  0  0  0  0  0  0  0
  -26.2336    1.0313  -14.9677 H   0  0  0  0  0  0  0  0  0  0  0  0
  -25.2735    0.5955  -13.5840 H   0  0  0  0  0  0  0  0  0  0  0  0
  -29.4469   -2.8703  -12.7582 H   0  0  0  0  0  0  0  0  0  0  0  0
  -31.2812   -4.2247  -12.3772 H   0  0  0  0  0  0  0  0  0  0  0  0
  -33.5166   -5.0298  -13.0612 H   0  0  0  0  0  0  0  0  0  0  0  0
  -35.1934   -4.5403  -13.3285 H   0  0  0  0  0  0  0  0  0  0  0  0
  1  2  1  0
  2 17  2  0
  2 18  1  0
  3  4  2  0
  3 20  1  0
  4  5  1  0
  4 33  1  0
  5  6  2  0
  6  7  1  0
  7  8  1  0
  7 20  2  0
  8  9  1  0
  8 18  1  0
  9 21  2  0
  9 22  1  0
 10 13  2  0
 10 22  1  0
 10 23  1  0
 11 12  2  0
 11 14  1  0
 11 24  1  0
 12 13  1  0
 14 15  1  0
 14 25  1  1
 14 29  1  0
 15 26  1  1
 15 27  1  0
 15 28  1  0
 33 16  1  1
 18 19  1  0
 19 20  1  0
 23 24  2  0
 29 30  1  1
 29 31  1  0
 29 32  1  0
 33 34  2  0
 33 35  2  0
  1 36  1  0
  1 37  1  0
  1 38  1  0
  3 39  1  0
  5 40  1  0
  6 41  1  0
  8 42  1  1
 12 43  1  0
 13 44  1  0
 16 45  1  0
 16 46  1  0
 16 47  1  0
 19 48  1  0
 19 49  1  0
 22 50  1  0
 23 51  1  0
 24 52  1  0
 25 53  1  0
M  END
>  <filename_input>  (22) 
7OFK_VCH_docked.sdf

>  <pdb_id>  (22) 
7OFK_VCH

>  <pose_rank>  (22) 
21

>  <num_atoms_heavy>  (22) 
35

>  <num_torsions>  (22) 
6

>  <pose>  (22) 
[-28.924023008643957, -1.7034325745727166, -14.379568034979817, 2.3110588442672637, -2.2753904264871876, -2.7472235830701965, 0.37320065734213564, -3.0892871220665623, 0.16361141486343758, -2.665232944887262, -1.669309881003975, 2.3434225523873833]

>  <energy>  (22) 
-242.81576233906918

>  <inter_energy>  (22) 
-290.8271925343945

>  <intra_energy>  (22) 
47.72119903285857

>  <rmsd>  (22) 
9.81168

>  <sdf_rank>  (22) 
0

$$$$

     RDKit          3D

 53 55  0  0  0  0  0  0  0  0999 V2000
  -34.3858   -5.4831  -12.7085 C   0  0  0  0  0  0  0  0  0  0  0  0
  -33.0532   -6.1184  -12.4446 C   0  0  0  0  0  0  0  0  0  0  0  0
  -32.5705   -5.6731   -7.5336 C   0  0  0  0  0  0  0  0  0  0  0  0
  -31.5644   -6.1066   -6.6896 C   0  0  0  0  0  0  0  0  0  0  0  0
  -30.4774   -6.8105   -7.1487 C   0  0  0  0  0  0  0  0  0  0  0  0
  -30.3339   -7.0844   -8.4930 C   0  0  0  0  0  0  0  0  0  0  0  0
  -31.3303   -6.6472   -9.3351 C   0  0  0  0  0  0  0  0  0  0  0  0
  -31.3931   -6.8228  -10.8089 C   0  0  2  0  0  0  0  0  0  0  0  0
  -30.2530   -6.0895  -11.4656 C   0  0  0  0  0  0  0  0  0  0  0  0
  -29.4722   -3.7394  -11.7298 C   0  0  0  0  0  0  0  0  0  0  0  0
  -27.9528   -1.7613  -12.9543 C   0  0  0  0  0  0  0  0  0  0  0  0
  -27.8185   -2.0252  -11.6025 C   0  0  0  0  0  0  0  0  0  0  0  0
  -28.5656   -3.0161  -10.9974 C   0  0  0  0  0  0  0  0  0  0  0  0
  -27.1339   -0.6688  -13.6182 C   0  0  1  0  0  0  0  0  0  0  0  0
  -25.9583   -1.2800  -14.3500 C   0  0  1  0  0  0  0  0  0  0  0  0
  -31.7962   -7.4433   -4.2525 C   0  0  0  0  0  0  0  0  0  0  0  0
  -32.4170   -6.6483  -13.3446 O   0  0  0  0  0  0  0  0  0  0  0  0
  -32.5893   -6.0722  -11.1388 N   0  0  0  0  0  0  0  0  0  0  0  0
  -33.3339   -5.5853   -9.9833 C   0  0  0  0  0  0  0  0  0  0  0  0
  -32.4176   -5.9520   -8.8702 C   0  0  0  0  0  0  0  0  0  0  0  0
  -29.4946   -6.6635  -12.2267 O   0  0  0  0  0  0  0  0  0  0  0  0
  -30.2750   -4.7467  -11.1426 N   0  0  0  0  0  0  0  0  0  0  0  0
  -29.6204   -3.4881  -13.0702 C   0  0  0  0  0  0  0  0  0  0  0  0
  -28.8639   -2.5035  -13.6753 C   0  0  0  0  0  0  0  0  0  0  0  0
  -27.9281    0.0303  -14.5793 O   0  0  0  0  0  0  0  0  0  0  0  0
  -26.3330   -1.6361  -15.5926 F   0  0  0  0  0  0  0  0  0  0  0  0
  -24.8683   -0.4609  -14.4549 F   0  0  0  0  0  0  0  0  0  0  0  0
  -25.5452   -2.4025  -13.7282 F   0  0  0  0  0  0  0  0  0  0  0  0
  -26.6420    0.3613  -12.6130 C   0  0  2  0  0  0  0  0  0  0  0  0
  -26.3140    1.5489  -13.2085 F   0  0  0  0  0  0  0  0  0  0  0  0
  -25.5680   -0.0863  -11.9356 F   0  0  0  0  0  0  0  0  0  0  0  0
  -27.5954    0.6230  -11.7043 F   0  0  0  0  0  0  0  0  0  0  0  0
  -31.6944   -5.8104   -4.9359 S   0  0  1  0  0  0  0  0  0  0  0  0
  -30.4407   -5.2380   -4.4757 O   0  0  0  0  0  0  0  0  0  0  0  0
  -32.9671   -5.1569   -4.7428 O   0  0  0  0  0  0  0  0  0  0  0  0
  -34.8764   -5.2492  -11.7522 H   0  0  0  0  0  0  0  0  0  0  0  0
  -34.2428   -4.5563  -13.2835 H   0  0  0  0  0  0  0  0  0  0  0  0
  -35.0158   -6.1778  -13.2835 H   0  0  0  0  0  0  0  0  0  0  0  0
  -33.4495   -5.1318   -7.1538 H   0  0  0  0  0  0  0  0  0  0  0  0
  -29.7142   -7.1591   -6.4373 H   0  0  0  0  0  0  0  0  0  0  0  0
  -29.4588   -7.6299   -8.8760 H   0  0  0  0  0  0  0  0  0  0  0  0
  -31.3691   -7.8782  -11.1179 H   0  0  0  0  0  0  0  0  0  0  0  0
  -27.1077   -1.4380  -11.0026 H   0  0  0  0  0  0  0  0  0  0  0  0
  -28.4335   -3.2260   -9.9257 H   0  0  0  0  0  0  0  0  0  0  0  0
  -31.7924   -7.3820   -3.1542 H   0  0  0  0  0  0  0  0  0  0  0  0
  -32.7261   -7.9246   -4.5897 H   0  0  0  0  0  0  0  0  0  0  0  0
  -30.9333   -8.0364   -4.5897 H   0  0  0  0  0  0  0  0  0  0  0  0
  -33.4904   -4.4976  -10.0343 H   0  0  0  0  0  0  0  0  0  0  0  0
  -34.3463   -6.0052   -9.8902 H   0  0  0  0  0  0  0  0  0  0  0  0
  -30.9348   -4.4519  -10.4086 H   0  0  0  0  0  0  0  0  0  0  0  0
  -30.3413   -4.0704  -13.6628 H   0  0  0  0  0  0  0  0  0  0  0  0
  -28.9905   -2.3082  -14.7504 H   0  0  0  0  0  0  0  0  0  0  0  0
  -28.5826    0.6063  -14.1103 H   0  0  0  0  0  0  0  0  0  0  0  0
  1  2  1  0
  2 17  2  0
  2 18  1  0
  3  4  2  0
  3 20  1  0
  4  5  1  0
  4 33  1  0
  5  6  2  0
  6  7  1  0
  7  8  1  0
  7 20  2  0
  8  9  1  0
  8 18  1  0
  9 21  2  0
  9 22  1  0
 10 13  2  0
 10 22  1  0
 10 23  1  0
 11 12  2  0
 11 14  1  0
 11 24  1  0
 12 13  1  0
 14 15  1  0
 14 25  1  6
 14 29  1  0
 15 26  1  6
 15 27  1  0
 15 28  1  0
 33 16  1  1
 18 19  1  0
 19 20  1  0
 23 24  2  0
 29 30  1  6
 29 31  1  0
 29 32  1  0
 33 34  2  0
 33 35  2  0
  1 36  1  0
  1 37  1  0
  1 38  1  0
  3 39  1  0
  5 40  1  0
  6 41  1  0
  8 42  1  1
 12 43  1  0
 13 44  1  0
 16 45  1  0
 16 46  1  0
 16 47  1  0
 19 48  1  0
 19 49  1  0
 22 50  1  0
 23 51  1  0
 24 52  1  0
 25 53  1  0
M  END
>  <filename_input>  (23) 
7OFK_VCH_docked.sdf

>  <pdb_id>  (23) 
7OFK_VCH

>  <pose_rank>  (23) 
22

>  <num_atoms_heavy>  (23) 
35

>  <num_torsions>  (23) 
6

>  <pose>  (23) 
[-30.253027671466253, -6.089514545498178, -11.465566416996028, -1.5966998840356523, -3.7031472407601536, 2.921342609518931, 3.5351390639487916, -2.564854913567055, -1.8292591363188324, 3.8916306360817194, -1.4862440652924216, 0.339451520914658]

>  <energy>  (23) 
-179.1123795921248

>  <inter_energy>  (23) 
-229.60377663124817

>  <intra_energy>  (23) 
45.98993890173583

>  <rmsd>  (23) 
10.0452

>  <sdf_rank>  (23) 
0

$$$$

     RDKit          3D

 53 55  0  0  0  0  0  0  0  0999 V2000
  -26.7039    7.7565  -19.3678 C   0  0  0  0  0  0  0  0  0  0  0  0
  -26.8958    8.3763  -18.0156 C   0  0  0  0  0  0  0  0  0  0  0  0
  -27.0062    4.4439  -15.0036 C   0  0  0  0  0  0  0  0  0  0  0  0
  -27.1200    4.3728  -13.6271 C   0  0  0  0  0  0  0  0  0  0  0  0
  -27.1958    5.4970  -12.8407 C   0  0  0  0  0  0  0  0  0  0  0  0
  -27.1941    6.7539  -13.4090 C   0  0  0  0  0  0  0  0  0  0  0  0
  -27.0885    6.8261  -14.7789 C   0  0  0  0  0  0  0  0  0  0  0  0
  -27.0666    8.0586  -15.6079 C   0  0  2  0  0  0  0  0  0  0  0  0
  -28.3761    8.7915  -15.4787 C   0  0  0  0  0  0  0  0  0  0  0  0
  -30.4981    9.0286  -16.7607 C   0  0  0  0  0  0  0  0  0  0  0  0
  -32.8886   10.3239  -17.3339 C   0  0  0  0  0  0  0  0  0  0  0  0
  -32.7719    8.9525  -17.4773 C   0  0  0  0  0  0  0  0  0  0  0  0
  -31.5871    8.3084  -17.1811 C   0  0  0  0  0  0  0  0  0  0  0  0
  -34.1905   11.0320  -17.6636 C   0  0  1  0  0  0  0  0  0  0  0  0
  -35.3368   10.3683  -16.9310 C   0  0  1  0  0  0  0  0  0  0  0  0
  -27.4667    1.6529  -14.1385 C   0  0  0  0  0  0  0  0  0  0  0  0
  -26.9105    9.5908  -17.8743 O   0  0  0  0  0  0  0  0  0  0  0  0
  -27.0527    7.5053  -16.9483 N   0  0  0  0  0  0  0  0  0  0  0  0
  -26.9148    6.0544  -17.0008 C   0  0  0  0  0  0  0  0  0  0  0  0
  -27.0048    5.7006  -15.5586 C   0  0  0  0  0  0  0  0  0  0  0  0
  -28.5335    9.6475  -14.6264 O   0  0  0  0  0  0  0  0  0  0  0  0
  -29.2583    8.4099  -16.4707 N   0  0  0  0  0  0  0  0  0  0  0  0
  -30.5956   10.3894  -16.6168 C   0  0  0  0  0  0  0  0  0  0  0  0
  -31.7854   11.0299  -16.9034 C   0  0  0  0  0  0  0  0  0  0  0  0
  -34.1341   12.3954  -17.2377 O   0  0  0  0  0  0  0  0  0  0  0  0
  -35.3529   10.7770  -15.6488 F   0  0  0  0  0  0  0  0  0  0  0  0
  -36.5701   10.6126  -17.4688 F   0  0  0  0  0  0  0  0  0  0  0  0
  -35.1761    9.0299  -16.9139 F   0  0  0  0  0  0  0  0  0  0  0  0
  -34.4666   11.0436  -19.1593 C   0  0  2  0  0  0  0  0  0  0  0  0
  -33.3620   10.7020  -19.8913 F   0  0  0  0  0  0  0  0  0  0  0  0
  -34.8934   12.2522  -19.5713 F   0  0  0  0  0  0  0  0  0  0  0  0
  -35.4331   10.1631  -19.4651 F   0  0  0  0  0  0  0  0  0  0  0  0
  -27.1038    2.7824  -12.8208 S   0  0  1  0  0  0  0  0  0  0  0  0
  -25.7448    2.5037  -12.3887 O   0  0  0  0  0  0  0  0  0  0  0  0
  -28.2243    2.7938  -11.9106 O   0  0  0  0  0  0  0  0  0  0  0  0
  -26.3804    6.7117  -19.2497 H   0  0  0  0  0  0  0  0  0  0  0  0
  -27.6532    7.7859  -19.9227 H   0  0  0  0  0  0  0  0  0  0  0  0
  -25.9373    8.3172  -19.9227 H   0  0  0  0  0  0  0  0  0  0  0  0
  -26.9210    3.5390  -15.6232 H   0  0  0  0  0  0  0  0  0  0  0  0
  -27.2584    5.3936  -11.7474 H   0  0  0  0  0  0  0  0  0  0  0  0
  -27.2740    7.6612  -12.7922 H   0  0  0  0  0  0  0  0  0  0  0  0
  -26.2442    8.7400  -15.3442 H   0  0  0  0  0  0  0  0  0  0  0  0
  -33.6338    8.3682  -17.8316 H   0  0  0  0  0  0  0  0  0  0  0  0
  -31.5164    7.2154  -17.2825 H   0  0  0  0  0  0  0  0  0  0  0  0
  -27.7775    0.6855  -13.7171 H   0  0  0  0  0  0  0  0  0  0  0  0
  -28.2790    2.0610  -14.7579 H   0  0  0  0  0  0  0  0  0  0  0  0
  -26.5688    1.5115  -14.7579 H   0  0  0  0  0  0  0  0  0  0  0  0
  -27.7283    5.5933  -17.5801 H   0  0  0  0  0  0  0  0  0  0  0  0
  -25.9946    5.7070  -17.4933 H   0  0  0  0  0  0  0  0  0  0  0  0
  -28.9901    7.6026  -17.0514 H   0  0  0  0  0  0  0  0  0  0  0  0
  -29.7269   10.9701  -16.2733 H   0  0  0  0  0  0  0  0  0  0  0  0
  -31.8539   12.1215  -16.7862 H   0  0  0  0  0  0  0  0  0  0  0  0
  -34.1325   12.4322  -16.2484 H   0  0  0  0  0  0  0  0  0  0  0  0
  1  2  1  0
  2 17  2  0
  2 18  1  0
  3  4  2  0
  3 20  1  0
  4  5  1  0
  4 33  1  0
  5  6  2  0
  6  7  1  0
  7  8  1  0
  7 20  2  0
  8  9  1  0
  8 18  1  0
  9 21  2  0
  9 22  1  0
 10 13  2  0
 10 22  1  0
 10 23  1  0
 11 12  2  0
 11 14  1  0
 11 24  1  0
 12 13  1  0
 14 15  1  0
 14 25  1  1
 14 29  1  0
 15 26  1  1
 15 27  1  0
 15 28  1  0
 33 16  1  6
 18 19  1  0
 19 20  1  0
 23 24  2  0
 29 30  1  6
 29 31  1  0
 29 32  1  0
 33 34  2  0
 33 35  2  0
  1 36  1  0
  1 37  1  0
  1 38  1  0
  3 39  1  0
  5 40  1  0
  6 41  1  0
  8 42  1  1
 12 43  1  0
 13 44  1  0
 16 45  1  0
 16 46  1  0
 16 47  1  0
 19 48  1  0
 19 49  1  0
 22 50  1  0
 23 51  1  0
 24 52  1  0
 25 53  1  0
M  END
>  <filename_input>  (24) 
7OFK_VCH_docked.sdf

>  <pdb_id>  (24) 
7OFK_VCH

>  <pose_rank>  (24) 
23

>  <num_atoms_heavy>  (24) 
35

>  <num_torsions>  (24) 
6

>  <pose>  (24) 
[-28.37614798943138, 8.791464301871576, -15.478689344079594, 0.3211890622798399, -0.3735487718104186, 1.492865151478321, -3.357523696282544, 1.3827898660134645, -2.3073975675529255, 3.0512148433810604, -1.6207726759251153, 2.871494993900966]

>  <energy>  (24) 
-193.64529424064818

>  <inter_energy>  (24) 
-281.60989848636166

>  <intra_energy>  (24) 
92.01358725414178

>  <rmsd>  (24) 
7.94756

>  <sdf_rank>  (24) 
0

$$$$

     RDKit          3D

 53 55  0  0  0  0  0  0  0  0999 V2000
  -29.8355    5.0297  -18.7792 C   0  0  0  0  0  0  0  0  0  0  0  0
  -29.6405    5.8383  -17.5312 C   0  0  0  0  0  0  0  0  0  0  0  0
  -25.5881    8.4970  -18.5597 C   0  0  0  0  0  0  0  0  0  0  0  0
  -24.9346    9.4593  -17.8119 C   0  0  0  0  0  0  0  0  0  0  0  0
  -25.3883    9.8596  -16.5782 C   0  0  0  0  0  0  0  0  0  0  0  0
  -26.5102    9.2824  -16.0206 C   0  0  0  0  0  0  0  0  0  0  0  0
  -27.1573    8.3194  -16.7603 C   0  0  0  0  0  0  0  0  0  0  0  0
  -28.3753    7.5638  -16.3697 C   0  0  2  0  0  0  0  0  0  0  0  0
  -28.0902    6.7146  -15.1588 C   0  0  0  0  0  0  0  0  0  0  0  0
  -27.2539    4.4221  -14.6618 C   0  0  0  0  0  0  0  0  0  0  0  0
  -26.8843    2.2280  -12.9972 C   0  0  0  0  0  0  0  0  0  0  0  0
  -25.8022    2.9376  -13.4876 C   0  0  0  0  0  0  0  0  0  0  0  0
  -25.9873    4.0347  -14.3052 C   0  0  0  0  0  0  0  0  0  0  0  0
  -26.6800    1.0194  -12.1014 C   0  0  1  0  0  0  0  0  0  0  0  0
  -25.2204    0.9051  -11.7169 C   0  0  1  0  0  0  0  0  0  0  0  0
  -23.2250    9.4224  -20.0154 C   0  0  0  0  0  0  0  0  0  0  0  0
  -30.4459    5.7856  -16.6125 O   0  0  0  0  0  0  0  0  0  0  0  0
  -28.5101    6.6394  -17.4790 N   0  0  0  0  0  0  0  0  0  0  0  0
  -27.5724    6.8680  -18.5722 C   0  0  0  0  0  0  0  0  0  0  0  0
  -26.7046    7.9295  -17.9951 C   0  0  0  0  0  0  0  0  0  0  0  0
  -28.4429    7.0692  -14.0480 O   0  0  0  0  0  0  0  0  0  0  0  0
  -27.4858    5.5256  -15.5175 N   0  0  0  0  0  0  0  0  0  0  0  0
  -28.3375    3.7274  -14.1874 C   0  0  0  0  0  0  0  0  0  0  0  0
  -28.1499    2.6368  -13.3607 C   0  0  0  0  0  0  0  0  0  0  0  0
  -27.4366    1.1623  -10.8971 O   0  0  0  0  0  0  0  0  0  0  0  0
  -24.8289    2.0268  -11.0846 F   0  0  0  0  0  0  0  0  0  0  0  0
  -24.9288   -0.1597  -10.9099 F   0  0  0  0  0  0  0  0  0  0  0  0
  -24.4493    0.7851  -12.8161 F   0  0  0  0  0  0  0  0  0  0  0  0
  -27.1439   -0.2661  -12.7691 C   0  0  2  0  0  0  0  0  0  0  0  0
  -28.2482   -0.0715  -13.5536 F   0  0  0  0  0  0  0  0  0  0  0  0
  -27.4296   -1.2172  -11.8601 F   0  0  0  0  0  0  0  0  0  0  0  0
  -26.1774   -0.7596  -13.5600 F   0  0  0  0  0  0  0  0  0  0  0  0
  -23.4915   10.2668  -18.4793 S   0  0  1  0  0  0  0  0  0  0  0  0
  -23.8461   11.6372  -18.8073 O   0  0  0  0  0  0  0  0  0  0  0  0
  -22.4084    9.9348  -17.5844 O   0  0  0  0  0  0  0  0  0  0  0  0
  -30.0856    3.9931  -18.5091 H   0  0  0  0  0  0  0  0  0  0  0  0
  -30.6551    5.4620  -19.3719 H   0  0  0  0  0  0  0  0  0  0  0  0
  -28.9089    5.0408  -19.3719 H   0  0  0  0  0  0  0  0  0  0  0  0
  -25.2317    8.2006  -19.5573 H   0  0  0  0  0  0  0  0  0  0  0  0
  -24.8517   10.6479  -16.0300 H   0  0  0  0  0  0  0  0  0  0  0  0
  -26.8726    9.5798  -15.0255 H   0  0  0  0  0  0  0  0  0  0  0  0
  -29.2366    8.2148  -16.1593 H   0  0  0  0  0  0  0  0  0  0  0  0
  -24.7818    2.6237  -13.2227 H   0  0  0  0  0  0  0  0  0  0  0  0
  -25.1171    4.5992  -14.6715 H   0  0  0  0  0  0  0  0  0  0  0  0
  -22.8994    8.3909  -19.8152 H   0  0  0  0  0  0  0  0  0  0  0  0
  -24.1616    9.4059  -20.5921 H   0  0  0  0  0  0  0  0  0  0  0  0
  -22.4486    9.9465  -20.5921 H   0  0  0  0  0  0  0  0  0  0  0  0
  -26.9968    5.9600  -18.8055 H   0  0  0  0  0  0  0  0  0  0  0  0
  -28.0491    7.1441  -19.5243 H   0  0  0  0  0  0  0  0  0  0  0  0
  -27.1761    5.4336  -16.4956 H   0  0  0  0  0  0  0  0  0  0  0  0
  -29.3553    4.0387  -14.4651 H   0  0  0  0  0  0  0  0  0  0  0  0
  -29.0248    2.0851  -12.9862 H   0  0  0  0  0  0  0  0  0  0  0  0
  -26.8386    1.0493  -10.1163 H   0  0  0  0  0  0  0  0  0  0  0  0
  1  2  1  0
  2 17  2  0
  2 18  1  0
  3  4  2  0
  3 20  1  0
  4  5  1  0
  4 33  1  0
  5  6  2  0
  6  7  1  0
  7  8  1  0
  7 20  2  0
  8  9  1  0
  8 18  1  0
  9 21  2  0
  9 22  1  0
 10 13  2  0
 10 22  1  0
 10 23  1  0
 11 12  2  0
 11 14  1  0
 11 24  1  0
 12 13  1  0
 14 15  1  0
 14 25  1  1
 14 29  1  0
 15 26  1  1
 15 27  1  0
 15 28  1  0
 33 16  1  6
 18 19  1  0
 19 20  1  0
 23 24  2  0
 29 30  1  6
 29 31  1  0
 29 32  1  0
 33 34  2  0
 33 35  2  0
  1 36  1  0
  1 37  1  0
  1 38  1  0
  3 39  1  0
  5 40  1  0
  6 41  1  0
  8 42  1  1
 12 43  1  0
 13 44  1  0
 16 45  1  0
 16 46  1  0
 16 47  1  0
 19 48  1  0
 19 49  1  0
 22 50  1  0
 23 51  1  0
 24 52  1  0
 25 53  1  0
M  END
>  <filename_input>  (25) 
7OFK_VCH_docked.sdf

>  <pdb_id>  (25) 
7OFK_VCH

>  <pose_rank>  (25) 
24

>  <num_atoms_heavy>  (25) 
35

>  <num_torsions>  (25) 
6

>  <pose>  (25) 
[-28.09019214977671, 6.71464945793461, -15.158755722808683, 1.4584384288757033, 1.4353121605128734, 2.7350527726771987, -3.184649750107446, 1.618638485085761, -1.7532033270104392, 2.285181479673235, -1.9765832969969497, 2.501298410291039]

>  <energy>  (25) 
-556.8154993348579

>  <inter_energy>  (25) 
-631.6898932122941

>  <intra_energy>  (25) 
80.87788930600712

>  <rmsd>  (25) 
9.28952

>  <sdf_rank>  (25) 
0

$$$$

     RDKit          3D

 53 55  0  0  0  0  0  0  0  0999 V2000
  -27.5340    0.2010   -9.1270 C   0  0  0  0  0  0  0  0  0  0  0  0
  -27.9460    0.9270  -10.3730 C   0  0  0  0  0  0  0  0  0  0  0  0
  -26.2670   -2.0270  -13.9790 C   0  0  0  0  0  0  0  0  0  0  0  0
  -26.3760   -1.9140  -15.3530 C   0  0  0  0  0  0  0  0  0  0  0  0
  -27.0560   -0.8800  -15.9500 C   0  0  0  0  0  0  0  0  0  0  0  0
  -27.6340    0.1140  -15.1880 C   0  0  0  0  0  0  0  0  0  0  0  0
  -27.5200    0.0070  -13.8210 C   0  0  0  0  0  0  0  0  0  0  0  0
  -28.0560    0.9490  -12.8050 C   0  0  2  0  0  0  0  0  0  0  0  0
  -27.3930    2.2940  -12.9470 C   0  0  0  0  0  0  0  0  0  0  0  0
  -27.8190    4.4530  -14.1130 C   0  0  0  0  0  0  0  0  0  0  0  0
  -27.1550    6.9750  -15.0720 C   0  0  0  0  0  0  0  0  0  0  0  0
  -26.3320    6.3170  -14.1750 C   0  0  0  0  0  0  0  0  0  0  0  0
  -26.6570    5.0590  -13.7080 C   0  0  0  0  0  0  0  0  0  0  0  0
  -26.7990    8.3600  -15.5820 C   0  0  1  0  0  0  0  0  0  0  0  0
  -27.9190    9.3280  -15.2660 C   0  0  1  0  0  0  0  0  0  0  0  0
  -24.1040   -2.4950  -16.8630 C   0  0  0  0  0  0  0  0  0  0  0  0
  -28.6120    1.9510  -10.3160 O   0  0  0  0  0  0  0  0  0  0  0  0
  -27.5350    0.3780  -11.5780 N   0  0  0  0  0  0  0  0  0  0  0  0
  -26.8590   -0.9030  -11.7480 C   0  0  0  0  0  0  0  0  0  0  0  0
  -26.8470   -1.0320  -13.2300 C   0  0  0  0  0  0  0  0  0  0  0  0
  -26.2600    2.4800  -12.5400 O   0  0  0  0  0  0  0  0  0  0  0  0
  -28.2010    3.1750  -13.6390 N   0  0  0  0  0  0  0  0  0  0  0  0
  -28.6480    5.0930  -14.9990 C   0  0  0  0  0  0  0  0  0  0  0  0
  -28.3150    6.3470  -15.4730 C   0  0  0  0  0  0  0  0  0  0  0  0
  -25.6170    8.8370  -14.9350 O   0  0  0  0  0  0  0  0  0  0  0  0
  -27.5290   10.5830  -15.5560 F   0  0  0  0  0  0  0  0  0  0  0  0
  -29.0860    9.0820  -15.9350 F   0  0  0  0  0  0  0  0  0  0  0  0
  -28.2100    9.3020  -13.9500 F   0  0  0  0  0  0  0  0  0  0  0  0
  -26.5190    8.3590  -17.0770 C   0  0  2  0  0  0  0  0  0  0  0  0
  -26.1690    9.5990  -17.5380 F   0  0  0  0  0  0  0  0  0  0  0  0
  -27.5860    7.9300  -17.7770 F   0  0  0  0  0  0  0  0  0  0  0  0
  -25.5040    7.5280  -17.3640 F   0  0  0  0  0  0  0  0  0  0  0  0
  -25.6750   -3.1750  -16.4010 S   0  0  1  0  0  0  0  0  0  0  0  0
  -25.4040   -4.3470  -15.5860 O   0  0  0  0  0  0  0  0  0  0  0  0
  -26.5140   -3.2190  -17.5750 O   0  0  0  0  0  0  0  0  0  0  0  0
  -27.8585    0.7729   -8.2451 H   0  0  0  0  0  0  0  0  0  0  0  0
  -28.0018   -0.7945   -9.1110 H   0  0  0  0  0  0  0  0  0  0  0  0
  -26.4395    0.0921   -9.1110 H   0  0  0  0  0  0  0  0  0  0  0  0
  -25.7419   -2.8717  -13.5091 H   0  0  0  0  0  0  0  0  0  0  0  0
  -27.1403   -0.8445  -17.0462 H   0  0  0  0  0  0  0  0  0  0  0  0
  -28.1643    0.9576  -15.6541 H   0  0  0  0  0  0  0  0  0  0  0  0
  -29.1468    1.0758  -12.8689 H   0  0  0  0  0  0  0  0  0  0  0  0
  -25.4072    6.8023  -13.8297 H   0  0  0  0  0  0  0  0  0  0  0  0
  -25.9827    4.5416  -13.0097 H   0  0  0  0  0  0  0  0  0  0  0  0
  -23.5311   -2.2470  -15.9573 H   0  0  0  0  0  0  0  0  0  0  0  0
  -23.5463   -3.2323  -17.4592 H   0  0  0  0  0  0  0  0  0  0  0  0
  -24.2599   -1.5838  -17.4592 H   0  0  0  0  0  0  0  0  0  0  0  0
  -25.8387   -0.8774  -11.3378 H   0  0  0  0  0  0  0  0  0  0  0  0
  -27.3446   -1.7412  -11.2268 H   0  0  0  0  0  0  0  0  0  0  0  0
  -29.1683    2.8752  -13.8270 H   0  0  0  0  0  0  0  0  0  0  0  0
  -29.5774    4.6078  -15.3318 H   0  0  0  0  0  0  0  0  0  0  0  0
  -28.9865    6.8530  -16.1822 H   0  0  0  0  0  0  0  0  0  0  0  0
  -25.7359    8.7890  -13.9533 H   0  0  0  0  0  0  0  0  0  0  0  0
  1  2  1  0
  2 17  2  0
  2 18  1  0
  3  4  2  0
  3 20  1  0
  4  5  1  0
  4 33  1  0
  5  6  2  0
  6  7  1  0
  7  8  1  0
  7 20  2  0
  8  9  1  0
  8 18  1  0
  9 21  2  0
  9 22  1  0
 10 13  2  0
 10 22  1  0
 10 23  1  0
 11 12  2  0
 11 14  1  0
 11 24  1  0
 12 13  1  0
 14 15  1  0
 14 25  1  1
 14 29  1  0
 15 26  1  6
 15 27  1  0
 15 28  1  0
 33 16  1  6
 18 19  1  0
 19 20  1  0
 23 24  2  0
 29 30  1  6
 29 31  1  0
 29 32  1  0
 33 34  2  0
 33 35  2  0
  1 36  1  0
  1 37  1  0
  1 38  1  0
  3 39  1  0
  5 40  1  0
  6 41  1  0
  8 42  1  1
 12 43  1  0
 13 44  1  0
 16 45  1  0
 16 46  1  0
 16 47  1  0
 19 48  1  0
 19 49  1  0
 22 50  1  0
 23 51  1  0
 24 52  1  0
 25 53  1  0
M  END
>  <filename_input>  (26) 
7OFK_VCH_docked.sdf

>  <pdb_id>  (26) 
7OFK_VCH

>  <pose_rank>  (26) 
25

>  <num_atoms_heavy>  (26) 
35

>  <num_torsions>  (26) 
6

>  <pose>  (26) 
[-27.393, 2.294, -12.947, 1e-06, 1e-06, 1e-06, 0.0, 0.0, 0.0, 0.0, 0.0, 0.0]

>  <energy>  (26) 
-1085.4653403974733

>  <inter_energy>  (26) 
-1142.215910945865

>  <intra_energy>  (26) 
49.42005044395387

>  <rmsd>  (26) 
0.0

>  <sdf_rank>  (26) 
0

$$$$
