
     RDKit          3D

 33 35  0  0  0  0  0  0  0  0999 V2000
   12.1580   23.7365   33.8740 O   0  0  0  0  0  0  0  0  0  0  0  0
   11.0185   24.1020   33.6085 C   0  0  0  0  0  0  0  0  0  0  0  0
   10.7282   25.4660   33.4797 N   0  0  0  0  0  0  0  0  0  0  0  0
    9.4685   25.9865   33.1374 C   0  0  0  0  0  0  0  0  0  0  0  0
    9.2937   27.3761   33.0666 N   0  0  0  0  0  0  0  0  0  0  0  0
    8.3936   25.1204   32.8764 N   0  0  0  0  0  0  0  0  0  0  0  0
    8.6521   23.7313   33.0030 C   0  0  0  0  0  0  0  0  0  0  0  0
    9.8862   23.2333   33.3839 C   0  0  0  0  0  0  0  0  0  0  0  0
    9.8582   21.8209   33.4217 N   0  0  0  0  0  0  0  0  0  0  0  0
    8.5030   21.4606   33.0523 C   0  0  0  0  0  0  0  0  0  0  0  0
    7.9987   20.3479   32.9463 O   0  0  0  0  0  0  0  0  0  0  0  0
    7.7395   22.6879   32.8383 N   0  0  0  0  0  0  0  0  0  0  0  0
    6.3593   22.7568   32.3391 C   0  0  2  0  0  0  0  0  0  0  0  0
    6.6917   22.8960   30.7836 O   0  0  0  0  0  0  0  0  0  0  0  0
    5.6553   23.8355   32.6391 C   0  0  0  0  0  0  0  0  0  0  0  0
    4.7939   24.0802   31.3837 C   0  0  2  0  0  0  0  0  0  0  0  0
    3.5688   23.3857   31.4415 O   0  0  0  0  0  0  0  0  0  0  0  0
    5.6395   23.5462   30.2176 C   0  0  1  0  0  0  0  0  0  0  0  0
    6.2225   24.6553   29.3198 C   0  0  0  0  0  0  0  0  0  0  0  0
    6.6281   25.7669   30.1198 O   0  0  0  0  0  0  0  0  0  0  0  0
   11.4925   26.1356   33.6480 H   0  0  0  0  0  0  0  0  0  0  0  0
    8.3743   27.7674   32.8165 H   0  0  0  0  0  0  0  0  0  0  0  0
   10.0847   28.0054   33.2646 H   0  0  0  0  0  0  0  0  0  0  0  0
   10.6327   21.1850   33.6601 H   0  0  0  0  0  0  0  0  0  0  0  0
    5.7605   21.9238   32.7359 H   0  0  0  0  0  0  0  0  0  0  0  0
    5.0210   23.6559   33.5196 H   0  0  0  0  0  0  0  0  0  0  0  0
    6.2895   24.6980   32.8920 H   0  0  0  0  0  0  0  0  0  0  0  0
    4.5383   25.1452   31.2813 H   0  0  0  0  0  0  0  0  0  0  0  0
    3.3153   23.2419   32.3877 H   0  0  0  0  0  0  0  0  0  0  0  0
    4.9970   22.9168   29.5843 H   0  0  0  0  0  0  0  0  0  0  0  0
    7.0928   24.2624   28.7737 H   0  0  0  0  0  0  0  0  0  0  0  0
    5.4529   24.9849   28.6064 H   0  0  0  0  0  0  0  0  0  0  0  0
    6.5427   25.5327   31.0779 H   0  0  0  0  0  0  0  0  0  0  0  0
  1  2  2  0
  2  3  1  0
  2  8  1  0
  3  4  1  0
  4  5  1  0
  4  6  2  0
  6  7  1  0
  7  8  2  0
  7 12  1  0
  8  9  1  0
  9 10  1  0
 10 11  2  0
 10 12  1  0
 13 12  1  0
 13 14  1  0
 13 15  1  0
 14 18  1  0
 15 16  1  0
 16 17  1  0
 16 18  1  0
 18 19  1  0
 19 20  1  0
  3 21  1  0
  5 22  1  0
  5 23  1  0
  9 24  1  0
 13 25  1  6
 15 26  1  0
 15 27  1  0
 16 28  1  6
 17 29  1  0
 18 30  1  6
 19 31  1  0
 19 32  1  0
 20 33  1  0
M  END
>  <filename_input>  (1) 
7OLI_8HG_docked.sdf

>  <pdb_id>  (1) 
7OLI_8HG

>  <pose_rank>  (1) 
0

>  <num_atoms_heavy>  (1) 
20

>  <num_torsions>  (1) 
2

>  <pose>  (1) 
[12.158049399509716, 23.73651009078084, 33.874041571116216, -3.6555263169050045, -4.760949723668425, 1.4801546253530378, 6.568545842386531, -0.13685222828420335]

>  <energy>  (1) 
-1328.6301338820779

>  <inter_energy>  (1) 
-1324.6152900514846

>  <intra_energy>  (1) 
16.453230156515286

>  <rmsd>  (1) 
0.376279

>  <sdf_rank>  (1) 
0

$$$$

     RDKit          3D

 33 35  0  0  0  0  0  0  0  0999 V2000
   11.9062   23.4854   33.9850 O   0  0  0  0  0  0  0  0  0  0  0  0
   10.8204   23.9664   33.6806 C   0  0  0  0  0  0  0  0  0  0  0  0
   10.6698   25.3547   33.5745 N   0  0  0  0  0  0  0  0  0  0  0  0
    9.4832   26.0033   33.1924 C   0  0  0  0  0  0  0  0  0  0  0  0
    9.4473   27.4046   33.1497 N   0  0  0  0  0  0  0  0  0  0  0  0
    8.3422   25.2524   32.8638 N   0  0  0  0  0  0  0  0  0  0  0  0
    8.4588   23.8423   32.9658 C   0  0  0  0  0  0  0  0  0  0  0  0
    9.6205   23.2178   33.3859 C   0  0  0  0  0  0  0  0  0  0  0  0
    9.4541   21.8144   33.3864 N   0  0  0  0  0  0  0  0  0  0  0  0
    8.0882   21.5966   32.9506 C   0  0  0  0  0  0  0  0  0  0  0  0
    7.4837   20.5412   32.7948 O   0  0  0  0  0  0  0  0  0  0  0  0
    7.4576   22.8971   32.7357 N   0  0  0  0  0  0  0  0  0  0  0  0
    6.1144   23.1115   32.1802 C   0  0  2  0  0  0  0  0  0  0  0  0
    5.5617   24.0972   33.3083 O   0  0  0  0  0  0  0  0  0  0  0  0
    5.2822   22.0836   32.1825 C   0  0  0  0  0  0  0  0  0  0  0  0
    3.9048   22.7191   32.4598 C   0  0  2  0  0  0  0  0  0  0  0  0
    3.2574   23.1135   31.2715 O   0  0  0  0  0  0  0  0  0  0  0  0
    4.2089   23.9546   33.3206 C   0  0  1  0  0  0  0  0  0  0  0  0
    3.7834   23.7997   34.7941 C   0  0  0  0  0  0  0  0  0  0  0  0
    3.0511   22.5853   34.9648 O   0  0  0  0  0  0  0  0  0  0  0  0
   11.4872   25.9424   33.7922 H   0  0  0  0  0  0  0  0  0  0  0  0
    8.5823   27.8893   32.8709 H   0  0  0  0  0  0  0  0  0  0  0  0
   10.2859   27.9490   33.3973 H   0  0  0  0  0  0  0  0  0  0  0  0
   10.1518   21.1008   33.6412 H   0  0  0  0  0  0  0  0  0  0  0  0
    6.1740   23.4092   31.1230 H   0  0  0  0  0  0  0  0  0  0  0  0
    5.2884   21.5735   31.2080 H   0  0  0  0  0  0  0  0  0  0  0  0
    5.5540   21.3207   32.9269 H   0  0  0  0  0  0  0  0  0  0  0  0
    3.2312   22.0027   32.9529 H   0  0  0  0  0  0  0  0  0  0  0  0
    2.4339   23.6153   31.4953 H   0  0  0  0  0  0  0  0  0  0  0  0
    3.6529   24.8092   32.9078 H   0  0  0  0  0  0  0  0  0  0  0  0
    4.6794   23.7778   35.4318 H   0  0  0  0  0  0  0  0  0  0  0  0
    3.1453   24.6497   35.0774 H   0  0  0  0  0  0  0  0  0  0  0  0
    2.9395   22.4003   35.9309 H   0  0  0  0  0  0  0  0  0  0  0  0
  1  2  2  0
  2  3  1  0
  2  8  1  0
  3  4  1  0
  4  5  1  0
  4  6  2  0
  6  7  1  0
  7  8  2  0
  7 12  1  0
  8  9  1  0
  9 10  1  0
 10 11  2  0
 10 12  1  0
 13 12  1  0
 13 14  1  0
 13 15  1  0
 14 18  1  0
 15 16  1  0
 16 17  1  0
 16 18  1  0
 18 19  1  0
 19 20  1  0
  3 21  1  0
  5 22  1  0
  5 23  1  0
  9 24  1  0
 13 25  1  6
 15 26  1  0
 15 27  1  0
 16 28  1  1
 17 29  1  0
 18 30  1  6
 19 31  1  0
 19 32  1  0
 20 33  1  0
M  END
>  <filename_input>  (2) 
7OLI_8HG_docked.sdf

>  <pdb_id>  (2) 
7OLI_8HG

>  <pose_rank>  (2) 
1

>  <num_atoms_heavy>  (2) 
20

>  <num_torsions>  (2) 
2

>  <pose>  (2) 
[11.906171121545286, 23.48544428561469, 33.984992092396034, -3.5417680404159815, -1.2673680971367844, 4.842459419945411, -2.1328302000443085, -0.9295198621844672]

>  <energy>  (2) 
-1128.8329264225356

>  <inter_energy>  (2) 
-1131.7054115599558

>  <intra_energy>  (2) 
27.571992203191023

>  <rmsd>  (2) 
2.35697

>  <sdf_rank>  (2) 
0

$$$$

     RDKit          3D

 33 35  0  0  0  0  0  0  0  0999 V2000
    9.2327   27.1290   32.0290 O   0  0  0  0  0  0  0  0  0  0  0  0
    9.4244   25.9874   32.4323 C   0  0  0  0  0  0  0  0  0  0  0  0
   10.5095   25.7103   33.2733 N   0  0  0  0  0  0  0  0  0  0  0  0
   10.7931   24.4486   33.8231 C   0  0  0  0  0  0  0  0  0  0  0  0
   11.9282   24.2887   34.6310 N   0  0  0  0  0  0  0  0  0  0  0  0
    9.9495   23.3569   33.5581 N   0  0  0  0  0  0  0  0  0  0  0  0
    8.8430   23.6018   32.7048 C   0  0  0  0  0  0  0  0  0  0  0  0
    8.5997   24.8392   32.1343 C   0  0  0  0  0  0  0  0  0  0  0  0
    7.4326   24.7953   31.3388 N   0  0  0  0  0  0  0  0  0  0  0  0
    6.9629   23.4266   31.4339 C   0  0  0  0  0  0  0  0  0  0  0  0
    5.9817   22.9063   30.9140 O   0  0  0  0  0  0  0  0  0  0  0  0
    7.8983   22.6726   32.2655 N   0  0  0  0  0  0  0  0  0  0  0  0
    7.7203   21.2808   32.7013 C   0  0  2  0  0  0  0  0  0  0  0  0
    6.1318   21.2993   32.8621 O   0  0  0  0  0  0  0  0  0  0  0  0
    8.1838   20.9515   33.8953 C   0  0  0  0  0  0  0  0  0  0  0  0
    7.1553   19.9332   34.4274 C   0  0  2  0  0  0  0  0  0  0  0  0
    7.4754   18.6138   34.0486 O   0  0  0  0  0  0  0  0  0  0  0  0
    5.8231   20.3494   33.7855 C   0  0  1  0  0  0  0  0  0  0  0  0
    4.8328   20.9884   34.7789 C   0  0  0  0  0  0  0  0  0  0  0  0
    3.7345   21.5640   34.0699 O   0  0  0  0  0  0  0  0  0  0  0  0
   11.1451   26.4869   33.5054 H   0  0  0  0  0  0  0  0  0  0  0  0
   12.1447   23.3679   35.0386 H   0  0  0  0  0  0  0  0  0  0  0  0
   12.5454   25.0921   34.8167 H   0  0  0  0  0  0  0  0  0  0  0  0
    7.0076   25.5680   30.8066 H   0  0  0  0  0  0  0  0  0  0  0  0
    8.2294   20.5899   32.0133 H   0  0  0  0  0  0  0  0  0  0  0  0
    9.1811   20.4944   33.8151 H   0  0  0  0  0  0  0  0  0  0  0  0
    8.3005   21.8212   34.5587 H   0  0  0  0  0  0  0  0  0  0  0  0
    7.1266   19.9382   35.5270 H   0  0  0  0  0  0  0  0  0  0  0  0
    7.6095   18.0611   34.8589 H   0  0  0  0  0  0  0  0  0  0  0  0
    5.3406   19.4497   33.3758 H   0  0  0  0  0  0  0  0  0  0  0  0
    4.4580   20.2167   35.4673 H   0  0  0  0  0  0  0  0  0  0  0  0
    5.3487   21.7761   35.3476 H   0  0  0  0  0  0  0  0  0  0  0  0
    3.0703   21.9120   34.7163 H   0  0  0  0  0  0  0  0  0  0  0  0
  1  2  2  0
  2  3  1  0
  2  8  1  0
  3  4  1  0
  4  5  1  0
  4  6  2  0
  6  7  1  0
  7  8  2  0
  7 12  1  0
  8  9  1  0
  9 10  1  0
 10 11  2  0
 10 12  1  0
 13 12  1  0
 13 14  1  0
 13 15  1  0
 14 18  1  0
 15 16  1  0
 16 17  1  0
 16 18  1  0
 18 19  1  0
 19 20  1  0
  3 21  1  0
  5 22  1  0
  5 23  1  0
  9 24  1  0
 13 25  1  6
 15 26  1  0
 15 27  1  0
 16 28  1  1
 17 29  1  0
 18 30  1  6
 19 31  1  0
 19 32  1  0
 20 33  1  0
M  END
>  <filename_input>  (3) 
7OLI_8HG_docked.sdf

>  <pdb_id>  (3) 
7OLI_8HG

>  <pose_rank>  (3) 
2

>  <num_atoms_heavy>  (3) 
20

>  <num_torsions>  (3) 
2

>  <pose>  (3) 
[9.232716401403176, 27.129042383781766, 32.02899011346408, 1.9001454960919983, 2.03158862478765, 0.6037611825989059, 7.573494070437474, -4.131606638332433]

>  <energy>  (3) 
-796.939070997877

>  <inter_energy>  (3) 
-814.4252585134471

>  <intra_energy>  (3) 
37.29760666126018

>  <rmsd>  (3) 
3.99774

>  <sdf_rank>  (3) 
0

$$$$

     RDKit          3D

 33 35  0  0  0  0  0  0  0  0999 V2000
    4.8341   22.2388   29.9813 O   0  0  0  0  0  0  0  0  0  0  0  0
    5.7452   22.8811   30.4914 C   0  0  0  0  0  0  0  0  0  0  0  0
    5.8491   24.2590   30.2635 N   0  0  0  0  0  0  0  0  0  0  0  0
    6.8275   25.0919   30.8325 C   0  0  0  0  0  0  0  0  0  0  0  0
    6.8461   26.4555   30.5053 N   0  0  0  0  0  0  0  0  0  0  0  0
    7.7820   24.5594   31.7151 N   0  0  0  0  0  0  0  0  0  0  0  0
    7.7085   23.1646   31.9639 C   0  0  0  0  0  0  0  0  0  0  0  0
    6.7668   22.3477   31.3626 C   0  0  0  0  0  0  0  0  0  0  0  0
    6.9230   21.0118   31.7964 N   0  0  0  0  0  0  0  0  0  0  0  0
    8.0508   21.0409   32.7076 C   0  0  0  0  0  0  0  0  0  0  0  0
    8.5629   20.1208   33.3360 O   0  0  0  0  0  0  0  0  0  0  0  0
    8.5665   22.4069   32.7630 N   0  0  0  0  0  0  0  0  0  0  0  0
    9.6311   22.8803   33.6581 C   0  0  2  0  0  0  0  0  0  0  0  0
    9.2092   24.4193   33.7117 O   0  0  0  0  0  0  0  0  0  0  0  0
   10.8679   22.8779   33.1894 C   0  0  0  0  0  0  0  0  0  0  0  0
   11.5056   24.1360   33.8127 C   0  0  2  0  0  0  0  0  0  0  0  0
   12.0865   23.8657   35.0682 O   0  0  0  0  0  0  0  0  0  0  0  0
   10.3412   25.1239   33.9807 C   0  0  1  0  0  0  0  0  0  0  0  0
   10.3859   26.3043   32.9904 C   0  0  0  0  0  0  0  0  0  0  0  0
    9.5144   27.3455   33.4336 O   0  0  0  0  0  0  0  0  0  0  0  0
    5.1591   24.6930   29.6338 H   0  0  0  0  0  0  0  0  0  0  0  0
    7.5592   27.0742   30.9171 H   0  0  0  0  0  0  0  0  0  0  0  0
    6.1467   26.8382   29.8532 H   0  0  0  0  0  0  0  0  0  0  0  0
    6.3583   20.1946   31.5243 H   0  0  0  0  0  0  0  0  0  0  0  0
    9.6835   22.2574   34.5632 H   0  0  0  0  0  0  0  0  0  0  0  0
   11.4038   21.9707   33.5050 H   0  0  0  0  0  0  0  0  0  0  0  0
   10.9039   22.8855   32.0900 H   0  0  0  0  0  0  0  0  0  0  0  0
   12.3152   24.5247   33.1774 H   0  0  0  0  0  0  0  0  0  0  0  0
   11.4687   24.1532   35.7864 H   0  0  0  0  0  0  0  0  0  0  0  0
   10.3896   25.5462   34.9952 H   0  0  0  0  0  0  0  0  0  0  0  0
   11.4141   26.6905   32.9298 H   0  0  0  0  0  0  0  0  0  0  0  0
   10.0595   25.9571   31.9989 H   0  0  0  0  0  0  0  0  0  0  0  0
    9.4990   27.3640   34.4233 H   0  0  0  0  0  0  0  0  0  0  0  0
  1  2  2  0
  2  3  1  0
  2  8  1  0
  3  4  1  0
  4  5  1  0
  4  6  2  0
  6  7  1  0
  7  8  2  0
  7 12  1  0
  8  9  1  0
  9 10  1  0
 10 11  2  0
 10 12  1  0
 13 12  1  0
 13 14  1  0
 13 15  1  0
 14 18  1  0
 15 16  1  0
 16 17  1  0
 16 18  1  0
 18 19  1  0
 19 20  1  0
  3 21  1  0
  5 22  1  0
  5 23  1  0
  9 24  1  0
 13 25  1  1
 15 26  1  0
 15 27  1  0
 16 28  1  6
 17 29  1  0
 18 30  1  1
 19 31  1  0
 19 32  1  0
 20 33  1  0
M  END
>  <filename_input>  (4) 
7OLI_8HG_docked.sdf

>  <pdb_id>  (4) 
7OLI_8HG

>  <pose_rank>  (4) 
3

>  <num_atoms_heavy>  (4) 
20

>  <num_torsions>  (4) 
2

>  <pose>  (4) 
[4.834118853418481, 22.23875049117342, 29.981307166805774, 0.2532441816717514, -3.3772141338379935, 0.6524100907604015, 5.474937689931716, 2.6128241308107762]

>  <energy>  (4) 
-687.4129833079239

>  <inter_energy>  (4) 
-703.1970319559022

>  <intra_energy>  (4) 
37.22354197957652

>  <rmsd>  (4) 
4.90222

>  <sdf_rank>  (4) 
0

$$$$

     RDKit          3D

 33 35  0  0  0  0  0  0  0  0999 V2000
    3.0638   20.4482   36.0898 O   0  0  0  0  0  0  0  0  0  0  0  0
    3.1983   21.2652   35.1858 C   0  0  0  0  0  0  0  0  0  0  0  0
    2.1446   22.1247   34.8505 N   0  0  0  0  0  0  0  0  0  0  0  0
    2.2097   23.1218   33.8624 C   0  0  0  0  0  0  0  0  0  0  0  0
    1.0760   23.9036   33.5973 N   0  0  0  0  0  0  0  0  0  0  0  0
    3.3987   23.3265   33.1428 N   0  0  0  0  0  0  0  0  0  0  0  0
    4.4850   22.4688   33.4539 C   0  0  0  0  0  0  0  0  0  0  0  0
    4.3939   21.4615   34.3989 C   0  0  0  0  0  0  0  0  0  0  0  0
    5.6229   20.7721   34.5057 N   0  0  0  0  0  0  0  0  0  0  0  0
    6.4976   21.4092   33.5403 C   0  0  0  0  0  0  0  0  0  0  0  0
    7.6667   21.1571   33.2695 O   0  0  0  0  0  0  0  0  0  0  0  0
    5.7426   22.4513   32.8482 N   0  0  0  0  0  0  0  0  0  0  0  0
    6.2984   23.4045   31.8780 C   0  0  2  0  0  0  0  0  0  0  0  0
    7.6747   23.7087   32.6281 O   0  0  0  0  0  0  0  0  0  0  0  0
    5.7003   24.5786   31.7652 C   0  0  0  0  0  0  0  0  0  0  0  0
    6.8580   25.5643   31.5082 C   0  0  2  0  0  0  0  0  0  0  0  0
    7.1473   25.6909   30.1344 O   0  0  0  0  0  0  0  0  0  0  0  0
    8.0632   24.9529   32.2387 C   0  0  1  0  0  0  0  0  0  0  0  0
    8.4666   25.7207   33.5129 C   0  0  0  0  0  0  0  0  0  0  0  0
    9.7842   26.2520   33.3652 O   0  0  0  0  0  0  0  0  0  0  0  0
    1.2586   22.0185   35.3650 H   0  0  0  0  0  0  0  0  0  0  0  0
    1.1136   24.6369   32.8750 H   0  0  0  0  0  0  0  0  0  0  0  0
    0.2058   23.7445   34.1248 H   0  0  0  0  0  0  0  0  0  0  0  0
    5.8485   19.9871   35.1332 H   0  0  0  0  0  0  0  0  0  0  0  0
    6.2678   22.9863   30.8610 H   0  0  0  0  0  0  0  0  0  0  0  0
    4.9931   24.5779   30.9226 H   0  0  0  0  0  0  0  0  0  0  0  0
    5.1112   24.8409   32.6564 H   0  0  0  0  0  0  0  0  0  0  0  0
    6.6034   26.5741   31.8624 H   0  0  0  0  0  0  0  0  0  0  0  0
    8.0483   26.0853   30.0219 H   0  0  0  0  0  0  0  0  0  0  0  0
    8.9269   24.9726   31.5578 H   0  0  0  0  0  0  0  0  0  0  0  0
    7.7580   26.5450   33.6815 H   0  0  0  0  0  0  0  0  0  0  0  0
    8.4483   25.0326   34.3709 H   0  0  0  0  0  0  0  0  0  0  0  0
   10.1782   26.4108   34.2594 H   0  0  0  0  0  0  0  0  0  0  0  0
  1  2  2  0
  2  3  1  0
  2  8  1  0
  3  4  1  0
  4  5  1  0
  4  6  2  0
  6  7  1  0
  7  8  2  0
  7 12  1  0
  8  9  1  0
  9 10  1  0
 10 11  2  0
 10 12  1  0
 13 12  1  0
 13 14  1  0
 13 15  1  0
 14 18  1  0
 15 16  1  0
 16 17  1  0
 16 18  1  0
 18 19  1  0
 19 20  1  0
  3 21  1  0
  5 22  1  0
  5 23  1  0
  9 24  1  0
 13 25  1  6
 15 26  1  0
 15 27  1  0
 16 28  1  1
 17 29  1  0
 18 30  1  6
 19 31  1  0
 19 32  1  0
 20 33  1  0
M  END
>  <filename_input>  (5) 
7OLI_8HG_docked.sdf

>  <pdb_id>  (5) 
7OLI_8HG

>  <pose_rank>  (5) 
4

>  <num_atoms_heavy>  (5) 
20

>  <num_torsions>  (5) 
2

>  <pose>  (5) 
[3.0637619260580036, 20.4482218731952, 36.08975224342557, 1.0607254216904556, -1.7977631078567795, 0.8276365709724121, 1.180935890013505, -2.846141348535414]

>  <energy>  (5) 
-501.5811279663181

>  <inter_energy>  (5) 
-536.6310878886143

>  <intra_energy>  (5) 
34.15976273831264

>  <rmsd>  (5) 
5.50293

>  <sdf_rank>  (5) 
0

$$$$

     RDKit          3D

 33 35  0  0  0  0  0  0  0  0999 V2000
    2.7637   21.3531   36.0665 O   0  0  0  0  0  0  0  0  0  0  0  0
    3.1234   22.0409   35.1177 C   0  0  0  0  0  0  0  0  0  0  0  0
    2.2749   23.0284   34.6018 N   0  0  0  0  0  0  0  0  0  0  0  0
    2.6063   23.8962   33.5473 C   0  0  0  0  0  0  0  0  0  0  0  0
    1.6592   24.8281   33.0988 N   0  0  0  0  0  0  0  0  0  0  0  0
    3.8732   23.8235   32.9445 N   0  0  0  0  0  0  0  0  0  0  0  0
    4.7562   22.8298   33.4398 C   0  0  0  0  0  0  0  0  0  0  0  0
    4.4013   21.9522   34.4497 C   0  0  0  0  0  0  0  0  0  0  0  0
    5.4727   21.0789   34.7438 N   0  0  0  0  0  0  0  0  0  0  0  0
    6.5311   21.4589   33.8281 C   0  0  0  0  0  0  0  0  0  0  0  0
    7.6561   20.9867   33.7057 O   0  0  0  0  0  0  0  0  0  0  0  0
    6.0402   22.5392   32.9755 N   0  0  0  0  0  0  0  0  0  0  0  0
    6.8429   23.2826   31.9949 C   0  0  2  0  0  0  0  0  0  0  0  0
    8.0998   23.5967   32.9282 O   0  0  0  0  0  0  0  0  0  0  0  0
    6.3943   24.4660   31.6109 C   0  0  0  0  0  0  0  0  0  0  0  0
    7.6728   25.3085   31.4276 C   0  0  2  0  0  0  0  0  0  0  0  0
    8.1968   25.1945   30.1241 O   0  0  0  0  0  0  0  0  0  0  0  0
    8.6719   24.7308   32.4416 C   0  0  1  0  0  0  0  0  0  0  0  0
    8.9349   25.6575   33.6450 C   0  0  0  0  0  0  0  0  0  0  0  0
   10.2892   25.5215   34.0780 O   0  0  0  0  0  0  0  0  0  0  0  0
    1.3411   23.1257   35.0256 H   0  0  0  0  0  0  0  0  0  0  0  0
    1.8925   25.4684   32.3265 H   0  0  0  0  0  0  0  0  0  0  0  0
    0.7303   24.8721   33.5416 H   0  0  0  0  0  0  0  0  0  0  0  0
    5.4967   20.3338   35.4546 H   0  0  0  0  0  0  0  0  0  0  0  0
    6.9387   22.7127   31.0589 H   0  0  0  0  0  0  0  0  0  0  0  0
    5.8400   24.3856   30.6642 H   0  0  0  0  0  0  0  0  0  0  0  0
    5.6956   24.9093   32.3357 H   0  0  0  0  0  0  0  0  0  0  0  0
    7.4671   26.3778   31.5832 H   0  0  0  0  0  0  0  0  0  0  0  0
    9.1629   24.9843   30.1740 H   0  0  0  0  0  0  0  0  0  0  0  0
    9.6338   24.5776   31.9305 H   0  0  0  0  0  0  0  0  0  0  0  0
    8.7498   26.7006   33.3490 H   0  0  0  0  0  0  0  0  0  0  0  0
    8.2620   25.3793   34.4695 H   0  0  0  0  0  0  0  0  0  0  0  0
   10.3206   25.5183   35.0675 H   0  0  0  0  0  0  0  0  0  0  0  0
  1  2  2  0
  2  3  1  0
  2  8  1  0
  3  4  1  0
  4  5  1  0
  4  6  2  0
  6  7  1  0
  7  8  2  0
  7 12  1  0
  8  9  1  0
  9 10  1  0
 10 11  2  0
 10 12  1  0
 13 12  1  0
 13 14  1  0
 13 15  1  0
 14 18  1  0
 15 16  1  0
 16 17  1  0
 16 18  1  0
 18 19  1  0
 19 20  1  0
  3 21  1  0
  5 22  1  0
  5 23  1  0
  9 24  1  0
 13 25  1  6
 15 26  1  0
 15 27  1  0
 16 28  1  1
 17 29  1  0
 18 30  1  6
 19 31  1  0
 19 32  1  0
 20 33  1  0
M  END
>  <filename_input>  (6) 
7OLI_8HG_docked.sdf

>  <pdb_id>  (6) 
7OLI_8HG

>  <pose_rank>  (6) 
5

>  <num_atoms_heavy>  (6) 
20

>  <num_torsions>  (6) 
2

>  <pose>  (6) 
[2.7637032963760735, 21.353054670706825, 36.06651200269378, 0.8025251402403569, -1.8865248383675817, 0.8596115318988952, -5.23013244225555, 2.9255606519785116]

>  <energy>  (6) 
-527.4806119814288

>  <inter_energy>  (6) 
-558.8851835402183

>  <intra_energy>  (6) 
30.40350529276114

>  <rmsd>  (6) 
5.40207

>  <sdf_rank>  (6) 
0

$$$$

     RDKit          3D

 33 35  0  0  0  0  0  0  0  0999 V2000
    2.2872   20.2810   34.1397 O   0  0  0  0  0  0  0  0  0  0  0  0
    2.8776   21.3297   33.9066 C   0  0  0  0  0  0  0  0  0  0  0  0
    2.1864   22.5476   33.9307 N   0  0  0  0  0  0  0  0  0  0  0  0
    2.7758   23.8057   33.7198 C   0  0  0  0  0  0  0  0  0  0  0  0
    1.9723   24.9548   33.7408 N   0  0  0  0  0  0  0  0  0  0  0  0
    4.1567   23.9079   33.4827 N   0  0  0  0  0  0  0  0  0  0  0  0
    4.8866   22.6919   33.4465 C   0  0  0  0  0  0  0  0  0  0  0  0
    4.2863   21.4558   33.6122 C   0  0  0  0  0  0  0  0  0  0  0  0
    5.2498   20.4248   33.5348 N   0  0  0  0  0  0  0  0  0  0  0  0
    6.5080   21.1024   33.2885 C   0  0  0  0  0  0  0  0  0  0  0  0
    7.6293   20.6267   33.1468 O   0  0  0  0  0  0  0  0  0  0  0  0
    6.2494   22.5369   33.1868 N   0  0  0  0  0  0  0  0  0  0  0  0
    7.2753   23.5807   33.0570 C   0  0  2  0  0  0  0  0  0  0  0  0
    6.3973   24.6597   32.2732 O   0  0  0  0  0  0  0  0  0  0  0  0
    8.3032   23.3303   32.2633 C   0  0  0  0  0  0  0  0  0  0  0  0
    8.6189   24.6955   31.6194 C   0  0  2  0  0  0  0  0  0  0  0  0
    9.5266   25.4461   32.3936 O   0  0  0  0  0  0  0  0  0  0  0  0
    7.2664   25.4212   31.5555 C   0  0  1  0  0  0  0  0  0  0  0  0
    6.6953   25.5367   30.1284 C   0  0  0  0  0  0  0  0  0  0  0  0
    5.7694   24.4763   29.8867 O   0  0  0  0  0  0  0  0  0  0  0  0
    1.1736   22.5190   34.1163 H   0  0  0  0  0  0  0  0  0  0  0  0
    2.3948   25.8816   33.5873 H   0  0  0  0  0  0  0  0  0  0  0  0
    0.9596   24.8721   33.9097 H   0  0  0  0  0  0  0  0  0  0  0  0
    5.0924   19.4116   33.6322 H   0  0  0  0  0  0  0  0  0  0  0  0
    7.7337   23.7986   34.0329 H   0  0  0  0  0  0  0  0  0  0  0  0
    9.1634   22.9626   32.8419 H   0  0  0  0  0  0  0  0  0  0  0  0
    8.0827   22.5517   31.5182 H   0  0  0  0  0  0  0  0  0  0  0  0
    9.0892   24.5680   30.6332 H   0  0  0  0  0  0  0  0  0  0  0  0
    9.3440   25.2951   33.3549 H   0  0  0  0  0  0  0  0  0  0  0  0
    7.4043   26.4439   31.9363 H   0  0  0  0  0  0  0  0  0  0  0  0
    6.1800   26.5024   30.0191 H   0  0  0  0  0  0  0  0  0  0  0  0
    7.5191   25.4699   29.4027 H   0  0  0  0  0  0  0  0  0  0  0  0
    5.4516   24.1123   30.7508 H   0  0  0  0  0  0  0  0  0  0  0  0
  1  2  2  0
  2  3  1  0
  2  8  1  0
  3  4  1  0
  4  5  1  0
  4  6  2  0
  6  7  1  0
  7  8  2  0
  7 12  1  0
  8  9  1  0
  9 10  1  0
 10 11  2  0
 10 12  1  0
 13 12  1  0
 13 14  1  0
 13 15  1  0
 14 18  1  0
 15 16  1  0
 16 17  1  0
 16 18  1  0
 18 19  1  0
 19 20  1  0
  3 21  1  0
  5 22  1  0
  5 23  1  0
  9 24  1  0
 13 25  1  1
 15 26  1  0
 15 27  1  0
 16 28  1  6
 17 29  1  0
 18 30  1  1
 19 31  1  0
 19 32  1  0
 20 33  1  0
M  END
>  <filename_input>  (7) 
7OLI_8HG_docked.sdf

>  <pdb_id>  (7) 
7OLI_8HG

>  <pose_rank>  (7) 
6

>  <num_atoms_heavy>  (7) 
20

>  <num_torsions>  (7) 
2

>  <pose>  (7) 
[2.287204664993297, 20.280973725128817, 34.139728229692366, -1.3772952866719337, 3.3104547930604706, -0.39730413810528487, -1.736819880850007, 0.8703921731953754]

>  <energy>  (7) 
-489.3588240012878

>  <inter_energy>  (7) 
-513.0352889659408

>  <intra_energy>  (7) 
35.177904285696236

>  <rmsd>  (7) 
5.35566

>  <sdf_rank>  (7) 
0

$$$$

     RDKit          3D

 33 35  0  0  0  0  0  0  0  0999 V2000
    6.7642   18.4672   33.9100 O   0  0  0  0  0  0  0  0  0  0  0  0
    6.4582   19.6455   33.7660 C   0  0  0  0  0  0  0  0  0  0  0  0
    5.1124   20.0321   33.7922 N   0  0  0  0  0  0  0  0  0  0  0  0
    4.6590   21.3574   33.6793 C   0  0  0  0  0  0  0  0  0  0  0  0
    3.2809   21.6172   33.6912 N   0  0  0  0  0  0  0  0  0  0  0  0
    5.5798   22.4102   33.5481 N   0  0  0  0  0  0  0  0  0  0  0  0
    6.9523   22.0528   33.5127 C   0  0  0  0  0  0  0  0  0  0  0  0
    7.3836   20.7394   33.5807 C   0  0  0  0  0  0  0  0  0  0  0  0
    8.7946   20.6798   33.5294 N   0  0  0  0  0  0  0  0  0  0  0  0
    9.2258   22.0588   33.4049 C   0  0  0  0  0  0  0  0  0  0  0  0
   10.3629   22.5107   33.3249 O   0  0  0  0  0  0  0  0  0  0  0  0
    8.0405   22.9113   33.3466 N   0  0  0  0  0  0  0  0  0  0  0  0
    8.0471   24.3805   33.3371 C   0  0  2  0  0  0  0  0  0  0  0  0
    7.0434   24.5998   32.1148 O   0  0  0  0  0  0  0  0  0  0  0  0
    9.1675   24.9831   32.9756 C   0  0  0  0  0  0  0  0  0  0  0  0
    8.6890   26.2274   32.2006 C   0  0  2  0  0  0  0  0  0  0  0  0
    8.4858   27.3325   33.0516 O   0  0  0  0  0  0  0  0  0  0  0  0
    7.3539   25.8061   31.5681 C   0  0  1  0  0  0  0  0  0  0  0  0
    7.4306   25.6052   30.0418 C   0  0  0  0  0  0  0  0  0  0  0  0
    6.5271   24.5744   29.6399 O   0  0  0  0  0  0  0  0  0  0  0  0
    4.4043   19.2922   33.9020 H   0  0  0  0  0  0  0  0  0  0  0  0
    2.9385   22.5851   33.6090 H   0  0  0  0  0  0  0  0  0  0  0  0
    2.6111   20.8400   33.7821 H   0  0  0  0  0  0  0  0  0  0  0  0
    9.3882   19.8391   33.5713 H   0  0  0  0  0  0  0  0  0  0  0  0
    7.8387   24.7766   34.3419 H   0  0  0  0  0  0  0  0  0  0  0  0
    9.7568   25.2745   33.8575 H   0  0  0  0  0  0  0  0  0  0  0  0
    9.8214   24.3350   32.3736 H   0  0  0  0  0  0  0  0  0  0  0  0
    9.4383   26.5441   31.4601 H   0  0  0  0  0  0  0  0  0  0  0  0
    8.5401   27.0370   33.9949 H   0  0  0  0  0  0  0  0  0  0  0  0
    6.6161   26.5998   31.7569 H   0  0  0  0  0  0  0  0  0  0  0  0
    7.1602   26.5442   29.5365 H   0  0  0  0  0  0  0  0  0  0  0  0
    8.4553   25.3156   29.7662 H   0  0  0  0  0  0  0  0  0  0  0  0
    6.1453   24.1388   30.4428 H   0  0  0  0  0  0  0  0  0  0  0  0
  1  2  2  0
  2  3  1  0
  2  8  1  0
  3  4  1  0
  4  5  1  0
  4  6  2  0
  6  7  1  0
  7  8  2  0
  7 12  1  0
  8  9  1  0
  9 10  1  0
 10 11  2  0
 10 12  1  0
 13 12  1  0
 13 14  1  0
 13 15  1  0
 14 18  1  0
 15 16  1  0
 16 17  1  0
 16 18  1  0
 18 19  1  0
 19 20  1  0
  3 21  1  0
  5 22  1  0
  5 23  1  0
  9 24  1  0
 13 25  1  1
 15 26  1  0
 15 27  1  0
 16 28  1  6
 17 29  1  0
 18 30  1  6
 19 31  1  0
 19 32  1  0
 20 33  1  0
M  END
>  <filename_input>  (8) 
7OLI_8HG_docked.sdf

>  <pdb_id>  (8) 
7OLI_8HG

>  <pose_rank>  (8) 
7

>  <num_atoms_heavy>  (8) 
20

>  <num_torsions>  (8) 
2

>  <pose>  (8) 
[6.764153106396489, 18.46717999396384, 33.90998491995694, 1.9820225674420076, -2.0127584605298376, 0.4787943159286768, -20.940314804412058, -4.5136816340047]

>  <energy>  (8) 
-563.2441928174921

>  <inter_energy>  (8) 
-581.7707728013154

>  <intra_energy>  (8) 
28.298219623180607

>  <rmsd>  (8) 
4.63025

>  <sdf_rank>  (8) 
0

$$$$

     RDKit          3D

 33 35  0  0  0  0  0  0  0  0999 V2000
    5.3034   19.7905   35.0685 O   0  0  0  0  0  0  0  0  0  0  0  0
    5.4440   20.9222   34.6188 C   0  0  0  0  0  0  0  0  0  0  0  0
    4.4201   21.8676   34.7577 N   0  0  0  0  0  0  0  0  0  0  0  0
    4.4967   23.1997   34.3168 C   0  0  0  0  0  0  0  0  0  0  0  0
    3.3918   24.0463   34.4877 N   0  0  0  0  0  0  0  0  0  0  0  0
    5.6681   23.6745   33.7037 N   0  0  0  0  0  0  0  0  0  0  0  0
    6.7239   22.7406   33.5424 C   0  0  0  0  0  0  0  0  0  0  0  0
    6.6193   21.4194   33.9416 C   0  0  0  0  0  0  0  0  0  0  0  0
    7.8180   20.7239   33.6654 N   0  0  0  0  0  0  0  0  0  0  0  0
    8.6871   21.7033   33.0422 C   0  0  0  0  0  0  0  0  0  0  0  0
    9.8332   21.5693   32.6271 O   0  0  0  0  0  0  0  0  0  0  0  0
    7.9574   22.9641   32.9283 N   0  0  0  0  0  0  0  0  0  0  0  0
    8.5225   24.2364   32.4584 C   0  0  2  0  0  0  0  0  0  0  0  0
   10.0616   23.8111   32.4616 O   0  0  0  0  0  0  0  0  0  0  0  0
    8.4499   25.2745   33.2746 C   0  0  0  0  0  0  0  0  0  0  0  0
    9.7663   26.0381   33.0255 C   0  0  2  0  0  0  0  0  0  0  0  0
    9.6419   26.9763   31.9810 O   0  0  0  0  0  0  0  0  0  0  0  0
   10.7804   24.9534   32.6316 C   0  0  1  0  0  0  0  0  0  0  0  0
   11.8329   24.6681   33.7211 C   0  0  0  0  0  0  0  0  0  0  0  0
   11.6595   23.3455   34.2317 O   0  0  0  0  0  0  0  0  0  0  0  0
    3.5486   21.5649   35.2157 H   0  0  0  0  0  0  0  0  0  0  0  0
    3.4381   25.0243   34.1679 H   0  0  0  0  0  0  0  0  0  0  0  0
    2.5341   23.6900   34.9330 H   0  0  0  0  0  0  0  0  0  0  0  0
    8.0289   19.7354   33.8639 H   0  0  0  0  0  0  0  0  0  0  0  0
    8.0121   24.5744   31.5445 H   0  0  0  0  0  0  0  0  0  0  0  0
    7.5810   25.9034   33.0308 H   0  0  0  0  0  0  0  0  0  0  0  0
    8.3251   24.9779   34.3265 H   0  0  0  0  0  0  0  0  0  0  0  0
   10.0667   26.6089   33.9165 H   0  0  0  0  0  0  0  0  0  0  0  0
    9.5218   27.8816   32.3632 H   0  0  0  0  0  0  0  0  0  0  0  0
   11.3208   25.2940   31.7361 H   0  0  0  0  0  0  0  0  0  0  0  0
   12.8399   24.7629   33.2887 H   0  0  0  0  0  0  0  0  0  0  0  0
   11.7099   25.3912   34.5408 H   0  0  0  0  0  0  0  0  0  0  0  0
   11.6628   23.3707   35.2213 H   0  0  0  0  0  0  0  0  0  0  0  0
  1  2  2  0
  2  3  1  0
  2  8  1  0
  3  4  1  0
  4  5  1  0
  4  6  2  0
  6  7  1  0
  7  8  2  0
  7 12  1  0
  8  9  1  0
  9 10  1  0
 10 11  2  0
 10 12  1  0
 13 12  1  0
 13 14  1  0
 13 15  1  0
 14 18  1  0
 15 16  1  0
 16 17  1  0
 16 18  1  0
 18 19  1  0
 19 20  1  0
  3 21  1  0
  5 22  1  0
  5 23  1  0
  9 24  1  0
 13 25  1  6
 15 26  1  0
 15 27  1  0
 16 28  1  1
 17 29  1  0
 18 30  1  6
 19 31  1  0
 19 32  1  0
 20 33  1  0
M  END
>  <filename_input>  (9) 
7OLI_8HG_docked.sdf

>  <pdb_id>  (9) 
7OLI_8HG

>  <pose_rank>  (9) 
8

>  <num_atoms_heavy>  (9) 
20

>  <num_torsions>  (9) 
2

>  <pose>  (9) 
[5.303411683027855, 19.79048318358928, 35.06854135199803, 1.3181115118547604, -2.0155843462477505, 0.3628044628848843, -4.584025823916096, 1.1778814386182814]

>  <energy>  (9) 
-592.965454140873

>  <inter_energy>  (9) 
-632.7632235214444

>  <intra_energy>  (9) 
50.20395193994854

>  <rmsd>  (9) 
5.09079

>  <sdf_rank>  (9) 
0

$$$$

     RDKit          3D

 33 35  0  0  0  0  0  0  0  0999 V2000
    2.4359   20.3497   35.8914 O   0  0  0  0  0  0  0  0  0  0  0  0
    2.8242   21.2821   35.1966 C   0  0  0  0  0  0  0  0  0  0  0  0
    2.0421   22.4365   35.0657 N   0  0  0  0  0  0  0  0  0  0  0  0
    2.4135   23.5746   34.3299 C   0  0  0  0  0  0  0  0  0  0  0  0
    1.5305   24.6612   34.2498 N   0  0  0  0  0  0  0  0  0  0  0  0
    3.6556   23.6180   33.6751 N   0  0  0  0  0  0  0  0  0  0  0  0
    4.4711   22.4622   33.7829 C   0  0  0  0  0  0  0  0  0  0  0  0
    4.0744   21.3306   34.4744 C   0  0  0  0  0  0  0  0  0  0  0  0
    5.0820   20.3411   34.4212 N   0  0  0  0  0  0  0  0  0  0  0  0
    6.1436   20.9265   33.6255 C   0  0  0  0  0  0  0  0  0  0  0  0
    7.2254   20.4467   33.3040 O   0  0  0  0  0  0  0  0  0  0  0  0
    5.7169   22.2538   33.1885 N   0  0  0  0  0  0  0  0  0  0  0  0
    6.5502   23.2200   32.4599 C   0  0  2  0  0  0  0  0  0  0  0  0
    5.5534   23.5023   31.2450 O   0  0  0  0  0  0  0  0  0  0  0  0
    7.6589   22.7678   31.8984 C   0  0  0  0  0  0  0  0  0  0  0  0
    7.7744   23.5803   30.5928 C   0  0  2  0  0  0  0  0  0  0  0  0
    8.4801   24.7856   30.7827 O   0  0  0  0  0  0  0  0  0  0  0  0
    6.3234   23.8854   30.1910 C   0  0  1  0  0  0  0  0  0  0  0  0
    5.8419   23.0858   28.9643 C   0  0  0  0  0  0  0  0  0  0  0  0
    6.9626   22.6752   28.1797 O   0  0  0  0  0  0  0  0  0  0  0  0
    1.1294   22.4524   35.5430 H   0  0  0  0  0  0  0  0  0  0  0  0
    1.7935   25.5000   33.7129 H   0  0  0  0  0  0  0  0  0  0  0  0
    0.6191   24.6205   34.7277 H   0  0  0  0  0  0  0  0  0  0  0  0
    5.0658   19.4065   34.8540 H   0  0  0  0  0  0  0  0  0  0  0  0
    6.8940   24.0208   33.1312 H   0  0  0  0  0  0  0  0  0  0  0  0
    8.5278   22.9472   32.5486 H   0  0  0  0  0  0  0  0  0  0  0  0
    7.6311   21.6826   31.7205 H   0  0  0  0  0  0  0  0  0  0  0  0
    8.3275   23.0187   29.8255 H   0  0  0  0  0  0  0  0  0  0  0  0
    8.5817   24.9592   31.7521 H   0  0  0  0  0  0  0  0  0  0  0  0
    6.2528   24.9526   29.9340 H   0  0  0  0  0  0  0  0  0  0  0  0
    5.2887   22.1973   29.3026 H   0  0  0  0  0  0  0  0  0  0  0  0
    5.1859   23.7224   28.3525 H   0  0  0  0  0  0  0  0  0  0  0  0
    7.7030   22.4039   28.7783 H   0  0  0  0  0  0  0  0  0  0  0  0
  1  2  2  0
  2  3  1  0
  2  8  1  0
  3  4  1  0
  4  5  1  0
  4  6  2  0
  6  7  1  0
  7  8  2  0
  7 12  1  0
  8  9  1  0
  9 10  1  0
 10 11  2  0
 10 12  1  0
 13 12  1  0
 13 14  1  0
 13 15  1  0
 14 18  1  0
 15 16  1  0
 16 17  1  0
 16 18  1  0
 18 19  1  0
 19 20  1  0
  3 21  1  0
  5 22  1  0
  5 23  1  0
  9 24  1  0
 13 25  1  1
 15 26  1  0
 15 27  1  0
 16 28  1  6
 17 29  1  0
 18 30  1  6
 19 31  1  0
 19 32  1  0
 20 33  1  0
M  END
>  <filename_input>  (10) 
7OLI_8HG_docked.sdf

>  <pdb_id>  (10) 
7OLI_8HG

>  <pose_rank>  (10) 
9

>  <num_atoms_heavy>  (10) 
20

>  <num_torsions>  (10) 
2

>  <pose>  (10) 
[2.435856937446177, 20.349736421985963, 35.89137351909904, 0.9317998853780574, -2.0385604420434142, 0.49226447870136864, -2.171409111965916, -1.2127024186019435]

>  <energy>  (10) 
-591.5238635654764

>  <inter_energy>  (10) 
-609.6917713158523

>  <intra_energy>  (10) 
26.934628034162063

>  <rmsd>  (10) 
5.4967

>  <sdf_rank>  (10) 
0

$$$$

     RDKit          3D

 33 35  0  0  0  0  0  0  0  0999 V2000
    2.7066   23.3993   31.0232 O   0  0  0  0  0  0  0  0  0  0  0  0
    3.7366   23.2133   31.6614 C   0  0  0  0  0  0  0  0  0  0  0  0
    3.7481   22.3119   32.7333 N   0  0  0  0  0  0  0  0  0  0  0  0
    4.8826   21.9961   33.5001 C   0  0  0  0  0  0  0  0  0  0  0  0
    4.7624   21.0967   34.5694 N   0  0  0  0  0  0  0  0  0  0  0  0
    6.1232   22.5833   33.2009 N   0  0  0  0  0  0  0  0  0  0  0  0
    6.1459   23.5059   32.1235 C   0  0  0  0  0  0  0  0  0  0  0  0
    5.0119   23.8414   31.4041 C   0  0  0  0  0  0  0  0  0  0  0  0
    5.3282   24.7742   30.3907 N   0  0  0  0  0  0  0  0  0  0  0  0
    6.7503   25.0191   30.5344 C   0  0  0  0  0  0  0  0  0  0  0  0
    7.4795   25.7563   29.8797 O   0  0  0  0  0  0  0  0  0  0  0  0
    7.2416   24.2426   31.6705 N   0  0  0  0  0  0  0  0  0  0  0  0
    8.6486   24.1236   32.0767 C   0  0  2  0  0  0  0  0  0  0  0  0
    8.6939   22.5382   32.2608 O   0  0  0  0  0  0  0  0  0  0  0  0
    8.9868   24.6175   33.2561 C   0  0  0  0  0  0  0  0  0  0  0  0
   10.0550   23.6361   33.7794 C   0  0  2  0  0  0  0  0  0  0  0  0
   11.3525   23.9998   33.3658 O   0  0  0  0  0  0  0  0  0  0  0  0
    9.6753   22.2796   33.1666 C   0  0  1  0  0  0  0  0  0  0  0  0
    9.0967   21.2813   34.1886 C   0  0  0  0  0  0  0  0  0  0  0  0
    8.3040   20.3010   33.5172 O   0  0  0  0  0  0  0  0  0  0  0  0
    2.8617   21.8473   32.9769 H   0  0  0  0  0  0  0  0  0  0  0  0
    5.5880   20.8587   35.1374 H   0  0  0  0  0  0  0  0  0  0  0  0
    3.8486   20.6741   34.7867 H   0  0  0  0  0  0  0  0  0  0  0  0
    4.6875   25.1900   29.6997 H   0  0  0  0  0  0  0  0  0  0  0  0
    9.3041   24.6477   31.3657 H   0  0  0  0  0  0  0  0  0  0  0  0
    9.4039   25.6299   33.1509 H   0  0  0  0  0  0  0  0  0  0  0  0
    8.1284   24.7115   33.9375 H   0  0  0  0  0  0  0  0  0  0  0  0
   10.0757   23.6241   34.8791 H   0  0  0  0  0  0  0  0  0  0  0  0
   11.9200   24.1588   34.1612 H   0  0  0  0  0  0  0  0  0  0  0  0
   10.5832   21.8250   32.7433 H   0  0  0  0  0  0  0  0  0  0  0  0
    9.9217   20.7826   34.7183 H   0  0  0  0  0  0  0  0  0  0  0  0
    8.4667   21.8248   34.9081 H   0  0  0  0  0  0  0  0  0  0  0  0
    7.8450   19.7333   34.1859 H   0  0  0  0  0  0  0  0  0  0  0  0
  1  2  2  0
  2  3  1  0
  2  8  1  0
  3  4  1  0
  4  5  1  0
  4  6  2  0
  6  7  1  0
  7  8  2  0
  7 12  1  0
  8  9  1  0
  9 10  1  0
 10 11  2  0
 10 12  1  0
 13 12  1  0
 13 14  1  0
 13 15  1  0
 14 18  1  0
 15 16  1  0
 16 17  1  0
 16 18  1  0
 18 19  1  0
 19 20  1  0
  3 21  1  0
  5 22  1  0
  5 23  1  0
  9 24  1  0
 13 25  1  6
 15 26  1  0
 15 27  1  0
 16 28  1  1
 17 29  1  0
 18 30  1  6
 19 31  1  0
 19 32  1  0
 20 33  1  0
M  END
>  <filename_input>  (11) 
7OLI_8HG_docked.sdf

>  <pdb_id>  (11) 
7OLI_8HG

>  <pose_rank>  (11) 
10

>  <num_atoms_heavy>  (11) 
20

>  <num_torsions>  (11) 
2

>  <pose>  (11) 
[2.7066359401636904, 23.39927284403162, 31.023233113554973, -0.9151655415212702, 1.4073058646565948, 2.648665348122067, -0.4255492053519088, 1.9383246826447775]

>  <energy>  (11) 
-495.97492172598595

>  <inter_energy>  (11) 
-531.3758290342536

>  <intra_energy>  (11) 
25.082327059896688

>  <rmsd>  (11) 
5.96642

>  <sdf_rank>  (11) 
0

$$$$

     RDKit          3D

 33 35  0  0  0  0  0  0  0  0999 V2000
    4.1167   20.3973   33.1980 O   0  0  0  0  0  0  0  0  0  0  0  0
    5.2383   20.8849   33.2815 C   0  0  0  0  0  0  0  0  0  0  0  0
    6.2678   20.1791   33.9167 N   0  0  0  0  0  0  0  0  0  0  0  0
    7.5945   20.6286   34.0287 C   0  0  0  0  0  0  0  0  0  0  0  0
    8.5321   19.8430   34.7146 N   0  0  0  0  0  0  0  0  0  0  0  0
    7.9737   21.8579   33.4644 N   0  0  0  0  0  0  0  0  0  0  0  0
    6.9534   22.6015   32.8175 C   0  0  0  0  0  0  0  0  0  0  0  0
    5.6406   22.1677   32.7525 C   0  0  0  0  0  0  0  0  0  0  0  0
    4.8467   23.1004   32.0476 N   0  0  0  0  0  0  0  0  0  0  0  0
    5.7553   24.1710   31.6852 C   0  0  0  0  0  0  0  0  0  0  0  0
    5.5275   25.2036   31.0643 O   0  0  0  0  0  0  0  0  0  0  0  0
    7.0769   23.8595   32.2251 N   0  0  0  0  0  0  0  0  0  0  0  0
    8.3015   24.6335   31.9804 C   0  0  2  0  0  0  0  0  0  0  0  0
    9.3554   23.5549   32.5052 O   0  0  0  0  0  0  0  0  0  0  0  0
    8.5048   25.7059   32.7272 C   0  0  0  0  0  0  0  0  0  0  0  0
   10.0315   25.7263   32.9437 C   0  0  2  0  0  0  0  0  0  0  0  0
   10.6992   26.4325   31.9228 O   0  0  0  0  0  0  0  0  0  0  0  0
   10.4516   24.2489   32.9140 C   0  0  1  0  0  0  0  0  0  0  0  0
   10.8502   23.6931   34.2953 C   0  0  0  0  0  0  0  0  0  0  0  0
   12.2623   23.8073   34.4776 O   0  0  0  0  0  0  0  0  0  0  0  0
    6.0359   19.2652   34.3314 H   0  0  0  0  0  0  0  0  0  0  0  0
    9.5070   20.1637   34.8022 H   0  0  0  0  0  0  0  0  0  0  0  0
    8.2459   18.9453   35.1307 H   0  0  0  0  0  0  0  0  0  0  0  0
    3.8407   23.0342   31.8369 H   0  0  0  0  0  0  0  0  0  0  0  0
    8.3208   25.0146   30.9487 H   0  0  0  0  0  0  0  0  0  0  0  0
    8.1718   26.6150   32.2049 H   0  0  0  0  0  0  0  0  0  0  0  0
    7.9436   25.6757   33.6728 H   0  0  0  0  0  0  0  0  0  0  0  0
   10.2903   26.2314   33.8860 H   0  0  0  0  0  0  0  0  0  0  0  0
   11.3200   27.0890   32.3274 H   0  0  0  0  0  0  0  0  0  0  0  0
   11.3284   24.1518   32.2570 H   0  0  0  0  0  0  0  0  0  0  0  0
   10.3339   24.2643   35.0809 H   0  0  0  0  0  0  0  0  0  0  0  0
   10.5624   22.6331   34.3554 H   0  0  0  0  0  0  0  0  0  0  0  0
   12.4698   23.8241   35.4454 H   0  0  0  0  0  0  0  0  0  0  0  0
  1  2  2  0
  2  3  1  0
  2  8  1  0
  3  4  1  0
  4  5  1  0
  4  6  2  0
  6  7  1  0
  7  8  2  0
  7 12  1  0
  8  9  1  0
  9 10  1  0
 10 11  2  0
 10 12  1  0
 13 12  1  0
 13 14  1  0
 13 15  1  0
 14 18  1  0
 15 16  1  0
 16 17  1  0
 16 18  1  0
 18 19  1  0
 19 20  1  0
  3 21  1  0
  5 22  1  0
  5 23  1  0
  9 24  1  0
 13 25  1  6
 15 26  1  0
 15 27  1  0
 16 28  1  1
 17 29  1  0
 18 30  1  6
 19 31  1  0
 19 32  1  0
 20 33  1  0
M  END
>  <filename_input>  (12) 
7OLI_8HG_docked.sdf

>  <pdb_id>  (12) 
7OLI_8HG

>  <pose_rank>  (12) 
11

>  <num_atoms_heavy>  (12) 
20

>  <num_torsions>  (12) 
2

>  <pose>  (12) 
[4.1166932694983425, 20.39728739823437, 33.19801013075864, -0.8154144121709537, 1.0044195608722275, 3.630667517363265, -1.0025362305083345, -2.4396620479212276]

>  <energy>  (12) 
-489.6386718317455

>  <inter_energy>  (12) 
-525.6226734989904

>  <intra_energy>  (12) 
40.13732118842284

>  <rmsd>  (12) 
5.60696

>  <sdf_rank>  (12) 
0

$$$$

     RDKit          3D

 33 35  0  0  0  0  0  0  0  0999 V2000
    2.4147   22.9634   31.1323 O   0  0  0  0  0  0  0  0  0  0  0  0
    3.2544   23.1355   32.0086 C   0  0  0  0  0  0  0  0  0  0  0  0
    2.8953   23.0325   33.3584 N   0  0  0  0  0  0  0  0  0  0  0  0
    3.7871   23.1697   34.4357 C   0  0  0  0  0  0  0  0  0  0  0  0
    3.3019   23.0733   35.7479 N   0  0  0  0  0  0  0  0  0  0  0  0
    5.1508   23.4088   34.1977 N   0  0  0  0  0  0  0  0  0  0  0  0
    5.5480   23.5240   32.8406 C   0  0  0  0  0  0  0  0  0  0  0  0
    4.6517   23.4306   31.7900 C   0  0  0  0  0  0  0  0  0  0  0  0
    5.3221   23.5770   30.5546 N   0  0  0  0  0  0  0  0  0  0  0  0
    6.7135   23.7893   30.9037 C   0  0  0  0  0  0  0  0  0  0  0  0
    7.6784   23.9669   30.1680 O   0  0  0  0  0  0  0  0  0  0  0  0
    6.8290   23.8013   32.3603 N   0  0  0  0  0  0  0  0  0  0  0  0
    8.0877   23.8734   33.1147 C   0  0  2  0  0  0  0  0  0  0  0  0
    8.4046   25.4194   32.8720 O   0  0  0  0  0  0  0  0  0  0  0  0
    9.1312   23.2262   32.6235 C   0  0  0  0  0  0  0  0  0  0  0  0
   10.3293   24.1345   32.9667 C   0  0  2  0  0  0  0  0  0  0  0  0
   10.8683   23.8390   34.2351 O   0  0  0  0  0  0  0  0  0  0  0  0
    9.7545   25.5591   32.9654 C   0  0  1  0  0  0  0  0  0  0  0  0
   10.2066   26.4055   31.7591 C   0  0  0  0  0  0  0  0  0  0  0  0
   11.4712   25.9411   31.2844 O   0  0  0  0  0  0  0  0  0  0  0  0
    1.9068   22.8427   33.5771 H   0  0  0  0  0  0  0  0  0  0  0  0
    3.9475   23.1724   36.5443 H   0  0  0  0  0  0  0  0  0  0  0  0
    2.2999   22.9034   35.9153 H   0  0  0  0  0  0  0  0  0  0  0  0
    4.9114   23.5408   29.6107 H   0  0  0  0  0  0  0  0  0  0  0  0
    7.9604   23.4550   34.1241 H   0  0  0  0  0  0  0  0  0  0  0  0
    9.2392   22.2403   33.0991 H   0  0  0  0  0  0  0  0  0  0  0  0
    9.0408   23.0349   31.5440 H   0  0  0  0  0  0  0  0  0  0  0  0
   11.1486   23.9972   32.2457 H   0  0  0  0  0  0  0  0  0  0  0  0
   10.2580   24.1736   34.9391 H   0  0  0  0  0  0  0  0  0  0  0  0
   10.1017   26.0730   33.8739 H   0  0  0  0  0  0  0  0  0  0  0  0
    9.4615   26.3204   30.9543 H   0  0  0  0  0  0  0  0  0  0  0  0
   10.3008   27.4566   32.0697 H   0  0  0  0  0  0  0  0  0  0  0  0
   12.0545   25.7268   32.0550 H   0  0  0  0  0  0  0  0  0  0  0  0
  1  2  2  0
  2  3  1  0
  2  8  1  0
  3  4  1  0
  4  5  1  0
  4  6  2  0
  6  7  1  0
  7  8  2  0
  7 12  1  0
  8  9  1  0
  9 10  1  0
 10 11  2  0
 10 12  1  0
 13 12  1  0
 13 14  1  0
 13 15  1  0
 14 18  1  0
 15 16  1  0
 16 17  1  0
 16 18  1  0
 18 19  1  0
 19 20  1  0
  3 21  1  0
  5 22  1  0
  5 23  1  0
  9 24  1  0
 13 25  1  1
 15 26  1  0
 15 27  1  0
 16 28  1  6
 17 29  1  0
 18 30  1  1
 19 31  1  0
 19 32  1  0
 20 33  1  0
M  END
>  <filename_input>  (13) 
7OLI_8HG_docked.sdf

>  <pdb_id>  (13) 
7OLI_8HG

>  <pose_rank>  (13) 
12

>  <num_atoms_heavy>  (13) 
20

>  <num_torsions>  (13) 
2

>  <pose>  (13) 
[2.4147062810851647, 22.96335461098964, 31.132293658395966, -1.0764599933309806, 2.1601050816127003, 1.9434471626158636, -3.0855020994744793, -1.2730286890462095]

>  <energy>  (13) 
-560.3038097077717

>  <inter_energy>  (13) 
-542.6011429575078

>  <intra_energy>  (13) 
14.581645227173867

>  <rmsd>  (13) 
5.79809

>  <sdf_rank>  (13) 
0

$$$$

     RDKit          3D

 33 35  0  0  0  0  0  0  0  0999 V2000
    3.5117   20.5614   35.4508 O   0  0  0  0  0  0  0  0  0  0  0  0
    4.4456   20.9769   34.7740 C   0  0  0  0  0  0  0  0  0  0  0  0
    5.7070   20.3756   34.8695 N   0  0  0  0  0  0  0  0  0  0  0  0
    6.8292   20.7471   34.1097 C   0  0  0  0  0  0  0  0  0  0  0  0
    8.0493   20.0871   34.3156 N   0  0  0  0  0  0  0  0  0  0  0  0
    6.7291   21.7758   33.1583 N   0  0  0  0  0  0  0  0  0  0  0  0
    5.4657   22.4102   33.0396 C   0  0  0  0  0  0  0  0  0  0  0  0
    4.3799   22.0643   33.8252 C   0  0  0  0  0  0  0  0  0  0  0  0
    3.2561   22.8524   33.4888 N   0  0  0  0  0  0  0  0  0  0  0  0
    3.7186   23.7398   32.4392 C   0  0  0  0  0  0  0  0  0  0  0  0
    3.1012   24.6060   31.8292 O   0  0  0  0  0  0  0  0  0  0  0  0
    5.1364   23.4775   32.2022 N   0  0  0  0  0  0  0  0  0  0  0  0
    5.9492   24.0844   31.1393 C   0  0  2  0  0  0  0  0  0  0  0  0
    7.3535   24.0733   31.8991 O   0  0  0  0  0  0  0  0  0  0  0  0
    5.7240   25.3550   30.8495 C   0  0  0  0  0  0  0  0  0  0  0  0
    7.1212   25.9146   30.5135 C   0  0  2  0  0  0  0  0  0  0  0  0
    7.4359   25.7616   29.1481 O   0  0  0  0  0  0  0  0  0  0  0  0
    8.0919   25.0841   31.3667 C   0  0  1  0  0  0  0  0  0  0  0  0
    8.7029   25.8678   32.5450 C   0  0  0  0  0  0  0  0  0  0  0  0
   10.1276   25.8689   32.4430 O   0  0  0  0  0  0  0  0  0  0  0  0
    5.8201   19.6063   35.5449 H   0  0  0  0  0  0  0  0  0  0  0  0
    8.8777   20.3519   33.7638 H   0  0  0  0  0  0  0  0  0  0  0  0
    8.1171   19.3374   35.0188 H   0  0  0  0  0  0  0  0  0  0  0  0
    2.3129   22.8065   33.9001 H   0  0  0  0  0  0  0  0  0  0  0  0
    5.7974   23.5581   30.1854 H   0  0  0  0  0  0  0  0  0  0  0  0
    5.0487   25.4452   29.9859 H   0  0  0  0  0  0  0  0  0  0  0  0
    5.2378   25.8974   31.6737 H   0  0  0  0  0  0  0  0  0  0  0  0
    7.1754   26.9933   30.7218 H   0  0  0  0  0  0  0  0  0  0  0  0
    8.3227   25.3304   29.0601 H   0  0  0  0  0  0  0  0  0  0  0  0
    8.9235   24.7572   30.7251 H   0  0  0  0  0  0  0  0  0  0  0  0
    8.3351   26.9043   32.5232 H   0  0  0  0  0  0  0  0  0  0  0  0
    8.4084   25.3879   33.4899 H   0  0  0  0  0  0  0  0  0  0  0  0
   10.5235   25.8692   33.3504 H   0  0  0  0  0  0  0  0  0  0  0  0
  1  2  2  0
  2  3  1  0
  2  8  1  0
  3  4  1  0
  4  5  1  0
  4  6  2  0
  6  7  1  0
  7  8  2  0
  7 12  1  0
  8  9  1  0
  9 10  1  0
 10 11  2  0
 10 12  1  0
 13 12  1  0
 13 14  1  0
 13 15  1  0
 14 18  1  0
 15 16  1  0
 16 17  1  0
 16 18  1  0
 18 19  1  0
 19 20  1  0
  3 21  1  0
  5 22  1  0
  5 23  1  0
  9 24  1  0
 13 25  1  6
 15 26  1  0
 15 27  1  0
 16 28  1  1
 17 29  1  0
 18 30  1  6
 19 31  1  0
 19 32  1  0
 20 33  1  0
M  END
>  <filename_input>  (14) 
7OLI_8HG_docked.sdf

>  <pdb_id>  (14) 
7OLI_8HG

>  <pose_rank>  (14) 
13

>  <num_atoms_heavy>  (14) 
20

>  <num_torsions>  (14) 
2

>  <pose>  (14) 
[3.511748649914696, 20.561373016486044, 35.45077127732416, 0.517008523825318, 1.0668878315090222, 3.8526374938807306, 4.501656136903545, 3.3521459324541745]

>  <energy>  (14) 
-490.08711273040603

>  <inter_energy>  (14) 
-511.99757928751427

>  <intra_energy>  (14) 
34.29365208247964

>  <rmsd>  (14) 
5.34723

>  <sdf_rank>  (14) 
0

$$$$

     RDKit          3D

 33 35  0  0  0  0  0  0  0  0999 V2000
    3.3054   20.4107   35.2200 O   0  0  0  0  0  0  0  0  0  0  0  0
    4.2123   20.9666   34.6107 C   0  0  0  0  0  0  0  0  0  0  0  0
    5.4883   20.3909   34.5674 N   0  0  0  0  0  0  0  0  0  0  0  0
    6.5822   20.9236   33.8644 C   0  0  0  0  0  0  0  0  0  0  0  0
    7.8212   20.2689   33.9197 N   0  0  0  0  0  0  0  0  0  0  0  0
    6.4354   22.1057   33.1196 N   0  0  0  0  0  0  0  0  0  0  0  0
    5.1560   22.7182   33.1462 C   0  0  0  0  0  0  0  0  0  0  0  0
    4.0986   22.2068   33.8785 C   0  0  0  0  0  0  0  0  0  0  0  0
    2.9498   23.0137   33.7163 N   0  0  0  0  0  0  0  0  0  0  0  0
    3.3658   24.0893   32.8370 C   0  0  0  0  0  0  0  0  0  0  0  0
    2.7143   25.0360   32.4092 O   0  0  0  0  0  0  0  0  0  0  0  0
    4.7822   23.9114   32.5255 N   0  0  0  0  0  0  0  0  0  0  0  0
    5.5540   24.7228   31.5743 C   0  0  2  0  0  0  0  0  0  0  0  0
    5.5833   23.6805   30.3651 O   0  0  0  0  0  0  0  0  0  0  0  0
    6.8242   24.9546   31.8606 C   0  0  0  0  0  0  0  0  0  0  0  0
    7.5259   24.9358   30.4875 C   0  0  2  0  0  0  0  0  0  0  0  0
    7.5329   26.2086   29.8818 O   0  0  0  0  0  0  0  0  0  0  0  0
    6.6980   23.9603   29.6373 C   0  0  1  0  0  0  0  0  0  0  0  0
    7.4102   22.6203   29.3667 C   0  0  0  0  0  0  0  0  0  0  0  0
    6.4962   21.6923   28.7805 O   0  0  0  0  0  0  0  0  0  0  0  0
    5.6354   19.5145   35.0881 H   0  0  0  0  0  0  0  0  0  0  0  0
    8.6291   20.6513   33.4079 H   0  0  0  0  0  0  0  0  0  0  0  0
    7.9233   19.4056   34.4722 H   0  0  0  0  0  0  0  0  0  0  0  0
    2.0188   22.8692   34.1325 H   0  0  0  0  0  0  0  0  0  0  0  0
    5.1126   25.7250   31.4707 H   0  0  0  0  0  0  0  0  0  0  0  0
    6.9429   25.9340   32.3470 H   0  0  0  0  0  0  0  0  0  0  0  0
    7.2423   24.2153   32.5596 H   0  0  0  0  0  0  0  0  0  0  0  0
    8.5800   24.6373   30.5864 H   0  0  0  0  0  0  0  0  0  0  0  0
    7.5367   26.9076   30.5828 H   0  0  0  0  0  0  0  0  0  0  0  0
    6.5040   24.4303   28.6619 H   0  0  0  0  0  0  0  0  0  0  0  0
    8.2518   22.7873   28.6783 H   0  0  0  0  0  0  0  0  0  0  0  0
    7.7822   22.2102   30.3172 H   0  0  0  0  0  0  0  0  0  0  0  0
    6.0163   21.2050   29.4962 H   0  0  0  0  0  0  0  0  0  0  0  0
  1  2  2  0
  2  3  1  0
  2  8  1  0
  3  4  1  0
  4  5  1  0
  4  6  2  0
  6  7  1  0
  7  8  2  0
  7 12  1  0
  8  9  1  0
  9 10  1  0
 10 11  2  0
 10 12  1  0
 13 12  1  0
 13 14  1  0
 13 15  1  0
 14 18  1  0
 15 16  1  0
 16 17  1  0
 16 18  1  0
 18 19  1  0
 19 20  1  0
  3 21  1  0
  5 22  1  0
  5 23  1  0
  9 24  1  0
 13 25  1  6
 15 26  1  0
 15 27  1  0
 16 28  1  1
 17 29  1  0
 18 30  1  6
 19 31  1  0
 19 32  1  0
 20 33  1  0
M  END
>  <filename_input>  (15) 
7OLI_8HG_docked.sdf

>  <pdb_id>  (15) 
7OLI_8HG

>  <pose_rank>  (15) 
14

>  <num_atoms_heavy>  (15) 
20

>  <num_torsions>  (15) 
2

>  <pose>  (15) 
[3.3054114840714464, 20.410696511397063, 35.22003374115532, 0.3808421915839262, 0.7088855526906099, 3.9994769243400357, -6.187538634665693, 2.1592531489875024]

>  <energy>  (15) 
-478.269065769203

>  <inter_energy>  (15) 
-484.74300117571613

>  <intra_energy>  (15) 
10.827791354214645

>  <rmsd>  (15) 
5.44761

>  <sdf_rank>  (15) 
0

$$$$

     RDKit          3D

 33 35  0  0  0  0  0  0  0  0999 V2000
    2.9073   25.7980   32.4036 O   0  0  0  0  0  0  0  0  0  0  0  0
    4.0182   25.4308   32.0378 C   0  0  0  0  0  0  0  0  0  0  0  0
    4.7234   26.1681   31.0784 N   0  0  0  0  0  0  0  0  0  0  0  0
    6.0161   25.8578   30.6230 C   0  0  0  0  0  0  0  0  0  0  0  0
    6.6089   26.6580   29.6357 N   0  0  0  0  0  0  0  0  0  0  0  0
    6.7033   24.7509   31.1484 N   0  0  0  0  0  0  0  0  0  0  0  0
    6.0152   23.9785   32.1193 C   0  0  0  0  0  0  0  0  0  0  0  0
    4.7248   24.2695   32.5270 C   0  0  0  0  0  0  0  0  0  0  0  0
    4.2944   23.3421   33.5026 N   0  0  0  0  0  0  0  0  0  0  0  0
    5.4069   22.4270   33.6696 C   0  0  0  0  0  0  0  0  0  0  0  0
    5.5052   21.4538   34.4091 O   0  0  0  0  0  0  0  0  0  0  0  0
    6.4709   22.8183   32.7476 N   0  0  0  0  0  0  0  0  0  0  0  0
    7.8103   22.2173   32.6877 C   0  0  2  0  0  0  0  0  0  0  0  0
    7.3667   20.7149   32.3786 O   0  0  0  0  0  0  0  0  0  0  0  0
    8.4989   22.1486   33.8148 C   0  0  0  0  0  0  0  0  0  0  0  0
    9.2631   20.8137   33.7045 C   0  0  2  0  0  0  0  0  0  0  0  0
   10.5107   20.9717   33.0677 O   0  0  0  0  0  0  0  0  0  0  0  0
    8.3561   19.9115   32.8540 C   0  0  1  0  0  0  0  0  0  0  0  0
    7.6776   18.7851   33.6582 C   0  0  0  0  0  0  0  0  0  0  0  0
    6.2583   18.9386   33.6098 O   0  0  0  0  0  0  0  0  0  0  0  0
    4.2615   26.9971   30.6780 H   0  0  0  0  0  0  0  0  0  0  0  0
    7.5561   26.4389   29.2953 H   0  0  0  0  0  0  0  0  0  0  0  0
    6.0973   27.4649   29.2508 H   0  0  0  0  0  0  0  0  0  0  0  0
    3.3870   23.3207   33.9895 H   0  0  0  0  0  0  0  0  0  0  0  0
    8.4612   22.7857   32.0070 H   0  0  0  0  0  0  0  0  0  0  0  0
    9.1981   22.9937   33.8979 H   0  0  0  0  0  0  0  0  0  0  0  0
    7.8568   22.1962   34.7066 H   0  0  0  0  0  0  0  0  0  0  0  0
    9.4773   20.3976   34.6999 H   0  0  0  0  0  0  0  0  0  0  0  0
   11.2211   21.0616   33.7513 H   0  0  0  0  0  0  0  0  0  0  0  0
    8.9728   19.4338   32.0784 H   0  0  0  0  0  0  0  0  0  0  0  0
    7.9539   17.8118   33.2267 H   0  0  0  0  0  0  0  0  0  0  0  0
    8.0114   18.8367   34.7051 H   0  0  0  0  0  0  0  0  0  0  0  0
    5.8990   18.9775   34.5314 H   0  0  0  0  0  0  0  0  0  0  0  0
  1  2  2  0
  2  3  1  0
  2  8  1  0
  3  4  1  0
  4  5  1  0
  4  6  2  0
  6  7  1  0
  7  8  2  0
  7 12  1  0
  8  9  1  0
  9 10  1  0
 10 11  2  0
 10 12  1  0
 13 12  1  0
 13 14  1  0
 13 15  1  0
 14 18  1  0
 15 16  1  0
 16 17  1  0
 16 18  1  0
 18 19  1  0
 19 20  1  0
  3 21  1  0
  5 22  1  0
  5 23  1  0
  9 24  1  0
 13 25  1  6
 15 26  1  0
 15 27  1  0
 16 28  1  1
 17 29  1  0
 18 30  1  6
 19 31  1  0
 19 32  1  0
 20 33  1  0
M  END
>  <filename_input>  (16) 
7OLI_8HG_docked.sdf

>  <pdb_id>  (16) 
7OLI_8HG

>  <pose_rank>  (16) 
15

>  <num_atoms_heavy>  (16) 
20

>  <num_torsions>  (16) 
2

>  <pose>  (16) 
[2.9072934061122004, 25.79801429202033, 32.40358389506757, 1.0253371703406162, 3.3214669802624393, -1.351345880523618, -9.644340572217748, 1.2556995517963938]

>  <energy>  (16) 
-398.25529364211565

>  <inter_energy>  (16) 
-415.9422678559853

>  <intra_energy>  (16) 
28.707737320944645

>  <rmsd>  (16) 
5.41689

>  <sdf_rank>  (16) 
0

$$$$

     RDKit          3D

 33 35  0  0  0  0  0  0  0  0999 V2000
    1.3692   22.1333   33.3261 O   0  0  0  0  0  0  0  0  0  0  0  0
    2.4815   22.6386   33.4279 C   0  0  0  0  0  0  0  0  0  0  0  0
    3.0286   22.8883   34.6927 N   0  0  0  0  0  0  0  0  0  0  0  0
    4.3082   23.4234   34.9187 C   0  0  0  0  0  0  0  0  0  0  0  0
    4.7352   23.6551   36.2343 N   0  0  0  0  0  0  0  0  0  0  0  0
    5.1473   23.7298   33.8345 N   0  0  0  0  0  0  0  0  0  0  0  0
    4.6217   23.4937   32.5381 C   0  0  0  0  0  0  0  0  0  0  0  0
    3.3429   23.0074   32.3283 C   0  0  0  0  0  0  0  0  0  0  0  0
    3.0895   22.8653   30.9453 N   0  0  0  0  0  0  0  0  0  0  0  0
    4.3025   23.3172   30.2915 C   0  0  0  0  0  0  0  0  0  0  0  0
    4.5601   23.3796   29.0942 O   0  0  0  0  0  0  0  0  0  0  0  0
    5.2450   23.7581   31.3173 N   0  0  0  0  0  0  0  0  0  0  0  0
    6.6320   24.1783   31.0762 C   0  0  2  0  0  0  0  0  0  0  0  0
    7.3636   22.9584   31.8015 O   0  0  0  0  0  0  0  0  0  0  0  0
    7.0597   25.2602   31.7054 C   0  0  0  0  0  0  0  0  0  0  0  0
    8.5333   24.9441   32.0320 C   0  0  2  0  0  0  0  0  0  0  0  0
    9.3989   25.3295   30.9884 O   0  0  0  0  0  0  0  0  0  0  0  0
    8.5777   23.4185   32.2073 C   0  0  1  0  0  0  0  0  0  0  0  0
    8.7657   22.9709   33.6702 C   0  0  0  0  0  0  0  0  0  0  0  0
   10.0618   23.3523   34.1338 O   0  0  0  0  0  0  0  0  0  0  0  0
    2.4519   22.6637   35.5160 H   0  0  0  0  0  0  0  0  0  0  0  0
    5.6713   24.0470   36.4105 H   0  0  0  0  0  0  0  0  0  0  0  0
    4.1127   23.4333   37.0244 H   0  0  0  0  0  0  0  0  0  0  0  0
    2.2296   22.5164   30.4985 H   0  0  0  0  0  0  0  0  0  0  0  0
    6.7902   24.4042   30.0113 H   0  0  0  0  0  0  0  0  0  0  0  0
    6.9843   26.1453   31.0566 H   0  0  0  0  0  0  0  0  0  0  0  0
    6.4671   25.4898   32.6032 H   0  0  0  0  0  0  0  0  0  0  0  0
    8.8666   25.4926   32.9253 H   0  0  0  0  0  0  0  0  0  0  0  0
   10.2328   25.7008   31.3715 H   0  0  0  0  0  0  0  0  0  0  0  0
    9.4319   23.0292   31.6338 H   0  0  0  0  0  0  0  0  0  0  0  0
    7.9989   23.4476   34.2986 H   0  0  0  0  0  0  0  0  0  0  0  0
    8.6681   21.8768   33.7290 H   0  0  0  0  0  0  0  0  0  0  0  0
   10.0706   23.3549   35.1238 H   0  0  0  0  0  0  0  0  0  0  0  0
  1  2  2  0
  2  3  1  0
  2  8  1  0
  3  4  1  0
  4  5  1  0
  4  6  2  0
  6  7  1  0
  7  8  2  0
  7 12  1  0
  8  9  1  0
  9 10  1  0
 10 11  2  0
 10 12  1  0
 13 12  1  0
 13 14  1  0
 13 15  1  0
 14 18  1  0
 15 16  1  0
 16 17  1  0
 16 18  1  0
 18 19  1  0
 19 20  1  0
  3 21  1  0
  5 22  1  0
  5 23  1  0
  9 24  1  0
 13 25  1  6
 15 26  1  0
 15 27  1  0
 16 28  1  1
 17 29  1  0
 18 30  1  6
 19 31  1  0
 19 32  1  0
 20 33  1  0
M  END
>  <filename_input>  (17) 
7OLI_8HG_docked.sdf

>  <pdb_id>  (17) 
7OLI_8HG

>  <pose_rank>  (17) 
16

>  <num_atoms_heavy>  (17) 
20

>  <num_torsions>  (17) 
2

>  <pose>  (17) 
[1.3692098523827005, 22.133341309742494, 33.32606589528949, -0.7537291980765146, 2.768373521238928, 2.4570955191028157, 6.216043609095802, -1.9726438773178598]

>  <energy>  (17) 
-440.3914744699617

>  <inter_energy>  (17) 
-457.5390179307566

>  <intra_energy>  (17) 
10.884402653211895

>  <rmsd>  (17) 
5.92305

>  <sdf_rank>  (17) 
0

$$$$

     RDKit          3D

 33 35  0  0  0  0  0  0  0  0999 V2000
    3.7865   20.8612   33.7145 O   0  0  0  0  0  0  0  0  0  0  0  0
    4.9801   21.1371   33.6701 C   0  0  0  0  0  0  0  0  0  0  0  0
    5.9257   20.2654   34.2248 N   0  0  0  0  0  0  0  0  0  0  0  0
    7.3160   20.4669   34.1899 C   0  0  0  0  0  0  0  0  0  0  0  0
    8.1626   19.5344   34.8067 N   0  0  0  0  0  0  0  0  0  0  0  0
    7.8501   21.5970   33.5487 N   0  0  0  0  0  0  0  0  0  0  0  0
    6.9190   22.5039   32.9802 C   0  0  0  0  0  0  0  0  0  0  0  0
    5.5499   22.3161   33.0600 C   0  0  0  0  0  0  0  0  0  0  0  0
    4.8685   23.3667   32.4049 N   0  0  0  0  0  0  0  0  0  0  0  0
    5.9127   24.2473   31.9180 C   0  0  0  0  0  0  0  0  0  0  0  0
    5.8116   25.2941   31.2872 O   0  0  0  0  0  0  0  0  0  0  0  0
    7.2051   23.7085   32.3354 N   0  0  0  0  0  0  0  0  0  0  0  0
    8.5172   24.2419   31.9445 C   0  0  2  0  0  0  0  0  0  0  0  0
    8.8652   24.9979   33.3071 O   0  0  0  0  0  0  0  0  0  0  0  0
    8.5411   25.1808   31.0134 C   0  0  0  0  0  0  0  0  0  0  0  0
    9.6898   26.1118   31.4514 C   0  0  2  0  0  0  0  0  0  0  0  0
   10.9315   25.6994   30.9272 O   0  0  0  0  0  0  0  0  0  0  0  0
    9.7135   26.0111   32.9841 C   0  0  1  0  0  0  0  0  0  0  0  0
    9.1964   27.2780   33.6936 C   0  0  0  0  0  0  0  0  0  0  0  0
   10.2974   28.0571   34.1637 O   0  0  0  0  0  0  0  0  0  0  0  0
    5.5771   19.4161   34.6917 H   0  0  0  0  0  0  0  0  0  0  0  0
    9.1830   19.6731   34.7866 H   0  0  0  0  0  0  0  0  0  0  0  0
    7.7640   18.7109   35.2798 H   0  0  0  0  0  0  0  0  0  0  0  0
    3.8507   23.4819   32.2968 H   0  0  0  0  0  0  0  0  0  0  0  0
    9.1566   23.4433   31.5401 H   0  0  0  0  0  0  0  0  0  0  0  0
    8.7463   24.7454   30.0243 H   0  0  0  0  0  0  0  0  0  0  0  0
    7.5806   25.7088   30.9199 H   0  0  0  0  0  0  0  0  0  0  0  0
    9.5282   27.1371   31.0871 H   0  0  0  0  0  0  0  0  0  0  0  0
   11.5516   25.4934   31.6709 H   0  0  0  0  0  0  0  0  0  0  0  0
   10.7547   25.8587   33.3046 H   0  0  0  0  0  0  0  0  0  0  0  0
    8.6028   27.8755   32.9860 H   0  0  0  0  0  0  0  0  0  0  0  0
    8.5705   26.9836   34.5489 H   0  0  0  0  0  0  0  0  0  0  0  0
   10.3011   28.0597   35.1536 H   0  0  0  0  0  0  0  0  0  0  0  0
  1  2  2  0
  2  3  1  0
  2  8  1  0
  3  4  1  0
  4  5  1  0
  4  6  2  0
  6  7  1  0
  7  8  2  0
  7 12  1  0
  8  9  1  0
  9 10  1  0
 10 11  2  0
 10 12  1  0
 13 12  1  0
 13 14  1  0
 13 15  1  0
 14 18  1  0
 15 16  1  0
 16 17  1  0
 16 18  1  0
 18 19  1  0
 19 20  1  0
  3 21  1  0
  5 22  1  0
  5 23  1  0
  9 24  1  0
 13 25  1  6
 15 26  1  0
 15 27  1  0
 16 28  1  1
 17 29  1  0
 18 30  1  1
 19 31  1  0
 19 32  1  0
 20 33  1  0
M  END
>  <filename_input>  (18) 
7OLI_8HG_docked.sdf

>  <pdb_id>  (18) 
7OLI_8HG

>  <pose_rank>  (18) 
17

>  <num_atoms_heavy>  (18) 
20

>  <num_torsions>  (18) 
2

>  <pose>  (18) 
[3.7865176436437906, 20.861173491912783, 33.71454175450469, -0.48614028614040783, 0.9844826180881557, 3.545911565420266, -2.597219785130893, -2.5726275283292965]

>  <energy>  (18) 
-458.0195418901454

>  <inter_energy>  (18) 
-482.84131325067665

>  <intra_energy>  (18) 
21.903086141896825

>  <rmsd>  (18) 
5.51685

>  <sdf_rank>  (18) 
0

$$$$

     RDKit          3D

 33 35  0  0  0  0  0  0  0  0999 V2000
    2.8300   20.6084   34.2482 O   0  0  0  0  0  0  0  0  0  0  0  0
    3.3555   21.6336   33.8292 C   0  0  0  0  0  0  0  0  0  0  0  0
    2.5735   22.7595   33.5421 N   0  0  0  0  0  0  0  0  0  0  0  0
    3.0803   23.9929   33.0988 C   0  0  0  0  0  0  0  0  0  0  0  0
    2.1922   25.0409   32.8166 N   0  0  0  0  0  0  0  0  0  0  0  0
    4.4641   24.1696   32.9333 N   0  0  0  0  0  0  0  0  0  0  0  0
    5.2854   23.0466   33.2106 C   0  0  0  0  0  0  0  0  0  0  0  0
    4.7699   21.8238   33.6044 C   0  0  0  0  0  0  0  0  0  0  0  0
    5.8125   20.8936   33.8160 N   0  0  0  0  0  0  0  0  0  0  0  0
    7.0311   21.6167   33.5078 C   0  0  0  0  0  0  0  0  0  0  0  0
    8.1934   21.2275   33.5452 O   0  0  0  0  0  0  0  0  0  0  0  0
    6.6728   22.9665   33.0783 N   0  0  0  0  0  0  0  0  0  0  0  0
    7.6230   24.0491   32.7886 C   0  0  2  0  0  0  0  0  0  0  0  0
    8.9384   23.1565   32.6384 O   0  0  0  0  0  0  0  0  0  0  0  0
    7.8935   24.9004   33.7639 C   0  0  0  0  0  0  0  0  0  0  0  0
    9.3873   25.2296   33.5685 C   0  0  2  0  0  0  0  0  0  0  0  0
    9.5769   26.3211   32.6971 O   0  0  0  0  0  0  0  0  0  0  0  0
    9.9911   23.9597   32.9499 C   0  0  1  0  0  0  0  0  0  0  0  0
   10.8921   23.1696   33.9194 C   0  0  0  0  0  0  0  0  0  0  0  0
   12.2649   23.4682   33.6618 O   0  0  0  0  0  0  0  0  0  0  0  0
    1.5541   22.6775   33.6647 H   0  0  0  0  0  0  0  0  0  0  0  0
    2.5537   25.9488   32.4911 H   0  0  0  0  0  0  0  0  0  0  0  0
    1.1783   24.9028   32.9348 H   0  0  0  0  0  0  0  0  0  0  0  0
    5.7256   19.9141   34.1227 H   0  0  0  0  0  0  0  0  0  0  0  0
    7.2515   24.6838   31.9706 H   0  0  0  0  0  0  0  0  0  0  0  0
    7.2781   25.8076   33.6729 H   0  0  0  0  0  0  0  0  0  0  0  0
    7.6782   24.4856   34.7597 H   0  0  0  0  0  0  0  0  0  0  0  0
    9.8575   25.5128   34.5218 H   0  0  0  0  0  0  0  0  0  0  0  0
    9.7201   27.1452   33.2266 H   0  0  0  0  0  0  0  0  0  0  0  0
   10.6135   24.2550   32.0923 H   0  0  0  0  0  0  0  0  0  0  0  0
   10.6464   23.4486   34.9547 H   0  0  0  0  0  0  0  0  0  0  0  0
   10.7228   22.0925   33.7738 H   0  0  0  0  0  0  0  0  0  0  0  0
   12.7466   23.5730   34.5204 H   0  0  0  0  0  0  0  0  0  0  0  0
  1  2  2  0
  2  3  1  0
  2  8  1  0
  3  4  1  0
  4  5  1  0
  4  6  2  0
  6  7  1  0
  7  8  2  0
  7 12  1  0
  8  9  1  0
  9 10  1  0
 10 11  2  0
 10 12  1  0
 13 12  1  0
 13 14  1  0
 13 15  1  0
 14 18  1  0
 15 16  1  0
 16 17  1  0
 16 18  1  0
 18 19  1  0
 19 20  1  0
  3 21  1  0
  5 22  1  0
  5 23  1  0
  9 24  1  0
 13 25  1  6
 15 26  1  0
 15 27  1  0
 16 28  1  1
 17 29  1  0
 18 30  1  6
 19 31  1  0
 19 32  1  0
 20 33  1  0
M  END
>  <filename_input>  (19) 
7OLI_8HG_docked.sdf

>  <pdb_id>  (19) 
7OLI_8HG

>  <pose_rank>  (19) 
18

>  <num_atoms_heavy>  (19) 
20

>  <num_torsions>  (19) 
2

>  <pose>  (19) 
[2.829972038104322, 20.608434882920836, 34.248238975315516, -1.4017482802203514, 3.2186662809815836, -0.8420860777452608, -10.382185109913905, -2.540863579474268]

>  <energy>  (19) 
-507.8529267437205

>  <inter_energy>  (19) 
-550.0144265676837

>  <intra_energy>  (19) 
43.618081209964615

>  <rmsd>  (19) 
5.61642

>  <sdf_rank>  (19) 
0

$$$$

     RDKit          3D

 33 35  0  0  0  0  0  0  0  0999 V2000
    4.0925   23.5545   32.1231 O   0  0  0  0  0  0  0  0  0  0  0  0
    5.2859   23.7084   31.8885 C   0  0  0  0  0  0  0  0  0  0  0  0
    5.7185   24.7991   31.1238 N   0  0  0  0  0  0  0  0  0  0  0  0
    7.0626   25.0890   30.8336 C   0  0  0  0  0  0  0  0  0  0  0  0
    7.3702   26.1974   30.0314 N   0  0  0  0  0  0  0  0  0  0  0  0
    8.0866   24.2699   31.3376 N   0  0  0  0  0  0  0  0  0  0  0  0
    7.6826   23.1524   32.1125 C   0  0  0  0  0  0  0  0  0  0  0  0
    6.3530   22.8531   32.3542 C   0  0  0  0  0  0  0  0  0  0  0  0
    6.2456   21.6940   33.1555 N   0  0  0  0  0  0  0  0  0  0  0  0
    7.6124   21.2693   33.3891 C   0  0  0  0  0  0  0  0  0  0  0  0
    8.0267   20.3102   34.0311 O   0  0  0  0  0  0  0  0  0  0  0  0
    8.5080   22.1792   32.6784 N   0  0  0  0  0  0  0  0  0  0  0  0
    9.9752   22.1628   32.7542 C   0  0  2  0  0  0  0  0  0  0  0  0
   10.1363   22.9640   34.1259 O   0  0  0  0  0  0  0  0  0  0  0  0
   10.6402   22.8741   31.8593 C   0  0  0  0  0  0  0  0  0  0  0  0
   11.8548   23.4154   32.6402 C   0  0  2  0  0  0  0  0  0  0  0  0
   12.9472   22.5255   32.5988 O   0  0  0  0  0  0  0  0  0  0  0  0
   11.3579   23.5611   34.0865 C   0  0  1  0  0  0  0  0  0  0  0  0
   11.1606   25.0253   34.5264 C   0  0  0  0  0  0  0  0  0  0  0  0
   12.3554   25.7708   34.2883 O   0  0  0  0  0  0  0  0  0  0  0  0
    5.0003   25.4340   30.7472 H   0  0  0  0  0  0  0  0  0  0  0  0
    8.3523   26.4184   29.8130 H   0  0  0  0  0  0  0  0  0  0  0  0
    6.6142   26.7905   29.6606 H   0  0  0  0  0  0  0  0  0  0  0  0
    5.3834   21.2475   33.4992 H   0  0  0  0  0  0  0  0  0  0  0  0
   10.3596   21.1400   32.6269 H   0  0  0  0  0  0  0  0  0  0  0  0
   10.9653   22.2414   31.0202 H   0  0  0  0  0  0  0  0  0  0  0  0
   10.0299   23.6755   31.4172 H   0  0  0  0  0  0  0  0  0  0  0  0
   12.2130   24.3612   32.2078 H   0  0  0  0  0  0  0  0  0  0  0  0
   13.2242   22.2999   33.5221 H   0  0  0  0  0  0  0  0  0  0  0  0
   12.1085   23.1167   34.7566 H   0  0  0  0  0  0  0  0  0  0  0  0
   10.3334   25.4696   33.9534 H   0  0  0  0  0  0  0  0  0  0  0  0
   10.9259   25.0516   35.6007 H   0  0  0  0  0  0  0  0  0  0  0  0
   12.7635   26.0255   35.1536 H   0  0  0  0  0  0  0  0  0  0  0  0
  1  2  2  0
  2  3  1  0
  2  8  1  0
  3  4  1  0
  4  5  1  0
  4  6  2  0
  6  7  1  0
  7  8  2  0
  7 12  1  0
  8  9  1  0
  9 10  1  0
 10 11  2  0
 10 12  1  0
 13 12  1  0
 13 14  1  0
 13 15  1  0
 14 18  1  0
 15 16  1  0
 16 17  1  0
 16 18  1  0
 18 19  1  0
 19 20  1  0
  3 21  1  0
  5 22  1  0
  5 23  1  0
  9 24  1  0
 13 25  1  1
 15 26  1  0
 15 27  1  0
 16 28  1  6
 17 29  1  0
 18 30  1  1
 19 31  1  0
 19 32  1  0
 20 33  1  0
M  END
>  <filename_input>  (20) 
7OLI_8HG_docked.sdf

>  <pdb_id>  (20) 
7OLI_8HG

>  <pose_rank>  (20) 
19

>  <num_atoms_heavy>  (20) 
20

>  <num_torsions>  (20) 
2

>  <pose>  (20) 
[4.092535145153828, 23.554509951594365, 32.12305192117739, 0.30378903531060053, 3.2867598990922278, -1.154626975284466, -12.093548350415311, -1.7363342965700865]

>  <energy>  (20) 
-436.21217710040736

>  <inter_energy>  (20) 
-442.41435498272347

>  <intra_energy>  (20) 
16.581208724866862

>  <rmsd>  (20) 
5.14108

>  <sdf_rank>  (20) 
0

$$$$

     RDKit          3D

 33 35  0  0  0  0  0  0  0  0999 V2000
    2.3322   24.6196   32.0501 O   0  0  0  0  0  0  0  0  0  0  0  0
    2.3113   23.9466   33.0745 C   0  0  0  0  0  0  0  0  0  0  0  0
    3.3417   23.0361   33.3403 N   0  0  0  0  0  0  0  0  0  0  0  0
    3.4341   22.2498   34.5013 C   0  0  0  0  0  0  0  0  0  0  0  0
    4.5015   21.3510   34.6413 N   0  0  0  0  0  0  0  0  0  0  0  0
    2.4603   22.3594   35.5080 N   0  0  0  0  0  0  0  0  0  0  0  0
    1.3988   23.2695   35.2682 C   0  0  0  0  0  0  0  0  0  0  0  0
    1.2961   24.0059   34.1007 C   0  0  0  0  0  0  0  0  0  0  0  0
    0.1487   24.8300   34.1361 N   0  0  0  0  0  0  0  0  0  0  0  0
   -0.4804   24.5457   35.4114 C   0  0  0  0  0  0  0  0  0  0  0  0
   -1.5046   25.0183   35.8925 O   0  0  0  0  0  0  0  0  0  0  0  0
    0.3009   23.5170   36.0942 N   0  0  0  0  0  0  0  0  0  0  0  0
    0.0639   23.0341   37.4615 C   0  0  2  0  0  0  0  0  0  0  0  0
   -1.0607   24.0881   37.8781 O   0  0  0  0  0  0  0  0  0  0  0  0
    1.0353   23.1994   38.3437 C   0  0  0  0  0  0  0  0  0  0  0  0
    0.2947   23.5013   39.6622 C   0  0  2  0  0  0  0  0  0  0  0  0
   -0.0165   22.3248   40.3733 O   0  0  0  0  0  0  0  0  0  0  0  0
   -1.0006   24.2064   39.2319 C   0  0  1  0  0  0  0  0  0  0  0  0
   -1.0196   25.7133   39.5560 C   0  0  0  0  0  0  0  0  0  0  0  0
   -1.5865   25.9264   40.8496 O   0  0  0  0  0  0  0  0  0  0  0  0
    4.0850   22.9356   32.6344 H   0  0  0  0  0  0  0  0  0  0  0  0
    4.5781   20.7703   35.4885 H   0  0  0  0  0  0  0  0  0  0  0  0
    5.2089   21.2717   33.8969 H   0  0  0  0  0  0  0  0  0  0  0  0
   -0.1715   25.4896   33.4127 H   0  0  0  0  0  0  0  0  0  0  0  0
   -0.1223   21.9500   37.4639 H   0  0  0  0  0  0  0  0  0  0  0  0
    1.6399   22.2851   38.4354 H   0  0  0  0  0  0  0  0  0  0  0  0
    1.7346   23.9991   38.0583 H   0  0  0  0  0  0  0  0  0  0  0  0
    0.9168   24.1106   40.3343 H   0  0  0  0  0  0  0  0  0  0  0  0
    0.0310   22.5046   41.3456 H   0  0  0  0  0  0  0  0  0  0  0  0
   -1.8410   23.7453   39.7714 H   0  0  0  0  0  0  0  0  0  0  0  0
    0.0091   26.1025   39.5403 H   0  0  0  0  0  0  0  0  0  0  0  0
   -1.6276   26.2373   38.8039 H   0  0  0  0  0  0  0  0  0  0  0  0
   -0.9263   25.6782   41.5443 H   0  0  0  0  0  0  0  0  0  0  0  0
  1  2  2  0
  2  3  1  0
  2  8  1  0
  3  4  1  0
  4  5  1  0
  4  6  2  0
  6  7  1  0
  7  8  2  0
  7 12  1  0
  8  9  1  0
  9 10  1  0
 10 11  2  0
 10 12  1  0
 13 12  1  0
 13 14  1  0
 13 15  1  0
 14 18  1  0
 15 16  1  0
 16 17  1  0
 16 18  1  0
 18 19  1  0
 19 20  1  0
  3 21  1  0
  5 22  1  0
  5 23  1  0
  9 24  1  0
 13 25  1  6
 15 26  1  0
 15 27  1  0
 16 28  1  1
 17 29  1  0
 18 30  1  1
 19 31  1  0
 19 32  1  0
 20 33  1  0
M  END
>  <filename_input>  (21) 
7OLI_8HG_docked.sdf

>  <pdb_id>  (21) 
7OLI_8HG

>  <pose_rank>  (21) 
20

>  <num_atoms_heavy>  (21) 
20

>  <num_torsions>  (21) 
2

>  <pose>  (21) 
[2.3322156940400127, 24.619600405430255, 32.050147257589735, 2.4080938479485527, 1.1977364868966383, -1.0481452509549611, -10.802551080524758, -2.391476736104028]

>  <energy>  (21) 
-153.22448355056753

>  <inter_energy>  (21) 
-196.76668137490245

>  <intra_energy>  (21) 
46.2585517311217

>  <rmsd>  (21) 
9.61992

>  <sdf_rank>  (21) 
0

$$$$

     RDKit          3D

 33 35  0  0  0  0  0  0  0  0999 V2000
    2.2220   25.9074   32.7657 O   0  0  0  0  0  0  0  0  0  0  0  0
    3.2322   25.4573   32.2369 C   0  0  0  0  0  0  0  0  0  0  0  0
    3.7925   26.1009   31.1263 N   0  0  0  0  0  0  0  0  0  0  0  0
    4.9685   25.6922   30.4746 C   0  0  0  0  0  0  0  0  0  0  0  0
    5.4164   26.4035   29.3521 N   0  0  0  0  0  0  0  0  0  0  0  0
    5.6830   24.5761   30.9408 N   0  0  0  0  0  0  0  0  0  0  0  0
    5.1399   23.8973   32.0618 C   0  0  0  0  0  0  0  0  0  0  0  0
    3.9569   24.2841   32.6676 C   0  0  0  0  0  0  0  0  0  0  0  0
    3.6604   23.4358   33.7582 N   0  0  0  0  0  0  0  0  0  0  0  0
    4.7395   22.4674   33.7868 C   0  0  0  0  0  0  0  0  0  0  0  0
    4.9192   21.5302   34.5570 O   0  0  0  0  0  0  0  0  0  0  0  0
    5.6424   22.7469   32.6725 N   0  0  0  0  0  0  0  0  0  0  0  0
    6.9198   22.0666   32.4194 C   0  0  2  0  0  0  0  0  0  0  0  0
    7.6696   22.4936   33.7629 O   0  0  0  0  0  0  0  0  0  0  0  0
    7.6756   22.5330   31.4395 C   0  0  0  0  0  0  0  0  0  0  0  0
    9.1159   22.3503   31.9595 C   0  0  2  0  0  0  0  0  0  0  0  0
    9.6395   21.0845   31.6276 O   0  0  0  0  0  0  0  0  0  0  0  0
    9.0014   22.4814   33.4858 C   0  0  1  0  0  0  0  0  0  0  0  0
    9.5908   23.7942   34.0382 C   0  0  0  0  0  0  0  0  0  0  0  0
   11.0173   23.7215   34.0486 O   0  0  0  0  0  0  0  0  0  0  0  0
    3.3080   26.9332   30.7612 H   0  0  0  0  0  0  0  0  0  0  0  0
    6.2772   26.1119   28.8674 H   0  0  0  0  0  0  0  0  0  0  0  0
    4.8847   27.2176   29.0123 H   0  0  0  0  0  0  0  0  0  0  0  0
    2.8528   23.4929   34.3950 H   0  0  0  0  0  0  0  0  0  0  0  0
    6.7527   21.0122   32.1540 H   0  0  0  0  0  0  0  0  0  0  0  0
    7.5175   21.9571   30.5157 H   0  0  0  0  0  0  0  0  0  0  0  0
    7.4456   23.5791   31.1888 H   0  0  0  0  0  0  0  0  0  0  0  0
    9.7948   23.0904   31.5109 H   0  0  0  0  0  0  0  0  0  0  0  0
    9.8461   20.5850   32.4570 H   0  0  0  0  0  0  0  0  0  0  0  0
    9.5592   21.6530   33.9469 H   0  0  0  0  0  0  0  0  0  0  0  0
    9.2732   24.6328   33.4011 H   0  0  0  0  0  0  0  0  0  0  0  0
    9.2290   23.9490   35.0654 H   0  0  0  0  0  0  0  0  0  0  0  0
   11.3400   23.7050   34.9844 H   0  0  0  0  0  0  0  0  0  0  0  0
  1  2  2  0
  2  3  1  0
  2  8  1  0
  3  4  1  0
  4  5  1  0
  4  6  2  0
  6  7  1  0
  7  8  2  0
  7 12  1  0
  8  9  1  0
  9 10  1  0
 10 11  2  0
 10 12  1  0
 13 12  1  0
 13 14  1  0
 13 15  1  0
 14 18  1  0
 15 16  1  0
 16 17  1  0
 16 18  1  0
 18 19  1  0
 19 20  1  0
  3 21  1  0
  5 22  1  0
  5 23  1  0
  9 24  1  0
 13 25  1  6
 15 26  1  0
 15 27  1  0
 16 28  1  6
 17 29  1  0
 18 30  1  1
 19 31  1  0
 19 32  1  0
 20 33  1  0
M  END
>  <filename_input>  (22) 
7OLI_8HG_docked.sdf

>  <pdb_id>  (22) 
7OLI_8HG

>  <pose_rank>  (22) 
21

>  <num_atoms_heavy>  (22) 
20

>  <num_torsions>  (22) 
2

>  <pose>  (22) 
[2.2220210421899913, 25.90742667653175, 32.765673206407655, -0.6756816790695109, -2.073202607430712, 0.9900614582165046, -11.75628114759053, -2.1325337746542026]

>  <energy>  (22) 
-321.98893283549614

>  <inter_energy>  (22) 
-334.550094625441

>  <intra_energy>  (22) 
23.658118175002986

>  <rmsd>  (22) 
5.46328

>  <sdf_rank>  (22) 
0

$$$$

     RDKit          3D

 33 35  0  0  0  0  0  0  0  0999 V2000
   10.3731   18.5379   22.8221 O   0  0  0  0  0  0  0  0  0  0  0  0
   11.4932   18.6023   23.3160 C   0  0  0  0  0  0  0  0  0  0  0  0
   12.0804   17.4632   23.8810 N   0  0  0  0  0  0  0  0  0  0  0  0
   13.3718   17.4200   24.4334 C   0  0  0  0  0  0  0  0  0  0  0  0
   13.8403   16.2241   24.9966 N   0  0  0  0  0  0  0  0  0  0  0  0
   14.1814   18.5681   24.4273 N   0  0  0  0  0  0  0  0  0  0  0  0
   13.6149   19.7417   23.8668 C   0  0  0  0  0  0  0  0  0  0  0  0
   12.3253   19.7822   23.3656 C   0  0  0  0  0  0  0  0  0  0  0  0
   12.0293   21.0713   22.8679 N   0  0  0  0  0  0  0  0  0  0  0  0
   13.2270   21.8526   23.1090 C   0  0  0  0  0  0  0  0  0  0  0  0
   13.4494   23.0300   22.8483 O   0  0  0  0  0  0  0  0  0  0  0  0
   14.2042   21.0048   23.7880 N   0  0  0  0  0  0  0  0  0  0  0  0
   15.5879   21.3844   24.1044 C   0  0  2  0  0  0  0  0  0  0  0  0
   15.2772   22.3537   25.3346 O   0  0  0  0  0  0  0  0  0  0  0  0
   16.2299   22.1366   23.2263 C   0  0  0  0  0  0  0  0  0  0  0  0
   17.1004   23.0657   24.0964 C   0  0  2  0  0  0  0  0  0  0  0  0
   18.3583   22.4966   24.3799 O   0  0  0  0  0  0  0  0  0  0  0  0
   16.3048   23.2427   25.3986 C   0  0  1  0  0  0  0  0  0  0  0  0
   15.6820   24.6440   25.5554 C   0  0  0  0  0  0  0  0  0  0  0  0
   15.8086   25.3730   24.3336 O   0  0  0  0  0  0  0  0  0  0  0  0
   11.5262   16.5951   23.8923 H   0  0  0  0  0  0  0  0  0  0  0  0
   14.7853   16.1823   25.4040 H   0  0  0  0  0  0  0  0  0  0  0  0
   13.2393   15.3877   25.0027 H   0  0  0  0  0  0  0  0  0  0  0  0
   11.1527   21.3874   22.4290 H   0  0  0  0  0  0  0  0  0  0  0  0
   16.2214   20.4914   24.2103 H   0  0  0  0  0  0  0  0  0  0  0  0
   16.8566   21.5188   22.5663 H   0  0  0  0  0  0  0  0  0  0  0  0
   15.5478   22.6919   22.5657 H   0  0  0  0  0  0  0  0  0  0  0  0
   17.3028   24.0156   23.5800 H   0  0  0  0  0  0  0  0  0  0  0  0
   18.4818   22.4407   25.3606 H   0  0  0  0  0  0  0  0  0  0  0  0
   16.9902   23.0928   26.2458 H   0  0  0  0  0  0  0  0  0  0  0  0
   14.6169   24.5430   25.8110 H   0  0  0  0  0  0  0  0  0  0  0  0
   16.2074   25.1857   26.3558 H   0  0  0  0  0  0  0  0  0  0  0  0
   15.9743   26.3280   24.5348 H   0  0  0  0  0  0  0  0  0  0  0  0
  1  2  2  0
  2  3  1  0
  2  8  1  0
  3  4  1  0
  4  5  1  0
  4  6  2  0
  6  7  1  0
  7  8  2  0
  7 12  1  0
  8  9  1  0
  9 10  1  0
 10 11  2  0
 10 12  1  0
 13 12  1  0
 13 14  1  0
 13 15  1  0
 14 18  1  0
 15 16  1  0
 16 17  1  0
 16 18  1  0
 18 19  1  0
 19 20  1  0
  3 21  1  0
  5 22  1  0
  5 23  1  0
  9 24  1  0
 13 25  1  1
 15 26  1  0
 15 27  1  0
 16 28  1  6
 17 29  1  0
 18 30  1  1
 19 31  1  0
 19 32  1  0
 20 33  1  0
M  END
>  <filename_input>  (23) 
7OLI_8HG_docked.sdf

>  <pdb_id>  (23) 
7OLI_8HG

>  <pose_rank>  (23) 
22

>  <num_atoms_heavy>  (23) 
20

>  <num_torsions>  (23) 
2

>  <pose>  (23) 
[10.373068384425183, 18.537888955222932, 22.822071759497877, 0.961938413161013, -0.4982270528319066, -2.6321632031486817, -3.080977101760001, -0.6331585871221883]

>  <energy>  (23) 
-168.12711285674146

>  <inter_energy>  (23) 
-155.7726992611258

>  <intra_energy>  (23) 
15.321431223057534

>  <rmsd>  (23) 
12.1887

>  <sdf_rank>  (23) 
0

$$$$

     RDKit          3D

 33 35  0  0  0  0  0  0  0  0999 V2000
   16.7135   33.1414   28.6822 O   0  0  0  0  0  0  0  0  0  0  0  0
   16.4757   32.5466   27.6370 C   0  0  0  0  0  0  0  0  0  0  0  0
   15.8341   33.2065   26.5814 N   0  0  0  0  0  0  0  0  0  0  0  0
   15.5539   32.6302   25.3307 C   0  0  0  0  0  0  0  0  0  0  0  0
   14.8795   33.3851   24.3602 N   0  0  0  0  0  0  0  0  0  0  0  0
   15.9404   31.3069   25.0603 N   0  0  0  0  0  0  0  0  0  0  0  0
   16.5884   30.6073   26.1106 C   0  0  0  0  0  0  0  0  0  0  0  0
   16.8191   31.1724   27.3530 C   0  0  0  0  0  0  0  0  0  0  0  0
   17.4830   30.2541   28.1974 N   0  0  0  0  0  0  0  0  0  0  0  0
   17.6400   29.0536   27.3993 C   0  0  0  0  0  0  0  0  0  0  0  0
   18.1589   27.9845   27.7019 O   0  0  0  0  0  0  0  0  0  0  0  0
   17.0223   29.2806   26.0947 N   0  0  0  0  0  0  0  0  0  0  0  0
   17.0679   28.3519   24.9570 C   0  0  2  0  0  0  0  0  0  0  0  0
   16.2614   27.1451   25.6222 O   0  0  0  0  0  0  0  0  0  0  0  0
   18.2444   27.8428   24.6321 C   0  0  0  0  0  0  0  0  0  0  0  0
   17.9174   26.4044   24.1824 C   0  0  2  0  0  0  0  0  0  0  0  0
   17.6193   26.3372   22.8064 O   0  0  0  0  0  0  0  0  0  0  0  0
   16.6798   26.0089   25.0021 C   0  0  1  0  0  0  0  0  0  0  0  0
   16.9755   24.9737   26.1052 C   0  0  0  0  0  0  0  0  0  0  0  0
   18.0700   24.1435   25.7137 O   0  0  0  0  0  0  0  0  0  0  0  0
   15.5471   34.1841   26.7325 H   0  0  0  0  0  0  0  0  0  0  0  0
   14.6694   32.9717   23.4405 H   0  0  0  0  0  0  0  0  0  0  0  0
   14.5941   34.3529   24.5671 H   0  0  0  0  0  0  0  0  0  0  0  0
   17.7891   30.4049   29.1692 H   0  0  0  0  0  0  0  0  0  0  0  0
   16.7238   28.8472   24.0370 H   0  0  0  0  0  0  0  0  0  0  0  0
   18.7045   28.4137   23.8121 H   0  0  0  0  0  0  0  0  0  0  0  0
   18.9631   27.8730   25.4643 H   0  0  0  0  0  0  0  0  0  0  0  0
   18.7756   25.7353   24.3434 H   0  0  0  0  0  0  0  0  0  0  0  0
   16.6606   26.1213   22.6866 H   0  0  0  0  0  0  0  0  0  0  0  0
   15.9428   25.5591   24.3206 H   0  0  0  0  0  0  0  0  0  0  0  0
   17.2311   25.4979   27.0380 H   0  0  0  0  0  0  0  0  0  0  0  0
   16.0847   24.3477   26.2619 H   0  0  0  0  0  0  0  0  0  0  0  0
   18.5266   23.7971   26.5209 H   0  0  0  0  0  0  0  0  0  0  0  0
  1  2  2  0
  2  3  1  0
  2  8  1  0
  3  4  1  0
  4  5  1  0
  4  6  2  0
  6  7  1  0
  7  8  2  0
  7 12  1  0
  8  9  1  0
  9 10  1  0
 10 11  2  0
 10 12  1  0
 13 12  1  0
 13 14  1  0
 13 15  1  0
 14 18  1  0
 15 16  1  0
 16 17  1  0
 16 18  1  0
 18 19  1  0
 19 20  1  0
  3 21  1  0
  5 22  1  0
  5 23  1  0
  9 24  1  0
 13 25  1  6
 15 26  1  0
 15 27  1  0
 16 28  1  6
 17 29  1  0
 18 30  1  6
 19 31  1  0
 19 32  1  0
 20 33  1  0
M  END
>  <filename_input>  (24) 
7OLI_8HG_docked.sdf

>  <pdb_id>  (24) 
7OLI_8HG

>  <pose_rank>  (24) 
23

>  <num_atoms_heavy>  (24) 
20

>  <num_torsions>  (24) 
2

>  <pose>  (24) 
[16.713546921286913, 33.14136478000664, 28.68223946064362, -0.276541681138404, -0.9036723781265494, 0.8654790623609037, -3.281818034491224, -1.3188756223693958]

>  <energy>  (24) 
-153.89868118843563

>  <inter_energy>  (24) 
-161.02717138402136

>  <intra_energy>  (24) 
14.705420573024295

>  <rmsd>  (24) 
12.8837

>  <sdf_rank>  (24) 
0

$$$$

     RDKit          3D

 33 35  0  0  0  0  0  0  0  0999 V2000
    1.1606   30.8318   29.2044 O   0  0  0  0  0  0  0  0  0  0  0  0
    1.5728   30.4046   28.1319 C   0  0  0  0  0  0  0  0  0  0  0  0
    2.6778   31.0026   27.5132 N   0  0  0  0  0  0  0  0  0  0  0  0
    3.2533   30.5649   26.3082 C   0  0  0  0  0  0  0  0  0  0  0  0
    4.3436   31.2649   25.7715 N   0  0  0  0  0  0  0  0  0  0  0  0
    2.7343   29.4404   25.6451 N   0  0  0  0  0  0  0  0  0  0  0  0
    1.6106   28.8133   26.2424 C   0  0  0  0  0  0  0  0  0  0  0  0
    1.0261   29.2811   27.4067 C   0  0  0  0  0  0  0  0  0  0  0  0
   -0.0665   28.4633   27.7735 N   0  0  0  0  0  0  0  0  0  0  0  0
   -0.1418   27.4488   26.7400 C   0  0  0  0  0  0  0  0  0  0  0  0
   -0.9296   26.5160   26.6260 O   0  0  0  0  0  0  0  0  0  0  0  0
    0.9001   27.7167   25.7512 N   0  0  0  0  0  0  0  0  0  0  0  0
    1.2331   26.8544   24.6092 C   0  0  2  0  0  0  0  0  0  0  0  0
   -0.1645   26.9500   23.8430 O   0  0  0  0  0  0  0  0  0  0  0  0
    1.4076   25.5655   24.8486 C   0  0  0  0  0  0  0  0  0  0  0  0
    0.8285   24.8719   23.5989 C   0  0  2  0  0  0  0  0  0  0  0  0
    1.7973   24.7138   22.5873 O   0  0  0  0  0  0  0  0  0  0  0  0
   -0.2850   25.8104   23.1100 C   0  0  1  0  0  0  0  0  0  0  0  0
   -1.7050   25.2628   23.3547 C   0  0  0  0  0  0  0  0  0  0  0  0
   -1.6670   23.8387   23.4578 O   0  0  0  0  0  0  0  0  0  0  0  0
    3.0988   31.8218   27.9743 H   0  0  0  0  0  0  0  0  0  0  0  0
    4.7724   30.9520   24.8888 H   0  0  0  0  0  0  0  0  0  0  0  0
    4.7155   32.0919   26.2601 H   0  0  0  0  0  0  0  0  0  0  0  0
   -0.6772   28.5657   28.5967 H   0  0  0  0  0  0  0  0  0  0  0  0
    2.1772   27.1735   24.1435 H   0  0  0  0  0  0  0  0  0  0  0  0
    2.4759   25.3308   24.9663 H   0  0  0  0  0  0  0  0  0  0  0  0
    0.9201   25.2379   25.7786 H   0  0  0  0  0  0  0  0  0  0  0  0
    0.4684   23.8607   23.8394 H   0  0  0  0  0  0  0  0  0  0  0  0
    2.6852   24.5690   23.0005 H   0  0  0  0  0  0  0  0  0  0  0  0
   -0.1700   25.9476   22.0247 H   0  0  0  0  0  0  0  0  0  0  0  0
   -2.1026   25.6854   24.2892 H   0  0  0  0  0  0  0  0  0  0  0  0
   -2.3524   25.5473   22.5122 H   0  0  0  0  0  0  0  0  0  0  0  0
   -1.6600   23.5770   24.4125 H   0  0  0  0  0  0  0  0  0  0  0  0
  1  2  2  0
  2  3  1  0
  2  8  1  0
  3  4  1  0
  4  5  1  0
  4  6  2  0
  6  7  1  0
  7  8  2  0
  7 12  1  0
  8  9  1  0
  9 10  1  0
 10 11  2  0
 10 12  1  0
 13 12  1  0
 13 14  1  0
 13 15  1  0
 14 18  1  0
 15 16  1  0
 16 17  1  0
 16 18  1  0
 18 19  1  0
 19 20  1  0
  3 21  1  0
  5 22  1  0
  5 23  1  0
  9 24  1  0
 13 25  1  6
 15 26  1  0
 15 27  1  0
 16 28  1  1
 17 29  1  0
 18 30  1  6
 19 31  1  0
 19 32  1  0
 20 33  1  0
M  END
>  <filename_input>  (25) 
7OLI_8HG_docked.sdf

>  <pdb_id>  (25) 
7OLI_8HG

>  <pose_rank>  (25) 
24

>  <num_atoms_heavy>  (25) 
20

>  <num_torsions>  (25) 
2

>  <pose>  (25) 
[1.1606472771147658, 30.83183058284236, 29.204426542642057, 2.2335677421045808, 3.7656138124675222, 0.8858486656452857, 2.98392776419178, -1.2218572432414747]

>  <energy>  (25) 
-154.31080007537477

>  <inter_energy>  (25) 
-156.03407262853418

>  <intra_energy>  (25) 
14.869589701321397

>  <rmsd>  (25) 
11.2502

>  <sdf_rank>  (25) 
0

$$$$

     RDKit          3D

 33 35  0  0  0  0  0  0  0  0999 V2000
   12.3110   23.7620   34.1810 O   0  0  0  0  0  0  0  0  0  0  0  0
   11.1880   24.0810   33.8070 C   0  0  0  0  0  0  0  0  0  0  0  0
   10.8790   25.4270   33.5740 N   0  0  0  0  0  0  0  0  0  0  0  0
    9.6390   25.8930   33.1050 C   0  0  0  0  0  0  0  0  0  0  0  0
    9.4400   27.2710   32.9370 N   0  0  0  0  0  0  0  0  0  0  0  0
    8.6070   24.9850   32.8150 N   0  0  0  0  0  0  0  0  0  0  0  0
    8.8850   23.6130   33.0450 C   0  0  0  0  0  0  0  0  0  0  0  0
   10.0960   23.1710   33.5490 C   0  0  0  0  0  0  0  0  0  0  0  0
   10.0960   21.7630   33.6700 N   0  0  0  0  0  0  0  0  0  0  0  0
    8.7820   21.3460   33.2200 C   0  0  0  0  0  0  0  0  0  0  0  0
    8.3120   20.2160   33.1430 O   0  0  0  0  0  0  0  0  0  0  0  0
    8.0110   22.5380   32.8740 N   0  0  0  0  0  0  0  0  0  0  0  0
    6.6730   22.5410   32.2670 C   0  0  2  0  0  0  0  0  0  0  0  0
    7.0910   23.0400   30.8090 O   0  0  0  0  0  0  0  0  0  0  0  0
    5.8070   23.4400   32.7040 C   0  0  0  0  0  0  0  0  0  0  0  0
    5.0100   23.8340   31.4440 C   0  0  2  0  0  0  0  0  0  0  0  0
    3.8920   22.9990   31.2450 O   0  0  0  0  0  0  0  0  0  0  0  0
    6.0010   23.6610   30.2830 C   0  0  1  0  0  0  0  0  0  0  0  0
    6.4860   24.9950   29.6820 C   0  0  0  0  0  0  0  0  0  0  0  0
    6.8500   25.8970   30.7280 O   0  0  0  0  0  0  0  0  0  0  0  0
   11.6131   26.1252   33.7597 H   0  0  0  0  0  0  0  0  0  0  0  0
    8.5347   27.6225   32.5938 H   0  0  0  0  0  0  0  0  0  0  0  0
   10.1991   27.9315   33.1568 H   0  0  0  0  0  0  0  0  0  0  0  0
   10.8631   21.1629   34.0052 H   0  0  0  0  0  0  0  0  0  0  0  0
    6.1692   21.5772   32.4320 H   0  0  0  0  0  0  0  0  0  0  0  0
    5.1436   23.0055   33.4663 H   0  0  0  0  0  0  0  0  0  0  0  0
    6.2962   24.3015   33.1820 H   0  0  0  0  0  0  0  0  0  0  0  0
    4.6169   24.8578   31.5291 H   0  0  0  0  0  0  0  0  0  0  0  0
    3.5247   22.7246   32.1225 H   0  0  0  0  0  0  0  0  0  0  0  0
    5.4979   23.1038   29.4790 H   0  0  0  0  0  0  0  0  0  0  0  0
    7.3599   24.8093   29.0403 H   0  0  0  0  0  0  0  0  0  0  0  0
    5.6747   25.4397   29.0870 H   0  0  0  0  0  0  0  0  0  0  0  0
    6.6783   25.4715   31.6053 H   0  0  0  0  0  0  0  0  0  0  0  0
  1  2  2  0
  2  3  1  0
  2  8  1  0
  3  4  1  0
  4  5  1  0
  4  6  2  0
  6  7  1  0
  7  8  2  0
  7 12  1  0
  8  9  1  0
  9 10  1  0
 10 11  2  0
 10 12  1  0
 13 12  1  0
 13 14  1  0
 13 15  1  0
 14 18  1  0
 15 16  1  0
 16 17  1  0
 16 18  1  0
 18 19  1  0
 19 20  1  0
  3 21  1  0
  5 22  1  0
  5 23  1  0
  9 24  1  0
 13 25  1  6
 15 26  1  0
 15 27  1  0
 16 28  1  1
 17 29  1  0
 18 30  1  6
 19 31  1  0
 19 32  1  0
 20 33  1  0
M  END
>  <filename_input>  (26) 
7OLI_8HG_docked.sdf

>  <pdb_id>  (26) 
7OLI_8HG

>  <pose_rank>  (26) 
25

>  <num_atoms_heavy>  (26) 
20

>  <num_torsions>  (26) 
2

>  <pose>  (26) 
[12.311, 23.762, 34.181, 1e-06, 1e-06, 1e-06, 0.0, 0.0]

>  <energy>  (26) 
-1273.663831719045

>  <inter_energy>  (26) 
-1281.1021991748132

>  <intra_energy>  (26) 
24.592986480414275

>  <rmsd>  (26) 
0.0

>  <sdf_rank>  (26) 
0

$$$$
