
     RDKit          3D

 72 76  0  0  0  0  0  0  0  0999 V2000
   10.5046  -12.8134   -8.5985 P   0  0  2  0  0  0  0  0  0  0  0  0
   10.8967  -11.4605   -9.1351 O   0  0  0  0  0  0  0  0  0  0  0  0
    9.0674  -13.2012   -8.6224 O   0  0  0  0  0  0  0  0  0  0  0  0
   11.0456  -12.8505   -7.1334 O   0  0  0  0  0  0  0  0  0  0  0  0
   11.3926  -14.1099   -6.5013 C   0  0  0  0  0  0  0  0  0  0  0  0
   11.7282  -13.7890   -5.0793 C   0  0  1  0  0  0  0  0  0  0  0  0
   13.0447  -14.2851   -4.7362 O   0  0  0  0  0  0  0  0  0  0  0  0
   11.7357  -12.2967   -4.7066 C   0  0  1  0  0  0  0  0  0  0  0  0
   11.0661  -12.1812   -3.4605 O   0  0  0  0  0  0  0  0  0  0  0  0
   13.2300  -11.9812   -4.5978 C   0  0  1  0  0  0  0  0  0  0  0  0
   13.5114  -10.8646   -3.7857 O   0  0  0  0  0  0  0  0  0  0  0  0
   13.7085  -13.2903   -3.9907 C   0  0  2  0  0  0  0  0  0  0  0  0
   15.1439  -13.5374   -4.0611 N   0  0  0  0  0  0  0  0  0  0  0  0
   15.9866  -13.4430   -5.1370 C   0  0  0  0  0  0  0  0  0  0  0  0
   17.2163  -13.8134   -4.8776 N   0  0  0  0  0  0  0  0  0  0  0  0
   17.1834  -14.1943   -3.5452 C   0  0  0  0  0  0  0  0  0  0  0  0
   18.1755  -14.6694   -2.6727 C   0  0  0  0  0  0  0  0  0  0  0  0
   19.4579  -14.8153   -3.0124 N   0  0  0  0  0  0  0  0  0  0  0  0
   17.7840  -14.9995   -1.4231 N   0  0  0  0  0  0  0  0  0  0  0  0
   16.5189  -14.7632   -1.0701 C   0  0  0  0  0  0  0  0  0  0  0  0
   15.4983  -14.3333   -1.8021 N   0  0  0  0  0  0  0  0  0  0  0  0
   15.9062  -14.0487   -3.0437 C   0  0  0  0  0  0  0  0  0  0  0  0
   11.3201  -13.9129   -9.4279 O   0  0  0  0  0  0  0  0  0  0  0  0
   11.0424  -15.0991  -10.4512 P   0  0  1  0  0  0  0  0  0  0  0  0
   12.3391  -15.6432  -10.9244 O   0  0  0  0  0  0  0  0  0  0  0  0
   10.0148  -15.9745   -9.7949 O   0  0  0  0  0  0  0  0  0  0  0  0
   10.2517  -14.3265  -11.5993 O   0  0  0  0  0  0  0  0  0  0  0  0
    8.7922  -14.2864  -11.5929 C   0  0  0  0  0  0  0  0  0  0  0  0
    8.3571  -13.9286  -12.9938 C   0  0  1  0  0  0  0  0  0  0  0  0
    8.1895  -12.4122  -13.2001 C   0  0  0  0  0  0  0  0  0  0  0  0
    9.3612  -14.3962  -14.0708 C   0  0  1  0  0  0  0  0  0  0  0  0
    8.6532  -14.7990  -15.2487 O   0  0  0  0  0  0  0  0  0  0  0  0
   10.2430  -13.1617  -14.2981 C   0  0  1  0  0  0  0  0  0  0  0  0
   10.9019  -13.2495  -15.5609 O   0  0  0  0  0  0  0  0  0  0  0  0
    9.2483  -11.9838  -14.2510 C   0  0  2  0  0  0  0  0  0  0  0  0
    9.8713  -10.6612  -13.9293 N   0  0  0  0  0  0  0  0  0  0  0  0
   10.0102  -10.2411  -12.6187 C   0  0  0  0  0  0  0  0  0  0  0  0
   10.6227   -9.0242  -12.3249 C   0  0  0  0  0  0  0  0  0  0  0  0
   10.7472   -8.5919  -10.8860 C   0  0  0  0  0  0  0  0  0  0  0  0
    9.7482   -8.5824  -10.1619 O   0  0  0  0  0  0  0  0  0  0  0  0
   11.9487   -8.2526  -10.4523 N   0  0  0  0  0  0  0  0  0  0  0  0
   11.1303   -8.2415  -13.3593 C   0  0  0  0  0  0  0  0  0  0  0  0
   10.9821   -8.6783  -14.6529 C   0  0  0  0  0  0  0  0  0  0  0  0
   10.3310   -9.8592  -14.9094 C   0  0  0  0  0  0  0  0  0  0  0  0
   10.5408  -14.8046   -6.5439 H   0  0  0  0  0  0  0  0  0  0  0  0
   12.2386  -14.5932   -7.0119 H   0  0  0  0  0  0  0  0  0  0  0  0
   10.9141  -14.2766   -4.5230 H   0  0  0  0  0  0  0  0  0  0  0  0
   11.2375  -11.6152   -5.4118 H   0  0  0  0  0  0  0  0  0  0  0  0
   11.7179  -12.2936   -2.7239 H   0  0  0  0  0  0  0  0  0  0  0  0
   13.7125  -11.6940   -5.5437 H   0  0  0  0  0  0  0  0  0  0  0  0
   13.4458  -11.1247   -2.8328 H   0  0  0  0  0  0  0  0  0  0  0  0
   13.4895  -13.2745   -2.9128 H   0  0  0  0  0  0  0  0  0  0  0  0
   15.6612  -13.0892   -6.1264 H   0  0  0  0  0  0  0  0  0  0  0  0
   20.1362  -15.1697   -2.3230 H   0  0  0  0  0  0  0  0  0  0  0  0
   19.7694  -14.5734   -3.9639 H   0  0  0  0  0  0  0  0  0  0  0  0
   16.2865  -14.9534   -0.0119 H   0  0  0  0  0  0  0  0  0  0  0  0
    8.3880  -15.2698  -11.3109 H   0  0  0  0  0  0  0  0  0  0  0  0
    8.4218  -13.5493  -10.8653 H   0  0  0  0  0  0  0  0  0  0  0  0
    7.3931  -14.4463  -13.1062 H   0  0  0  0  0  0  0  0  0  0  0  0
    7.1775  -12.1897  -13.5694 H   0  0  0  0  0  0  0  0  0  0  0  0
    8.3282  -11.8672  -12.2547 H   0  0  0  0  0  0  0  0  0  0  0  0
    9.9634  -15.2701  -13.7816 H   0  0  0  0  0  0  0  0  0  0  0  0
    7.8227  -15.2714  -14.9892 H   0  0  0  0  0  0  0  0  0  0  0  0
   11.0439  -13.0533  -13.5519 H   0  0  0  0  0  0  0  0  0  0  0  0
   11.8729  -13.3789  -15.4181 H   0  0  0  0  0  0  0  0  0  0  0  0
    8.8115  -11.8037  -15.2443 H   0  0  0  0  0  0  0  0  0  0  0  0
    9.6339  -10.8732  -11.8010 H   0  0  0  0  0  0  0  0  0  0  0  0
   12.0776   -7.9513   -9.4758 H   0  0  0  0  0  0  0  0  0  0  0  0
   12.7561   -8.2896  -11.0907 H   0  0  0  0  0  0  0  0  0  0  0  0
   11.6405   -7.2911  -13.1440 H   0  0  0  0  0  0  0  0  0  0  0  0
   11.3854   -8.0813  -15.4842 H   0  0  0  0  0  0  0  0  0  0  0  0
   10.1787  -10.1625  -15.9557 H   0  0  0  0  0  0  0  0  0  0  0  0
  1  2  1  6
  1  3  2  0
  1  4  1  0
  1 23  1  0
  4  5  1  0
  6  5  1  0
  6  7  1  0
  6  8  1  0
  7 12  1  0
  8  9  1  0
  8 10  1  0
 10 11  1  0
 10 12  1  0
 12 13  1  0
 13 14  1  0
 13 22  1  0
 14 15  2  0
 15 16  1  0
 16 17  2  0
 16 22  1  0
 17 18  1  0
 17 19  1  0
 19 20  2  0
 20 21  1  0
 21 22  2  0
 23 24  1  0
 24 25  2  0
 24 26  1  1
 24 27  1  0
 27 28  1  0
 29 28  1  0
 29 30  1  0
 29 31  1  0
 30 35  1  0
 31 32  1  0
 31 33  1  0
 33 34  1  0
 33 35  1  0
 35 36  1  0
 36 37  2  0
 36 44  1  0
 37 38  1  0
 38 39  1  0
 38 42  2  0
 39 40  2  0
 39 41  1  0
 42 43  1  0
 43 44  2  0
  5 45  1  0
  5 46  1  0
  6 47  1  1
  8 48  1  6
  9 49  1  0
 10 50  1  6
 11 51  1  0
 12 52  1  1
 14 53  1  0
 18 54  1  0
 18 55  1  0
 20 56  1  0
 28 57  1  0
 28 58  1  0
 29 59  1  6
 30 60  1  0
 30 61  1  0
 31 62  1  1
 32 63  1  0
 33 64  1  1
 34 65  1  0
 35 66  1  6
 37 67  1  0
 41 68  1  0
 41 69  1  0
 42 70  1  0
 43 71  1  0
 44 72  1  0
M  CHG  3   2  -1  26  -1  36   1
M  END
>  <filename_input>  (1) 
7OMX_CNA_docked.sdf

>  <pdb_id>  (1) 
7OMX_CNA

>  <pose_rank>  (1) 
0

>  <num_atoms_heavy>  (1) 
44

>  <num_torsions>  (1) 
11

>  <pose>  (1) 
[10.504637966251265, -12.813363358111001, -8.598529934415563, -0.756454720979427, -0.04938182284140556, -2.200549155621894, 6.978464579378895, 0.7169864693181902, -36.21731260114772, 6.091961257749102, -15.620024981136087, -3.0558762138531517, 28.640502916011574, 43.548305301740506, -32.11822501005172, -0.5131098029014798, 1.9081789872564106]

>  <energy>  (1) 
-1066.08973392348

>  <inter_energy>  (1) 
-1080.1335750956282

>  <intra_energy>  (1) 
25.291506561323697

>  <rmsd>  (1) 
1.8924

>  <sdf_rank>  (1) 
0

$$$$

     RDKit          3D

 72 76  0  0  0  0  0  0  0  0999 V2000
    9.7795  -16.2776   -7.3418 P   0  0  2  0  0  0  0  0  0  0  0  0
    8.8190  -15.3644   -8.0597 O   0  0  0  0  0  0  0  0  0  0  0  0
    9.3280  -17.6513   -6.9875 O   0  0  0  0  0  0  0  0  0  0  0  0
   10.2023  -15.5031   -6.0526 O   0  0  0  0  0  0  0  0  0  0  0  0
   11.5241  -15.6792   -5.4801 C   0  0  0  0  0  0  0  0  0  0  0  0
   11.8160  -14.4344   -4.7037 C   0  0  1  0  0  0  0  0  0  0  0  0
   13.1298  -14.5011   -4.0983 O   0  0  0  0  0  0  0  0  0  0  0  0
   11.7916  -13.1190   -5.5008 C   0  0  1  0  0  0  0  0  0  0  0  0
   11.0865  -12.1735   -4.7113 O   0  0  0  0  0  0  0  0  0  0  0  0
   13.2775  -12.7755   -5.6351 C   0  0  1  0  0  0  0  0  0  0  0  0
   13.5203  -11.4047   -5.8536 O   0  0  0  0  0  0  0  0  0  0  0  0
   13.7584  -13.2521   -4.2738 C   0  0  2  0  0  0  0  0  0  0  0  0
   15.1987  -13.4335   -4.1353 N   0  0  0  0  0  0  0  0  0  0  0  0
   16.1815  -13.3103   -5.0816 C   0  0  0  0  0  0  0  0  0  0  0  0
   17.3766  -13.6212   -4.6439 N   0  0  0  0  0  0  0  0  0  0  0  0
   17.1705  -13.9909   -3.3239 C   0  0  0  0  0  0  0  0  0  0  0  0
   18.0477  -14.4117   -2.3117 C   0  0  0  0  0  0  0  0  0  0  0  0
   19.3707  -14.5015   -2.4630 N   0  0  0  0  0  0  0  0  0  0  0  0
   17.4966  -14.7479   -1.1255 N   0  0  0  0  0  0  0  0  0  0  0  0
   16.1848  -14.5668   -0.9601 C   0  0  0  0  0  0  0  0  0  0  0  0
   15.2614  -14.1912   -1.8365 N   0  0  0  0  0  0  0  0  0  0  0  0
   15.8295  -13.8996   -3.0118 C   0  0  0  0  0  0  0  0  0  0  0  0
   11.0856  -16.4146   -8.2566 O   0  0  0  0  0  0  0  0  0  0  0  0
   11.9108  -15.5572   -9.3127 P   0  0  1  0  0  0  0  0  0  0  0  0
   13.3150  -15.4390   -8.8483 O   0  0  0  0  0  0  0  0  0  0  0  0
   11.5732  -16.1296  -10.6586 O   0  0  0  0  0  0  0  0  0  0  0  0
   11.1301  -14.1693   -9.2486 O   0  0  0  0  0  0  0  0  0  0  0  0
   11.8572  -12.9217   -9.0324 C   0  0  0  0  0  0  0  0  0  0  0  0
   10.8383  -11.8854   -8.6229 C   0  0  1  0  0  0  0  0  0  0  0  0
   11.1283  -10.4939   -9.2142 C   0  0  0  0  0  0  0  0  0  0  0  0
    9.4039  -12.2467   -9.0685 C   0  0  1  0  0  0  0  0  0  0  0  0
    8.4661  -11.8096   -8.0784 O   0  0  0  0  0  0  0  0  0  0  0  0
    9.2477  -11.5091  -10.4045 C   0  0  1  0  0  0  0  0  0  0  0  0
    7.8659  -11.3430  -10.7198 O   0  0  0  0  0  0  0  0  0  0  0  0
    9.9475  -10.1559  -10.1631 C   0  0  2  0  0  0  0  0  0  0  0  0
   10.3967   -9.4610  -11.4106 N   0  0  0  0  0  0  0  0  0  0  0  0
   10.1729  -10.0207  -12.6556 C   0  0  0  0  0  0  0  0  0  0  0  0
   10.5625   -9.3519  -13.8146 C   0  0  0  0  0  0  0  0  0  0  0  0
   10.3136   -9.9961  -15.1546 C   0  0  0  0  0  0  0  0  0  0  0  0
   10.4195   -9.3251  -16.1846 O   0  0  0  0  0  0  0  0  0  0  0  0
   10.0041  -11.2810  -15.1662 N   0  0  0  0  0  0  0  0  0  0  0  0
   11.1508   -8.0930  -13.7180 C   0  0  0  0  0  0  0  0  0  0  0  0
   11.3628   -7.5559  -12.4719 C   0  0  0  0  0  0  0  0  0  0  0  0
   11.0101   -8.2631  -11.3495 C   0  0  0  0  0  0  0  0  0  0  0  0
   11.5370  -16.5548   -4.8143 H   0  0  0  0  0  0  0  0  0  0  0  0
   12.2788  -15.8481   -6.2623 H   0  0  0  0  0  0  0  0  0  0  0  0
   10.9943  -14.4071   -3.9730 H   0  0  0  0  0  0  0  0  0  0  0  0
   11.3028  -13.1544   -6.4857 H   0  0  0  0  0  0  0  0  0  0  0  0
   11.2330  -12.3698   -3.7521 H   0  0  0  0  0  0  0  0  0  0  0  0
   13.7814  -13.2302   -6.5007 H   0  0  0  0  0  0  0  0  0  0  0  0
   13.6024  -10.9412   -4.9827 H   0  0  0  0  0  0  0  0  0  0  0  0
   13.5098  -12.4827   -3.5280 H   0  0  0  0  0  0  0  0  0  0  0  0
   15.9855  -12.9811   -6.1127 H   0  0  0  0  0  0  0  0  0  0  0  0
   19.9585  -14.8179   -1.6785 H   0  0  0  0  0  0  0  0  0  0  0  0
   19.8040  -14.2544   -3.3642 H   0  0  0  0  0  0  0  0  0  0  0  0
   15.8122  -14.7577    0.0571 H   0  0  0  0  0  0  0  0  0  0  0  0
   12.6047  -13.0527   -8.2361 H   0  0  0  0  0  0  0  0  0  0  0  0
   12.3884  -12.6125   -9.9447 H   0  0  0  0  0  0  0  0  0  0  0  0
   10.9143  -11.8664   -7.5257 H   0  0  0  0  0  0  0  0  0  0  0  0
   11.1937   -9.7466   -8.4097 H   0  0  0  0  0  0  0  0  0  0  0  0
   12.0854  -10.4867   -9.7564 H   0  0  0  0  0  0  0  0  0  0  0  0
    9.2221  -13.3255   -9.1837 H   0  0  0  0  0  0  0  0  0  0  0  0
    8.8350  -11.9815   -7.1759 H   0  0  0  0  0  0  0  0  0  0  0  0
    9.6839  -12.0510  -11.2566 H   0  0  0  0  0  0  0  0  0  0  0  0
    7.3416  -11.2800   -9.8824 H   0  0  0  0  0  0  0  0  0  0  0  0
    9.2473   -9.4284   -9.7266 H   0  0  0  0  0  0  0  0  0  0  0  0
    9.6829  -11.0026  -12.7317 H   0  0  0  0  0  0  0  0  0  0  0  0
    9.8262  -11.7598  -16.0606 H   0  0  0  0  0  0  0  0  0  0  0  0
    9.9408  -11.8035  -14.2808 H   0  0  0  0  0  0  0  0  0  0  0  0
   11.4401   -7.5391  -14.6233 H   0  0  0  0  0  0  0  0  0  0  0  0
   11.8156   -6.5583  -12.3732 H   0  0  0  0  0  0  0  0  0  0  0  0
   11.2372   -7.8352  -10.3620 H   0  0  0  0  0  0  0  0  0  0  0  0
  1  2  1  6
  1  3  2  0
  1  4  1  0
  1 23  1  0
  4  5  1  0
  6  5  1  0
  6  7  1  0
  6  8  1  0
  7 12  1  0
  8  9  1  0
  8 10  1  0
 10 11  1  0
 10 12  1  0
 12 13  1  0
 13 14  1  0
 13 22  1  0
 14 15  2  0
 15 16  1  0
 16 17  2  0
 16 22  1  0
 17 18  1  0
 17 19  1  0
 19 20  2  0
 20 21  1  0
 21 22  2  0
 23 24  1  0
 24 25  2  0
 24 26  1  6
 24 27  1  0
 27 28  1  0
 29 28  1  0
 29 30  1  0
 29 31  1  0
 30 35  1  0
 31 32  1  0
 31 33  1  0
 33 34  1  0
 33 35  1  0
 35 36  1  0
 36 37  2  0
 36 44  1  0
 37 38  1  0
 38 39  1  0
 38 42  2  0
 39 40  2  0
 39 41  1  0
 42 43  1  0
 43 44  2  0
  5 45  1  0
  5 46  1  0
  6 47  1  1
  8 48  1  6
  9 49  1  0
 10 50  1  6
 11 51  1  0
 12 52  1  1
 14 53  1  0
 18 54  1  0
 18 55  1  0
 20 56  1  0
 28 57  1  0
 28 58  1  0
 29 59  1  1
 30 60  1  0
 30 61  1  0
 31 62  1  6
 32 63  1  0
 33 64  1  6
 34 65  1  0
 35 66  1  1
 37 67  1  0
 41 68  1  0
 41 69  1  0
 42 70  1  0
 43 71  1  0
 44 72  1  0
M  CHG  3   2  -1  26  -1  36   1
M  END
>  <filename_input>  (2) 
7OMX_CNA_docked.sdf

>  <pdb_id>  (2) 
7OMX_CNA

>  <pose_rank>  (2) 
1

>  <num_atoms_heavy>  (2) 
44

>  <num_torsions>  (2) 
11

>  <pose>  (2) 
[9.779456167113862, -16.277609705766967, -7.341804979793587, -0.8035239175333477, -0.44613737289779076, -1.1950309635927976, 0.7689920878611337, 6.468639703263569, -5.745676499758804, 0.5948529186652185, -0.5267904596918197, 2.327292451680002, 1.1006427469704245, -0.48573675205188843, -1.587588388221331, 1.0441548985695785, -0.5610215697600613]

>  <energy>  (2) 
-1076.601565678621

>  <inter_energy>  (2) 
-1089.4396083287045

>  <intra_energy>  (2) 
26.376717834423797

>  <rmsd>  (2) 
3.11407

>  <sdf_rank>  (2) 
0

$$$$

     RDKit          3D

 72 76  0  0  0  0  0  0  0  0999 V2000
   12.1148  -16.5609   -7.7293 P   0  0  2  0  0  0  0  0  0  0  0  0
   10.8323  -16.5781   -6.9377 O   0  0  0  0  0  0  0  0  0  0  0  0
   12.8993  -17.8210   -7.8441 O   0  0  0  0  0  0  0  0  0  0  0  0
   12.9893  -15.4427   -7.0768 O   0  0  0  0  0  0  0  0  0  0  0  0
   12.7624  -14.0441   -7.3907 C   0  0  0  0  0  0  0  0  0  0  0  0
   12.3572  -13.3855   -6.1103 C   0  0  1  0  0  0  0  0  0  0  0  0
   12.9936  -14.0254   -4.9779 O   0  0  0  0  0  0  0  0  0  0  0  0
   12.6911  -11.8892   -5.9844 C   0  0  1  0  0  0  0  0  0  0  0  0
   11.5451  -11.2575   -5.4348 O   0  0  0  0  0  0  0  0  0  0  0  0
   13.8790  -11.8864   -5.0185 C   0  0  1  0  0  0  0  0  0  0  0  0
   14.0480  -10.6639   -4.3384 O   0  0  0  0  0  0  0  0  0  0  0  0
   13.4459  -13.0189   -4.1013 C   0  0  2  0  0  0  0  0  0  0  0  0
   14.4864  -13.5798   -3.2475 N   0  0  0  0  0  0  0  0  0  0  0  0
   14.4172  -13.9559   -1.9321 C   0  0  0  0  0  0  0  0  0  0  0  0
   15.5634  -14.3519   -1.4360 N   0  0  0  0  0  0  0  0  0  0  0  0
   16.4557  -14.2138   -2.4877 C   0  0  0  0  0  0  0  0  0  0  0  0
   17.8284  -14.4844   -2.6050 C   0  0  0  0  0  0  0  0  0  0  0  0
   18.5704  -15.0071   -1.6265 N   0  0  0  0  0  0  0  0  0  0  0  0
   18.4127  -14.1824   -3.7845 N   0  0  0  0  0  0  0  0  0  0  0  0
   17.6416  -13.7461   -4.7825 C   0  0  0  0  0  0  0  0  0  0  0  0
   16.3493  -13.4432   -4.7882 N   0  0  0  0  0  0  0  0  0  0  0  0
   15.8039  -13.7175   -3.5981 C   0  0  0  0  0  0  0  0  0  0  0  0
   11.7574  -16.0724   -9.2110 O   0  0  0  0  0  0  0  0  0  0  0  0
   12.4256  -15.2598  -10.4045 P   0  0  1  0  0  0  0  0  0  0  0  0
   13.8496  -15.0023  -10.0767 O   0  0  0  0  0  0  0  0  0  0  0  0
   12.0251  -15.9750  -11.6620 O   0  0  0  0  0  0  0  0  0  0  0  0
   11.5480  -13.9296  -10.3907 O   0  0  0  0  0  0  0  0  0  0  0  0
   12.1686  -12.6378  -10.1113 C   0  0  0  0  0  0  0  0  0  0  0  0
   11.0473  -11.6474   -9.9074 C   0  0  1  0  0  0  0  0  0  0  0  0
   10.1250  -11.5257  -11.1340 C   0  0  0  0  0  0  0  0  0  0  0  0
   10.1301  -12.0169   -8.7203 C   0  0  1  0  0  0  0  0  0  0  0  0
    9.6852  -10.8242   -8.0644 O   0  0  0  0  0  0  0  0  0  0  0  0
    8.9859  -12.7962   -9.3812 C   0  0  1  0  0  0  0  0  0  0  0  0
    7.8383  -12.8052   -8.5330 O   0  0  0  0  0  0  0  0  0  0  0  0
    8.7241  -12.0268  -10.6921 C   0  0  2  0  0  0  0  0  0  0  0  0
    8.0423  -12.8307  -11.7551 N   0  0  0  0  0  0  0  0  0  0  0  0
    8.4586  -12.7651  -13.0725 C   0  0  0  0  0  0  0  0  0  0  0  0
    7.8420  -13.5426  -14.0511 C   0  0  0  0  0  0  0  0  0  0  0  0
    8.3135  -13.4377  -15.4791 C   0  0  0  0  0  0  0  0  0  0  0  0
    8.9038  -14.3881  -15.9994 O   0  0  0  0  0  0  0  0  0  0  0  0
    8.0521  -12.3161  -16.1275 N   0  0  0  0  0  0  0  0  0  0  0  0
    6.8208  -14.4190  -13.6916 C   0  0  0  0  0  0  0  0  0  0  0  0
    6.4239  -14.4685  -12.3777 C   0  0  0  0  0  0  0  0  0  0  0  0
    7.0208  -13.6537  -11.4481 C   0  0  0  0  0  0  0  0  0  0  0  0
   13.6844  -13.5867   -7.7789 H   0  0  0  0  0  0  0  0  0  0  0  0
   11.9866  -13.9288   -8.1620 H   0  0  0  0  0  0  0  0  0  0  0  0
   11.2624  -13.4922   -6.1196 H   0  0  0  0  0  0  0  0  0  0  0  0
   12.9393  -11.3644   -6.9187 H   0  0  0  0  0  0  0  0  0  0  0  0
   11.5952  -11.2851   -4.4464 H   0  0  0  0  0  0  0  0  0  0  0  0
   14.8628  -12.0127   -5.4942 H   0  0  0  0  0  0  0  0  0  0  0  0
   14.0259  -10.8238   -3.3617 H   0  0  0  0  0  0  0  0  0  0  0  0
   12.6982  -12.6283   -3.3954 H   0  0  0  0  0  0  0  0  0  0  0  0
   13.4862  -13.9281   -1.3470 H   0  0  0  0  0  0  0  0  0  0  0  0
   19.5742  -15.1812   -1.7782 H   0  0  0  0  0  0  0  0  0  0  0  0
   18.1392  -15.2363   -0.7196 H   0  0  0  0  0  0  0  0  0  0  0  0
   18.1550  -13.6180   -5.7468 H   0  0  0  0  0  0  0  0  0  0  0  0
   12.7855  -12.7031   -9.2029 H   0  0  0  0  0  0  0  0  0  0  0  0
   12.8220  -12.3275  -10.9400 H   0  0  0  0  0  0  0  0  0  0  0  0
   11.5705  -10.6987   -9.7173 H   0  0  0  0  0  0  0  0  0  0  0  0
   10.0664  -10.4772  -11.4614 H   0  0  0  0  0  0  0  0  0  0  0  0
   10.5088  -12.1188  -11.9772 H   0  0  0  0  0  0  0  0  0  0  0  0
   10.6197  -12.6134   -7.9365 H   0  0  0  0  0  0  0  0  0  0  0  0
    9.7321  -10.9499   -7.0835 H   0  0  0  0  0  0  0  0  0  0  0  0
    9.2269  -13.8534   -9.5663 H   0  0  0  0  0  0  0  0  0  0  0  0
    8.1277  -12.8029   -7.5863 H   0  0  0  0  0  0  0  0  0  0  0  0
    8.0127  -11.2046  -10.5250 H   0  0  0  0  0  0  0  0  0  0  0  0
    9.2840  -12.0931  -13.3504 H   0  0  0  0  0  0  0  0  0  0  0  0
    8.3567  -12.2033  -17.1050 H   0  0  0  0  0  0  0  0  0  0  0  0
    7.5439  -11.5547  -15.6554 H   0  0  0  0  0  0  0  0  0  0  0  0
    6.3411  -15.0597  -14.4461 H   0  0  0  0  0  0  0  0  0  0  0  0
    5.6270  -15.1616  -12.0701 H   0  0  0  0  0  0  0  0  0  0  0  0
    6.6507  -13.6735  -10.4124 H   0  0  0  0  0  0  0  0  0  0  0  0
  1  2  1  1
  1  3  2  0
  1  4  1  0
  1 23  1  0
  4  5  1  0
  6  5  1  0
  6  7  1  0
  6  8  1  0
  7 12  1  0
  8  9  1  0
  8 10  1  0
 10 11  1  0
 10 12  1  0
 12 13  1  0
 13 14  1  0
 13 22  1  0
 14 15  2  0
 15 16  1  0
 16 17  2  0
 16 22  1  0
 17 18  1  0
 17 19  1  0
 19 20  2  0
 20 21  1  0
 21 22  2  0
 23 24  1  0
 24 25  2  0
 24 26  1  6
 24 27  1  0
 27 28  1  0
 29 28  1  0
 29 30  1  0
 29 31  1  0
 30 35  1  0
 31 32  1  0
 31 33  1  0
 33 34  1  0
 33 35  1  0
 35 36  1  0
 36 37  2  0
 36 44  1  0
 37 38  1  0
 38 39  1  0
 38 42  2  0
 39 40  2  0
 39 41  1  0
 42 43  1  0
 43 44  2  0
  5 45  1  0
  5 46  1  0
  6 47  1  1
  8 48  1  6
  9 49  1  0
 10 50  1  6
 11 51  1  0
 12 52  1  1
 14 53  1  0
 18 54  1  0
 18 55  1  0
 20 56  1  0
 28 57  1  0
 28 58  1  0
 29 59  1  1
 30 60  1  0
 30 61  1  0
 31 62  1  1
 32 63  1  0
 33 64  1  6
 34 65  1  0
 35 66  1  1
 37 67  1  0
 41 68  1  0
 41 69  1  0
 42 70  1  0
 43 71  1  0
 44 72  1  0
M  CHG  3   2  -1  26  -1  36   1
M  END
>  <filename_input>  (3) 
7OMX_CNA_docked.sdf

>  <pdb_id>  (3) 
7OMX_CNA

>  <pose_rank>  (3) 
2

>  <num_atoms_heavy>  (3) 
44

>  <num_torsions>  (3) 
11

>  <pose>  (3) 
[12.114840417644743, -16.56085022816718, -7.729283276708345, 5.104607166070089, -1.4987277670898607, 0.286153577775445, 39.6637523365212, 37.21782867496398, 67.05107864704117, 34.501955621985765, -4.750787696245978, 6.59351203788416, -36.78668265958565, -19.430485192367964, 12.425363792573973, -1.3510195922829806, -1.5297307360568397]

>  <energy>  (3) 
-942.4593124747244

>  <inter_energy>  (3) 
-1008.6104662410664

>  <intra_energy>  (3) 
84.23890714972681

>  <rmsd>  (3) 
4.23935

>  <sdf_rank>  (3) 
0

$$$$

     RDKit          3D

 72 76  0  0  0  0  0  0  0  0999 V2000
    9.9468  -16.2794   -6.8786 P   0  0  2  0  0  0  0  0  0  0  0  0
    9.5678  -15.9525   -5.4568 O   0  0  0  0  0  0  0  0  0  0  0  0
   10.8254  -17.4547   -7.1304 O   0  0  0  0  0  0  0  0  0  0  0  0
   10.6134  -14.9821   -7.4384 O   0  0  0  0  0  0  0  0  0  0  0  0
   12.0121  -14.6946   -7.1798 C   0  0  0  0  0  0  0  0  0  0  0  0
   12.0679  -14.0553   -5.8286 C   0  0  1  0  0  0  0  0  0  0  0  0
   13.3027  -14.3907   -5.1506 O   0  0  0  0  0  0  0  0  0  0  0  0
   11.9831  -12.5197   -5.8031 C   0  0  1  0  0  0  0  0  0  0  0  0
   11.0881  -12.1751   -4.7568 O   0  0  0  0  0  0  0  0  0  0  0  0
   13.4250  -12.1048   -5.4984 C   0  0  1  0  0  0  0  0  0  0  0  0
   13.5314  -10.8249   -4.9186 O   0  0  0  0  0  0  0  0  0  0  0  0
   13.7990  -13.2225   -4.5381 C   0  0  2  0  0  0  0  0  0  0  0  0
   15.2252  -13.3981   -4.2902 N   0  0  0  0  0  0  0  0  0  0  0  0
   16.2824  -13.1934   -5.1369 C   0  0  0  0  0  0  0  0  0  0  0  0
   17.4414  -13.5233   -4.6224 N   0  0  0  0  0  0  0  0  0  0  0  0
   17.1305  -13.9934   -3.3561 C   0  0  0  0  0  0  0  0  0  0  0  0
   17.9258  -14.4795   -2.3061 C   0  0  0  0  0  0  0  0  0  0  0  0
   19.2583  -14.5432   -2.3495 N   0  0  0  0  0  0  0  0  0  0  0  0
   17.2820  -14.9100   -1.1998 N   0  0  0  0  0  0  0  0  0  0  0  0
   15.9580  -14.7561   -1.1346 C   0  0  0  0  0  0  0  0  0  0  0  0
   15.1058  -14.3258   -2.0569 N   0  0  0  0  0  0  0  0  0  0  0  0
   15.7665  -13.9405   -3.1542 C   0  0  0  0  0  0  0  0  0  0  0  0
    8.5898  -16.5008   -7.6979 O   0  0  0  0  0  0  0  0  0  0  0  0
    8.0371  -16.3300   -9.1800 P   0  0  1  0  0  0  0  0  0  0  0  0
    7.3888  -17.5957   -9.6034 O   0  0  0  0  0  0  0  0  0  0  0  0
    7.2965  -15.0244   -9.1933 O   0  0  0  0  0  0  0  0  0  0  0  0
    9.3891  -16.0439   -9.9738 O   0  0  0  0  0  0  0  0  0  0  0  0
    9.4052  -16.0538  -11.4337 C   0  0  0  0  0  0  0  0  0  0  0  0
   10.6383  -15.2962  -11.8640 C   0  0  1  0  0  0  0  0  0  0  0  0
   10.3929  -14.3999  -13.0914 C   0  0  0  0  0  0  0  0  0  0  0  0
   11.1852  -14.3648  -10.7594 C   0  0  1  0  0  0  0  0  0  0  0  0
   12.6156  -14.3328  -10.8191 O   0  0  0  0  0  0  0  0  0  0  0  0
   10.5443  -13.0094  -11.0845 C   0  0  1  0  0  0  0  0  0  0  0  0
   11.2845  -11.9527  -10.4746 O   0  0  0  0  0  0  0  0  0  0  0  0
   10.6002  -12.9345  -12.6241 C   0  0  2  0  0  0  0  0  0  0  0  0
    9.6081  -11.9936  -13.2336 N   0  0  0  0  0  0  0  0  0  0  0  0
    8.5995  -12.4601  -14.0573 C   0  0  0  0  0  0  0  0  0  0  0  0
    7.6584  -11.5830  -14.5933 C   0  0  0  0  0  0  0  0  0  0  0  0
    6.5794  -12.1238  -15.4965 C   0  0  0  0  0  0  0  0  0  0  0  0
    6.0686  -11.3895  -16.3464 O   0  0  0  0  0  0  0  0  0  0  0  0
    6.2351  -13.3909  -15.3454 N   0  0  0  0  0  0  0  0  0  0  0  0
    7.7146  -10.2299  -14.2673 C   0  0  0  0  0  0  0  0  0  0  0  0
    8.7240   -9.7886  -13.4471 C   0  0  0  0  0  0  0  0  0  0  0  0
    9.6624  -10.6725  -12.9754 C   0  0  0  0  0  0  0  0  0  0  0  0
   12.5993  -15.6248   -7.1853 H   0  0  0  0  0  0  0  0  0  0  0  0
   12.4332  -14.0338   -7.9518 H   0  0  0  0  0  0  0  0  0  0  0  0
   11.1704  -14.4559   -5.3346 H   0  0  0  0  0  0  0  0  0  0  0  0
   11.6174  -12.0360   -6.7209 H   0  0  0  0  0  0  0  0  0  0  0  0
   11.5222  -12.3422   -3.8828 H   0  0  0  0  0  0  0  0  0  0  0  0
   14.0736  -12.0025   -6.3810 H   0  0  0  0  0  0  0  0  0  0  0  0
   13.5245  -10.9079   -3.9321 H   0  0  0  0  0  0  0  0  0  0  0  0
   13.3797  -12.9863   -3.5490 H   0  0  0  0  0  0  0  0  0  0  0  0
   16.1690  -12.7898   -6.1538 H   0  0  0  0  0  0  0  0  0  0  0  0
   19.7828  -14.9112   -1.5431 H   0  0  0  0  0  0  0  0  0  0  0  0
   19.7620  -14.2244   -3.1894 H   0  0  0  0  0  0  0  0  0  0  0  0
   15.5038  -15.0271   -0.1701 H   0  0  0  0  0  0  0  0  0  0  0  0
    9.4483  -17.0885  -11.8045 H   0  0  0  0  0  0  0  0  0  0  0  0
    8.4953  -15.5884  -11.8405 H   0  0  0  0  0  0  0  0  0  0  0  0
   11.3617  -16.0906  -12.0998 H   0  0  0  0  0  0  0  0  0  0  0  0
   11.1074  -14.6475  -13.8903 H   0  0  0  0  0  0  0  0  0  0  0  0
    9.3789  -14.5472  -13.4917 H   0  0  0  0  0  0  0  0  0  0  0  0
   10.9449  -14.6852   -9.7349 H   0  0  0  0  0  0  0  0  0  0  0  0
   12.9841  -14.3245   -9.9003 H   0  0  0  0  0  0  0  0  0  0  0  0
    9.5166  -12.9097  -10.7053 H   0  0  0  0  0  0  0  0  0  0  0  0
   11.2268  -12.0351   -9.4898 H   0  0  0  0  0  0  0  0  0  0  0  0
   11.5603  -12.5143  -12.9584 H   0  0  0  0  0  0  0  0  0  0  0  0
    8.5397  -13.5333  -14.2915 H   0  0  0  0  0  0  0  0  0  0  0  0
    5.5021  -13.8001  -15.9422 H   0  0  0  0  0  0  0  0  0  0  0  0
    6.6998  -13.9692  -14.6309 H   0  0  0  0  0  0  0  0  0  0  0  0
    6.9643   -9.5277  -14.6597 H   0  0  0  0  0  0  0  0  0  0  0  0
    8.7804   -8.7261  -13.1680 H   0  0  0  0  0  0  0  0  0  0  0  0
   10.4908  -10.2871  -12.3629 H   0  0  0  0  0  0  0  0  0  0  0  0
  1  2  1  1
  1  3  2  0
  1  4  1  0
  1 23  1  0
  4  5  1  0
  6  5  1  0
  6  7  1  0
  6  8  1  0
  7 12  1  0
  8  9  1  0
  8 10  1  0
 10 11  1  0
 10 12  1  0
 12 13  1  0
 13 14  1  0
 13 22  1  0
 14 15  2  0
 15 16  1  0
 16 17  2  0
 16 22  1  0
 17 18  1  0
 17 19  1  0
 19 20  2  0
 20 21  1  0
 21 22  2  0
 23 24  1  0
 24 25  2  0
 24 26  1  1
 24 27  1  0
 27 28  1  0
 29 28  1  0
 29 30  1  0
 29 31  1  0
 30 35  1  0
 31 32  1  0
 31 33  1  0
 33 34  1  0
 33 35  1  0
 35 36  1  0
 36 37  2  0
 36 44  1  0
 37 38  1  0
 38 39  1  0
 38 42  2  0
 39 40  2  0
 39 41  1  0
 42 43  1  0
 43 44  2  0
  5 45  1  0
  5 46  1  0
  6 47  1  1
  8 48  1  6
  9 49  1  0
 10 50  1  6
 11 51  1  0
 12 52  1  1
 14 53  1  0
 18 54  1  0
 18 55  1  0
 20 56  1  0
 28 57  1  0
 28 58  1  0
 29 59  1  6
 30 60  1  0
 30 61  1  0
 31 62  1  1
 32 63  1  0
 33 64  1  6
 34 65  1  0
 35 66  1  1
 37 67  1  0
 41 68  1  0
 41 69  1  0
 42 70  1  0
 43 71  1  0
 44 72  1  0
M  CHG  3   2  -1  26  -1  36   1
M  END
>  <filename_input>  (4) 
7OMX_CNA_docked.sdf

>  <pdb_id>  (4) 
7OMX_CNA

>  <pose_rank>  (4) 
3

>  <num_atoms_heavy>  (4) 
44

>  <num_torsions>  (4) 
11

>  <pose>  (4) 
[9.94682866011596, -16.279444095642994, -6.878583208918462, -1.361804988092858, 0.921728356794187, 0.4513596616687033, -1.4782532390006402, -3.9798247504323263, -0.03469400872189689, 0.0959813283652708, -4.716905165982249, -3.8600514836257576, 1.8113809321983068, -1.1106610426298944, -1.5554533897676897, -0.983027995839132, 0.13999449221544139]

>  <energy>  (4) 
-974.7980227400229

>  <inter_energy>  (4) 
-976.8322704586261

>  <intra_energy>  (4) 
16.31175591011142

>  <rmsd>  (4) 
3.25874

>  <sdf_rank>  (4) 
0

$$$$

     RDKit          3D

 72 76  0  0  0  0  0  0  0  0999 V2000
   11.6744  -14.8078   -9.8656 P   0  0  2  0  0  0  0  0  0  0  0  0
   10.4678  -15.6430  -10.2098 O   0  0  0  0  0  0  0  0  0  0  0  0
   13.0286  -15.3815  -10.0968 O   0  0  0  0  0  0  0  0  0  0  0  0
   11.5017  -14.4316   -8.3592 O   0  0  0  0  0  0  0  0  0  0  0  0
   12.3019  -13.3799   -7.7596 C   0  0  0  0  0  0  0  0  0  0  0  0
   12.2414  -13.5958   -6.2807 C   0  0  1  0  0  0  0  0  0  0  0  0
   13.4788  -14.1680   -5.7925 O   0  0  0  0  0  0  0  0  0  0  0  0
   11.9962  -12.3422   -5.4238 C   0  0  1  0  0  0  0  0  0  0  0  0
   11.0325  -12.6966   -4.4438 O   0  0  0  0  0  0  0  0  0  0  0  0
   13.3749  -12.0713   -4.8157 C   0  0  1  0  0  0  0  0  0  0  0  0
   13.3261  -11.3246   -3.6217 O   0  0  0  0  0  0  0  0  0  0  0  0
   13.8280  -13.5062   -4.5983 C   0  0  2  0  0  0  0  0  0  0  0  0
   15.2547  -13.6944   -4.3630 N   0  0  0  0  0  0  0  0  0  0  0  0
   16.2882  -13.6893   -5.2621 C   0  0  0  0  0  0  0  0  0  0  0  0
   17.4518  -13.9702   -4.7293 N   0  0  0  0  0  0  0  0  0  0  0  0
   17.1688  -14.1926   -3.3908 C   0  0  0  0  0  0  0  0  0  0  0  0
   17.9824  -14.5160   -2.2932 C   0  0  0  0  0  0  0  0  0  0  0  0
   19.3093  -14.6425   -2.3618 N   0  0  0  0  0  0  0  0  0  0  0  0
   17.3627  -14.7139   -1.1097 N   0  0  0  0  0  0  0  0  0  0  0  0
   16.0483  -14.4953   -1.0362 C   0  0  0  0  0  0  0  0  0  0  0  0
   15.1804  -14.2015   -1.9966 N   0  0  0  0  0  0  0  0  0  0  0  0
   15.8155  -14.0470   -3.1636 C   0  0  0  0  0  0  0  0  0  0  0  0
   11.5714  -13.4481  -10.7036 O   0  0  0  0  0  0  0  0  0  0  0  0
   10.5172  -12.2939  -11.0002 P   0  0  1  0  0  0  0  0  0  0  0  0
    9.6736  -12.0884   -9.7970 O   0  0  0  0  0  0  0  0  0  0  0  0
   11.3015  -11.1697  -11.6120 O   0  0  0  0  0  0  0  0  0  0  0  0
    9.7033  -12.9344  -12.2115 O   0  0  0  0  0  0  0  0  0  0  0  0
    9.9704  -12.5158  -13.5846 C   0  0  0  0  0  0  0  0  0  0  0  0
    8.6303  -12.3138  -14.2502 C   0  0  1  0  0  0  0  0  0  0  0  0
    8.1085  -13.5849  -14.9444 C   0  0  0  0  0  0  0  0  0  0  0  0
    7.5263  -11.8874  -13.2571 C   0  0  1  0  0  0  0  0  0  0  0  0
    6.6282  -10.9736  -13.8967 O   0  0  0  0  0  0  0  0  0  0  0  0
    6.8562  -13.2137  -12.8761 C   0  0  1  0  0  0  0  0  0  0  0  0
    5.5497  -12.9761  -12.3534 O   0  0  0  0  0  0  0  0  0  0  0  0
    6.8089  -13.9982  -14.2032 C   0  0  2  0  0  0  0  0  0  0  0  0
    6.6899  -15.4815  -14.0406 N   0  0  0  0  0  0  0  0  0  0  0  0
    6.7747  -16.0685  -12.7909 C   0  0  0  0  0  0  0  0  0  0  0  0
    6.6282  -17.4465  -12.6429 C   0  0  0  0  0  0  0  0  0  0  0  0
    6.7378  -18.0543  -11.2677 C   0  0  0  0  0  0  0  0  0  0  0  0
    7.3001  -17.4279  -10.3655 O   0  0  0  0  0  0  0  0  0  0  0  0
    6.2002  -19.2474  -11.0829 N   0  0  0  0  0  0  0  0  0  0  0  0
    6.3590  -18.2340  -13.7598 C   0  0  0  0  0  0  0  0  0  0  0  0
    6.2782  -17.6303  -14.9907 C   0  0  0  0  0  0  0  0  0  0  0  0
    6.4753  -16.2768  -15.1067 C   0  0  0  0  0  0  0  0  0  0  0  0
   13.3420  -13.4455   -8.1116 H   0  0  0  0  0  0  0  0  0  0  0  0
   11.9228  -12.3843   -8.0336 H   0  0  0  0  0  0  0  0  0  0  0  0
   11.3731  -14.2619   -6.1691 H   0  0  0  0  0  0  0  0  0  0  0  0
   11.6159  -11.4561   -5.9532 H   0  0  0  0  0  0  0  0  0  0  0  0
   11.4133  -12.5566   -3.5408 H   0  0  0  0  0  0  0  0  0  0  0  0
   14.0411  -11.4536   -5.4359 H   0  0  0  0  0  0  0  0  0  0  0  0
   13.3663  -11.9389   -2.8464 H   0  0  0  0  0  0  0  0  0  0  0  0
   13.3505  -13.8870   -3.6834 H   0  0  0  0  0  0  0  0  0  0  0  0
   16.1538  -13.4698   -6.3315 H   0  0  0  0  0  0  0  0  0  0  0  0
   19.8482  -14.8819   -1.5173 H   0  0  0  0  0  0  0  0  0  0  0  0
   19.7944  -14.5006   -3.2592 H   0  0  0  0  0  0  0  0  0  0  0  0
   15.6188  -14.5699   -0.0262 H   0  0  0  0  0  0  0  0  0  0  0  0
   10.5407  -11.5752  -13.5891 H   0  0  0  0  0  0  0  0  0  0  0  0
   10.5649  -13.2721  -14.1180 H   0  0  0  0  0  0  0  0  0  0  0  0
    8.8233  -11.5190  -14.9859 H   0  0  0  0  0  0  0  0  0  0  0  0
    7.8914  -13.3768  -16.0024 H   0  0  0  0  0  0  0  0  0  0  0  0
    8.8570  -14.3903  -14.9083 H   0  0  0  0  0  0  0  0  0  0  0  0
    7.8959  -11.3561  -12.3677 H   0  0  0  0  0  0  0  0  0  0  0  0
    6.1291  -10.4657  -13.2089 H   0  0  0  0  0  0  0  0  0  0  0  0
    7.3943  -13.7657  -12.0914 H   0  0  0  0  0  0  0  0  0  0  0  0
    5.5840  -12.9824  -11.3640 H   0  0  0  0  0  0  0  0  0  0  0  0
    5.8998  -13.7491  -14.7701 H   0  0  0  0  0  0  0  0  0  0  0  0
    6.9596  -15.4419  -11.9059 H   0  0  0  0  0  0  0  0  0  0  0  0
    6.2528  -19.6985  -10.1584 H   0  0  0  0  0  0  0  0  0  0  0  0
    5.7285  -19.7262  -11.8634 H   0  0  0  0  0  0  0  0  0  0  0  0
    6.2138  -19.3196  -13.6578 H   0  0  0  0  0  0  0  0  0  0  0  0
    6.0554  -18.2318  -15.8843 H   0  0  0  0  0  0  0  0  0  0  0  0
    6.4573  -15.8239  -16.1090 H   0  0  0  0  0  0  0  0  0  0  0  0
  1  2  1  6
  1  3  2  0
  1  4  1  0
  1 23  1  0
  4  5  1  0
  6  5  1  0
  6  7  1  0
  6  8  1  0
  7 12  1  0
  8  9  1  0
  8 10  1  0
 10 11  1  0
 10 12  1  0
 12 13  1  0
 13 14  1  0
 13 22  1  0
 14 15  2  0
 15 16  1  0
 16 17  2  0
 16 22  1  0
 17 18  1  0
 17 19  1  0
 19 20  2  0
 20 21  1  0
 21 22  2  0
 23 24  1  0
 24 25  2  0
 24 26  1  6
 24 27  1  0
 27 28  1  0
 29 28  1  0
 29 30  1  0
 29 31  1  0
 30 35  1  0
 31 32  1  0
 31 33  1  0
 33 34  1  0
 33 35  1  0
 35 36  1  0
 36 37  2  0
 36 44  1  0
 37 38  1  0
 38 39  1  0
 38 42  2  0
 39 40  2  0
 39 41  1  0
 42 43  1  0
 43 44  2  0
  5 45  1  0
  5 46  1  0
  6 47  1  6
  8 48  1  6
  9 49  1  0
 10 50  1  6
 11 51  1  0
 12 52  1  1
 14 53  1  0
 18 54  1  0
 18 55  1  0
 20 56  1  0
 28 57  1  0
 28 58  1  0
 29 59  1  6
 30 60  1  0
 30 61  1  0
 31 62  1  1
 32 63  1  0
 33 64  1  1
 34 65  1  0
 35 66  1  6
 37 67  1  0
 41 68  1  0
 41 69  1  0
 42 70  1  0
 43 71  1  0
 44 72  1  0
M  CHG  3   2  -1  26  -1  36   1
M  END
>  <filename_input>  (5) 
7OMX_CNA_docked.sdf

>  <pdb_id>  (5) 
7OMX_CNA

>  <pose_rank>  (5) 
4

>  <num_atoms_heavy>  (5) 
44

>  <num_torsions>  (5) 
11

>  <pose>  (5) 
[11.674387828890605, -14.807798672779368, -9.865589683886114, -0.15259009940373727, -0.4310253615792542, 0.20497970556062464, -5.809903177379624, 0.9477965655385221, -0.7919235077877298, -0.687957168719429, -12.741645493032703, 0.754576758216579, 3.375646246622001, -6.274570774730989, -6.974143206079546, 0.9149668081975199, -3.8113251076636296]

>  <energy>  (5) 
-962.953634279859

>  <inter_energy>  (5) 
-965.9928816506916

>  <intra_energy>  (5) 
17.542264932373197

>  <rmsd>  (5) 
4.65165

>  <sdf_rank>  (5) 
0

$$$$

     RDKit          3D

 72 76  0  0  0  0  0  0  0  0999 V2000
   10.7006  -17.0578   -7.7035 P   0  0  2  0  0  0  0  0  0  0  0  0
    9.6128  -17.9110   -7.1030 O   0  0  0  0  0  0  0  0  0  0  0  0
   12.0620  -17.6408   -7.8565 O   0  0  0  0  0  0  0  0  0  0  0  0
   10.7632  -15.7774   -6.8105 O   0  0  0  0  0  0  0  0  0  0  0  0
   11.8325  -14.8098   -6.9731 C   0  0  0  0  0  0  0  0  0  0  0  0
   11.9324  -14.0708   -5.6764 C   0  0  1  0  0  0  0  0  0  0  0  0
   13.1805  -14.3721   -5.0067 O   0  0  0  0  0  0  0  0  0  0  0  0
   11.8681  -12.5366   -5.7658 C   0  0  1  0  0  0  0  0  0  0  0  0
   11.0058  -12.1004   -4.7262 O   0  0  0  0  0  0  0  0  0  0  0  0
   13.3228  -12.1212   -5.5306 C   0  0  1  0  0  0  0  0  0  0  0  0
   13.4610  -10.8028   -5.0530 O   0  0  0  0  0  0  0  0  0  0  0  0
   13.7079  -13.1683   -4.4978 C   0  0  2  0  0  0  0  0  0  0  0  0
   15.1378  -13.3458   -4.2739 N   0  0  0  0  0  0  0  0  0  0  0  0
   16.1832  -13.1115   -5.1277 C   0  0  0  0  0  0  0  0  0  0  0  0
   17.3499  -13.4522   -4.6385 N   0  0  0  0  0  0  0  0  0  0  0  0
   17.0572  -13.9616   -3.3830 C   0  0  0  0  0  0  0  0  0  0  0  0
   17.8680  -14.4759   -2.3586 C   0  0  0  0  0  0  0  0  0  0  0  0
   19.2000  -14.5331   -2.4212 N   0  0  0  0  0  0  0  0  0  0  0  0
   17.2402  -14.9421   -1.2575 N   0  0  0  0  0  0  0  0  0  0  0  0
   15.9166  -14.7954   -1.1705 C   0  0  0  0  0  0  0  0  0  0  0  0
   15.0510  -14.3408   -2.0683 N   0  0  0  0  0  0  0  0  0  0  0  0
   15.6958  -13.9200   -3.1620 C   0  0  0  0  0  0  0  0  0  0  0  0
   10.2026  -16.5954   -9.1526 O   0  0  0  0  0  0  0  0  0  0  0  0
    9.1128  -15.6346   -9.8009 P   0  0  1  0  0  0  0  0  0  0  0  0
    8.5821  -16.2673  -11.0336 O   0  0  0  0  0  0  0  0  0  0  0  0
    8.2080  -15.2231   -8.6761 O   0  0  0  0  0  0  0  0  0  0  0  0
    9.9959  -14.3447  -10.1111 O   0  0  0  0  0  0  0  0  0  0  0  0
   11.2110  -14.4565  -10.9129 C   0  0  0  0  0  0  0  0  0  0  0  0
   11.1131  -13.4183  -12.0049 C   0  0  1  0  0  0  0  0  0  0  0  0
   10.6012  -13.9963  -13.3368 C   0  0  0  0  0  0  0  0  0  0  0  0
   10.1546  -12.2608  -11.6469 C   0  0  1  0  0  0  0  0  0  0  0  0
   10.6575  -11.0331  -12.1859 O   0  0  0  0  0  0  0  0  0  0  0  0
    8.8243  -12.6891  -12.2795 C   0  0  1  0  0  0  0  0  0  0  0  0
    7.9729  -11.5575  -12.4560 O   0  0  0  0  0  0  0  0  0  0  0  0
    9.2401  -13.3099  -13.6288 C   0  0  2  0  0  0  0  0  0  0  0  0
    8.2355  -14.2553  -14.2101 N   0  0  0  0  0  0  0  0  0  0  0  0
    8.4716  -14.8898  -15.4164 C   0  0  0  0  0  0  0  0  0  0  0  0
    7.5476  -15.7953  -15.9346 C   0  0  0  0  0  0  0  0  0  0  0  0
    7.8316  -16.4601  -17.2574 C   0  0  0  0  0  0  0  0  0  0  0  0
    8.9988  -16.6071  -17.6297 O   0  0  0  0  0  0  0  0  0  0  0  0
    6.7968  -16.8797  -17.9645 N   0  0  0  0  0  0  0  0  0  0  0  0
    6.3930  -16.0893  -15.2131 C   0  0  0  0  0  0  0  0  0  0  0  0
    6.1791  -15.4483  -14.0174 C   0  0  0  0  0  0  0  0  0  0  0  0
    7.0872  -14.5264  -13.5597 C   0  0  0  0  0  0  0  0  0  0  0  0
   12.7802  -15.3232   -7.1927 H   0  0  0  0  0  0  0  0  0  0  0  0
   11.6270  -14.1243   -7.8085 H   0  0  0  0  0  0  0  0  0  0  0  0
   11.0434  -14.4194   -5.1305 H   0  0  0  0  0  0  0  0  0  0  0  0
   11.4843  -12.1185   -6.7081 H   0  0  0  0  0  0  0  0  0  0  0  0
   11.4154  -12.3076   -3.8490 H   0  0  0  0  0  0  0  0  0  0  0  0
   13.9489  -12.0957   -6.4347 H   0  0  0  0  0  0  0  0  0  0  0  0
   13.4604  -10.8087   -4.0630 H   0  0  0  0  0  0  0  0  0  0  0  0
   13.3182  -12.8516   -3.5192 H   0  0  0  0  0  0  0  0  0  0  0  0
   16.0550  -12.6778   -6.1304 H   0  0  0  0  0  0  0  0  0  0  0  0
   19.7363  -14.9233   -1.6331 H   0  0  0  0  0  0  0  0  0  0  0  0
   19.6916  -14.1871   -3.2575 H   0  0  0  0  0  0  0  0  0  0  0  0
   15.4761  -15.0971   -0.2088 H   0  0  0  0  0  0  0  0  0  0  0  0
   12.0956  -14.2655  -10.2877 H   0  0  0  0  0  0  0  0  0  0  0  0
   11.3110  -15.4663  -11.3376 H   0  0  0  0  0  0  0  0  0  0  0  0
   12.1456  -13.0535  -12.1093 H   0  0  0  0  0  0  0  0  0  0  0  0
   11.3162  -13.7786  -14.1439 H   0  0  0  0  0  0  0  0  0  0  0  0
   10.4877  -15.0887  -13.2757 H   0  0  0  0  0  0  0  0  0  0  0  0
   10.0441  -12.0798  -10.5675 H   0  0  0  0  0  0  0  0  0  0  0  0
   10.9066  -10.4251  -11.4454 H   0  0  0  0  0  0  0  0  0  0  0  0
    8.2535  -13.3966  -11.6602 H   0  0  0  0  0  0  0  0  0  0  0  0
    7.7066  -11.2036  -11.5706 H   0  0  0  0  0  0  0  0  0  0  0  0
    9.3137  -12.5358  -14.4069 H   0  0  0  0  0  0  0  0  0  0  0  0
    9.3972  -14.6777  -15.9717 H   0  0  0  0  0  0  0  0  0  0  0  0
    6.9468  -17.3393  -18.8740 H   0  0  0  0  0  0  0  0  0  0  0  0
    5.8403  -16.7471  -17.6059 H   0  0  0  0  0  0  0  0  0  0  0  0
    5.6658  -16.8215  -15.5940 H   0  0  0  0  0  0  0  0  0  0  0  0
    5.2794  -15.6740  -13.4261 H   0  0  0  0  0  0  0  0  0  0  0  0
    6.8689  -13.9879  -12.6257 H   0  0  0  0  0  0  0  0  0  0  0  0
  1  2  1  1
  1  3  2  0
  1  4  1  0
  1 23  1  0
  4  5  1  0
  6  5  1  0
  6  7  1  0
  6  8  1  0
  7 12  1  0
  8  9  1  0
  8 10  1  0
 10 11  1  0
 10 12  1  0
 12 13  1  0
 13 14  1  0
 13 22  1  0
 14 15  2  0
 15 16  1  0
 16 17  2  0
 16 22  1  0
 17 18  1  0
 17 19  1  0
 19 20  2  0
 20 21  1  0
 21 22  2  0
 23 24  1  0
 24 25  2  0
 24 26  1  1
 24 27  1  0
 27 28  1  0
 29 28  1  0
 29 30  1  0
 29 31  1  0
 30 35  1  0
 31 32  1  0
 31 33  1  0
 33 34  1  0
 33 35  1  0
 35 36  1  0
 36 37  2  0
 36 44  1  0
 37 38  1  0
 38 39  1  0
 38 42  2  0
 39 40  2  0
 39 41  1  0
 42 43  1  0
 43 44  2  0
  5 45  1  0
  5 46  1  0
  6 47  1  1
  8 48  1  6
  9 49  1  0
 10 50  1  6
 11 51  1  0
 12 52  1  1
 14 53  1  0
 18 54  1  0
 18 55  1  0
 20 56  1  0
 28 57  1  0
 28 58  1  0
 29 59  1  6
 30 60  1  0
 30 61  1  0
 31 62  1  1
 32 63  1  0
 33 64  1  1
 34 65  1  0
 35 66  1  6
 37 67  1  0
 41 68  1  0
 41 69  1  0
 42 70  1  0
 43 71  1  0
 44 72  1  0
M  CHG  3   2  -1  26  -1  36   1
M  END
>  <filename_input>  (6) 
7OMX_CNA_docked.sdf

>  <pdb_id>  (6) 
7OMX_CNA

>  <pose_rank>  (6) 
5

>  <num_atoms_heavy>  (6) 
44

>  <num_torsions>  (6) 
11

>  <pose>  (6) 
[10.700644455296965, -17.057791977982088, -7.703471688565097, 4.611720436658101, 0.5511431696844104, -2.654043434837333, 6.345005643805522, 1.015512659170406, -6.933447223281831, 0.20448983286834485, -12.405519753430921, -2.3214888942125085, -6.465024675062231, 10.898382992907393, 18.04273875437993, 4.17994377461002, -3.0078107872159285]

>  <energy>  (6) 
-947.6931699982998

>  <inter_energy>  (6) 
-949.1254286748085

>  <intra_energy>  (6) 
17.584484632387973

>  <rmsd>  (6) 
4.41665

>  <sdf_rank>  (6) 
0

$$$$

     RDKit          3D

 72 76  0  0  0  0  0  0  0  0999 V2000
    8.7041  -15.9536   -8.3825 P   0  0  2  0  0  0  0  0  0  0  0  0
    8.9709  -17.4291   -8.2290 O   0  0  0  0  0  0  0  0  0  0  0  0
    7.2960  -15.4735   -8.3246 O   0  0  0  0  0  0  0  0  0  0  0  0
    9.3504  -15.5557   -9.7480 O   0  0  0  0  0  0  0  0  0  0  0  0
    9.6745  -14.1718  -10.0413 C   0  0  0  0  0  0  0  0  0  0  0  0
    8.8255  -13.7787  -11.2084 C   0  0  1  0  0  0  0  0  0  0  0  0
    8.9258  -12.3567  -11.4626 O   0  0  0  0  0  0  0  0  0  0  0  0
    9.1546  -14.4645  -12.5454 C   0  0  1  0  0  0  0  0  0  0  0  0
    7.9171  -14.8412  -13.1293 O   0  0  0  0  0  0  0  0  0  0  0  0
    9.8579  -13.3552  -13.3321 C   0  0  1  0  0  0  0  0  0  0  0  0
    9.8017  -13.5339  -14.7287 O   0  0  0  0  0  0  0  0  0  0  0  0
    9.0402  -12.1660  -12.8542 C   0  0  2  0  0  0  0  0  0  0  0  0
    9.6254  -10.8525  -13.0964 N   0  0  0  0  0  0  0  0  0  0  0  0
    9.8968  -10.2322  -14.2873 C   0  0  0  0  0  0  0  0  0  0  0  0
   10.5017   -9.0776  -14.1544 N   0  0  0  0  0  0  0  0  0  0  0  0
   10.6566   -8.9298  -12.7849 C   0  0  0  0  0  0  0  0  0  0  0  0
   11.2127   -7.9063  -12.0011 C   0  0  0  0  0  0  0  0  0  0  0  0
   11.7059   -6.7709  -12.5001 N   0  0  0  0  0  0  0  0  0  0  0  0
   11.2471   -8.1082  -10.6663 N   0  0  0  0  0  0  0  0  0  0  0  0
   10.6692   -9.2059  -10.1744 C   0  0  0  0  0  0  0  0  0  0  0  0
   10.1283  -10.2388  -10.8089 N   0  0  0  0  0  0  0  0  0  0  0  0
   10.1402  -10.0290  -12.1298 C   0  0  0  0  0  0  0  0  0  0  0  0
    9.5249  -15.1960   -7.2362 O   0  0  0  0  0  0  0  0  0  0  0  0
   11.0351  -14.9457   -6.8024 P   0  0  1  0  0  0  0  0  0  0  0  0
   11.6146  -16.2201   -6.3107 O   0  0  0  0  0  0  0  0  0  0  0  0
   11.6637  -14.1792   -7.9295 O   0  0  0  0  0  0  0  0  0  0  0  0
   10.8396  -13.8767   -5.6367 O   0  0  0  0  0  0  0  0  0  0  0  0
   11.6653  -13.9353   -4.4341 C   0  0  0  0  0  0  0  0  0  0  0  0
   12.4893  -12.6704   -4.4055 C   0  0  1  0  0  0  0  0  0  0  0  0
   13.4253  -12.5927   -3.1858 C   0  0  0  0  0  0  0  0  0  0  0  0
   13.3952  -12.5174   -5.6476 C   0  0  1  0  0  0  0  0  0  0  0  0
   13.4874  -11.1352   -6.0107 O   0  0  0  0  0  0  0  0  0  0  0  0
   14.7359  -13.1036   -5.1871 C   0  0  1  0  0  0  0  0  0  0  0  0
   15.7953  -12.6280   -6.0165 O   0  0  0  0  0  0  0  0  0  0  0  0
   14.8772  -12.6053   -3.7343 C   0  0  2  0  0  0  0  0  0  0  0  0
   15.8018  -13.4231   -2.8874 N   0  0  0  0  0  0  0  0  0  0  0  0
   16.9437  -13.9895   -3.4248 C   0  0  0  0  0  0  0  0  0  0  0  0
   17.8181  -14.7205   -2.6228 C   0  0  0  0  0  0  0  0  0  0  0  0
   19.0473  -15.3337   -3.2438 C   0  0  0  0  0  0  0  0  0  0  0  0
   18.9879  -16.4682   -3.7251 O   0  0  0  0  0  0  0  0  0  0  0  0
   20.1507  -14.6062   -3.2603 N   0  0  0  0  0  0  0  0  0  0  0  0
   17.5567  -14.8513   -1.2609 C   0  0  0  0  0  0  0  0  0  0  0  0
   16.4177  -14.2802   -0.7484 C   0  0  0  0  0  0  0  0  0  0  0  0
   15.5536  -13.6076   -1.5761 C   0  0  0  0  0  0  0  0  0  0  0  0
    9.4467  -13.5354   -9.1734 H   0  0  0  0  0  0  0  0  0  0  0  0
   10.7443  -14.0515  -10.2672 H   0  0  0  0  0  0  0  0  0  0  0  0
    7.8213  -14.1015  -10.8963 H   0  0  0  0  0  0  0  0  0  0  0  0
    9.7800  -15.3677  -12.4894 H   0  0  0  0  0  0  0  0  0  0  0  0
    7.2619  -15.0406  -12.4143 H   0  0  0  0  0  0  0  0  0  0  0  0
   10.9422  -13.2829  -13.1618 H   0  0  0  0  0  0  0  0  0  0  0  0
    9.5109  -14.4582  -14.9317 H   0  0  0  0  0  0  0  0  0  0  0  0
    8.0932  -12.1475  -13.4137 H   0  0  0  0  0  0  0  0  0  0  0  0
    9.6315  -10.6632  -15.2639 H   0  0  0  0  0  0  0  0  0  0  0  0
   12.1003   -6.0593  -11.8686 H   0  0  0  0  0  0  0  0  0  0  0  0
   11.6919   -6.6063  -13.5168 H   0  0  0  0  0  0  0  0  0  0  0  0
   10.6359   -9.2635   -9.0764 H   0  0  0  0  0  0  0  0  0  0  0  0
   11.0275  -13.9915   -3.5396 H   0  0  0  0  0  0  0  0  0  0  0  0
   12.3111  -14.8258   -4.4430 H   0  0  0  0  0  0  0  0  0  0  0  0
   11.7353  -11.8704   -4.3700 H   0  0  0  0  0  0  0  0  0  0  0  0
   13.2403  -11.6647   -2.6248 H   0  0  0  0  0  0  0  0  0  0  0  0
   13.2541  -13.4370   -2.5019 H   0  0  0  0  0  0  0  0  0  0  0  0
   13.0229  -13.0293   -6.5472 H   0  0  0  0  0  0  0  0  0  0  0  0
   13.5244  -10.5806   -5.1915 H   0  0  0  0  0  0  0  0  0  0  0  0
   14.7782  -14.2009   -5.2511 H   0  0  0  0  0  0  0  0  0  0  0  0
   16.5352  -12.2958   -5.4488 H   0  0  0  0  0  0  0  0  0  0  0  0
   15.3493  -11.6121   -3.7080 H   0  0  0  0  0  0  0  0  0  0  0  0
   17.1635  -13.8618   -4.4951 H   0  0  0  0  0  0  0  0  0  0  0  0
   21.0128  -14.9876   -3.6752 H   0  0  0  0  0  0  0  0  0  0  0  0
   20.1483  -13.6579   -2.8583 H   0  0  0  0  0  0  0  0  0  0  0  0
   18.2498  -15.4020   -0.6079 H   0  0  0  0  0  0  0  0  0  0  0  0
   16.1977  -14.3618    0.3263 H   0  0  0  0  0  0  0  0  0  0  0  0
   14.6223  -13.2036   -1.1524 H   0  0  0  0  0  0  0  0  0  0  0  0
  1  2  1  1
  1  3  2  0
  1  4  1  0
  1 23  1  0
  4  5  1  0
  6  5  1  0
  6  7  1  0
  6  8  1  0
  7 12  1  0
  8  9  1  0
  8 10  1  0
 10 11  1  0
 10 12  1  0
 12 13  1  0
 13 14  1  0
 13 22  1  0
 14 15  2  0
 15 16  1  0
 16 17  2  0
 16 22  1  0
 17 18  1  0
 17 19  1  0
 19 20  2  0
 20 21  1  0
 21 22  2  0
 23 24  1  0
 24 25  2  0
 24 26  1  6
 24 27  1  0
 27 28  1  0
 29 28  1  0
 29 30  1  0
 29 31  1  0
 30 35  1  0
 31 32  1  0
 31 33  1  0
 33 34  1  0
 33 35  1  0
 35 36  1  0
 36 37  2  0
 36 44  1  0
 37 38  1  0
 38 39  1  0
 38 42  2  0
 39 40  2  0
 39 41  1  0
 42 43  1  0
 43 44  2  0
  5 45  1  0
  5 46  1  0
  6 47  1  1
  8 48  1  1
  9 49  1  0
 10 50  1  1
 11 51  1  0
 12 52  1  6
 14 53  1  0
 18 54  1  0
 18 55  1  0
 20 56  1  0
 28 57  1  0
 28 58  1  0
 29 59  1  1
 30 60  1  0
 30 61  1  0
 31 62  1  6
 32 63  1  0
 33 64  1  1
 34 65  1  0
 35 66  1  6
 37 67  1  0
 41 68  1  0
 41 69  1  0
 42 70  1  0
 43 71  1  0
 44 72  1  0
M  CHG  3   2  -1  26  -1  36   1
M  END
>  <filename_input>  (7) 
7OMX_CNA_docked.sdf

>  <pdb_id>  (7) 
7OMX_CNA

>  <pose_rank>  (7) 
6

>  <num_atoms_heavy>  (7) 
44

>  <num_torsions>  (7) 
11

>  <pose>  (7) 
[8.704060906442521, -15.953621583651131, -8.382496299848507, -1.7770199450974986, -3.1967717729710476, -0.40041372685053656, 0.5663708444052609, -4.5632851649372475, 0.38022207629443006, 1.792438366399966, 0.07091785047582853, -1.040624996765815, 1.3249454885898653, -1.8869675759158944, -2.2420930364475544, 1.659711020107282, 1.2631879784752744]

>  <energy>  (7) 
-876.7906748924437

>  <inter_energy>  (7) 
-943.233786100906

>  <intra_energy>  (7) 
65.130476337584

>  <rmsd>  (7) 
10.1995

>  <sdf_rank>  (7) 
0

$$$$

     RDKit          3D

 72 76  0  0  0  0  0  0  0  0999 V2000
   10.4906  -15.8172   -7.6717 P   0  0  2  0  0  0  0  0  0  0  0  0
    9.1169  -16.4364   -7.6328 O   0  0  0  0  0  0  0  0  0  0  0  0
   11.5955  -16.5729   -8.3235 O   0  0  0  0  0  0  0  0  0  0  0  0
   10.8523  -15.5175   -6.1818 O   0  0  0  0  0  0  0  0  0  0  0  0
   10.4088  -14.2930   -5.5415 C   0  0  0  0  0  0  0  0  0  0  0  0
   11.5560  -13.3364   -5.6217 C   0  0  1  0  0  0  0  0  0  0  0  0
   12.3539  -13.3865   -4.4143 O   0  0  0  0  0  0  0  0  0  0  0  0
   12.5419  -13.5587   -6.7814 C   0  0  1  0  0  0  0  0  0  0  0  0
   12.8192  -12.2816   -7.3351 O   0  0  0  0  0  0  0  0  0  0  0  0
   13.7591  -14.1680   -6.0804 C   0  0  1  0  0  0  0  0  0  0  0  0
   14.9635  -13.9915   -6.7902 O   0  0  0  0  0  0  0  0  0  0  0  0
   13.7134  -13.3732   -4.7852 C   0  0  2  0  0  0  0  0  0  0  0  0
   14.5012  -13.9094   -3.6813 N   0  0  0  0  0  0  0  0  0  0  0  0
   14.0812  -14.3649   -2.4596 C   0  0  0  0  0  0  0  0  0  0  0  0
   15.0607  -14.7088   -1.6601 N   0  0  0  0  0  0  0  0  0  0  0  0
   16.2071  -14.4487   -2.3945 C   0  0  0  0  0  0  0  0  0  0  0  0
   17.5715  -14.6167   -2.1090 C   0  0  0  0  0  0  0  0  0  0  0  0
   18.0352  -15.1426   -0.9733 N   0  0  0  0  0  0  0  0  0  0  0  0
   18.4484  -14.2073   -3.0509 N   0  0  0  0  0  0  0  0  0  0  0  0
   17.9699  -13.7682   -4.2168 C   0  0  0  0  0  0  0  0  0  0  0  0
   16.7154  -13.5555   -4.5948 N   0  0  0  0  0  0  0  0  0  0  0  0
   15.8702  -13.9352   -3.6302 C   0  0  0  0  0  0  0  0  0  0  0  0
   10.3597  -14.4063   -8.4159 O   0  0  0  0  0  0  0  0  0  0  0  0
    9.4865  -13.7240   -9.5575 P   0  0  1  0  0  0  0  0  0  0  0  0
    8.6282  -14.7550  -10.1913 O   0  0  0  0  0  0  0  0  0  0  0  0
    8.9034  -12.4852   -8.9424 O   0  0  0  0  0  0  0  0  0  0  0  0
   10.6292  -13.1984  -10.5362 O   0  0  0  0  0  0  0  0  0  0  0  0
   11.1056  -11.8213  -10.4438 C   0  0  0  0  0  0  0  0  0  0  0  0
   11.0832  -11.2545  -11.8431 C   0  0  1  0  0  0  0  0  0  0  0  0
   10.7116  -12.3023  -12.9079 C   0  0  0  0  0  0  0  0  0  0  0  0
   10.0668  -10.1025  -12.0066 C   0  0  1  0  0  0  0  0  0  0  0  0
   10.5865   -9.1254  -12.9154 O   0  0  0  0  0  0  0  0  0  0  0  0
    8.8121  -10.8054  -12.5402 C   0  0  1  0  0  0  0  0  0  0  0  0
    7.9525   -9.8643  -13.1820 O   0  0  0  0  0  0  0  0  0  0  0  0
    9.3665  -11.8464  -13.5341 C   0  0  2  0  0  0  0  0  0  0  0  0
    8.4441  -12.9935  -13.8065 N   0  0  0  0  0  0  0  0  0  0  0  0
    8.6714  -13.8518  -14.8672 C   0  0  0  0  0  0  0  0  0  0  0  0
    7.8284  -14.9381  -15.0941 C   0  0  0  0  0  0  0  0  0  0  0  0
    8.0988  -15.8467  -16.2663 C   0  0  0  0  0  0  0  0  0  0  0  0
    9.2603  -16.0390  -16.6356 O   0  0  0  0  0  0  0  0  0  0  0  0
    7.0593  -16.4216  -16.8456 N   0  0  0  0  0  0  0  0  0  0  0  0
    6.7686  -15.1806  -14.2234 C   0  0  0  0  0  0  0  0  0  0  0  0
    6.5619  -14.3162  -13.1764 C   0  0  0  0  0  0  0  0  0  0  0  0
    7.3830  -13.2288  -13.0104 C   0  0  0  0  0  0  0  0  0  0  0  0
    9.5342  -13.8834   -6.0680 H   0  0  0  0  0  0  0  0  0  0  0  0
   10.1115  -14.4732   -4.4979 H   0  0  0  0  0  0  0  0  0  0  0  0
   11.0544  -12.3702   -5.7794 H   0  0  0  0  0  0  0  0  0  0  0  0
   12.1931  -14.2037   -7.6013 H   0  0  0  0  0  0  0  0  0  0  0  0
   12.9609  -11.6288   -6.6045 H   0  0  0  0  0  0  0  0  0  0  0  0
   13.7280  -15.2615   -5.9659 H   0  0  0  0  0  0  0  0  0  0  0  0
   15.7108  -13.8819   -6.1500 H   0  0  0  0  0  0  0  0  0  0  0  0
   14.1488  -12.3802   -4.9707 H   0  0  0  0  0  0  0  0  0  0  0  0
   13.0207  -14.4353   -2.1761 H   0  0  0  0  0  0  0  0  0  0  0  0
   19.0502  -15.2379   -0.8266 H   0  0  0  0  0  0  0  0  0  0  0  0
   17.3779  -15.4532   -0.2436 H   0  0  0  0  0  0  0  0  0  0  0  0
   18.7307  -13.5494   -4.9805 H   0  0  0  0  0  0  0  0  0  0  0  0
   10.4448  -11.2357   -9.7878 H   0  0  0  0  0  0  0  0  0  0  0  0
   12.1199  -11.7832  -10.0198 H   0  0  0  0  0  0  0  0  0  0  0  0
   12.1114  -10.8936  -11.9933 H   0  0  0  0  0  0  0  0  0  0  0  0
   11.4925  -12.3501  -13.6811 H   0  0  0  0  0  0  0  0  0  0  0  0
   10.6204  -13.3037  -12.4619 H   0  0  0  0  0  0  0  0  0  0  0  0
    9.8524   -9.5509  -11.0793 H   0  0  0  0  0  0  0  0  0  0  0  0
   10.9844   -8.3772  -12.4035 H   0  0  0  0  0  0  0  0  0  0  0  0
    8.2044  -11.2732  -11.7516 H   0  0  0  0  0  0  0  0  0  0  0  0
    7.4706   -9.3367  -12.4968 H   0  0  0  0  0  0  0  0  0  0  0  0
    9.4923  -11.4023  -14.5326 H   0  0  0  0  0  0  0  0  0  0  0  0
    9.5253  -13.6752  -15.5378 H   0  0  0  0  0  0  0  0  0  0  0  0
    7.2000  -17.0497  -17.6497 H   0  0  0  0  0  0  0  0  0  0  0  0
    6.1084  -16.2415  -16.4930 H   0  0  0  0  0  0  0  0  0  0  0  0
    6.1093  -16.0486  -14.3717 H   0  0  0  0  0  0  0  0  0  0  0  0
    5.7376  -14.4953  -12.4704 H   0  0  0  0  0  0  0  0  0  0  0  0
    7.1663  -12.5222  -12.1957 H   0  0  0  0  0  0  0  0  0  0  0  0
  1  2  1  1
  1  3  2  0
  1  4  1  0
  1 23  1  0
  4  5  1  0
  6  5  1  0
  6  7  1  0
  6  8  1  0
  7 12  1  0
  8  9  1  0
  8 10  1  0
 10 11  1  0
 10 12  1  0
 12 13  1  0
 13 14  1  0
 13 22  1  0
 14 15  2  0
 15 16  1  0
 16 17  2  0
 16 22  1  0
 17 18  1  0
 17 19  1  0
 19 20  2  0
 20 21  1  0
 21 22  2  0
 23 24  1  0
 24 25  2  0
 24 26  1  1
 24 27  1  0
 27 28  1  0
 29 28  1  0
 29 30  1  0
 29 31  1  0
 30 35  1  0
 31 32  1  0
 31 33  1  0
 33 34  1  0
 33 35  1  0
 35 36  1  0
 36 37  2  0
 36 44  1  0
 37 38  1  0
 38 39  1  0
 38 42  2  0
 39 40  2  0
 39 41  1  0
 42 43  1  0
 43 44  2  0
  5 45  1  0
  5 46  1  0
  6 47  1  6
  8 48  1  6
  9 49  1  0
 10 50  1  1
 11 51  1  0
 12 52  1  6
 14 53  1  0
 18 54  1  0
 18 55  1  0
 20 56  1  0
 28 57  1  0
 28 58  1  0
 29 59  1  6
 30 60  1  0
 30 61  1  0
 31 62  1  1
 32 63  1  0
 33 64  1  1
 34 65  1  0
 35 66  1  6
 37 67  1  0
 41 68  1  0
 41 69  1  0
 42 70  1  0
 43 71  1  0
 44 72  1  0
M  CHG  3   2  -1  26  -1  36   1
M  END
>  <filename_input>  (8) 
7OMX_CNA_docked.sdf

>  <pdb_id>  (8) 
7OMX_CNA

>  <pose_rank>  (8) 
7

>  <num_atoms_heavy>  (8) 
44

>  <num_torsions>  (8) 
11

>  <pose>  (8) 
[10.490597460207152, -15.817225016598377, -7.6717489976205275, 4.130954240280208, 3.9352615801517365, -2.2067032306316148, 8.168466590905188, 2.0577025754625637, -10.547517255332787, -1.3781701096471775, 4.678999093624268, 0.04815991821968816, -9.092706169151443, 0.09520927111750192, -11.766744307292408, -2.339849147389768, 3.3787701893099866]

>  <energy>  (8) 
-880.6888235812877

>  <inter_energy>  (8) 
-963.6342504026397

>  <intra_energy>  (8) 
70.74859470558263

>  <rmsd>  (8) 
4.25957

>  <sdf_rank>  (8) 
0

$$$$

     RDKit          3D

 72 76  0  0  0  0  0  0  0  0999 V2000
   11.3361  -14.2986  -10.0836 P   0  0  2  0  0  0  0  0  0  0  0  0
   10.2824  -15.3746  -10.1457 O   0  0  0  0  0  0  0  0  0  0  0  0
   12.7193  -14.6283  -10.5247 O   0  0  0  0  0  0  0  0  0  0  0  0
   11.3480  -13.8158   -8.5978 O   0  0  0  0  0  0  0  0  0  0  0  0
   12.5687  -13.3239   -7.9863 C   0  0  0  0  0  0  0  0  0  0  0  0
   12.4134  -13.5280   -6.5127 C   0  0  1  0  0  0  0  0  0  0  0  0
   13.6177  -14.0937   -5.9412 O   0  0  0  0  0  0  0  0  0  0  0  0
   12.1116  -12.2680   -5.6836 C   0  0  1  0  0  0  0  0  0  0  0  0
   11.0874  -12.6165   -4.7648 O   0  0  0  0  0  0  0  0  0  0  0  0
   13.4479  -11.9894   -4.9903 C   0  0  1  0  0  0  0  0  0  0  0  0
   13.3212  -11.2332   -3.8080 O   0  0  0  0  0  0  0  0  0  0  0  0
   13.8882  -13.4215   -4.7325 C   0  0  2  0  0  0  0  0  0  0  0  0
   15.2971  -13.6050   -4.4043 N   0  0  0  0  0  0  0  0  0  0  0  0
   16.3784  -13.6786   -5.2421 C   0  0  0  0  0  0  0  0  0  0  0  0
   17.5070  -13.9291   -4.6254 N   0  0  0  0  0  0  0  0  0  0  0  0
   17.1478  -14.0458   -3.2917 C   0  0  0  0  0  0  0  0  0  0  0  0
   17.8954  -14.2920   -2.1291 C   0  0  0  0  0  0  0  0  0  0  0  0
   19.2222  -14.4362   -2.1137 N   0  0  0  0  0  0  0  0  0  0  0  0
   17.2089  -14.3930   -0.9705 N   0  0  0  0  0  0  0  0  0  0  0  0
   15.8956  -14.1567   -0.9872 C   0  0  0  0  0  0  0  0  0  0  0  0
   15.0859  -13.9289   -2.0141 N   0  0  0  0  0  0  0  0  0  0  0  0
   15.7863  -13.8702   -3.1521 C   0  0  0  0  0  0  0  0  0  0  0  0
   10.8207  -13.0709  -10.9718 O   0  0  0  0  0  0  0  0  0  0  0  0
    9.9683  -12.8135  -12.2904 P   0  0  1  0  0  0  0  0  0  0  0  0
    9.9002  -11.3533  -12.5448 O   0  0  0  0  0  0  0  0  0  0  0  0
   10.5053  -13.7666  -13.3182 O   0  0  0  0  0  0  0  0  0  0  0  0
    8.5595  -13.4224  -11.8611 O   0  0  0  0  0  0  0  0  0  0  0  0
    8.1105  -14.7009  -12.4047 C   0  0  0  0  0  0  0  0  0  0  0  0
    7.4406  -14.4052  -13.7252 C   0  0  1  0  0  0  0  0  0  0  0  0
    7.1415  -15.6748  -14.5428 C   0  0  0  0  0  0  0  0  0  0  0  0
    6.0883  -13.6763  -13.5609 C   0  0  1  0  0  0  0  0  0  0  0  0
    5.9076  -12.7461  -14.6346 O   0  0  0  0  0  0  0  0  0  0  0  0
    5.0624  -14.8166  -13.5809 C   0  0  1  0  0  0  0  0  0  0  0  0
    3.7685  -14.3129  -13.9104 O   0  0  0  0  0  0  0  0  0  0  0  0
    5.5974  -15.7756  -14.6640 C   0  0  2  0  0  0  0  0  0  0  0  0
    5.1044  -17.1837  -14.5412 N   0  0  0  0  0  0  0  0  0  0  0  0
    5.2576  -18.0835  -15.5805 C   0  0  0  0  0  0  0  0  0  0  0  0
    4.8277  -19.4024  -15.4464 C   0  0  0  0  0  0  0  0  0  0  0  0
    4.9998  -20.3534  -16.6033 C   0  0  0  0  0  0  0  0  0  0  0  0
    5.6933  -21.3646  -16.4655 O   0  0  0  0  0  0  0  0  0  0  0  0
    4.3728  -20.0638  -17.7302 N   0  0  0  0  0  0  0  0  0  0  0  0
    4.2708  -19.8257  -14.2419 C   0  0  0  0  0  0  0  0  0  0  0  0
    4.1289  -18.9158  -13.2230 C   0  0  0  0  0  0  0  0  0  0  0  0
    4.5194  -17.6126  -13.4059 C   0  0  0  0  0  0  0  0  0  0  0  0
   13.4358  -13.8886   -8.3595 H   0  0  0  0  0  0  0  0  0  0  0  0
   12.7367  -12.2638   -8.2270 H   0  0  0  0  0  0  0  0  0  0  0  0
   11.5407  -14.1949   -6.4518 H   0  0  0  0  0  0  0  0  0  0  0  0
   11.7648  -11.3870   -6.2436 H   0  0  0  0  0  0  0  0  0  0  0  0
   11.4213  -12.5029   -3.8398 H   0  0  0  0  0  0  0  0  0  0  0  0
   14.1517  -11.3753   -5.5713 H   0  0  0  0  0  0  0  0  0  0  0  0
   13.4210  -11.8284   -3.0233 H   0  0  0  0  0  0  0  0  0  0  0  0
   13.3534  -13.7959   -3.8471 H   0  0  0  0  0  0  0  0  0  0  0  0
   16.3060  -13.5402   -6.3309 H   0  0  0  0  0  0  0  0  0  0  0  0
   19.7104  -14.6156   -1.2247 H   0  0  0  0  0  0  0  0  0  0  0  0
   19.7578  -14.3680   -2.9908 H   0  0  0  0  0  0  0  0  0  0  0  0
   15.4103  -14.1496   -0.0001 H   0  0  0  0  0  0  0  0  0  0  0  0
    8.9703  -15.3696  -12.5582 H   0  0  0  0  0  0  0  0  0  0  0  0
    7.4154  -15.2002  -11.7137 H   0  0  0  0  0  0  0  0  0  0  0  0
    8.1682  -13.7671  -14.2480 H   0  0  0  0  0  0  0  0  0  0  0  0
    7.5957  -15.5979  -15.5416 H   0  0  0  0  0  0  0  0  0  0  0  0
    7.5584  -16.5673  -14.0532 H   0  0  0  0  0  0  0  0  0  0  0  0
    6.0034  -13.0781  -12.6417 H   0  0  0  0  0  0  0  0  0  0  0  0
    5.7325  -11.8448  -14.2644 H   0  0  0  0  0  0  0  0  0  0  0  0
    4.9473  -15.3181  -12.6086 H   0  0  0  0  0  0  0  0  0  0  0  0
    3.2685  -14.1183  -13.0784 H   0  0  0  0  0  0  0  0  0  0  0  0
    5.2299  -15.4827  -15.6586 H   0  0  0  0  0  0  0  0  0  0  0  0
    5.7231  -17.7551  -16.5215 H   0  0  0  0  0  0  0  0  0  0  0  0
    4.4637  -20.6873  -18.5450 H   0  0  0  0  0  0  0  0  0  0  0  0
    3.7933  -19.2147  -17.7936 H   0  0  0  0  0  0  0  0  0  0  0  0
    3.9506  -20.8697  -14.1091 H   0  0  0  0  0  0  0  0  0  0  0  0
    3.7020  -19.2315  -12.2596 H   0  0  0  0  0  0  0  0  0  0  0  0
    4.3480  -16.8904  -12.5940 H   0  0  0  0  0  0  0  0  0  0  0  0
  1  2  1  1
  1  3  2  0
  1  4  1  0
  1 23  1  0
  4  5  1  0
  6  5  1  0
  6  7  1  0
  6  8  1  0
  7 12  1  0
  8  9  1  0
  8 10  1  0
 10 11  1  0
 10 12  1  0
 12 13  1  0
 13 14  1  0
 13 22  1  0
 14 15  2  0
 15 16  1  0
 16 17  2  0
 16 22  1  0
 17 18  1  0
 17 19  1  0
 19 20  2  0
 20 21  1  0
 21 22  2  0
 23 24  1  0
 24 25  2  0
 24 26  1  6
 24 27  1  0
 27 28  1  0
 29 28  1  0
 29 30  1  0
 29 31  1  0
 30 35  1  0
 31 32  1  0
 31 33  1  0
 33 34  1  0
 33 35  1  0
 35 36  1  0
 36 37  2  0
 36 44  1  0
 37 38  1  0
 38 39  1  0
 38 42  2  0
 39 40  2  0
 39 41  1  0
 42 43  1  0
 43 44  2  0
  5 45  1  0
  5 46  1  0
  6 47  1  6
  8 48  1  6
  9 49  1  0
 10 50  1  6
 11 51  1  0
 12 52  1  1
 14 53  1  0
 18 54  1  0
 18 55  1  0
 20 56  1  0
 28 57  1  0
 28 58  1  0
 29 59  1  6
 30 60  1  0
 30 61  1  0
 31 62  1  1
 32 63  1  0
 33 64  1  1
 34 65  1  0
 35 66  1  6
 37 67  1  0
 41 68  1  0
 41 69  1  0
 42 70  1  0
 43 71  1  0
 44 72  1  0
M  CHG  3   2  -1  26  -1  36   1
M  END
>  <filename_input>  (9) 
7OMX_CNA_docked.sdf

>  <pdb_id>  (9) 
7OMX_CNA

>  <pose_rank>  (9) 
8

>  <num_atoms_heavy>  (9) 
44

>  <num_torsions>  (9) 
11

>  <pose>  (9) 
[11.336068940876874, -14.298598996262733, -10.083571964840774, -0.17009920063762451, -0.258946435737318, 0.42691504411958375, -0.318293039612854, -74.3553292143641, -31.676254012778166, 5.525185213644484, -45.623255431165035, 22.175748390610156, 97.53877650076562, 57.428658145028436, -40.1305409286433, -2.347709693947421, -1.385618927969314]

>  <energy>  (9) 
-872.399678716608

>  <inter_energy>  (9) 
-883.7664681395574

>  <intra_energy>  (9) 
13.906525326263019

>  <rmsd>  (9) 
6.14238

>  <sdf_rank>  (9) 
0

$$$$

     RDKit          3D

 72 76  0  0  0  0  0  0  0  0999 V2000
   10.9724  -14.1383   -8.8114 P   0  0  2  0  0  0  0  0  0  0  0  0
   10.7958  -12.7404   -8.2760 O   0  0  0  0  0  0  0  0  0  0  0  0
    9.9998  -15.1879   -8.4003 O   0  0  0  0  0  0  0  0  0  0  0  0
   12.4201  -14.5590   -8.4016 O   0  0  0  0  0  0  0  0  0  0  0  0
   13.2431  -13.6881   -7.5829 C   0  0  0  0  0  0  0  0  0  0  0  0
   12.5503  -13.5732   -6.2622 C   0  0  1  0  0  0  0  0  0  0  0  0
   13.2833  -14.2802   -5.2328 O   0  0  0  0  0  0  0  0  0  0  0  0
   12.3511  -12.1456   -5.7251 C   0  0  1  0  0  0  0  0  0  0  0  0
   11.0235  -12.0753   -5.2282 O   0  0  0  0  0  0  0  0  0  0  0  0
   13.3972  -12.0528   -4.6110 C   0  0  1  0  0  0  0  0  0  0  0  0
   13.0961  -11.0806   -3.6364 O   0  0  0  0  0  0  0  0  0  0  0  0
   13.3070  -13.4735   -4.0775 C   0  0  2  0  0  0  0  0  0  0  0  0
   14.4125  -13.9069   -3.2310 N   0  0  0  0  0  0  0  0  0  0  0  0
   14.3964  -14.2933   -1.9169 C   0  0  0  0  0  0  0  0  0  0  0  0
   15.5848  -14.5489   -1.4280 N   0  0  0  0  0  0  0  0  0  0  0  0
   16.4482  -14.2997   -2.4834 C   0  0  0  0  0  0  0  0  0  0  0  0
   17.8429  -14.4012   -2.6085 C   0  0  0  0  0  0  0  0  0  0  0  0
   18.6481  -14.8333   -1.6357 N   0  0  0  0  0  0  0  0  0  0  0  0
   18.3799  -14.0263   -3.7895 N   0  0  0  0  0  0  0  0  0  0  0  0
   17.5563  -13.6833   -4.7819 C   0  0  0  0  0  0  0  0  0  0  0  0
   16.2367  -13.5396   -4.7801 N   0  0  0  0  0  0  0  0  0  0  0  0
   15.7350  -13.8823   -3.5885 C   0  0  0  0  0  0  0  0  0  0  0  0
   10.9447  -14.0470  -10.4091 O   0  0  0  0  0  0  0  0  0  0  0  0
   11.9119  -14.3029  -11.6463 P   0  0  1  0  0  0  0  0  0  0  0  0
   13.0974  -13.4191  -11.5242 O   0  0  0  0  0  0  0  0  0  0  0  0
   12.0502  -15.7934  -11.7570 O   0  0  0  0  0  0  0  0  0  0  0  0
   10.9651  -13.8865  -12.8588 O   0  0  0  0  0  0  0  0  0  0  0  0
   11.4662  -13.9115  -14.2299 C   0  0  0  0  0  0  0  0  0  0  0  0
   10.6067  -12.9611  -15.0286 C   0  0  1  0  0  0  0  0  0  0  0  0
    9.1072  -13.3009  -14.9515 C   0  0  0  0  0  0  0  0  0  0  0  0
   10.7359  -11.4958  -14.5565 C   0  0  1  0  0  0  0  0  0  0  0  0
   10.6448  -10.6159  -15.6826 O   0  0  0  0  0  0  0  0  0  0  0  0
    9.5680  -11.3316  -13.5755 C   0  0  1  0  0  0  0  0  0  0  0  0
    9.2523   -9.9500  -13.4083 O   0  0  0  0  0  0  0  0  0  0  0  0
    8.4136  -12.1070  -14.2427 C   0  0  2  0  0  0  0  0  0  0  0  0
    7.3383  -12.5479  -13.2991 N   0  0  0  0  0  0  0  0  0  0  0  0
    7.6247  -13.3876  -12.2378 C   0  0  0  0  0  0  0  0  0  0  0  0
    6.6256  -13.7661  -11.3429 C   0  0  0  0  0  0  0  0  0  0  0  0
    6.9702  -14.6917  -10.2041 C   0  0  0  0  0  0  0  0  0  0  0  0
    7.1320  -14.2323   -9.0704 O   0  0  0  0  0  0  0  0  0  0  0  0
    7.0680  -15.9818  -10.4741 N   0  0  0  0  0  0  0  0  0  0  0  0
    5.3353  -13.2653  -11.4997 C   0  0  0  0  0  0  0  0  0  0  0  0
    5.0734  -12.4325  -12.5600 C   0  0  0  0  0  0  0  0  0  0  0  0
    6.0703  -12.1184  -13.4499 C   0  0  0  0  0  0  0  0  0  0  0  0
   14.2443  -14.1242   -7.4509 H   0  0  0  0  0  0  0  0  0  0  0  0
   13.3719  -12.7022   -8.0534 H   0  0  0  0  0  0  0  0  0  0  0  0
   11.5590  -14.0016   -6.4713 H   0  0  0  0  0  0  0  0  0  0  0  0
   12.4735  -11.3293   -6.4522 H   0  0  0  0  0  0  0  0  0  0  0  0
   11.0411  -12.0762   -4.2384 H   0  0  0  0  0  0  0  0  0  0  0  0
   14.3971  -11.7336   -4.9403 H   0  0  0  0  0  0  0  0  0  0  0  0
   13.2166  -11.4696   -2.7341 H   0  0  0  0  0  0  0  0  0  0  0  0
   12.4235  -13.5451   -3.4261 H   0  0  0  0  0  0  0  0  0  0  0  0
   13.4720  -14.3808   -1.3271 H   0  0  0  0  0  0  0  0  0  0  0  0
   19.6647  -14.8837   -1.7930 H   0  0  0  0  0  0  0  0  0  0  0  0
   18.2528  -15.1164   -0.7277 H   0  0  0  0  0  0  0  0  0  0  0  0
   18.0452  -13.4904   -5.7482 H   0  0  0  0  0  0  0  0  0  0  0  0
   12.5160  -13.5841  -14.2550 H   0  0  0  0  0  0  0  0  0  0  0  0
   11.4211  -14.9284  -14.6471 H   0  0  0  0  0  0  0  0  0  0  0  0
   10.9801  -13.0755  -16.0569 H   0  0  0  0  0  0  0  0  0  0  0  0
    8.6959  -13.4316  -15.9634 H   0  0  0  0  0  0  0  0  0  0  0  0
    8.9422  -14.2380  -14.3995 H   0  0  0  0  0  0  0  0  0  0  0  0
   11.6968  -11.2557  -14.0779 H   0  0  0  0  0  0  0  0  0  0  0  0
   10.5482   -9.6830  -15.3655 H   0  0  0  0  0  0  0  0  0  0  0  0
    9.7882  -11.7103  -12.5665 H   0  0  0  0  0  0  0  0  0  0  0  0
    9.2036   -9.7372  -12.4426 H   0  0  0  0  0  0  0  0  0  0  0  0
    7.8635  -11.4600  -14.9418 H   0  0  0  0  0  0  0  0  0  0  0  0
    8.6503  -13.7600  -12.0989 H   0  0  0  0  0  0  0  0  0  0  0  0
    7.3017  -16.6485   -9.7246 H   0  0  0  0  0  0  0  0  0  0  0  0
    6.9106  -16.3204  -11.4340 H   0  0  0  0  0  0  0  0  0  0  0  0
    4.5406  -13.5320  -10.7875 H   0  0  0  0  0  0  0  0  0  0  0  0
    4.0642  -12.0168  -12.6961 H   0  0  0  0  0  0  0  0  0  0  0  0
    5.8243  -11.4919  -14.3199 H   0  0  0  0  0  0  0  0  0  0  0  0
  1  2  1  1
  1  3  2  0
  1  4  1  0
  1 23  1  0
  4  5  1  0
  6  5  1  0
  6  7  1  0
  6  8  1  0
  7 12  1  0
  8  9  1  0
  8 10  1  0
 10 11  1  0
 10 12  1  0
 12 13  1  0
 13 14  1  0
 13 22  1  0
 14 15  2  0
 15 16  1  0
 16 17  2  0
 16 22  1  0
 17 18  1  0
 17 19  1  0
 19 20  2  0
 20 21  1  0
 21 22  2  0
 23 24  1  0
 24 25  2  0
 24 26  1  6
 24 27  1  0
 27 28  1  0
 29 28  1  0
 29 30  1  0
 29 31  1  0
 30 35  1  0
 31 32  1  0
 31 33  1  0
 33 34  1  0
 33 35  1  0
 35 36  1  0
 36 37  2  0
 36 44  1  0
 37 38  1  0
 38 39  1  0
 38 42  2  0
 39 40  2  0
 39 41  1  0
 42 43  1  0
 43 44  2  0
  5 45  1  0
  5 46  1  0
  6 47  1  6
  8 48  1  6
  9 49  1  0
 10 50  1  6
 11 51  1  0
 12 52  1  1
 14 53  1  0
 18 54  1  0
 18 55  1  0
 20 56  1  0
 28 57  1  0
 28 58  1  0
 29 59  1  6
 30 60  1  0
 30 61  1  0
 31 62  1  1
 32 63  1  0
 33 64  1  1
 34 65  1  0
 35 66  1  6
 37 67  1  0
 41 68  1  0
 41 69  1  0
 42 70  1  0
 43 71  1  0
 44 72  1  0
M  CHG  3   2  -1  26  -1  36   1
M  END
>  <filename_input>  (10) 
7OMX_CNA_docked.sdf

>  <pdb_id>  (10) 
7OMX_CNA

>  <pose_rank>  (10) 
9

>  <num_atoms_heavy>  (10) 
44

>  <num_torsions>  (10) 
11

>  <pose>  (10) 
[10.972407300350552, -14.138317881563893, -8.811374863548389, -0.9824992369803907, 0.8952663111655335, -1.300236865501487, 3.4316674426031306, -1.4114661797765942, -0.7092564751015789, 2.7244013655202437, -5.320033415533377, -7.157325719593686, -4.323379416958205, -0.3633557416802093, 6.196364884057756, -0.005421861892817588, -1.6938135412899755]

>  <energy>  (10) 
-878.1824691295061

>  <inter_energy>  (10) 
-935.9413399014696

>  <intra_energy>  (10) 
59.07225663003037

>  <rmsd>  (10) 
4.01653

>  <sdf_rank>  (10) 
0

$$$$

     RDKit          3D

 72 76  0  0  0  0  0  0  0  0999 V2000
    9.6307  -15.5040   -7.5447 P   0  0  2  0  0  0  0  0  0  0  0  0
    8.7355  -16.6448   -7.1332 O   0  0  0  0  0  0  0  0  0  0  0  0
   11.0068  -15.8133   -8.0216 O   0  0  0  0  0  0  0  0  0  0  0  0
    9.6937  -14.5582   -6.3028 O   0  0  0  0  0  0  0  0  0  0  0  0
   10.6309  -14.8101   -5.2239 C   0  0  0  0  0  0  0  0  0  0  0  0
   11.5709  -13.6468   -5.2022 C   0  0  1  0  0  0  0  0  0  0  0  0
   12.4484  -13.7148   -4.0523 O   0  0  0  0  0  0  0  0  0  0  0  0
   12.4954  -13.5017   -6.4230 C   0  0  1  0  0  0  0  0  0  0  0  0
   12.4894  -12.1285   -6.7818 O   0  0  0  0  0  0  0  0  0  0  0  0
   13.8518  -13.9568   -5.8780 C   0  0  1  0  0  0  0  0  0  0  0  0
   14.9483  -13.4476   -6.6018 O   0  0  0  0  0  0  0  0  0  0  0  0
   13.7515  -13.3828   -4.4738 C   0  0  2  0  0  0  0  0  0  0  0  0
   14.7023  -13.9093   -3.5015 N   0  0  0  0  0  0  0  0  0  0  0  0
   14.4644  -14.4717   -2.2753 C   0  0  0  0  0  0  0  0  0  0  0  0
   15.5541  -14.7719   -1.6127 N   0  0  0  0  0  0  0  0  0  0  0  0
   16.5833  -14.3666   -2.4481 C   0  0  0  0  0  0  0  0  0  0  0  0
   17.9806  -14.4270   -2.3250 C   0  0  0  0  0  0  0  0  0  0  0  0
   18.6134  -14.9744   -1.2852 N   0  0  0  0  0  0  0  0  0  0  0  0
   18.7068  -13.8855   -3.3266 N   0  0  0  0  0  0  0  0  0  0  0  0
   18.0631  -13.4239   -4.4006 C   0  0  0  0  0  0  0  0  0  0  0  0
   16.7602  -13.3037   -4.6243 N   0  0  0  0  0  0  0  0  0  0  0  0
   16.0656  -13.8142   -3.6017 C   0  0  0  0  0  0  0  0  0  0  0  0
    8.8804  -14.7013   -8.7084 O   0  0  0  0  0  0  0  0  0  0  0  0
    9.1324  -13.4580   -9.6688 P   0  0  1  0  0  0  0  0  0  0  0  0
    9.3047  -12.2368   -8.8439 O   0  0  0  0  0  0  0  0  0  0  0  0
   10.1818  -13.9013  -10.6462 O   0  0  0  0  0  0  0  0  0  0  0  0
    7.7743  -13.4423  -10.5025 O   0  0  0  0  0  0  0  0  0  0  0  0
    7.6129  -12.5351  -11.6351 C   0  0  0  0  0  0  0  0  0  0  0  0
    7.8926  -13.3375  -12.8832 C   0  0  1  0  0  0  0  0  0  0  0  0
    6.6226  -13.6358  -13.7007 C   0  0  0  0  0  0  0  0  0  0  0  0
    8.8629  -12.6228  -13.8499 C   0  0  1  0  0  0  0  0  0  0  0  0
    9.7009  -13.5887  -14.4945 O   0  0  0  0  0  0  0  0  0  0  0  0
    7.9269  -11.8992  -14.8264 C   0  0  1  0  0  0  0  0  0  0  0  0
    8.6181  -11.5864  -16.0351 O   0  0  0  0  0  0  0  0  0  0  0  0
    6.7868  -12.9108  -15.0632 C   0  0  2  0  0  0  0  0  0  0  0  0
    5.5077  -12.2993  -15.5438 N   0  0  0  0  0  0  0  0  0  0  0  0
    5.2315  -10.9623  -15.3210 C   0  0  0  0  0  0  0  0  0  0  0  0
    4.0545  -10.3913  -15.8017 C   0  0  0  0  0  0  0  0  0  0  0  0
    3.7799   -8.9340  -15.5308 C   0  0  0  0  0  0  0  0  0  0  0  0
    4.5356   -8.2964  -14.7926 O   0  0  0  0  0  0  0  0  0  0  0  0
    2.7308   -8.3902  -16.1226 N   0  0  0  0  0  0  0  0  0  0  0  0
    3.1661  -11.1667  -16.5431 C   0  0  0  0  0  0  0  0  0  0  0  0
    3.4607  -12.4916  -16.7529 C   0  0  0  0  0  0  0  0  0  0  0  0
    4.6058  -13.0332  -16.2242 C   0  0  0  0  0  0  0  0  0  0  0  0
   10.0965  -14.8856   -4.2654 H   0  0  0  0  0  0  0  0  0  0  0  0
   11.1704  -15.7565   -5.3764 H   0  0  0  0  0  0  0  0  0  0  0  0
   10.8879  -12.7846   -5.1857 H   0  0  0  0  0  0  0  0  0  0  0  0
   12.2153  -14.0764   -7.3181 H   0  0  0  0  0  0  0  0  0  0  0  0
   12.4869  -11.5732   -5.9622 H   0  0  0  0  0  0  0  0  0  0  0  0
   14.0334  -15.0403   -5.9344 H   0  0  0  0  0  0  0  0  0  0  0  0
   15.6399  -13.1263   -5.9705 H   0  0  0  0  0  0  0  0  0  0  0  0
   13.9797  -12.3077   -4.5202 H   0  0  0  0  0  0  0  0  0  0  0  0
   13.4529  -14.6542   -1.8836 H   0  0  0  0  0  0  0  0  0  0  0  0
   19.6429  -14.9860   -1.2567 H   0  0  0  0  0  0  0  0  0  0  0  0
   18.0722  -15.3854   -0.5111 H   0  0  0  0  0  0  0  0  0  0  0  0
   18.7106  -13.0927   -5.2259 H   0  0  0  0  0  0  0  0  0  0  0  0
    6.5862  -12.1411  -11.6608 H   0  0  0  0  0  0  0  0  0  0  0  0
    8.2995  -11.6795  -11.5550 H   0  0  0  0  0  0  0  0  0  0  0  0
    8.3368  -14.2677  -12.4995 H   0  0  0  0  0  0  0  0  0  0  0  0
    6.5194  -14.7195  -13.8582 H   0  0  0  0  0  0  0  0  0  0  0  0
    5.7224  -13.2869  -13.1735 H   0  0  0  0  0  0  0  0  0  0  0  0
    9.5536  -11.9191  -13.3624 H   0  0  0  0  0  0  0  0  0  0  0  0
   10.1693  -14.1287  -13.8096 H   0  0  0  0  0  0  0  0  0  0  0  0
    7.5514  -10.9395  -14.4419 H   0  0  0  0  0  0  0  0  0  0  0  0
    9.4981  -11.1881  -15.8183 H   0  0  0  0  0  0  0  0  0  0  0  0
    7.0417  -13.5994  -15.8822 H   0  0  0  0  0  0  0  0  0  0  0  0
    5.9473  -10.3442  -14.7593 H   0  0  0  0  0  0  0  0  0  0  0  0
    2.5075   -7.3971  -15.9645 H   0  0  0  0  0  0  0  0  0  0  0  0
    2.1363   -8.9593  -16.7419 H   0  0  0  0  0  0  0  0  0  0  0  0
    2.2454  -10.7259  -16.9530 H   0  0  0  0  0  0  0  0  0  0  0  0
    2.7785  -13.1192  -17.3451 H   0  0  0  0  0  0  0  0  0  0  0  0
    4.7944  -14.1082  -16.3613 H   0  0  0  0  0  0  0  0  0  0  0  0
  1  2  1  1
  1  3  2  0
  1  4  1  0
  1 23  1  0
  4  5  1  0
  6  5  1  0
  6  7  1  0
  6  8  1  0
  7 12  1  0
  8  9  1  0
  8 10  1  0
 10 11  1  0
 10 12  1  0
 12 13  1  0
 13 14  1  0
 13 22  1  0
 14 15  2  0
 15 16  1  0
 16 17  2  0
 16 22  1  0
 17 18  1  0
 17 19  1  0
 19 20  2  0
 20 21  1  0
 21 22  2  0
 23 24  1  0
 24 25  2  0
 24 26  1  6
 24 27  1  0
 27 28  1  0
 29 28  1  0
 29 30  1  0
 29 31  1  0
 30 35  1  0
 31 32  1  0
 31 33  1  0
 33 34  1  0
 33 35  1  0
 35 36  1  0
 36 37  2  0
 36 44  1  0
 37 38  1  0
 38 39  1  0
 38 42  2  0
 39 40  2  0
 39 41  1  0
 42 43  1  0
 43 44  2  0
  5 45  1  0
  5 46  1  0
  6 47  1  1
  8 48  1  6
  9 49  1  0
 10 50  1  1
 11 51  1  0
 12 52  1  6
 14 53  1  0
 18 54  1  0
 18 55  1  0
 20 56  1  0
 28 57  1  0
 28 58  1  0
 29 59  1  1
 30 60  1  0
 30 61  1  0
 31 62  1  1
 32 63  1  0
 33 64  1  1
 34 65  1  0
 35 66  1  6
 37 67  1  0
 41 68  1  0
 41 69  1  0
 42 70  1  0
 43 71  1  0
 44 72  1  0
M  CHG  3   2  -1  26  -1  36   1
M  END
>  <filename_input>  (11) 
7OMX_CNA_docked.sdf

>  <pdb_id>  (11) 
7OMX_CNA

>  <pose_rank>  (11) 
10

>  <num_atoms_heavy>  (11) 
44

>  <num_torsions>  (11) 
11

>  <pose>  (11) 
[9.630726747485461, -15.504030380131317, -7.54466515371979, -0.4576716916627647, -0.09621981764727432, 0.6001848296967842, -7.739730225556251, -0.4994260843393566, 6.68431678332269, -1.5262584020246912, -4.161265947284541, -7.18717606513117, 2.12371746730934, 4.091158791841678, -3.5078031592368353, 0.6485136074950024, 2.7047138738264347]

>  <energy>  (11) 
-875.988422040271

>  <inter_energy>  (11) 
-920.263209202919

>  <intra_energy>  (11) 
43.17378954987316

>  <rmsd>  (11) 
3.9959

>  <sdf_rank>  (11) 
0

$$$$

     RDKit          3D

 72 76  0  0  0  0  0  0  0  0999 V2000
   12.1253  -12.6742   -9.7515 P   0  0  2  0  0  0  0  0  0  0  0  0
   10.8921  -13.1746   -9.0439 O   0  0  0  0  0  0  0  0  0  0  0  0
   12.8013  -13.5721  -10.7280 O   0  0  0  0  0  0  0  0  0  0  0  0
   13.1199  -12.2717   -8.6160 O   0  0  0  0  0  0  0  0  0  0  0  0
   12.6485  -12.0397   -7.2632 C   0  0  0  0  0  0  0  0  0  0  0  0
   12.6195  -13.3763   -6.5924 C   0  0  1  0  0  0  0  0  0  0  0  0
   13.8313  -13.5970   -5.8310 O   0  0  0  0  0  0  0  0  0  0  0  0
   11.4610  -13.6142   -5.6088 C   0  0  1  0  0  0  0  0  0  0  0  0
   10.9640  -14.9183   -5.8673 O   0  0  0  0  0  0  0  0  0  0  0  0
   12.1474  -13.5108   -4.2441 C   0  0  1  0  0  0  0  0  0  0  0  0
   11.4572  -14.1820   -3.2152 O   0  0  0  0  0  0  0  0  0  0  0  0
   13.4743  -14.1661   -4.5921 C   0  0  2  0  0  0  0  0  0  0  0  0
   14.5622  -13.9416   -3.6473 N   0  0  0  0  0  0  0  0  0  0  0  0
   14.5698  -13.1980   -2.4969 C   0  0  0  0  0  0  0  0  0  0  0  0
   15.7423  -13.1385   -1.9153 N   0  0  0  0  0  0  0  0  0  0  0  0
   16.5714  -13.8785   -2.7439 C   0  0  0  0  0  0  0  0  0  0  0  0
   17.9341  -14.2077   -2.6683 C   0  0  0  0  0  0  0  0  0  0  0  0
   18.7314  -13.8507   -1.6592 N   0  0  0  0  0  0  0  0  0  0  0  0
   18.4486  -14.9217   -3.6927 N   0  0  0  0  0  0  0  0  0  0  0  0
   17.6210  -15.3488   -4.6485 C   0  0  0  0  0  0  0  0  0  0  0  0
   16.3312  -15.0944   -4.8322 N   0  0  0  0  0  0  0  0  0  0  0  0
   15.8564  -14.3560   -3.8231 C   0  0  0  0  0  0  0  0  0  0  0  0
   11.7239  -11.3301  -10.5221 O   0  0  0  0  0  0  0  0  0  0  0  0
   10.4688  -10.7005  -11.2702 P   0  0  1  0  0  0  0  0  0  0  0  0
    9.8302   -9.6972  -10.3830 O   0  0  0  0  0  0  0  0  0  0  0  0
   10.9495  -10.3409  -12.6459 O   0  0  0  0  0  0  0  0  0  0  0  0
    9.5619  -11.9946  -11.4767 O   0  0  0  0  0  0  0  0  0  0  0  0
    9.7047  -12.8132  -12.6772 C   0  0  0  0  0  0  0  0  0  0  0  0
    8.6999  -12.2995  -13.6805 C   0  0  1  0  0  0  0  0  0  0  0  0
    8.3585  -13.3330  -14.7692 C   0  0  0  0  0  0  0  0  0  0  0  0
    7.3545  -11.9039  -13.0322 C   0  0  1  0  0  0  0  0  0  0  0  0
    6.8074  -10.7676  -13.7105 O   0  0  0  0  0  0  0  0  0  0  0  0
    6.4956  -13.1647  -13.1927 C   0  0  1  0  0  0  0  0  0  0  0  0
    5.1108  -12.8376  -13.0845 O   0  0  0  0  0  0  0  0  0  0  0  0
    6.8548  -13.6794  -14.6017 C   0  0  2  0  0  0  0  0  0  0  0  0
    6.5750  -15.1339  -14.8185 N   0  0  0  0  0  0  0  0  0  0  0  0
    6.9351  -15.7585  -15.9990 C   0  0  0  0  0  0  0  0  0  0  0  0
    6.7030  -17.1207  -16.1804 C   0  0  0  0  0  0  0  0  0  0  0  0
    7.0976  -17.7669  -17.4839 C   0  0  0  0  0  0  0  0  0  0  0  0
    6.3235  -17.7291  -18.4440 O   0  0  0  0  0  0  0  0  0  0  0  0
    8.2865  -18.3410  -17.5455 N   0  0  0  0  0  0  0  0  0  0  0  0
    6.1354  -17.8655  -15.1492 C   0  0  0  0  0  0  0  0  0  0  0  0
    5.7863  -17.2252  -13.9855 C   0  0  0  0  0  0  0  0  0  0  0  0
    5.9852  -15.8729  -13.8588 C   0  0  0  0  0  0  0  0  0  0  0  0
   13.3335  -11.3622   -6.7324 H   0  0  0  0  0  0  0  0  0  0  0  0
   11.6535  -11.5707   -7.2621 H   0  0  0  0  0  0  0  0  0  0  0  0
   12.4977  -14.0687   -7.4384 H   0  0  0  0  0  0  0  0  0  0  0  0
   10.6114  -12.9190   -5.6784 H   0  0  0  0  0  0  0  0  0  0  0  0
   10.7879  -15.3803   -5.0096 H   0  0  0  0  0  0  0  0  0  0  0  0
   12.2156  -12.4914   -3.8363 H   0  0  0  0  0  0  0  0  0  0  0  0
   11.7842  -13.8640   -2.3365 H   0  0  0  0  0  0  0  0  0  0  0  0
   13.3348  -15.2572   -4.5896 H   0  0  0  0  0  0  0  0  0  0  0  0
   13.6749  -12.6974   -2.0986 H   0  0  0  0  0  0  0  0  0  0  0  0
   19.7241  -14.1253   -1.6652 H   0  0  0  0  0  0  0  0  0  0  0  0
   18.3540  -13.3006   -0.8744 H   0  0  0  0  0  0  0  0  0  0  0  0
   18.0770  -16.0124   -5.3980 H   0  0  0  0  0  0  0  0  0  0  0  0
   10.7238  -12.7189  -13.0803 H   0  0  0  0  0  0  0  0  0  0  0  0
    9.5288  -13.8755  -12.4526 H   0  0  0  0  0  0  0  0  0  0  0  0
    9.1966  -11.4212  -14.1186 H   0  0  0  0  0  0  0  0  0  0  0  0
    8.5401  -12.9065  -15.7667 H   0  0  0  0  0  0  0  0  0  0  0  0
    8.9844  -14.2322  -14.6706 H   0  0  0  0  0  0  0  0  0  0  0  0
    7.4299  -11.6031  -11.9768 H   0  0  0  0  0  0  0  0  0  0  0  0
    6.4895  -10.1074  -13.0447 H   0  0  0  0  0  0  0  0  0  0  0  0
    6.6831  -13.9229  -12.4181 H   0  0  0  0  0  0  0  0  0  0  0  0
    4.8594  -12.7782  -12.1288 H   0  0  0  0  0  0  0  0  0  0  0  0
    6.2218  -13.2010  -15.3635 H   0  0  0  0  0  0  0  0  0  0  0  0
    7.4089  -15.1748  -16.8020 H   0  0  0  0  0  0  0  0  0  0  0  0
    8.5951  -18.7940  -18.4175 H   0  0  0  0  0  0  0  0  0  0  0  0
    8.9044  -18.3353  -16.7215 H   0  0  0  0  0  0  0  0  0  0  0  0
    5.9697  -18.9468  -15.2649 H   0  0  0  0  0  0  0  0  0  0  0  0
    5.3471  -17.7963  -13.1543 H   0  0  0  0  0  0  0  0  0  0  0  0
    5.6501  -15.3732  -12.9379 H   0  0  0  0  0  0  0  0  0  0  0  0
  1  2  1  1
  1  3  2  0
  1  4  1  0
  1 23  1  0
  4  5  1  0
  6  5  1  0
  6  7  1  0
  6  8  1  0
  7 12  1  0
  8  9  1  0
  8 10  1  0
 10 11  1  0
 10 12  1  0
 12 13  1  0
 13 14  1  0
 13 22  1  0
 14 15  2  0
 15 16  1  0
 16 17  2  0
 16 22  1  0
 17 18  1  0
 17 19  1  0
 19 20  2  0
 20 21  1  0
 21 22  2  0
 23 24  1  0
 24 25  2  0
 24 26  1  6
 24 27  1  0
 27 28  1  0
 29 28  1  0
 29 30  1  0
 29 31  1  0
 30 35  1  0
 31 32  1  0
 31 33  1  0
 33 34  1  0
 33 35  1  0
 35 36  1  0
 36 37  2  0
 36 44  1  0
 37 38  1  0
 38 39  1  0
 38 42  2  0
 39 40  2  0
 39 41  1  0
 42 43  1  0
 43 44  2  0
  5 45  1  0
  5 46  1  0
  6 47  1  6
  8 48  1  1
  9 49  1  0
 10 50  1  1
 11 51  1  0
 12 52  1  6
 14 53  1  0
 18 54  1  0
 18 55  1  0
 20 56  1  0
 28 57  1  0
 28 58  1  0
 29 59  1  6
 30 60  1  0
 30 61  1  0
 31 62  1  1
 32 63  1  0
 33 64  1  1
 34 65  1  0
 35 66  1  6
 37 67  1  0
 41 68  1  0
 41 69  1  0
 42 70  1  0
 43 71  1  0
 44 72  1  0
M  CHG  3   2  -1  26  -1  36   1
M  END
>  <filename_input>  (12) 
7OMX_CNA_docked.sdf

>  <pdb_id>  (12) 
7OMX_CNA

>  <pose_rank>  (12) 
11

>  <num_atoms_heavy>  (12) 
44

>  <num_torsions>  (12) 
11

>  <pose>  (12) 
[12.125343815480282, -12.67424757588896, -9.751509492030523, -0.20567838233391966, 0.35682769216138965, 0.031367868174194576, -3.2431886996192554, -1.0300212100397397, -0.9396404685922791, 0.6423690543750297, -1.6403038789962945, 1.9755193492300445, -2.700309516700703, 0.7505819578904716, -1.8820161849221388, -2.021882905693726, 1.3316053646463908]

>  <energy>  (12) 
-811.7835796312767

>  <inter_energy>  (12) 
-846.9029057291393

>  <intra_energy>  (12) 
34.82643089508265

>  <rmsd>  (12) 
5.3482

>  <sdf_rank>  (12) 
0

$$$$

     RDKit          3D

 72 76  0  0  0  0  0  0  0  0999 V2000
    9.9125  -10.3012  -12.3853 P   0  0  2  0  0  0  0  0  0  0  0  0
    8.8599   -9.3230  -11.9303 O   0  0  0  0  0  0  0  0  0  0  0  0
   11.1873   -9.7700  -12.9415 O   0  0  0  0  0  0  0  0  0  0  0  0
    9.2047  -11.2101  -13.4407 O   0  0  0  0  0  0  0  0  0  0  0  0
    9.8839  -12.3625  -14.0035 C   0  0  0  0  0  0  0  0  0  0  0  0
    8.8682  -13.4584  -14.0713 C   0  0  1  0  0  0  0  0  0  0  0  0
    9.2012  -14.5270  -13.1526 O   0  0  0  0  0  0  0  0  0  0  0  0
    7.4202  -13.0598  -13.7386 C   0  0  1  0  0  0  0  0  0  0  0  0
    6.5907  -13.6762  -14.7115 O   0  0  0  0  0  0  0  0  0  0  0  0
    7.2181  -13.6500  -12.3404 C   0  0  1  0  0  0  0  0  0  0  0  0
    5.8663  -13.8838  -12.0187 O   0  0  0  0  0  0  0  0  0  0  0  0
    8.0182  -14.9325  -12.5029 C   0  0  2  0  0  0  0  0  0  0  0  0
    8.3785  -15.6187  -11.2677 N   0  0  0  0  0  0  0  0  0  0  0  0
    9.5058  -15.4857  -10.5009 C   0  0  0  0  0  0  0  0  0  0  0  0
    9.5545  -16.3142   -9.4870 N   0  0  0  0  0  0  0  0  0  0  0  0
    8.3898  -17.0574   -9.5982 C   0  0  0  0  0  0  0  0  0  0  0  0
    7.8483  -18.0895   -8.8154 C   0  0  0  0  0  0  0  0  0  0  0  0
    8.4122  -18.5496   -7.6967 N   0  0  0  0  0  0  0  0  0  0  0  0
    6.6917  -18.6396   -9.2439 N   0  0  0  0  0  0  0  0  0  0  0  0
    6.0931  -18.1094  -10.3122 C   0  0  0  0  0  0  0  0  0  0  0  0
    6.5092  -17.1516  -11.1317 N   0  0  0  0  0  0  0  0  0  0  0  0
    7.6732  -16.6499  -10.7048 C   0  0  0  0  0  0  0  0  0  0  0  0
   10.2763  -11.2307  -11.1342 O   0  0  0  0  0  0  0  0  0  0  0  0
   10.4983  -11.1027   -9.5639 P   0  0  1  0  0  0  0  0  0  0  0  0
   11.3834   -9.9431   -9.2934 O   0  0  0  0  0  0  0  0  0  0  0  0
    9.1342  -11.2115   -8.9469 O   0  0  0  0  0  0  0  0  0  0  0  0
   11.2056  -12.4951   -9.2460 O   0  0  0  0  0  0  0  0  0  0  0  0
   12.4039  -12.5420   -8.4132 C   0  0  0  0  0  0  0  0  0  0  0  0
   12.4462  -13.9131   -7.7821 C   0  0  1  0  0  0  0  0  0  0  0  0
   13.7318  -14.1604   -6.9723 C   0  0  0  0  0  0  0  0  0  0  0  0
   11.2743  -14.1598   -6.8061 C   0  0  1  0  0  0  0  0  0  0  0  0
   10.8639  -15.5297   -6.8807 O   0  0  0  0  0  0  0  0  0  0  0  0
   11.8625  -13.7871   -5.4392 C   0  0  1  0  0  0  0  0  0  0  0  0
   11.1007  -14.3869   -4.3921 O   0  0  0  0  0  0  0  0  0  0  0  0
   13.3006  -14.3422   -5.4925 C   0  0  2  0  0  0  0  0  0  0  0  0
   14.2503  -13.6913   -4.5356 N   0  0  0  0  0  0  0  0  0  0  0  0
   15.5261  -14.1922   -4.3494 C   0  0  0  0  0  0  0  0  0  0  0  0
   16.4168  -13.5608   -3.4832 C   0  0  0  0  0  0  0  0  0  0  0  0
   17.7958  -14.1403   -3.2953 C   0  0  0  0  0  0  0  0  0  0  0  0
   18.4871  -14.4057   -4.2823 O   0  0  0  0  0  0  0  0  0  0  0  0
   18.2167  -14.3250   -2.0562 N   0  0  0  0  0  0  0  0  0  0  0  0
   16.0291  -12.3952   -2.8266 C   0  0  0  0  0  0  0  0  0  0  0  0
   14.7579  -11.9152   -3.0267 C   0  0  0  0  0  0  0  0  0  0  0  0
   13.8904  -12.5889   -3.8499 C   0  0  0  0  0  0  0  0  0  0  0  0
   10.2594  -12.1286  -15.0106 H   0  0  0  0  0  0  0  0  0  0  0  0
   10.7478  -12.6562  -13.3891 H   0  0  0  0  0  0  0  0  0  0  0  0
    8.9062  -13.7580  -15.1290 H   0  0  0  0  0  0  0  0  0  0  0  0
    7.1957  -11.9830  -13.7501 H   0  0  0  0  0  0  0  0  0  0  0  0
    5.8844  -14.2012  -14.2580 H   0  0  0  0  0  0  0  0  0  0  0  0
    7.5329  -12.9976  -11.5126 H   0  0  0  0  0  0  0  0  0  0  0  0
    5.7597  -13.9022  -11.0346 H   0  0  0  0  0  0  0  0  0  0  0  0
    7.3999  -15.6618  -13.0468 H   0  0  0  0  0  0  0  0  0  0  0  0
   10.2963  -14.7517  -10.7162 H   0  0  0  0  0  0  0  0  0  0  0  0
    7.9620  -19.3105   -7.1683 H   0  0  0  0  0  0  0  0  0  0  0  0
    9.2976  -18.1437   -7.3617 H   0  0  0  0  0  0  0  0  0  0  0  0
    5.1048  -18.5298  -10.5498 H   0  0  0  0  0  0  0  0  0  0  0  0
   13.3002  -12.3820   -9.0305 H   0  0  0  0  0  0  0  0  0  0  0  0
   12.3802  -11.7555   -7.6445 H   0  0  0  0  0  0  0  0  0  0  0  0
   12.3896  -14.5964   -8.6423 H   0  0  0  0  0  0  0  0  0  0  0  0
   14.2384  -15.0676   -7.3335 H   0  0  0  0  0  0  0  0  0  0  0  0
   14.4337  -13.3202   -7.0790 H   0  0  0  0  0  0  0  0  0  0  0  0
   10.3695  -13.5738   -7.0253 H   0  0  0  0  0  0  0  0  0  0  0  0
   10.7554  -15.8920   -5.9658 H   0  0  0  0  0  0  0  0  0  0  0  0
   11.8466  -12.7060   -5.2366 H   0  0  0  0  0  0  0  0  0  0  0  0
   11.4627  -14.1019   -3.5159 H   0  0  0  0  0  0  0  0  0  0  0  0
   13.3239  -15.3935   -5.1698 H   0  0  0  0  0  0  0  0  0  0  0  0
   15.8406  -15.0971   -4.8900 H   0  0  0  0  0  0  0  0  0  0  0  0
   19.1528  -14.7187   -1.8835 H   0  0  0  0  0  0  0  0  0  0  0  0
   17.6088  -14.0753   -1.2631 H   0  0  0  0  0  0  0  0  0  0  0  0
   16.7281  -11.8688   -2.1601 H   0  0  0  0  0  0  0  0  0  0  0  0
   14.4348  -10.9901   -2.5269 H   0  0  0  0  0  0  0  0  0  0  0  0
   12.8614  -12.2141   -3.9538 H   0  0  0  0  0  0  0  0  0  0  0  0
  1  2  1  1
  1  3  2  0
  1  4  1  0
  1 23  1  0
  4  5  1  0
  6  5  1  0
  6  7  1  0
  6  8  1  0
  7 12  1  0
  8  9  1  0
  8 10  1  0
 10 11  1  0
 10 12  1  0
 12 13  1  0
 13 14  1  0
 13 22  1  0
 14 15  2  0
 15 16  1  0
 16 17  2  0
 16 22  1  0
 17 18  1  0
 17 19  1  0
 19 20  2  0
 20 21  1  0
 21 22  2  0
 23 24  1  0
 24 25  2  0
 24 26  1  1
 24 27  1  0
 27 28  1  0
 29 28  1  0
 29 30  1  0
 29 31  1  0
 30 35  1  0
 31 32  1  0
 31 33  1  0
 33 34  1  0
 33 35  1  0
 35 36  1  0
 36 37  2  0
 36 44  1  0
 37 38  1  0
 38 39  1  0
 38 42  2  0
 39 40  2  0
 39 41  1  0
 42 43  1  0
 43 44  2  0
  5 45  1  0
  5 46  1  0
  6 47  1  6
  8 48  1  1
  9 49  1  0
 10 50  1  1
 11 51  1  0
 12 52  1  6
 14 53  1  0
 18 54  1  0
 18 55  1  0
 20 56  1  0
 28 57  1  0
 28 58  1  0
 29 59  1  6
 30 60  1  0
 30 61  1  0
 31 62  1  6
 32 63  1  0
 33 64  1  1
 34 65  1  0
 35 66  1  1
 37 67  1  0
 41 68  1  0
 41 69  1  0
 42 70  1  0
 43 71  1  0
 44 72  1  0
M  CHG  3   2  -1  26  -1  36   1
M  END
>  <filename_input>  (13) 
7OMX_CNA_docked.sdf

>  <pdb_id>  (13) 
7OMX_CNA

>  <pose_rank>  (13) 
12

>  <num_atoms_heavy>  (13) 
44

>  <num_torsions>  (13) 
11

>  <pose>  (13) 
[9.912479342224866, -10.301197223803804, -12.385338130190203, 2.3301533256785723, -0.3079856623777417, -1.0220401807280657, 0.32614039963062547, 6.17902826031503, 1.699390115583917, -0.9245751422998622, -1.7494034361774764, -0.6445789601970636, 1.185535962255269, -1.2229823577016894, 3.941756643919107, -2.246514342895642, -2.5797262571562034]

>  <energy>  (13) 
-813.7268480262194

>  <inter_energy>  (13) 
-811.1772044500832

>  <intra_energy>  (13) 
10.923319039787852

>  <rmsd>  (13) 
9.57425

>  <sdf_rank>  (13) 
0

$$$$

     RDKit          3D

 72 76  0  0  0  0  0  0  0  0999 V2000
   11.1493  -11.4446  -10.3192 P   0  0  2  0  0  0  0  0  0  0  0  0
   10.5148  -10.4023   -9.4344 O   0  0  0  0  0  0  0  0  0  0  0  0
   12.0175  -10.9947  -11.4419 O   0  0  0  0  0  0  0  0  0  0  0  0
    9.9627  -12.2996  -10.8686 O   0  0  0  0  0  0  0  0  0  0  0  0
    8.5880  -11.8872  -10.6538 C   0  0  0  0  0  0  0  0  0  0  0  0
    7.7817  -13.1434  -10.5578 C   0  0  1  0  0  0  0  0  0  0  0  0
    7.2746  -13.5306  -11.8577 O   0  0  0  0  0  0  0  0  0  0  0  0
    8.5177  -14.3795  -10.0133 C   0  0  1  0  0  0  0  0  0  0  0  0
    7.6402  -15.0067   -9.0908 O   0  0  0  0  0  0  0  0  0  0  0  0
    8.7424  -15.2227  -11.2713 C   0  0  1  0  0  0  0  0  0  0  0  0
    8.9185  -16.5950  -11.0045 O   0  0  0  0  0  0  0  0  0  0  0  0
    7.4405  -14.9232  -11.9972 C   0  0  2  0  0  0  0  0  0  0  0  0
    7.4126  -15.2543  -13.4170 N   0  0  0  0  0  0  0  0  0  0  0  0
    7.8856  -14.5354  -14.4828 C   0  0  0  0  0  0  0  0  0  0  0  0
    7.6293  -15.0846  -15.6445 N   0  0  0  0  0  0  0  0  0  0  0  0
    6.9252  -16.2362  -15.3290 C   0  0  0  0  0  0  0  0  0  0  0  0
    6.3830  -17.2602  -16.1218 C   0  0  0  0  0  0  0  0  0  0  0  0
    6.4994  -17.3139  -17.4503 N   0  0  0  0  0  0  0  0  0  0  0  0
    5.7007  -18.2336  -15.4810 N   0  0  0  0  0  0  0  0  0  0  0  0
    5.6700  -18.2157  -14.1470 C   0  0  0  0  0  0  0  0  0  0  0  0
    6.1298  -17.3044  -13.2983 N   0  0  0  0  0  0  0  0  0  0  0  0
    6.7687  -16.3344  -13.9615 C   0  0  0  0  0  0  0  0  0  0  0  0
   12.0231  -12.4026   -9.3809 O   0  0  0  0  0  0  0  0  0  0  0  0
   12.7656  -13.8079   -9.4540 P   0  0  1  0  0  0  0  0  0  0  0  0
   11.8687  -14.7957  -10.1031 O   0  0  0  0  0  0  0  0  0  0  0  0
   14.1372  -13.5192   -9.9911 O   0  0  0  0  0  0  0  0  0  0  0  0
   12.9861  -14.1121   -7.9052 O   0  0  0  0  0  0  0  0  0  0  0  0
   12.3521  -15.2703   -7.2821 C   0  0  0  0  0  0  0  0  0  0  0  0
   11.8311  -14.8160   -5.9397 C   0  0  1  0  0  0  0  0  0  0  0  0
   12.8568  -14.9983   -4.8062 C   0  0  0  0  0  0  0  0  0  0  0  0
   11.4399  -13.3215   -5.9235 C   0  0  1  0  0  0  0  0  0  0  0  0
   10.2987  -13.1303   -5.0799 O   0  0  0  0  0  0  0  0  0  0  0  0
   12.6994  -12.6277   -5.3891 C   0  0  1  0  0  0  0  0  0  0  0  0
   12.3727  -11.3386   -4.8714 O   0  0  0  0  0  0  0  0  0  0  0  0
   13.2040  -13.5784   -4.2843 C   0  0  2  0  0  0  0  0  0  0  0  0
   14.6569  -13.4287   -3.9562 N   0  0  0  0  0  0  0  0  0  0  0  0
   15.2075  -14.0687   -2.8604 C   0  0  0  0  0  0  0  0  0  0  0  0
   16.5679  -13.9531   -2.5808 C   0  0  0  0  0  0  0  0  0  0  0  0
   17.1326  -14.6546   -1.3718 C   0  0  0  0  0  0  0  0  0  0  0  0
   18.2868  -15.0897   -1.4010 O   0  0  0  0  0  0  0  0  0  0  0  0
   16.3556  -14.7580   -0.3077 N   0  0  0  0  0  0  0  0  0  0  0  0
   17.3856  -13.2149   -3.4333 C   0  0  0  0  0  0  0  0  0  0  0  0
   16.8180  -12.5885   -4.5157 C   0  0  0  0  0  0  0  0  0  0  0  0
   15.4662  -12.6842   -4.7344 C   0  0  0  0  0  0  0  0  0  0  0  0
    8.5052  -11.3095   -9.7214 H   0  0  0  0  0  0  0  0  0  0  0  0
    8.2311  -11.2453  -11.4727 H   0  0  0  0  0  0  0  0  0  0  0  0
    6.9938  -12.8706   -9.8402 H   0  0  0  0  0  0  0  0  0  0  0  0
    9.4659  -14.1907   -9.4886 H   0  0  0  0  0  0  0  0  0  0  0  0
    7.9297  -14.7998   -8.1670 H   0  0  0  0  0  0  0  0  0  0  0  0
    9.6604  -14.9862  -11.8293 H   0  0  0  0  0  0  0  0  0  0  0  0
    8.9373  -16.7411  -10.0255 H   0  0  0  0  0  0  0  0  0  0  0  0
    6.6466  -15.5456  -11.5587 H   0  0  0  0  0  0  0  0  0  0  0  0
    8.4297  -13.5857  -14.3736 H   0  0  0  0  0  0  0  0  0  0  0  0
    6.0771  -18.0944  -17.9731 H   0  0  0  0  0  0  0  0  0  0  0  0
    7.0116  -16.5749  -17.9527 H   0  0  0  0  0  0  0  0  0  0  0  0
    5.1911  -19.0887  -13.6796 H   0  0  0  0  0  0  0  0  0  0  0  0
   11.5220  -15.6296   -7.9081 H   0  0  0  0  0  0  0  0  0  0  0  0
   13.0687  -16.0969   -7.1670 H   0  0  0  0  0  0  0  0  0  0  0  0
   10.9499  -15.4532   -5.7743 H   0  0  0  0  0  0  0  0  0  0  0  0
   12.4232  -15.6039   -3.9967 H   0  0  0  0  0  0  0  0  0  0  0  0
   13.7568  -15.5174   -5.1675 H   0  0  0  0  0  0  0  0  0  0  0  0
   11.1466  -12.9181   -6.9039 H   0  0  0  0  0  0  0  0  0  0  0  0
   10.5780  -13.1771   -4.1312 H   0  0  0  0  0  0  0  0  0  0  0  0
   13.4631  -12.4530   -6.1613 H   0  0  0  0  0  0  0  0  0  0  0  0
   12.3803  -11.3688   -3.8819 H   0  0  0  0  0  0  0  0  0  0  0  0
   12.7201  -13.3495   -3.3234 H   0  0  0  0  0  0  0  0  0  0  0  0
   14.5657  -14.6743   -2.2036 H   0  0  0  0  0  0  0  0  0  0  0  0
   16.7026  -15.2300    0.5395 H   0  0  0  0  0  0  0  0  0  0  0  0
   15.4030  -14.3668   -0.3256 H   0  0  0  0  0  0  0  0  0  0  0  0
   18.4660  -13.1350   -3.2430 H   0  0  0  0  0  0  0  0  0  0  0  0
   17.4471  -12.0097   -5.2080 H   0  0  0  0  0  0  0  0  0  0  0  0
   15.0267  -12.1314   -5.5778 H   0  0  0  0  0  0  0  0  0  0  0  0
  1  2  1  1
  1  3  2  0
  1  4  1  0
  1 23  1  0
  4  5  1  0
  6  5  1  0
  6  7  1  0
  6  8  1  0
  7 12  1  0
  8  9  1  0
  8 10  1  0
 10 11  1  0
 10 12  1  0
 12 13  1  0
 13 14  1  0
 13 22  1  0
 14 15  2  0
 15 16  1  0
 16 17  2  0
 16 22  1  0
 17 18  1  0
 17 19  1  0
 19 20  2  0
 20 21  1  0
 21 22  2  0
 23 24  1  0
 24 25  2  0
 24 26  1  6
 24 27  1  0
 27 28  1  0
 29 28  1  0
 29 30  1  0
 29 31  1  0
 30 35  1  0
 31 32  1  0
 31 33  1  0
 33 34  1  0
 33 35  1  0
 35 36  1  0
 36 37  2  0
 36 44  1  0
 37 38  1  0
 38 39  1  0
 38 42  2  0
 39 40  2  0
 39 41  1  0
 42 43  1  0
 43 44  2  0
  5 45  1  0
  5 46  1  0
  6 47  1  1
  8 48  1  1
  9 49  1  0
 10 50  1  6
 11 51  1  0
 12 52  1  1
 14 53  1  0
 18 54  1  0
 18 55  1  0
 20 56  1  0
 28 57  1  0
 28 58  1  0
 29 59  1  1
 30 60  1  0
 30 61  1  0
 31 62  1  6
 32 63  1  0
 33 64  1  6
 34 65  1  0
 35 66  1  1
 37 67  1  0
 41 68  1  0
 41 69  1  0
 42 70  1  0
 43 71  1  0
 44 72  1  0
M  CHG  3   2  -1  26  -1  36   1
M  END
>  <filename_input>  (14) 
7OMX_CNA_docked.sdf

>  <pdb_id>  (14) 
7OMX_CNA

>  <pose_rank>  (14) 
13

>  <num_atoms_heavy>  (14) 
44

>  <num_torsions>  (14) 
11

>  <pose>  (14) 
[11.149285728290902, -11.444586196525288, -10.319193472416774, -2.905366023378093, 0.27252597215683527, 2.3485411217858823, 3.519160108376759, 7.448692205026722, 8.355040399997037, -0.7633786860335736, -16.992588438803097, -13.183598569421227, -5.381962161695301, 6.248993189447202, -13.24999556797882, 4.012803050794507, -0.8986156947864882]

>  <energy>  (14) 
-786.4596420401202

>  <inter_energy>  (14) 
-805.3518011462

>  <intra_energy>  (14) 
24.936011500901305

>  <rmsd>  (14) 
10.8704

>  <sdf_rank>  (14) 
0

$$$$

     RDKit          3D

 72 76  0  0  0  0  0  0  0  0999 V2000
   10.0903  -11.7915  -10.1391 P   0  0  2  0  0  0  0  0  0  0  0  0
    8.9887  -12.5291   -9.4219 O   0  0  0  0  0  0  0  0  0  0  0  0
   10.8345  -10.7314   -9.4050 O   0  0  0  0  0  0  0  0  0  0  0  0
    9.4226  -11.1905  -11.4172 O   0  0  0  0  0  0  0  0  0  0  0  0
    9.5367  -11.8601  -12.6997 C   0  0  0  0  0  0  0  0  0  0  0  0
    8.4745  -12.9130  -12.7211 C   0  0  1  0  0  0  0  0  0  0  0  0
    7.2726  -12.4193  -13.3601 O   0  0  0  0  0  0  0  0  0  0  0  0
    8.8301  -14.2174  -13.4547 C   0  0  1  0  0  0  0  0  0  0  0  0
    8.3809  -15.2853  -12.6348 O   0  0  0  0  0  0  0  0  0  0  0  0
    8.0310  -14.1041  -14.7558 C   0  0  1  0  0  0  0  0  0  0  0  0
    7.7628  -15.3479  -15.3612 O   0  0  0  0  0  0  0  0  0  0  0  0
    6.7819  -13.4286  -14.2127 C   0  0  2  0  0  0  0  0  0  0  0  0
    5.9081  -12.8139  -15.2051 N   0  0  0  0  0  0  0  0  0  0  0  0
    5.9981  -11.5791  -15.7912 C   0  0  0  0  0  0  0  0  0  0  0  0
    4.9981  -11.3009  -16.5908 N   0  0  0  0  0  0  0  0  0  0  0  0
    4.1821  -12.4191  -16.5175 C   0  0  0  0  0  0  0  0  0  0  0  0
    2.9714  -12.7492  -17.1470 C   0  0  0  0  0  0  0  0  0  0  0  0
    2.3602  -11.9690  -18.0410 N   0  0  0  0  0  0  0  0  0  0  0  0
    2.4060  -13.9273  -16.8061 N   0  0  0  0  0  0  0  0  0  0  0  0
    3.0726  -14.7369  -15.9808 C   0  0  0  0  0  0  0  0  0  0  0  0
    4.2059  -14.5320  -15.3207 N   0  0  0  0  0  0  0  0  0  0  0  0
    4.7249  -13.3438  -15.6490 C   0  0  0  0  0  0  0  0  0  0  0  0
   11.1540  -12.8806  -10.6332 O   0  0  0  0  0  0  0  0  0  0  0  0
   12.3912  -13.7010  -10.0607 P   0  0  1  0  0  0  0  0  0  0  0  0
   12.6540  -14.8614  -10.9473 O   0  0  0  0  0  0  0  0  0  0  0  0
   13.4538  -12.6841   -9.7608 O   0  0  0  0  0  0  0  0  0  0  0  0
   11.8276  -14.1394   -8.6359 O   0  0  0  0  0  0  0  0  0  0  0  0
   12.5473  -15.1179   -7.8258 C   0  0  0  0  0  0  0  0  0  0  0  0
   11.9419  -15.0730   -6.4432 C   0  0  1  0  0  0  0  0  0  0  0  0
   12.9985  -15.1236   -5.3248 C   0  0  0  0  0  0  0  0  0  0  0  0
   11.1170  -13.7912   -6.1917 C   0  0  1  0  0  0  0  0  0  0  0  0
    9.9897  -14.0973   -5.3634 O   0  0  0  0  0  0  0  0  0  0  0  0
   12.1183  -12.8489   -5.5116 C   0  0  1  0  0  0  0  0  0  0  0  0
   11.4278  -11.8242   -4.7978 O   0  0  0  0  0  0  0  0  0  0  0  0
   12.9106  -13.7733   -4.5646 C   0  0  2  0  0  0  0  0  0  0  0  0
   14.2566  -13.2489   -4.1719 N   0  0  0  0  0  0  0  0  0  0  0  0
   15.3134  -14.1096   -3.9358 C   0  0  0  0  0  0  0  0  0  0  0  0
   16.5727  -13.6129   -3.6047 C   0  0  0  0  0  0  0  0  0  0  0  0
   17.6992  -14.5798   -3.3427 C   0  0  0  0  0  0  0  0  0  0  0  0
   18.3600  -15.0191   -4.2876 O   0  0  0  0  0  0  0  0  0  0  0  0
   17.9440  -14.9059   -2.0855 N   0  0  0  0  0  0  0  0  0  0  0  0
   16.7759  -12.2362   -3.5458 C   0  0  0  0  0  0  0  0  0  0  0  0
   15.7129  -11.4000   -3.7845 C   0  0  0  0  0  0  0  0  0  0  0  0
   14.4747  -11.9241   -4.0610 C   0  0  0  0  0  0  0  0  0  0  0  0
    9.3785  -11.1431  -13.5188 H   0  0  0  0  0  0  0  0  0  0  0  0
   10.5365  -12.2987  -12.8335 H   0  0  0  0  0  0  0  0  0  0  0  0
    8.3432  -13.1454  -11.6539 H   0  0  0  0  0  0  0  0  0  0  0  0
    9.8976  -14.3866  -13.6592 H   0  0  0  0  0  0  0  0  0  0  0  0
    8.4855  -15.0366  -11.6823 H   0  0  0  0  0  0  0  0  0  0  0  0
    8.5432  -13.5683  -15.5685 H   0  0  0  0  0  0  0  0  0  0  0  0
    7.6155  -16.0312  -14.6601 H   0  0  0  0  0  0  0  0  0  0  0  0
    6.1524  -14.1937  -13.7349 H   0  0  0  0  0  0  0  0  0  0  0  0
    6.8321  -10.8857  -15.6077 H   0  0  0  0  0  0  0  0  0  0  0  0
    1.4721  -12.2710  -18.4664 H   0  0  0  0  0  0  0  0  0  0  0  0
    2.7768  -11.0649  -18.3057 H   0  0  0  0  0  0  0  0  0  0  0  0
    2.6132  -15.7239  -15.8237 H   0  0  0  0  0  0  0  0  0  0  0  0
   12.4324  -16.1235   -8.2565 H   0  0  0  0  0  0  0  0  0  0  0  0
   13.6223  -14.8871   -7.7925 H   0  0  0  0  0  0  0  0  0  0  0  0
   11.2987  -15.9648   -6.4127 H   0  0  0  0  0  0  0  0  0  0  0  0
   12.7861  -15.9582   -4.6404 H   0  0  0  0  0  0  0  0  0  0  0  0
   14.0055  -15.2788   -5.7393 H   0  0  0  0  0  0  0  0  0  0  0  0
   10.6944  -13.3373   -7.1003 H   0  0  0  0  0  0  0  0  0  0  0  0
   10.2509  -14.0263   -4.4111 H   0  0  0  0  0  0  0  0  0  0  0  0
   12.7767  -12.3253   -6.2204 H   0  0  0  0  0  0  0  0  0  0  0  0
   11.5290  -11.9744   -3.8245 H   0  0  0  0  0  0  0  0  0  0  0  0
   12.4007  -13.8651   -3.5942 H   0  0  0  0  0  0  0  0  0  0  0  0
   15.1584  -15.1961   -4.0101 H   0  0  0  0  0  0  0  0  0  0  0  0
   18.7049  -15.5634   -1.8627 H   0  0  0  0  0  0  0  0  0  0  0  0
   17.3738  -14.5025   -1.3285 H   0  0  0  0  0  0  0  0  0  0  0  0
   17.7696  -11.8262   -3.3123 H   0  0  0  0  0  0  0  0  0  0  0  0
   15.8538  -10.3095   -3.7542 H   0  0  0  0  0  0  0  0  0  0  0  0
   13.6276  -11.2356   -4.1973 H   0  0  0  0  0  0  0  0  0  0  0  0
  1  2  1  1
  1  3  2  0
  1  4  1  0
  1 23  1  0
  4  5  1  0
  6  5  1  0
  6  7  1  0
  6  8  1  0
  7 12  1  0
  8  9  1  0
  8 10  1  0
 10 11  1  0
 10 12  1  0
 12 13  1  0
 13 14  1  0
 13 22  1  0
 14 15  2  0
 15 16  1  0
 16 17  2  0
 16 22  1  0
 17 18  1  0
 17 19  1  0
 19 20  2  0
 20 21  1  0
 21 22  2  0
 23 24  1  0
 24 25  2  0
 24 26  1  1
 24 27  1  0
 27 28  1  0
 29 28  1  0
 29 30  1  0
 29 31  1  0
 30 35  1  0
 31 32  1  0
 31 33  1  0
 33 34  1  0
 33 35  1  0
 35 36  1  0
 36 37  2  0
 36 44  1  0
 37 38  1  0
 38 39  1  0
 38 42  2  0
 39 40  2  0
 39 41  1  0
 42 43  1  0
 43 44  2  0
  5 45  1  0
  5 46  1  0
  6 47  1  1
  8 48  1  6
  9 49  1  0
 10 50  1  6
 11 51  1  0
 12 52  1  1
 14 53  1  0
 18 54  1  0
 18 55  1  0
 20 56  1  0
 28 57  1  0
 28 58  1  0
 29 59  1  1
 30 60  1  0
 30 61  1  0
 31 62  1  6
 32 63  1  0
 33 64  1  6
 34 65  1  0
 35 66  1  1
 37 67  1  0
 41 68  1  0
 41 69  1  0
 42 70  1  0
 43 71  1  0
 44 72  1  0
M  CHG  3   2  -1  26  -1  36   1
M  END
>  <filename_input>  (15) 
7OMX_CNA_docked.sdf

>  <pdb_id>  (15) 
7OMX_CNA

>  <pose_rank>  (15) 
14

>  <num_atoms_heavy>  (15) 
44

>  <num_torsions>  (15) 
11

>  <pose>  (15) 
[10.090322644947944, -11.791527331600095, -10.139062412158683, 3.142136789786509, 1.401595586457513, -1.1218077020558925, 1.6486653985943265, -1.0775003144998847, -0.9692529685596245, -0.7843216563126636, 3.7890461162302533, 3.0001948666286795, 1.821390786918891, -0.9911946824457885, -1.5070271635752097, -1.534778703244388, -1.9851789667367352]

>  <energy>  (15) 
-746.6041414580344

>  <inter_energy>  (15) 
-754.1953028493689

>  <intra_energy>  (15) 
11.130571594862335

>  <rmsd>  (15) 
11.8413

>  <sdf_rank>  (15) 
0

$$$$

     RDKit          3D

 72 76  0  0  0  0  0  0  0  0999 V2000
    9.9574  -13.8608   -8.0710 P   0  0  2  0  0  0  0  0  0  0  0  0
   11.1413  -14.7445   -8.3697 O   0  0  0  0  0  0  0  0  0  0  0  0
   10.0219  -12.4255   -8.4614 O   0  0  0  0  0  0  0  0  0  0  0  0
    9.7239  -13.9875   -6.5315 O   0  0  0  0  0  0  0  0  0  0  0  0
   10.7757  -14.4742   -5.6581 C   0  0  0  0  0  0  0  0  0  0  0  0
   11.6406  -13.2952   -5.3429 C   0  0  1  0  0  0  0  0  0  0  0  0
   12.4472  -13.5477   -4.1671 O   0  0  0  0  0  0  0  0  0  0  0  0
   12.6290  -12.8687   -6.4417 C   0  0  1  0  0  0  0  0  0  0  0  0
   12.5625  -11.4535   -6.5270 O   0  0  0  0  0  0  0  0  0  0  0  0
   13.9738  -13.3583   -5.8977 C   0  0  1  0  0  0  0  0  0  0  0  0
   15.0805  -12.6653   -6.4272 O   0  0  0  0  0  0  0  0  0  0  0  0
   13.7517  -13.0782   -4.4200 C   0  0  2  0  0  0  0  0  0  0  0  0
   14.6701  -13.7411   -3.5015 N   0  0  0  0  0  0  0  0  0  0  0  0
   14.3939  -14.4450   -2.3593 C   0  0  0  0  0  0  0  0  0  0  0  0
   15.4624  -14.8483   -1.7172 N   0  0  0  0  0  0  0  0  0  0  0  0
   16.5177  -14.3657   -2.4753 C   0  0  0  0  0  0  0  0  0  0  0  0
   17.9105  -14.4712   -2.3327 C   0  0  0  0  0  0  0  0  0  0  0  0
   18.5091  -15.1563   -1.3561 N   0  0  0  0  0  0  0  0  0  0  0  0
   18.6693  -13.8263   -3.2449 N   0  0  0  0  0  0  0  0  0  0  0  0
   18.0590  -13.2220   -4.2663 C   0  0  0  0  0  0  0  0  0  0  0  0
   16.7640  -13.0468   -4.4994 N   0  0  0  0  0  0  0  0  0  0  0  0
   16.0368  -13.6641   -3.5618 C   0  0  0  0  0  0  0  0  0  0  0  0
    8.6832  -14.5057   -8.7936 O   0  0  0  0  0  0  0  0  0  0  0  0
    7.8499  -14.3395  -10.1387 P   0  0  1  0  0  0  0  0  0  0  0  0
    7.3612  -15.6715  -10.5726 O   0  0  0  0  0  0  0  0  0  0  0  0
    6.9076  -13.1960   -9.8985 O   0  0  0  0  0  0  0  0  0  0  0  0
    8.9667  -13.7542  -11.1135 O   0  0  0  0  0  0  0  0  0  0  0  0
    9.0493  -14.2072  -12.4991 C   0  0  0  0  0  0  0  0  0  0  0  0
    7.6447  -14.5530  -12.9321 C   0  0  1  0  0  0  0  0  0  0  0  0
    6.8412  -13.3244  -13.3954 C   0  0  0  0  0  0  0  0  0  0  0  0
    7.6098  -15.5531  -14.1091 C   0  0  1  0  0  0  0  0  0  0  0  0
    6.4896  -16.4330  -13.9619 O   0  0  0  0  0  0  0  0  0  0  0  0
    7.4998  -14.6492  -15.3436 C   0  0  1  0  0  0  0  0  0  0  0  0
    6.9908  -15.3871  -16.4539 O   0  0  0  0  0  0  0  0  0  0  0  0
    6.5281  -13.5362  -14.9008 C   0  0  2  0  0  0  0  0  0  0  0  0
    6.6370  -12.2698  -15.6917 N   0  0  0  0  0  0  0  0  0  0  0  0
    5.5295  -11.4699  -15.9084 C   0  0  0  0  0  0  0  0  0  0  0  0
    5.6450  -10.2747  -16.6158 C   0  0  0  0  0  0  0  0  0  0  0  0
    4.4153   -9.4329  -16.8436 C   0  0  0  0  0  0  0  0  0  0  0  0
    3.3916   -9.9552  -17.2926 O   0  0  0  0  0  0  0  0  0  0  0  0
    4.4859   -8.1512  -16.5289 N   0  0  0  0  0  0  0  0  0  0  0  0
    6.8940   -9.8662  -17.0777 C   0  0  0  0  0  0  0  0  0  0  0  0
    7.9802  -10.6754  -16.8506 C   0  0  0  0  0  0  0  0  0  0  0  0
    7.8221  -11.8693  -16.1919 C   0  0  0  0  0  0  0  0  0  0  0  0
   10.3432  -14.8867   -4.7346 H   0  0  0  0  0  0  0  0  0  0  0  0
   11.3544  -15.2768   -6.1388 H   0  0  0  0  0  0  0  0  0  0  0  0
   10.9072  -12.4863   -5.2095 H   0  0  0  0  0  0  0  0  0  0  0  0
   12.4404  -13.2679   -7.4492 H   0  0  0  0  0  0  0  0  0  0  0  0
   12.5444  -11.0684   -5.6152 H   0  0  0  0  0  0  0  0  0  0  0  0
   14.2236  -14.3995   -6.1496 H   0  0  0  0  0  0  0  0  0  0  0  0
   15.6370  -12.3168   -5.6862 H   0  0  0  0  0  0  0  0  0  0  0  0
   13.9170  -12.0057   -4.2405 H   0  0  0  0  0  0  0  0  0  0  0  0
   13.3704  -14.6524   -2.0134 H   0  0  0  0  0  0  0  0  0  0  0  0
   19.5373  -15.1937   -1.3087 H   0  0  0  0  0  0  0  0  0  0  0  0
   17.9428  -15.6476   -0.6498 H   0  0  0  0  0  0  0  0  0  0  0  0
   18.7311  -12.8058   -5.0311 H   0  0  0  0  0  0  0  0  0  0  0  0
    9.4549  -13.4067  -13.1352 H   0  0  0  0  0  0  0  0  0  0  0  0
    9.7148  -15.0784  -12.5894 H   0  0  0  0  0  0  0  0  0  0  0  0
    7.1964  -14.9945  -12.0298 H   0  0  0  0  0  0  0  0  0  0  0  0
    5.9061  -13.2448  -12.8216 H   0  0  0  0  0  0  0  0  0  0  0  0
    7.4110  -12.3969  -13.2371 H   0  0  0  0  0  0  0  0  0  0  0  0
    8.4890  -16.2111  -14.1723 H   0  0  0  0  0  0  0  0  0  0  0  0
    6.3069  -16.5766  -12.9996 H   0  0  0  0  0  0  0  0  0  0  0  0
    8.4666  -14.2426  -15.6751 H   0  0  0  0  0  0  0  0  0  0  0  0
    6.4607  -16.1555  -16.1243 H   0  0  0  0  0  0  0  0  0  0  0  0
    5.4851  -13.8369  -15.0790 H   0  0  0  0  0  0  0  0  0  0  0  0
    4.5486  -11.7800  -15.5189 H   0  0  0  0  0  0  0  0  0  0  0  0
    3.6682   -7.5408  -16.6688 H   0  0  0  0  0  0  0  0  0  0  0  0
    5.3586   -7.7628  -16.1437 H   0  0  0  0  0  0  0  0  0  0  0  0
    7.0083   -8.9129  -17.6145 H   0  0  0  0  0  0  0  0  0  0  0  0
    8.9775  -10.3667  -17.1969 H   0  0  0  0  0  0  0  0  0  0  0  0
    8.6969  -12.5244  -16.0676 H   0  0  0  0  0  0  0  0  0  0  0  0
  1  2  1  6
  1  3  2  0
  1  4  1  0
  1 23  1  0
  4  5  1  0
  6  5  1  0
  6  7  1  0
  6  8  1  0
  7 12  1  0
  8  9  1  0
  8 10  1  0
 10 11  1  0
 10 12  1  0
 12 13  1  0
 13 14  1  0
 13 22  1  0
 14 15  2  0
 15 16  1  0
 16 17  2  0
 16 22  1  0
 17 18  1  0
 17 19  1  0
 19 20  2  0
 20 21  1  0
 21 22  2  0
 23 24  1  0
 24 25  2  0
 24 26  1  1
 24 27  1  0
 27 28  1  0
 29 28  1  0
 29 30  1  0
 29 31  1  0
 30 35  1  0
 31 32  1  0
 31 33  1  0
 33 34  1  0
 33 35  1  0
 35 36  1  0
 36 37  2  0
 36 44  1  0
 37 38  1  0
 38 39  1  0
 38 42  2  0
 39 40  2  0
 39 41  1  0
 42 43  1  0
 43 44  2  0
  5 45  1  0
  5 46  1  0
  6 47  1  1
  8 48  1  6
  9 49  1  0
 10 50  1  1
 11 51  1  0
 12 52  1  6
 14 53  1  0
 18 54  1  0
 18 55  1  0
 20 56  1  0
 28 57  1  0
 28 58  1  0
 29 59  1  1
 30 60  1  0
 30 61  1  0
 31 62  1  6
 32 63  1  0
 33 64  1  6
 34 65  1  0
 35 66  1  1
 37 67  1  0
 41 68  1  0
 41 69  1  0
 42 70  1  0
 43 71  1  0
 44 72  1  0
M  CHG  3   2  -1  26  -1  36   1
M  END
>  <filename_input>  (16) 
7OMX_CNA_docked.sdf

>  <pdb_id>  (16) 
7OMX_CNA

>  <pose_rank>  (16) 
15

>  <num_atoms_heavy>  (16) 
44

>  <num_torsions>  (16) 
11

>  <pose>  (16) 
[9.957396850980807, -13.860760889085796, -8.07097643394119, 0.29909402349896563, -0.3135207123106898, 2.089223148486094, -2.588292708202974, -1.0617879093885148, 0.2045173313213211, -1.6408311733095424, -2.751684867956752, 2.713298198947687, 1.2974849771968737, -3.3710636389850417, 2.3456432424281446, -2.658311414557926, 1.9450133433486756]

>  <energy>  (16) 
-780.9868421739153

>  <inter_energy>  (16) 
-867.648010538605

>  <intra_energy>  (16) 
104.86908065634744

>  <rmsd>  (16) 
3.82461

>  <sdf_rank>  (16) 
0

$$$$

     RDKit          3D

 72 76  0  0  0  0  0  0  0  0999 V2000
   11.0395  -14.6415  -11.7546 P   0  0  2  0  0  0  0  0  0  0  0  0
   11.8673  -14.4740  -13.0030 O   0  0  0  0  0  0  0  0  0  0  0  0
   10.9462  -15.9926  -11.1363 O   0  0  0  0  0  0  0  0  0  0  0  0
    9.6140  -14.1244  -12.1303 O   0  0  0  0  0  0  0  0  0  0  0  0
    9.4010  -13.3409  -13.3332 C   0  0  0  0  0  0  0  0  0  0  0  0
    8.2052  -13.9290  -14.0127 C   0  0  1  0  0  0  0  0  0  0  0  0
    8.0270  -15.3151  -13.6334 O   0  0  0  0  0  0  0  0  0  0  0  0
    6.8588  -13.2427  -13.7257 C   0  0  1  0  0  0  0  0  0  0  0  0
    6.1836  -13.1272  -14.9688 O   0  0  0  0  0  0  0  0  0  0  0  0
    6.1708  -14.2278  -12.7768 C   0  0  1  0  0  0  0  0  0  0  0  0
    4.7664  -14.1139  -12.7695 O   0  0  0  0  0  0  0  0  0  0  0  0
    6.6557  -15.5314  -13.3907 C   0  0  2  0  0  0  0  0  0  0  0  0
    6.5134  -16.7193  -12.5569 N   0  0  0  0  0  0  0  0  0  0  0  0
    7.2336  -17.0934  -11.4533 C   0  0  0  0  0  0  0  0  0  0  0  0
    6.8995  -18.2683  -10.9793 N   0  0  0  0  0  0  0  0  0  0  0  0
    5.9027  -18.7101  -11.8352 C   0  0  0  0  0  0  0  0  0  0  0  0
    5.1276  -19.8805  -11.8600 C   0  0  0  0  0  0  0  0  0  0  0  0
    5.2108  -20.8480  -10.9443 N   0  0  0  0  0  0  0  0  0  0  0  0
    4.2590  -20.0173  -12.8849 N   0  0  0  0  0  0  0  0  0  0  0  0
    4.1216  -19.0030  -13.7412 C   0  0  0  0  0  0  0  0  0  0  0  0
    4.7989  -17.8646  -13.8262 N   0  0  0  0  0  0  0  0  0  0  0  0
    5.6766  -17.7716  -12.8213 C   0  0  0  0  0  0  0  0  0  0  0  0
   11.6263  -13.6404  -10.6521 O   0  0  0  0  0  0  0  0  0  0  0  0
   11.2371  -12.2718   -9.9402 P   0  0  1  0  0  0  0  0  0  0  0  0
   11.8997  -11.1510  -10.6517 O   0  0  0  0  0  0  0  0  0  0  0  0
    9.7482  -12.3150   -9.7550 O   0  0  0  0  0  0  0  0  0  0  0  0
   11.8397  -12.5087   -8.4840 O   0  0  0  0  0  0  0  0  0  0  0  0
   12.3466  -13.8227   -8.0988 C   0  0  0  0  0  0  0  0  0  0  0  0
   11.4906  -14.3043   -6.9520 C   0  0  1  0  0  0  0  0  0  0  0  0
   12.3062  -14.9978   -5.8458 C   0  0  0  0  0  0  0  0  0  0  0  0
   10.7195  -13.1595   -6.2580 C   0  0  1  0  0  0  0  0  0  0  0  0
    9.4359  -13.6305   -5.8322 O   0  0  0  0  0  0  0  0  0  0  0  0
   11.6312  -12.7725   -5.0866 C   0  0  1  0  0  0  0  0  0  0  0  0
   10.8856  -12.0790   -4.0869 O   0  0  0  0  0  0  0  0  0  0  0  0
   12.1631  -14.1251   -4.5703 C   0  0  2  0  0  0  0  0  0  0  0  0
   13.4400  -14.0317   -3.7946 N   0  0  0  0  0  0  0  0  0  0  0  0
   14.6548  -13.8873   -4.4402 C   0  0  0  0  0  0  0  0  0  0  0  0
   15.8360  -13.7660   -3.7107 C   0  0  0  0  0  0  0  0  0  0  0  0
   17.1437  -13.6216   -4.4468 C   0  0  0  0  0  0  0  0  0  0  0  0
   18.2055  -13.8265   -3.8527 O   0  0  0  0  0  0  0  0  0  0  0  0
   17.0912  -13.2926   -5.7257 N   0  0  0  0  0  0  0  0  0  0  0  0
   15.7873  -13.7551   -2.3186 C   0  0  0  0  0  0  0  0  0  0  0  0
   14.5704  -13.8991   -1.6984 C   0  0  0  0  0  0  0  0  0  0  0  0
   13.4323  -14.0644   -2.4478 C   0  0  0  0  0  0  0  0  0  0  0  0
    9.2123  -12.2888  -13.0737 H   0  0  0  0  0  0  0  0  0  0  0  0
   10.2848  -13.3661  -13.9877 H   0  0  0  0  0  0  0  0  0  0  0  0
    8.4401  -13.7898  -15.0783 H   0  0  0  0  0  0  0  0  0  0  0  0
    6.9086  -12.2365  -13.2840 H   0  0  0  0  0  0  0  0  0  0  0  0
    5.2209  -12.9624  -14.8073 H   0  0  0  0  0  0  0  0  0  0  0  0
    6.4096  -14.0885  -11.7121 H   0  0  0  0  0  0  0  0  0  0  0  0
    4.4423  -14.0876  -11.8344 H   0  0  0  0  0  0  0  0  0  0  0  0
    6.0417  -15.7482  -14.2772 H   0  0  0  0  0  0  0  0  0  0  0  0
    8.0190  -16.4660  -11.0068 H   0  0  0  0  0  0  0  0  0  0  0  0
    4.6123  -21.6827  -11.0212 H   0  0  0  0  0  0  0  0  0  0  0  0
    5.8735  -20.7598  -10.1607 H   0  0  0  0  0  0  0  0  0  0  0  0
    3.3261  -19.1296  -14.4904 H   0  0  0  0  0  0  0  0  0  0  0  0
   12.2715  -14.5203   -8.9459 H   0  0  0  0  0  0  0  0  0  0  0  0
   13.4046  -13.7653   -7.8032 H   0  0  0  0  0  0  0  0  0  0  0  0
   10.7958  -15.0128   -7.4266 H   0  0  0  0  0  0  0  0  0  0  0  0
   11.9109  -16.0075   -5.6602 H   0  0  0  0  0  0  0  0  0  0  0  0
   13.3616  -15.1000   -6.1382 H   0  0  0  0  0  0  0  0  0  0  0  0
   10.5109  -12.2947   -6.9051 H   0  0  0  0  0  0  0  0  0  0  0  0
    9.4007  -13.6434   -4.8430 H   0  0  0  0  0  0  0  0  0  0  0  0
   12.4470  -12.0927   -5.3738 H   0  0  0  0  0  0  0  0  0  0  0  0
   11.1920  -12.3640   -3.1897 H   0  0  0  0  0  0  0  0  0  0  0  0
   11.4709  -14.5597   -3.8342 H   0  0  0  0  0  0  0  0  0  0  0  0
   14.6888  -13.8680   -5.5395 H   0  0  0  0  0  0  0  0  0  0  0  0
   17.9616  -13.1837   -6.2656 H   0  0  0  0  0  0  0  0  0  0  0  0
   16.1800  -13.1451   -6.1826 H   0  0  0  0  0  0  0  0  0  0  0  0
   16.7066  -13.6333   -1.7270 H   0  0  0  0  0  0  0  0  0  0  0  0
   14.5078  -13.8820   -0.6003 H   0  0  0  0  0  0  0  0  0  0  0  0
   12.4768  -14.2299   -1.9284 H   0  0  0  0  0  0  0  0  0  0  0  0
  1  2  1  6
  1  3  2  0
  1  4  1  0
  1 23  1  0
  4  5  1  0
  6  5  1  0
  6  7  1  0
  6  8  1  0
  7 12  1  0
  8  9  1  0
  8 10  1  0
 10 11  1  0
 10 12  1  0
 12 13  1  0
 13 14  1  0
 13 22  1  0
 14 15  2  0
 15 16  1  0
 16 17  2  0
 16 22  1  0
 17 18  1  0
 17 19  1  0
 19 20  2  0
 20 21  1  0
 21 22  2  0
 23 24  1  0
 24 25  2  0
 24 26  1  1
 24 27  1  0
 27 28  1  0
 29 28  1  0
 29 30  1  0
 29 31  1  0
 30 35  1  0
 31 32  1  0
 31 33  1  0
 33 34  1  0
 33 35  1  0
 35 36  1  0
 36 37  2  0
 36 44  1  0
 37 38  1  0
 38 39  1  0
 38 42  2  0
 39 40  2  0
 39 41  1  0
 42 43  1  0
 43 44  2  0
  5 45  1  0
  5 46  1  0
  6 47  1  6
  8 48  1  1
  9 49  1  0
 10 50  1  1
 11 51  1  0
 12 52  1  6
 14 53  1  0
 18 54  1  0
 18 55  1  0
 20 56  1  0
 28 57  1  0
 28 58  1  0
 29 59  1  6
 30 60  1  0
 30 61  1  0
 31 62  1  6
 32 63  1  0
 33 64  1  6
 34 65  1  0
 35 66  1  1
 37 67  1  0
 41 68  1  0
 41 69  1  0
 42 70  1  0
 43 71  1  0
 44 72  1  0
M  CHG  3   2  -1  26  -1  36   1
M  END
>  <filename_input>  (17) 
7OMX_CNA_docked.sdf

>  <pdb_id>  (17) 
7OMX_CNA

>  <pose_rank>  (17) 
16

>  <num_atoms_heavy>  (17) 
44

>  <num_torsions>  (17) 
11

>  <pose>  (17) 
[11.039473424816281, -14.641464776313496, -11.754560529355247, 0.24379545265496003, -2.206388502562746, -0.750782324485278, 3.1062594155212686, -0.20186637272885177, -3.042958498366432, -0.612664904010302, 0.8129924014488804, 4.790542725420579, -1.2971240938186557, 0.3223344922036137, -1.533396060060093, -0.33115509248275216, -0.030442216800917136]

>  <energy>  (17) 
-749.8204844186314

>  <inter_energy>  (17) 
-759.0121750362274

>  <intra_energy>  (17) 
8.636651516003065

>  <rmsd>  (17) 
10.6868

>  <sdf_rank>  (17) 
0

$$$$

     RDKit          3D

 72 76  0  0  0  0  0  0  0  0999 V2000
   10.0670  -16.0323   -7.4206 P   0  0  2  0  0  0  0  0  0  0  0  0
   11.4324  -16.0934   -8.0560 O   0  0  0  0  0  0  0  0  0  0  0  0
    9.5836  -17.2131   -6.6535 O   0  0  0  0  0  0  0  0  0  0  0  0
    9.0804  -15.7115   -8.5887 O   0  0  0  0  0  0  0  0  0  0  0  0
    9.5592  -15.5899   -9.9533 C   0  0  0  0  0  0  0  0  0  0  0  0
    8.5905  -14.6969  -10.6615 C   0  0  1  0  0  0  0  0  0  0  0  0
    8.8910  -13.3039  -10.4040 O   0  0  0  0  0  0  0  0  0  0  0  0
    8.5384  -14.8351  -12.1926 C   0  0  1  0  0  0  0  0  0  0  0  0
    7.1669  -14.8388  -12.5581 O   0  0  0  0  0  0  0  0  0  0  0  0
    9.2672  -13.5770  -12.6723 C   0  0  1  0  0  0  0  0  0  0  0  0
    8.9209  -13.1917  -13.9828 O   0  0  0  0  0  0  0  0  0  0  0  0
    8.7758  -12.5978  -11.6182 C   0  0  2  0  0  0  0  0  0  0  0  0
    9.5280  -11.3537  -11.5052 N   0  0  0  0  0  0  0  0  0  0  0  0
    9.8649  -10.6450  -10.3824 C   0  0  0  0  0  0  0  0  0  0  0  0
   10.4821   -9.5175  -10.6361 N   0  0  0  0  0  0  0  0  0  0  0  0
   10.5443   -9.4671  -12.0199 C   0  0  0  0  0  0  0  0  0  0  0  0
   11.0934   -8.5288  -12.9084 C   0  0  0  0  0  0  0  0  0  0  0  0
   11.7451   -7.4301  -12.5217 N   0  0  0  0  0  0  0  0  0  0  0  0
   10.9334   -8.7691  -14.2276 N   0  0  0  0  0  0  0  0  0  0  0  0
   10.3604   -9.9154  -14.5999 C   0  0  0  0  0  0  0  0  0  0  0  0
    9.7979  -10.8638  -13.8609 N   0  0  0  0  0  0  0  0  0  0  0  0
    9.9386  -10.5827  -12.5609 C   0  0  0  0  0  0  0  0  0  0  0  0
   10.0528  -14.7715   -6.4348 O   0  0  0  0  0  0  0  0  0  0  0  0
   10.7567  -14.2841   -5.0938 P   0  0  1  0  0  0  0  0  0  0  0  0
   11.0783  -12.8405   -5.2134 O   0  0  0  0  0  0  0  0  0  0  0  0
    9.9102  -14.8107   -3.9716 O   0  0  0  0  0  0  0  0  0  0  0  0
   12.0613  -15.1995   -5.0894 O   0  0  0  0  0  0  0  0  0  0  0  0
   13.0100  -15.1288   -3.9818 C   0  0  0  0  0  0  0  0  0  0  0  0
   14.3047  -14.5953   -4.5465 C   0  0  1  0  0  0  0  0  0  0  0  0
   14.4337  -14.8194   -6.0642 C   0  0  0  0  0  0  0  0  0  0  0  0
   14.4740  -13.0758   -4.3247 C   0  0  1  0  0  0  0  0  0  0  0  0
   15.8536  -12.7731   -4.0881 O   0  0  0  0  0  0  0  0  0  0  0  0
   13.9441  -12.4628   -5.6273 C   0  0  1  0  0  0  0  0  0  0  0  0
   14.4470  -11.1374   -5.7914 O   0  0  0  0  0  0  0  0  0  0  0  0
   14.4671  -13.4143   -6.7227 C   0  0  2  0  0  0  0  0  0  0  0  0
   13.6956  -13.3647   -8.0046 N   0  0  0  0  0  0  0  0  0  0  0  0
   14.0749  -14.1304   -9.0924 C   0  0  0  0  0  0  0  0  0  0  0  0
   13.3318  -14.1057  -10.2712 C   0  0  0  0  0  0  0  0  0  0  0  0
   13.7803  -14.9439  -11.4411 C   0  0  0  0  0  0  0  0  0  0  0  0
   14.9818  -15.0262  -11.7093 O   0  0  0  0  0  0  0  0  0  0  0  0
   12.8483  -15.5796  -12.1296 N   0  0  0  0  0  0  0  0  0  0  0  0
   12.1774  -13.3294  -10.3410 C   0  0  0  0  0  0  0  0  0  0  0  0
   11.8190  -12.5776   -9.2489 C   0  0  0  0  0  0  0  0  0  0  0  0
   12.6005  -12.5887   -8.1204 C   0  0  0  0  0  0  0  0  0  0  0  0
   10.5655  -15.1456   -9.9654 H   0  0  0  0  0  0  0  0  0  0  0  0
    9.6266  -16.5731  -10.4419 H   0  0  0  0  0  0  0  0  0  0  0  0
    7.6212  -15.0216  -10.2553 H   0  0  0  0  0  0  0  0  0  0  0  0
    8.9938  -15.7423  -12.6163 H   0  0  0  0  0  0  0  0  0  0  0  0
    6.6077  -14.8403  -11.7412 H   0  0  0  0  0  0  0  0  0  0  0  0
   10.3597  -13.6770  -12.7525 H   0  0  0  0  0  0  0  0  0  0  0  0
    8.2597  -12.4559  -13.9466 H   0  0  0  0  0  0  0  0  0  0  0  0
    7.7595  -12.2756  -11.8894 H   0  0  0  0  0  0  0  0  0  0  0  0
    9.6383  -10.9903   -9.3628 H   0  0  0  0  0  0  0  0  0  0  0  0
   12.1242   -6.7814  -13.2262 H   0  0  0  0  0  0  0  0  0  0  0  0
   11.8689   -7.2310  -11.5187 H   0  0  0  0  0  0  0  0  0  0  0  0
   10.3532  -10.1028  -15.6838 H   0  0  0  0  0  0  0  0  0  0  0  0
   12.6307  -14.4527   -3.2015 H   0  0  0  0  0  0  0  0  0  0  0  0
   13.1577  -16.1190   -3.5261 H   0  0  0  0  0  0  0  0  0  0  0  0
   15.0768  -15.1588   -4.0022 H   0  0  0  0  0  0  0  0  0  0  0  0
   15.3618  -15.3654   -6.2890 H   0  0  0  0  0  0  0  0  0  0  0  0
   13.5930  -15.4158   -6.4483 H   0  0  0  0  0  0  0  0  0  0  0  0
   13.9365  -12.6818   -3.4497 H   0  0  0  0  0  0  0  0  0  0  0  0
   16.0208  -12.7364   -3.1130 H   0  0  0  0  0  0  0  0  0  0  0  0
   12.8483  -12.3700   -5.6525 H   0  0  0  0  0  0  0  0  0  0  0  0
   14.6014  -10.7306   -4.9021 H   0  0  0  0  0  0  0  0  0  0  0  0
   15.4773  -13.1201   -7.0435 H   0  0  0  0  0  0  0  0  0  0  0  0
   14.9713  -14.7646   -9.0264 H   0  0  0  0  0  0  0  0  0  0  0  0
   13.1119  -16.1631  -12.9364 H   0  0  0  0  0  0  0  0  0  0  0  0
   11.8583  -15.4916  -11.8593 H   0  0  0  0  0  0  0  0  0  0  0  0
   11.5641  -13.3186  -11.2540 H   0  0  0  0  0  0  0  0  0  0  0  0
   10.9051  -11.9661   -9.2786 H   0  0  0  0  0  0  0  0  0  0  0  0
   12.3216  -11.9387   -7.2779 H   0  0  0  0  0  0  0  0  0  0  0  0
  1  2  1  6
  1  3  2  0
  1  4  1  0
  1 23  1  0
  4  5  1  0
  6  5  1  0
  6  7  1  0
  6  8  1  0
  7 12  1  0
  8  9  1  0
  8 10  1  0
 10 11  1  0
 10 12  1  0
 12 13  1  0
 13 14  1  0
 13 22  1  0
 14 15  2  0
 15 16  1  0
 16 17  2  0
 16 22  1  0
 17 18  1  0
 17 19  1  0
 19 20  2  0
 20 21  1  0
 21 22  2  0
 23 24  1  0
 24 25  2  0
 24 26  1  1
 24 27  1  0
 27 28  1  0
 29 28  1  0
 29 30  1  0
 29 31  1  0
 30 35  1  0
 31 32  1  0
 31 33  1  0
 33 34  1  0
 33 35  1  0
 35 36  1  0
 36 37  2  0
 36 44  1  0
 37 38  1  0
 38 39  1  0
 38 42  2  0
 39 40  2  0
 39 41  1  0
 42 43  1  0
 43 44  2  0
  5 45  1  0
  5 46  1  0
  6 47  1  1
  8 48  1  1
  9 49  1  0
 10 50  1  6
 11 51  1  0
 12 52  1  6
 14 53  1  0
 18 54  1  0
 18 55  1  0
 20 56  1  0
 28 57  1  0
 28 58  1  0
 29 59  1  1
 30 60  1  0
 30 61  1  0
 31 62  1  1
 32 63  1  0
 33 64  1  1
 34 65  1  0
 35 66  1  6
 37 67  1  0
 41 68  1  0
 41 69  1  0
 42 70  1  0
 43 71  1  0
 44 72  1  0
M  CHG  3   2  -1  26  -1  36   1
M  END
>  <filename_input>  (18) 
7OMX_CNA_docked.sdf

>  <pdb_id>  (18) 
7OMX_CNA

>  <pose_rank>  (18) 
17

>  <num_atoms_heavy>  (18) 
44

>  <num_torsions>  (18) 
11

>  <pose>  (18) 
[10.066969883037903, -16.03227320588472, -7.420597848582083, 0.36793791638791595, -2.78938052580788, -0.43867460481226256, 3.400621288584969, 1.066800809633429, -1.1766931092927089, -1.8022538812074358, -2.1963233473970933, 2.6040643742406813, -4.239531833583564, 0.3616779643180941, 0.49851552293302537, 4.141479394107151, 2.1119980734754167]

>  <energy>  (18) 
-682.4708297314694

>  <inter_energy>  (18) 
-800.0103251038367

>  <intra_energy>  (18) 
115.75499504581614

>  <rmsd>  (18) 
8.79206

>  <sdf_rank>  (18) 
0

$$$$

     RDKit          3D

 72 76  0  0  0  0  0  0  0  0999 V2000
    9.5870  -12.5703   -9.2823 P   0  0  2  0  0  0  0  0  0  0  0  0
    9.0827  -11.5210   -8.3248 O   0  0  0  0  0  0  0  0  0  0  0  0
    9.1293  -13.9760   -9.1059 O   0  0  0  0  0  0  0  0  0  0  0  0
   11.1450  -12.4986   -9.1924 O   0  0  0  0  0  0  0  0  0  0  0  0
   11.8086  -12.3357   -7.9121 C   0  0  0  0  0  0  0  0  0  0  0  0
   11.7258  -13.6608   -7.2232 C   0  0  1  0  0  0  0  0  0  0  0  0
   12.9014  -13.8932   -6.4104 O   0  0  0  0  0  0  0  0  0  0  0  0
   10.5243  -13.8606   -6.2837 C   0  0  1  0  0  0  0  0  0  0  0  0
   10.0118  -15.1586   -6.5426 O   0  0  0  0  0  0  0  0  0  0  0  0
   11.1574  -13.7492   -4.8941 C   0  0  1  0  0  0  0  0  0  0  0  0
   10.4132  -14.3906   -3.8840 O   0  0  0  0  0  0  0  0  0  0  0  0
   12.4838  -14.4357   -5.1785 C   0  0  2  0  0  0  0  0  0  0  0  0
   13.5372  -14.2178   -4.1941 N   0  0  0  0  0  0  0  0  0  0  0  0
   13.4357  -14.0716   -2.8358 C   0  0  0  0  0  0  0  0  0  0  0  0
   14.5763  -13.8086   -2.2472 N   0  0  0  0  0  0  0  0  0  0  0  0
   15.4927  -13.7608   -3.2861 C   0  0  0  0  0  0  0  0  0  0  0  0
   16.8786  -13.5382   -3.3151 C   0  0  0  0  0  0  0  0  0  0  0  0
   17.6252  -13.3492   -2.2250 N   0  0  0  0  0  0  0  0  0  0  0  0
   17.4683  -13.5100   -4.5297 N   0  0  0  0  0  0  0  0  0  0  0  0
   16.7265  -13.7905   -5.6030 C   0  0  0  0  0  0  0  0  0  0  0  0
   15.4198  -14.0026   -5.7014 N   0  0  0  0  0  0  0  0  0  0  0  0
   14.8557  -13.9890   -4.4887 C   0  0  0  0  0  0  0  0  0  0  0  0
    9.1803  -12.1069  -10.7593 O   0  0  0  0  0  0  0  0  0  0  0  0
    9.6214  -12.3649  -12.2660 P   0  0  1  0  0  0  0  0  0  0  0  0
   10.4969  -11.2526  -12.7109 O   0  0  0  0  0  0  0  0  0  0  0  0
   10.0767  -13.7942  -12.3208 O   0  0  0  0  0  0  0  0  0  0  0  0
    8.2064  -12.3557  -12.9991 O   0  0  0  0  0  0  0  0  0  0  0  0
    8.0951  -12.7656  -14.3960 C   0  0  0  0  0  0  0  0  0  0  0  0
    6.7382  -12.3129  -14.8794 C   0  0  1  0  0  0  0  0  0  0  0  0
    5.8340  -13.4829  -15.3077 C   0  0  0  0  0  0  0  0  0  0  0  0
    5.9476  -11.5358  -13.8034 C   0  0  1  0  0  0  0  0  0  0  0  0
    5.1773  -10.5003  -14.4240 O   0  0  0  0  0  0  0  0  0  0  0  0
    5.0768  -12.6160  -13.1492 C   0  0  1  0  0  0  0  0  0  0  0  0
    3.9678  -12.0190  -12.4783 O   0  0  0  0  0  0  0  0  0  0  0  0
    4.6252  -13.4939  -14.3342 C   0  0  2  0  0  0  0  0  0  0  0  0
    4.2099  -14.8808  -13.9532 N   0  0  0  0  0  0  0  0  0  0  0  0
    5.1530  -15.8549  -13.6790 C   0  0  0  0  0  0  0  0  0  0  0  0
    4.7593  -17.1343  -13.2910 C   0  0  0  0  0  0  0  0  0  0  0  0
    5.8135  -18.1749  -13.0110 C   0  0  0  0  0  0  0  0  0  0  0  0
    6.4790  -18.1075  -11.9742 O   0  0  0  0  0  0  0  0  0  0  0  0
    5.9678  -19.1419  -13.8988 N   0  0  0  0  0  0  0  0  0  0  0  0
    3.4046  -17.4228  -13.1444 C   0  0  0  0  0  0  0  0  0  0  0  0
    2.4855  -16.4405  -13.4211 C   0  0  0  0  0  0  0  0  0  0  0  0
    2.9067  -15.2055  -13.8473 C   0  0  0  0  0  0  0  0  0  0  0  0
   12.8601  -12.0497   -8.0621 H   0  0  0  0  0  0  0  0  0  0  0  0
   11.3334  -11.5443   -7.3139 H   0  0  0  0  0  0  0  0  0  0  0  0
   11.6240  -14.3639   -8.0631 H   0  0  0  0  0  0  0  0  0  0  0  0
    9.6924  -13.1500   -6.3978 H   0  0  0  0  0  0  0  0  0  0  0  0
    9.8302  -15.6187   -5.6851 H   0  0  0  0  0  0  0  0  0  0  0  0
   11.2298  -12.7251   -4.4991 H   0  0  0  0  0  0  0  0  0  0  0  0
   10.7458  -14.1040   -2.9967 H   0  0  0  0  0  0  0  0  0  0  0  0
   12.3223  -15.5237   -5.1654 H   0  0  0  0  0  0  0  0  0  0  0  0
   12.4852  -14.1663   -2.2902 H   0  0  0  0  0  0  0  0  0  0  0  0
   18.6389  -13.1908   -2.3162 H   0  0  0  0  0  0  0  0  0  0  0  0
   17.1877  -13.3617   -1.2926 H   0  0  0  0  0  0  0  0  0  0  0  0
   17.2823  -13.8560   -6.5500 H   0  0  0  0  0  0  0  0  0  0  0  0
    8.8873  -12.2909  -14.9937 H   0  0  0  0  0  0  0  0  0  0  0  0
    8.2054  -13.8554  -14.4965 H   0  0  0  0  0  0  0  0  0  0  0  0
    6.9712  -11.6657  -15.7377 H   0  0  0  0  0  0  0  0  0  0  0  0
    5.4869  -13.3349  -16.3410 H   0  0  0  0  0  0  0  0  0  0  0  0
    6.3793  -14.4375  -15.2713 H   0  0  0  0  0  0  0  0  0  0  0  0
    6.5756  -11.0237  -13.0595 H   0  0  0  0  0  0  0  0  0  0  0  0
    4.7583   -9.9371  -13.7258 H   0  0  0  0  0  0  0  0  0  0  0  0
    5.6075  -13.2008  -12.3834 H   0  0  0  0  0  0  0  0  0  0  0  0
    4.0977  -12.0889  -11.4993 H   0  0  0  0  0  0  0  0  0  0  0  0
    3.7093  -13.0902  -14.7905 H   0  0  0  0  0  0  0  0  0  0  0  0
    6.2234  -15.6176  -13.7682 H   0  0  0  0  0  0  0  0  0  0  0  0
    6.6770  -19.8730  -13.7458 H   0  0  0  0  0  0  0  0  0  0  0  0
    5.3789  -19.1642  -14.7435 H   0  0  0  0  0  0  0  0  0  0  0  0
    3.0768  -18.4192  -12.8131 H   0  0  0  0  0  0  0  0  0  0  0  0
    1.4111  -16.6435  -13.3011 H   0  0  0  0  0  0  0  0  0  0  0  0
    2.1508  -14.4516  -14.1126 H   0  0  0  0  0  0  0  0  0  0  0  0
  1  2  1  1
  1  3  2  0
  1  4  1  0
  1 23  1  0
  4  5  1  0
  6  5  1  0
  6  7  1  0
  6  8  1  0
  7 12  1  0
  8  9  1  0
  8 10  1  0
 10 11  1  0
 10 12  1  0
 12 13  1  0
 13 14  1  0
 13 22  1  0
 14 15  2  0
 15 16  1  0
 16 17  2  0
 16 22  1  0
 17 18  1  0
 17 19  1  0
 19 20  2  0
 20 21  1  0
 21 22  2  0
 23 24  1  0
 24 25  2  0
 24 26  1  1
 24 27  1  0
 27 28  1  0
 29 28  1  0
 29 30  1  0
 29 31  1  0
 30 35  1  0
 31 32  1  0
 31 33  1  0
 33 34  1  0
 33 35  1  0
 35 36  1  0
 36 37  2  0
 36 44  1  0
 37 38  1  0
 38 39  1  0
 38 42  2  0
 39 40  2  0
 39 41  1  0
 42 43  1  0
 43 44  2  0
  5 45  1  0
  5 46  1  0
  6 47  1  6
  8 48  1  6
  9 49  1  0
 10 50  1  1
 11 51  1  0
 12 52  1  6
 14 53  1  0
 18 54  1  0
 18 55  1  0
 20 56  1  0
 28 57  1  0
 28 58  1  0
 29 59  1  6
 30 60  1  0
 30 61  1  0
 31 62  1  1
 32 63  1  0
 33 64  1  1
 34 65  1  0
 35 66  1  6
 37 67  1  0
 41 68  1  0
 41 69  1  0
 42 70  1  0
 43 71  1  0
 44 72  1  0
M  CHG  3   2  -1  26  -1  36   1
M  END
>  <filename_input>  (19) 
7OMX_CNA_docked.sdf

>  <pdb_id>  (19) 
7OMX_CNA

>  <pose_rank>  (19) 
18

>  <num_atoms_heavy>  (19) 
44

>  <num_torsions>  (19) 
11

>  <pose>  (19) 
[9.586962858153028, -12.57031829532268, -9.282255729723245, -0.9848692378175504, 0.951225667001458, -0.7592746638700335, 4.08308275023374, -1.2182186137592441, -0.05731259208274918, 1.2723214195859862, -4.571810536514175, -7.837715072452232, -4.1121666932792635, -0.5213586985326673, 5.120736867010092, -0.32320695830427887, -2.178176247535615]

>  <energy>  (19) 
-709.0086049069772

>  <inter_energy>  (19) 
-764.1511623100452

>  <intra_energy>  (19) 
62.15103166954256

>  <rmsd>  (19) 
5.63529

>  <sdf_rank>  (19) 
0

$$$$

     RDKit          3D

 72 76  0  0  0  0  0  0  0  0999 V2000
    9.6193  -14.6882   -8.4190 P   0  0  2  0  0  0  0  0  0  0  0  0
    8.9802  -15.7025   -7.5054 O   0  0  0  0  0  0  0  0  0  0  0  0
   11.0594  -14.8450   -8.7626 O   0  0  0  0  0  0  0  0  0  0  0  0
    9.3792  -13.3046   -7.7343 O   0  0  0  0  0  0  0  0  0  0  0  0
    9.9284  -13.0200   -6.4215 C   0  0  0  0  0  0  0  0  0  0  0  0
   11.3278  -12.5413   -6.6451 C   0  0  1  0  0  0  0  0  0  0  0  0
   12.0611  -12.4927   -5.3974 O   0  0  0  0  0  0  0  0  0  0  0  0
   12.1872  -13.3870   -7.6002 C   0  0  1  0  0  0  0  0  0  0  0  0
   12.8731  -12.4790   -8.4485 O   0  0  0  0  0  0  0  0  0  0  0  0
   13.1323  -14.1221   -6.6460 C   0  0  1  0  0  0  0  0  0  0  0  0
   14.3290  -14.5474   -7.2565 O   0  0  0  0  0  0  0  0  0  0  0  0
   13.3493  -13.0175   -5.6241 C   0  0  2  0  0  0  0  0  0  0  0  0
   13.9124  -13.4350   -4.3455 N   0  0  0  0  0  0  0  0  0  0  0  0
   13.2763  -13.6710   -3.1554 C   0  0  0  0  0  0  0  0  0  0  0  0
   14.0908  -13.9581   -2.1702 N   0  0  0  0  0  0  0  0  0  0  0  0
   15.3523  -13.8920   -2.7408 C   0  0  0  0  0  0  0  0  0  0  0  0
   16.6381  -14.1096   -2.2207 C   0  0  0  0  0  0  0  0  0  0  0  0
   16.8783  -14.4896   -0.9640 N   0  0  0  0  0  0  0  0  0  0  0  0
   17.6786  -13.9087   -3.0579 N   0  0  0  0  0  0  0  0  0  0  0  0
   17.4203  -13.6179   -4.3344 C   0  0  0  0  0  0  0  0  0  0  0  0
   16.2604  -13.3776   -4.9336 N   0  0  0  0  0  0  0  0  0  0  0  0
   15.2505  -13.5481   -4.0733 C   0  0  0  0  0  0  0  0  0  0  0  0
    8.7892  -14.6850   -9.7874 O   0  0  0  0  0  0  0  0  0  0  0  0
    9.0020  -15.0335  -11.3251 P   0  0  1  0  0  0  0  0  0  0  0  0
   10.4566  -15.0777  -11.6143 O   0  0  0  0  0  0  0  0  0  0  0  0
    8.1082  -16.2060  -11.6072 O   0  0  0  0  0  0  0  0  0  0  0  0
    8.2818  -13.7916  -12.0171 O   0  0  0  0  0  0  0  0  0  0  0  0
    7.4600  -13.9837  -13.2085 C   0  0  0  0  0  0  0  0  0  0  0  0
    6.0395  -14.1780  -12.7351 C   0  0  1  0  0  0  0  0  0  0  0  0
    5.2457  -12.8608  -12.6654 C   0  0  0  0  0  0  0  0  0  0  0  0
    5.2254  -15.1175  -13.6524 C   0  0  1  0  0  0  0  0  0  0  0  0
    4.3178  -15.8952  -12.8638 O   0  0  0  0  0  0  0  0  0  0  0  0
    4.5102  -14.1534  -14.6076 C   0  0  1  0  0  0  0  0  0  0  0  0
    3.3789  -14.7910  -15.1992 O   0  0  0  0  0  0  0  0  0  0  0  0
    4.0961  -12.9757  -13.7018 C   0  0  2  0  0  0  0  0  0  0  0  0
    3.8522  -11.6912  -14.4307 N   0  0  0  0  0  0  0  0  0  0  0  0
    3.5396  -11.6871  -15.7782 C   0  0  0  0  0  0  0  0  0  0  0  0
    3.2796  -10.4899  -16.4426 C   0  0  0  0  0  0  0  0  0  0  0  0
    2.9533  -10.5210  -17.9140 C   0  0  0  0  0  0  0  0  0  0  0  0
    3.1761  -11.5433  -18.5681 O   0  0  0  0  0  0  0  0  0  0  0  0
    2.4160   -9.4357  -18.4434 N   0  0  0  0  0  0  0  0  0  0  0  0
    3.3006   -9.2908  -15.7341 C   0  0  0  0  0  0  0  0  0  0  0  0
    3.6126   -9.3182  -14.3969 C   0  0  0  0  0  0  0  0  0  0  0  0
    3.9103  -10.5103  -13.7848 C   0  0  0  0  0  0  0  0  0  0  0  0
    9.3348  -12.2406   -5.9214 H   0  0  0  0  0  0  0  0  0  0  0  0
    9.9096  -13.9126   -5.7789 H   0  0  0  0  0  0  0  0  0  0  0  0
   11.1747  -11.5542   -7.1057 H   0  0  0  0  0  0  0  0  0  0  0  0
   11.6466  -14.0950   -8.2455 H   0  0  0  0  0  0  0  0  0  0  0  0
   13.3687  -11.8227   -7.8974 H   0  0  0  0  0  0  0  0  0  0  0  0
   12.7406  -15.0682   -6.2441 H   0  0  0  0  0  0  0  0  0  0  0  0
   14.9903  -14.7824   -6.5583 H   0  0  0  0  0  0  0  0  0  0  0  0
   14.0893  -12.3107   -6.0276 H   0  0  0  0  0  0  0  0  0  0  0  0
   12.1836  -13.6240   -3.0380 H   0  0  0  0  0  0  0  0  0  0  0  0
   17.8474  -14.6322   -0.6454 H   0  0  0  0  0  0  0  0  0  0  0  0
   16.0947  -14.6403   -0.3128 H   0  0  0  0  0  0  0  0  0  0  0  0
   18.3025  -13.5699   -4.9896 H   0  0  0  0  0  0  0  0  0  0  0  0
    7.5242  -13.0989  -13.8590 H   0  0  0  0  0  0  0  0  0  0  0  0
    7.8042  -14.8529  -13.7882 H   0  0  0  0  0  0  0  0  0  0  0  0
    6.1577  -14.6155  -11.7327 H   0  0  0  0  0  0  0  0  0  0  0  0
    4.8328  -12.7202  -11.6556 H   0  0  0  0  0  0  0  0  0  0  0  0
    5.8917  -11.9982  -12.8860 H   0  0  0  0  0  0  0  0  0  0  0  0
    5.8317  -15.8508  -14.2044 H   0  0  0  0  0  0  0  0  0  0  0  0
    4.4990  -15.7400  -11.9030 H   0  0  0  0  0  0  0  0  0  0  0  0
    5.1389  -13.8241  -15.4480 H   0  0  0  0  0  0  0  0  0  0  0  0
    2.7801  -15.1285  -14.4866 H   0  0  0  0  0  0  0  0  0  0  0  0
    3.1201  -13.1701  -13.2330 H   0  0  0  0  0  0  0  0  0  0  0  0
    3.4959  -12.6374  -16.3304 H   0  0  0  0  0  0  0  0  0  0  0  0
    2.1778   -9.4151  -19.4453 H   0  0  0  0  0  0  0  0  0  0  0  0
    2.2355   -8.6105  -17.8540 H   0  0  0  0  0  0  0  0  0  0  0  0
    3.0716   -8.3394  -16.2363 H   0  0  0  0  0  0  0  0  0  0  0  0
    3.6240   -8.3843  -13.8159 H   0  0  0  0  0  0  0  0  0  0  0  0
    4.2079  -10.5011  -12.7258 H   0  0  0  0  0  0  0  0  0  0  0  0
  1  2  1  1
  1  3  2  0
  1  4  1  0
  1 23  1  0
  4  5  1  0
  6  5  1  0
  6  7  1  0
  6  8  1  0
  7 12  1  0
  8  9  1  0
  8 10  1  0
 10 11  1  0
 10 12  1  0
 12 13  1  0
 13 14  1  0
 13 22  1  0
 14 15  2  0
 15 16  1  0
 16 17  2  0
 16 22  1  0
 17 18  1  0
 17 19  1  0
 19 20  2  0
 20 21  1  0
 21 22  2  0
 23 24  1  0
 24 25  2  0
 24 26  1  6
 24 27  1  0
 27 28  1  0
 29 28  1  0
 29 30  1  0
 29 31  1  0
 30 35  1  0
 31 32  1  0
 31 33  1  0
 33 34  1  0
 33 35  1  0
 35 36  1  0
 36 37  2  0
 36 44  1  0
 37 38  1  0
 38 39  1  0
 38 42  2  0
 39 40  2  0
 39 41  1  0
 42 43  1  0
 43 44  2  0
  5 45  1  0
  5 46  1  0
  6 47  1  6
  8 48  1  6
  9 49  1  0
 10 50  1  1
 11 51  1  0
 12 52  1  6
 14 53  1  0
 18 54  1  0
 18 55  1  0
 20 56  1  0
 28 57  1  0
 28 58  1  0
 29 59  1  1
 30 60  1  0
 30 61  1  0
 31 62  1  6
 32 63  1  0
 33 64  1  6
 34 65  1  0
 35 66  1  1
 37 67  1  0
 41 68  1  0
 41 69  1  0
 42 70  1  0
 43 71  1  0
 44 72  1  0
M  CHG  3   2  -1  26  -1  36   1
M  END
>  <filename_input>  (20) 
7OMX_CNA_docked.sdf

>  <pdb_id>  (20) 
7OMX_CNA

>  <pose_rank>  (20) 
19

>  <num_atoms_heavy>  (20) 
44

>  <num_torsions>  (20) 
11

>  <pose>  (20) 
[9.619340313043908, -14.688198215871122, -8.418961067763965, -0.9110068414011505, -0.024675030148268155, 0.8609960276997861, -8.127600442122363, -1.0412024644284588, 7.01725256894999, -1.0703706831681699, -3.070588461425604, -6.420137745743983, 2.7046644516174396, 3.9928727237821886, -3.7872825773195813, 1.431926428494863, 2.5640847743122324]

>  <energy>  (20) 
-610.7797174566259

>  <inter_energy>  (20) 
-743.8690270256927

>  <intra_energy>  (20) 
133.7986023239304

>  <rmsd>  (20) 
4.95493

>  <sdf_rank>  (20) 
0

$$$$

     RDKit          3D

 72 76  0  0  0  0  0  0  0  0999 V2000
    9.8092  -15.5008   -7.1467 P   0  0  2  0  0  0  0  0  0  0  0  0
    9.9436  -15.2542   -5.6658 O   0  0  0  0  0  0  0  0  0  0  0  0
    9.1006  -14.4885   -7.9771 O   0  0  0  0  0  0  0  0  0  0  0  0
    9.1018  -16.8880   -7.2732 O   0  0  0  0  0  0  0  0  0  0  0  0
    7.9687  -17.0658   -8.1623 C   0  0  0  0  0  0  0  0  0  0  0  0
    7.6005  -18.5138   -8.0909 C   0  0  1  0  0  0  0  0  0  0  0  0
    7.1459  -18.8649   -6.7616 O   0  0  0  0  0  0  0  0  0  0  0  0
    6.4878  -18.9765   -9.0469 C   0  0  1  0  0  0  0  0  0  0  0  0
    6.9156  -20.2070   -9.6101 O   0  0  0  0  0  0  0  0  0  0  0  0
    5.2870  -19.1482   -8.1127 C   0  0  1  0  0  0  0  0  0  0  0  0
    4.3104  -20.0345   -8.6091 O   0  0  0  0  0  0  0  0  0  0  0  0
    6.0096  -19.6886   -6.8891 C   0  0  2  0  0  0  0  0  0  0  0  0
    5.2620  -19.6456   -5.6378 N   0  0  0  0  0  0  0  0  0  0  0  0
    3.9934  -19.1853   -5.4030 C   0  0  0  0  0  0  0  0  0  0  0  0
    3.6467  -19.2165   -4.1398 N   0  0  0  0  0  0  0  0  0  0  0  0
    4.7658  -19.7152   -3.4916 C   0  0  0  0  0  0  0  0  0  0  0  0
    5.0281  -20.0014   -2.1424 C   0  0  0  0  0  0  0  0  0  0  0  0
    4.1335  -19.8551   -1.1628 N   0  0  0  0  0  0  0  0  0  0  0  0
    6.2685  -20.4419   -1.8405 N   0  0  0  0  0  0  0  0  0  0  0  0
    7.1229  -20.6697   -2.8400 C   0  0  0  0  0  0  0  0  0  0  0  0
    6.9949  -20.4289   -4.1391 N   0  0  0  0  0  0  0  0  0  0  0  0
    5.7709  -19.9596   -4.4049 C   0  0  0  0  0  0  0  0  0  0  0  0
   11.2858  -15.6712   -7.7404 O   0  0  0  0  0  0  0  0  0  0  0  0
   12.1346  -15.2133   -9.0058 P   0  0  1  0  0  0  0  0  0  0  0  0
   12.8932  -16.3773   -9.5264 O   0  0  0  0  0  0  0  0  0  0  0  0
   11.1879  -14.4388   -9.8759 O   0  0  0  0  0  0  0  0  0  0  0  0
   13.0830  -14.1135   -8.3494 O   0  0  0  0  0  0  0  0  0  0  0  0
   13.8276  -14.4128   -7.1297 C   0  0  0  0  0  0  0  0  0  0  0  0
   12.9992  -13.9048   -5.9741 C   0  0  1  0  0  0  0  0  0  0  0  0
   13.3795  -14.5566   -4.6322 C   0  0  0  0  0  0  0  0  0  0  0  0
   13.1381  -12.3809   -5.7616 C   0  0  1  0  0  0  0  0  0  0  0  0
   11.8859  -11.8376   -5.3284 O   0  0  0  0  0  0  0  0  0  0  0  0
   14.2375  -12.2667   -4.6978 C   0  0  1  0  0  0  0  0  0  0  0  0
   14.1692  -10.9974   -4.0493 O   0  0  0  0  0  0  0  0  0  0  0  0
   13.9323  -13.4246   -3.7256 C   0  0  2  0  0  0  0  0  0  0  0  0
   15.1036  -13.8685   -2.9058 N   0  0  0  0  0  0  0  0  0  0  0  0
   16.3194  -14.1544   -3.5002 C   0  0  0  0  0  0  0  0  0  0  0  0
   17.4153  -14.5335   -2.7271 C   0  0  0  0  0  0  0  0  0  0  0  0
   18.7224  -14.8490   -3.4088 C   0  0  0  0  0  0  0  0  0  0  0  0
   19.6771  -14.0768   -3.2876 O   0  0  0  0  0  0  0  0  0  0  0  0
   18.7929  -15.9703   -4.1049 N   0  0  0  0  0  0  0  0  0  0  0  0
   17.2931  -14.5904   -1.3408 C   0  0  0  0  0  0  0  0  0  0  0  0
   16.0769  -14.3017   -0.7718 C   0  0  0  0  0  0  0  0  0  0  0  0
   15.0055  -13.9783   -1.5667 C   0  0  0  0  0  0  0  0  0  0  0  0
    7.1248  -16.4418   -7.8328 H   0  0  0  0  0  0  0  0  0  0  0  0
    8.2179  -16.7674   -9.1913 H   0  0  0  0  0  0  0  0  0  0  0  0
    8.5345  -19.0153   -8.3846 H   0  0  0  0  0  0  0  0  0  0  0  0
    6.2477  -18.2996   -9.8800 H   0  0  0  0  0  0  0  0  0  0  0  0
    7.1368  -20.8430   -8.8843 H   0  0  0  0  0  0  0  0  0  0  0  0
    4.6946  -18.2361   -7.9479 H   0  0  0  0  0  0  0  0  0  0  0  0
    3.8383  -20.4630   -7.8518 H   0  0  0  0  0  0  0  0  0  0  0  0
    6.2100  -20.7585   -7.0477 H   0  0  0  0  0  0  0  0  0  0  0  0
    3.3278  -18.8234   -6.2004 H   0  0  0  0  0  0  0  0  0  0  0  0
    4.3908  -20.0834   -0.1919 H   0  0  0  0  0  0  0  0  0  0  0  0
    3.1857  -19.5139   -1.3777 H   0  0  0  0  0  0  0  0  0  0  0  0
    8.0782  -21.1263   -2.5421 H   0  0  0  0  0  0  0  0  0  0  0  0
   13.9810  -15.4981   -7.0369 H   0  0  0  0  0  0  0  0  0  0  0  0
   14.8175  -13.9334   -7.1451 H   0  0  0  0  0  0  0  0  0  0  0  0
   11.9695  -14.1683   -6.2575 H   0  0  0  0  0  0  0  0  0  0  0  0
   12.4932  -15.0144   -4.1687 H   0  0  0  0  0  0  0  0  0  0  0  0
   14.1289  -15.3489   -4.7762 H   0  0  0  0  0  0  0  0  0  0  0  0
   13.4000  -11.8176   -6.6694 H   0  0  0  0  0  0  0  0  0  0  0  0
   11.8564  -11.8248   -4.3389 H   0  0  0  0  0  0  0  0  0  0  0  0
   15.2546  -12.3347   -5.1114 H   0  0  0  0  0  0  0  0  0  0  0  0
   14.1762  -11.1274   -3.0679 H   0  0  0  0  0  0  0  0  0  0  0  0
   13.2126  -13.1072   -2.9567 H   0  0  0  0  0  0  0  0  0  0  0  0
   16.4223  -14.0820   -4.5930 H   0  0  0  0  0  0  0  0  0  0  0  0
   19.6676  -16.2235   -4.5862 H   0  0  0  0  0  0  0  0  0  0  0  0
   17.9731  -16.5908   -4.1661 H   0  0  0  0  0  0  0  0  0  0  0  0
   18.1548  -14.8616   -0.7132 H   0  0  0  0  0  0  0  0  0  0  0  0
   15.9613  -14.3296    0.3218 H   0  0  0  0  0  0  0  0  0  0  0  0
   14.0291  -13.8020   -1.0918 H   0  0  0  0  0  0  0  0  0  0  0  0
  1  2  1  1
  1  3  2  0
  1  4  1  0
  1 23  1  0
  4  5  1  0
  6  5  1  0
  6  7  1  0
  6  8  1  0
  7 12  1  0
  8  9  1  0
  8 10  1  0
 10 11  1  0
 10 12  1  0
 12 13  1  0
 13 14  1  0
 13 22  1  0
 14 15  2  0
 15 16  1  0
 16 17  2  0
 16 22  1  0
 17 18  1  0
 17 19  1  0
 19 20  2  0
 20 21  1  0
 21 22  2  0
 23 24  1  0
 24 25  2  0
 24 26  1  6
 24 27  1  0
 27 28  1  0
 29 28  1  0
 29 30  1  0
 29 31  1  0
 30 35  1  0
 31 32  1  0
 31 33  1  0
 33 34  1  0
 33 35  1  0
 35 36  1  0
 36 37  2  0
 36 44  1  0
 37 38  1  0
 38 39  1  0
 38 42  2  0
 39 40  2  0
 39 41  1  0
 42 43  1  0
 43 44  2  0
  5 45  1  0
  5 46  1  0
  6 47  1  6
  8 48  1  6
  9 49  1  0
 10 50  1  1
 11 51  1  0
 12 52  1  6
 14 53  1  0
 18 54  1  0
 18 55  1  0
 20 56  1  0
 28 57  1  0
 28 58  1  0
 29 59  1  6
 30 60  1  0
 30 61  1  0
 31 62  1  6
 32 63  1  0
 33 64  1  6
 34 65  1  0
 35 66  1  1
 37 67  1  0
 41 68  1  0
 41 69  1  0
 42 70  1  0
 43 71  1  0
 44 72  1  0
M  CHG  3   2  -1  26  -1  36   1
M  END
>  <filename_input>  (21) 
7OMX_CNA_docked.sdf

>  <pdb_id>  (21) 
7OMX_CNA

>  <pose_rank>  (21) 
20

>  <num_atoms_heavy>  (21) 
44

>  <num_torsions>  (21) 
11

>  <pose>  (21) 
[9.80921892196766, -15.500835399444911, -7.1467294009593365, 1.147368010579837, 1.12797559935137, -1.9525987199308148, -0.6162497087213477, 0.5593706915555001, -1.491480985291507, 0.6685115740128994, 2.8281905629675976, -2.1856710443490015, -0.26959911256161984, 0.71123128623515, 3.6848803837682187, 0.16363370733746757, -1.559788333105528]

>  <energy>  (21) 
-726.2513863135246

>  <inter_energy>  (21) 
-740.1981677647739

>  <intra_energy>  (21) 
31.44500111848754

>  <rmsd>  (21) 
10.472

>  <sdf_rank>  (21) 
0

$$$$

     RDKit          3D

 72 76  0  0  0  0  0  0  0  0999 V2000
   10.1606  -12.2295   -7.5293 P   0  0  2  0  0  0  0  0  0  0  0  0
   10.8963  -11.8301   -8.7828 O   0  0  0  0  0  0  0  0  0  0  0  0
    9.2070  -11.2605   -6.9224 O   0  0  0  0  0  0  0  0  0  0  0  0
   11.2726  -12.6047   -6.4981 O   0  0  0  0  0  0  0  0  0  0  0  0
   10.9763  -12.6766   -5.0793 C   0  0  0  0  0  0  0  0  0  0  0  0
   11.9988  -13.5901   -4.4813 C   0  0  1  0  0  0  0  0  0  0  0  0
   11.8343  -14.9412   -4.9756 O   0  0  0  0  0  0  0  0  0  0  0  0
   13.4693  -13.2258   -4.7477 C   0  0  1  0  0  0  0  0  0  0  0  0
   14.1603  -13.3814   -3.5177 O   0  0  0  0  0  0  0  0  0  0  0  0
   13.8928  -14.2635   -5.7907 C   0  0  1  0  0  0  0  0  0  0  0  0
   15.2831  -14.4903   -5.8261 O   0  0  0  0  0  0  0  0  0  0  0  0
   13.1111  -15.4594   -5.2712 C   0  0  2  0  0  0  0  0  0  0  0  0
   12.9568  -16.5718   -6.2014 N   0  0  0  0  0  0  0  0  0  0  0  0
   12.6542  -16.5474   -7.5371 C   0  0  0  0  0  0  0  0  0  0  0  0
   12.5109  -17.7371   -8.0670 N   0  0  0  0  0  0  0  0  0  0  0  0
   12.7160  -18.6083   -7.0087 C   0  0  0  0  0  0  0  0  0  0  0  0
   12.7158  -20.0098   -6.9237 C   0  0  0  0  0  0  0  0  0  0  0  0
   12.5311  -20.8189   -7.9690 N   0  0  0  0  0  0  0  0  0  0  0  0
   12.9079  -20.5484   -5.7004 N   0  0  0  0  0  0  0  0  0  0  0  0
   13.1814  -19.7308   -4.6817 C   0  0  0  0  0  0  0  0  0  0  0  0
   13.1970  -18.4042   -4.6371 N   0  0  0  0  0  0  0  0  0  0  0  0
   12.9680  -17.8971   -5.8534 C   0  0  0  0  0  0  0  0  0  0  0  0
    9.3509  -13.5711   -7.8553 O   0  0  0  0  0  0  0  0  0  0  0  0
    9.3266  -14.7267   -8.9486 P   0  0  1  0  0  0  0  0  0  0  0  0
   10.7051  -15.2412   -9.1394 O   0  0  0  0  0  0  0  0  0  0  0  0
    8.1952  -15.6339   -8.5610 O   0  0  0  0  0  0  0  0  0  0  0  0
    8.7947  -13.9263  -10.2200 O   0  0  0  0  0  0  0  0  0  0  0  0
    9.0861  -14.4037  -11.5687 C   0  0  0  0  0  0  0  0  0  0  0  0
    8.0702  -13.7688  -12.4878 C   0  0  1  0  0  0  0  0  0  0  0  0
    8.0958  -12.2303  -12.4374 C   0  0  0  0  0  0  0  0  0  0  0  0
    8.2826  -14.1496  -13.9699 C   0  0  1  0  0  0  0  0  0  0  0  0
    7.0145  -14.2691  -14.6244 O   0  0  0  0  0  0  0  0  0  0  0  0
    9.1302  -12.9945  -14.5183 C   0  0  1  0  0  0  0  0  0  0  0  0
    9.0256  -12.9352  -15.9403 O   0  0  0  0  0  0  0  0  0  0  0  0
    8.5282  -11.7435  -13.8463 C   0  0  2  0  0  0  0  0  0  0  0  0
    9.4533  -10.5682  -13.7867 N   0  0  0  0  0  0  0  0  0  0  0  0
    9.7964   -9.9945  -12.5756 C   0  0  0  0  0  0  0  0  0  0  0  0
   10.6856   -8.9226  -12.5248 C   0  0  0  0  0  0  0  0  0  0  0  0
   11.0286   -8.3141  -11.1889 C   0  0  0  0  0  0  0  0  0  0  0  0
   11.7392   -7.3066  -11.1404 O   0  0  0  0  0  0  0  0  0  0  0  0
   10.5276   -8.8891  -10.1094 N   0  0  0  0  0  0  0  0  0  0  0  0
   11.2601   -8.4485  -13.7018 C   0  0  0  0  0  0  0  0  0  0  0  0
   10.9059   -9.0333  -14.8929 C   0  0  0  0  0  0  0  0  0  0  0  0
    9.9904  -10.0560  -14.9111 C   0  0  0  0  0  0  0  0  0  0  0  0
   11.0464  -11.6773   -4.6247 H   0  0  0  0  0  0  0  0  0  0  0  0
    9.9564  -13.0488   -4.9028 H   0  0  0  0  0  0  0  0  0  0  0  0
   11.8113  -13.4891   -3.4021 H   0  0  0  0  0  0  0  0  0  0  0  0
   13.6615  -12.2035   -5.1055 H   0  0  0  0  0  0  0  0  0  0  0  0
   13.5318  -13.2398   -2.7660 H   0  0  0  0  0  0  0  0  0  0  0  0
   13.6881  -13.9814   -6.8341 H   0  0  0  0  0  0  0  0  0  0  0  0
   15.6318  -14.5471   -4.9013 H   0  0  0  0  0  0  0  0  0  0  0  0
   13.6601  -15.8916   -4.4216 H   0  0  0  0  0  0  0  0  0  0  0  0
   12.5419  -15.6159   -8.1113 H   0  0  0  0  0  0  0  0  0  0  0  0
   12.5426  -21.8404   -7.8379 H   0  0  0  0  0  0  0  0  0  0  0  0
   12.3770  -20.4217   -8.9068 H   0  0  0  0  0  0  0  0  0  0  0  0
   13.4320  -20.2323   -3.7353 H   0  0  0  0  0  0  0  0  0  0  0  0
   10.1026  -14.1048  -11.8644 H   0  0  0  0  0  0  0  0  0  0  0  0
    9.0304  -15.5011  -11.6185 H   0  0  0  0  0  0  0  0  0  0  0  0
    7.1089  -14.1551  -12.1183 H   0  0  0  0  0  0  0  0  0  0  0  0
    7.0958  -11.8426  -12.1930 H   0  0  0  0  0  0  0  0  0  0  0  0
    8.7918  -11.8719  -11.6647 H   0  0  0  0  0  0  0  0  0  0  0  0
    8.7804  -15.1186  -14.1231 H   0  0  0  0  0  0  0  0  0  0  0  0
    6.2976  -14.3366  -13.9450 H   0  0  0  0  0  0  0  0  0  0  0  0
   10.2038  -13.0998  -14.3035 H   0  0  0  0  0  0  0  0  0  0  0  0
    8.1923  -12.4628  -16.1904 H   0  0  0  0  0  0  0  0  0  0  0  0
    7.6866  -11.3519  -14.4367 H   0  0  0  0  0  0  0  0  0  0  0  0
    9.3634  -10.3880  -11.6441 H   0  0  0  0  0  0  0  0  0  0  0  0
   10.7373   -8.5051   -9.1770 H   0  0  0  0  0  0  0  0  0  0  0  0
    9.9275   -9.7213  -10.2006 H   0  0  0  0  0  0  0  0  0  0  0  0
   11.9843   -7.6209  -13.6777 H   0  0  0  0  0  0  0  0  0  0  0  0
   11.3561   -8.6820  -15.8330 H   0  0  0  0  0  0  0  0  0  0  0  0
    9.6834  -10.4735  -15.8814 H   0  0  0  0  0  0  0  0  0  0  0  0
  1  2  1  6
  1  3  2  0
  1  4  1  0
  1 23  1  0
  4  5  1  0
  6  5  1  0
  6  7  1  0
  6  8  1  0
  7 12  1  0
  8  9  1  0
  8 10  1  0
 10 11  1  0
 10 12  1  0
 12 13  1  0
 13 14  1  0
 13 22  1  0
 14 15  2  0
 15 16  1  0
 16 17  2  0
 16 22  1  0
 17 18  1  0
 17 19  1  0
 19 20  2  0
 20 21  1  0
 21 22  2  0
 23 24  1  0
 24 25  2  0
 24 26  1  1
 24 27  1  0
 27 28  1  0
 29 28  1  0
 29 30  1  0
 29 31  1  0
 30 35  1  0
 31 32  1  0
 31 33  1  0
 33 34  1  0
 33 35  1  0
 35 36  1  0
 36 37  2  0
 36 44  1  0
 37 38  1  0
 38 39  1  0
 38 42  2  0
 39 40  2  0
 39 41  1  0
 42 43  1  0
 43 44  2  0
  5 45  1  0
  5 46  1  0
  6 47  1  1
  8 48  1  6
  9 49  1  0
 10 50  1  6
 11 51  1  0
 12 52  1  1
 14 53  1  0
 18 54  1  0
 18 55  1  0
 20 56  1  0
 28 57  1  0
 28 58  1  0
 29 59  1  1
 30 60  1  0
 30 61  1  0
 31 62  1  1
 32 63  1  0
 33 64  1  6
 34 65  1  0
 35 66  1  6
 37 67  1  0
 41 68  1  0
 41 69  1  0
 42 70  1  0
 43 71  1  0
 44 72  1  0
M  CHG  3   2  -1  26  -1  36   1
M  END
>  <filename_input>  (22) 
7OMX_CNA_docked.sdf

>  <pdb_id>  (22) 
7OMX_CNA

>  <pose_rank>  (22) 
21

>  <num_atoms_heavy>  (22) 
44

>  <num_torsions>  (22) 
11

>  <pose>  (22) 
[10.160597440846631, -12.229468520249837, -7.529334062065606, -1.8655916439196285, 0.2237418025766169, -2.7430539676906065, 6.197182451748482, 0.19550715692907197, -3.7674653224212467, -0.08330714303574595, -0.766920134914715, 1.0417565083732332, -4.699206372336881, 5.159748980386819, 1.9065275994931652, -1.084249470426714, -0.23713037629132222]

>  <energy>  (22) 
-717.1117572434187

>  <inter_energy>  (22) 
-744.2348519730348

>  <intra_energy>  (22) 
31.127633800089708

>  <rmsd>  (22) 
4.01979

>  <sdf_rank>  (22) 
0

$$$$

     RDKit          3D

 72 76  0  0  0  0  0  0  0  0999 V2000
    8.3641  -15.6091   -9.9430 P   0  0  2  0  0  0  0  0  0  0  0  0
    9.0716  -16.8241  -10.4864 O   0  0  0  0  0  0  0  0  0  0  0  0
    7.6885  -15.7091   -8.6201 O   0  0  0  0  0  0  0  0  0  0  0  0
    7.3313  -15.2045  -11.0431 O   0  0  0  0  0  0  0  0  0  0  0  0
    7.5805  -15.5021  -12.4415 C   0  0  0  0  0  0  0  0  0  0  0  0
    7.3037  -14.2407  -13.1963 C   0  0  1  0  0  0  0  0  0  0  0  0
    7.6939  -13.0809  -12.4220 O   0  0  0  0  0  0  0  0  0  0  0  0
    8.0150  -14.0942  -14.5523 C   0  0  1  0  0  0  0  0  0  0  0  0
    7.0521  -13.5987  -15.4697 O   0  0  0  0  0  0  0  0  0  0  0  0
    9.1143  -13.0721  -14.2506 C   0  0  1  0  0  0  0  0  0  0  0  0
    9.5680  -12.3810  -15.3917 O   0  0  0  0  0  0  0  0  0  0  0  0
    8.3542  -12.1804  -13.2818 C   0  0  2  0  0  0  0  0  0  0  0  0
    9.1678  -11.2791  -12.4743 N   0  0  0  0  0  0  0  0  0  0  0  0
    9.2614  -11.1849  -11.1109 C   0  0  0  0  0  0  0  0  0  0  0  0
   10.0318  -10.2073  -10.7017 N   0  0  0  0  0  0  0  0  0  0  0  0
   10.4649   -9.6025  -11.8713 C   0  0  0  0  0  0  0  0  0  0  0  0
   11.3203   -8.5158  -12.1134 C   0  0  0  0  0  0  0  0  0  0  0  0
   11.9503   -7.8360  -11.1530 N   0  0  0  0  0  0  0  0  0  0  0  0
   11.4946   -8.1498  -13.4016 N   0  0  0  0  0  0  0  0  0  0  0  0
   10.9316   -8.8940  -14.3555 C   0  0  0  0  0  0  0  0  0  0  0  0
   10.1021   -9.9250  -14.2508 N   0  0  0  0  0  0  0  0  0  0  0  0
    9.9185  -10.2430  -12.9646 C   0  0  0  0  0  0  0  0  0  0  0  0
    9.4404  -14.4279   -9.8526 O   0  0  0  0  0  0  0  0  0  0  0  0
   10.9158  -14.1031  -10.3515 P   0  0  1  0  0  0  0  0  0  0  0  0
   10.8928  -13.8831  -11.8187 O   0  0  0  0  0  0  0  0  0  0  0  0
   11.4477  -13.0632   -9.4087 O   0  0  0  0  0  0  0  0  0  0  0  0
   11.6716  -15.4475   -9.9499 O   0  0  0  0  0  0  0  0  0  0  0  0
   13.1304  -15.5067   -9.9608 C   0  0  0  0  0  0  0  0  0  0  0  0
   13.5533  -16.1455   -8.6597 C   0  0  1  0  0  0  0  0  0  0  0  0
   14.0879  -15.1259   -7.6377 C   0  0  0  0  0  0  0  0  0  0  0  0
   12.3977  -16.8895   -7.9541 C   0  0  1  0  0  0  0  0  0  0  0  0
   12.9045  -18.0572   -7.2981 O   0  0  0  0  0  0  0  0  0  0  0  0
   11.8465  -15.8465   -6.9735 C   0  0  1  0  0  0  0  0  0  0  0  0
   11.1090  -16.4863   -5.9329 O   0  0  0  0  0  0  0  0  0  0  0  0
   13.1091  -15.1442   -6.4333 C   0  0  2  0  0  0  0  0  0  0  0  0
   12.8647  -13.7775   -5.8737 N   0  0  0  0  0  0  0  0  0  0  0  0
   11.7775  -13.0262   -6.2825 C   0  0  0  0  0  0  0  0  0  0  0  0
   11.5365  -11.7689   -5.7317 C   0  0  0  0  0  0  0  0  0  0  0  0
   10.3489  -10.9723   -6.2087 C   0  0  0  0  0  0  0  0  0  0  0  0
    9.4966  -10.6003   -5.3976 O   0  0  0  0  0  0  0  0  0  0  0  0
   10.2825  -10.6877   -7.4976 N   0  0  0  0  0  0  0  0  0  0  0  0
   12.3789  -11.2808   -4.7355 C   0  0  0  0  0  0  0  0  0  0  0  0
   13.4518  -12.0438   -4.3443 C   0  0  0  0  0  0  0  0  0  0  0  0
   13.6869  -13.2570   -4.9420 C   0  0  0  0  0  0  0  0  0  0  0  0
    8.6269  -15.8095  -12.5846 H   0  0  0  0  0  0  0  0  0  0  0  0
    6.9430  -16.3264  -12.7940 H   0  0  0  0  0  0  0  0  0  0  0  0
    6.2214  -14.3031  -13.3825 H   0  0  0  0  0  0  0  0  0  0  0  0
    8.4370  -15.0139  -14.9836 H   0  0  0  0  0  0  0  0  0  0  0  0
    6.2917  -13.2074  -14.9708 H   0  0  0  0  0  0  0  0  0  0  0  0
   10.0510  -13.5002  -13.8642 H   0  0  0  0  0  0  0  0  0  0  0  0
   10.0891  -11.5873  -15.1112 H   0  0  0  0  0  0  0  0  0  0  0  0
    7.7038  -11.5102  -13.8630 H   0  0  0  0  0  0  0  0  0  0  0  0
    8.7387  -11.8665  -10.4238 H   0  0  0  0  0  0  0  0  0  0  0  0
   12.5653   -7.0472  -11.3991 H   0  0  0  0  0  0  0  0  0  0  0  0
   11.8215   -8.1001  -10.1658 H   0  0  0  0  0  0  0  0  0  0  0  0
   11.1949   -8.6099  -15.3851 H   0  0  0  0  0  0  0  0  0  0  0  0
   13.4780  -16.1128  -10.8104 H   0  0  0  0  0  0  0  0  0  0  0  0
   13.5644  -14.5013  -10.0651 H   0  0  0  0  0  0  0  0  0  0  0  0
   14.3449  -16.8476   -8.9607 H   0  0  0  0  0  0  0  0  0  0  0  0
   15.0979  -15.4125   -7.3094 H   0  0  0  0  0  0  0  0  0  0  0  0
   14.1522  -14.1205   -8.0793 H   0  0  0  0  0  0  0  0  0  0  0  0
   11.6123  -17.2555   -8.6318 H   0  0  0  0  0  0  0  0  0  0  0  0
   12.8510  -17.9340   -6.3172 H   0  0  0  0  0  0  0  0  0  0  0  0
   11.1481  -15.1353   -7.4387 H   0  0  0  0  0  0  0  0  0  0  0  0
   11.4526  -16.1883   -5.0535 H   0  0  0  0  0  0  0  0  0  0  0  0
   13.5141  -15.6857   -5.5656 H   0  0  0  0  0  0  0  0  0  0  0  0
   11.0970  -13.4248   -7.0493 H   0  0  0  0  0  0  0  0  0  0  0  0
    9.4876  -10.1454   -7.8650 H   0  0  0  0  0  0  0  0  0  0  0  0
   11.0256  -11.0083   -8.1347 H   0  0  0  0  0  0  0  0  0  0  0  0
   12.1883  -10.3023   -4.2707 H   0  0  0  0  0  0  0  0  0  0  0  0
   14.1232  -11.6824   -3.5514 H   0  0  0  0  0  0  0  0  0  0  0  0
   14.5813  -13.8262   -4.6488 H   0  0  0  0  0  0  0  0  0  0  0  0
  1  2  1  6
  1  3  2  0
  1  4  1  0
  1 23  1  0
  4  5  1  0
  6  5  1  0
  6  7  1  0
  6  8  1  0
  7 12  1  0
  8  9  1  0
  8 10  1  0
 10 11  1  0
 10 12  1  0
 12 13  1  0
 13 14  1  0
 13 22  1  0
 14 15  2  0
 15 16  1  0
 16 17  2  0
 16 22  1  0
 17 18  1  0
 17 19  1  0
 19 20  2  0
 20 21  1  0
 21 22  2  0
 23 24  1  0
 24 25  2  0
 24 26  1  1
 24 27  1  0
 27 28  1  0
 29 28  1  0
 29 30  1  0
 29 31  1  0
 30 35  1  0
 31 32  1  0
 31 33  1  0
 33 34  1  0
 33 35  1  0
 35 36  1  0
 36 37  2  0
 36 44  1  0
 37 38  1  0
 38 39  1  0
 38 42  2  0
 39 40  2  0
 39 41  1  0
 42 43  1  0
 43 44  2  0
  5 45  1  0
  5 46  1  0
  6 47  1  6
  8 48  1  6
  9 49  1  0
 10 50  1  1
 11 51  1  0
 12 52  1  6
 14 53  1  0
 18 54  1  0
 18 55  1  0
 20 56  1  0
 28 57  1  0
 28 58  1  0
 29 59  1  6
 30 60  1  0
 30 61  1  0
 31 62  1  6
 32 63  1  0
 33 64  1  6
 34 65  1  0
 35 66  1  1
 37 67  1  0
 41 68  1  0
 41 69  1  0
 42 70  1  0
 43 71  1  0
 44 72  1  0
M  CHG  3   2  -1  26  -1  36   1
M  END
>  <filename_input>  (23) 
7OMX_CNA_docked.sdf

>  <pdb_id>  (23) 
7OMX_CNA

>  <pose_rank>  (23) 
22

>  <num_atoms_heavy>  (23) 
44

>  <num_torsions>  (23) 
11

>  <pose>  (23) 
[8.364106310981255, -15.609081700464985, -9.94298665162289, -0.7575997525479221, -2.5484688516229426, 0.16651178820195173, 2.8658696421419005, 1.4517418302124119, -2.0018806999831527, -1.4523737729837445, -0.8467367630423804, 1.409565385772223, 2.230094109100996, -1.5951731271593226, -0.908371726129998, 0.6116607707747498, -1.326734094180904]

>  <energy>  (23) 
-690.375849906863

>  <inter_energy>  (23) 
-777.7717995270598

>  <intra_energy>  (23) 
80.6282062104215

>  <rmsd>  (23) 
8.83749

>  <sdf_rank>  (23) 
0

$$$$

     RDKit          3D

 72 76  0  0  0  0  0  0  0  0999 V2000
   10.3350  -12.0777   -6.0517 P   0  0  2  0  0  0  0  0  0  0  0  0
    9.5430  -13.2901   -6.4696 O   0  0  0  0  0  0  0  0  0  0  0  0
    9.6398  -10.9945   -5.3034 O   0  0  0  0  0  0  0  0  0  0  0  0
   10.9489  -11.5090   -7.3710 O   0  0  0  0  0  0  0  0  0  0  0  0
   10.0945  -11.0343   -8.4437 C   0  0  0  0  0  0  0  0  0  0  0  0
   10.9620  -10.9292   -9.6578 C   0  0  1  0  0  0  0  0  0  0  0  0
   10.8239  -12.1042  -10.4928 O   0  0  0  0  0  0  0  0  0  0  0  0
   10.6910   -9.7288  -10.5806 C   0  0  1  0  0  0  0  0  0  0  0  0
   11.9552   -9.1900  -10.9355 O   0  0  0  0  0  0  0  0  0  0  0  0
    9.9746  -10.3708  -11.7717 C   0  0  1  0  0  0  0  0  0  0  0  0
   10.0743   -9.6193  -12.9595 O   0  0  0  0  0  0  0  0  0  0  0  0
   10.7412  -11.6822  -11.8349 C   0  0  2  0  0  0  0  0  0  0  0  0
   10.1216  -12.7445  -12.6185 N   0  0  0  0  0  0  0  0  0  0  0  0
   10.6680  -13.5253  -13.6026 C   0  0  0  0  0  0  0  0  0  0  0  0
    9.8105  -14.3401  -14.1659 N   0  0  0  0  0  0  0  0  0  0  0  0
    8.6119  -14.0703  -13.5241 C   0  0  0  0  0  0  0  0  0  0  0  0
    7.3245  -14.6144  -13.6571 C   0  0  0  0  0  0  0  0  0  0  0  0
    7.0202  -15.6115  -14.4905 N   0  0  0  0  0  0  0  0  0  0  0  0
    6.3507  -14.0756  -12.8921 N   0  0  0  0  0  0  0  0  0  0  0  0
    6.6869  -13.1425  -11.9993 C   0  0  0  0  0  0  0  0  0  0  0  0
    7.8546  -12.5463  -11.7916 N   0  0  0  0  0  0  0  0  0  0  0  0
    8.7919  -13.0735  -12.5870 C   0  0  0  0  0  0  0  0  0  0  0  0
   11.5539  -12.5889   -5.1492 O   0  0  0  0  0  0  0  0  0  0  0  0
   13.1302  -12.7798   -5.2515 P   0  0  1  0  0  0  0  0  0  0  0  0
   13.7126  -11.6183   -5.9679 O   0  0  0  0  0  0  0  0  0  0  0  0
   13.5868  -13.1637   -3.8741 O   0  0  0  0  0  0  0  0  0  0  0  0
   13.2153  -14.1245   -6.1027 O   0  0  0  0  0  0  0  0  0  0  0  0
   12.4213  -15.2900   -5.7245 C   0  0  0  0  0  0  0  0  0  0  0  0
   12.3156  -16.1653   -6.9502 C   0  0  1  0  0  0  0  0  0  0  0  0
   11.5214  -17.4593   -6.6956 C   0  0  0  0  0  0  0  0  0  0  0  0
   11.6125  -15.4599   -8.1313 C   0  0  1  0  0  0  0  0  0  0  0  0
   12.2078  -15.8756   -9.3656 O   0  0  0  0  0  0  0  0  0  0  0  0
   10.1507  -15.9045   -7.9948 C   0  0  1  0  0  0  0  0  0  0  0  0
    9.4655  -15.7413   -9.2359 O   0  0  0  0  0  0  0  0  0  0  0  0
   10.2528  -17.3885   -7.5869 C   0  0  2  0  0  0  0  0  0  0  0  0
    9.0376  -17.9248   -6.8965 N   0  0  0  0  0  0  0  0  0  0  0  0
    8.0210  -18.5289   -7.6141 C   0  0  0  0  0  0  0  0  0  0  0  0
    6.9087  -19.0571   -6.9614 C   0  0  0  0  0  0  0  0  0  0  0  0
    5.8139  -19.6983   -7.7755 C   0  0  0  0  0  0  0  0  0  0  0  0
    5.7571  -19.4952   -8.9912 O   0  0  0  0  0  0  0  0  0  0  0  0
    4.9577  -20.4790   -7.1397 N   0  0  0  0  0  0  0  0  0  0  0  0
    6.8381  -19.0067   -5.5712 C   0  0  0  0  0  0  0  0  0  0  0  0
    7.8590  -18.4030   -4.8787 C   0  0  0  0  0  0  0  0  0  0  0  0
    8.9170  -17.8505   -5.5567 C   0  0  0  0  0  0  0  0  0  0  0  0
    9.2755  -11.7468   -8.6216 H   0  0  0  0  0  0  0  0  0  0  0  0
    9.6399  -10.0647   -8.1927 H   0  0  0  0  0  0  0  0  0  0  0  0
   11.9670  -10.8097   -9.2270 H   0  0  0  0  0  0  0  0  0  0  0  0
   10.0931   -8.9102  -10.1533 H   0  0  0  0  0  0  0  0  0  0  0  0
   12.4638   -8.9732  -10.1142 H   0  0  0  0  0  0  0  0  0  0  0  0
    8.8844  -10.4650  -11.6603 H   0  0  0  0  0  0  0  0  0  0  0  0
   10.2010   -8.6633  -12.7355 H   0  0  0  0  0  0  0  0  0  0  0  0
   11.7019  -11.4997  -12.3387 H   0  0  0  0  0  0  0  0  0  0  0  0
   11.7277  -13.4730  -13.8927 H   0  0  0  0  0  0  0  0  0  0  0  0
    6.0540  -15.9649  -14.5396 H   0  0  0  0  0  0  0  0  0  0  0  0
    7.7516  -16.0276  -15.0845 H   0  0  0  0  0  0  0  0  0  0  0  0
    5.8728  -12.8182  -11.3344 H   0  0  0  0  0  0  0  0  0  0  0  0
   12.9179  -15.8379   -4.9101 H   0  0  0  0  0  0  0  0  0  0  0  0
   11.4250  -14.9889   -5.3686 H   0  0  0  0  0  0  0  0  0  0  0  0
   13.3630  -16.3929   -7.1976 H   0  0  0  0  0  0  0  0  0  0  0  0
   12.1276  -18.3357   -6.9683 H   0  0  0  0  0  0  0  0  0  0  0  0
   11.2529  -17.5554   -5.6332 H   0  0  0  0  0  0  0  0  0  0  0  0
   11.6995  -14.3633   -8.1224 H   0  0  0  0  0  0  0  0  0  0  0  0
   13.0046  -16.4321   -9.1768 H   0  0  0  0  0  0  0  0  0  0  0  0
    9.5812  -15.3150   -7.2612 H   0  0  0  0  0  0  0  0  0  0  0  0
    8.5174  -15.5154   -9.0622 H   0  0  0  0  0  0  0  0  0  0  0  0
   10.3225  -18.0323   -8.4761 H   0  0  0  0  0  0  0  0  0  0  0  0
    8.0911  -18.5929   -8.7100 H   0  0  0  0  0  0  0  0  0  0  0  0
    4.1946  -20.9366   -7.6586 H   0  0  0  0  0  0  0  0  0  0  0  0
    5.0535  -20.6299   -6.1253 H   0  0  0  0  0  0  0  0  0  0  0  0
    5.9804  -19.4425   -5.0378 H   0  0  0  0  0  0  0  0  0  0  0  0
    7.8288  -18.3622   -3.7798 H   0  0  0  0  0  0  0  0  0  0  0  0
    9.6965  -17.3269   -4.9839 H   0  0  0  0  0  0  0  0  0  0  0  0
  1  2  1  6
  1  3  2  0
  1  4  1  0
  1 23  1  0
  4  5  1  0
  6  5  1  0
  6  7  1  0
  6  8  1  0
  7 12  1  0
  8  9  1  0
  8 10  1  0
 10 11  1  0
 10 12  1  0
 12 13  1  0
 13 14  1  0
 13 22  1  0
 14 15  2  0
 15 16  1  0
 16 17  2  0
 16 22  1  0
 17 18  1  0
 17 19  1  0
 19 20  2  0
 20 21  1  0
 21 22  2  0
 23 24  1  0
 24 25  2  0
 24 26  1  1
 24 27  1  0
 27 28  1  0
 29 28  1  0
 29 30  1  0
 29 31  1  0
 30 35  1  0
 31 32  1  0
 31 33  1  0
 33 34  1  0
 33 35  1  0
 35 36  1  0
 36 37  2  0
 36 44  1  0
 37 38  1  0
 38 39  1  0
 38 42  2  0
 39 40  2  0
 39 41  1  0
 42 43  1  0
 43 44  2  0
  5 45  1  0
  5 46  1  0
  6 47  1  1
  8 48  1  1
  9 49  1  0
 10 50  1  1
 11 51  1  0
 12 52  1  6
 14 53  1  0
 18 54  1  0
 18 55  1  0
 20 56  1  0
 28 57  1  0
 28 58  1  0
 29 59  1  6
 30 60  1  0
 30 61  1  0
 31 62  1  1
 32 63  1  0
 33 64  1  1
 34 65  1  0
 35 66  1  6
 37 67  1  0
 41 68  1  0
 41 69  1  0
 42 70  1  0
 43 71  1  0
 44 72  1  0
M  CHG  3   2  -1  26  -1  36   1
M  END
>  <filename_input>  (24) 
7OMX_CNA_docked.sdf

>  <pdb_id>  (24) 
7OMX_CNA

>  <pose_rank>  (24) 
23

>  <num_atoms_heavy>  (24) 
44

>  <num_torsions>  (24) 
11

>  <pose>  (24) 
[10.335007099874288, -12.077662635909915, -6.051710595717501, -2.551991310280344, -1.9961682669952345, -0.40605789979224993, 4.445187086702055, -5.399949967235069, -0.9136679864464411, -3.3483903321684214, 0.807727011655121, 0.88128144500727, -1.9949977411018092, -1.1314930059604436, 4.015541206667879, 2.636407120213837, 2.5361880701733526]

>  <energy>  (24) 
-615.9109882411553

>  <inter_energy>  (24) 
-635.9328624159346

>  <intra_energy>  (24) 
27.049636283036357

>  <rmsd>  (24) 
9.7336

>  <sdf_rank>  (24) 
0

$$$$

     RDKit          3D

 72 76  0  0  0  0  0  0  0  0999 V2000
    9.8878  -16.6798   -7.5800 P   0  0  2  0  0  0  0  0  0  0  0  0
   11.2267  -17.3717   -7.5541 O   0  0  0  0  0  0  0  0  0  0  0  0
    9.2650  -16.2825   -6.2874 O   0  0  0  0  0  0  0  0  0  0  0  0
    8.9377  -17.6451   -8.3585 O   0  0  0  0  0  0  0  0  0  0  0  0
    7.4965  -17.5313   -8.2315 C   0  0  0  0  0  0  0  0  0  0  0  0
    6.9327  -18.8590   -8.6276 C   0  0  1  0  0  0  0  0  0  0  0  0
    7.1105  -19.8307   -7.5688 O   0  0  0  0  0  0  0  0  0  0  0  0
    5.4325  -18.8827   -8.9664 C   0  0  1  0  0  0  0  0  0  0  0  0
    5.2894  -19.6642  -10.1425 O   0  0  0  0  0  0  0  0  0  0  0  0
    4.8173  -19.5583   -7.7379 C   0  0  1  0  0  0  0  0  0  0  0  0
    3.5708  -20.1633   -7.9940 O   0  0  0  0  0  0  0  0  0  0  0  0
    5.9156  -20.5674   -7.4433 C   0  0  2  0  0  0  0  0  0  0  0  0
    5.8821  -21.1761   -6.1186 N   0  0  0  0  0  0  0  0  0  0  0  0
    5.5905  -22.4674   -5.7666 C   0  0  0  0  0  0  0  0  0  0  0  0
    5.5721  -22.6695   -4.4722 N   0  0  0  0  0  0  0  0  0  0  0  0
    5.8542  -21.4258   -3.9291 C   0  0  0  0  0  0  0  0  0  0  0  0
    5.9938  -20.9819   -2.6045 C   0  0  0  0  0  0  0  0  0  0  0  0
    5.9006  -21.7795   -1.5383 N   0  0  0  0  0  0  0  0  0  0  0  0
    6.2281  -19.6645   -2.4224 N   0  0  0  0  0  0  0  0  0  0  0  0
    6.4090  -18.8964   -3.4986 C   0  0  0  0  0  0  0  0  0  0  0  0
    6.2910  -19.1961   -4.7863 N   0  0  0  0  0  0  0  0  0  0  0  0
    6.0232  -20.4979   -4.9363 C   0  0  0  0  0  0  0  0  0  0  0  0
   10.0475  -15.3594   -8.4703 O   0  0  0  0  0  0  0  0  0  0  0  0
   10.8884  -14.8438   -9.7187 P   0  0  1  0  0  0  0  0  0  0  0  0
   11.8344  -15.9076  -10.1372 O   0  0  0  0  0  0  0  0  0  0  0  0
    9.8882  -14.2607  -10.6740 O   0  0  0  0  0  0  0  0  0  0  0  0
   11.6309  -13.5857   -9.0819 O   0  0  0  0  0  0  0  0  0  0  0  0
   12.7683  -13.7743   -8.1860 C   0  0  0  0  0  0  0  0  0  0  0  0
   12.2178  -13.8156   -6.7807 C   0  0  1  0  0  0  0  0  0  0  0  0
   13.1347  -14.5689   -5.8000 C   0  0  0  0  0  0  0  0  0  0  0  0
   12.0123  -12.4088   -6.1761 C   0  0  1  0  0  0  0  0  0  0  0  0
   10.8490  -12.4072   -5.3411 O   0  0  0  0  0  0  0  0  0  0  0  0
   13.3085  -12.1630   -5.3933 C   0  0  1  0  0  0  0  0  0  0  0  0
   13.1081  -11.1487   -4.4096 O   0  0  0  0  0  0  0  0  0  0  0  0
   13.6173  -13.5311   -4.7516 C   0  0  2  0  0  0  0  0  0  0  0  0
   15.0522  -13.7261   -4.3720 N   0  0  0  0  0  0  0  0  0  0  0  0
   15.4051  -14.0667   -3.0786 C   0  0  0  0  0  0  0  0  0  0  0  0
   16.7400  -14.2808   -2.7404 C   0  0  0  0  0  0  0  0  0  0  0  0
   17.0903  -14.6394   -1.3186 C   0  0  0  0  0  0  0  0  0  0  0  0
   16.2542  -14.4826   -0.4249 O   0  0  0  0  0  0  0  0  0  0  0  0
   18.2957  -15.1319   -1.0925 N   0  0  0  0  0  0  0  0  0  0  0  0
   17.7229  -14.1849   -3.7227 C   0  0  0  0  0  0  0  0  0  0  0  0
   17.3500  -13.8463   -5.0005 C   0  0  0  0  0  0  0  0  0  0  0  0
   16.0314  -13.5955   -5.2880 C   0  0  0  0  0  0  0  0  0  0  0  0
    7.2233  -17.2966   -7.1921 H   0  0  0  0  0  0  0  0  0  0  0  0
    7.1021  -16.7245   -8.8667 H   0  0  0  0  0  0  0  0  0  0  0  0
    7.4942  -19.0965   -9.5432 H   0  0  0  0  0  0  0  0  0  0  0  0
    4.9607  -17.9080   -9.1601 H   0  0  0  0  0  0  0  0  0  0  0  0
    5.1168  -20.6067   -9.8935 H   0  0  0  0  0  0  0  0  0  0  0  0
    4.5669  -18.8768   -6.9116 H   0  0  0  0  0  0  0  0  0  0  0  0
    3.1262  -20.3791   -7.1362 H   0  0  0  0  0  0  0  0  0  0  0  0
    5.8026  -21.4162   -8.1338 H   0  0  0  0  0  0  0  0  0  0  0  0
    5.3905  -23.2606   -6.5020 H   0  0  0  0  0  0  0  0  0  0  0  0
    6.0134  -21.3893   -0.5918 H   0  0  0  0  0  0  0  0  0  0  0  0
    5.7159  -22.7852   -1.6621 H   0  0  0  0  0  0  0  0  0  0  0  0
    6.7002  -17.8571   -3.2863 H   0  0  0  0  0  0  0  0  0  0  0  0
   13.2810  -14.7191   -8.4193 H   0  0  0  0  0  0  0  0  0  0  0  0
   13.4980  -12.9590   -8.2992 H   0  0  0  0  0  0  0  0  0  0  0  0
   11.2559  -14.3372   -6.8941 H   0  0  0  0  0  0  0  0  0  0  0  0
   12.5767  -15.3769   -5.3042 H   0  0  0  0  0  0  0  0  0  0  0  0
   13.9866  -15.0244   -6.3262 H   0  0  0  0  0  0  0  0  0  0  0  0
   11.8373  -11.6163   -6.9187 H   0  0  0  0  0  0  0  0  0  0  0  0
   11.1251  -12.4075   -4.3904 H   0  0  0  0  0  0  0  0  0  0  0  0
   14.1381  -11.8073   -6.0220 H   0  0  0  0  0  0  0  0  0  0  0  0
   13.1865  -11.5454   -3.5059 H   0  0  0  0  0  0  0  0  0  0  0  0
   13.1015  -13.6328   -3.7854 H   0  0  0  0  0  0  0  0  0  0  0  0
   14.6250  -14.1694   -2.3099 H   0  0  0  0  0  0  0  0  0  0  0  0
   18.5753  -15.3900   -0.1353 H   0  0  0  0  0  0  0  0  0  0  0  0
   18.9554  -15.2578   -1.8733 H   0  0  0  0  0  0  0  0  0  0  0  0
   18.7784  -14.3769   -3.4796 H   0  0  0  0  0  0  0  0  0  0  0  0
   18.1085  -13.7761   -5.7940 H   0  0  0  0  0  0  0  0  0  0  0  0
   15.7639  -13.2754   -6.3058 H   0  0  0  0  0  0  0  0  0  0  0  0
  1  2  1  1
  1  3  2  0
  1  4  1  0
  1 23  1  0
  4  5  1  0
  6  5  1  0
  6  7  1  0
  6  8  1  0
  7 12  1  0
  8  9  1  0
  8 10  1  0
 10 11  1  0
 10 12  1  0
 12 13  1  0
 13 14  1  0
 13 22  1  0
 14 15  2  0
 15 16  1  0
 16 17  2  0
 16 22  1  0
 17 18  1  0
 17 19  1  0
 19 20  2  0
 20 21  1  0
 21 22  2  0
 23 24  1  0
 24 25  2  0
 24 26  1  6
 24 27  1  0
 27 28  1  0
 29 28  1  0
 29 30  1  0
 29 31  1  0
 30 35  1  0
 31 32  1  0
 31 33  1  0
 33 34  1  0
 33 35  1  0
 35 36  1  0
 36 37  2  0
 36 44  1  0
 37 38  1  0
 38 39  1  0
 38 42  2  0
 39 40  2  0
 39 41  1  0
 42 43  1  0
 43 44  2  0
  5 45  1  0
  5 46  1  0
  6 47  1  6
  8 48  1  6
  9 49  1  0
 10 50  1  1
 11 51  1  0
 12 52  1  6
 14 53  1  0
 18 54  1  0
 18 55  1  0
 20 56  1  0
 28 57  1  0
 28 58  1  0
 29 59  1  6
 30 60  1  0
 30 61  1  0
 31 62  1  6
 32 63  1  0
 33 64  1  6
 34 65  1  0
 35 66  1  1
 37 67  1  0
 41 68  1  0
 41 69  1  0
 42 70  1  0
 43 71  1  0
 44 72  1  0
M  CHG  3   2  -1  26  -1  36   1
M  END
>  <filename_input>  (25) 
7OMX_CNA_docked.sdf

>  <pdb_id>  (25) 
7OMX_CNA

>  <pose_rank>  (25) 
24

>  <num_atoms_heavy>  (25) 
44

>  <num_torsions>  (25) 
11

>  <pose>  (25) 
[9.887815327286566, -16.679798244659434, -7.57995167749183, -0.09128588925726472, -2.5331742553155943, 1.2710033050988632, -0.12121291404165901, 0.994620654788828, 5.001689326400554, -3.683439646141705, -0.5112207854269359, 0.12675114949411131, 0.18519028709653296, 0.7603619565079163, -2.6674008633528747, -3.0672492195318215, -3.718145932468033]

>  <energy>  (25) 
-655.5511022310841

>  <inter_energy>  (25) 
-681.5464216974281

>  <intra_energy>  (25) 
24.346901321709517

>  <rmsd>  (25) 
10.1088

>  <sdf_rank>  (25) 
0

$$$$

     RDKit          3D

 72 76  0  0  0  0  0  0  0  0999 V2000
    9.8940  -15.6110   -8.8490 P   0  0  2  0  0  0  0  0  0  0  0  0
    8.4940  -16.1560   -8.7270 O   0  0  0  0  0  0  0  0  0  0  0  0
   10.8740  -16.3450   -9.6960 O   0  0  0  0  0  0  0  0  0  0  0  0
   10.4260  -15.5040   -7.3840 O   0  0  0  0  0  0  0  0  0  0  0  0
   11.8340  -15.2720   -7.1200 C   0  0  0  0  0  0  0  0  0  0  0  0
   11.8970  -14.4060   -5.9020 C   0  0  1  0  0  0  0  0  0  0  0  0
   13.1050  -14.6660   -5.1470 O   0  0  0  0  0  0  0  0  0  0  0  0
   11.8800  -12.8880   -6.1500 C   0  0  1  0  0  0  0  0  0  0  0  0
   10.9850  -12.3270   -5.2020 O   0  0  0  0  0  0  0  0  0  0  0  0
   13.3340  -12.4850   -5.8900 C   0  0  1  0  0  0  0  0  0  0  0  0
   13.4880  -11.1280   -5.5430 O   0  0  0  0  0  0  0  0  0  0  0  0
   13.6430  -13.4290   -4.7390 C   0  0  2  0  0  0  0  0  0  0  0  0
   15.0560  -13.6160   -4.4310 N   0  0  0  0  0  0  0  0  0  0  0  0
   16.1230  -13.7090   -5.2850 C   0  0  0  0  0  0  0  0  0  0  0  0
   17.2600  -13.9570   -4.6830 N   0  0  0  0  0  0  0  0  0  0  0  0
   16.9220  -14.0510   -3.3420 C   0  0  0  0  0  0  0  0  0  0  0  0
   17.6870  -14.2840   -2.1880 C   0  0  0  0  0  0  0  0  0  0  0  0
   19.0130  -14.4360   -2.1920 N   0  0  0  0  0  0  0  0  0  0  0  0
   17.0190  -14.3630   -1.0170 N   0  0  0  0  0  0  0  0  0  0  0  0
   15.7070  -14.1190   -1.0160 C   0  0  0  0  0  0  0  0  0  0  0  0
   14.8820  -13.9020   -2.0330 N   0  0  0  0  0  0  0  0  0  0  0  0
   15.5640  -13.8650   -3.1830 C   0  0  0  0  0  0  0  0  0  0  0  0
    9.7800  -14.1190   -9.4170 O   0  0  0  0  0  0  0  0  0  0  0  0
    9.1330  -12.7230   -9.0120 P   0  0  1  0  0  0  0  0  0  0  0  0
    8.2330  -12.9260   -7.8500 O   0  0  0  0  0  0  0  0  0  0  0  0
   10.2690  -11.7430   -8.9650 O   0  0  0  0  0  0  0  0  0  0  0  0
    8.3350  -12.3640  -10.3440 O   0  0  0  0  0  0  0  0  0  0  0  0
    7.2120  -13.1900  -10.7780 C   0  0  0  0  0  0  0  0  0  0  0  0
    7.3700  -13.3990  -12.2650 C   0  0  1  0  0  0  0  0  0  0  0  0
    7.5790  -12.0830  -13.0360 C   0  0  0  0  0  0  0  0  0  0  0  0
    8.5770  -14.2960  -12.6190 C   0  0  1  0  0  0  0  0  0  0  0  0
    8.2610  -15.1030  -13.7590 O   0  0  0  0  0  0  0  0  0  0  0  0
    9.7020  -13.2900  -12.8940 C   0  0  1  0  0  0  0  0  0  0  0  0
   10.7300  -13.8980  -13.6750 O   0  0  0  0  0  0  0  0  0  0  0  0
    8.9990  -12.1500  -13.6590 C   0  0  2  0  0  0  0  0  0  0  0  0
    9.7120  -10.8350  -13.6010 N   0  0  0  0  0  0  0  0  0  0  0  0
    9.9620  -10.2150  -12.3900 C   0  0  0  0  0  0  0  0  0  0  0  0
   10.6570   -9.0080  -12.3410 C   0  0  0  0  0  0  0  0  0  0  0  0
   10.9020   -8.3540  -11.0050 C   0  0  0  0  0  0  0  0  0  0  0  0
   11.1930   -7.1560  -10.9550 O   0  0  0  0  0  0  0  0  0  0  0  0
   10.7740   -9.1050   -9.9250 N   0  0  0  0  0  0  0  0  0  0  0  0
   11.1340   -8.4400  -13.5200 C   0  0  0  0  0  0  0  0  0  0  0  0
   10.8750   -9.0730  -14.7110 C   0  0  0  0  0  0  0  0  0  0  0  0
   10.1460  -10.2360  -14.7270 C   0  0  0  0  0  0  0  0  0  0  0  0
   12.3490  -16.2263   -6.9356 H   0  0  0  0  0  0  0  0  0  0  0  0
   12.3271  -14.7912   -7.9777 H   0  0  0  0  0  0  0  0  0  0  0  0
   10.9750  -14.6756   -5.3660 H   0  0  0  0  0  0  0  0  0  0  0  0
   11.5505  -12.5603   -7.1470 H   0  0  0  0  0  0  0  0  0  0  0  0
   11.3051  -12.5277   -4.2869 H   0  0  0  0  0  0  0  0  0  0  0  0
   14.0001  -12.5675   -6.7615 H   0  0  0  0  0  0  0  0  0  0  0  0
   13.4981  -11.0386   -4.5571 H   0  0  0  0  0  0  0  0  0  0  0  0
   13.2192  -13.0040   -3.8171 H   0  0  0  0  0  0  0  0  0  0  0  0
   16.0336  -13.5869   -6.3745 H   0  0  0  0  0  0  0  0  0  0  0  0
   19.5147  -14.6047   -1.3084 H   0  0  0  0  0  0  0  0  0  0  0  0
   19.5346  -14.3846   -3.0787 H   0  0  0  0  0  0  0  0  0  0  0  0
   15.2380  -14.0939   -0.0213 H   0  0  0  0  0  0  0  0  0  0  0  0
    7.2305  -14.1580  -10.2559 H   0  0  0  0  0  0  0  0  0  0  0  0
    6.2530  -12.7025  -10.5487 H   0  0  0  0  0  0  0  0  0  0  0  0
    6.4255  -13.8787  -12.5613 H   0  0  0  0  0  0  0  0  0  0  0  0
    6.8221  -11.9836  -13.8280 H   0  0  0  0  0  0  0  0  0  0  0  0
    7.4810  -11.2142  -12.3685 H   0  0  0  0  0  0  0  0  0  0  0  0
    8.8611  -15.0076  -11.8298 H   0  0  0  0  0  0  0  0  0  0  0  0
    7.9172  -15.9808  -13.4568 H   0  0  0  0  0  0  0  0  0  0  0  0
   10.1973  -12.9278  -11.9810 H   0  0  0  0  0  0  0  0  0  0  0  0
   11.4074  -14.2986  -13.0744 H   0  0  0  0  0  0  0  0  0  0  0  0
    8.9792  -12.3604  -14.7385 H   0  0  0  0  0  0  0  0  0  0  0  0
    9.6090  -10.6789  -11.4571 H   0  0  0  0  0  0  0  0  0  0  0  0
   10.9326   -8.6973   -8.9925 H   0  0  0  0  0  0  0  0  0  0  0  0
   10.5157  -10.0979  -10.0158 H   0  0  0  0  0  0  0  0  0  0  0  0
   11.7076   -7.5017  -13.4976 H   0  0  0  0  0  0  0  0  0  0  0  0
   11.2520   -8.6477  -15.6528 H   0  0  0  0  0  0  0  0  0  0  0  0
    9.9069  -10.6968  -15.6968 H   0  0  0  0  0  0  0  0  0  0  0  0
  1  2  1  1
  1  3  2  0
  1  4  1  0
  1 23  1  0
  4  5  1  0
  6  5  1  0
  6  7  1  0
  6  8  1  0
  7 12  1  0
  8  9  1  0
  8 10  1  0
 10 11  1  0
 10 12  1  0
 12 13  1  0
 13 14  1  0
 13 22  1  0
 14 15  2  0
 15 16  1  0
 16 17  2  0
 16 22  1  0
 17 18  1  0
 17 19  1  0
 19 20  2  0
 20 21  1  0
 21 22  2  0
 23 24  1  0
 24 25  2  0
 24 26  1  1
 24 27  1  0
 27 28  1  0
 29 28  1  0
 29 30  1  0
 29 31  1  0
 30 35  1  0
 31 32  1  0
 31 33  1  0
 33 34  1  0
 33 35  1  0
 35 36  1  0
 36 37  2  0
 36 44  1  0
 37 38  1  0
 38 39  1  0
 38 42  2  0
 39 40  2  0
 39 41  1  0
 42 43  1  0
 43 44  2  0
  5 45  1  0
  5 46  1  0
  6 47  1  1
  8 48  1  6
  9 49  1  0
 10 50  1  6
 11 51  1  0
 12 52  1  1
 14 53  1  0
 18 54  1  0
 18 55  1  0
 20 56  1  0
 28 57  1  0
 28 58  1  0
 29 59  1  6
 30 60  1  0
 30 61  1  0
 31 62  1  1
 32 63  1  0
 33 64  1  1
 34 65  1  0
 35 66  1  6
 37 67  1  0
 41 68  1  0
 41 69  1  0
 42 70  1  0
 43 71  1  0
 44 72  1  0
M  CHG  3   2  -1  26  -1  36   1
M  END
>  <filename_input>  (26) 
7OMX_CNA_docked.sdf

>  <pdb_id>  (26) 
7OMX_CNA

>  <pose_rank>  (26) 
25

>  <num_atoms_heavy>  (26) 
44

>  <num_torsions>  (26) 
11

>  <pose>  (26) 
[9.894, -15.611, -8.849, 1e-06, 1e-06, 1e-06, 0.0, 0.0, 0.0, 0.0, 0.0, 0.0, 0.0, 0.0, 0.0, 0.0, 0.0]

>  <energy>  (26) 
-1160.3798917614636

>  <inter_energy>  (26) 
-1191.8790817677532

>  <intra_energy>  (26) 
26.665710808638906

>  <rmsd>  (26) 
0.0

>  <sdf_rank>  (26) 
0

$$$$
