
     RDKit          3D

 13 14  0  0  0  0  0  0  0  0999 V2000
  -83.1034  -29.4613  -33.6028 C   0  0  0  0  0  0  0  0  0  0  0  0
  -84.7610  -28.1156  -32.7454 C   0  0  0  0  0  0  0  0  0  0  0  0
  -85.0285  -27.6758  -34.0119 C   0  0  0  0  0  0  0  0  0  0  0  0
  -84.2572  -28.1975  -35.0725 C   0  0  0  0  0  0  0  0  0  0  0  0
  -86.3626  -26.6639  -32.6483 C   0  0  0  0  0  0  0  0  0  0  0  0
  -83.3261  -29.0792  -34.8312 N   0  0  0  0  0  0  0  0  0  0  0  0
  -83.7783  -29.0241  -32.5628 N   0  0  0  0  0  0  0  0  0  0  0  0
  -86.0352  -26.7639  -33.9236 N   0  0  0  0  0  0  0  0  0  0  0  0
  -85.6129  -27.4727  -31.9140 N   0  0  0  0  0  0  0  0  0  0  0  0
  -81.8171  -30.6259  -33.3741 Cl  0  0  0  0  0  0  0  0  0  0  0  0
  -84.5479  -27.7107  -36.7312 Cl  0  0  0  0  0  0  0  0  0  0  0  0
  -87.1469  -26.0025  -32.2516 H   0  0  0  0  0  0  0  0  0  0  0  0
  -86.4622  -26.2479  -34.7061 H   0  0  0  0  0  0  0  0  0  0  0  0
  1  6  2  0
  1  7  1  0
  1 10  1  0
  2  3  1  0
  2  7  2  0
  2  9  1  0
  3  4  2  0
  3  8  1  0
  4  6  1  0
  4 11  1  0
  5  8  1  0
  5  9  2  0
  5 12  1  0
  8 13  1  0
M  END
>  <filename_input>  (1) 
7OP9_06K_docked.sdf

>  <pdb_id>  (1) 
7OP9_06K

>  <pose_rank>  (1) 
0

>  <num_atoms_heavy>  (1) 
11

>  <num_torsions>  (1) 
0

>  <pose>  (1) 
[-83.10343782067612, -29.461305965126364, -33.60278511431123, -0.747889164209345, 1.1458301173279228, -2.775422528444669]

>  <energy>  (1) 
-417.7567764918537

>  <inter_energy>  (1) 
-424.62007877489793

>  <intra_energy>  (1) 
0.0

>  <rmsd>  (1) 
3.5322

>  <sdf_rank>  (1) 
0

$$$$

     RDKit          3D

 13 14  0  0  0  0  0  0  0  0999 V2000
  -83.3795  -28.4827  -35.6296 C   0  0  0  0  0  0  0  0  0  0  0  0
  -85.3116  -27.2355  -35.7015 C   0  0  0  0  0  0  0  0  0  0  0  0
  -85.2867  -27.1587  -34.3368 C   0  0  0  0  0  0  0  0  0  0  0  0
  -84.2288  -27.7976  -33.6552 C   0  0  0  0  0  0  0  0  0  0  0  0
  -87.0348  -26.1053  -35.0420 C   0  0  0  0  0  0  0  0  0  0  0  0
  -83.3067  -28.4310  -34.3270 N   0  0  0  0  0  0  0  0  0  0  0  0
  -84.3306  -27.9134  -36.3361 N   0  0  0  0  0  0  0  0  0  0  0  0
  -86.3796  -26.4469  -33.9476 N   0  0  0  0  0  0  0  0  0  0  0  0
  -86.4099  -26.5636  -36.1167 N   0  0  0  0  0  0  0  0  0  0  0  0
  -82.1135  -29.3774  -36.4420 Cl  0  0  0  0  0  0  0  0  0  0  0  0
  -84.1020  -27.7291  -31.9083 Cl  0  0  0  0  0  0  0  0  0  0  0  0
  -87.9675  -25.5225  -35.0590 H   0  0  0  0  0  0  0  0  0  0  0  0
  -86.6461  -26.2175  -32.9795 H   0  0  0  0  0  0  0  0  0  0  0  0
  1  6  2  0
  1  7  1  0
  1 10  1  0
  2  3  1  0
  2  7  2  0
  2  9  1  0
  3  4  2  0
  3  8  1  0
  4  6  1  0
  4 11  1  0
  5  8  1  0
  5  9  2  0
  5 12  1  0
  8 13  1  0
M  END
>  <filename_input>  (2) 
7OP9_06K_docked.sdf

>  <pdb_id>  (2) 
7OP9_06K

>  <pose_rank>  (2) 
1

>  <num_atoms_heavy>  (2) 
11

>  <num_torsions>  (2) 
0

>  <pose>  (2) 
[-83.37949325052031, -28.482674136633957, -35.62955699973358, 1.5902341280765573, 2.073725918609089, 0.14643329187210558]

>  <energy>  (2) 
-516.8352381438327

>  <inter_energy>  (2) 
-494.4965688847055

>  <intra_energy>  (2) 
0.0

>  <rmsd>  (2) 
4.24505

>  <sdf_rank>  (2) 
0

$$$$

     RDKit          3D

 13 14  0  0  0  0  0  0  0  0999 V2000
  -84.9128  -27.2008  -36.2588 C   0  0  0  0  0  0  0  0  0  0  0  0
  -85.7163  -26.8009  -34.1403 C   0  0  0  0  0  0  0  0  0  0  0  0
  -84.7461  -27.6243  -33.6408 C   0  0  0  0  0  0  0  0  0  0  0  0
  -83.8540  -28.2284  -34.5525 C   0  0  0  0  0  0  0  0  0  0  0  0
  -85.9353  -26.9007  -31.9900 C   0  0  0  0  0  0  0  0  0  0  0  0
  -83.9638  -27.9886  -35.8304 N   0  0  0  0  0  0  0  0  0  0  0  0
  -85.7803  -26.6005  -35.4746 N   0  0  0  0  0  0  0  0  0  0  0  0
  -84.9066  -27.6723  -32.2900 N   0  0  0  0  0  0  0  0  0  0  0  0
  -86.4408  -26.3572  -33.0875 N   0  0  0  0  0  0  0  0  0  0  0  0
  -84.9984  -26.9606  -37.9903 Cl  0  0  0  0  0  0  0  0  0  0  0  0
  -82.5631  -29.2775  -33.9995 Cl  0  0  0  0  0  0  0  0  0  0  0  0
  -86.3185  -26.7328  -30.9726 H   0  0  0  0  0  0  0  0  0  0  0  0
  -84.3325  -28.2105  -31.6254 H   0  0  0  0  0  0  0  0  0  0  0  0
  1  6  2  0
  1  7  1  0
  1 10  1  0
  2  3  1  0
  2  7  2  0
  2  9  1  0
  3  4  2  0
  3  8  1  0
  4  6  1  0
  4 11  1  0
  5  8  1  0
  5  9  2  0
  5 12  1  0
  8 13  1  0
M  END
>  <filename_input>  (3) 
7OP9_06K_docked.sdf

>  <pdb_id>  (3) 
7OP9_06K

>  <pose_rank>  (3) 
2

>  <num_atoms_heavy>  (3) 
11

>  <num_torsions>  (3) 
0

>  <pose>  (3) 
[-84.91277525869113, -27.20082617715672, -36.25880113866704, 2.5422595857133437, 2.8440433421507483, 0.308945115774051]

>  <energy>  (3) 
-486.7082512749297

>  <inter_energy>  (3) 
-465.47310580675986

>  <intra_energy>  (3) 
0.0

>  <rmsd>  (3) 
4.19822

>  <sdf_rank>  (3) 
0

$$$$

     RDKit          3D

 13 14  0  0  0  0  0  0  0  0999 V2000
  -83.6530  -28.4610  -33.7701 C   0  0  0  0  0  0  0  0  0  0  0  0
  -85.4015  -26.9697  -33.8815 C   0  0  0  0  0  0  0  0  0  0  0  0
  -85.5089  -27.2294  -35.2194 C   0  0  0  0  0  0  0  0  0  0  0  0
  -84.6130  -28.1593  -35.7890 C   0  0  0  0  0  0  0  0  0  0  0  0
  -86.9999  -25.7585  -34.6938 C   0  0  0  0  0  0  0  0  0  0  0  0
  -83.7208  -28.7493  -35.0417 N   0  0  0  0  0  0  0  0  0  0  0  0
  -84.4508  -27.6088  -33.1658 N   0  0  0  0  0  0  0  0  0  0  0  0
  -86.5170  -26.4552  -35.7062 N   0  0  0  0  0  0  0  0  0  0  0  0
  -86.3488  -26.0527  -33.5781 N   0  0  0  0  0  0  0  0  0  0  0  0
  -82.4073  -29.2812  -32.8544 Cl  0  0  0  0  0  0  0  0  0  0  0  0
  -84.6947  -28.5734  -37.4904 Cl  0  0  0  0  0  0  0  0  0  0  0  0
  -87.8261  -25.0359  -34.7665 H   0  0  0  0  0  0  0  0  0  0  0  0
  -86.8426  -26.4195  -36.6828 H   0  0  0  0  0  0  0  0  0  0  0  0
  1  6  2  0
  1  7  1  0
  1 10  1  0
  2  3  1  0
  2  7  2  0
  2  9  1  0
  3  4  2  0
  3  8  1  0
  4  6  1  0
  4 11  1  0
  5  8  1  0
  5  9  2  0
  5 12  1  0
  8 13  1  0
M  END
>  <filename_input>  (4) 
7OP9_06K_docked.sdf

>  <pdb_id>  (4) 
7OP9_06K

>  <pose_rank>  (4) 
3

>  <num_atoms_heavy>  (4) 
11

>  <num_torsions>  (4) 
0

>  <pose>  (4) 
[-83.65304775189661, -28.46098019802049, -33.77013834498094, 0.5973798274757469, -0.38125025156339415, 3.0534723975670945]

>  <energy>  (4) 
-464.2946307018885

>  <inter_energy>  (4) 
-448.88780169106826

>  <intra_energy>  (4) 
0.0

>  <rmsd>  (4) 
3.45013

>  <sdf_rank>  (4) 
0

$$$$

     RDKit          3D

 13 14  0  0  0  0  0  0  0  0999 V2000
  -85.0134  -27.4393  -32.5190 C   0  0  0  0  0  0  0  0  0  0  0  0
  -85.0293  -27.1969  -34.8069 C   0  0  0  0  0  0  0  0  0  0  0  0
  -84.1167  -28.2107  -34.8985 C   0  0  0  0  0  0  0  0  0  0  0  0
  -83.6787  -28.8195  -33.7030 C   0  0  0  0  0  0  0  0  0  0  0  0
  -84.5409  -27.4998  -36.8929 C   0  0  0  0  0  0  0  0  0  0  0  0
  -84.1492  -28.4174  -32.5543 N   0  0  0  0  0  0  0  0  0  0  0  0
  -85.4708  -26.8231  -33.5863 N   0  0  0  0  0  0  0  0  0  0  0  0
  -83.8247  -28.3796  -36.2172 N   0  0  0  0  0  0  0  0  0  0  0  0
  -85.2818  -26.7754  -36.0674 N   0  0  0  0  0  0  0  0  0  0  0  0
  -85.5670  -26.9507  -30.9322 Cl  0  0  0  0  0  0  0  0  0  0  0  0
  -82.5307  -30.1440  -33.7266 Cl  0  0  0  0  0  0  0  0  0  0  0  0
  -84.5247  -27.3847  -37.9868 H   0  0  0  0  0  0  0  0  0  0  0  0
  -83.1672  -29.0660  -36.6141 H   0  0  0  0  0  0  0  0  0  0  0  0
  1  6  2  0
  1  7  1  0
  1 10  1  0
  2  3  1  0
  2  7  2  0
  2  9  1  0
  3  4  2  0
  3  8  1  0
  4  6  1  0
  4 11  1  0
  5  8  1  0
  5  9  2  0
  5 12  1  0
  8 13  1  0
M  END
>  <filename_input>  (5) 
7OP9_06K_docked.sdf

>  <pdb_id>  (5) 
7OP9_06K

>  <pose_rank>  (5) 
4

>  <num_atoms_heavy>  (5) 
11

>  <num_torsions>  (5) 
0

>  <pose>  (5) 
[-85.01344090235185, -27.43930144101518, -32.51900136067054, -1.1888980486977048, 0.8964604425531557, 2.730075450077627]

>  <energy>  (5) 
-400.7088767493006

>  <inter_energy>  (5) 
-398.2050551079691

>  <intra_energy>  (5) 
0.0

>  <rmsd>  (5) 
2.80215

>  <sdf_rank>  (5) 
0

$$$$

     RDKit          3D

 13 14  0  0  0  0  0  0  0  0999 V2000
  -84.6344  -27.4468  -33.4995 C   0  0  0  0  0  0  0  0  0  0  0  0
  -83.1156  -28.7257  -34.6620 C   0  0  0  0  0  0  0  0  0  0  0  0
  -83.5714  -28.1702  -35.8250 C   0  0  0  0  0  0  0  0  0  0  0  0
  -84.6082  -27.2161  -35.7433 C   0  0  0  0  0  0  0  0  0  0  0  0
  -82.0209  -29.5908  -36.3158 C   0  0  0  0  0  0  0  0  0  0  0  0
  -85.0982  -26.8815  -34.5811 N   0  0  0  0  0  0  0  0  0  0  0  0
  -83.6711  -28.3413  -33.4923 N   0  0  0  0  0  0  0  0  0  0  0  0
  -82.8706  -28.7315  -36.8480 N   0  0  0  0  0  0  0  0  0  0  0  0
  -82.1430  -29.6045  -34.9965 N   0  0  0  0  0  0  0  0  0  0  0  0
  -85.3718  -26.9549  -31.9904 Cl  0  0  0  0  0  0  0  0  0  0  0  0
  -85.2363  -26.4329  -37.1802 Cl  0  0  0  0  0  0  0  0  0  0  0  0
  -81.3119  -30.2081  -36.8870 H   0  0  0  0  0  0  0  0  0  0  0  0
  -82.9822  -28.5244  -37.8507 H   0  0  0  0  0  0  0  0  0  0  0  0
  1  6  2  0
  1  7  1  0
  1 10  1  0
  2  3  1  0
  2  7  2  0
  2  9  1  0
  3  4  2  0
  3  8  1  0
  4  6  1  0
  4 11  1  0
  5  8  1  0
  5  9  2  0
  5 12  1  0
  8 13  1  0
M  END
>  <filename_input>  (6) 
7OP9_06K_docked.sdf

>  <pdb_id>  (6) 
7OP9_06K

>  <pose_rank>  (6) 
5

>  <num_atoms_heavy>  (6) 
11

>  <num_torsions>  (6) 
0

>  <pose>  (6) 
[-84.63441229084196, -27.446816047121793, -33.49949181597052, 0.30290692943525804, -4.792183337718499, -3.9684555932598684]

>  <energy>  (6) 
-444.65232914356835

>  <inter_energy>  (6) 
-400.25611485294314

>  <intra_energy>  (6) 
0.0

>  <rmsd>  (6) 
0.56869

>  <sdf_rank>  (6) 
0

$$$$

     RDKit          3D

 13 14  0  0  0  0  0  0  0  0999 V2000
  -84.6276  -27.4442  -35.5137 C   0  0  0  0  0  0  0  0  0  0  0  0
  -82.8775  -28.7756  -34.8368 C   0  0  0  0  0  0  0  0  0  0  0  0
  -83.2748  -28.6008  -33.5405 C   0  0  0  0  0  0  0  0  0  0  0  0
  -84.4096  -27.7977  -33.2965 C   0  0  0  0  0  0  0  0  0  0  0  0
  -81.5125  -29.8487  -33.5456 C   0  0  0  0  0  0  0  0  0  0  0  0
  -85.0517  -27.2537  -34.2937 N   0  0  0  0  0  0  0  0  0  0  0  0
  -83.5817  -28.1782  -35.8226 N   0  0  0  0  0  0  0  0  0  0  0  0
  -82.4008  -29.2817  -32.7499 N   0  0  0  0  0  0  0  0  0  0  0  0
  -81.7787  -29.5644  -34.8120 N   0  0  0  0  0  0  0  0  0  0  0  0
  -85.5362  -26.6525  -36.7829 Cl  0  0  0  0  0  0  0  0  0  0  0  0
  -85.0062  -27.5401  -31.6686 Cl  0  0  0  0  0  0  0  0  0  0  0  0
  -80.6705  -30.4693  -33.2052 H   0  0  0  0  0  0  0  0  0  0  0  0
  -82.4273  -29.3432  -31.7221 H   0  0  0  0  0  0  0  0  0  0  0  0
  1  6  2  0
  1  7  1  0
  1 10  1  0
  2  3  1  0
  2  7  2  0
  2  9  1  0
  3  4  2  0
  3  8  1  0
  4  6  1  0
  4 11  1  0
  5  8  1  0
  5  9  2  0
  5 12  1  0
  8 13  1  0
M  END
>  <filename_input>  (7) 
7OP9_06K_docked.sdf

>  <pdb_id>  (7) 
7OP9_06K

>  <pose_rank>  (7) 
6

>  <num_atoms_heavy>  (7) 
11

>  <num_torsions>  (7) 
0

>  <pose>  (7) 
[-84.62755333190911, -27.444158350114357, -35.51372473102861, -2.4452080406904484, 2.038198216582495, 0.3186188956528142]

>  <energy>  (7) 
-429.19487430667914

>  <inter_energy>  (7) 
-410.16880833593655

>  <intra_energy>  (7) 
0.0

>  <rmsd>  (7) 
3.00771

>  <sdf_rank>  (7) 
0

$$$$

     RDKit          3D

 13 14  0  0  0  0  0  0  0  0999 V2000
  -84.3073  -28.3028  -32.6086 C   0  0  0  0  0  0  0  0  0  0  0  0
  -82.4467  -29.6385  -32.8268 C   0  0  0  0  0  0  0  0  0  0  0  0
  -82.4102  -29.3322  -34.1586 C   0  0  0  0  0  0  0  0  0  0  0  0
  -83.4002  -28.4646  -34.6676 C   0  0  0  0  0  0  0  0  0  0  0  0
  -80.7844  -30.6876  -33.7311 C   0  0  0  0  0  0  0  0  0  0  0  0
  -84.3102  -27.9732  -33.8720 N   0  0  0  0  0  0  0  0  0  0  0  0
  -83.4202  -29.1022  -32.0592 N   0  0  0  0  0  0  0  0  0  0  0  0
  -81.3600  -30.0049  -34.7039 N   0  0  0  0  0  0  0  0  0  0  0  0
  -81.4164  -30.4813  -32.5851 N   0  0  0  0  0  0  0  0  0  0  0  0
  -85.5823  -27.6165  -31.6255 Cl  0  0  0  0  0  0  0  0  0  0  0  0
  -83.4153  -27.9962  -36.3567 Cl  0  0  0  0  0  0  0  0  0  0  0  0
  -79.9045  -31.3360  -33.8548 H   0  0  0  0  0  0  0  0  0  0  0  0
  -81.0685  -29.9850  -35.6915 H   0  0  0  0  0  0  0  0  0  0  0  0
  1  6  2  0
  1  7  1  0
  1 10  1  0
  2  3  1  0
  2  7  2  0
  2  9  1  0
  3  4  2  0
  3  8  1  0
  4  6  1  0
  4 11  1  0
  5  8  1  0
  5  9  2  0
  5 12  1  0
  8 13  1  0
M  END
>  <filename_input>  (8) 
7OP9_06K_docked.sdf

>  <pdb_id>  (8) 
7OP9_06K

>  <pose_rank>  (8) 
7

>  <num_atoms_heavy>  (8) 
11

>  <num_torsions>  (8) 
0

>  <pose>  (8) 
[-84.30732157579311, -28.302781040217216, -32.60863511467189, -0.19908615548209765, -0.358914625060353, 0.07327498269785997]

>  <energy>  (8) 
-384.0915159978152

>  <inter_energy>  (8) 
-366.7133537350613

>  <intra_energy>  (8) 
0.0

>  <rmsd>  (8) 
2.08904

>  <sdf_rank>  (8) 
0

$$$$

     RDKit          3D

 13 14  0  0  0  0  0  0  0  0999 V2000
  -84.7335  -27.4476  -34.9307 C   0  0  0  0  0  0  0  0  0  0  0  0
  -83.7548  -28.6465  -33.2282 C   0  0  0  0  0  0  0  0  0  0  0  0
  -83.0086  -29.3155  -34.1580 C   0  0  0  0  0  0  0  0  0  0  0  0
  -83.1869  -28.9814  -35.5176 C   0  0  0  0  0  0  0  0  0  0  0  0
  -82.5064  -30.0873  -32.2048 C   0  0  0  0  0  0  0  0  0  0  0  0
  -84.0383  -28.0522  -35.8559 N   0  0  0  0  0  0  0  0  0  0  0  0
  -84.6242  -27.7007  -33.6454 N   0  0  0  0  0  0  0  0  0  0  0  0
  -82.2357  -30.2156  -33.4908 N   0  0  0  0  0  0  0  0  0  0  0  0
  -83.4167  -29.1432  -32.0161 N   0  0  0  0  0  0  0  0  0  0  0  0
  -85.8694  -26.2357  -35.4821 Cl  0  0  0  0  0  0  0  0  0  0  0  0
  -82.2543  -29.7687  -36.7757 Cl  0  0  0  0  0  0  0  0  0  0  0  0
  -82.0419  -30.6804  -31.4033 H   0  0  0  0  0  0  0  0  0  0  0  0
  -81.5645  -30.8743  -33.9109 H   0  0  0  0  0  0  0  0  0  0  0  0
  1  6  2  0
  1  7  1  0
  1 10  1  0
  2  3  1  0
  2  7  2  0
  2  9  1  0
  3  4  2  0
  3  8  1  0
  4  6  1  0
  4 11  1  0
  5  8  1  0
  5  9  2  0
  5 12  1  0
  8 13  1  0
M  END
>  <filename_input>  (9) 
7OP9_06K_docked.sdf

>  <pdb_id>  (9) 
7OP9_06K

>  <pose_rank>  (9) 
8

>  <num_atoms_heavy>  (9) 
11

>  <num_torsions>  (9) 
0

>  <pose>  (9) 
[-84.73347078014639, -27.447639162909507, -34.930709190520616, -0.9708215835749013, -0.9156524535858892, -0.14549934613465149]

>  <energy>  (9) 
-410.80210822924005

>  <inter_energy>  (9) 
-409.27994658413826

>  <intra_energy>  (9) 
0.0

>  <rmsd>  (9) 
2.85462

>  <sdf_rank>  (9) 
0

$$$$

     RDKit          3D

 13 14  0  0  0  0  0  0  0  0999 V2000
  -83.2052  -28.0863  -33.8743 C   0  0  0  0  0  0  0  0  0  0  0  0
  -85.0911  -27.4226  -32.7356 C   0  0  0  0  0  0  0  0  0  0  0  0
  -85.6126  -26.9620  -33.9124 C   0  0  0  0  0  0  0  0  0  0  0  0
  -84.8373  -27.1047  -35.0831 C   0  0  0  0  0  0  0  0  0  0  0  0
  -87.0371  -26.5637  -32.3391 C   0  0  0  0  0  0  0  0  0  0  0  0
  -83.6627  -27.6700  -35.0241 N   0  0  0  0  0  0  0  0  0  0  0  0
  -83.8658  -27.9910  -32.7418 N   0  0  0  0  0  0  0  0  0  0  0  0
  -86.8327  -26.4256  -33.6363 N   0  0  0  0  0  0  0  0  0  0  0  0
  -86.0038  -27.1674  -31.7703 N   0  0  0  0  0  0  0  0  0  0  0  0
  -81.6099  -28.8061  -33.8893 Cl  0  0  0  0  0  0  0  0  0  0  0  0
  -85.4369  -26.5672  -36.6400 Cl  0  0  0  0  0  0  0  0  0  0  0  0
  -87.9378  -26.2255  -31.8060 H   0  0  0  0  0  0  0  0  0  0  0  0
  -87.4768  -25.9924  -34.3134 H   0  0  0  0  0  0  0  0  0  0  0  0
  1  6  2  0
  1  7  1  0
  1 10  1  0
  2  3  1  0
  2  7  2  0
  2  9  1  0
  3  4  2  0
  3  8  1  0
  4  6  1  0
  4 11  1  0
  5  8  1  0
  5  9  2  0
  5 12  1  0
  8 13  1  0
M  END
>  <filename_input>  (10) 
7OP9_06K_docked.sdf

>  <pdb_id>  (10) 
7OP9_06K

>  <pose_rank>  (10) 
9

>  <num_atoms_heavy>  (10) 
11

>  <num_torsions>  (10) 
0

>  <pose>  (10) 
[-83.2051732050492, -28.086321538006175, -33.874267108453104, -0.9555075610640817, 1.0868939239467448, -2.4179275823292747]

>  <energy>  (10) 
-381.83426801450287

>  <inter_energy>  (10) 
-378.5011758703498

>  <intra_energy>  (10) 
0.0

>  <rmsd>  (10) 
3.63986

>  <sdf_rank>  (10) 
0

$$$$

     RDKit          3D

 13 14  0  0  0  0  0  0  0  0999 V2000
  -83.4948  -28.4981  -33.3630 C   0  0  0  0  0  0  0  0  0  0  0  0
  -84.6949  -29.2952  -31.5691 C   0  0  0  0  0  0  0  0  0  0  0  0
  -85.6295  -28.3223  -31.7903 C   0  0  0  0  0  0  0  0  0  0  0  0
  -85.4200  -27.4328  -32.8658 C   0  0  0  0  0  0  0  0  0  0  0  0
  -86.2461  -29.4747  -30.0713 C   0  0  0  0  0  0  0  0  0  0  0  0
  -84.3627  -27.5572  -33.6203 N   0  0  0  0  0  0  0  0  0  0  0  0
  -83.6188  -29.3649  -32.3826 N   0  0  0  0  0  0  0  0  0  0  0  0
  -86.5908  -28.4547  -30.8358 N   0  0  0  0  0  0  0  0  0  0  0  0
  -85.1078  -30.0049  -30.4940 N   0  0  0  0  0  0  0  0  0  0  0  0
  -82.0954  -28.5699  -34.4117 Cl  0  0  0  0  0  0  0  0  0  0  0  0
  -86.5786  -26.1717  -33.2396 Cl  0  0  0  0  0  0  0  0  0  0  0  0
  -86.8225  -29.8335  -29.2059 H   0  0  0  0  0  0  0  0  0  0  0  0
  -87.4308  -27.8683  -30.7295 H   0  0  0  0  0  0  0  0  0  0  0  0
  1  6  2  0
  1  7  1  0
  1 10  1  0
  2  3  1  0
  2  7  2  0
  2  9  1  0
  3  4  2  0
  3  8  1  0
  4  6  1  0
  4 11  1  0
  5  8  1  0
  5  9  2  0
  5 12  1  0
  8 13  1  0
M  END
>  <filename_input>  (11) 
7OP9_06K_docked.sdf

>  <pdb_id>  (11) 
7OP9_06K

>  <pose_rank>  (11) 
10

>  <num_atoms_heavy>  (11) 
11

>  <num_torsions>  (11) 
0

>  <pose>  (11) 
[-83.49477130627353, -28.498069444728657, -33.36297748268718, -1.1872630904637242, 1.8686109363851042, -1.45765927169215]

>  <energy>  (11) 
-352.5117443976289

>  <inter_energy>  (11) 
-326.5702547530241

>  <intra_energy>  (11) 
0.0

>  <rmsd>  (11) 
4.16219

>  <sdf_rank>  (11) 
0

$$$$

     RDKit          3D

 13 14  0  0  0  0  0  0  0  0999 V2000
  -82.9285  -30.5144  -31.0759 C   0  0  0  0  0  0  0  0  0  0  0  0
  -83.4853  -28.9145  -32.6329 C   0  0  0  0  0  0  0  0  0  0  0  0
  -82.3175  -29.1809  -33.2918 C   0  0  0  0  0  0  0  0  0  0  0  0
  -81.4662  -30.1728  -32.7592 C   0  0  0  0  0  0  0  0  0  0  0  0
  -83.3513  -27.6113  -34.3549 C   0  0  0  0  0  0  0  0  0  0  0  0
  -81.8060  -30.8112  -31.6732 N   0  0  0  0  0  0  0  0  0  0  0  0
  -83.7743  -29.6061  -31.5091 N   0  0  0  0  0  0  0  0  0  0  0  0
  -82.2559  -28.3484  -34.3668 N   0  0  0  0  0  0  0  0  0  0  0  0
  -84.1149  -27.9351  -33.3217 N   0  0  0  0  0  0  0  0  0  0  0  0
  -83.2863  -31.4036  -29.6116 Cl  0  0  0  0  0  0  0  0  0  0  0  0
  -79.9618  -30.5987  -33.5517 Cl  0  0  0  0  0  0  0  0  0  0  0  0
  -83.5955  -26.8376  -35.0978 H   0  0  0  0  0  0  0  0  0  0  0  0
  -81.4960  -28.3021  -35.0607 H   0  0  0  0  0  0  0  0  0  0  0  0
  1  6  2  0
  1  7  1  0
  1 10  1  0
  2  3  1  0
  2  7  2  0
  2  9  1  0
  3  4  2  0
  3  8  1  0
  4  6  1  0
  4 11  1  0
  5  8  1  0
  5  9  2  0
  5 12  1  0
  8 13  1  0
M  END
>  <filename_input>  (12) 
7OP9_06K_docked.sdf

>  <pdb_id>  (12) 
7OP9_06K

>  <pose_rank>  (12) 
11

>  <num_atoms_heavy>  (12) 
11

>  <num_torsions>  (12) 
0

>  <pose>  (12) 
[-82.92850954574746, -30.514382378965763, -31.075946397845815, 1.1460879154002885, 0.37587484550781003, -2.8216492563565874]

>  <energy>  (12) 
-350.9794084534113

>  <inter_energy>  (12) 
-341.9144397492734

>  <intra_energy>  (12) 
0.0

>  <rmsd>  (12) 
4.29995

>  <sdf_rank>  (12) 
0

$$$$

     RDKit          3D

 13 14  0  0  0  0  0  0  0  0999 V2000
  -82.9330  -28.9254  -35.8028 C   0  0  0  0  0  0  0  0  0  0  0  0
  -84.8689  -27.7079  -35.5508 C   0  0  0  0  0  0  0  0  0  0  0  0
  -84.8266  -27.9602  -34.2078 C   0  0  0  0  0  0  0  0  0  0  0  0
  -83.7584  -28.7380  -33.7119 C   0  0  0  0  0  0  0  0  0  0  0  0
  -86.5862  -26.7781  -34.6191 C   0  0  0  0  0  0  0  0  0  0  0  0
  -82.8435  -29.1869  -34.5268 N   0  0  0  0  0  0  0  0  0  0  0  0
  -83.8946  -28.2086  -36.3410 N   0  0  0  0  0  0  0  0  0  0  0  0
  -85.9162  -27.3684  -33.6464 N   0  0  0  0  0  0  0  0  0  0  0  0
  -85.9742  -26.9621  -35.7797 N   0  0  0  0  0  0  0  0  0  0  0  0
  -81.6754  -29.5924  -36.8210 Cl  0  0  0  0  0  0  0  0  0  0  0  0
  -83.6092  -29.0893  -32.0011 Cl  0  0  0  0  0  0  0  0  0  0  0  0
  -87.5206  -26.2133  -34.4848 H   0  0  0  0  0  0  0  0  0  0  0  0
  -86.1707  -27.3791  -32.6484 H   0  0  0  0  0  0  0  0  0  0  0  0
  1  6  2  0
  1  7  1  0
  1 10  1  0
  2  3  1  0
  2  7  2  0
  2  9  1  0
  3  4  2  0
  3  8  1  0
  4  6  1  0
  4 11  1  0
  5  8  1  0
  5  9  2  0
  5 12  1  0
  8 13  1  0
M  END
>  <filename_input>  (13) 
7OP9_06K_docked.sdf

>  <pdb_id>  (13) 
7OP9_06K

>  <pose_rank>  (13) 
12

>  <num_atoms_heavy>  (13) 
11

>  <num_torsions>  (13) 
0

>  <pose>  (13) 
[-82.93298690369811, -28.92536763801156, -35.80283042562783, 5.6436653483049595, 6.963924992156005, 1.3160404127042933]

>  <energy>  (13) 
-425.6971304053661

>  <inter_energy>  (13) 
-422.6315784461378

>  <intra_energy>  (13) 
0.0

>  <rmsd>  (13) 
4.26292

>  <sdf_rank>  (13) 
0

$$$$

     RDKit          3D

 13 14  0  0  0  0  0  0  0  0999 V2000
  -86.8080  -29.3644  -30.4262 C   0  0  0  0  0  0  0  0  0  0  0  0
  -84.6394  -29.9324  -30.9442 C   0  0  0  0  0  0  0  0  0  0  0  0
  -84.6268  -28.9388  -31.8832 C   0  0  0  0  0  0  0  0  0  0  0  0
  -85.7949  -28.1633  -32.0446 C   0  0  0  0  0  0  0  0  0  0  0  0
  -82.7087  -29.9298  -31.9209 C   0  0  0  0  0  0  0  0  0  0  0  0
  -86.8430  -28.3984  -31.3038 N   0  0  0  0  0  0  0  0  0  0  0  0
  -85.7596  -30.1289  -30.2154 N   0  0  0  0  0  0  0  0  0  0  0  0
  -83.4056  -28.9597  -32.4837 N   0  0  0  0  0  0  0  0  0  0  0  0
  -83.4270  -30.5312  -30.9840 N   0  0  0  0  0  0  0  0  0  0  0  0
  -88.2695  -29.6225  -29.4985 Cl  0  0  0  0  0  0  0  0  0  0  0  0
  -85.8603  -26.8516  -33.2056 Cl  0  0  0  0  0  0  0  0  0  0  0  0
  -81.6775  -30.2005  -32.1918 H   0  0  0  0  0  0  0  0  0  0  0  0
  -83.0846  -28.3348  -33.2370 H   0  0  0  0  0  0  0  0  0  0  0  0
  1  6  2  0
  1  7  1  0
  1 10  1  0
  2  3  1  0
  2  7  2  0
  2  9  1  0
  3  4  2  0
  3  8  1  0
  4  6  1  0
  4 11  1  0
  5  8  1  0
  5  9  2  0
  5 12  1  0
  8 13  1  0
M  END
>  <filename_input>  (14) 
7OP9_06K_docked.sdf

>  <pdb_id>  (14) 
7OP9_06K

>  <pose_rank>  (14) 
13

>  <num_atoms_heavy>  (14) 
11

>  <num_torsions>  (14) 
0

>  <pose>  (14) 
[-86.80796724892348, -29.364434615114714, -30.426168938138154, 0.4182949728230423, -0.5189953517364317, 0.2112695475813929]

>  <energy>  (14) 
-316.01521881162046

>  <inter_energy>  (14) 
-320.91402666161207

>  <intra_energy>  (14) 
0.0

>  <rmsd>  (14) 
3.76052

>  <sdf_rank>  (14) 
0

$$$$

     RDKit          3D

 13 14  0  0  0  0  0  0  0  0999 V2000
  -84.9724  -27.1109  -35.2850 C   0  0  0  0  0  0  0  0  0  0  0  0
  -85.7951  -27.2627  -33.1417 C   0  0  0  0  0  0  0  0  0  0  0  0
  -84.8561  -28.2192  -32.8726 C   0  0  0  0  0  0  0  0  0  0  0  0
  -83.9683  -28.5872  -33.9063 C   0  0  0  0  0  0  0  0  0  0  0  0
  -86.0482  -27.9228  -31.0967 C   0  0  0  0  0  0  0  0  0  0  0  0
  -84.0526  -28.0135  -35.0752 N   0  0  0  0  0  0  0  0  0  0  0  0
  -85.8339  -26.7134  -34.3751 N   0  0  0  0  0  0  0  0  0  0  0  0
  -85.0376  -28.6189  -31.5843 N   0  0  0  0  0  0  0  0  0  0  0  0
  -86.5220  -27.0919  -32.0136 N   0  0  0  0  0  0  0  0  0  0  0  0
  -85.0258  -26.4171  -36.8909 Cl  0  0  0  0  0  0  0  0  0  0  0  0
  -82.7161  -29.7853  -33.6436 Cl  0  0  0  0  0  0  0  0  0  0  0  0
  -86.4412  -28.0191  -30.0738 H   0  0  0  0  0  0  0  0  0  0  0  0
  -84.4888  -29.3319  -31.0829 H   0  0  0  0  0  0  0  0  0  0  0  0
  1  6  2  0
  1  7  1  0
  1 10  1  0
  2  3  1  0
  2  7  2  0
  2  9  1  0
  3  4  2  0
  3  8  1  0
  4  6  1  0
  4 11  1  0
  5  8  1  0
  5  9  2  0
  5 12  1  0
  8 13  1  0
M  END
>  <filename_input>  (15) 
7OP9_06K_docked.sdf

>  <pdb_id>  (15) 
7OP9_06K

>  <pose_rank>  (15) 
14

>  <num_atoms_heavy>  (15) 
11

>  <num_torsions>  (15) 
0

>  <pose>  (15) 
[-84.9723953488767, -27.11092454309493, -35.28500718038576, 2.562285214322535, 2.959275822526666, 0.7776027778305327]

>  <energy>  (15) 
-371.7342676390762

>  <inter_energy>  (15) 
-361.47273621666426

>  <intra_energy>  (15) 
0.0

>  <rmsd>  (15) 
4.14692

>  <sdf_rank>  (15) 
0

$$$$

     RDKit          3D

 13 14  0  0  0  0  0  0  0  0999 V2000
  -85.5197  -28.3196  -32.1384 C   0  0  0  0  0  0  0  0  0  0  0  0
  -85.9905  -27.0187  -33.9768 C   0  0  0  0  0  0  0  0  0  0  0  0
  -87.3164  -27.0734  -33.6484 C   0  0  0  0  0  0  0  0  0  0  0  0
  -87.6859  -27.8033  -32.4983 C   0  0  0  0  0  0  0  0  0  0  0  0
  -87.1145  -25.9098  -35.4562 C   0  0  0  0  0  0  0  0  0  0  0  0
  -86.7724  -28.3947  -31.7782 N   0  0  0  0  0  0  0  0  0  0  0  0
  -85.0960  -27.6595  -33.1933 N   0  0  0  0  0  0  0  0  0  0  0  0
  -88.0006  -26.3724  -34.5934 N   0  0  0  0  0  0  0  0  0  0  0  0
  -85.8916  -26.2803  -35.1060 N   0  0  0  0  0  0  0  0  0  0  0  0
  -84.3700  -29.1670  -31.1267 Cl  0  0  0  0  0  0  0  0  0  0  0  0
  -89.3594  -27.9056  -31.9869 Cl  0  0  0  0  0  0  0  0  0  0  0  0
  -87.3573  -25.3027  -36.3407 H   0  0  0  0  0  0  0  0  0  0  0  0
  -89.0200  -26.2293  -34.6289 H   0  0  0  0  0  0  0  0  0  0  0  0
  1  6  2  0
  1  7  1  0
  1 10  1  0
  2  3  1  0
  2  7  2  0
  2  9  1  0
  3  4  2  0
  3  8  1  0
  4  6  1  0
  4 11  1  0
  5  8  1  0
  5  9  2  0
  5 12  1  0
  8 13  1  0
M  END
>  <filename_input>  (16) 
7OP9_06K_docked.sdf

>  <pdb_id>  (16) 
7OP9_06K

>  <pose_rank>  (16) 
15

>  <num_atoms_heavy>  (16) 
11

>  <num_torsions>  (16) 
0

>  <pose>  (16) 
[-85.51968882958008, -28.31961550580936, -32.138374622258596, -2.533351573292189, -2.67154609672596, -2.688876224992437]

>  <energy>  (16) 
-319.217160988444

>  <inter_energy>  (16) 
-317.2693692949859

>  <intra_energy>  (16) 
0.0

>  <rmsd>  (16) 
4.21328

>  <sdf_rank>  (16) 
0

$$$$

     RDKit          3D

 13 14  0  0  0  0  0  0  0  0999 V2000
  -82.9430  -29.0852  -35.1420 C   0  0  0  0  0  0  0  0  0  0  0  0
  -84.0552  -28.0521  -36.8709 C   0  0  0  0  0  0  0  0  0  0  0  0
  -84.7205  -27.2853  -35.9553 C   0  0  0  0  0  0  0  0  0  0  0  0
  -84.4314  -27.4833  -34.5882 C   0  0  0  0  0  0  0  0  0  0  0  0
  -85.4177  -26.7436  -37.9260 C   0  0  0  0  0  0  0  0  0  0  0  0
  -83.5456  -28.3718  -34.2296 N   0  0  0  0  0  0  0  0  0  0  0  0
  -83.1557  -28.9597  -36.4331 N   0  0  0  0  0  0  0  0  0  0  0  0
  -85.5711  -26.4746  -36.6424 N   0  0  0  0  0  0  0  0  0  0  0  0
  -84.5046  -27.6889  -38.0941 N   0  0  0  0  0  0  0  0  0  0  0  0
  -81.7917  -30.2702  -34.5644 Cl  0  0  0  0  0  0  0  0  0  0  0  0
  -85.2167  -26.5271  -33.3466 Cl  0  0  0  0  0  0  0  0  0  0  0  0
  -85.9699  -26.2523  -38.7407 H   0  0  0  0  0  0  0  0  0  0  0  0
  -86.2147  -25.7804  -36.2365 H   0  0  0  0  0  0  0  0  0  0  0  0
  1  6  2  0
  1  7  1  0
  1 10  1  0
  2  3  1  0
  2  7  2  0
  2  9  1  0
  3  4  2  0
  3  8  1  0
  4  6  1  0
  4 11  1  0
  5  8  1  0
  5  9  2  0
  5 12  1  0
  8 13  1  0
M  END
>  <filename_input>  (17) 
7OP9_06K_docked.sdf

>  <pdb_id>  (17) 
7OP9_06K

>  <pose_rank>  (17) 
16

>  <num_atoms_heavy>  (17) 
11

>  <num_torsions>  (17) 
0

>  <pose>  (17) 
[-82.94295225276805, -29.085247654656033, -35.14199990425297, -2.9870899409788527, -3.3539326455355, -0.0849977803101642]

>  <energy>  (17) 
-358.57616740001316

>  <inter_energy>  (17) 
-370.6930895873952

>  <intra_energy>  (17) 
0.0

>  <rmsd>  (17) 
3.58833

>  <sdf_rank>  (17) 
0

$$$$

     RDKit          3D

 13 14  0  0  0  0  0  0  0  0999 V2000
  -85.1815  -27.4582  -32.6688 C   0  0  0  0  0  0  0  0  0  0  0  0
  -83.7740  -28.7285  -33.9723 C   0  0  0  0  0  0  0  0  0  0  0  0
  -84.2786  -28.1093  -35.0818 C   0  0  0  0  0  0  0  0  0  0  0  0
  -85.2780  -27.1297  -34.8985 C   0  0  0  0  0  0  0  0  0  0  0  0
  -82.8051  -29.5516  -35.7232 C   0  0  0  0  0  0  0  0  0  0  0  0
  -85.6890  -26.8324  -33.6962 N   0  0  0  0  0  0  0  0  0  0  0  0
  -84.2483  -28.3799  -32.7566 N   0  0  0  0  0  0  0  0  0  0  0  0
  -83.6564  -28.6451  -36.1673 N   0  0  0  0  0  0  0  0  0  0  0  0
  -82.8509  -29.6198  -34.4008 N   0  0  0  0  0  0  0  0  0  0  0  0
  -85.8142  -27.0119  -31.0992 Cl  0  0  0  0  0  0  0  0  0  0  0  0
  -85.9633  -26.2660  -36.2612 Cl  0  0  0  0  0  0  0  0  0  0  0  0
  -82.1504  -30.1636  -36.3610 H   0  0  0  0  0  0  0  0  0  0  0  0
  -83.8194  -28.3909  -37.1520 H   0  0  0  0  0  0  0  0  0  0  0  0
  1  6  2  0
  1  7  1  0
  1 10  1  0
  2  3  1  0
  2  7  2  0
  2  9  1  0
  3  4  2  0
  3  8  1  0
  4  6  1  0
  4 11  1  0
  5  8  1  0
  5  9  2  0
  5 12  1  0
  8 13  1  0
M  END
>  <filename_input>  (18) 
7OP9_06K_docked.sdf

>  <pdb_id>  (18) 
7OP9_06K

>  <pose_rank>  (18) 
17

>  <num_atoms_heavy>  (18) 
11

>  <num_torsions>  (18) 
0

>  <pose>  (18) 
[-85.18148827846747, -27.458221007842788, -32.66884568894493, 2.4970606242716205, 5.876692947580964, 0.27742437515647217]

>  <energy>  (18) 
-354.505712037636

>  <inter_energy>  (18) 
-352.15300231386294

>  <intra_energy>  (18) 
0.0

>  <rmsd>  (18) 
0.527873

>  <sdf_rank>  (18) 
0

$$$$

     RDKit          3D

 13 14  0  0  0  0  0  0  0  0999 V2000
  -87.3876  -26.8105  -33.3734 C   0  0  0  0  0  0  0  0  0  0  0  0
  -85.8623  -28.0245  -32.1514 C   0  0  0  0  0  0  0  0  0  0  0  0
  -85.0872  -28.1368  -33.2719 C   0  0  0  0  0  0  0  0  0  0  0  0
  -85.5479  -27.5323  -34.4611 C   0  0  0  0  0  0  0  0  0  0  0  0
  -84.1052  -29.1881  -31.6616 C   0  0  0  0  0  0  0  0  0  0  0  0
  -86.6795  -26.8825  -34.4680 N   0  0  0  0  0  0  0  0  0  0  0  0
  -87.0271  -27.3447  -32.2277 N   0  0  0  0  0  0  0  0  0  0  0  0
  -83.9922  -28.8734  -32.9390 N   0  0  0  0  0  0  0  0  0  0  0  0
  -85.2226  -28.6842  -31.1587 N   0  0  0  0  0  0  0  0  0  0  0  0
  -88.9031  -25.9422  -33.4862 Cl  0  0  0  0  0  0  0  0  0  0  0  0
  -84.6074  -27.6029  -35.9386 Cl  0  0  0  0  0  0  0  0  0  0  0  0
  -83.3748  -29.7844  -31.0950 H   0  0  0  0  0  0  0  0  0  0  0  0
  -83.2191  -29.1365  -33.5668 H   0  0  0  0  0  0  0  0  0  0  0  0
  1  6  2  0
  1  7  1  0
  1 10  1  0
  2  3  1  0
  2  7  2  0
  2  9  1  0
  3  4  2  0
  3  8  1  0
  4  6  1  0
  4 11  1  0
  5  8  1  0
  5  9  2  0
  5 12  1  0
  8 13  1  0
M  END
>  <filename_input>  (19) 
7OP9_06K_docked.sdf

>  <pdb_id>  (19) 
7OP9_06K

>  <pose_rank>  (19) 
18

>  <num_atoms_heavy>  (19) 
11

>  <num_torsions>  (19) 
0

>  <pose>  (19) 
[-87.38762397478375, -26.810481475859916, -33.37344507624731, 2.6513316128684408, 4.480258922543249, -0.22462992789498762]

>  <energy>  (19) 
-285.35369854909897

>  <inter_energy>  (19) 
-273.20883800286896

>  <intra_energy>  (19) 
0.0

>  <rmsd>  (19) 
3.09047

>  <sdf_rank>  (19) 
0

$$$$

     RDKit          3D

 13 14  0  0  0  0  0  0  0  0999 V2000
  -87.3500  -26.4537  -33.6130 C   0  0  0  0  0  0  0  0  0  0  0  0
  -85.5265  -27.5389  -32.7237 C   0  0  0  0  0  0  0  0  0  0  0  0
  -84.9448  -27.5285  -33.9608 C   0  0  0  0  0  0  0  0  0  0  0  0
  -85.6580  -26.9358  -35.0248 C   0  0  0  0  0  0  0  0  0  0  0  0
  -83.6045  -28.5238  -32.5912 C   0  0  0  0  0  0  0  0  0  0  0  0
  -86.8336  -26.4112  -34.8114 N   0  0  0  0  0  0  0  0  0  0  0  0
  -86.7494  -26.9857  -32.5718 N   0  0  0  0  0  0  0  0  0  0  0  0
  -83.7412  -28.1546  -33.8516 N   0  0  0  0  0  0  0  0  0  0  0  0
  -84.6655  -28.1604  -31.8856 N   0  0  0  0  0  0  0  0  0  0  0  0
  -88.9417  -25.7495  -33.4294 Cl  0  0  0  0  0  0  0  0  0  0  0  0
  -84.9786  -26.8538  -36.6386 Cl  0  0  0  0  0  0  0  0  0  0  0  0
  -82.7330  -29.0577  -32.1845 H   0  0  0  0  0  0  0  0  0  0  0  0
  -83.0631  -28.3112  -34.6109 H   0  0  0  0  0  0  0  0  0  0  0  0
  1  6  2  0
  1  7  1  0
  1 10  1  0
  2  3  1  0
  2  7  2  0
  2  9  1  0
  3  4  2  0
  3  8  1  0
  4  6  1  0
  4 11  1  0
  5  8  1  0
  5  9  2  0
  5 12  1  0
  8 13  1  0
M  END
>  <filename_input>  (20) 
7OP9_06K_docked.sdf

>  <pdb_id>  (20) 
7OP9_06K

>  <pose_rank>  (20) 
19

>  <num_atoms_heavy>  (20) 
11

>  <num_torsions>  (20) 
0

>  <pose>  (20) 
[-87.35000701366137, -26.453659711650445, -33.61301547320204, 2.6066584720627466, 4.591793408445673, -0.9552695975484089]

>  <energy>  (20) 
-342.4099703619682

>  <inter_energy>  (20) 
-339.7552721873174

>  <intra_energy>  (20) 
0.0

>  <rmsd>  (20) 
2.70078

>  <sdf_rank>  (20) 
0

$$$$

     RDKit          3D

 13 14  0  0  0  0  0  0  0  0999 V2000
  -83.3936  -20.1064  -42.2081 C   0  0  0  0  0  0  0  0  0  0  0  0
  -81.5188  -18.8938  -41.6527 C   0  0  0  0  0  0  0  0  0  0  0  0
  -80.7527  -19.9897  -41.9374 C   0  0  0  0  0  0  0  0  0  0  0  0
  -81.4069  -21.1621  -42.3724 C   0  0  0  0  0  0  0  0  0  0  0  0
  -79.4446  -18.4009  -41.2834 C   0  0  0  0  0  0  0  0  0  0  0  0
  -82.7054  -21.1767  -42.5005 N   0  0  0  0  0  0  0  0  0  0  0  0
  -82.8591  -18.9773  -41.7989 N   0  0  0  0  0  0  0  0  0  0  0  0
  -79.4557  -19.6555  -41.6952 N   0  0  0  0  0  0  0  0  0  0  0  0
  -80.6763  -17.9137  -41.2530 N   0  0  0  0  0  0  0  0  0  0  0  0
  -85.1306  -20.2294  -42.3843 Cl  0  0  0  0  0  0  0  0  0  0  0  0
  -80.5029  -22.6062  -42.7849 Cl  0  0  0  0  0  0  0  0  0  0  0  0
  -78.5405  -17.8396  -41.0050 H   0  0  0  0  0  0  0  0  0  0  0  0
  -78.6354  -20.2674  -41.8114 H   0  0  0  0  0  0  0  0  0  0  0  0
  1  6  2  0
  1  7  1  0
  1 10  1  0
  2  3  1  0
  2  7  2  0
  2  9  1  0
  3  4  2  0
  3  8  1  0
  4  6  1  0
  4 11  1  0
  5  8  1  0
  5  9  2  0
  5 12  1  0
  8 13  1  0
M  END
>  <filename_input>  (21) 
7OP9_06K_docked.sdf

>  <pdb_id>  (21) 
7OP9_06K

>  <pose_rank>  (21) 
20

>  <num_atoms_heavy>  (21) 
11

>  <num_torsions>  (21) 
0

>  <pose>  (21) 
[-83.3936230291616, -20.10637709855682, -42.20813642304122, 3.314326609662505, 1.050622253841602, -2.3165469367722955]

>  <energy>  (21) 
-151.20215322911127

>  <inter_energy>  (21) 
-121.39435811230189

>  <intra_energy>  (21) 
0.0

>  <rmsd>  (21) 
11.7308

>  <sdf_rank>  (21) 
0

$$$$

     RDKit          3D

 13 14  0  0  0  0  0  0  0  0999 V2000
  -77.4889  -21.8503  -42.7473 C   0  0  0  0  0  0  0  0  0  0  0  0
  -79.1511  -20.3042  -43.1217 C   0  0  0  0  0  0  0  0  0  0  0  0
  -78.1916  -19.3787  -43.4247 C   0  0  0  0  0  0  0  0  0  0  0  0
  -76.8399  -19.7801  -43.3649 C   0  0  0  0  0  0  0  0  0  0  0  0
  -80.1239  -18.4292  -43.5905 C   0  0  0  0  0  0  0  0  0  0  0  0
  -76.5360  -21.0056  -43.0358 N   0  0  0  0  0  0  0  0  0  0  0  0
  -78.7692  -21.5542  -42.7811 N   0  0  0  0  0  0  0  0  0  0  0  0
  -78.8275  -18.2102  -43.7127 N   0  0  0  0  0  0  0  0  0  0  0  0
  -80.3491  -19.6868  -43.2396 N   0  0  0  0  0  0  0  0  0  0  0  0
  -76.9838  -23.4626  -42.2907 Cl  0  0  0  0  0  0  0  0  0  0  0  0
  -75.5444  -18.6681  -43.7624 Cl  0  0  0  0  0  0  0  0  0  0  0  0
  -80.9064  -17.6741  -43.7567 H   0  0  0  0  0  0  0  0  0  0  0  0
  -78.3805  -17.3206  -43.9768 H   0  0  0  0  0  0  0  0  0  0  0  0
  1  6  2  0
  1  7  1  0
  1 10  1  0
  2  3  1  0
  2  7  2  0
  2  9  1  0
  3  4  2  0
  3  8  1  0
  4  6  1  0
  4 11  1  0
  5  8  1  0
  5  9  2  0
  5 12  1  0
  8 13  1  0
M  END
>  <filename_input>  (22) 
7OP9_06K_docked.sdf

>  <pdb_id>  (22) 
7OP9_06K

>  <pose_rank>  (22) 
21

>  <num_atoms_heavy>  (22) 
11

>  <num_torsions>  (22) 
0

>  <pose>  (22) 
[-77.48890816522118, -21.850262045346675, -42.747269584395525, 0.9258180796525886, 1.5438412446802154, -2.045232070144098]

>  <energy>  (22) 
-77.1013309631422

>  <inter_energy>  (22) 
-73.09399421570902

>  <intra_energy>  (22) 
0.0

>  <rmsd>  (22) 
13.6536

>  <sdf_rank>  (22) 
0

$$$$

     RDKit          3D

 13 14  0  0  0  0  0  0  0  0999 V2000
  -86.1025  -35.2397  -42.7319 C   0  0  0  0  0  0  0  0  0  0  0  0
  -84.9367  -36.3936  -41.1184 C   0  0  0  0  0  0  0  0  0  0  0  0
  -86.1073  -36.9777  -40.7218 C   0  0  0  0  0  0  0  0  0  0  0  0
  -87.2897  -36.6283  -41.4087 C   0  0  0  0  0  0  0  0  0  0  0  0
  -84.5211  -37.7115  -39.4535 C   0  0  0  0  0  0  0  0  0  0  0  0
  -87.2443  -35.7767  -42.3962 N   0  0  0  0  0  0  0  0  0  0  0  0
  -84.9595  -35.5139  -42.1432 N   0  0  0  0  0  0  0  0  0  0  0  0
  -85.8201  -37.7980  -39.6742 N   0  0  0  0  0  0  0  0  0  0  0  0
  -83.9609  -36.8744  -40.3142 N   0  0  0  0  0  0  0  0  0  0  0  0
  -86.1446  -34.0886  -44.0495 Cl  0  0  0  0  0  0  0  0  0  0  0  0
  -88.8314  -37.3473  -40.9857 Cl  0  0  0  0  0  0  0  0  0  0  0  0
  -83.9805  -38.2573  -38.6662 H   0  0  0  0  0  0  0  0  0  0  0  0
  -86.4913  -38.3783  -39.1510 H   0  0  0  0  0  0  0  0  0  0  0  0
  1  6  2  0
  1  7  1  0
  1 10  1  0
  2  3  1  0
  2  7  2  0
  2  9  1  0
  3  4  2  0
  3  8  1  0
  4  6  1  0
  4 11  1  0
  5  8  1  0
  5  9  2  0
  5 12  1  0
  8 13  1  0
M  END
>  <filename_input>  (23) 
7OP9_06K_docked.sdf

>  <pdb_id>  (23) 
7OP9_06K

>  <pose_rank>  (23) 
22

>  <num_atoms_heavy>  (23) 
11

>  <num_torsions>  (23) 
0

>  <pose>  (23) 
[-86.10249010154091, -35.2397444555675, -42.73187611356898, -2.1197309002184452, 0.9713999488394358, -0.33945501874280515]

>  <energy>  (23) 
-114.68719200510536

>  <inter_energy>  (23) 
-90.17991148486767

>  <intra_energy>  (23) 
0.0

>  <rmsd>  (23) 
11.2405

>  <sdf_rank>  (23) 
0

$$$$

     RDKit          3D

 13 14  0  0  0  0  0  0  0  0999 V2000
  -77.0084  -29.3496  -44.5908 C   0  0  0  0  0  0  0  0  0  0  0  0
  -76.7466  -31.6354  -44.5789 C   0  0  0  0  0  0  0  0  0  0  0  0
  -78.1065  -31.7688  -44.5383 C   0  0  0  0  0  0  0  0  0  0  0  0
  -78.8887  -30.5941  -44.5259 C   0  0  0  0  0  0  0  0  0  0  0  0
  -77.2321  -33.7432  -44.5206 C   0  0  0  0  0  0  0  0  0  0  0  0
  -78.3115  -29.4244  -44.5609 N   0  0  0  0  0  0  0  0  0  0  0  0
  -76.2119  -30.3953  -44.6059 N   0  0  0  0  0  0  0  0  0  0  0  0
  -78.3854  -33.1005  -44.4996 N   0  0  0  0  0  0  0  0  0  0  0  0
  -76.2251  -32.8837  -44.5737 N   0  0  0  0  0  0  0  0  0  0  0  0
  -76.3244  -27.7387  -44.6084 Cl  0  0  0  0  0  0  0  0  0  0  0  0
  -80.6398  -30.6697  -44.5010 Cl  0  0  0  0  0  0  0  0  0  0  0  0
  -77.1228  -34.8375  -44.4973 H   0  0  0  0  0  0  0  0  0  0  0  0
  -79.3220  -33.5275  -44.4612 H   0  0  0  0  0  0  0  0  0  0  0  0
  1  6  2  0
  1  7  1  0
  1 10  1  0
  2  3  1  0
  2  7  2  0
  2  9  1  0
  3  4  2  0
  3  8  1  0
  4  6  1  0
  4 11  1  0
  5  8  1  0
  5  9  2  0
  5 12  1  0
  8 13  1  0
M  END
>  <filename_input>  (24) 
7OP9_06K_docked.sdf

>  <pdb_id>  (24) 
7OP9_06K

>  <pose_rank>  (24) 
23

>  <num_atoms_heavy>  (24) 
11

>  <num_torsions>  (24) 
0

>  <pose>  (24) 
[-77.00837357518455, -29.349618498185155, -44.590779717944066, 2.9325189884691643, -3.4833737974967383, 0.31946572396351064]

>  <energy>  (24) 
-110.95944970278313

>  <inter_energy>  (24) 
-122.71540933272296

>  <intra_energy>  (24) 
0.0

>  <rmsd>  (24) 
12.4949

>  <sdf_rank>  (24) 
0

$$$$

     RDKit          3D

 13 14  0  0  0  0  0  0  0  0999 V2000
  -74.8486  -36.9149  -37.4116 C   0  0  0  0  0  0  0  0  0  0  0  0
  -74.6666  -34.8696  -36.3736 C   0  0  0  0  0  0  0  0  0  0  0  0
  -75.1203  -35.4408  -35.2174 C   0  0  0  0  0  0  0  0  0  0  0  0
  -75.4323  -36.8171  -35.2348 C   0  0  0  0  0  0  0  0  0  0  0  0
  -74.7691  -33.3432  -34.8435 C   0  0  0  0  0  0  0  0  0  0  0  0
  -75.2775  -37.5084  -36.3306 N   0  0  0  0  0  0  0  0  0  0  0  0
  -74.5360  -35.6397  -37.4757 N   0  0  0  0  0  0  0  0  0  0  0  0
  -75.1782  -34.4618  -34.2735 N   0  0  0  0  0  0  0  0  0  0  0  0
  -74.4486  -33.5606  -36.1105 N   0  0  0  0  0  0  0  0  0  0  0  0
  -74.6987  -37.9169  -38.8387 Cl  0  0  0  0  0  0  0  0  0  0  0  0
  -75.9952  -37.6386  -33.7923 Cl  0  0  0  0  0  0  0  0  0  0  0  0
  -74.7037  -32.3685  -34.3378 H   0  0  0  0  0  0  0  0  0  0  0  0
  -75.4842  -34.5730  -33.2963 H   0  0  0  0  0  0  0  0  0  0  0  0
  1  6  2  0
  1  7  1  0
  1 10  1  0
  2  3  1  0
  2  7  2  0
  2  9  1  0
  3  4  2  0
  3  8  1  0
  4  6  1  0
  4 11  1  0
  5  8  1  0
  5  9  2  0
  5 12  1  0
  8 13  1  0
M  END
>  <filename_input>  (25) 
7OP9_06K_docked.sdf

>  <pdb_id>  (25) 
7OP9_06K

>  <pose_rank>  (25) 
24

>  <num_atoms_heavy>  (25) 
11

>  <num_torsions>  (25) 
0

>  <pose>  (25) 
[-74.848610986435, -36.91488888846448, -37.41157823130407, 2.7904090719759806, 0.8068280278936788, 0.47387289975396046]

>  <energy>  (25) 
-131.8144014172557

>  <inter_energy>  (25) 
-108.50077037745193

>  <intra_energy>  (25) 
0.0

>  <rmsd>  (25) 
12.7882

>  <sdf_rank>  (25) 
0

$$$$

     RDKit          3D

 13 14  0  0  0  0  0  0  0  0999 V2000
  -85.0710  -27.5230  -33.1440 C   0  0  0  0  0  0  0  0  0  0  0  0
  -83.5500  -28.8510  -34.2470 C   0  0  0  0  0  0  0  0  0  0  0  0
  -83.9380  -28.2780  -35.4260 C   0  0  0  0  0  0  0  0  0  0  0  0
  -84.9440  -27.2890  -35.3840 C   0  0  0  0  0  0  0  0  0  0  0  0
  -82.4180  -29.7500  -35.8570 C   0  0  0  0  0  0  0  0  0  0  0  0
  -85.4700  -26.9400  -34.2420 N   0  0  0  0  0  0  0  0  0  0  0  0
  -84.1400  -28.4500  -33.1000 N   0  0  0  0  0  0  0  0  0  0  0  0
  -83.2150  -28.8610  -36.4210 N   0  0  0  0  0  0  0  0  0  0  0  0
  -82.5950  -29.7620  -34.5440 N   0  0  0  0  0  0  0  0  0  0  0  0
  -85.8530  -27.0090  -31.6650 Cl  0  0  0  0  0  0  0  0  0  0  0  0
  -85.4850  -26.4820  -36.8430 Cl  0  0  0  0  0  0  0  0  0  0  0  0
  -81.7075  -30.3902  -36.4005 H   0  0  0  0  0  0  0  0  0  0  0  0
  -83.2779  -28.6483  -37.4268 H   0  0  0  0  0  0  0  0  0  0  0  0
  1  6  2  0
  1  7  1  0
  1 10  1  0
  2  3  1  0
  2  7  2  0
  2  9  1  0
  3  4  2  0
  3  8  1  0
  4  6  1  0
  4 11  1  0
  5  8  1  0
  5  9  2  0
  5 12  1  0
  8 13  1  0
M  END
>  <filename_input>  (26) 
7OP9_06K_docked.sdf

>  <pdb_id>  (26) 
7OP9_06K

>  <pose_rank>  (26) 
25

>  <num_atoms_heavy>  (26) 
11

>  <num_torsions>  (26) 
0

>  <pose>  (26) 
[-85.071, -27.523, -33.144, 1e-06, 1e-06, 1e-06]

>  <energy>  (26) 
-343.6106116028634

>  <inter_energy>  (26) 
-332.03985321879446

>  <intra_energy>  (26) 
0.0

>  <rmsd>  (26) 
0.0

>  <sdf_rank>  (26) 
0

$$$$
