
     RDKit          3D

 33 35  0  0  0  0  0  0  0  0999 V2000
   55.6449    0.9550   55.6181 C   0  0  0  0  0  0  0  0  0  0  0  0
   55.5838   -0.3791   55.3377 C   0  0  0  0  0  0  0  0  0  0  0  0
   55.6742    2.1171   54.7236 C   0  0  0  0  0  0  0  0  0  0  0  0
   55.4365    3.1180   52.5488 C   0  0  0  0  0  0  0  0  0  0  0  0
   55.3962    2.0066   53.3624 C   0  0  0  0  0  0  0  0  0  0  0  0
   55.7535    4.3493   53.0755 C   0  0  0  0  0  0  0  0  0  0  0  0
   56.0218    4.4706   54.4282 C   0  0  0  0  0  0  0  0  0  0  0  0
   55.9913    3.3596   55.2344 C   0  0  0  0  0  0  0  0  0  0  0  0
   55.5700   -1.1491   56.4770 N   0  0  0  0  0  0  0  0  0  0  0  0
   55.6176   -0.2896   57.4545 C   0  0  0  0  0  0  0  0  0  0  0  0
   55.6427    0.9932   56.9848 N   0  0  0  0  0  0  0  0  0  0  0  0
   55.6933   -0.3288   59.1971 S   0  0  0  0  0  0  0  0  0  0  0  0
   55.6872    1.4194   59.0457 C   0  0  0  0  0  0  0  0  0  0  0  0
   55.6535    2.0071   57.8942 N   0  0  0  0  0  0  0  0  0  0  0  0
   55.6455    2.1882   60.1376 N   0  0  0  0  0  0  0  0  0  0  0  0
   55.6182    3.6344   60.0520 C   0  0  0  0  0  0  0  0  0  0  0  0
   56.3057    4.2619   61.2427 C   0  0  0  0  0  0  0  0  0  0  0  0
   55.3736    5.1707   62.0138 C   0  0  0  0  0  0  0  0  0  0  0  0
   55.8206    5.4763   52.3240 O   0  0  0  0  0  0  0  0  0  0  0  0
   55.5496   -0.7909   54.3183 H   0  0  0  0  0  0  0  0  0  0  0  0
   55.2147    3.0209   51.4758 H   0  0  0  0  0  0  0  0  0  0  0  0
   55.1430    1.0254   52.9346 H   0  0  0  0  0  0  0  0  0  0  0  0
   56.2591    5.4557   54.8565 H   0  0  0  0  0  0  0  0  0  0  0  0
   56.2233    3.4614   56.3048 H   0  0  0  0  0  0  0  0  0  0  0  0
   55.6323    1.7408   61.0652 H   0  0  0  0  0  0  0  0  0  0  0  0
   56.1327    3.9498   59.1324 H   0  0  0  0  0  0  0  0  0  0  0  0
   54.5689    3.9644   60.0399 H   0  0  0  0  0  0  0  0  0  0  0  0
   56.6590    3.4633   61.9118 H   0  0  0  0  0  0  0  0  0  0  0  0
   57.1461    4.8676   60.8728 H   0  0  0  0  0  0  0  0  0  0  0  0
   55.5261    5.0220   63.0930 H   0  0  0  0  0  0  0  0  0  0  0  0
   55.5855    6.2185   61.7546 H   0  0  0  0  0  0  0  0  0  0  0  0
   54.3315    4.9324   61.7546 H   0  0  0  0  0  0  0  0  0  0  0  0
   56.0528    6.3405   52.7474 H   0  0  0  0  0  0  0  0  0  0  0  0
  1  2  2  0
  1  3  1  0
  1 11  1  0
  2  9  1  0
  3  5  1  0
  3  8  2  0
  4  5  2  0
  4  6  1  0
  6  7  2  0
  6 19  1  0
  7  8  1  0
  9 10  2  0
 10 11  1  0
 10 12  1  0
 11 14  1  0
 12 13  1  0
 13 14  2  0
 13 15  1  0
 15 16  1  0
 16 17  1  0
 17 18  1  0
  2 20  1  0
  4 21  1  0
  5 22  1  0
  7 23  1  0
  8 24  1  0
 15 25  1  0
 16 26  1  0
 16 27  1  0
 17 28  1  0
 17 29  1  0
 18 30  1  0
 18 31  1  0
 18 32  1  0
 19 33  1  0
M  END
>  <filename_input>  (1) 
7OPG_06N_docked.sdf

>  <pdb_id>  (1) 
7OPG_06N

>  <pose_rank>  (1) 
0

>  <num_atoms_heavy>  (1) 
19

>  <num_torsions>  (1) 
3

>  <pose>  (1) 
[55.644871273397165, 0.9549518097665692, 55.618146753108014, -0.4294573539603264, -4.109291535685024, 4.497651242521302, -6.379323469079749, -6.321804359952493, 2.984656428941219]

>  <energy>  (1) 
-921.5858895946659

>  <inter_energy>  (1) 
-931.9815776617489

>  <intra_energy>  (1) 
14.575189479964779

>  <rmsd>  (1) 
0.680148

>  <sdf_rank>  (1) 
0

$$$$

     RDKit          3D

 33 35  0  0  0  0  0  0  0  0999 V2000
   55.4627    1.8321   54.5546 C   0  0  0  0  0  0  0  0  0  0  0  0
   55.5841    2.4507   53.3443 C   0  0  0  0  0  0  0  0  0  0  0  0
   55.0731    0.4579   54.8884 C   0  0  0  0  0  0  0  0  0  0  0  0
   55.0597   -1.4346   56.3737 C   0  0  0  0  0  0  0  0  0  0  0  0
   55.4389   -0.1399   56.0929 C   0  0  0  0  0  0  0  0  0  0  0  0
   54.3154   -2.1499   55.4636 C   0  0  0  0  0  0  0  0  0  0  0  0
   53.9392   -1.5613   54.2684 C   0  0  0  0  0  0  0  0  0  0  0  0
   54.3275   -0.2747   53.9869 C   0  0  0  0  0  0  0  0  0  0  0  0
   55.9841    3.7605   53.4684 N   0  0  0  0  0  0  0  0  0  0  0  0
   56.1125    3.9441   54.7515 C   0  0  0  0  0  0  0  0  0  0  0  0
   55.8289    2.8021   55.4458 N   0  0  0  0  0  0  0  0  0  0  0  0
   56.5135    5.2578   55.8275 S   0  0  0  0  0  0  0  0  0  0  0  0
   56.2971    4.0459   57.0781 C   0  0  0  0  0  0  0  0  0  0  0  0
   55.9582    2.8290   56.8014 N   0  0  0  0  0  0  0  0  0  0  0  0
   56.5514    4.3455   58.3551 N   0  0  0  0  0  0  0  0  0  0  0  0
   56.4044    3.3659   59.4125 C   0  0  0  0  0  0  0  0  0  0  0  0
   55.3402    2.3497   59.0673 C   0  0  0  0  0  0  0  0  0  0  0  0
   53.9518    2.8629   59.3813 C   0  0  0  0  0  0  0  0  0  0  0  0
   53.9227   -3.4301   55.6778 O   0  0  0  0  0  0  0  0  0  0  0  0
   55.3850    1.9585   52.3809 H   0  0  0  0  0  0  0  0  0  0  0  0
   55.3527   -1.8975   57.3276 H   0  0  0  0  0  0  0  0  0  0  0  0
   56.0345    0.4257   56.8246 H   0  0  0  0  0  0  0  0  0  0  0  0
   53.3300   -2.1235   53.5453 H   0  0  0  0  0  0  0  0  0  0  0  0
   54.0397    0.1796   53.0273 H   0  0  0  0  0  0  0  0  0  0  0  0
   56.8602    5.2986   58.5943 H   0  0  0  0  0  0  0  0  0  0  0  0
   57.3634    2.8470   59.5577 H   0  0  0  0  0  0  0  0  0  0  0  0
   56.1044    3.8875   60.3334 H   0  0  0  0  0  0  0  0  0  0  0  0
   55.4010    2.1212   57.9930 H   0  0  0  0  0  0  0  0  0  0  0  0
   55.5175    1.4490   59.6732 H   0  0  0  0  0  0  0  0  0  0  0  0
   53.8173    2.9126   60.4719 H   0  0  0  0  0  0  0  0  0  0  0  0
   53.8258    3.8670   58.9501 H   0  0  0  0  0  0  0  0  0  0  0  0
   53.2031    2.1821   58.9501 H   0  0  0  0  0  0  0  0  0  0  0  0
   53.3877   -3.9049   54.9933 H   0  0  0  0  0  0  0  0  0  0  0  0
  1  2  2  0
  1  3  1  0
  1 11  1  0
  2  9  1  0
  3  5  1  0
  3  8  2  0
  4  5  2  0
  4  6  1  0
  6  7  2  0
  6 19  1  0
  7  8  1  0
  9 10  2  0
 10 11  1  0
 10 12  1  0
 11 14  1  0
 12 13  1  0
 13 14  2  0
 13 15  1  0
 15 16  1  0
 16 17  1  0
 17 18  1  0
  2 20  1  0
  4 21  1  0
  5 22  1  0
  7 23  1  0
  8 24  1  0
 15 25  1  0
 16 26  1  0
 16 27  1  0
 17 28  1  0
 17 29  1  0
 18 30  1  0
 18 31  1  0
 18 32  1  0
 19 33  1  0
M  END
>  <filename_input>  (2) 
7OPG_06N_docked.sdf

>  <pdb_id>  (2) 
7OPG_06N

>  <pose_rank>  (2) 
1

>  <num_atoms_heavy>  (2) 
19

>  <num_torsions>  (2) 
3

>  <pose>  (2) 
[55.46267613375078, 1.8321244992516974, 54.5545827572062, 0.06228140264304285, 1.2566011330930942, 2.5752124782861823, 2.4367769836408972, 2.0500787581422366, -2.6191006167501865]

>  <energy>  (2) 
-555.1722925621746

>  <inter_energy>  (2) 
-602.0215911612265

>  <intra_energy>  (2) 
70.2888248163078

>  <rmsd>  (2) 
4.64603

>  <sdf_rank>  (2) 
0

$$$$

     RDKit          3D

 33 35  0  0  0  0  0  0  0  0999 V2000
   55.8473    1.7045   55.3386 C   0  0  0  0  0  0  0  0  0  0  0  0
   55.9758    0.3827   55.0249 C   0  0  0  0  0  0  0  0  0  0  0  0
   55.8371    2.8923   54.4779 C   0  0  0  0  0  0  0  0  0  0  0  0
   56.6306    5.0870   53.8935 C   0  0  0  0  0  0  0  0  0  0  0  0
   56.6680    3.9847   54.7196 C   0  0  0  0  0  0  0  0  0  0  0  0
   55.7691    5.1182   52.8208 C   0  0  0  0  0  0  0  0  0  0  0  0
   54.9466    4.0339   52.5671 C   0  0  0  0  0  0  0  0  0  0  0  0
   54.9786    2.9413   53.3982 C   0  0  0  0  0  0  0  0  0  0  0  0
   55.9279   -0.4224   56.1388 N   0  0  0  0  0  0  0  0  0  0  0  0
   55.7656    0.4029   57.1333 C   0  0  0  0  0  0  0  0  0  0  0  0
   55.6902    1.6953   56.6967 N   0  0  0  0  0  0  0  0  0  0  0  0
   55.6531    0.3129   58.8721 S   0  0  0  0  0  0  0  0  0  0  0  0
   55.4568    2.0530   58.7578 C   0  0  0  0  0  0  0  0  0  0  0  0
   55.4807    2.6720   57.6227 N   0  0  0  0  0  0  0  0  0  0  0  0
   55.2044    2.7740   59.8540 N   0  0  0  0  0  0  0  0  0  0  0  0
   55.0157    4.2094   59.7965 C   0  0  0  0  0  0  0  0  0  0  0  0
   54.8194    4.7871   61.1792 C   0  0  0  0  0  0  0  0  0  0  0  0
   56.1183    5.2988   61.7627 C   0  0  0  0  0  0  0  0  0  0  0  0
   55.6784    6.1785   51.9801 O   0  0  0  0  0  0  0  0  0  0  0  0
   56.1030    0.0049   53.9997 H   0  0  0  0  0  0  0  0  0  0  0  0
   57.2910    5.9440   54.0920 H   0  0  0  0  0  0  0  0  0  0  0  0
   57.3585    3.9668   55.5757 H   0  0  0  0  0  0  0  0  0  0  0  0
   54.2686    4.0476   51.7011 H   0  0  0  0  0  0  0  0  0  0  0  0
   54.3091    2.0913   53.2002 H   0  0  0  0  0  0  0  0  0  0  0  0
   55.1423    2.2965   60.7645 H   0  0  0  0  0  0  0  0  0  0  0  0
   55.9024    4.6704   59.3368 H   0  0  0  0  0  0  0  0  0  0  0  0
   54.1169    4.4204   59.1983 H   0  0  0  0  0  0  0  0  0  0  0  0
   54.1034    5.6200   61.1190 H   0  0  0  0  0  0  0  0  0  0  0  0
   54.4414    3.9880   61.8337 H   0  0  0  0  0  0  0  0  0  0  0  0
   56.0610    5.2762   62.8610 H   0  0  0  0  0  0  0  0  0  0  0  0
   56.9484    4.6605   61.4257 H   0  0  0  0  0  0  0  0  0  0  0  0
   56.2900    6.3318   61.4257 H   0  0  0  0  0  0  0  0  0  0  0  0
   55.0432    6.1554   51.2210 H   0  0  0  0  0  0  0  0  0  0  0  0
  1  2  2  0
  1  3  1  0
  1 11  1  0
  2  9  1  0
  3  5  1  0
  3  8  2  0
  4  5  2  0
  4  6  1  0
  6  7  2  0
  6 19  1  0
  7  8  1  0
  9 10  2  0
 10 11  1  0
 10 12  1  0
 11 14  1  0
 12 13  1  0
 13 14  2  0
 13 15  1  0
 15 16  1  0
 16 17  1  0
 17 18  1  0
  2 20  1  0
  4 21  1  0
  5 22  1  0
  7 23  1  0
  8 24  1  0
 15 25  1  0
 16 26  1  0
 16 27  1  0
 17 28  1  0
 17 29  1  0
 18 30  1  0
 18 31  1  0
 18 32  1  0
 19 33  1  0
M  END
>  <filename_input>  (3) 
7OPG_06N_docked.sdf

>  <pdb_id>  (3) 
7OPG_06N

>  <pose_rank>  (3) 
2

>  <num_atoms_heavy>  (3) 
19

>  <num_torsions>  (3) 
3

>  <pose>  (3) 
[55.84729849925715, 1.7044797281686683, 55.338575545756164, -5.9372327641034905, -1.271340647654762, 1.442414101520077, -2.5427054560697284, -0.5279643284325053, 0.47238336488289745]

>  <energy>  (3) 
-710.3405885944067

>  <inter_energy>  (3) 
-712.3666007695995

>  <intra_energy>  (3) 
2.6983304651926945

>  <rmsd>  (3) 
0.616492

>  <sdf_rank>  (3) 
0

$$$$

     RDKit          3D

 33 35  0  0  0  0  0  0  0  0999 V2000
   55.5088    3.0925   54.6624 C   0  0  0  0  0  0  0  0  0  0  0  0
   55.5987    2.1318   53.6975 C   0  0  0  0  0  0  0  0  0  0  0  0
   55.3721    2.9723   56.1180 C   0  0  0  0  0  0  0  0  0  0  0  0
   54.7040    3.8445   58.2583 C   0  0  0  0  0  0  0  0  0  0  0  0
   54.8140    3.9878   56.8921 C   0  0  0  0  0  0  0  0  0  0  0  0
   55.1468    2.6943   58.8706 C   0  0  0  0  0  0  0  0  0  0  0  0
   55.6939    1.6761   58.1089 C   0  0  0  0  0  0  0  0  0  0  0  0
   55.8118    1.8262   56.7491 C   0  0  0  0  0  0  0  0  0  0  0  0
   55.7231    2.6706   52.4384 N   0  0  0  0  0  0  0  0  0  0  0  0
   55.7143    3.9588   52.6305 C   0  0  0  0  0  0  0  0  0  0  0  0
   55.6081    4.2605   53.9588 N   0  0  0  0  0  0  0  0  0  0  0  0
   55.7660    5.4037   51.6538 S   0  0  0  0  0  0  0  0  0  0  0  0
   55.6966    6.2234   53.2038 C   0  0  0  0  0  0  0  0  0  0  0  0
   55.6254    5.5737   54.3197 N   0  0  0  0  0  0  0  0  0  0  0  0
   55.7885    7.5549   53.2644 N   0  0  0  0  0  0  0  0  0  0  0  0
   55.7562    8.2654   54.5267 C   0  0  0  0  0  0  0  0  0  0  0  0
   55.3324    9.7028   54.3301 C   0  0  0  0  0  0  0  0  0  0  0  0
   56.3266   10.6686   54.9370 C   0  0  0  0  0  0  0  0  0  0  0  0
   55.0763    2.5000   60.2110 O   0  0  0  0  0  0  0  0  0  0  0  0
   55.5745    1.0515   53.9030 H   0  0  0  0  0  0  0  0  0  0  0  0
   54.2613    4.6513   58.8607 H   0  0  0  0  0  0  0  0  0  0  0  0
   54.4588    4.9102   56.4094 H   0  0  0  0  0  0  0  0  0  0  0  0
   56.0336    0.7482   58.5921 H   0  0  0  0  0  0  0  0  0  0  0  0
   56.2642    1.0199   56.1530 H   0  0  0  0  0  0  0  0  0  0  0  0
   55.8850    8.0908   52.3901 H   0  0  0  0  0  0  0  0  0  0  0  0
   55.0421    7.7691   55.2003 H   0  0  0  0  0  0  0  0  0  0  0  0
   56.7671    8.2549   54.9601 H   0  0  0  0  0  0  0  0  0  0  0  0
   55.2510    9.9060   53.2521 H   0  0  0  0  0  0  0  0  0  0  0  0
   54.3648    9.8464   54.8330 H   0  0  0  0  0  0  0  0  0  0  0  0
   56.2691   10.6128   56.0341 H   0  0  0  0  0  0  0  0  0  0  0  0
   57.3425   10.4034   54.6091 H   0  0  0  0  0  0  0  0  0  0  0  0
   56.0909   11.6918   54.6091 H   0  0  0  0  0  0  0  0  0  0  0  0
   55.4078    1.6553   60.6068 H   0  0  0  0  0  0  0  0  0  0  0  0
  1  2  2  0
  1  3  1  0
  1 11  1  0
  2  9  1  0
  3  5  1  0
  3  8  2  0
  4  5  2  0
  4  6  1  0
  6  7  2  0
  6 19  1  0
  7  8  1  0
  9 10  2  0
 10 11  1  0
 10 12  1  0
 11 14  1  0
 12 13  1  0
 13 14  2  0
 13 15  1  0
 15 16  1  0
 16 17  1  0
 17 18  1  0
  2 20  1  0
  4 21  1  0
  5 22  1  0
  7 23  1  0
  8 24  1  0
 15 25  1  0
 16 26  1  0
 16 27  1  0
 17 28  1  0
 17 29  1  0
 18 30  1  0
 18 31  1  0
 18 32  1  0
 19 33  1  0
M  END
>  <filename_input>  (4) 
7OPG_06N_docked.sdf

>  <pdb_id>  (4) 
7OPG_06N

>  <pose_rank>  (4) 
3

>  <num_atoms_heavy>  (4) 
19

>  <num_torsions>  (4) 
3

>  <pose>  (4) 
[55.50876782407497, 3.092482752620439, 54.66242694871478, 0.26623066735792716, -2.7965703696894066, -1.4914711116623534, 3.25875052886516, -0.19017214684457082, 2.891929550214765]

>  <energy>  (4) 
-639.6053614123333

>  <inter_energy>  (4) 
-666.5352772378208

>  <intra_energy>  (4) 
9.78104645185976

>  <rmsd>  (4) 
6.09287

>  <sdf_rank>  (4) 
0

$$$$

     RDKit          3D

 33 35  0  0  0  0  0  0  0  0999 V2000
   55.6334    1.8876   54.6597 C   0  0  0  0  0  0  0  0  0  0  0  0
   55.9897    2.5158   53.5019 C   0  0  0  0  0  0  0  0  0  0  0  0
   55.1960    0.5083   54.9006 C   0  0  0  0  0  0  0  0  0  0  0  0
   54.1421   -1.5317   54.1825 C   0  0  0  0  0  0  0  0  0  0  0  0
   54.5436   -0.2395   53.9221 C   0  0  0  0  0  0  0  0  0  0  0  0
   54.3820   -2.0952   55.4149 C   0  0  0  0  0  0  0  0  0  0  0  0
   55.0378   -1.3634   56.3901 C   0  0  0  0  0  0  0  0  0  0  0  0
   55.4272   -0.0724   56.1312 C   0  0  0  0  0  0  0  0  0  0  0  0
   56.3461    3.8274   53.7114 N   0  0  0  0  0  0  0  0  0  0  0  0
   56.2134    4.0025   54.9952 C   0  0  0  0  0  0  0  0  0  0  0  0
   55.8058    2.8534   55.6119 N   0  0  0  0  0  0  0  0  0  0  0  0
   56.3801    5.3108   56.1374 S   0  0  0  0  0  0  0  0  0  0  0  0
   55.9274    4.0884   57.3121 C   0  0  0  0  0  0  0  0  0  0  0  0
   55.6607    2.8712   56.9660 N   0  0  0  0  0  0  0  0  0  0  0  0
   55.9183    4.3803   58.6159 N   0  0  0  0  0  0  0  0  0  0  0  0
   55.5704    3.3919   59.6167 C   0  0  0  0  0  0  0  0  0  0  0  0
   54.4099    2.5395   59.1576 C   0  0  0  0  0  0  0  0  0  0  0  0
   54.6751    1.0660   59.3768 C   0  0  0  0  0  0  0  0  0  0  0  0
   54.0007   -3.3568   55.7343 O   0  0  0  0  0  0  0  0  0  0  0  0
   55.9917    2.0294   52.5153 H   0  0  0  0  0  0  0  0  0  0  0  0
   53.6286   -2.1143   53.4034 H   0  0  0  0  0  0  0  0  0  0  0  0
   54.3479    0.2049   52.9351 H   0  0  0  0  0  0  0  0  0  0  0  0
   55.2466   -1.8156   57.3709 H   0  0  0  0  0  0  0  0  0  0  0  0
   55.9318    0.5084   56.9173 H   0  0  0  0  0  0  0  0  0  0  0  0
   56.1652    5.3336   58.9177 H   0  0  0  0  0  0  0  0  0  0  0  0
   56.4408    2.7451   59.8009 H   0  0  0  0  0  0  0  0  0  0  0  0
   55.2767    3.9157   60.5383 H   0  0  0  0  0  0  0  0  0  0  0  0
   53.5109    2.8275   59.7224 H   0  0  0  0  0  0  0  0  0  0  0  0
   54.2687    2.7053   58.0794 H   0  0  0  0  0  0  0  0  0  0  0  0
   54.7128    0.8568   60.4561 H   0  0  0  0  0  0  0  0  0  0  0  0
   53.8688    0.4759   58.9168 H   0  0  0  0  0  0  0  0  0  0  0  0
   55.6367    0.7942   58.9168 H   0  0  0  0  0  0  0  0  0  0  0  0
   54.1953   -3.7198   56.6346 H   0  0  0  0  0  0  0  0  0  0  0  0
  1  2  2  0
  1  3  1  0
  1 11  1  0
  2  9  1  0
  3  5  1  0
  3  8  2  0
  4  5  2  0
  4  6  1  0
  6  7  2  0
  6 19  1  0
  7  8  1  0
  9 10  2  0
 10 11  1  0
 10 12  1  0
 11 14  1  0
 12 13  1  0
 13 14  2  0
 13 15  1  0
 15 16  1  0
 16 17  1  0
 17 18  1  0
  2 20  1  0
  4 21  1  0
  5 22  1  0
  7 23  1  0
  8 24  1  0
 15 25  1  0
 16 26  1  0
 16 27  1  0
 17 28  1  0
 17 29  1  0
 18 30  1  0
 18 31  1  0
 18 32  1  0
 19 33  1  0
M  END
>  <filename_input>  (5) 
7OPG_06N_docked.sdf

>  <pdb_id>  (5) 
7OPG_06N

>  <pose_rank>  (5) 
4

>  <num_atoms_heavy>  (5) 
19

>  <num_torsions>  (5) 
3

>  <pose>  (5) 
[55.63339058615374, 1.8875895253097492, 54.65968229098289, 0.24645992813802298, -1.4759626658331864, -3.1610164723028977, -0.7904949867977678, 1.854069789520676, 1.1332208620016824]

>  <energy>  (5) 
-575.246440206442

>  <inter_energy>  (5) 
-647.4007303941803

>  <intra_energy>  (5) 
62.771829413262125

>  <rmsd>  (5) 
4.58882

>  <sdf_rank>  (5) 
0

$$$$

     RDKit          3D

 33 35  0  0  0  0  0  0  0  0999 V2000
   55.7397    1.7865   55.8580 C   0  0  0  0  0  0  0  0  0  0  0  0
   55.8886    0.4556   55.5964 C   0  0  0  0  0  0  0  0  0  0  0  0
   55.7221    2.9403   54.9523 C   0  0  0  0  0  0  0  0  0  0  0  0
   56.3730    5.1822   54.3709 C   0  0  0  0  0  0  0  0  0  0  0  0
   56.4138    4.1150   55.2417 C   0  0  0  0  0  0  0  0  0  0  0  0
   55.6458    5.0963   53.2056 C   0  0  0  0  0  0  0  0  0  0  0  0
   54.9632    3.9301   52.9050 C   0  0  0  0  0  0  0  0  0  0  0  0
   54.9971    2.8723   53.7797 C   0  0  0  0  0  0  0  0  0  0  0  0
   55.8407   -0.3069   56.7399 N   0  0  0  0  0  0  0  0  0  0  0  0
   55.6581    0.5536   57.7005 C   0  0  0  0  0  0  0  0  0  0  0  0
   55.5698    1.8272   57.2140 N   0  0  0  0  0  0  0  0  0  0  0  0
   55.5302    0.5287   59.4404 S   0  0  0  0  0  0  0  0  0  0  0  0
   55.3121    2.2603   59.2577 C   0  0  0  0  0  0  0  0  0  0  0  0
   55.3387    2.8357   58.0999 N   0  0  0  0  0  0  0  0  0  0  0  0
   55.0398    3.0192   60.3231 N   0  0  0  0  0  0  0  0  0  0  0  0
   54.8328    4.4487   60.2088 C   0  0  0  0  0  0  0  0  0  0  0  0
   55.3950    5.1764   61.4082 C   0  0  0  0  0  0  0  0  0  0  0  0
   56.0810    4.2290   62.3682 C   0  0  0  0  0  0  0  0  0  0  0  0
   55.5580    6.1161   52.3159 O   0  0  0  0  0  0  0  0  0  0  0  0
   56.0305    0.0406   54.5877 H   0  0  0  0  0  0  0  0  0  0  0  0
   56.9230    6.1049   54.6077 H   0  0  0  0  0  0  0  0  0  0  0  0
   56.9963    4.1909   56.1717 H   0  0  0  0  0  0  0  0  0  0  0  0
   54.3945    3.8510   51.9667 H   0  0  0  0  0  0  0  0  0  0  0  0
   54.4374    1.9556   53.5421 H   0  0  0  0  0  0  0  0  0  0  0  0
   54.9753    2.5761   61.2507 H   0  0  0  0  0  0  0  0  0  0  0  0
   55.3339    4.8130   59.2999 H   0  0  0  0  0  0  0  0  0  0  0  0
   53.7512    4.6425   60.1574 H   0  0  0  0  0  0  0  0  0  0  0  0
   56.1249    5.9230   61.0620 H   0  0  0  0  0  0  0  0  0  0  0  0
   54.5602    5.6570   61.9394 H   0  0  0  0  0  0  0  0  0  0  0  0
   55.8613    4.5323   63.4025 H   0  0  0  0  0  0  0  0  0  0  0  0
   55.7126    3.2062   62.1999 H   0  0  0  0  0  0  0  0  0  0  0  0
   57.1676    4.2597   62.1999 H   0  0  0  0  0  0  0  0  0  0  0  0
   55.0225    6.0079   51.4903 H   0  0  0  0  0  0  0  0  0  0  0  0
  1  2  2  0
  1  3  1  0
  1 11  1  0
  2  9  1  0
  3  5  1  0
  3  8  2  0
  4  5  2  0
  4  6  1  0
  6  7  2  0
  6 19  1  0
  7  8  1  0
  9 10  2  0
 10 11  1  0
 10 12  1  0
 11 14  1  0
 12 13  1  0
 13 14  2  0
 13 15  1  0
 15 16  1  0
 16 17  1  0
 17 18  1  0
  2 20  1  0
  4 21  1  0
  5 22  1  0
  7 23  1  0
  8 24  1  0
 15 25  1  0
 16 26  1  0
 16 27  1  0
 17 28  1  0
 17 29  1  0
 18 30  1  0
 18 31  1  0
 18 32  1  0
 19 33  1  0
M  END
>  <filename_input>  (6) 
7OPG_06N_docked.sdf

>  <pdb_id>  (6) 
7OPG_06N

>  <pose_rank>  (6) 
5

>  <num_atoms_heavy>  (6) 
19

>  <num_torsions>  (6) 
3

>  <pose>  (6) 
[55.73969602430588, 1.7865494808575877, 55.85801318677863, -3.025145387821719, 0.8369281358896321, -5.438253870371347, 3.6048574933371267, -6.234994802807987, 5.148086913877849]

>  <energy>  (6) 
-719.9383084623283

>  <inter_energy>  (6) 
-708.4666178340146

>  <intra_energy>  (6) 
4.589576201359145

>  <rmsd>  (6) 
0.708536

>  <sdf_rank>  (6) 
0

$$$$

     RDKit          3D

 33 35  0  0  0  0  0  0  0  0999 V2000
   55.3316    1.0138   55.6824 C   0  0  0  0  0  0  0  0  0  0  0  0
   55.1795   -0.3088   55.3830 C   0  0  0  0  0  0  0  0  0  0  0  0
   55.4783    2.1796   54.8043 C   0  0  0  0  0  0  0  0  0  0  0  0
   55.8340    3.1637   52.6380 C   0  0  0  0  0  0  0  0  0  0  0  0
   55.6964    2.0475   53.4343 C   0  0  0  0  0  0  0  0  0  0  0  0
   55.7578    4.4214   53.1915 C   0  0  0  0  0  0  0  0  0  0  0  0
   55.5318    4.5628   54.5499 C   0  0  0  0  0  0  0  0  0  0  0  0
   55.4058    3.4486   55.3424 C   0  0  0  0  0  0  0  0  0  0  0  0
   55.0696   -1.0873   56.5112 N   0  0  0  0  0  0  0  0  0  0  0  0
   55.1493   -0.2441   57.5007 C   0  0  0  0  0  0  0  0  0  0  0  0
   55.2867    1.0379   57.0487 N   0  0  0  0  0  0  0  0  0  0  0  0
   55.1635   -0.3071   59.2443 S   0  0  0  0  0  0  0  0  0  0  0  0
   55.2944    1.4381   59.1152 C   0  0  0  0  0  0  0  0  0  0  0  0
   55.3435    2.0386   57.9709 N   0  0  0  0  0  0  0  0  0  0  0  0
   55.2743    2.1965   60.2150 N   0  0  0  0  0  0  0  0  0  0  0  0
   55.3590    3.6413   60.1472 C   0  0  0  0  0  0  0  0  0  0  0  0
   56.6200    4.1431   60.8122 C   0  0  0  0  0  0  0  0  0  0  0  0
   57.7584    4.2798   59.8248 C   0  0  0  0  0  0  0  0  0  0  0  0
   55.8968    5.5563   52.4621 O   0  0  0  0  0  0  0  0  0  0  0  0
   55.1484   -0.7062   54.3578 H   0  0  0  0  0  0  0  0  0  0  0  0
   56.0051    3.0492   51.5575 H   0  0  0  0  0  0  0  0  0  0  0  0
   55.7593    1.0452   52.9854 H   0  0  0  0  0  0  0  0  0  0  0  0
   55.4534    5.5662   54.9938 H   0  0  0  0  0  0  0  0  0  0  0  0
   55.2444    3.5693   56.4238 H   0  0  0  0  0  0  0  0  0  0  0  0
   55.1965    1.7417   61.1359 H   0  0  0  0  0  0  0  0  0  0  0  0
   55.3608    3.9522   59.0921 H   0  0  0  0  0  0  0  0  0  0  0  0
   54.4924    4.0677   60.6738 H   0  0  0  0  0  0  0  0  0  0  0  0
   56.4185    5.1266   61.2619 H   0  0  0  0  0  0  0  0  0  0  0  0
   56.9173    3.4121   61.5785 H   0  0  0  0  0  0  0  0  0  0  0  0
   58.7062    4.3935   60.3714 H   0  0  0  0  0  0  0  0  0  0  0  0
   57.8054    3.3808   59.1926 H   0  0  0  0  0  0  0  0  0  0  0  0
   57.5913    5.1643   59.1926 H   0  0  0  0  0  0  0  0  0  0  0  0
   55.8343    6.4398   52.9044 H   0  0  0  0  0  0  0  0  0  0  0  0
  1  2  2  0
  1  3  1  0
  1 11  1  0
  2  9  1  0
  3  5  1  0
  3  8  2  0
  4  5  2  0
  4  6  1  0
  6  7  2  0
  6 19  1  0
  7  8  1  0
  9 10  2  0
 10 11  1  0
 10 12  1  0
 11 14  1  0
 12 13  1  0
 13 14  2  0
 13 15  1  0
 15 16  1  0
 16 17  1  0
 17 18  1  0
  2 20  1  0
  4 21  1  0
  5 22  1  0
  7 23  1  0
  8 24  1  0
 15 25  1  0
 16 26  1  0
 16 27  1  0
 17 28  1  0
 17 29  1  0
 18 30  1  0
 18 31  1  0
 18 32  1  0
 19 33  1  0
M  END
>  <filename_input>  (7) 
7OPG_06N_docked.sdf

>  <pdb_id>  (7) 
7OPG_06N

>  <pose_rank>  (7) 
6

>  <num_atoms_heavy>  (7) 
19

>  <num_torsions>  (7) 
3

>  <pose>  (7) 
[55.331565635482875, 1.01378399422649, 55.682443872756195, 0.030599176448147858, 0.0856809686069292, -0.20412649683388007, -19.33848094715645, 0.5341343149062451, 0.4222482473279713]

>  <energy>  (7) 
-791.1105173982486

>  <inter_energy>  (7) 
-795.566090949375

>  <intra_energy>  (7) 
15.402432454928789

>  <rmsd>  (7) 
0.725423

>  <sdf_rank>  (7) 
0

$$$$

     RDKit          3D

 33 35  0  0  0  0  0  0  0  0999 V2000
   55.6789    1.8303   58.3972 C   0  0  0  0  0  0  0  0  0  0  0  0
   55.8486    0.4849   58.5490 C   0  0  0  0  0  0  0  0  0  0  0  0
   55.5169    2.8901   59.3983 C   0  0  0  0  0  0  0  0  0  0  0  0
   54.1754    4.1418   60.9545 C   0  0  0  0  0  0  0  0  0  0  0  0
   54.2944    3.1353   60.0208 C   0  0  0  0  0  0  0  0  0  0  0  0
   55.2659    4.9157   61.2797 C   0  0  0  0  0  0  0  0  0  0  0  0
   56.4868    4.6734   60.6737 C   0  0  0  0  0  0  0  0  0  0  0  0
   56.5997    3.6768   59.7360 C   0  0  0  0  0  0  0  0  0  0  0  0
   55.9685   -0.1629   57.3419 N   0  0  0  0  0  0  0  0  0  0  0  0
   55.8774    0.7833   56.4514 C   0  0  0  0  0  0  0  0  0  0  0  0
   55.7231    2.0056   57.0420 N   0  0  0  0  0  0  0  0  0  0  0  0
   55.8635    0.9129   54.7115 S   0  0  0  0  0  0  0  0  0  0  0  0
   55.7096    2.6313   55.0322 C   0  0  0  0  0  0  0  0  0  0  0  0
   55.6528    3.1011   56.2357 N   0  0  0  0  0  0  0  0  0  0  0  0
   55.7194    3.5066   54.0228 N   0  0  0  0  0  0  0  0  0  0  0  0
   55.6155    4.9339   54.2495 C   0  0  0  0  0  0  0  0  0  0  0  0
   56.8211    5.6603   53.6988 C   0  0  0  0  0  0  0  0  0  0  0  0
   56.5311    6.2881   52.3530 C   0  0  0  0  0  0  0  0  0  0  0  0
   55.2083    5.9272   62.1811 O   0  0  0  0  0  0  0  0  0  0  0  0
   55.8852   -0.0228   59.5242 H   0  0  0  0  0  0  0  0  0  0  0  0
   53.2064    4.3271   61.4410 H   0  0  0  0  0  0  0  0  0  0  0  0
   53.4184    2.5212   59.7650 H   0  0  0  0  0  0  0  0  0  0  0  0
   57.3651    5.2785   60.9429 H   0  0  0  0  0  0  0  0  0  0  0  0
   57.5689    3.5024   59.2458 H   0  0  0  0  0  0  0  0  0  0  0  0
   55.8029    3.1573   53.0575 H   0  0  0  0  0  0  0  0  0  0  0  0
   54.7100    5.3119   53.7523 H   0  0  0  0  0  0  0  0  0  0  0  0
   55.5641    5.1132   55.3336 H   0  0  0  0  0  0  0  0  0  0  0  0
   57.1139    6.4511   54.4052 H   0  0  0  0  0  0  0  0  0  0  0  0
   57.6315    4.9282   53.5677 H   0  0  0  0  0  0  0  0  0  0  0  0
   56.0741    7.2777   52.5008 H   0  0  0  0  0  0  0  0  0  0  0  0
   57.4696    6.3981   51.7899 H   0  0  0  0  0  0  0  0  0  0  0  0
   55.8389    5.6449   51.7899 H   0  0  0  0  0  0  0  0  0  0  0  0
   56.0197    6.4572   62.3831 H   0  0  0  0  0  0  0  0  0  0  0  0
  1  2  2  0
  1  3  1  0
  1 11  1  0
  2  9  1  0
  3  5  1  0
  3  8  2  0
  4  5  2  0
  4  6  1  0
  6  7  2  0
  6 19  1  0
  7  8  1  0
  9 10  2  0
 10 11  1  0
 10 12  1  0
 11 14  1  0
 12 13  1  0
 13 14  2  0
 13 15  1  0
 15 16  1  0
 16 17  1  0
 17 18  1  0
  2 20  1  0
  4 21  1  0
  5 22  1  0
  7 23  1  0
  8 24  1  0
 15 25  1  0
 16 26  1  0
 16 27  1  0
 17 28  1  0
 17 29  1  0
 18 30  1  0
 18 31  1  0
 18 32  1  0
 19 33  1  0
M  END
>  <filename_input>  (8) 
7OPG_06N_docked.sdf

>  <pdb_id>  (8) 
7OPG_06N

>  <pose_rank>  (8) 
7

>  <num_atoms_heavy>  (8) 
19

>  <num_torsions>  (8) 
3

>  <pose>  (8) 
[55.67889587074975, 1.8303471245295866, 58.39715386400337, 0.33968936914539233, -3.046883705398359, -0.12083599935818402, -1.7023494378249142, -7.896988113807939, -5.723057411605185]

>  <energy>  (8) 
-596.400292149251

>  <inter_energy>  (8) 
-603.5403895659397

>  <intra_energy>  (8) 
0.024379367336783413

>  <rmsd>  (8) 
5.85892

>  <sdf_rank>  (8) 
0

$$$$

     RDKit          3D

 33 35  0  0  0  0  0  0  0  0999 V2000
   55.3350    1.2201   57.9137 C   0  0  0  0  0  0  0  0  0  0  0  0
   55.1420   -0.1244   58.0444 C   0  0  0  0  0  0  0  0  0  0  0  0
   55.5461    2.0413   56.7167 C   0  0  0  0  0  0  0  0  0  0  0  0
   55.2010    4.0548   55.4460 C   0  0  0  0  0  0  0  0  0  0  0  0
   54.9862    3.3108   56.5858 C   0  0  0  0  0  0  0  0  0  0  0  0
   55.9715    3.5480   54.4245 C   0  0  0  0  0  0  0  0  0  0  0  0
   56.5397    2.2918   54.5495 C   0  0  0  0  0  0  0  0  0  0  0  0
   56.3152    1.5485   55.6819 C   0  0  0  0  0  0  0  0  0  0  0  0
   54.9756   -0.5000   59.3568 N   0  0  0  0  0  0  0  0  0  0  0  0
   55.0616    0.6119   60.0296 C   0  0  0  0  0  0  0  0  0  0  0  0
   55.2570    1.6791   59.1992 N   0  0  0  0  0  0  0  0  0  0  0  0
   55.0302    1.1070   61.7024 S   0  0  0  0  0  0  0  0  0  0  0  0
   55.2280    2.7160   61.0308 C   0  0  0  0  0  0  0  0  0  0  0  0
   55.3276    2.9194   59.7575 N   0  0  0  0  0  0  0  0  0  0  0  0
   55.2084    3.7854   61.8316 N   0  0  0  0  0  0  0  0  0  0  0  0
   55.3476    5.1306   61.3117 C   0  0  0  0  0  0  0  0  0  0  0  0
   54.7239    6.1413   62.2465 C   0  0  0  0  0  0  0  0  0  0  0  0
   55.6860    6.5684   63.3334 C   0  0  0  0  0  0  0  0  0  0  0  0
   56.2088    4.2270   53.2748 O   0  0  0  0  0  0  0  0  0  0  0  0
   55.1219   -0.8266   57.1979 H   0  0  0  0  0  0  0  0  0  0  0  0
   54.7554    5.0561   55.3523 H   0  0  0  0  0  0  0  0  0  0  0  0
   54.3685    3.7217   57.3980 H   0  0  0  0  0  0  0  0  0  0  0  0
   57.1702    1.8897   53.7427 H   0  0  0  0  0  0  0  0  0  0  0  0
   56.7555    0.5440   55.7659 H   0  0  0  0  0  0  0  0  0  0  0  0
   55.0911    3.6497   62.8458 H   0  0  0  0  0  0  0  0  0  0  0  0
   56.4166    5.3617   61.1940 H   0  0  0  0  0  0  0  0  0  0  0  0
   54.8316    5.1861   60.3418 H   0  0  0  0  0  0  0  0  0  0  0  0
   54.4260    7.0270   61.6662 H   0  0  0  0  0  0  0  0  0  0  0  0
   53.8522    5.6719   62.7260 H   0  0  0  0  0  0  0  0  0  0  0  0
   55.2383    6.3697   64.3183 H   0  0  0  0  0  0  0  0  0  0  0  0
   56.6241    6.0022   63.2360 H   0  0  0  0  0  0  0  0  0  0  0  0
   55.8952    7.6440   63.2360 H   0  0  0  0  0  0  0  0  0  0  0  0
   56.7701    3.8215   52.5673 H   0  0  0  0  0  0  0  0  0  0  0  0
  1  2  2  0
  1  3  1  0
  1 11  1  0
  2  9  1  0
  3  5  1  0
  3  8  2  0
  4  5  2  0
  4  6  1  0
  6  7  2  0
  6 19  1  0
  7  8  1  0
  9 10  2  0
 10 11  1  0
 10 12  1  0
 11 14  1  0
 12 13  1  0
 13 14  2  0
 13 15  1  0
 15 16  1  0
 16 17  1  0
 17 18  1  0
  2 20  1  0
  4 21  1  0
  5 22  1  0
  7 23  1  0
  8 24  1  0
 15 25  1  0
 16 26  1  0
 16 27  1  0
 17 28  1  0
 17 29  1  0
 18 30  1  0
 18 31  1  0
 18 32  1  0
 19 33  1  0
M  END
>  <filename_input>  (9) 
7OPG_06N_docked.sdf

>  <pdb_id>  (9) 
7OPG_06N

>  <pose_rank>  (9) 
8

>  <num_atoms_heavy>  (9) 
19

>  <num_torsions>  (9) 
3

>  <pose>  (9) 
[55.33497118033486, 1.220086326566676, 57.913717061180485, -0.2872791768415545, 0.020930135699394038, -0.24775254244161554, -10.398110733863746, -13.572758542578296, -5.975274747674306]

>  <energy>  (9) 
-582.0214225148358

>  <inter_energy>  (9) 
-570.7918283682978

>  <intra_energy>  (9) 
7.087050499831168

>  <rmsd>  (9) 
2.40487

>  <sdf_rank>  (9) 
0

$$$$

     RDKit          3D

 33 35  0  0  0  0  0  0  0  0999 V2000
   56.4882    4.3294   57.3965 C   0  0  0  0  0  0  0  0  0  0  0  0
   57.2598    5.3831   57.7917 C   0  0  0  0  0  0  0  0  0  0  0  0
   56.0385    3.9250   56.0600 C   0  0  0  0  0  0  0  0  0  0  0  0
   55.6217    4.3939   53.7375 C   0  0  0  0  0  0  0  0  0  0  0  0
   56.0550    4.8048   54.9794 C   0  0  0  0  0  0  0  0  0  0  0  0
   55.1668    3.1080   53.5545 C   0  0  0  0  0  0  0  0  0  0  0  0
   55.1556    2.2240   54.6198 C   0  0  0  0  0  0  0  0  0  0  0  0
   55.5780    2.6395   55.8584 C   0  0  0  0  0  0  0  0  0  0  0  0
   57.4560    5.4015   59.1527 N   0  0  0  0  0  0  0  0  0  0  0  0
   56.8102    4.3588   59.5913 C   0  0  0  0  0  0  0  0  0  0  0  0
   56.2281    3.6695   58.5653 N   0  0  0  0  0  0  0  0  0  0  0  0
   56.4563    3.6214   61.1324 S   0  0  0  0  0  0  0  0  0  0  0  0
   55.6102    2.4352   60.1545 C   0  0  0  0  0  0  0  0  0  0  0  0
   55.5480    2.5284   58.8661 N   0  0  0  0  0  0  0  0  0  0  0  0
   55.0653    1.3580   60.7270 N   0  0  0  0  0  0  0  0  0  0  0  0
   54.3772    0.3468   59.9503 C   0  0  0  0  0  0  0  0  0  0  0  0
   55.3604   -0.5485   59.2319 C   0  0  0  0  0  0  0  0  0  0  0  0
   56.3485   -1.1783   60.1893 C   0  0  0  0  0  0  0  0  0  0  0  0
   54.7170    2.6493   52.3601 O   0  0  0  0  0  0  0  0  0  0  0  0
   57.6768    6.1313   57.1015 H   0  0  0  0  0  0  0  0  0  0  0  0
   55.6393    5.0954   52.8904 H   0  0  0  0  0  0  0  0  0  0  0  0
   56.4165    5.8343   55.1187 H   0  0  0  0  0  0  0  0  0  0  0  0
   54.8087    1.1904   54.4742 H   0  0  0  0  0  0  0  0  0  0  0  0
   55.5491    1.9363   56.7039 H   0  0  0  0  0  0  0  0  0  0  0  0
   55.1364    1.2433   61.7482 H   0  0  0  0  0  0  0  0  0  0  0  0
   53.7594   -0.2652   60.6239 H   0  0  0  0  0  0  0  0  0  0  0  0
   53.7489    0.8493   59.2001 H   0  0  0  0  0  0  0  0  0  0  0  0
   54.8052   -1.3465   58.7171 H   0  0  0  0  0  0  0  0  0  0  0  0
   55.9232    0.0669   58.5147 H   0  0  0  0  0  0  0  0  0  0  0  0
   56.0345   -0.9782   61.2244 H   0  0  0  0  0  0  0  0  0  0  0  0
   56.3819   -2.2646   60.0198 H   0  0  0  0  0  0  0  0  0  0  0  0
   57.3473   -0.7498   60.0198 H   0  0  0  0  0  0  0  0  0  0  0  0
   54.3992    1.7154   52.2764 H   0  0  0  0  0  0  0  0  0  0  0  0
  1  2  2  0
  1  3  1  0
  1 11  1  0
  2  9  1  0
  3  5  1  0
  3  8  2  0
  4  5  2  0
  4  6  1  0
  6  7  2  0
  6 19  1  0
  7  8  1  0
  9 10  2  0
 10 11  1  0
 10 12  1  0
 11 14  1  0
 12 13  1  0
 13 14  2  0
 13 15  1  0
 15 16  1  0
 16 17  1  0
 17 18  1  0
  2 20  1  0
  4 21  1  0
  5 22  1  0
  7 23  1  0
  8 24  1  0
 15 25  1  0
 16 26  1  0
 16 27  1  0
 17 28  1  0
 17 29  1  0
 18 30  1  0
 18 31  1  0
 18 32  1  0
 19 33  1  0
M  END
>  <filename_input>  (10) 
7OPG_06N_docked.sdf

>  <pdb_id>  (10) 
7OPG_06N

>  <pose_rank>  (10) 
9

>  <num_atoms_heavy>  (10) 
19

>  <num_torsions>  (10) 
3

>  <pose>  (10) 
[56.488204171197914, 4.32935026606632, 57.39646356670277, 0.23117664499214927, 0.9617753214017902, -3.72909170459273, -0.6182389065232461, 3.9015040582315073, 6.06552931541661]

>  <energy>  (10) 
-502.7290271081763

>  <inter_energy>  (10) 
-507.373363164161

>  <intra_energy>  (10) 
25.30875916298225

>  <rmsd>  (10) 
3.7786

>  <sdf_rank>  (10) 
0

$$$$

     RDKit          3D

 33 35  0  0  0  0  0  0  0  0999 V2000
   55.4231    2.9022   53.4339 C   0  0  0  0  0  0  0  0  0  0  0  0
   55.4011    3.6250   52.2768 C   0  0  0  0  0  0  0  0  0  0  0  0
   55.4360    1.4517   53.6522 C   0  0  0  0  0  0  0  0  0  0  0  0
   54.3317   -0.6841   53.7348 C   0  0  0  0  0  0  0  0  0  0  0  0
   54.2859    0.6761   53.5186 C   0  0  0  0  0  0  0  0  0  0  0  0
   55.5169   -1.2888   54.0864 C   0  0  0  0  0  0  0  0  0  0  0  0
   56.6666   -0.5280   54.2122 C   0  0  0  0  0  0  0  0  0  0  0  0
   56.6156    0.8286   54.0065 C   0  0  0  0  0  0  0  0  0  0  0  0
   55.4014    4.9801   52.5109 N   0  0  0  0  0  0  0  0  0  0  0  0
   55.4283    5.0888   53.8086 C   0  0  0  0  0  0  0  0  0  0  0  0
   55.4635    3.8613   54.4074 N   0  0  0  0  0  0  0  0  0  0  0  0
   55.3966    6.3712   54.9912 S   0  0  0  0  0  0  0  0  0  0  0  0
   55.4976    5.0514   56.1433 C   0  0  0  0  0  0  0  0  0  0  0  0
   55.5341    3.8147   55.7668 N   0  0  0  0  0  0  0  0  0  0  0  0
   55.6117    5.3072   57.4497 N   0  0  0  0  0  0  0  0  0  0  0  0
   55.7185    4.2446   58.4289 C   0  0  0  0  0  0  0  0  0  0  0  0
   54.5958    4.3210   59.4378 C   0  0  0  0  0  0  0  0  0  0  0  0
   54.5444    5.6713   60.1185 C   0  0  0  0  0  0  0  0  0  0  0  0
   55.6221   -2.6199   54.3236 O   0  0  0  0  0  0  0  0  0  0  0  0
   55.3850    3.1757   51.2728 H   0  0  0  0  0  0  0  0  0  0  0  0
   53.4187   -1.2880   53.6262 H   0  0  0  0  0  0  0  0  0  0  0  0
   53.3350    1.1529   53.2387 H   0  0  0  0  0  0  0  0  0  0  0  0
   57.6196   -1.0096   54.4766 H   0  0  0  0  0  0  0  0  0  0  0  0
   57.5297    1.4287   54.1260 H   0  0  0  0  0  0  0  0  0  0  0  0
   55.6240    6.2863   57.7694 H   0  0  0  0  0  0  0  0  0  0  0  0
   55.6727    3.2743   57.9128 H   0  0  0  0  0  0  0  0  0  0  0  0
   56.6750    4.3541   58.9610 H   0  0  0  0  0  0  0  0  0  0  0  0
   53.6404    4.1457   58.9215 H   0  0  0  0  0  0  0  0  0  0  0  0
   54.7746    3.5560   60.2077 H   0  0  0  0  0  0  0  0  0  0  0  0
   54.5497    5.5323   61.2097 H   0  0  0  0  0  0  0  0  0  0  0  0
   55.4205    6.2658   59.8204 H   0  0  0  0  0  0  0  0  0  0  0  0
   53.6256    6.1975   59.8204 H   0  0  0  0  0  0  0  0  0  0  0  0
   56.4967   -3.0104   54.5740 H   0  0  0  0  0  0  0  0  0  0  0  0
  1  2  2  0
  1  3  1  0
  1 11  1  0
  2  9  1  0
  3  5  1  0
  3  8  2  0
  4  5  2  0
  4  6  1  0
  6  7  2  0
  6 19  1  0
  7  8  1  0
  9 10  2  0
 10 11  1  0
 10 12  1  0
 11 14  1  0
 12 13  1  0
 13 14  2  0
 13 15  1  0
 15 16  1  0
 16 17  1  0
 17 18  1  0
  2 20  1  0
  4 21  1  0
  5 22  1  0
  7 23  1  0
  8 24  1  0
 15 25  1  0
 16 26  1  0
 16 27  1  0
 17 28  1  0
 17 29  1  0
 18 30  1  0
 18 31  1  0
 18 32  1  0
 19 33  1  0
M  END
>  <filename_input>  (11) 
7OPG_06N_docked.sdf

>  <pdb_id>  (11) 
7OPG_06N

>  <pose_rank>  (11) 
10

>  <num_atoms_heavy>  (11) 
19

>  <num_torsions>  (11) 
3

>  <pose>  (11) 
[55.42307925327224, 2.9021821488355566, 53.433942896560374, 0.17964893791883527, -1.2563683643014742, -2.907442055510304, -1.650736704402157, 0.4467284869093735, 4.123009977210681]

>  <energy>  (11) 
-678.4454063994815

>  <inter_energy>  (11) 
-679.6302410573373

>  <intra_energy>  (11) 
0.1422955013413417

>  <rmsd>  (11) 
4.66581

>  <sdf_rank>  (11) 
0

$$$$

     RDKit          3D

 33 35  0  0  0  0  0  0  0  0999 V2000
   55.6382    1.3307   55.5528 C   0  0  0  0  0  0  0  0  0  0  0  0
   55.8174    0.0059   55.2791 C   0  0  0  0  0  0  0  0  0  0  0  0
   55.5953    2.4921   54.6579 C   0  0  0  0  0  0  0  0  0  0  0  0
   56.1221    4.7811   54.1375 C   0  0  0  0  0  0  0  0  0  0  0  0
   56.1841    3.7081   54.9998 C   0  0  0  0  0  0  0  0  0  0  0  0
   55.4754    4.6603   52.9287 C   0  0  0  0  0  0  0  0  0  0  0  0
   54.8958    3.4535   52.5762 C   0  0  0  0  0  0  0  0  0  0  0  0
   54.9500    2.3893   53.4421 C   0  0  0  0  0  0  0  0  0  0  0  0
   55.7857   -0.7680   56.4153 N   0  0  0  0  0  0  0  0  0  0  0  0
   55.5828    0.0791   57.3837 C   0  0  0  0  0  0  0  0  0  0  0  0
   55.4661    1.3549   56.9089 N   0  0  0  0  0  0  0  0  0  0  0  0
   55.4538    0.0350   59.1231 S   0  0  0  0  0  0  0  0  0  0  0  0
   55.1968    1.7629   58.9563 C   0  0  0  0  0  0  0  0  0  0  0  0
   55.2114    2.3495   57.8039 N   0  0  0  0  0  0  0  0  0  0  0  0
   54.9063    2.5055   60.0284 N   0  0  0  0  0  0  0  0  0  0  0  0
   54.6671    3.9309   59.9272 C   0  0  0  0  0  0  0  0  0  0  0  0
   55.0335    4.6357   61.2130 C   0  0  0  0  0  0  0  0  0  0  0  0
   55.4318    3.6563   62.2954 C   0  0  0  0  0  0  0  0  0  0  0  0
   55.3711    5.6830   52.0441 O   0  0  0  0  0  0  0  0  0  0  0  0
   55.9697   -0.3963   54.2667 H   0  0  0  0  0  0  0  0  0  0  0  0
   56.5906    5.7366   54.4159 H   0  0  0  0  0  0  0  0  0  0  0  0
   56.7019    3.8120   55.9647 H   0  0  0  0  0  0  0  0  0  0  0  0
   54.3925    3.3474   51.6038 H   0  0  0  0  0  0  0  0  0  0  0  0
   54.4714    1.4392   53.1622 H   0  0  0  0  0  0  0  0  0  0  0  0
   54.8510    2.0524   60.9517 H   0  0  0  0  0  0  0  0  0  0  0  0
   55.2753    4.3402   59.1070 H   0  0  0  0  0  0  0  0  0  0  0  0
   53.5967    4.0931   59.7321 H   0  0  0  0  0  0  0  0  0  0  0  0
   55.8769    5.3148   61.0191 H   0  0  0  0  0  0  0  0  0  0  0  0
   54.1510    5.1918   61.5622 H   0  0  0  0  0  0  0  0  0  0  0  0
   55.2488    4.1063   63.2824 H   0  0  0  0  0  0  0  0  0  0  0  0
   54.8361    2.7370   62.1954 H   0  0  0  0  0  0  0  0  0  0  0  0
   56.5001    3.4137   62.1954 H   0  0  0  0  0  0  0  0  0  0  0  0
   54.8959    5.5487   51.1861 H   0  0  0  0  0  0  0  0  0  0  0  0
  1  2  2  0
  1  3  1  0
  1 11  1  0
  2  9  1  0
  3  5  1  0
  3  8  2  0
  4  5  2  0
  4  6  1  0
  6  7  2  0
  6 19  1  0
  7  8  1  0
  9 10  2  0
 10 11  1  0
 10 12  1  0
 11 14  1  0
 12 13  1  0
 13 14  2  0
 13 15  1  0
 15 16  1  0
 16 17  1  0
 17 18  1  0
  2 20  1  0
  4 21  1  0
  5 22  1  0
  7 23  1  0
  8 24  1  0
 15 25  1  0
 16 26  1  0
 16 27  1  0
 17 28  1  0
 17 29  1  0
 18 30  1  0
 18 31  1  0
 18 32  1  0
 19 33  1  0
M  END
>  <filename_input>  (12) 
7OPG_06N_docked.sdf

>  <pdb_id>  (12) 
7OPG_06N

>  <pose_rank>  (12) 
11

>  <num_atoms_heavy>  (12) 
19

>  <num_torsions>  (12) 
3

>  <pose>  (12) 
[55.63819643512707, 1.3306879765955446, 55.552835136219464, -2.4733559311188866, 0.351158606066228, -5.734036618010075, 3.5280695098590074, -6.374267018004535, 5.0096933788236875]

>  <energy>  (12) 
-741.7022183895641

>  <inter_energy>  (12) 
-724.7728566827852

>  <intra_energy>  (12) 
5.698220168707759

>  <rmsd>  (12) 
0.504264

>  <sdf_rank>  (12) 
0

$$$$

     RDKit          3D

 33 35  0  0  0  0  0  0  0  0999 V2000
   55.6111    2.5598   58.8910 C   0  0  0  0  0  0  0  0  0  0  0  0
   55.9696    3.8690   58.7510 C   0  0  0  0  0  0  0  0  0  0  0  0
   55.4879    1.4927   57.8921 C   0  0  0  0  0  0  0  0  0  0  0  0
   55.7479    0.6521   55.6530 C   0  0  0  0  0  0  0  0  0  0  0  0
   55.8809    1.6743   56.5674 C   0  0  0  0  0  0  0  0  0  0  0  0
   55.2234   -0.5595   56.0417 C   0  0  0  0  0  0  0  0  0  0  0  0
   54.8392   -0.7524   57.3576 C   0  0  0  0  0  0  0  0  0  0  0  0
   54.9631    0.2714   58.2640 C   0  0  0  0  0  0  0  0  0  0  0  0
   55.9661    4.5396   59.9516 N   0  0  0  0  0  0  0  0  0  0  0  0
   55.6108    3.6431   60.8271 C   0  0  0  0  0  0  0  0  0  0  0  0
   55.4065    2.4281   60.2364 N   0  0  0  0  0  0  0  0  0  0  0  0
   55.2909    3.5772   62.5410 S   0  0  0  0  0  0  0  0  0  0  0  0
   54.9803    1.8795   62.2234 C   0  0  0  0  0  0  0  0  0  0  0  0
   55.0670    1.3780   61.0346 N   0  0  0  0  0  0  0  0  0  0  0  0
   54.7127    1.0453   63.2322 N   0  0  0  0  0  0  0  0  0  0  0  0
   54.4715   -0.3663   63.0115 C   0  0  0  0  0  0  0  0  0  0  0  0
   54.9855   -1.1922   64.1682 C   0  0  0  0  0  0  0  0  0  0  0  0
   54.1659   -0.9737   65.4212 C   0  0  0  0  0  0  0  0  0  0  0  0
   55.0571   -1.5983   55.1859 O   0  0  0  0  0  0  0  0  0  0  0  0
   56.2312    4.3340   57.7891 H   0  0  0  0  0  0  0  0  0  0  0  0
   56.0616    0.8048   54.6098 H   0  0  0  0  0  0  0  0  0  0  0  0
   56.3000    2.6404   56.2496 H   0  0  0  0  0  0  0  0  0  0  0  0
   54.4352   -1.7246   57.6765 H   0  0  0  0  0  0  0  0  0  0  0  0
   54.6387    0.1159   59.3036 H   0  0  0  0  0  0  0  0  0  0  0  0
   54.6768    1.4157   64.1926 H   0  0  0  0  0  0  0  0  0  0  0  0
   53.3897   -0.5335   62.9031 H   0  0  0  0  0  0  0  0  0  0  0  0
   55.0030   -0.6735   62.0988 H   0  0  0  0  0  0  0  0  0  0  0  0
   54.9401   -2.2565   63.8939 H   0  0  0  0  0  0  0  0  0  0  0  0
   56.0200   -0.8822   64.3773 H   0  0  0  0  0  0  0  0  0  0  0  0
   54.7972   -1.1420   66.3062 H   0  0  0  0  0  0  0  0  0  0  0  0
   53.7839    0.0578   65.4342 H   0  0  0  0  0  0  0  0  0  0  0  0
   53.3210   -1.6779   65.4342 H   0  0  0  0  0  0  0  0  0  0  0  0
   54.6753   -2.4517   55.5115 H   0  0  0  0  0  0  0  0  0  0  0  0
  1  2  2  0
  1  3  1  0
  1 11  1  0
  2  9  1  0
  3  5  1  0
  3  8  2  0
  4  5  2  0
  4  6  1  0
  6  7  2  0
  6 19  1  0
  7  8  1  0
  9 10  2  0
 10 11  1  0
 10 12  1  0
 11 14  1  0
 12 13  1  0
 13 14  2  0
 13 15  1  0
 15 16  1  0
 16 17  1  0
 17 18  1  0
  2 20  1  0
  4 21  1  0
  5 22  1  0
  7 23  1  0
  8 24  1  0
 15 25  1  0
 16 26  1  0
 16 27  1  0
 17 28  1  0
 17 29  1  0
 18 30  1  0
 18 31  1  0
 18 32  1  0
 19 33  1  0
M  END
>  <filename_input>  (13) 
7OPG_06N_docked.sdf

>  <pdb_id>  (13) 
7OPG_06N

>  <pose_rank>  (13) 
12

>  <num_atoms_heavy>  (13) 
19

>  <num_torsions>  (13) 
3

>  <pose>  (13) 
[55.61106935593271, 2.5598074375661533, 58.891027455614186, 0.4384105195084376, 0.1196825816146804, -3.4477653764123355, -0.18682623019803107, -1.1656526986763893, 6.303700559057448]

>  <energy>  (13) 
-471.15682344776

>  <inter_energy>  (13) 
-489.7912365768396

>  <intra_energy>  (13) 
15.331246432085758

>  <rmsd>  (13) 
5.21343

>  <sdf_rank>  (13) 
0

$$$$

     RDKit          3D

 33 35  0  0  0  0  0  0  0  0999 V2000
   54.6215    3.2911   57.4025 C   0  0  0  0  0  0  0  0  0  0  0  0
   54.2264    4.5751   57.6416 C   0  0  0  0  0  0  0  0  0  0  0  0
   54.8213    2.5745   56.1382 C   0  0  0  0  0  0  0  0  0  0  0  0
   55.4086    2.5250   53.8057 C   0  0  0  0  0  0  0  0  0  0  0  0
   55.2343    3.2275   54.9784 C   0  0  0  0  0  0  0  0  0  0  0  0
   55.1745    1.1693   53.7706 C   0  0  0  0  0  0  0  0  0  0  0  0
   54.7732    0.5104   54.9200 C   0  0  0  0  0  0  0  0  0  0  0  0
   54.5901    1.2148   56.0843 C   0  0  0  0  0  0  0  0  0  0  0  0
   54.1689    4.8590   58.9859 N   0  0  0  0  0  0  0  0  0  0  0  0
   54.5324    3.7532   59.5705 C   0  0  0  0  0  0  0  0  0  0  0  0
   54.8356    2.7857   58.6547 N   0  0  0  0  0  0  0  0  0  0  0  0
   54.7046    3.1590   61.2019 S   0  0  0  0  0  0  0  0  0  0  0  0
   55.2272    1.6852   60.4057 C   0  0  0  0  0  0  0  0  0  0  0  0
   55.2714    1.5811   59.1174 N   0  0  0  0  0  0  0  0  0  0  0  0
   55.6636    0.6496   61.1284 N   0  0  0  0  0  0  0  0  0  0  0  0
   56.1227   -0.5757   60.5062 C   0  0  0  0  0  0  0  0  0  0  0  0
   55.4045   -0.8234   59.1997 C   0  0  0  0  0  0  0  0  0  0  0  0
   53.9766   -1.2726   59.4210 C   0  0  0  0  0  0  0  0  0  0  0  0
   55.3172    0.4266   52.6449 O   0  0  0  0  0  0  0  0  0  0  0  0
   53.9821    5.2994   56.8505 H   0  0  0  0  0  0  0  0  0  0  0  0
   55.7357    3.0491   52.8956 H   0  0  0  0  0  0  0  0  0  0  0  0
   55.4224    4.3110   54.9991 H   0  0  0  0  0  0  0  0  0  0  0  0
   54.6012   -0.5759   54.9006 H   0  0  0  0  0  0  0  0  0  0  0  0
   54.2536    0.6869   56.9888 H   0  0  0  0  0  0  0  0  0  0  0  0
   55.6739    0.7244   62.1557 H   0  0  0  0  0  0  0  0  0  0  0  0
   57.2029   -0.4982   60.3135 H   0  0  0  0  0  0  0  0  0  0  0  0
   55.9111   -1.4140   61.1862 H   0  0  0  0  0  0  0  0  0  0  0  0
   55.3983    0.1079   58.6143 H   0  0  0  0  0  0  0  0  0  0  0  0
   55.9358   -1.6234   58.6632 H   0  0  0  0  0  0  0  0  0  0  0  0
   53.7754   -1.3359   60.5006 H   0  0  0  0  0  0  0  0  0  0  0  0
   53.2888   -0.5474   58.9617 H   0  0  0  0  0  0  0  0  0  0  0  0
   53.8277   -2.2609   58.9617 H   0  0  0  0  0  0  0  0  0  0  0  0
   55.1373   -0.5467   52.6679 H   0  0  0  0  0  0  0  0  0  0  0  0
  1  2  2  0
  1  3  1  0
  1 11  1  0
  2  9  1  0
  3  5  1  0
  3  8  2  0
  4  5  2  0
  4  6  1  0
  6  7  2  0
  6 19  1  0
  7  8  1  0
  9 10  2  0
 10 11  1  0
 10 12  1  0
 11 14  1  0
 12 13  1  0
 13 14  2  0
 13 15  1  0
 15 16  1  0
 16 17  1  0
 17 18  1  0
  2 20  1  0
  4 21  1  0
  5 22  1  0
  7 23  1  0
  8 24  1  0
 15 25  1  0
 16 26  1  0
 16 27  1  0
 17 28  1  0
 17 29  1  0
 18 30  1  0
 18 31  1  0
 18 32  1  0
 19 33  1  0
M  END
>  <filename_input>  (14) 
7OPG_06N_docked.sdf

>  <pdb_id>  (14) 
7OPG_06N

>  <pose_rank>  (14) 
13

>  <num_atoms_heavy>  (14) 
19

>  <num_torsions>  (14) 
3

>  <pose>  (14) 
[54.62149786031322, 3.2911079760255983, 57.40249205973241, 0.008487339941677087, 0.5541024327753952, -2.9010698411631717, 0.23600185308459193, 2.0315152357518054, 3.812984870387591]

>  <energy>  (14) 
-380.50351250756944

>  <inter_energy>  (14) 
-479.64989838527293

>  <intra_energy>  (14) 
74.65570987928398

>  <rmsd>  (14) 
4.02702

>  <sdf_rank>  (14) 
0

$$$$

     RDKit          3D

 33 35  0  0  0  0  0  0  0  0999 V2000
   55.7457    2.3032   54.2493 C   0  0  0  0  0  0  0  0  0  0  0  0
   55.9061    1.0894   53.6467 C   0  0  0  0  0  0  0  0  0  0  0  0
   55.7235    3.6549   53.6800 C   0  0  0  0  0  0  0  0  0  0  0  0
   55.3764    5.1708   51.8444 C   0  0  0  0  0  0  0  0  0  0  0  0
   55.3834    3.8885   52.3488 C   0  0  0  0  0  0  0  0  0  0  0  0
   55.7071    6.2339   52.6534 C   0  0  0  0  0  0  0  0  0  0  0  0
   56.0371    6.0127   53.9795 C   0  0  0  0  0  0  0  0  0  0  0  0
   56.0535    4.7328   54.4765 C   0  0  0  0  0  0  0  0  0  0  0  0
   55.8586    0.0519   54.5481 N   0  0  0  0  0  0  0  0  0  0  0  0
   55.6647    0.6272   55.7005 C   0  0  0  0  0  0  0  0  0  0  0  0
   55.5689    1.9835   55.5668 N   0  0  0  0  0  0  0  0  0  0  0  0
   55.5286    0.1431   57.3712 S   0  0  0  0  0  0  0  0  0  0  0  0
   55.2981    1.8602   57.6505 C   0  0  0  0  0  0  0  0  0  0  0  0
   55.3258    2.7209   56.6858 N   0  0  0  0  0  0  0  0  0  0  0  0
   55.0148    2.3093   58.8766 N   0  0  0  0  0  0  0  0  0  0  0  0
   54.7972    3.7170   59.1422 C   0  0  0  0  0  0  0  0  0  0  0  0
   55.6368    4.1856   60.3083 C   0  0  0  0  0  0  0  0  0  0  0  0
   55.0941    3.6824   61.6281 C   0  0  0  0  0  0  0  0  0  0  0  0
   55.7297    7.5159   52.2117 O   0  0  0  0  0  0  0  0  0  0  0  0
   56.0561    0.9562   52.5652 H   0  0  0  0  0  0  0  0  0  0  0  0
   55.1058    5.3452   50.7925 H   0  0  0  0  0  0  0  0  0  0  0  0
   55.1188    3.0434   51.6963 H   0  0  0  0  0  0  0  0  0  0  0  0
   56.2857    6.8610   54.6341 H   0  0  0  0  0  0  0  0  0  0  0  0
   56.3342    4.5637   55.5265 H   0  0  0  0  0  0  0  0  0  0  0  0
   54.9492    1.6367   59.6539 H   0  0  0  0  0  0  0  0  0  0  0  0
   55.0681    4.2975   58.2480 H   0  0  0  0  0  0  0  0  0  0  0  0
   53.7365    3.8659   59.3925 H   0  0  0  0  0  0  0  0  0  0  0  0
   56.6639    3.8132   60.1802 H   0  0  0  0  0  0  0  0  0  0  0  0
   55.6148    5.2852   60.3260 H   0  0  0  0  0  0  0  0  0  0  0  0
   55.6259    4.1755   62.4551 H   0  0  0  0  0  0  0  0  0  0  0  0
   54.0202    3.9115   61.6943 H   0  0  0  0  0  0  0  0  0  0  0  0
   55.2416    2.5943   61.6943 H   0  0  0  0  0  0  0  0  0  0  0  0
   55.9740    8.2486   52.8311 H   0  0  0  0  0  0  0  0  0  0  0  0
  1  2  2  0
  1  3  1  0
  1 11  1  0
  2  9  1  0
  3  5  1  0
  3  8  2  0
  4  5  2  0
  4  6  1  0
  6  7  2  0
  6 19  1  0
  7  8  1  0
  9 10  2  0
 10 11  1  0
 10 12  1  0
 11 14  1  0
 12 13  1  0
 13 14  2  0
 13 15  1  0
 15 16  1  0
 16 17  1  0
 17 18  1  0
  2 20  1  0
  4 21  1  0
  5 22  1  0
  7 23  1  0
  8 24  1  0
 15 25  1  0
 16 26  1  0
 16 27  1  0
 17 28  1  0
 17 29  1  0
 18 30  1  0
 18 31  1  0
 18 32  1  0
 19 33  1  0
M  END
>  <filename_input>  (15) 
7OPG_06N_docked.sdf

>  <pdb_id>  (15) 
7OPG_06N

>  <pose_rank>  (15) 
14

>  <num_atoms_heavy>  (15) 
19

>  <num_torsions>  (15) 
3

>  <pose>  (15) 
[55.74567074836411, 2.303167800220621, 54.24925303884504, -6.007305332161682, 0.15281394477909982, -0.23497276504499617, 0.11973135887937215, 0.29903614719286725, 3.8111910665341973]

>  <energy>  (15) 
-738.4852417192892

>  <inter_energy>  (15) 
-741.2254919373053

>  <intra_energy>  (15) 
11.702388305508542

>  <rmsd>  (15) 
1.547

>  <sdf_rank>  (15) 
0

$$$$

     RDKit          3D

 33 35  0  0  0  0  0  0  0  0999 V2000
   55.1289    3.1613   57.8663 C   0  0  0  0  0  0  0  0  0  0  0  0
   55.2335    4.3282   57.1668 C   0  0  0  0  0  0  0  0  0  0  0  0
   54.9806    2.9225   59.3060 C   0  0  0  0  0  0  0  0  0  0  0  0
   54.6963    1.4495   61.1869 C   0  0  0  0  0  0  0  0  0  0  0  0
   54.8375    1.6387   59.8292 C   0  0  0  0  0  0  0  0  0  0  0  0
   54.6944    2.5301   62.0390 C   0  0  0  0  0  0  0  0  0  0  0  0
   54.8455    3.8084   61.5295 C   0  0  0  0  0  0  0  0  0  0  0  0
   54.9754    3.9946   60.1753 C   0  0  0  0  0  0  0  0  0  0  0  0
   55.3533    4.1136   55.8137 N   0  0  0  0  0  0  0  0  0  0  0  0
   55.3176    2.8182   55.6827 C   0  0  0  0  0  0  0  0  0  0  0  0
   55.1619    2.2024   56.8923 N   0  0  0  0  0  0  0  0  0  0  0  0
   55.4489    1.6536   54.3901 S   0  0  0  0  0  0  0  0  0  0  0  0
   55.2112    0.4845   55.6769 C   0  0  0  0  0  0  0  0  0  0  0  0
   55.0676    0.8437   56.9109 N   0  0  0  0  0  0  0  0  0  0  0  0
   55.1020   -0.8161   55.3913 N   0  0  0  0  0  0  0  0  0  0  0  0
   54.8846   -1.8086   56.4242 C   0  0  0  0  0  0  0  0  0  0  0  0
   54.3055   -3.0784   55.8440 C   0  0  0  0  0  0  0  0  0  0  0  0
   53.1728   -2.7902   54.8829 C   0  0  0  0  0  0  0  0  0  0  0  0
   54.5475    2.4085   63.3817 O   0  0  0  0  0  0  0  0  0  0  0  0
   55.2231    5.3252   57.6314 H   0  0  0  0  0  0  0  0  0  0  0  0
   54.5847    0.4323   61.5904 H   0  0  0  0  0  0  0  0  0  0  0  0
   54.8373    0.7705   59.1538 H   0  0  0  0  0  0  0  0  0  0  0  0
   54.8615    4.6737   62.2085 H   0  0  0  0  0  0  0  0  0  0  0  0
   55.0770    5.0148   59.7768 H   0  0  0  0  0  0  0  0  0  0  0  0
   55.1744   -1.1215   54.4102 H   0  0  0  0  0  0  0  0  0  0  0  0
   55.8448   -2.0399   56.9084 H   0  0  0  0  0  0  0  0  0  0  0  0
   54.1714   -1.4014   57.1561 H   0  0  0  0  0  0  0  0  0  0  0  0
   55.0990   -3.6191   55.3074 H   0  0  0  0  0  0  0  0  0  0  0  0
   53.9065   -3.6824   56.6722 H   0  0  0  0  0  0  0  0  0  0  0  0
   52.2600   -2.5579   55.4511 H   0  0  0  0  0  0  0  0  0  0  0  0
   53.4390   -1.9311   54.2495 H   0  0  0  0  0  0  0  0  0  0  0  0
   52.9960   -3.6720   54.2495 H   0  0  0  0  0  0  0  0  0  0  0  0
   54.5525    3.2154   63.9553 H   0  0  0  0  0  0  0  0  0  0  0  0
  1  2  2  0
  1  3  1  0
  1 11  1  0
  2  9  1  0
  3  5  1  0
  3  8  2  0
  4  5  2  0
  4  6  1  0
  6  7  2  0
  6 19  1  0
  7  8  1  0
  9 10  2  0
 10 11  1  0
 10 12  1  0
 11 14  1  0
 12 13  1  0
 13 14  2  0
 13 15  1  0
 15 16  1  0
 16 17  1  0
 17 18  1  0
  2 20  1  0
  4 21  1  0
  5 22  1  0
  7 23  1  0
  8 24  1  0
 15 25  1  0
 16 26  1  0
 16 27  1  0
 17 28  1  0
 17 29  1  0
 18 30  1  0
 18 31  1  0
 18 32  1  0
 19 33  1  0
M  END
>  <filename_input>  (16) 
7OPG_06N_docked.sdf

>  <pdb_id>  (16) 
7OPG_06N

>  <pose_rank>  (16) 
15

>  <num_atoms_heavy>  (16) 
19

>  <num_torsions>  (16) 
3

>  <pose>  (16) 
[55.12888898307909, 3.1612604615739315, 57.86631315386248, -10.1358927237723, -0.2926479152728377, -0.7529383216812355, -3.4899117881829955, -0.9430022136490553, 4.298720112602966]

>  <energy>  (16) 
-497.64720114012465

>  <inter_energy>  (16) 
-518.6475668606093

>  <intra_energy>  (16) 
13.330197362333346

>  <rmsd>  (16) 
6.64067

>  <sdf_rank>  (16) 
0

$$$$

     RDKit          3D

 33 35  0  0  0  0  0  0  0  0999 V2000
   55.9297    3.2071   59.2796 C   0  0  0  0  0  0  0  0  0  0  0  0
   56.3738    4.4960   59.2200 C   0  0  0  0  0  0  0  0  0  0  0  0
   55.7746    2.2020   58.2226 C   0  0  0  0  0  0  0  0  0  0  0  0
   54.9976    1.5207   56.0500 C   0  0  0  0  0  0  0  0  0  0  0  0
   55.1298    2.4895   57.0210 C   0  0  0  0  0  0  0  0  0  0  0  0
   55.5018    0.2576   56.2603 C   0  0  0  0  0  0  0  0  0  0  0  0
   56.1523   -0.0347   57.4469 C   0  0  0  0  0  0  0  0  0  0  0  0
   56.2732    0.9296   58.4168 C   0  0  0  0  0  0  0  0  0  0  0  0
   56.3709    5.1039   60.4535 N   0  0  0  0  0  0  0  0  0  0  0  0
   55.9304    4.1889   61.2691 C   0  0  0  0  0  0  0  0  0  0  0  0
   55.6712    3.0209   60.6092 N   0  0  0  0  0  0  0  0  0  0  0  0
   55.5483    4.0570   62.9664 S   0  0  0  0  0  0  0  0  0  0  0  0
   55.1435    2.4010   62.5503 C   0  0  0  0  0  0  0  0  0  0  0  0
   55.2396    1.9557   61.3400 N   0  0  0  0  0  0  0  0  0  0  0  0
   54.7898    1.5357   63.5049 N   0  0  0  0  0  0  0  0  0  0  0  0
   54.4687    0.1555   63.2029 C   0  0  0  0  0  0  0  0  0  0  0  0
   54.6168   -0.7171   64.4281 C   0  0  0  0  0  0  0  0  0  0  0  0
   56.0117   -0.6363   65.0088 C   0  0  0  0  0  0  0  0  0  0  0  0
   55.3922   -0.7400   55.3483 O   0  0  0  0  0  0  0  0  0  0  0  0
   56.6968    4.9914   58.2925 H   0  0  0  0  0  0  0  0  0  0  0  0
   54.4877    1.7576   55.1045 H   0  0  0  0  0  0  0  0  0  0  0  0
   54.7237    3.4968   56.8466 H   0  0  0  0  0  0  0  0  0  0  0  0
   56.5716   -1.0381   57.6124 H   0  0  0  0  0  0  0  0  0  0  0  0
   56.7756    0.6841   59.3641 H   0  0  0  0  0  0  0  0  0  0  0  0
   54.7441    1.8586   64.4820 H   0  0  0  0  0  0  0  0  0  0  0  0
   53.4305    0.0981   62.8441 H   0  0  0  0  0  0  0  0  0  0  0  0
   55.1645   -0.2047   62.4307 H   0  0  0  0  0  0  0  0  0  0  0  0
   53.8943   -0.3878   65.1894 H   0  0  0  0  0  0  0  0  0  0  0  0
   54.4295   -1.7595   64.1307 H   0  0  0  0  0  0  0  0  0  0  0  0
   55.9524   -0.6398   66.1072 H   0  0  0  0  0  0  0  0  0  0  0  0
   56.6003   -1.5019   64.6707 H   0  0  0  0  0  0  0  0  0  0  0  0
   56.4965    0.2914   64.6707 H   0  0  0  0  0  0  0  0  0  0  0  0
   55.7711   -1.6335   55.5440 H   0  0  0  0  0  0  0  0  0  0  0  0
  1  2  2  0
  1  3  1  0
  1 11  1  0
  2  9  1  0
  3  5  1  0
  3  8  2  0
  4  5  2  0
  4  6  1  0
  6  7  2  0
  6 19  1  0
  7  8  1  0
  9 10  2  0
 10 11  1  0
 10 12  1  0
 11 14  1  0
 12 13  1  0
 13 14  2  0
 13 15  1  0
 15 16  1  0
 16 17  1  0
 17 18  1  0
  2 20  1  0
  4 21  1  0
  5 22  1  0
  7 23  1  0
  8 24  1  0
 15 25  1  0
 16 26  1  0
 16 27  1  0
 17 28  1  0
 17 29  1  0
 18 30  1  0
 18 31  1  0
 18 32  1  0
 19 33  1  0
M  END
>  <filename_input>  (17) 
7OPG_06N_docked.sdf

>  <pdb_id>  (17) 
7OPG_06N

>  <pose_rank>  (17) 
16

>  <num_atoms_heavy>  (17) 
19

>  <num_torsions>  (17) 
3

>  <pose>  (17) 
[55.92968590241359, 3.2071204040707277, 59.27964347530726, 0.4956609809055347, 0.20974927635239077, -3.5045274432306392, -1.1540513424685213, -0.957271897908816, 4.0983514335661235]

>  <energy>  (17) 
-502.4369607540386

>  <inter_energy>  (17) 
-498.63311809994724

>  <intra_energy>  (17) 
5.652442666962534

>  <rmsd>  (17) 
5.22574

>  <sdf_rank>  (17) 
0

$$$$

     RDKit          3D

 33 35  0  0  0  0  0  0  0  0999 V2000
   55.5504    4.9245   64.8027 C   0  0  0  0  0  0  0  0  0  0  0  0
   55.3998    4.2027   65.9510 C   0  0  0  0  0  0  0  0  0  0  0  0
   55.8288    6.3507   64.6024 C   0  0  0  0  0  0  0  0  0  0  0  0
   56.5478    8.4989   65.4124 C   0  0  0  0  0  0  0  0  0  0  0  0
   56.3002    7.1614   65.6332 C   0  0  0  0  0  0  0  0  0  0  0  0
   56.3298    9.0463   64.1687 C   0  0  0  0  0  0  0  0  0  0  0  0
   55.8706    8.2468   63.1360 C   0  0  0  0  0  0  0  0  0  0  0  0
   55.6147    6.9168   63.3618 C   0  0  0  0  0  0  0  0  0  0  0  0
   55.1505    2.8738   65.7000 N   0  0  0  0  0  0  0  0  0  0  0  0
   55.1529    2.7792   64.4010 C   0  0  0  0  0  0  0  0  0  0  0  0
   55.4110    3.9872   63.8172 N   0  0  0  0  0  0  0  0  0  0  0  0
   54.8825    1.5402   63.2027 S   0  0  0  0  0  0  0  0  0  0  0  0
   55.2206    2.8341   62.0665 C   0  0  0  0  0  0  0  0  0  0  0  0
   55.4847    4.0379   62.4581 N   0  0  0  0  0  0  0  0  0  0  0  0
   55.2815    2.5789   60.7565 N   0  0  0  0  0  0  0  0  0  0  0  0
   55.5786    3.6167   59.7899 C   0  0  0  0  0  0  0  0  0  0  0  0
   55.9631    3.0214   58.4550 C   0  0  0  0  0  0  0  0  0  0  0  0
   55.0234    3.4610   57.3534 C   0  0  0  0  0  0  0  0  0  0  0  0
   56.5435   10.3569   63.8934 O   0  0  0  0  0  0  0  0  0  0  0  0
   55.4696    4.6341   66.9605 H   0  0  0  0  0  0  0  0  0  0  0  0
   56.9207    9.1306   66.2321 H   0  0  0  0  0  0  0  0  0  0  0  0
   56.4759    6.7307   66.6300 H   0  0  0  0  0  0  0  0  0  0  0  0
   55.7110    8.6763   62.1360 H   0  0  0  0  0  0  0  0  0  0  0  0
   55.2329    6.2923   62.5408 H   0  0  0  0  0  0  0  0  0  0  0  0
   55.1128    1.6185   60.4246 H   0  0  0  0  0  0  0  0  0  0  0  0
   54.6892    4.2504   59.6582 H   0  0  0  0  0  0  0  0  0  0  0  0
   56.4246    4.2117   60.1644 H   0  0  0  0  0  0  0  0  0  0  0  0
   56.9840    3.3435   58.2020 H   0  0  0  0  0  0  0  0  0  0  0  0
   55.9040    1.9262   58.5386 H   0  0  0  0  0  0  0  0  0  0  0  0
   54.1119    3.8875   57.7975 H   0  0  0  0  0  0  0  0  0  0  0  0
   55.5183    4.2211   56.7310 H   0  0  0  0  0  0  0  0  0  0  0  0
   54.7571    2.5941   56.7310 H   0  0  0  0  0  0  0  0  0  0  0  0
   56.3725   10.7058   62.9829 H   0  0  0  0  0  0  0  0  0  0  0  0
  1  2  2  0
  1  3  1  0
  1 11  1  0
  2  9  1  0
  3  5  1  0
  3  8  2  0
  4  5  2  0
  4  6  1  0
  6  7  2  0
  6 19  1  0
  7  8  1  0
  9 10  2  0
 10 11  1  0
 10 12  1  0
 11 14  1  0
 12 13  1  0
 13 14  2  0
 13 15  1  0
 15 16  1  0
 16 17  1  0
 17 18  1  0
  2 20  1  0
  4 21  1  0
  5 22  1  0
  7 23  1  0
  8 24  1  0
 15 25  1  0
 16 26  1  0
 16 27  1  0
 17 28  1  0
 17 29  1  0
 18 30  1  0
 18 31  1  0
 18 32  1  0
 19 33  1  0
M  END
>  <filename_input>  (18) 
7OPG_06N_docked.sdf

>  <pdb_id>  (18) 
7OPG_06N

>  <pose_rank>  (18) 
17

>  <num_atoms_heavy>  (18) 
19

>  <num_torsions>  (18) 
3

>  <pose>  (18) 
[55.55042715631174, 4.924464339097158, 64.80270793607563, -0.20140665880437292, -2.7168993775643746, 1.1360698835355714, -0.032147082471910116, -0.8554779760105787, 0.9094218789646565]

>  <energy>  (18) 
-315.15381696529045

>  <inter_energy>  (18) 
-328.32841549468884

>  <intra_energy>  (18) 
13.864261736072555

>  <rmsd>  (18) 
8.82324

>  <sdf_rank>  (18) 
0

$$$$

     RDKit          3D

 33 35  0  0  0  0  0  0  0  0999 V2000
   54.7006    2.2712   64.1013 C   0  0  0  0  0  0  0  0  0  0  0  0
   54.6090    3.4303   64.8157 C   0  0  0  0  0  0  0  0  0  0  0  0
   54.6352    0.8730   64.5399 C   0  0  0  0  0  0  0  0  0  0  0  0
   53.4019   -1.1333   65.0317 C   0  0  0  0  0  0  0  0  0  0  0  0
   53.4289    0.1788   64.6115 C   0  0  0  0  0  0  0  0  0  0  0  0
   54.5694   -1.7699   65.3859 C   0  0  0  0  0  0  0  0  0  0  0  0
   55.7737   -1.0915   65.3090 C   0  0  0  0  0  0  0  0  0  0  0  0
   55.7961    0.2190   64.9001 C   0  0  0  0  0  0  0  0  0  0  0  0
   54.7163    4.5434   64.0154 N   0  0  0  0  0  0  0  0  0  0  0  0
   54.8687    4.0688   62.8120 C   0  0  0  0  0  0  0  0  0  0  0  0
   54.8444    2.7027   62.8120 N   0  0  0  0  0  0  0  0  0  0  0  0
   55.1300    4.6988   61.2061 S   0  0  0  0  0  0  0  0  0  0  0  0
   55.1090    3.0055   60.7458 C   0  0  0  0  0  0  0  0  0  0  0  0
   54.9530    2.0612   61.6155 N   0  0  0  0  0  0  0  0  0  0  0  0
   55.1847    2.6585   59.4579 N   0  0  0  0  0  0  0  0  0  0  0  0
   55.1495    1.2722   59.0378 C   0  0  0  0  0  0  0  0  0  0  0  0
   54.8066    1.1581   57.5702 C   0  0  0  0  0  0  0  0  0  0  0  0
   55.9942    1.4815   56.6901 C   0  0  0  0  0  0  0  0  0  0  0  0
   54.6053   -3.0550   65.8180 O   0  0  0  0  0  0  0  0  0  0  0  0
   54.4658    3.4696   65.9056 H   0  0  0  0  0  0  0  0  0  0  0  0
   52.4449   -1.6731   65.0840 H   0  0  0  0  0  0  0  0  0  0  0  0
   52.4918    0.6818   64.3306 H   0  0  0  0  0  0  0  0  0  0  0  0
   56.7112   -1.6016   65.5751 H   0  0  0  0  0  0  0  0  0  0  0  0
   56.7549    0.7566   64.8589 H   0  0  0  0  0  0  0  0  0  0  0  0
   55.2703    3.3963   58.7443 H   0  0  0  0  0  0  0  0  0  0  0  0
   56.1361    0.8184   59.2128 H   0  0  0  0  0  0  0  0  0  0  0  0
   54.3757    0.7499   59.6195 H   0  0  0  0  0  0  0  0  0  0  0  0
   54.4772    0.1298   57.3603 H   0  0  0  0  0  0  0  0  0  0  0  0
   54.0085    1.8816   57.3478 H   0  0  0  0  0  0  0  0  0  0  0  0
   56.8640    1.7184   57.3204 H   0  0  0  0  0  0  0  0  0  0  0  0
   56.2269    0.6140   56.0550 H   0  0  0  0  0  0  0  0  0  0  0  0
   55.7549    2.3472   56.0550 H   0  0  0  0  0  0  0  0  0  0  0  0
   55.4697   -3.4712   66.0619 H   0  0  0  0  0  0  0  0  0  0  0  0
  1  2  2  0
  1  3  1  0
  1 11  1  0
  2  9  1  0
  3  5  1  0
  3  8  2  0
  4  5  2  0
  4  6  1  0
  6  7  2  0
  6 19  1  0
  7  8  1  0
  9 10  2  0
 10 11  1  0
 10 12  1  0
 11 14  1  0
 12 13  1  0
 13 14  2  0
 13 15  1  0
 15 16  1  0
 16 17  1  0
 17 18  1  0
  2 20  1  0
  4 21  1  0
  5 22  1  0
  7 23  1  0
  8 24  1  0
 15 25  1  0
 16 26  1  0
 16 27  1  0
 17 28  1  0
 17 29  1  0
 18 30  1  0
 18 31  1  0
 18 32  1  0
 19 33  1  0
M  END
>  <filename_input>  (19) 
7OPG_06N_docked.sdf

>  <pdb_id>  (19) 
7OPG_06N

>  <pose_rank>  (19) 
18

>  <num_atoms_heavy>  (19) 
19

>  <num_torsions>  (19) 
3

>  <pose>  (19) 
[54.700648978772435, 2.2712472124331646, 64.10133508146191, 3.464535113155985, 0.15860745776485669, 0.4328798999602915, 1.2574988041404247, -0.8990743880367345, 0.1672948012558797]

>  <energy>  (19) 
-335.0596896514681

>  <inter_energy>  (19) 
-330.9464648221408

>  <intra_energy>  (19) 
0.0

>  <rmsd>  (19) 
9.22486

>  <sdf_rank>  (19) 
0

$$$$

     RDKit          3D

 33 35  0  0  0  0  0  0  0  0999 V2000
   54.6618    2.9420   60.2266 C   0  0  0  0  0  0  0  0  0  0  0  0
   54.3123    4.2587   60.1482 C   0  0  0  0  0  0  0  0  0  0  0  0
   55.0044    1.9818   59.1719 C   0  0  0  0  0  0  0  0  0  0  0  0
   55.7525    1.4651   56.9445 C   0  0  0  0  0  0  0  0  0  0  0  0
   55.4426    2.3934   57.9146 C   0  0  0  0  0  0  0  0  0  0  0  0
   55.6303    0.1204   57.2102 C   0  0  0  0  0  0  0  0  0  0  0  0
   55.2049   -0.2983   58.4593 C   0  0  0  0  0  0  0  0  0  0  0  0
   54.8867    0.6292   59.4204 C   0  0  0  0  0  0  0  0  0  0  0  0
   54.0726    4.8070   61.3864 N   0  0  0  0  0  0  0  0  0  0  0  0
   54.2790    3.8304   62.2231 C   0  0  0  0  0  0  0  0  0  0  0  0
   54.6571    2.6911   61.5706 N   0  0  0  0  0  0  0  0  0  0  0  0
   54.1712    3.5694   63.9449 S   0  0  0  0  0  0  0  0  0  0  0  0
   54.7181    1.9518   63.5405 C   0  0  0  0  0  0  0  0  0  0  0  0
   54.9470    1.5912   62.3198 N   0  0  0  0  0  0  0  0  0  0  0  0
   54.9800    1.0694   64.5090 N   0  0  0  0  0  0  0  0  0  0  0  0
   55.4531   -0.2682   64.2150 C   0  0  0  0  0  0  0  0  0  0  0  0
   54.9095   -1.2673   65.2103 C   0  0  0  0  0  0  0  0  0  0  0  0
   55.7289   -1.2947   66.4820 C   0  0  0  0  0  0  0  0  0  0  0  0
   55.9088   -0.8394   56.2934 O   0  0  0  0  0  0  0  0  0  0  0  0
   54.2318    4.8171   59.2039 H   0  0  0  0  0  0  0  0  0  0  0  0
   56.0984    1.7998   55.9554 H   0  0  0  0  0  0  0  0  0  0  0  0
   55.5418    3.4667   57.6951 H   0  0  0  0  0  0  0  0  0  0  0  0
   55.1220   -1.3724   58.6815 H   0  0  0  0  0  0  0  0  0  0  0  0
   54.5322    0.2888   60.4045 H   0  0  0  0  0  0  0  0  0  0  0  0
   54.8420    1.3476   65.4910 H   0  0  0  0  0  0  0  0  0  0  0  0
   55.1239   -0.5520   63.2045 H   0  0  0  0  0  0  0  0  0  0  0  0
   56.5512   -0.2729   64.2789 H   0  0  0  0  0  0  0  0  0  0  0  0
   53.8736   -0.9941   65.4598 H   0  0  0  0  0  0  0  0  0  0  0  0
   54.9549   -2.2663   64.7522 H   0  0  0  0  0  0  0  0  0  0  0  0
   55.0564   -1.2722   67.3522 H   0  0  0  0  0  0  0  0  0  0  0  0
   56.3331   -2.2135   66.5092 H   0  0  0  0  0  0  0  0  0  0  0  0
   56.3931   -0.4182   66.5092 H   0  0  0  0  0  0  0  0  0  0  0  0
   55.8060   -1.7951   56.5304 H   0  0  0  0  0  0  0  0  0  0  0  0
  1  2  2  0
  1  3  1  0
  1 11  1  0
  2  9  1  0
  3  5  1  0
  3  8  2  0
  4  5  2  0
  4  6  1  0
  6  7  2  0
  6 19  1  0
  7  8  1  0
  9 10  2  0
 10 11  1  0
 10 12  1  0
 11 14  1  0
 12 13  1  0
 13 14  2  0
 13 15  1  0
 15 16  1  0
 16 17  1  0
 17 18  1  0
  2 20  1  0
  4 21  1  0
  5 22  1  0
  7 23  1  0
  8 24  1  0
 15 25  1  0
 16 26  1  0
 16 27  1  0
 17 28  1  0
 17 29  1  0
 18 30  1  0
 18 31  1  0
 18 32  1  0
 19 33  1  0
M  END
>  <filename_input>  (20) 
7OPG_06N_docked.sdf

>  <pdb_id>  (20) 
7OPG_06N

>  <pose_rank>  (20) 
19

>  <num_atoms_heavy>  (20) 
19

>  <num_torsions>  (20) 
3

>  <pose>  (20) 
[54.661783138370005, 2.942010887532287, 60.22663741181355, 0.21792722695434136, 0.24180607815402932, -2.951237073800502, 0.07059729756830335, 0.0199513999233967, 3.65506372821711]

>  <energy>  (20) 
-436.2035421705442

>  <inter_energy>  (20) 
-427.42226651022565

>  <intra_energy>  (20) 
12.463907756698566

>  <rmsd>  (20) 
6.04337

>  <sdf_rank>  (20) 
0

$$$$

     RDKit          3D

 33 35  0  0  0  0  0  0  0  0999 V2000
   54.7114    3.5210   57.5855 C   0  0  0  0  0  0  0  0  0  0  0  0
   54.0344    4.5553   58.1635 C   0  0  0  0  0  0  0  0  0  0  0  0
   55.0241    3.2545   56.1773 C   0  0  0  0  0  0  0  0  0  0  0  0
   55.5312    3.9987   53.9464 C   0  0  0  0  0  0  0  0  0  0  0  0
   55.2433    4.2836   55.2636 C   0  0  0  0  0  0  0  0  0  0  0  0
   55.6036    2.6917   53.5216 C   0  0  0  0  0  0  0  0  0  0  0  0
   55.3967    1.6625   54.4241 C   0  0  0  0  0  0  0  0  0  0  0  0
   55.0996    1.9497   55.7335 C   0  0  0  0  0  0  0  0  0  0  0  0
   53.9650    4.4305   59.5313 N   0  0  0  0  0  0  0  0  0  0  0  0
   54.6019    3.3248   59.7926 C   0  0  0  0  0  0  0  0  0  0  0  0
   55.0881    2.7521   58.6514 N   0  0  0  0  0  0  0  0  0  0  0  0
   54.9740    2.3575   61.1962 S   0  0  0  0  0  0  0  0  0  0  0  0
   55.7974    1.3324   60.0341 C   0  0  0  0  0  0  0  0  0  0  0  0
   55.8137    1.6056   58.7702 N   0  0  0  0  0  0  0  0  0  0  0  0
   56.4940    0.2707   60.4498 N   0  0  0  0  0  0  0  0  0  0  0  0
   57.2040   -0.5868   59.5225 C   0  0  0  0  0  0  0  0  0  0  0  0
   56.8813   -0.2237   58.0913 C   0  0  0  0  0  0  0  0  0  0  0  0
   56.0235   -1.2772   57.4252 C   0  0  0  0  0  0  0  0  0  0  0  0
   55.8710    2.3488   52.2371 O   0  0  0  0  0  0  0  0  0  0  0  0
   53.5951    5.3920   57.6005 H   0  0  0  0  0  0  0  0  0  0  0  0
   55.7035    4.8178   53.2328 H   0  0  0  0  0  0  0  0  0  0  0  0
   55.1862    5.3306   55.5960 H   0  0  0  0  0  0  0  0  0  0  0  0
   55.4702    0.6162   54.0927 H   0  0  0  0  0  0  0  0  0  0  0  0
   54.9188    1.1265   56.4404 H   0  0  0  0  0  0  0  0  0  0  0  0
   56.5271    0.0561   61.4566 H   0  0  0  0  0  0  0  0  0  0  0  0
   58.2860   -0.4755   59.6864 H   0  0  0  0  0  0  0  0  0  0  0  0
   56.8918   -1.6268   59.6985 H   0  0  0  0  0  0  0  0  0  0  0  0
   56.3416    0.7347   58.0798 H   0  0  0  0  0  0  0  0  0  0  0  0
   57.8275   -0.1506   57.5349 H   0  0  0  0  0  0  0  0  0  0  0  0
   55.5273   -1.8866   58.1949 H   0  0  0  0  0  0  0  0  0  0  0  0
   55.2633   -0.7884   56.7982 H   0  0  0  0  0  0  0  0  0  0  0  0
   56.6562   -1.9226   56.7982 H   0  0  0  0  0  0  0  0  0  0  0  0
   55.9131    1.3943   51.9780 H   0  0  0  0  0  0  0  0  0  0  0  0
  1  2  2  0
  1  3  1  0
  1 11  1  0
  2  9  1  0
  3  5  1  0
  3  8  2  0
  4  5  2  0
  4  6  1  0
  6  7  2  0
  6 19  1  0
  7  8  1  0
  9 10  2  0
 10 11  1  0
 10 12  1  0
 11 14  1  0
 12 13  1  0
 13 14  2  0
 13 15  1  0
 15 16  1  0
 16 17  1  0
 17 18  1  0
  2 20  1  0
  4 21  1  0
  5 22  1  0
  7 23  1  0
  8 24  1  0
 15 25  1  0
 16 26  1  0
 16 27  1  0
 17 28  1  0
 17 29  1  0
 18 30  1  0
 18 31  1  0
 18 32  1  0
 19 33  1  0
M  END
>  <filename_input>  (21) 
7OPG_06N_docked.sdf

>  <pdb_id>  (21) 
7OPG_06N

>  <pose_rank>  (21) 
20

>  <num_atoms_heavy>  (21) 
19

>  <num_torsions>  (21) 
3

>  <pose>  (21) 
[54.711369508536485, 3.5210074703137573, 57.585497184540934, -0.025046950474915564, 0.8994242225009276, -2.5672554391177194, 0.2517489618644217, 2.4241697391546917, 3.1952389782038706]

>  <energy>  (21) 
-423.84136149832324

>  <inter_energy>  (21) 
-527.066905758577

>  <intra_energy>  (21) 
84.52718472166187

>  <rmsd>  (21) 
3.80214

>  <sdf_rank>  (21) 
0

$$$$

     RDKit          3D

 33 35  0  0  0  0  0  0  0  0999 V2000
   55.1739    2.7339   59.5360 C   0  0  0  0  0  0  0  0  0  0  0  0
   55.3677    4.0595   59.2769 C   0  0  0  0  0  0  0  0  0  0  0  0
   55.1324    1.5811   58.6298 C   0  0  0  0  0  0  0  0  0  0  0  0
   55.2810    0.6122   56.4328 C   0  0  0  0  0  0  0  0  0  0  0  0
   55.3305    1.7155   57.2569 C   0  0  0  0  0  0  0  0  0  0  0  0
   55.0337   -0.6345   56.9605 C   0  0  0  0  0  0  0  0  0  0  0  0
   54.8450   -0.7792   58.3243 C   0  0  0  0  0  0  0  0  0  0  0  0
   54.8845    0.3234   59.1416 C   0  0  0  0  0  0  0  0  0  0  0  0
   55.3399    4.8218   60.4211 N   0  0  0  0  0  0  0  0  0  0  0  0
   55.1343    3.9655   61.3808 C   0  0  0  0  0  0  0  0  0  0  0  0
   55.0486    2.6907   60.8968 N   0  0  0  0  0  0  0  0  0  0  0  0
   54.9038    4.0045   63.1098 S   0  0  0  0  0  0  0  0  0  0  0  0
   54.7825    2.2622   62.9404 C   0  0  0  0  0  0  0  0  0  0  0  0
   54.8733    1.6778   61.7903 N   0  0  0  0  0  0  0  0  0  0  0  0
   54.6625    1.4886   64.0231 N   0  0  0  0  0  0  0  0  0  0  0  0
   54.5807    0.0454   63.9246 C   0  0  0  0  0  0  0  0  0  0  0  0
   54.3170   -0.5772   65.2763 C   0  0  0  0  0  0  0  0  0  0  0  0
   55.5612   -0.5961   66.1373 C   0  0  0  0  0  0  0  0  0  0  0  0
   54.9613   -1.7548   56.1997 O   0  0  0  0  0  0  0  0  0  0  0  0
   55.5277    4.4708   58.2693 H   0  0  0  0  0  0  0  0  0  0  0  0
   55.4395    0.7283   55.3505 H   0  0  0  0  0  0  0  0  0  0  0  0
   55.5278    2.7091   56.8282 H   0  0  0  0  0  0  0  0  0  0  0  0
   54.6638   -1.7761   58.7525 H   0  0  0  0  0  0  0  0  0  0  0  0
   54.7157    0.2025   60.2218 H   0  0  0  0  0  0  0  0  0  0  0  0
   54.6272    1.9302   64.9530 H   0  0  0  0  0  0  0  0  0  0  0  0
   53.7625   -0.2224   63.2398 H   0  0  0  0  0  0  0  0  0  0  0  0
   55.5410   -0.3345   63.5458 H   0  0  0  0  0  0  0  0  0  0  0  0
   53.5370    0.0039   65.7901 H   0  0  0  0  0  0  0  0  0  0  0  0
   53.9947   -1.6168   65.1175 H   0  0  0  0  0  0  0  0  0  0  0  0
   55.2726   -0.5917   67.1988 H   0  0  0  0  0  0  0  0  0  0  0  0
   56.1440   -1.5032   65.9195 H   0  0  0  0  0  0  0  0  0  0  0  0
   56.1713    0.2929   65.9195 H   0  0  0  0  0  0  0  0  0  0  0  0
   54.7810   -2.6307   56.6243 H   0  0  0  0  0  0  0  0  0  0  0  0
  1  2  2  0
  1  3  1  0
  1 11  1  0
  2  9  1  0
  3  5  1  0
  3  8  2  0
  4  5  2  0
  4  6  1  0
  6  7  2  0
  6 19  1  0
  7  8  1  0
  9 10  2  0
 10 11  1  0
 10 12  1  0
 11 14  1  0
 12 13  1  0
 13 14  2  0
 13 15  1  0
 15 16  1  0
 16 17  1  0
 17 18  1  0
  2 20  1  0
  4 21  1  0
  5 22  1  0
  7 23  1  0
  8 24  1  0
 15 25  1  0
 16 26  1  0
 16 27  1  0
 17 28  1  0
 17 29  1  0
 18 30  1  0
 18 31  1  0
 18 32  1  0
 19 33  1  0
M  END
>  <filename_input>  (22) 
7OPG_06N_docked.sdf

>  <pdb_id>  (22) 
7OPG_06N

>  <pose_rank>  (22) 
21

>  <num_atoms_heavy>  (22) 
19

>  <num_torsions>  (22) 
3

>  <pose>  (22) 
[55.173900679557484, 2.7338599378099935, 59.53604472739226, 0.34981261552624315, -0.006749106205927061, -3.334649137616694, -0.28163834763240353, -0.48594087571511796, 3.7674189368054765]

>  <energy>  (22) 
-409.17550652471596

>  <inter_energy>  (22) 
-439.83297540271786

>  <intra_energy>  (22) 
15.771368310292843

>  <rmsd>  (22) 
5.70655

>  <sdf_rank>  (22) 
0

$$$$

     RDKit          3D

 33 35  0  0  0  0  0  0  0  0999 V2000
   55.2351    5.7795   65.3064 C   0  0  0  0  0  0  0  0  0  0  0  0
   55.1799    5.2408   66.5589 C   0  0  0  0  0  0  0  0  0  0  0  0
   55.5261    7.1493   64.8694 C   0  0  0  0  0  0  0  0  0  0  0  0
   57.0070    9.0344   64.6662 C   0  0  0  0  0  0  0  0  0  0  0  0
   56.7678    7.7439   65.0860 C   0  0  0  0  0  0  0  0  0  0  0  0
   56.0183    9.7486   64.0288 C   0  0  0  0  0  0  0  0  0  0  0  0
   54.7848    9.1630   63.8006 C   0  0  0  0  0  0  0  0  0  0  0  0
   54.5460    7.8807   64.2295 C   0  0  0  0  0  0  0  0  0  0  0  0
   54.8762    3.8998   66.5344 N   0  0  0  0  0  0  0  0  0  0  0  0
   54.7501    3.6150   65.2697 C   0  0  0  0  0  0  0  0  0  0  0  0
   54.9786    4.7134   64.4899 N   0  0  0  0  0  0  0  0  0  0  0  0
   54.3356    2.2243   64.3012 S   0  0  0  0  0  0  0  0  0  0  0  0
   54.5919    3.3232   62.9573 C   0  0  0  0  0  0  0  0  0  0  0  0
   54.9210    4.5608   63.1376 N   0  0  0  0  0  0  0  0  0  0  0  0
   54.5193    2.8759   61.7004 N   0  0  0  0  0  0  0  0  0  0  0  0
   54.7453    3.7482   60.5658 C   0  0  0  0  0  0  0  0  0  0  0  0
   56.1316    3.5510   59.9969 C   0  0  0  0  0  0  0  0  0  0  0  0
   56.0924    3.2582   58.5130 C   0  0  0  0  0  0  0  0  0  0  0  0
   56.1898   11.0249   63.6035 O   0  0  0  0  0  0  0  0  0  0  0  0
   55.3576    5.8131   67.4814 H   0  0  0  0  0  0  0  0  0  0  0  0
   57.9906    9.4948   64.8411 H   0  0  0  0  0  0  0  0  0  0  0  0
   57.5623    7.1791   65.5957 H   0  0  0  0  0  0  0  0  0  0  0  0
   53.9972    9.7243   63.2765 H   0  0  0  0  0  0  0  0  0  0  0  0
   53.5574    7.4290   64.0603 H   0  0  0  0  0  0  0  0  0  0  0  0
   54.2966    1.8842   61.5336 H   0  0  0  0  0  0  0  0  0  0  0  0
   54.0018    3.5244   59.7866 H   0  0  0  0  0  0  0  0  0  0  0  0
   54.6502    4.7913   60.9020 H   0  0  0  0  0  0  0  0  0  0  0  0
   56.7188    4.4661   60.1641 H   0  0  0  0  0  0  0  0  0  0  0  0
   56.5904    2.6894   60.5040 H   0  0  0  0  0  0  0  0  0  0  0  0
   55.9480    2.1791   58.3559 H   0  0  0  0  0  0  0  0  0  0  0  0
   55.2602    3.8104   58.0521 H   0  0  0  0  0  0  0  0  0  0  0  0
   57.0406    3.5721   58.0521 H   0  0  0  0  0  0  0  0  0  0  0  0
   55.4489   11.4990   63.1492 H   0  0  0  0  0  0  0  0  0  0  0  0
  1  2  2  0
  1  3  1  0
  1 11  1  0
  2  9  1  0
  3  5  1  0
  3  8  2  0
  4  5  2  0
  4  6  1  0
  6  7  2  0
  6 19  1  0
  7  8  1  0
  9 10  2  0
 10 11  1  0
 10 12  1  0
 11 14  1  0
 12 13  1  0
 13 14  2  0
 13 15  1  0
 15 16  1  0
 16 17  1  0
 17 18  1  0
  2 20  1  0
  4 21  1  0
  5 22  1  0
  7 23  1  0
  8 24  1  0
 15 25  1  0
 16 26  1  0
 16 27  1  0
 17 28  1  0
 17 29  1  0
 18 30  1  0
 18 31  1  0
 18 32  1  0
 19 33  1  0
M  END
>  <filename_input>  (23) 
7OPG_06N_docked.sdf

>  <pdb_id>  (23) 
7OPG_06N

>  <pose_rank>  (23) 
22

>  <num_atoms_heavy>  (23) 
19

>  <num_torsions>  (23) 
3

>  <pose>  (23) 
[55.23513953991043, 5.7795454314409795, 65.30635851216086, -0.20395037922958406, -2.5395566086742014, 1.3059703078722336, 0.8138873437608388, -1.9507434874000176, 1.0212237256754864]

>  <energy>  (23) 
-328.53323345187584

>  <inter_energy>  (23) 
-332.71925669693337

>  <intra_energy>  (23) 
2.064020345321061

>  <rmsd>  (23) 
9.30446

>  <sdf_rank>  (23) 
0

$$$$

     RDKit          3D

 33 35  0  0  0  0  0  0  0  0999 V2000
   55.6007    1.6699   55.8216 C   0  0  0  0  0  0  0  0  0  0  0  0
   55.6438    0.3285   55.5747 C   0  0  0  0  0  0  0  0  0  0  0  0
   55.6567    2.8111   54.9017 C   0  0  0  0  0  0  0  0  0  0  0  0
   56.0869    5.1317   54.4351 C   0  0  0  0  0  0  0  0  0  0  0  0
   56.0491    4.0798   55.3244 C   0  0  0  0  0  0  0  0  0  0  0  0
   55.7353    4.9372   53.1188 C   0  0  0  0  0  0  0  0  0  0  0  0
   55.3533    3.6785   52.6875 C   0  0  0  0  0  0  0  0  0  0  0  0
   55.3065    2.6347   53.5783 C   0  0  0  0  0  0  0  0  0  0  0  0
   55.5560   -0.4149   56.7282 N   0  0  0  0  0  0  0  0  0  0  0  0
   55.4545    0.4679   57.6805 C   0  0  0  0  0  0  0  0  0  0  0  0
   55.4557    1.7389   57.1793 N   0  0  0  0  0  0  0  0  0  0  0  0
   55.3524    0.4728   59.4223 S   0  0  0  0  0  0  0  0  0  0  0  0
   55.2638    2.2138   59.2210 C   0  0  0  0  0  0  0  0  0  0  0  0
   55.3159    2.7721   58.0557 N   0  0  0  0  0  0  0  0  0  0  0  0
   55.0667    3.0034   60.2806 N   0  0  0  0  0  0  0  0  0  0  0  0
   54.9672    4.4431   60.1513 C   0  0  0  0  0  0  0  0  0  0  0  0
   54.9181    5.1080   61.5077 C   0  0  0  0  0  0  0  0  0  0  0  0
   54.7016    4.1025   62.6176 C   0  0  0  0  0  0  0  0  0  0  0  0
   55.7412    5.9349   52.2002 O   0  0  0  0  0  0  0  0  0  0  0  0
   55.7380   -0.1076   54.5692 H   0  0  0  0  0  0  0  0  0  0  0  0
   56.3988    6.1292   54.7780 H   0  0  0  0  0  0  0  0  0  0  0  0
   56.3307    4.2426   56.3752 H   0  0  0  0  0  0  0  0  0  0  0  0
   55.0877    3.5148   51.6327 H   0  0  0  0  0  0  0  0  0  0  0  0
   54.9846    1.6416   53.2317 H   0  0  0  0  0  0  0  0  0  0  0  0
   54.9833    2.5772   61.2145 H   0  0  0  0  0  0  0  0  0  0  0  0
   55.8429    4.8159   59.5998 H   0  0  0  0  0  0  0  0  0  0  0  0
   54.0398    4.6826   59.6105 H   0  0  0  0  0  0  0  0  0  0  0  0
   55.8694    5.6320   61.6823 H   0  0  0  0  0  0  0  0  0  0  0  0
   54.0728    5.8118   61.5137 H   0  0  0  0  0  0  0  0  0  0  0  0
   54.8093    4.6025   63.5915 H   0  0  0  0  0  0  0  0  0  0  0  0
   53.6911    3.6761   62.5341 H   0  0  0  0  0  0  0  0  0  0  0  0
   55.4471    3.2980   62.5341 H   0  0  0  0  0  0  0  0  0  0  0  0
   55.4801    5.7471   51.2639 H   0  0  0  0  0  0  0  0  0  0  0  0
  1  2  2  0
  1  3  1  0
  1 11  1  0
  2  9  1  0
  3  5  1  0
  3  8  2  0
  4  5  2  0
  4  6  1  0
  6  7  2  0
  6 19  1  0
  7  8  1  0
  9 10  2  0
 10 11  1  0
 10 12  1  0
 11 14  1  0
 12 13  1  0
 13 14  2  0
 13 15  1  0
 15 16  1  0
 16 17  1  0
 17 18  1  0
  2 20  1  0
  4 21  1  0
  5 22  1  0
  7 23  1  0
  8 24  1  0
 15 25  1  0
 16 26  1  0
 16 27  1  0
 17 28  1  0
 17 29  1  0
 18 30  1  0
 18 31  1  0
 18 32  1  0
 19 33  1  0
M  END
>  <filename_input>  (24) 
7OPG_06N_docked.sdf

>  <pdb_id>  (24) 
7OPG_06N

>  <pose_rank>  (24) 
23

>  <num_atoms_heavy>  (24) 
19

>  <num_torsions>  (24) 
3

>  <pose>  (24) 
[55.60071186776886, 1.6698650612253974, 55.82156862227601, 2.5263632893046615, -3.672917916958626, 18.237831603155882, 3.224873049166262, -6.741291050845515, 4.895680800129525]

>  <energy>  (24) 
-696.030186944634

>  <inter_energy>  (24) 
-706.3809369412706

>  <intra_energy>  (24) 
10.242747665889054

>  <rmsd>  (24) 
0.763562

>  <sdf_rank>  (24) 
0

$$$$

     RDKit          3D

 33 35  0  0  0  0  0  0  0  0999 V2000
   54.3054    2.7639   57.3455 C   0  0  0  0  0  0  0  0  0  0  0  0
   53.0304    2.3634   57.6214 C   0  0  0  0  0  0  0  0  0  0  0  0
   55.0684    2.7215   56.0934 C   0  0  0  0  0  0  0  0  0  0  0  0
   55.2252    2.9530   53.7039 C   0  0  0  0  0  0  0  0  0  0  0  0
   54.4806    3.0060   54.8622 C   0  0  0  0  0  0  0  0  0  0  0  0
   56.5587    2.6168   53.7539 C   0  0  0  0  0  0  0  0  0  0  0  0
   57.1537    2.3418   54.9733 C   0  0  0  0  0  0  0  0  0  0  0  0
   56.4067    2.3850   56.1245 C   0  0  0  0  0  0  0  0  0  0  0  0
   52.6895    2.5846   58.9352 N   0  0  0  0  0  0  0  0  0  0  0  0
   53.7511    3.1239   59.4632 C   0  0  0  0  0  0  0  0  0  0  0  0
   54.7444    3.2711   58.5368 N   0  0  0  0  0  0  0  0  0  0  0  0
   54.2636    3.6773   61.0365 S   0  0  0  0  0  0  0  0  0  0  0  0
   55.7474    4.0910   60.1959 C   0  0  0  0  0  0  0  0  0  0  0  0
   55.9069    3.8596   58.9336 N   0  0  0  0  0  0  0  0  0  0  0  0
   56.7295    4.7276   60.8403 N   0  0  0  0  0  0  0  0  0  0  0  0
   57.9602    5.1042   60.1747 C   0  0  0  0  0  0  0  0  0  0  0  0
   58.9637    3.9745   60.2091 C   0  0  0  0  0  0  0  0  0  0  0  0
   59.3914    3.6473   61.6232 C   0  0  0  0  0  0  0  0  0  0  0  0
   57.3397    2.5365   52.6480 O   0  0  0  0  0  0  0  0  0  0  0  0
   52.3537    1.9155   56.8789 H   0  0  0  0  0  0  0  0  0  0  0  0
   54.7525    3.1801   52.7369 H   0  0  0  0  0  0  0  0  0  0  0  0
   53.4150    3.2746   54.8147 H   0  0  0  0  0  0  0  0  0  0  0  0
   58.2232    2.0890   55.0198 H   0  0  0  0  0  0  0  0  0  0  0  0
   56.8826    2.1476   57.0875 H   0  0  0  0  0  0  0  0  0  0  0  0
   56.6085    4.9570   61.8371 H   0  0  0  0  0  0  0  0  0  0  0  0
   57.7395    5.3571   59.1272 H   0  0  0  0  0  0  0  0  0  0  0  0
   58.3904    5.9704   60.6986 H   0  0  0  0  0  0  0  0  0  0  0  0
   58.5089    3.0801   59.7584 H   0  0  0  0  0  0  0  0  0  0  0  0
   59.8545    4.2906   59.6465 H   0  0  0  0  0  0  0  0  0  0  0  0
   58.7254    4.1569   62.3349 H   0  0  0  0  0  0  0  0  0  0  0  0
   59.3340    2.5602   61.7813 H   0  0  0  0  0  0  0  0  0  0  0  0
   60.4257    3.9867   61.7813 H   0  0  0  0  0  0  0  0  0  0  0  0
   58.2948    2.2906   52.7333 H   0  0  0  0  0  0  0  0  0  0  0  0
  1  2  2  0
  1  3  1  0
  1 11  1  0
  2  9  1  0
  3  5  1  0
  3  8  2  0
  4  5  2  0
  4  6  1  0
  6  7  2  0
  6 19  1  0
  7  8  1  0
  9 10  2  0
 10 11  1  0
 10 12  1  0
 11 14  1  0
 12 13  1  0
 13 14  2  0
 13 15  1  0
 15 16  1  0
 16 17  1  0
 17 18  1  0
  2 20  1  0
  4 21  1  0
  5 22  1  0
  7 23  1  0
  8 24  1  0
 15 25  1  0
 16 26  1  0
 16 27  1  0
 17 28  1  0
 17 29  1  0
 18 30  1  0
 18 31  1  0
 18 32  1  0
 19 33  1  0
M  END
>  <filename_input>  (25) 
7OPG_06N_docked.sdf

>  <pdb_id>  (25) 
7OPG_06N

>  <pose_rank>  (25) 
24

>  <num_atoms_heavy>  (25) 
19

>  <num_torsions>  (25) 
3

>  <pose>  (25) 
[54.30539271667613, 2.7638818845977147, 57.345470823348776, -0.4431662761546263, 0.1011064819086189, -1.3515923548560522, 0.3809458083454614, 1.047846341397993, 3.9796147776327566]

>  <energy>  (25) 
-450.15158218644615

>  <inter_energy>  (25) 
-442.4162813074608

>  <intra_energy>  (25) 
11.61760386455716

>  <rmsd>  (25) 
3.17331

>  <sdf_rank>  (25) 
0

$$$$

     RDKit          3D

 33 35  0  0  0  0  0  0  0  0999 V2000
   55.5990    1.2980   55.4950 C   0  0  0  0  0  0  0  0  0  0  0  0
   55.7430   -0.0340   55.2360 C   0  0  0  0  0  0  0  0  0  0  0  0
   55.5850    2.4500   54.5870 C   0  0  0  0  0  0  0  0  0  0  0  0
   55.3710    3.4090   52.3910 C   0  0  0  0  0  0  0  0  0  0  0  0
   55.3740    2.3060   53.2170 C   0  0  0  0  0  0  0  0  0  0  0  0
   55.5780    4.6650   52.9140 C   0  0  0  0  0  0  0  0  0  0  0  0
   55.7790    4.8190   54.2750 C   0  0  0  0  0  0  0  0  0  0  0  0
   55.7920    3.7170   55.0940 C   0  0  0  0  0  0  0  0  0  0  0  0
   55.6930   -0.7940   56.3810 N   0  0  0  0  0  0  0  0  0  0  0  0
   55.5140    0.0690   57.3400 C   0  0  0  0  0  0  0  0  0  0  0  0
   55.4300    1.3420   56.8510 N   0  0  0  0  0  0  0  0  0  0  0  0
   55.3870    0.0480   59.0800 S   0  0  0  0  0  0  0  0  0  0  0  0
   55.1750    1.7800   58.8940 C   0  0  0  0  0  0  0  0  0  0  0  0
   55.2030    2.3530   57.7350 N   0  0  0  0  0  0  0  0  0  0  0  0
   54.9060    2.5420   59.9580 N   0  0  0  0  0  0  0  0  0  0  0  0
   54.7040    3.9720   59.8410 C   0  0  0  0  0  0  0  0  0  0  0  0
   55.2090    4.6940   61.0690 C   0  0  0  0  0  0  0  0  0  0  0  0
   56.7160    4.6200   61.1830 C   0  0  0  0  0  0  0  0  0  0  0  0
   55.5980    5.7860   52.1510 O   0  0  0  0  0  0  0  0  0  0  0  0
   55.8829   -0.4515   54.2280 H   0  0  0  0  0  0  0  0  0  0  0  0
   55.2027    3.2853   51.3110 H   0  0  0  0  0  0  0  0  0  0  0  0
   55.2087    1.3049   52.7921 H   0  0  0  0  0  0  0  0  0  0  0  0
   55.9281    5.8227   54.6997 H   0  0  0  0  0  0  0  0  0  0  0  0
   55.9703    3.8460   56.1718 H   0  0  0  0  0  0  0  0  0  0  0  0
   54.8405    2.1010   60.8865 H   0  0  0  0  0  0  0  0  0  0  0  0
   55.2472    4.3407   58.9584 H   0  0  0  0  0  0  0  0  0  0  0  0
   53.6260    4.1659   59.7397 H   0  0  0  0  0  0  0  0  0  0  0  0
   54.9076    5.7503   61.0104 H   0  0  0  0  0  0  0  0  0  0  0  0
   54.7743    4.2080   61.9549 H   0  0  0  0  0  0  0  0  0  0  0  0
   57.0031    4.6059   62.2448 H   0  0  0  0  0  0  0  0  0  0  0  0
   57.0762    3.7031   60.6936 H   0  0  0  0  0  0  0  0  0  0  0  0
   57.1643    5.4972   60.6936 H   0  0  0  0  0  0  0  0  0  0  0  0
   55.7507    6.6688   52.5722 H   0  0  0  0  0  0  0  0  0  0  0  0
  1  2  2  0
  1  3  1  0
  1 11  1  0
  2  9  1  0
  3  5  1  0
  3  8  2  0
  4  5  2  0
  4  6  1  0
  6  7  2  0
  6 19  1  0
  7  8  1  0
  9 10  2  0
 10 11  1  0
 10 12  1  0
 11 14  1  0
 12 13  1  0
 13 14  2  0
 13 15  1  0
 15 16  1  0
 16 17  1  0
 17 18  1  0
  2 20  1  0
  4 21  1  0
  5 22  1  0
  7 23  1  0
  8 24  1  0
 15 25  1  0
 16 26  1  0
 16 27  1  0
 17 28  1  0
 17 29  1  0
 18 30  1  0
 18 31  1  0
 18 32  1  0
 19 33  1  0
M  END
>  <filename_input>  (26) 
7OPG_06N_docked.sdf

>  <pdb_id>  (26) 
7OPG_06N

>  <pose_rank>  (26) 
25

>  <num_atoms_heavy>  (26) 
19

>  <num_torsions>  (26) 
3

>  <pose>  (26) 
[55.599, 1.298, 55.495, 1e-06, 1e-06, 1e-06, 0.0, 0.0, 0.0]

>  <energy>  (26) 
-830.3445876273843

>  <inter_energy>  (26) 
-821.9029554466952

>  <intra_energy>  (26) 
13.45772829735105

>  <rmsd>  (26) 
0.0

>  <sdf_rank>  (26) 
0

$$$$
