
     RDKit          3D

 17 16  0  0  0  0  0  0  0  0999 V2000
   32.2893    9.5543   10.2057 C   0  0  0  0  0  0  0  0  0  0  0  0
   31.6178    8.4137   10.9926 C   0  0  2  0  0  0  0  0  0  0  0  0
   31.3043    7.2934   10.0125 C   0  0  0  0  0  0  0  0  0  0  0  0
   31.1742    5.9316   10.6948 C   0  0  0  0  0  0  0  0  0  0  0  0
   29.8640    5.7418   11.2183 O   0  0  0  0  0  0  0  0  0  0  0  0
   30.4036    8.8967   11.6039 O   0  0  0  0  0  0  0  0  0  0  0  0
   32.9092   10.5454   11.0424 O   0  0  0  0  0  0  0  0  0  0  0  0
   33.0604    9.1191    9.5530 H   0  0  0  0  0  0  0  0  0  0  0  0
   31.4970   10.0631    9.6371 H   0  0  0  0  0  0  0  0  0  0  0  0
   32.2826    8.0453   11.7877 H   0  0  0  0  0  0  0  0  0  0  0  0
   30.3562    7.5247    9.5051 H   0  0  0  0  0  0  0  0  0  0  0  0
   32.1414    7.2300    9.3016 H   0  0  0  0  0  0  0  0  0  0  0  0
   31.3853    5.1405    9.9603 H   0  0  0  0  0  0  0  0  0  0  0  0
   31.8918    5.8890   11.5274 H   0  0  0  0  0  0  0  0  0  0  0  0
   29.8999    5.7470   12.2077 H   0  0  0  0  0  0  0  0  0  0  0  0
   30.4933    8.8610   12.5892 H   0  0  0  0  0  0  0  0  0  0  0  0
   32.7635   10.3123   11.9935 H   0  0  0  0  0  0  0  0  0  0  0  0
  1  2  1  0
  1  7  1  0
  2  3  1  0
  2  6  1  0
  3  4  1  0
  4  5  1  0
  1  8  1  0
  1  9  1  0
  2 10  1  1
  3 11  1  0
  3 12  1  0
  4 13  1  0
  4 14  1  0
  5 15  1  0
  6 16  1  0
  7 17  1  0
M  END
>  <filename_input>  (1) 
7OSO_0V1_docked.sdf

>  <pdb_id>  (1) 
7OSO_0V1

>  <pose_rank>  (1) 
0

>  <num_atoms_heavy>  (1) 
7

>  <num_torsions>  (1) 
3

>  <pose>  (1) 
[31.617805216636874, 8.413740417333722, 10.992552750501952, -0.055361723772458356, 0.12267046311653378, -2.6479898101633896, 0.2280596400660117, -6.482837325514247, 15.216495594272372]

>  <energy>  (1) 
-363.95189906483773

>  <inter_energy>  (1) 
-338.3226129689532

>  <intra_energy>  (1) 
0.9314101544672762

>  <rmsd>  (1) 
3.77279

>  <sdf_rank>  (1) 
0

$$$$

     RDKit          3D

 17 16  0  0  0  0  0  0  0  0999 V2000
   29.6950    6.7022   11.3689 C   0  0  0  0  0  0  0  0  0  0  0  0
   30.1424    8.1491   11.0908 C   0  0  2  0  0  0  0  0  0  0  0  0
   31.6359    8.2360   11.3663 C   0  0  0  0  0  0  0  0  0  0  0  0
   32.4307    8.7340   10.1593 C   0  0  0  0  0  0  0  0  0  0  0  0
   32.5001   10.1558   10.1402 O   0  0  0  0  0  0  0  0  0  0  0  0
   29.4219    9.0530   11.9541 O   0  0  0  0  0  0  0  0  0  0  0  0
   28.2690    6.5474   11.4641 O   0  0  0  0  0  0  0  0  0  0  0  0
   30.0602    6.0625   10.5519 H   0  0  0  0  0  0  0  0  0  0  0  0
   30.1156    6.4171   12.3445 H   0  0  0  0  0  0  0  0  0  0  0  0
   29.9338    8.4273   10.0472 H   0  0  0  0  0  0  0  0  0  0  0  0
   31.7992    8.9285   12.2052 H   0  0  0  0  0  0  0  0  0  0  0  0
   31.9898    7.2214   11.6014 H   0  0  0  0  0  0  0  0  0  0  0  0
   33.4508    8.3255   10.2079 H   0  0  0  0  0  0  0  0  0  0  0  0
   31.9217    8.3976    9.2439 H   0  0  0  0  0  0  0  0  0  0  0  0
   32.5168   10.4979   11.0691 H   0  0  0  0  0  0  0  0  0  0  0  0
   29.6052    8.8230   12.8994 H   0  0  0  0  0  0  0  0  0  0  0  0
   28.0031    6.5185   12.4173 H   0  0  0  0  0  0  0  0  0  0  0  0
  1  2  1  0
  1  7  1  0
  2  3  1  0
  2  6  1  0
  3  4  1  0
  4  5  1  0
  1  8  1  0
  1  9  1  0
  2 10  1  6
  3 11  1  0
  3 12  1  0
  4 13  1  0
  4 14  1  0
  5 15  1  0
  6 16  1  0
  7 17  1  0
M  END
>  <filename_input>  (2) 
7OSO_0V1_docked.sdf

>  <pdb_id>  (2) 
7OSO_0V1

>  <pose_rank>  (2) 
1

>  <num_atoms_heavy>  (2) 
7

>  <num_torsions>  (2) 
3

>  <pose>  (2) 
[30.142361933214826, 8.149095205157243, 11.090809451306658, -1.6708907957091155, -1.3501122226053701, 0.031983196874877176, -0.2515810372466098, -0.7842308692850734, 2.7102855774866037]

>  <energy>  (2) 
-272.9203533052101

>  <inter_energy>  (2) 
-269.78813173508775

>  <intra_energy>  (2) 
0.0

>  <rmsd>  (2) 
1.8343

>  <sdf_rank>  (2) 
0

$$$$

     RDKit          3D

 17 16  0  0  0  0  0  0  0  0999 V2000
   30.1527    7.9202    9.8022 C   0  0  0  0  0  0  0  0  0  0  0  0
   31.1697    8.5112   10.7959 C   0  0  2  0  0  0  0  0  0  0  0  0
   32.4557    7.7070   10.6800 C   0  0  0  0  0  0  0  0  0  0  0  0
   32.3073    6.4839    9.7751 C   0  0  0  0  0  0  0  0  0  0  0  0
   32.0215    5.3140   10.5344 O   0  0  0  0  0  0  0  0  0  0  0  0
   30.6443    8.4224   12.1366 O   0  0  0  0  0  0  0  0  0  0  0  0
   28.9585    7.4208   10.4273 O   0  0  0  0  0  0  0  0  0  0  0  0
   29.8680    8.7065    9.0875 H   0  0  0  0  0  0  0  0  0  0  0  0
   30.6412    7.0652    9.3120 H   0  0  0  0  0  0  0  0  0  0  0  0
   31.3644    9.5700   10.5701 H   0  0  0  0  0  0  0  0  0  0  0  0
   33.2411    8.3570   10.2670 H   0  0  0  0  0  0  0  0  0  0  0  0
   32.7136    7.3461   11.6866 H   0  0  0  0  0  0  0  0  0  0  0  0
   31.4860    6.6603    9.0650 H   0  0  0  0  0  0  0  0  0  0  0  0
   33.2558    6.3291    9.2400 H   0  0  0  0  0  0  0  0  0  0  0  0
   32.0734    5.5264   11.5000 H   0  0  0  0  0  0  0  0  0  0  0  0
   31.3794    8.5467   12.7880 H   0  0  0  0  0  0  0  0  0  0  0  0
   29.0588    7.4627   11.4113 H   0  0  0  0  0  0  0  0  0  0  0  0
  1  2  1  0
  1  7  1  0
  2  3  1  0
  2  6  1  0
  3  4  1  0
  4  5  1  0
  1  8  1  0
  1  9  1  0
  2 10  1  6
  3 11  1  0
  3 12  1  0
  4 13  1  0
  4 14  1  0
  5 15  1  0
  6 16  1  0
  7 17  1  0
M  END
>  <filename_input>  (3) 
7OSO_0V1_docked.sdf

>  <pdb_id>  (3) 
7OSO_0V1

>  <pose_rank>  (3) 
2

>  <num_atoms_heavy>  (3) 
7

>  <num_torsions>  (3) 
3

>  <pose>  (3) 
[31.169651363000522, 8.511213730224767, 10.795916590899102, 3.2362126051340967, 2.196295476621801, 2.7796496363187755, -1.0598294629736333, 3.224016323713885, -0.486854160756376]

>  <energy>  (3) 
-329.7403158849413

>  <inter_energy>  (3) 
-305.1460191828719

>  <intra_energy>  (3) 
3.007078013894712

>  <rmsd>  (3) 
2.6547

>  <sdf_rank>  (3) 
0

$$$$

     RDKit          3D

 17 16  0  0  0  0  0  0  0  0999 V2000
   30.6707    7.2235   11.0003 C   0  0  0  0  0  0  0  0  0  0  0  0
   32.1112    6.9205   10.5485 C   0  0  2  0  0  0  0  0  0  0  0  0
   32.3998    7.7634    9.3155 C   0  0  0  0  0  0  0  0  0  0  0  0
   32.0013    9.2282    9.4956 C   0  0  0  0  0  0  0  0  0  0  0  0
   31.0375    9.6221    8.5246 O   0  0  0  0  0  0  0  0  0  0  0  0
   32.2353    5.5178   10.2347 O   0  0  0  0  0  0  0  0  0  0  0  0
   29.6970    7.0904    9.9512 O   0  0  0  0  0  0  0  0  0  0  0  0
   30.4067    6.5270   11.8098 H   0  0  0  0  0  0  0  0  0  0  0  0
   30.6500    8.2735   11.3273 H   0  0  0  0  0  0  0  0  0  0  0  0
   32.8284    7.1611   11.3471 H   0  0  0  0  0  0  0  0  0  0  0  0
   33.4776    7.7158    9.1011 H   0  0  0  0  0  0  0  0  0  0  0  0
   31.8017    7.3559    8.4872 H   0  0  0  0  0  0  0  0  0  0  0  0
   31.5744    9.3631   10.5003 H   0  0  0  0  0  0  0  0  0  0  0  0
   32.8987    9.8516    9.3688 H   0  0  0  0  0  0  0  0  0  0  0  0
   30.2249    9.9542    8.9821 H   0  0  0  0  0  0  0  0  0  0  0  0
   32.2816    4.9947   11.0739 H   0  0  0  0  0  0  0  0  0  0  0  0
   28.7985    6.9676   10.3485 H   0  0  0  0  0  0  0  0  0  0  0  0
  1  2  1  0
  1  7  1  0
  2  3  1  0
  2  6  1  0
  3  4  1  0
  4  5  1  0
  1  8  1  0
  1  9  1  0
  2 10  1  1
  3 11  1  0
  3 12  1  0
  4 13  1  0
  4 14  1  0
  5 15  1  0
  6 16  1  0
  7 17  1  0
M  END
>  <filename_input>  (4) 
7OSO_0V1_docked.sdf

>  <pdb_id>  (4) 
7OSO_0V1

>  <pose_rank>  (4) 
3

>  <num_atoms_heavy>  (4) 
7

>  <num_torsions>  (4) 
3

>  <pose>  (4) 
[32.11120233977765, 6.920461584462928, 10.54851472691518, 0.22687157915034928, 0.913775888939105, -0.5991078469162655, -2.2341240701498966, -2.094016237635671, -0.9229012940842515]

>  <energy>  (4) 
-233.17678676304052

>  <inter_energy>  (4) 
-241.94636717451993

>  <intra_energy>  (4) 
7.121160084645381

>  <rmsd>  (4) 
1.72812

>  <sdf_rank>  (4) 
0

$$$$

     RDKit          3D

 17 16  0  0  0  0  0  0  0  0999 V2000
   30.3695    8.6524   11.4875 C   0  0  0  0  0  0  0  0  0  0  0  0
   30.7487    7.2626   10.9437 C   0  0  2  0  0  0  0  0  0  0  0  0
   32.0607    7.4009   10.1863 C   0  0  0  0  0  0  0  0  0  0  0  0
   33.0855    6.3381   10.5823 C   0  0  0  0  0  0  0  0  0  0  0  0
   32.4464    5.1678   11.0811 O   0  0  0  0  0  0  0  0  0  0  0  0
   29.7105    6.7881   10.0615 O   0  0  0  0  0  0  0  0  0  0  0  0
   31.3218    9.6789   11.1620 O   0  0  0  0  0  0  0  0  0  0  0  0
   29.3943    8.9365   11.0652 H   0  0  0  0  0  0  0  0  0  0  0  0
   30.3441    8.5729   12.5843 H   0  0  0  0  0  0  0  0  0  0  0  0
   30.8611    6.5403   11.7656 H   0  0  0  0  0  0  0  0  0  0  0  0
   31.8566    7.3090    9.1093 H   0  0  0  0  0  0  0  0  0  0  0  0
   32.4871    8.3833   10.4373 H   0  0  0  0  0  0  0  0  0  0  0  0
   33.6850    6.0710    9.6995 H   0  0  0  0  0  0  0  0  0  0  0  0
   33.7264    6.7503   11.3756 H   0  0  0  0  0  0  0  0  0  0  0  0
   32.4550    5.1836   12.0710 H   0  0  0  0  0  0  0  0  0  0  0  0
   28.9539    6.4423   10.5982 H   0  0  0  0  0  0  0  0  0  0  0  0
   31.6841   10.0694   11.9964 H   0  0  0  0  0  0  0  0  0  0  0  0
  1  2  1  0
  1  7  1  0
  2  3  1  0
  2  6  1  0
  3  4  1  0
  4  5  1  0
  1  8  1  0
  1  9  1  0
  2 10  1  1
  3 11  1  0
  3 12  1  0
  4 13  1  0
  4 14  1  0
  5 15  1  0
  6 16  1  0
  7 17  1  0
M  END
>  <filename_input>  (5) 
7OSO_0V1_docked.sdf

>  <pdb_id>  (5) 
7OSO_0V1

>  <pose_rank>  (5) 
4

>  <num_atoms_heavy>  (5) 
7

>  <num_torsions>  (5) 
3

>  <pose>  (5) 
[30.748704422399232, 7.262642743040566, 10.94366269966454, 1.2327775280851072, 0.5355606847436577, -1.4662036875161828, 3.1295262087052684, -0.6387481109370534, 1.628911089997429]

>  <energy>  (5) 
-269.5997030878279

>  <inter_energy>  (5) 
-261.99953311561615

>  <intra_energy>  (5) 
0.11112095338818592

>  <rmsd>  (5) 
3.18542

>  <sdf_rank>  (5) 
0

$$$$

     RDKit          3D

 17 16  0  0  0  0  0  0  0  0999 V2000
   29.0541    7.2440   10.8680 C   0  0  0  0  0  0  0  0  0  0  0  0
   30.5938    7.2464   10.8609 C   0  0  2  0  0  0  0  0  0  0  0  0
   31.0529    8.0619    9.6617 C   0  0  0  0  0  0  0  0  0  0  0  0
   32.2867    8.9124    9.9637 C   0  0  0  0  0  0  0  0  0  0  0  0
   33.3898    8.0995   10.3497 O   0  0  0  0  0  0  0  0  0  0  0  0
   31.0797    5.8919   10.7591 O   0  0  0  0  0  0  0  0  0  0  0  0
   28.4710    7.9824    9.7811 O   0  0  0  0  0  0  0  0  0  0  0  0
   28.7079    6.2018   10.8052 H   0  0  0  0  0  0  0  0  0  0  0  0
   28.7356    7.7361   11.7988 H   0  0  0  0  0  0  0  0  0  0  0  0
   30.9867    7.6860   11.7896 H   0  0  0  0  0  0  0  0  0  0  0  0
   31.2934    7.3728    8.8388 H   0  0  0  0  0  0  0  0  0  0  0  0
   30.2351    8.7468    9.3930 H   0  0  0  0  0  0  0  0  0  0  0  0
   32.5587    9.4826    9.0632 H   0  0  0  0  0  0  0  0  0  0  0  0
   32.0467    9.5919   10.7948 H   0  0  0  0  0  0  0  0  0  0  0  0
   33.4418    8.0612   11.3376 H   0  0  0  0  0  0  0  0  0  0  0  0
   31.2131    5.5200   11.6669 H   0  0  0  0  0  0  0  0  0  0  0  0
   27.8997    8.7057   10.1425 H   0  0  0  0  0  0  0  0  0  0  0  0
  1  2  1  0
  1  7  1  0
  2  3  1  0
  2  6  1  0
  3  4  1  0
  4  5  1  0
  1  8  1  0
  1  9  1  0
  2 10  1  1
  3 11  1  0
  3 12  1  0
  4 13  1  0
  4 14  1  0
  5 15  1  0
  6 16  1  0
  7 17  1  0
M  END
>  <filename_input>  (6) 
7OSO_0V1_docked.sdf

>  <pdb_id>  (6) 
7OSO_0V1

>  <pose_rank>  (6) 
5

>  <num_atoms_heavy>  (6) 
7

>  <num_torsions>  (6) 
3

>  <pose>  (6) 
[30.593823848853624, 7.246436718584342, 10.860924070005883, 0.12730404892192762, 0.6235215892297281, -0.3931408960893615, 3.1397605252516847, -0.4628898895123487, 2.23576257974418]

>  <energy>  (6) 
-260.0282764517368

>  <inter_energy>  (6) 
-261.0785109280924

>  <intra_energy>  (6) 
0.9561414072426123

>  <rmsd>  (6) 
1.64082

>  <sdf_rank>  (6) 
0

$$$$

     RDKit          3D

 17 16  0  0  0  0  0  0  0  0999 V2000
   32.0245    9.3916   10.2593 C   0  0  0  0  0  0  0  0  0  0  0  0
   31.1369    8.5676   11.2101 C   0  0  2  0  0  0  0  0  0  0  0  0
   31.5375    7.1066   11.0724 C   0  0  0  0  0  0  0  0  0  0  0  0
   32.4206    6.8494    9.8515 C   0  0  0  0  0  0  0  0  0  0  0  0
   33.7563    6.5438   10.2380 O   0  0  0  0  0  0  0  0  0  0  0  0
   29.7506    8.7413   10.8506 O   0  0  0  0  0  0  0  0  0  0  0  0
   32.4220   10.6636   10.7983 O   0  0  0  0  0  0  0  0  0  0  0  0
   32.9312    8.8092   10.0384 H   0  0  0  0  0  0  0  0  0  0  0  0
   31.4278    9.5961    9.3582 H   0  0  0  0  0  0  0  0  0  0  0  0
   31.2686    8.8991   12.2507 H   0  0  0  0  0  0  0  0  0  0  0  0
   32.0893    6.8064   11.9754 H   0  0  0  0  0  0  0  0  0  0  0  0
   30.6157    6.5200   10.9451 H   0  0  0  0  0  0  0  0  0  0  0  0
   32.0089    6.0026    9.2828 H   0  0  0  0  0  0  0  0  0  0  0  0
   32.4359    7.7598    9.2344 H   0  0  0  0  0  0  0  0  0  0  0  0
   33.8188    6.5295   11.2259 H   0  0  0  0  0  0  0  0  0  0  0  0
   29.2027    8.8100   11.6723 H   0  0  0  0  0  0  0  0  0  0  0  0
   32.4088   10.6216   11.7873 H   0  0  0  0  0  0  0  0  0  0  0  0
  1  2  1  0
  1  7  1  0
  2  3  1  0
  2  6  1  0
  3  4  1  0
  4  5  1  0
  1  8  1  0
  1  9  1  0
  2 10  1  1
  3 11  1  0
  3 12  1  0
  4 13  1  0
  4 14  1  0
  5 15  1  0
  6 16  1  0
  7 17  1  0
M  END
>  <filename_input>  (7) 
7OSO_0V1_docked.sdf

>  <pdb_id>  (7) 
7OSO_0V1

>  <pose_rank>  (7) 
6

>  <num_atoms_heavy>  (7) 
7

>  <num_torsions>  (7) 
3

>  <pose>  (7) 
[31.13689467102201, 8.567626165746532, 11.210145967191954, 0.4236883341175424, -0.7881363353115479, -2.235490616015535, 6.9412406043364125, 3.1147890889358245, -3.1871235773559854]

>  <energy>  (7) 
-301.5557640041999

>  <inter_energy>  (7) 
-295.56775970835497

>  <intra_energy>  (7) 
2.1380739382759213

>  <rmsd>  (7) 
3.42395

>  <sdf_rank>  (7) 
0

$$$$

     RDKit          3D

 17 16  0  0  0  0  0  0  0  0999 V2000
   32.4951    7.1770   10.4027 C   0  0  0  0  0  0  0  0  0  0  0  0
   31.7679    8.4694   10.8172 C   0  0  2  0  0  0  0  0  0  0  0  0
   30.3112    8.1200   11.0814 C   0  0  0  0  0  0  0  0  0  0  0  0
   29.8737    6.8384   10.3724 C   0  0  0  0  0  0  0  0  0  0  0  0
   29.5476    5.8177   11.3097 O   0  0  0  0  0  0  0  0  0  0  0  0
   31.8637    9.4408    9.7548 O   0  0  0  0  0  0  0  0  0  0  0  0
   33.8841    7.1526   10.7723 O   0  0  0  0  0  0  0  0  0  0  0  0
   31.9923    6.3256   10.8847 H   0  0  0  0  0  0  0  0  0  0  0  0
   32.4531    7.1219    9.3049 H   0  0  0  0  0  0  0  0  0  0  0  0
   32.2234    8.8996   11.7213 H   0  0  0  0  0  0  0  0  0  0  0  0
   30.1719    7.9881   12.1645 H   0  0  0  0  0  0  0  0  0  0  0  0
   29.6958    8.9432   10.6893 H   0  0  0  0  0  0  0  0  0  0  0  0
   28.9895    7.0540    9.7545 H   0  0  0  0  0  0  0  0  0  0  0  0
   30.7065    6.4843    9.7471 H   0  0  0  0  0  0  0  0  0  0  0  0
   29.6590    6.1665   12.2295 H   0  0  0  0  0  0  0  0  0  0  0  0
   31.9530   10.3470   10.1433 H   0  0  0  0  0  0  0  0  0  0  0  0
   33.9630    7.1512   11.7591 H   0  0  0  0  0  0  0  0  0  0  0  0
  1  2  1  0
  1  7  1  0
  2  3  1  0
  2  6  1  0
  3  4  1  0
  4  5  1  0
  1  8  1  0
  1  9  1  0
  2 10  1  1
  3 11  1  0
  3 12  1  0
  4 13  1  0
  4 14  1  0
  5 15  1  0
  6 16  1  0
  7 17  1  0
M  END
>  <filename_input>  (8) 
7OSO_0V1_docked.sdf

>  <pdb_id>  (8) 
7OSO_0V1

>  <pose_rank>  (8) 
7

>  <num_atoms_heavy>  (8) 
7

>  <num_torsions>  (8) 
3

>  <pose>  (8) 
[31.76792773193573, 8.469439937251897, 10.817150097593407, -0.20502781457698332, -2.4067761702963595, -3.023443870736273, 6.806412988189584, 2.956029899402533, -3.0995164741819115]

>  <energy>  (8) 
-300.1631722889592

>  <inter_energy>  (8) 
-291.3190002258203

>  <intra_energy>  (8) 
1.5843948949461328

>  <rmsd>  (8) 
3.61543

>  <sdf_rank>  (8) 
0

$$$$

     RDKit          3D

 17 16  0  0  0  0  0  0  0  0999 V2000
   29.9176    8.3162    9.3340 C   0  0  0  0  0  0  0  0  0  0  0  0
   31.1992    8.2587   10.1856 C   0  0  2  0  0  0  0  0  0  0  0  0
   31.7035    6.8236   10.1721 C   0  0  0  0  0  0  0  0  0  0  0  0
   33.1105    6.6870   10.7539 C   0  0  0  0  0  0  0  0  0  0  0  0
   34.0966    6.7168    9.7275 O   0  0  0  0  0  0  0  0  0  0  0  0
   30.9022    8.6709   11.5359 O   0  0  0  0  0  0  0  0  0  0  0  0
   28.8949    7.4041    9.7684 O   0  0  0  0  0  0  0  0  0  0  0  0
   29.5144    9.3385    9.3816 H   0  0  0  0  0  0  0  0  0  0  0  0
   30.1972    8.0230    8.3114 H   0  0  0  0  0  0  0  0  0  0  0  0
   31.9673    8.9330    9.7790 H   0  0  0  0  0  0  0  0  0  0  0  0
   31.0156    6.2033   10.7654 H   0  0  0  0  0  0  0  0  0  0  0  0
   31.7447    6.4959    9.1228 H   0  0  0  0  0  0  0  0  0  0  0  0
   33.2928    7.5181   11.4511 H   0  0  0  0  0  0  0  0  0  0  0  0
   33.1796    5.7211   11.2757 H   0  0  0  0  0  0  0  0  0  0  0  0
   34.9978    6.7440   10.1365 H   0  0  0  0  0  0  0  0  0  0  0  0
   31.3449    8.0564   12.1734 H   0  0  0  0  0  0  0  0  0  0  0  0
   28.8706    7.3824   10.7578 H   0  0  0  0  0  0  0  0  0  0  0  0
  1  2  1  0
  1  7  1  0
  2  3  1  0
  2  6  1  0
  3  4  1  0
  4  5  1  0
  1  8  1  0
  1  9  1  0
  2 10  1  6
  3 11  1  0
  3 12  1  0
  4 13  1  0
  4 14  1  0
  5 15  1  0
  6 16  1  0
  7 17  1  0
M  END
>  <filename_input>  (9) 
7OSO_0V1_docked.sdf

>  <pdb_id>  (9) 
7OSO_0V1

>  <pose_rank>  (9) 
8

>  <num_atoms_heavy>  (9) 
7

>  <num_torsions>  (9) 
3

>  <pose>  (9) 
[31.199194706779434, 8.25871597039278, 10.185587481426925, -1.4283143841087667, -0.33742598574322225, -1.3459184828259825, -2.1611287053487076, -6.271057320920943, -6.76094132525604]

>  <energy>  (9) 
-251.27986289978742

>  <inter_energy>  (9) 
-241.6870072033967

>  <intra_energy>  (9) 
0.0

>  <rmsd>  (9) 
2.46648

>  <sdf_rank>  (9) 
0

$$$$

     RDKit          3D

 17 16  0  0  0  0  0  0  0  0999 V2000
   28.7914    7.1991   10.0068 C   0  0  0  0  0  0  0  0  0  0  0  0
   30.2842    7.5108   10.2197 C   0  0  2  0  0  0  0  0  0  0  0  0
   30.9845    6.2100   10.5824 C   0  0  0  0  0  0  0  0  0  0  0  0
   30.1732    5.3542   11.5549 C   0  0  0  0  0  0  0  0  0  0  0  0
   30.6480    4.0122   11.5786 O   0  0  0  0  0  0  0  0  0  0  0  0
   30.4310    8.4712   11.2862 O   0  0  0  0  0  0  0  0  0  0  0  0
   28.2057    7.9086    8.9022 O   0  0  0  0  0  0  0  0  0  0  0  0
   28.6846    6.1200    9.8225 H   0  0  0  0  0  0  0  0  0  0  0  0
   28.2621    7.5237   10.9148 H   0  0  0  0  0  0  0  0  0  0  0  0
   30.7270    7.9367    9.3073 H   0  0  0  0  0  0  0  0  0  0  0  0
   31.1529    5.6324    9.6615 H   0  0  0  0  0  0  0  0  0  0  0  0
   31.9313    6.4697   11.0786 H   0  0  0  0  0  0  0  0  0  0  0  0
   30.2562    5.7821   12.5649 H   0  0  0  0  0  0  0  0  0  0  0  0
   29.1248    5.3471   11.2219 H   0  0  0  0  0  0  0  0  0  0  0  0
   30.7529    3.7158   12.5173 H   0  0  0  0  0  0  0  0  0  0  0  0
   30.3603    8.0087   12.1587 H   0  0  0  0  0  0  0  0  0  0  0  0
   27.6147    8.6245    9.2459 H   0  0  0  0  0  0  0  0  0  0  0  0
  1  2  1  0
  1  7  1  0
  2  3  1  0
  2  6  1  0
  3  4  1  0
  4  5  1  0
  1  8  1  0
  1  9  1  0
  2 10  1  6
  3 11  1  0
  3 12  1  0
  4 13  1  0
  4 14  1  0
  5 15  1  0
  6 16  1  0
  7 17  1  0
M  END
>  <filename_input>  (10) 
7OSO_0V1_docked.sdf

>  <pdb_id>  (10) 
7OSO_0V1

>  <pose_rank>  (10) 
9

>  <num_atoms_heavy>  (10) 
7

>  <num_torsions>  (10) 
3

>  <pose>  (10) 
[30.28419411845795, 7.510807492540383, 10.219692947829712, 3.612124327133279, 0.7994768801079822, 1.653990830658202, 0.6914090432002193, -22.508510776251704, -14.81628755709458]

>  <energy>  (10) 
-234.8082967355373

>  <inter_energy>  (10) 
-232.25155980173403

>  <intra_energy>  (10) 
0.0

>  <rmsd>  (10) 
3.65994

>  <sdf_rank>  (10) 
0

$$$$

     RDKit          3D

 17 16  0  0  0  0  0  0  0  0999 V2000
   29.6493    8.0837   11.9070 C   0  0  0  0  0  0  0  0  0  0  0  0
   30.6675    8.7262   10.9471 C   0  0  2  0  0  0  0  0  0  0  0  0
   31.0804    7.6714    9.9318 C   0  0  0  0  0  0  0  0  0  0  0  0
   29.9266    7.2403    9.0264 C   0  0  0  0  0  0  0  0  0  0  0  0
   30.0415    7.8248    7.7333 O   0  0  0  0  0  0  0  0  0  0  0  0
   31.8169    9.1788   11.6924 O   0  0  0  0  0  0  0  0  0  0  0  0
   28.8303    9.0385   12.6028 O   0  0  0  0  0  0  0  0  0  0  0  0
   28.9922    7.4216   11.3242 H   0  0  0  0  0  0  0  0  0  0  0  0
   30.2252    7.5379   12.6689 H   0  0  0  0  0  0  0  0  0  0  0  0
   30.2252    9.5926   10.4334 H   0  0  0  0  0  0  0  0  0  0  0  0
   31.8851    8.0827    9.3046 H   0  0  0  0  0  0  0  0  0  0  0  0
   31.4131    6.7845   10.4909 H   0  0  0  0  0  0  0  0  0  0  0  0
   29.9382    6.1448    8.9273 H   0  0  0  0  0  0  0  0  0  0  0  0
   28.9830    7.5786    9.4792 H   0  0  0  0  0  0  0  0  0  0  0  0
   30.2315    8.7922    7.8242 H   0  0  0  0  0  0  0  0  0  0  0  0
   31.6311    9.1057   12.6621 H   0  0  0  0  0  0  0  0  0  0  0  0
   28.9364    8.9147   13.5793 H   0  0  0  0  0  0  0  0  0  0  0  0
  1  2  1  0
  1  7  1  0
  2  3  1  0
  2  6  1  0
  3  4  1  0
  4  5  1  0
  1  8  1  0
  1  9  1  0
  2 10  1  6
  3 11  1  0
  3 12  1  0
  4 13  1  0
  4 14  1  0
  5 15  1  0
  6 16  1  0
  7 17  1  0
M  END
>  <filename_input>  (11) 
7OSO_0V1_docked.sdf

>  <pdb_id>  (11) 
7OSO_0V1

>  <pose_rank>  (11) 
10

>  <num_atoms_heavy>  (11) 
7

>  <num_torsions>  (11) 
3

>  <pose>  (11) 
[30.66749026813234, 8.726248134815231, 10.94710975306261, 4.524993082928198, -0.8363914523513603, -0.3328359083759502, 0.35897273971280236, -20.64378582186728, -15.856941094742426]

>  <energy>  (11) 
-234.6534549458503

>  <inter_energy>  (11) 
-231.54216952913103

>  <intra_energy>  (11) 
0.0

>  <rmsd>  (11) 
3.10131

>  <sdf_rank>  (11) 
0

$$$$

     RDKit          3D

 17 16  0  0  0  0  0  0  0  0999 V2000
   29.6238    8.6779   10.0255 C   0  0  0  0  0  0  0  0  0  0  0  0
   31.0143    8.4341   10.6403 C   0  0  2  0  0  0  0  0  0  0  0  0
   31.0139    7.0433   11.2564 C   0  0  0  0  0  0  0  0  0  0  0  0
   29.6335    6.6210   11.7594 C   0  0  0  0  0  0  0  0  0  0  0  0
   28.9863    5.7627   10.8259 O   0  0  0  0  0  0  0  0  0  0  0  0
   31.2774    9.4283   11.6521 O   0  0  0  0  0  0  0  0  0  0  0  0
   29.5297    8.2972    8.6425 O   0  0  0  0  0  0  0  0  0  0  0  0
   28.8846    8.0971   10.5968 H   0  0  0  0  0  0  0  0  0  0  0  0
   29.4352    9.7605   10.0749 H   0  0  0  0  0  0  0  0  0  0  0  0
   31.7979    8.5068    9.8718 H   0  0  0  0  0  0  0  0  0  0  0  0
   31.3473    6.3216   10.4961 H   0  0  0  0  0  0  0  0  0  0  0  0
   31.6912    7.0636   12.1229 H   0  0  0  0  0  0  0  0  0  0  0  0
   29.7471    6.0901   12.7161 H   0  0  0  0  0  0  0  0  0  0  0  0
   29.0181    7.5237   11.8877 H   0  0  0  0  0  0  0  0  0  0  0  0
   28.4678    5.0752   11.3143 H   0  0  0  0  0  0  0  0  0  0  0  0
   31.1701    9.0229   12.5489 H   0  0  0  0  0  0  0  0  0  0  0  0
   29.2925    7.3381    8.5796 H   0  0  0  0  0  0  0  0  0  0  0  0
  1  2  1  0
  1  7  1  0
  2  3  1  0
  2  6  1  0
  3  4  1  0
  4  5  1  0
  1  8  1  0
  1  9  1  0
  2 10  1  6
  3 11  1  0
  3 12  1  0
  4 13  1  0
  4 14  1  0
  5 15  1  0
  6 16  1  0
  7 17  1  0
M  END
>  <filename_input>  (12) 
7OSO_0V1_docked.sdf

>  <pdb_id>  (12) 
7OSO_0V1

>  <pose_rank>  (12) 
11

>  <num_atoms_heavy>  (12) 
7

>  <num_torsions>  (12) 
3

>  <pose>  (12) 
[31.014271571348946, 8.434114077851547, 10.640305598762414, 3.04228290738292, 0.34779368393399335, 2.103810052523874, 1.5392960133847258, -22.31301832567899, -15.925402681976653]

>  <energy>  (12) 
-251.1164492411943

>  <inter_energy>  (12) 
-263.72996377153714

>  <intra_energy>  (12) 
7.927065406445938

>  <rmsd>  (12) 
3.35483

>  <sdf_rank>  (12) 
0

$$$$

     RDKit          3D

 17 16  0  0  0  0  0  0  0  0999 V2000
   32.3166    6.0739    9.9446 C   0  0  0  0  0  0  0  0  0  0  0  0
   33.1349    7.3048   10.3764 C   0  0  2  0  0  0  0  0  0  0  0  0
   32.7629    8.4577    9.4563 C   0  0  0  0  0  0  0  0  0  0  0  0
   32.3431    9.7122   10.2222 C   0  0  0  0  0  0  0  0  0  0  0  0
   33.0990    9.8609   11.4195 O   0  0  0  0  0  0  0  0  0  0  0  0
   34.5434    7.0127   10.2666 O   0  0  0  0  0  0  0  0  0  0  0  0
   31.5059    5.5223   10.9957 O   0  0  0  0  0  0  0  0  0  0  0  0
   31.6569    6.3688    9.1153 H   0  0  0  0  0  0  0  0  0  0  0  0
   33.0365    5.2957    9.6512 H   0  0  0  0  0  0  0  0  0  0  0  0
   32.9170    7.5699   11.4215 H   0  0  0  0  0  0  0  0  0  0  0  0
   33.6331    8.7027    8.8297 H   0  0  0  0  0  0  0  0  0  0  0  0
   31.9032    8.1351    8.8506 H   0  0  0  0  0  0  0  0  0  0  0  0
   32.5049   10.5933    9.5839 H   0  0  0  0  0  0  0  0  0  0  0  0
   31.2805    9.6176   10.4904 H   0  0  0  0  0  0  0  0  0  0  0  0
   32.5040    9.7438   12.2021 H   0  0  0  0  0  0  0  0  0  0  0  0
   34.9352    6.9315   11.1721 H   0  0  0  0  0  0  0  0  0  0  0  0
   31.8841    5.7796   11.8737 H   0  0  0  0  0  0  0  0  0  0  0  0
  1  2  1  0
  1  7  1  0
  2  3  1  0
  2  6  1  0
  3  4  1  0
  4  5  1  0
  1  8  1  0
  1  9  1  0
  2 10  1  1
  3 11  1  0
  3 12  1  0
  4 13  1  0
  4 14  1  0
  5 15  1  0
  6 16  1  0
  7 17  1  0
M  END
>  <filename_input>  (13) 
7OSO_0V1_docked.sdf

>  <pdb_id>  (13) 
7OSO_0V1

>  <pose_rank>  (13) 
12

>  <num_atoms_heavy>  (13) 
7

>  <num_torsions>  (13) 
3

>  <pose>  (13) 
[33.134872913865465, 7.304790038008217, 10.37641840032796, 0.08076603052697587, 0.4597513738435422, 0.6496554316476578, 7.278321771498841, -0.7132889551579725, -4.478207762069197]

>  <energy>  (13) 
-234.75803296585767

>  <inter_energy>  (13) 
-232.97510824298718

>  <intra_energy>  (13) 
0.0006811398125919227

>  <rmsd>  (13) 
2.02245

>  <sdf_rank>  (13) 
0

$$$$

     RDKit          3D

 17 16  0  0  0  0  0  0  0  0999 V2000
   30.6127    8.1692   12.0209 C   0  0  0  0  0  0  0  0  0  0  0  0
   31.4989    8.2714   10.7658 C   0  0  2  0  0  0  0  0  0  0  0  0
   30.5954    8.1585    9.5472 C   0  0  0  0  0  0  0  0  0  0  0  0
   29.8924    9.4734    9.2099 C   0  0  0  0  0  0  0  0  0  0  0  0
   28.5346    9.2515    8.8441 O   0  0  0  0  0  0  0  0  0  0  0  0
   32.4683    7.2030   10.7693 O   0  0  0  0  0  0  0  0  0  0  0  0
   29.3189    7.5957   11.7685 O   0  0  0  0  0  0  0  0  0  0  0  0
   31.1313    7.5438   12.7624 H   0  0  0  0  0  0  0  0  0  0  0  0
   30.4454    9.1950   12.3811 H   0  0  0  0  0  0  0  0  0  0  0  0
   32.0396    9.2291   10.7479 H   0  0  0  0  0  0  0  0  0  0  0  0
   31.2054    7.8541    8.6839 H   0  0  0  0  0  0  0  0  0  0  0  0
   29.8176    7.4157    9.7780 H   0  0  0  0  0  0  0  0  0  0  0  0
   29.9239   10.1331   10.0895 H   0  0  0  0  0  0  0  0  0  0  0  0
   30.4114    9.9376    8.3584 H   0  0  0  0  0  0  0  0  0  0  0  0
   27.9831    9.1614    9.6613 H   0  0  0  0  0  0  0  0  0  0  0  0
   32.6886    6.9602   11.7034 H   0  0  0  0  0  0  0  0  0  0  0  0
   28.8721    7.3977   12.6295 H   0  0  0  0  0  0  0  0  0  0  0  0
  1  2  1  0
  1  7  1  0
  2  3  1  0
  2  6  1  0
  3  4  1  0
  4  5  1  0
  1  8  1  0
  1  9  1  0
  2 10  1  6
  3 11  1  0
  3 12  1  0
  4 13  1  0
  4 14  1  0
  5 15  1  0
  6 16  1  0
  7 17  1  0
M  END
>  <filename_input>  (14) 
7OSO_0V1_docked.sdf

>  <pdb_id>  (14) 
7OSO_0V1

>  <pose_rank>  (14) 
13

>  <num_atoms_heavy>  (14) 
7

>  <num_torsions>  (14) 
3

>  <pose>  (14) 
[31.498874376060492, 8.271354919064123, 10.765771440484611, -0.7847975867620464, 1.3387937840068198, -0.22966936362103538, -2.824938666729217, -7.8148556242296, -7.518327732840966]

>  <energy>  (14) 
-232.31284838496498

>  <inter_energy>  (14) 
-219.90710299726442

>  <intra_energy>  (14) 
4.218056348363135

>  <rmsd>  (14) 
2.50182

>  <sdf_rank>  (14) 
0

$$$$

     RDKit          3D

 17 16  0  0  0  0  0  0  0  0999 V2000
   32.7400    8.6027   10.4441 C   0  0  0  0  0  0  0  0  0  0  0  0
   31.7161    7.4955   10.1334 C   0  0  2  0  0  0  0  0  0  0  0  0
   30.3498    8.1499    9.9950 C   0  0  0  0  0  0  0  0  0  0  0  0
   29.2980    7.5189   10.9072 C   0  0  0  0  0  0  0  0  0  0  0  0
   28.0117    8.0839   10.6767 O   0  0  0  0  0  0  0  0  0  0  0  0
   31.7022    6.5333   11.2083 O   0  0  0  0  0  0  0  0  0  0  0  0
   32.3263    9.9093   10.0104 O   0  0  0  0  0  0  0  0  0  0  0  0
   32.9004    8.6323   11.5320 H   0  0  0  0  0  0  0  0  0  0  0  0
   33.6585    8.3560    9.8915 H   0  0  0  0  0  0  0  0  0  0  0  0
   31.9799    6.9711    9.2032 H   0  0  0  0  0  0  0  0  0  0  0  0
   30.4429    9.2159   10.2499 H   0  0  0  0  0  0  0  0  0  0  0  0
   30.0171    8.0075    8.9562 H   0  0  0  0  0  0  0  0  0  0  0  0
   29.2553    6.4374   10.7113 H   0  0  0  0  0  0  0  0  0  0  0  0
   29.5816    7.7126   11.9522 H   0  0  0  0  0  0  0  0  0  0  0  0
   27.5752    8.2756   11.5443 H   0  0  0  0  0  0  0  0  0  0  0  0
   31.7090    7.0086   12.0768 H   0  0  0  0  0  0  0  0  0  0  0  0
   32.1463   10.4778   10.8008 H   0  0  0  0  0  0  0  0  0  0  0  0
  1  2  1  0
  1  7  1  0
  2  3  1  0
  2  6  1  0
  3  4  1  0
  4  5  1  0
  1  8  1  0
  1  9  1  0
  2 10  1  6
  3 11  1  0
  3 12  1  0
  4 13  1  0
  4 14  1  0
  5 15  1  0
  6 16  1  0
  7 17  1  0
M  END
>  <filename_input>  (15) 
7OSO_0V1_docked.sdf

>  <pdb_id>  (15) 
7OSO_0V1

>  <pose_rank>  (15) 
14

>  <num_atoms_heavy>  (15) 
7

>  <num_torsions>  (15) 
3

>  <pose>  (15) 
[31.716056881502496, 7.495484945700396, 10.133441896211949, -0.9820406934462523, 2.4721870874268475, -1.8574976832981729, -3.554212799639367, -5.133995083686761, -8.162667459070992]

>  <energy>  (15) 
-246.89986599932053

>  <inter_energy>  (15) 
-246.48018506626732

>  <intra_energy>  (15) 
0.0

>  <rmsd>  (15) 
3.35079

>  <sdf_rank>  (15) 
0

$$$$

     RDKit          3D

 17 16  0  0  0  0  0  0  0  0999 V2000
   30.6413    5.2621   11.3614 C   0  0  0  0  0  0  0  0  0  0  0  0
   31.9268    6.0070   10.9569 C   0  0  2  0  0  0  0  0  0  0  0  0
   31.5186    7.2986   10.2647 C   0  0  0  0  0  0  0  0  0  0  0  0
   32.3639    8.4950   10.7016 C   0  0  0  0  0  0  0  0  0  0  0  0
   33.6863    8.4076   10.1817 O   0  0  0  0  0  0  0  0  0  0  0  0
   32.7019    5.1837   10.0609 O   0  0  0  0  0  0  0  0  0  0  0  0
   30.3368    5.3562   12.7632 O   0  0  0  0  0  0  0  0  0  0  0  0
   29.8003    5.6870   10.7939 H   0  0  0  0  0  0  0  0  0  0  0  0
   30.8025    4.1972   11.1378 H   0  0  0  0  0  0  0  0  0  0  0  0
   32.5420    6.2302   11.8410 H   0  0  0  0  0  0  0  0  0  0  0  0
   31.6308    7.1663    9.1785 H   0  0  0  0  0  0  0  0  0  0  0  0
   30.4755    7.5094   10.5433 H   0  0  0  0  0  0  0  0  0  0  0  0
   31.8942    9.4194   10.3345 H   0  0  0  0  0  0  0  0  0  0  0  0
   32.4208    8.4990   11.8001 H   0  0  0  0  0  0  0  0  0  0  0  0
   34.3330    8.3649   10.9301 H   0  0  0  0  0  0  0  0  0  0  0  0
   33.2766    4.5733   10.5875 H   0  0  0  0  0  0  0  0  0  0  0  0
   31.1365    5.1091   13.2919 H   0  0  0  0  0  0  0  0  0  0  0  0
  1  2  1  0
  1  7  1  0
  2  3  1  0
  2  6  1  0
  3  4  1  0
  4  5  1  0
  1  8  1  0
  1  9  1  0
  2 10  1  1
  3 11  1  0
  3 12  1  0
  4 13  1  0
  4 14  1  0
  5 15  1  0
  6 16  1  0
  7 17  1  0
M  END
>  <filename_input>  (16) 
7OSO_0V1_docked.sdf

>  <pdb_id>  (16) 
7OSO_0V1

>  <pose_rank>  (16) 
15

>  <num_atoms_heavy>  (16) 
7

>  <num_torsions>  (16) 
3

>  <pose>  (16) 
[31.926836647189845, 6.006985574715206, 10.956903993627556, 0.35919958222454856, 1.0987050956779585, 0.1603141214208406, 7.60941365780029, -0.5364606868110352, -3.8549639093661523]

>  <energy>  (16) 
-242.32305708447046

>  <inter_energy>  (16) 
-243.6860359043134

>  <intra_energy>  (16) 
0.021822224846870308

>  <rmsd>  (16) 
2.24294

>  <sdf_rank>  (16) 
0

$$$$

     RDKit          3D

 17 16  0  0  0  0  0  0  0  0999 V2000
   27.7407    7.7815    9.7153 C   0  0  0  0  0  0  0  0  0  0  0  0
   29.0240    8.2950   10.3938 C   0  0  2  0  0  0  0  0  0  0  0  0
   30.0188    7.1451   10.4397 C   0  0  0  0  0  0  0  0  0  0  0  0
   31.4708    7.6177   10.3692 C   0  0  0  0  0  0  0  0  0  0  0  0
   32.1412    7.0541    9.2468 O   0  0  0  0  0  0  0  0  0  0  0  0
   28.7184    8.7445   11.7302 O   0  0  0  0  0  0  0  0  0  0  0  0
   27.2994    6.5047   10.2067 O   0  0  0  0  0  0  0  0  0  0  0  0
   26.9395    8.5155    9.8866 H   0  0  0  0  0  0  0  0  0  0  0  0
   27.9705    7.6534    8.6472 H   0  0  0  0  0  0  0  0  0  0  0  0
   29.4492    9.1405    9.8332 H   0  0  0  0  0  0  0  0  0  0  0  0
   29.8740    6.5919   11.3794 H   0  0  0  0  0  0  0  0  0  0  0  0
   29.8332    6.5101    9.5609 H   0  0  0  0  0  0  0  0  0  0  0  0
   31.4876    8.7143   10.2838 H   0  0  0  0  0  0  0  0  0  0  0  0
   31.9881    7.2922   11.2838 H   0  0  0  0  0  0  0  0  0  0  0  0
   32.8599    6.4500    9.5609 H   0  0  0  0  0  0  0  0  0  0  0  0
   29.1346    8.1323   12.3875 H   0  0  0  0  0  0  0  0  0  0  0  0
   27.3024    6.5132   11.1967 H   0  0  0  0  0  0  0  0  0  0  0  0
  1  2  1  0
  1  7  1  0
  2  3  1  0
  2  6  1  0
  3  4  1  0
  4  5  1  0
  1  8  1  0
  1  9  1  0
  2 10  1  6
  3 11  1  0
  3 12  1  0
  4 13  1  0
  4 14  1  0
  5 15  1  0
  6 16  1  0
  7 17  1  0
M  END
>  <filename_input>  (17) 
7OSO_0V1_docked.sdf

>  <pdb_id>  (17) 
7OSO_0V1

>  <pose_rank>  (17) 
16

>  <num_atoms_heavy>  (17) 
7

>  <num_torsions>  (17) 
3

>  <pose>  (17) 
[29.023964588018107, 8.294984415990005, 10.393816898966351, -1.4417251693518074, -0.5797550938131236, -0.9527896626351773, -2.3391507499741913, -6.61032751770496, -7.213861817511394]

>  <energy>  (17) 
-231.08609789502503

>  <inter_energy>  (17) 
-226.7470313749041

>  <intra_energy>  (17) 
0.0

>  <rmsd>  (17) 
2.84808

>  <sdf_rank>  (17) 
0

$$$$

     RDKit          3D

 17 16  0  0  0  0  0  0  0  0999 V2000
   33.1120    6.8067    9.6094 C   0  0  0  0  0  0  0  0  0  0  0  0
   31.6561    7.3067    9.6433 C   0  0  2  0  0  0  0  0  0  0  0  0
   31.1105    7.0579   11.0414 C   0  0  0  0  0  0  0  0  0  0  0  0
   29.6893    7.5905   11.2237 C   0  0  0  0  0  0  0  0  0  0  0  0
   29.5413    8.2411   12.4814 O   0  0  0  0  0  0  0  0  0  0  0  0
   30.8744    6.5877    8.6670 O   0  0  0  0  0  0  0  0  0  0  0  0
   33.4512    5.9431   10.7074 O   0  0  0  0  0  0  0  0  0  0  0  0
   33.2677    6.2537    8.6714 H   0  0  0  0  0  0  0  0  0  0  0  0
   33.7587    7.6933    9.6856 H   0  0  0  0  0  0  0  0  0  0  0  0
   31.6071    8.3792    9.4039 H   0  0  0  0  0  0  0  0  0  0  0  0
   31.1070    5.9742   11.2300 H   0  0  0  0  0  0  0  0  0  0  0  0
   31.7592    7.5923   11.7510 H   0  0  0  0  0  0  0  0  0  0  0  0
   29.4693    8.3086   10.4201 H   0  0  0  0  0  0  0  0  0  0  0  0
   28.9913    6.7412   11.1864 H   0  0  0  0  0  0  0  0  0  0  0  0
   29.6899    7.5879   13.2103 H   0  0  0  0  0  0  0  0  0  0  0  0
   30.2306    5.9956    9.1308 H   0  0  0  0  0  0  0  0  0  0  0  0
   33.2685    6.4084   11.5619 H   0  0  0  0  0  0  0  0  0  0  0  0
  1  2  1  0
  1  7  1  0
  2  3  1  0
  2  6  1  0
  3  4  1  0
  4  5  1  0
  1  8  1  0
  1  9  1  0
  2 10  1  6
  3 11  1  0
  3 12  1  0
  4 13  1  0
  4 14  1  0
  5 15  1  0
  6 16  1  0
  7 17  1  0
M  END
>  <filename_input>  (18) 
7OSO_0V1_docked.sdf

>  <pdb_id>  (18) 
7OSO_0V1

>  <pose_rank>  (18) 
17

>  <num_atoms_heavy>  (18) 
7

>  <num_torsions>  (18) 
3

>  <pose>  (18) 
[31.656071601003966, 7.306687062270841, 9.643337297698734, 0.44244881680093906, -2.6105135249067253, -1.0808828618784423, -2.8672057540336056, -6.135870275203077, -7.5017933224309115]

>  <energy>  (18) 
-225.86822462255606

>  <inter_energy>  (18) 
-239.85283541816548

>  <intra_energy>  (18) 
0.0

>  <rmsd>  (18) 
3.20532

>  <sdf_rank>  (18) 
0

$$$$

     RDKit          3D

 17 16  0  0  0  0  0  0  0  0999 V2000
   32.1174    7.6350    9.2171 C   0  0  0  0  0  0  0  0  0  0  0  0
   30.8917    7.3211   10.0946 C   0  0  2  0  0  0  0  0  0  0  0  0
   31.1697    6.0220   10.8355 C   0  0  0  0  0  0  0  0  0  0  0  0
   32.5628    5.4635   10.5453 C   0  0  0  0  0  0  0  0  0  0  0  0
   33.5120    5.9276   11.4995 O   0  0  0  0  0  0  0  0  0  0  0  0
   29.7227    7.1802    9.2610 O   0  0  0  0  0  0  0  0  0  0  0  0
   32.6780    8.9375    9.4536 O   0  0  0  0  0  0  0  0  0  0  0  0
   32.8923    6.8812    9.4201 H   0  0  0  0  0  0  0  0  0  0  0  0
   31.7778    7.6159    8.1710 H   0  0  0  0  0  0  0  0  0  0  0  0
   30.7086    8.1340   10.8127 H   0  0  0  0  0  0  0  0  0  0  0  0
   31.0833    6.2078   11.9162 H   0  0  0  0  0  0  0  0  0  0  0  0
   30.4355    5.2791   10.4903 H   0  0  0  0  0  0  0  0  0  0  0  0
   32.5240    4.3648   10.5828 H   0  0  0  0  0  0  0  0  0  0  0  0
   32.8750    5.8065    9.5479 H   0  0  0  0  0  0  0  0  0  0  0  0
   33.1700    5.7604   12.4134 H   0  0  0  0  0  0  0  0  0  0  0  0
   28.9199    7.0834    9.8321 H   0  0  0  0  0  0  0  0  0  0  0  0
   32.7459    9.0954   10.4286 H   0  0  0  0  0  0  0  0  0  0  0  0
  1  2  1  0
  1  7  1  0
  2  3  1  0
  2  6  1  0
  3  4  1  0
  4  5  1  0
  1  8  1  0
  1  9  1  0
  2 10  1  1
  3 11  1  0
  3 12  1  0
  4 13  1  0
  4 14  1  0
  5 15  1  0
  6 16  1  0
  7 17  1  0
M  END
>  <filename_input>  (19) 
7OSO_0V1_docked.sdf

>  <pdb_id>  (19) 
7OSO_0V1

>  <pose_rank>  (19) 
18

>  <num_atoms_heavy>  (19) 
7

>  <num_torsions>  (19) 
3

>  <pose>  (19) 
[30.891723184030624, 7.3211040061577375, 10.094583413694101, 4.768420940030097, -13.047733833304045, -16.179935179591787, 7.240754155145156, -2.893073648338893, -3.4945752312380156]

>  <energy>  (19) 
-228.30554124057974

>  <inter_energy>  (19) 
-222.205927635612

>  <intra_energy>  (19) 
5.46371171114265

>  <rmsd>  (19) 
3.49892

>  <sdf_rank>  (19) 
0

$$$$

     RDKit          3D

 17 16  0  0  0  0  0  0  0  0999 V2000
   28.8949    6.4145   10.9100 C   0  0  0  0  0  0  0  0  0  0  0  0
   30.3462    6.7476   10.5181 C   0  0  2  0  0  0  0  0  0  0  0  0
   30.6666    8.1349   11.0536 C   0  0  0  0  0  0  0  0  0  0  0  0
   31.8991    8.7524   10.3929 C   0  0  0  0  0  0  0  0  0  0  0  0
   32.8831    9.0983   11.3618 O   0  0  0  0  0  0  0  0  0  0  0  0
   30.4774    6.7242    9.0816 O   0  0  0  0  0  0  0  0  0  0  0  0
   28.5385    6.8545   12.2313 O   0  0  0  0  0  0  0  0  0  0  0  0
   28.2203    6.8990   10.1887 H   0  0  0  0  0  0  0  0  0  0  0  0
   28.8022    5.3185   10.8998 H   0  0  0  0  0  0  0  0  0  0  0  0
   31.0430    6.0090   10.9412 H   0  0  0  0  0  0  0  0  0  0  0  0
   29.8030    8.7910   10.8701 H   0  0  0  0  0  0  0  0  0  0  0  0
   30.8807    8.0350   12.1280 H   0  0  0  0  0  0  0  0  0  0  0  0
   32.3296    8.0266    9.6874 H   0  0  0  0  0  0  0  0  0  0  0  0
   31.5907    9.6680    9.8671 H   0  0  0  0  0  0  0  0  0  0  0  0
   32.5119    8.9679   12.2703 H   0  0  0  0  0  0  0  0  0  0  0  0
   31.4225    6.5561    8.8393 H   0  0  0  0  0  0  0  0  0  0  0  0
   28.9967    6.2888   12.9023 H   0  0  0  0  0  0  0  0  0  0  0  0
  1  2  1  0
  1  7  1  0
  2  3  1  0
  2  6  1  0
  3  4  1  0
  4  5  1  0
  1  8  1  0
  1  9  1  0
  2 10  1  1
  3 11  1  0
  3 12  1  0
  4 13  1  0
  4 14  1  0
  5 15  1  0
  6 16  1  0
  7 17  1  0
M  END
>  <filename_input>  (20) 
7OSO_0V1_docked.sdf

>  <pdb_id>  (20) 
7OSO_0V1

>  <pose_rank>  (20) 
19

>  <num_atoms_heavy>  (20) 
7

>  <num_torsions>  (20) 
3

>  <pose>  (20) 
[30.346231647106816, 6.747579784298383, 10.518132593446184, 1.4284457719774903, 1.175277379086038, 0.09201124816442678, -3.8331621045223767, -5.777626838887336, -7.245816292742284]

>  <energy>  (20) 
-227.47201323044695

>  <inter_energy>  (20) 
-224.60766718990584

>  <intra_energy>  (20) 
0.0

>  <rmsd>  (20) 
1.79314

>  <sdf_rank>  (20) 
0

$$$$

     RDKit          3D

 17 16  0  0  0  0  0  0  0  0999 V2000
   29.8924    7.3010    8.4724 C   0  0  0  0  0  0  0  0  0  0  0  0
   30.8564    7.0466    9.6458 C   0  0  2  0  0  0  0  0  0  0  0  0
   30.2127    7.6034   10.9066 C   0  0  0  0  0  0  0  0  0  0  0  0
   30.2750    6.6274   12.0815 C   0  0  0  0  0  0  0  0  0  0  0  0
   29.0246    6.5572   12.7587 O   0  0  0  0  0  0  0  0  0  0  0  0
   32.1129    7.7087    9.3925 O   0  0  0  0  0  0  0  0  0  0  0  0
   30.5416    7.3399    7.1904 O   0  0  0  0  0  0  0  0  0  0  0  0
   29.1427    6.4961    8.4579 H   0  0  0  0  0  0  0  0  0  0  0  0
   29.4415    8.2910    8.6351 H   0  0  0  0  0  0  0  0  0  0  0  0
   31.0502    5.9703    9.7642 H   0  0  0  0  0  0  0  0  0  0  0  0
   30.7359    8.5287   11.1897 H   0  0  0  0  0  0  0  0  0  0  0  0
   29.1514    7.7879   10.6840 H   0  0  0  0  0  0  0  0  0  0  0  0
   30.5353    5.6275   11.7041 H   0  0  0  0  0  0  0  0  0  0  0  0
   31.0361    6.9842   12.7910 H   0  0  0  0  0  0  0  0  0  0  0  0
   29.1781    6.5658   13.7367 H   0  0  0  0  0  0  0  0  0  0  0  0
   32.5453    7.9366   10.2535 H   0  0  0  0  0  0  0  0  0  0  0  0
   31.5216    7.3987    7.3184 H   0  0  0  0  0  0  0  0  0  0  0  0
  1  2  1  0
  1  7  1  0
  2  3  1  0
  2  6  1  0
  3  4  1  0
  4  5  1  0
  1  8  1  0
  1  9  1  0
  2 10  1  1
  3 11  1  0
  3 12  1  0
  4 13  1  0
  4 14  1  0
  5 15  1  0
  6 16  1  0
  7 17  1  0
M  END
>  <filename_input>  (21) 
7OSO_0V1_docked.sdf

>  <pdb_id>  (21) 
7OSO_0V1

>  <pose_rank>  (21) 
20

>  <num_atoms_heavy>  (21) 
7

>  <num_torsions>  (21) 
3

>  <pose>  (21) 
[30.856413550930363, 7.046604743854918, 9.645845232542877, -13.888700485666574, -0.8051433064387373, -9.30792379012171, -0.41961216608962404, -6.898023437756861, -7.457144086784679]

>  <energy>  (21) 
-190.3535833272795

>  <inter_energy>  (21) 
-192.99432869270913

>  <intra_energy>  (21) 
0.0

>  <rmsd>  (21) 
3.24157

>  <sdf_rank>  (21) 
0

$$$$

     RDKit          3D

 17 16  0  0  0  0  0  0  0  0999 V2000
   29.8881    8.4004    9.0445 C   0  0  0  0  0  0  0  0  0  0  0  0
   30.8040    7.8899   10.1721 C   0  0  2  0  0  0  0  0  0  0  0  0
   31.8671    8.9483   10.4239 C   0  0  0  0  0  0  0  0  0  0  0  0
   32.9181    8.4993   11.4391 C   0  0  0  0  0  0  0  0  0  0  0  0
   34.0111    7.8524   10.7958 O   0  0  0  0  0  0  0  0  0  0  0  0
   31.4202    6.6487    9.7708 O   0  0  0  0  0  0  0  0  0  0  0  0
   28.6626    8.9849    9.5167 O   0  0  0  0  0  0  0  0  0  0  0  0
   30.4364    9.1607    8.4689 H   0  0  0  0  0  0  0  0  0  0  0  0
   29.6140    7.5283    8.4327 H   0  0  0  0  0  0  0  0  0  0  0  0
   30.2265    7.7083   11.0905 H   0  0  0  0  0  0  0  0  0  0  0  0
   32.3709    9.1744    9.4725 H   0  0  0  0  0  0  0  0  0  0  0  0
   31.3627    9.8339   10.8377 H   0  0  0  0  0  0  0  0  0  0  0  0
   33.2916    9.3798   11.9824 H   0  0  0  0  0  0  0  0  0  0  0  0
   32.4500    7.7855   12.1329 H   0  0  0  0  0  0  0  0  0  0  0  0
   34.6274    7.4876   11.4794 H   0  0  0  0  0  0  0  0  0  0  0  0
   31.6767    6.1322   10.5755 H   0  0  0  0  0  0  0  0  0  0  0  0
   28.6580    8.9871   10.5067 H   0  0  0  0  0  0  0  0  0  0  0  0
  1  2  1  0
  1  7  1  0
  2  3  1  0
  2  6  1  0
  3  4  1  0
  4  5  1  0
  1  8  1  0
  1  9  1  0
  2 10  1  1
  3 11  1  0
  3 12  1  0
  4 13  1  0
  4 14  1  0
  5 15  1  0
  6 16  1  0
  7 17  1  0
M  END
>  <filename_input>  (22) 
7OSO_0V1_docked.sdf

>  <pdb_id>  (22) 
7OSO_0V1

>  <pose_rank>  (22) 
21

>  <num_atoms_heavy>  (22) 
7

>  <num_torsions>  (22) 
3

>  <pose>  (22) 
[30.80397373571409, 7.889875639831668, 10.17209274784771, 0.8721821163651949, -0.2257700121762452, -0.18231233777072875, 7.694476749603186, 0.29820483539975645, -3.522811423840891]

>  <energy>  (22) 
-241.41185302194089

>  <inter_energy>  (22) 
-235.0423081216305

>  <intra_energy>  (22) 
3.9929490541239563

>  <rmsd>  (22) 
1.95122

>  <sdf_rank>  (22) 
0

$$$$

     RDKit          3D

 17 16  0  0  0  0  0  0  0  0999 V2000
   30.5121    6.7968   11.2188 C   0  0  0  0  0  0  0  0  0  0  0  0
   29.0306    6.8113   11.6381 C   0  0  2  0  0  0  0  0  0  0  0  0
   28.3038    7.8066   10.7463 C   0  0  0  0  0  0  0  0  0  0  0  0
   28.1210    9.1709   11.4112 C   0  0  0  0  0  0  0  0  0  0  0  0
   26.7991    9.3233   11.9174 O   0  0  0  0  0  0  0  0  0  0  0  0
   28.9225    7.2083   13.0208 O   0  0  0  0  0  0  0  0  0  0  0  0
   30.7103    6.8775    9.7973 O   0  0  0  0  0  0  0  0  0  0  0  0
   31.0147    7.6550   11.6889 H   0  0  0  0  0  0  0  0  0  0  0  0
   30.9304    5.8342   11.5480 H   0  0  0  0  0  0  0  0  0  0  0  0
   28.5854    5.8113   11.5294 H   0  0  0  0  0  0  0  0  0  0  0  0
   28.8850    7.9407    9.8220 H   0  0  0  0  0  0  0  0  0  0  0  0
   27.3024    7.3999   10.5418 H   0  0  0  0  0  0  0  0  0  0  0  0
   28.8363    9.2642   12.2416 H   0  0  0  0  0  0  0  0  0  0  0  0
   28.2979    9.9524   10.6576 H   0  0  0  0  0  0  0  0  0  0  0  0
   26.8225    9.3206   12.9072 H   0  0  0  0  0  0  0  0  0  0  0  0
   29.1328    6.4358   13.6033 H   0  0  0  0  0  0  0  0  0  0  0  0
   31.6106    7.2439    9.6099 H   0  0  0  0  0  0  0  0  0  0  0  0
  1  2  1  0
  1  7  1  0
  2  3  1  0
  2  6  1  0
  3  4  1  0
  4  5  1  0
  1  8  1  0
  1  9  1  0
  2 10  1  1
  3 11  1  0
  3 12  1  0
  4 13  1  0
  4 14  1  0
  5 15  1  0
  6 16  1  0
  7 17  1  0
M  END
>  <filename_input>  (23) 
7OSO_0V1_docked.sdf

>  <pdb_id>  (23) 
7OSO_0V1

>  <pose_rank>  (23) 
22

>  <num_atoms_heavy>  (23) 
7

>  <num_torsions>  (23) 
3

>  <pose>  (23) 
[29.03056347893778, 6.811337008400112, 11.63806276763478, 0.051737126823123675, 2.1074939735785176, -3.391210495955558, -3.8330494642573045, -4.647600922769613, -6.865352564920817]

>  <energy>  (23) 
-197.43387279690577

>  <inter_energy>  (23) 
-208.30027610130125

>  <intra_energy>  (23) 
1.2767382471808117

>  <rmsd>  (23) 
3.66045

>  <sdf_rank>  (23) 
0

$$$$

     RDKit          3D

 17 16  0  0  0  0  0  0  0  0999 V2000
   32.5786    6.8527   10.3779 C   0  0  0  0  0  0  0  0  0  0  0  0
   31.7523    7.9179   11.1220 C   0  0  2  0  0  0  0  0  0  0  0  0
   30.5941    8.3214   10.2222 C   0  0  0  0  0  0  0  0  0  0  0  0
   29.3343    7.4932   10.4747 C   0  0  0  0  0  0  0  0  0  0  0  0
   28.6427    7.9489   11.6326 O   0  0  0  0  0  0  0  0  0  0  0  0
   32.5832    9.0616   11.4095 O   0  0  0  0  0  0  0  0  0  0  0  0
   32.2709    5.5049   10.7716 O   0  0  0  0  0  0  0  0  0  0  0  0
   32.3842    6.9528    9.2998 H   0  0  0  0  0  0  0  0  0  0  0  0
   33.6343    7.0291   10.6316 H   0  0  0  0  0  0  0  0  0  0  0  0
   31.3706    7.5196   12.0737 H   0  0  0  0  0  0  0  0  0  0  0  0
   30.3607    9.3810   10.4029 H   0  0  0  0  0  0  0  0  0  0  0  0
   30.9046    8.1448    9.1818 H   0  0  0  0  0  0  0  0  0  0  0  0
   28.6688    7.5772    9.6028 H   0  0  0  0  0  0  0  0  0  0  0  0
   29.6317    6.4465   10.6358 H   0  0  0  0  0  0  0  0  0  0  0  0
   29.1162    7.6369   12.4440 H   0  0  0  0  0  0  0  0  0  0  0  0
   32.6640    9.1728   12.3899 H   0  0  0  0  0  0  0  0  0  0  0  0
   32.2572    5.4447   11.7597 H   0  0  0  0  0  0  0  0  0  0  0  0
  1  2  1  0
  1  7  1  0
  2  3  1  0
  2  6  1  0
  3  4  1  0
  4  5  1  0
  1  8  1  0
  1  9  1  0
  2 10  1  1
  3 11  1  0
  3 12  1  0
  4 13  1  0
  4 14  1  0
  5 15  1  0
  6 16  1  0
  7 17  1  0
M  END
>  <filename_input>  (24) 
7OSO_0V1_docked.sdf

>  <pdb_id>  (24) 
7OSO_0V1

>  <pose_rank>  (24) 
23

>  <num_atoms_heavy>  (24) 
7

>  <num_torsions>  (24) 
3

>  <pose>  (24) 
[31.752312573510107, 7.917853164685821, 11.121982312361046, -0.03939773937383845, 0.1732071582636615, 1.8193812522792019, 7.70704583951636, -1.3315120202000217, -3.723874878717729]

>  <energy>  (24) 
-246.03498949597287

>  <inter_energy>  (24) 
-262.738498752777

>  <intra_energy>  (24) 
0.050806620859745584

>  <rmsd>  (24) 
3.00396

>  <sdf_rank>  (24) 
0

$$$$

     RDKit          3D

 17 16  0  0  0  0  0  0  0  0999 V2000
   36.0783    4.7039    1.8832 C   0  0  0  0  0  0  0  0  0  0  0  0
   36.1671    5.7780    2.9830 C   0  0  2  0  0  0  0  0  0  0  0  0
   35.0175    6.7525    2.7764 C   0  0  0  0  0  0  0  0  0  0  0  0
   35.4907    8.1960    2.6064 C   0  0  0  0  0  0  0  0  0  0  0  0
   34.4809    9.1183    3.0017 O   0  0  0  0  0  0  0  0  0  0  0  0
   37.4303    6.4680    2.8849 O   0  0  0  0  0  0  0  0  0  0  0  0
   37.3502    4.3599    1.3087 O   0  0  0  0  0  0  0  0  0  0  0  0
   35.6369    3.7957    2.3195 H   0  0  0  0  0  0  0  0  0  0  0  0
   35.4620    5.1223    1.0738 H   0  0  0  0  0  0  0  0  0  0  0  0
   36.0997    5.3200    3.9808 H   0  0  0  0  0  0  0  0  0  0  0  0
   34.4624    6.4556    1.8743 H   0  0  0  0  0  0  0  0  0  0  0  0
   34.3841    6.7142    3.6750 H   0  0  0  0  0  0  0  0  0  0  0  0
   36.3853    8.3558    3.2262 H   0  0  0  0  0  0  0  0  0  0  0  0
   35.7202    8.3648    1.5439 H   0  0  0  0  0  0  0  0  0  0  0  0
   34.4382    9.1573    3.9901 H   0  0  0  0  0  0  0  0  0  0  0  0
   37.7749    6.6562    3.7937 H   0  0  0  0  0  0  0  0  0  0  0  0
   38.0024    4.1835    2.0323 H   0  0  0  0  0  0  0  0  0  0  0  0
  1  2  1  0
  1  7  1  0
  2  3  1  0
  2  6  1  0
  3  4  1  0
  4  5  1  0
  1  8  1  0
  1  9  1  0
  2 10  1  1
  3 11  1  0
  3 12  1  0
  4 13  1  0
  4 14  1  0
  5 15  1  0
  6 16  1  0
  7 17  1  0
M  END
>  <filename_input>  (25) 
7OSO_0V1_docked.sdf

>  <pdb_id>  (25) 
7OSO_0V1

>  <pose_rank>  (25) 
24

>  <num_atoms_heavy>  (25) 
7

>  <num_torsions>  (25) 
3

>  <pose>  (25) 
[36.16714473528794, 5.778001635075426, 2.9829760754759906, -1.5917486246370287, -1.1043660317264177, -4.33028743821137, -0.7415674702776245, -5.083081942954546, -1.5074958124337678]

>  <energy>  (25) 
-108.91958804886022

>  <inter_energy>  (25) 
-92.94655265401468

>  <intra_energy>  (25) 
0.0

>  <rmsd>  (25) 
9.71256

>  <sdf_rank>  (25) 
0

$$$$

     RDKit          3D

 17 16  0  0  0  0  0  0  0  0999 V2000
   29.9300    7.2220    9.7930 C   0  0  0  0  0  0  0  0  0  0  0  0
   31.0740    7.8330   10.6230 C   0  0  2  0  0  0  0  0  0  0  0  0
   31.8620    8.7650    9.7150 C   0  0  0  0  0  0  0  0  0  0  0  0
   32.8430    9.6490   10.4850 C   0  0  0  0  0  0  0  0  0  0  0  0
   32.1550   10.5920   11.3000 O   0  0  0  0  0  0  0  0  0  0  0  0
   31.9270    6.7810   11.1200 O   0  0  0  0  0  0  0  0  0  0  0  0
   29.0970    6.3170   10.5370 O   0  0  0  0  0  0  0  0  0  0  0  0
   29.3010    8.0404    9.4129 H   0  0  0  0  0  0  0  0  0  0  0  0
   30.3949    6.6400    8.9836 H   0  0  0  0  0  0  0  0  0  0  0  0
   30.6758    8.3910   11.4833 H   0  0  0  0  0  0  0  0  0  0  0  0
   32.4276    8.1577    8.9930 H   0  0  0  0  0  0  0  0  0  0  0  0
   31.1414    9.4275    9.2131 H   0  0  0  0  0  0  0  0  0  0  0  0
   33.4726    9.0134   11.1250 H   0  0  0  0  0  0  0  0  0  0  0  0
   33.4594   10.1998    9.7593 H   0  0  0  0  0  0  0  0  0  0  0  0
   32.3105   10.3789   12.2542 H   0  0  0  0  0  0  0  0  0  0  0  0
   31.9196    6.7901   12.1099 H   0  0  0  0  0  0  0  0  0  0  0  0
   29.2329    6.4647   11.5064 H   0  0  0  0  0  0  0  0  0  0  0  0
  1  2  1  0
  1  7  1  0
  2  3  1  0
  2  6  1  0
  3  4  1  0
  4  5  1  0
  1  8  1  0
  1  9  1  0
  2 10  1  1
  3 11  1  0
  3 12  1  0
  4 13  1  0
  4 14  1  0
  5 15  1  0
  6 16  1  0
  7 17  1  0
M  END
>  <filename_input>  (26) 
7OSO_0V1_docked.sdf

>  <pdb_id>  (26) 
7OSO_0V1

>  <pose_rank>  (26) 
25

>  <num_atoms_heavy>  (26) 
7

>  <num_torsions>  (26) 
3

>  <pose>  (26) 
[31.074, 7.833, 10.623, 1e-06, 1e-06, 1e-06, 0.0, 0.0, 0.0]

>  <energy>  (26) 
-229.99725713471128

>  <inter_energy>  (26) 
-240.97214352417674

>  <intra_energy>  (26) 
0.0

>  <rmsd>  (26) 
0.0

>  <sdf_rank>  (26) 
0

$$$$
