
     RDKit          3D

 33 33  0  0  0  0  0  0  0  0999 V2000
   34.9065   38.0071   31.1473 C   0  0  1  0  0  0  0  0  0  0  0  0
   34.2144   38.0947   32.5125 C   0  0  1  0  0  0  0  0  0  0  0  0
   33.6475   39.4936   32.7592 C   0  0  2  0  0  0  0  0  0  0  0  0
   34.7179   40.5559   32.5204 C   0  0  2  0  0  0  0  0  0  0  0  0
   35.3202   40.3732   31.1317 C   0  0  1  0  0  0  0  0  0  0  0  0
   36.4398   41.3468   30.8513 C   0  0  0  0  0  0  0  0  0  0  0  0
   33.4064   35.9304   33.3172 C   0  0  0  0  0  0  0  0  0  0  0  0
   32.3052   34.9160   33.2371 C   0  0  0  0  0  0  0  0  0  0  0  0
   33.1984   37.0687   32.6463 N   0  0  0  0  0  0  0  0  0  0  0  0
   33.9492   38.0751   30.1286 O   0  0  0  0  0  0  0  0  0  0  0  0
   33.1602   39.6307   34.0863 O   0  0  0  0  0  0  0  0  0  0  0  0
   35.7562   40.4082   33.5667 O   0  0  0  0  0  0  0  0  0  0  0  0
   35.8685   39.0446   30.9905 O   0  0  0  0  0  0  0  0  0  0  0  0
   36.6535   41.4830   29.4477 O   0  0  0  0  0  0  0  0  0  0  0  0
   34.4431   35.7252   33.9484 O   0  0  0  0  0  0  0  0  0  0  0  0
   35.9718   41.5853   34.6285 S   0  0  2  0  0  0  0  0  0  0  0  0
   35.5572   42.7975   33.9926 O   0  0  0  0  0  0  0  0  0  0  0  0
   37.3779   41.5430   34.9271 O   0  0  0  0  0  0  0  0  0  0  0  0
   35.1385   41.2457   35.7601 O   0  0  0  0  0  0  0  0  0  0  0  0
   35.4364   37.0450   31.0867 H   0  0  0  0  0  0  0  0  0  0  0  0
   34.9709   37.9116   33.2898 H   0  0  0  0  0  0  0  0  0  0  0  0
   32.8147   39.6335   32.0543 H   0  0  0  0  0  0  0  0  0  0  0  0
   34.2827   41.5647   32.5736 H   0  0  0  0  0  0  0  0  0  0  0  0
   34.4985   40.5489   30.4219 H   0  0  0  0  0  0  0  0  0  0  0  0
   36.1781   42.3285   31.2730 H   0  0  0  0  0  0  0  0  0  0  0  0
   37.3625   40.9652   31.3128 H   0  0  0  0  0  0  0  0  0  0  0  0
   31.9951   34.6304   34.2531 H   0  0  0  0  0  0  0  0  0  0  0  0
   31.4477   35.3472   32.6997 H   0  0  0  0  0  0  0  0  0  0  0  0
   32.6648   34.0261   32.6997 H   0  0  0  0  0  0  0  0  0  0  0  0
   32.2796   37.2228   32.2070 H   0  0  0  0  0  0  0  0  0  0  0  0
   33.0458   38.1393   30.5285 H   0  0  0  0  0  0  0  0  0  0  0  0
   33.8865   39.4264   34.7273 H   0  0  0  0  0  0  0  0  0  0  0  0
   37.4775   42.0083   29.2888 H   0  0  0  0  0  0  0  0  0  0  0  0
  1  2  1  0
  1 10  1  0
  1 13  1  0
  2  3  1  0
  2  9  1  0
  3  4  1  0
  3 11  1  0
  4  5  1  0
  4 12  1  0
  5  6  1  0
  5 13  1  0
  6 14  1  0
  7  8  1  0
  7  9  1  0
  7 15  2  0
 12 16  1  0
 16 17  2  0
 16 18  1  1
 16 19  2  0
  1 20  1  1
  2 21  1  1
  3 22  1  6
  4 23  1  6
  5 24  1  6
  6 25  1  0
  6 26  1  0
  8 27  1  0
  8 28  1  0
  8 29  1  0
  9 30  1  0
 10 31  1  0
 11 32  1  0
 14 33  1  0
M  CHG  1  18  -1
M  END
>  <filename_input>  (1) 
7OZ9_NGK_docked.sdf

>  <pdb_id>  (1) 
7OZ9_NGK

>  <pose_rank>  (1) 
0

>  <num_atoms_heavy>  (1) 
19

>  <num_torsions>  (1) 
4

>  <pose>  (1) 
[34.90650075258376, 38.00708177048569, 31.14727831370943, 1.4336783348657778, 1.16494882232421, 5.924963956019814, -0.4468358710133223, 0.1168668416037259, -0.02371443676296181, 0.5926185605907514]

>  <energy>  (1) 
-683.7227747180757

>  <inter_energy>  (1) 
-662.0985753697995

>  <intra_energy>  (1) 
5.482354643311006

>  <rmsd>  (1) 
0.646002

>  <sdf_rank>  (1) 
0

$$$$

     RDKit          3D

 33 33  0  0  0  0  0  0  0  0999 V2000
   34.6662   32.8066   23.6445 C   0  0  1  0  0  0  0  0  0  0  0  0
   33.3941   32.6289   24.4816 C   0  0  1  0  0  0  0  0  0  0  0  0
   32.8725   33.9731   24.9916 C   0  0  2  0  0  0  0  0  0  0  0  0
   33.9866   34.7520   25.6868 C   0  0  2  0  0  0  0  0  0  0  0  0
   35.1865   34.8726   24.7538 C   0  0  1  0  0  0  0  0  0  0  0  0
   36.3582   35.5712   25.4014 C   0  0  0  0  0  0  0  0  0  0  0  0
   31.9954   30.6649   24.0679 C   0  0  0  0  0  0  0  0  0  0  0  0
   31.0462   30.0038   23.1141 C   0  0  0  0  0  0  0  0  0  0  0  0
   32.3816   31.9028   23.7397 N   0  0  0  0  0  0  0  0  0  0  0  0
   34.3493   33.4309   22.4326 O   0  0  0  0  0  0  0  0  0  0  0  0
   31.7997   33.8014   25.9066 O   0  0  0  0  0  0  0  0  0  0  0  0
   34.3547   34.0256   26.9244 O   0  0  0  0  0  0  0  0  0  0  0  0
   35.6442   33.5641   24.3490 O   0  0  0  0  0  0  0  0  0  0  0  0
   37.5880   35.1454   24.8178 O   0  0  0  0  0  0  0  0  0  0  0  0
   32.4056   30.1010   25.0823 O   0  0  0  0  0  0  0  0  0  0  0  0
   34.3289   34.7996   28.3243 S   0  0  2  0  0  0  0  0  0  0  0  0
   35.4058   34.2763   29.1066 O   0  0  0  0  0  0  0  0  0  0  0  0
   33.0289   34.5109   28.8673 O   0  0  0  0  0  0  0  0  0  0  0  0
   34.5135   36.1964   27.9999 O   0  0  0  0  0  0  0  0  0  0  0  0
   35.0918   31.8125   23.4427 H   0  0  0  0  0  0  0  0  0  0  0  0
   33.6499   32.0260   25.3654 H   0  0  0  0  0  0  0  0  0  0  0  0
   32.5119   34.5329   24.1160 H   0  0  0  0  0  0  0  0  0  0  0  0
   33.6497   35.7674   25.9424 H   0  0  0  0  0  0  0  0  0  0  0  0
   34.8403   35.4639   23.8933 H   0  0  0  0  0  0  0  0  0  0  0  0
   36.2510   36.6573   25.2643 H   0  0  0  0  0  0  0  0  0  0  0  0
   36.3705   35.3196   26.4722 H   0  0  0  0  0  0  0  0  0  0  0  0
   30.2726   29.4650   23.6810 H   0  0  0  0  0  0  0  0  0  0  0  0
   30.5714   30.7676   22.4807 H   0  0  0  0  0  0  0  0  0  0  0  0
   31.5980   29.2936   22.4807 H   0  0  0  0  0  0  0  0  0  0  0  0
   31.9422   32.3586   22.9273 H   0  0  0  0  0  0  0  0  0  0  0  0
   33.9088   34.2988   22.6139 H   0  0  0  0  0  0  0  0  0  0  0  0
   32.1442   33.8565   26.8331 H   0  0  0  0  0  0  0  0  0  0  0  0
   38.2334   34.9219   25.5345 H   0  0  0  0  0  0  0  0  0  0  0  0
  1  2  1  0
  1 10  1  0
  1 13  1  0
  2  3  1  0
  2  9  1  0
  3  4  1  0
  3 11  1  0
  4  5  1  0
  4 12  1  0
  5  6  1  0
  5 13  1  0
  6 14  1  0
  7  8  1  0
  7  9  1  0
  7 15  2  0
 12 16  1  0
 16 17  2  0
 16 18  1  1
 16 19  2  0
  1 20  1  6
  2 21  1  1
  3 22  1  6
  4 23  1  1
  5 24  1  6
  6 25  1  0
  6 26  1  0
  8 27  1  0
  8 28  1  0
  8 29  1  0
  9 30  1  0
 10 31  1  0
 11 32  1  0
 14 33  1  0
M  CHG  1  18  -1
M  END
>  <filename_input>  (2) 
7OZ9_NGK_docked.sdf

>  <pdb_id>  (2) 
7OZ9_NGK

>  <pose_rank>  (2) 
1

>  <num_atoms_heavy>  (2) 
19

>  <num_torsions>  (2) 
4

>  <pose>  (2) 
[34.66621615082166, 32.80656893347895, 23.64448216010876, -6.743614819180447, 8.768793164595593, 4.357047519126716, -0.24440519970014854, -0.7152197440896174, -0.20680804803677708, -1.4624596410574087]

>  <energy>  (2) 
-57.71941390530428

>  <inter_energy>  (2) 
-65.58246425028828

>  <intra_energy>  (2) 
6.293129772192759

>  <rmsd>  (2) 
8.99522

>  <sdf_rank>  (2) 
0

$$$$

     RDKit          3D

 33 33  0  0  0  0  0  0  0  0999 V2000
   31.2901   36.2014   29.5819 C   0  0  1  0  0  0  0  0  0  0  0  0
   29.9395   35.7069   29.0509 C   0  0  1  0  0  0  0  0  0  0  0  0
   29.8669   35.8185   27.5273 C   0  0  2  0  0  0  0  0  0  0  0  0
   30.2513   37.2248   27.0737 C   0  0  2  0  0  0  0  0  0  0  0  0
   31.6121   37.5958   27.6527 C   0  0  1  0  0  0  0  0  0  0  0  0
   32.0271   39.0053   27.3043 C   0  0  0  0  0  0  0  0  0  0  0  0
   28.6768   34.0736   30.3635 C   0  0  0  0  0  0  0  0  0  0  0  0
   28.6199   32.6547   30.8447 C   0  0  0  0  0  0  0  0  0  0  0  0
   29.6644   34.3583   29.5075 N   0  0  0  0  0  0  0  0  0  0  0  0
   32.2983   35.3028   29.2143 O   0  0  0  0  0  0  0  0  0  0  0  0
   28.5627   35.5270   27.0460 O   0  0  0  0  0  0  0  0  0  0  0  0
   29.2065   38.1634   27.5448 O   0  0  0  0  0  0  0  0  0  0  0  0
   31.5888   37.5049   29.0939 O   0  0  0  0  0  0  0  0  0  0  0  0
   33.4284   39.0722   27.0470 O   0  0  0  0  0  0  0  0  0  0  0  0
   27.8749   34.9275   30.7417 O   0  0  0  0  0  0  0  0  0  0  0  0
   28.4040   39.0430   26.4763 S   0  0  2  0  0  0  0  0  0  0  0  0
   27.0132   38.7854   26.6889 O   0  0  0  0  0  0  0  0  0  0  0  0
   28.8868   38.5838   25.2018 O   0  0  0  0  0  0  0  0  0  0  0  0
   28.7579   40.4161   26.7585 O   0  0  0  0  0  0  0  0  0  0  0  0
   31.2333   36.2577   30.6790 H   0  0  0  0  0  0  0  0  0  0  0  0
   29.1537   36.3591   29.4598 H   0  0  0  0  0  0  0  0  0  0  0  0
   30.5745   35.0838   27.1156 H   0  0  0  0  0  0  0  0  0  0  0  0
   30.3225   37.2734   25.9771 H   0  0  0  0  0  0  0  0  0  0  0  0
   32.3293   36.8862   27.2144 H   0  0  0  0  0  0  0  0  0  0  0  0
   31.4799   39.3309   26.4074 H   0  0  0  0  0  0  0  0  0  0  0  0
   31.7933   39.6620   28.1552 H   0  0  0  0  0  0  0  0  0  0  0  0
   28.6193   32.6403   31.9446 H   0  0  0  0  0  0  0  0  0  0  0  0
   27.7019   32.1774   30.4713 H   0  0  0  0  0  0  0  0  0  0  0  0
   29.4968   32.1055   30.4713 H   0  0  0  0  0  0  0  0  0  0  0  0
   30.2533   33.5886   29.1586 H   0  0  0  0  0  0  0  0  0  0  0  0
   32.7190   34.9279   30.0283 H   0  0  0  0  0  0  0  0  0  0  0  0
   27.9511   35.3903   27.8124 H   0  0  0  0  0  0  0  0  0  0  0  0
   33.9208   39.0958   27.9056 H   0  0  0  0  0  0  0  0  0  0  0  0
  1  2  1  0
  1 10  1  0
  1 13  1  0
  2  3  1  0
  2  9  1  0
  3  4  1  0
  3 11  1  0
  4  5  1  0
  4 12  1  0
  5  6  1  0
  5 13  1  0
  6 14  1  0
  7  8  1  0
  7  9  1  0
  7 15  2  0
 12 16  1  0
 16 17  2  0
 16 18  1  6
 16 19  2  0
  1 20  1  1
  2 21  1  1
  3 22  1  6
  4 23  1  6
  5 24  1  6
  6 25  1  0
  6 26  1  0
  8 27  1  0
  8 28  1  0
  8 29  1  0
  9 30  1  0
 10 31  1  0
 11 32  1  0
 14 33  1  0
M  CHG  1  18  -1
M  END
>  <filename_input>  (3) 
7OZ9_NGK_docked.sdf

>  <pdb_id>  (3) 
7OZ9_NGK

>  <pose_rank>  (3) 
2

>  <num_atoms_heavy>  (3) 
19

>  <num_torsions>  (3) 
4

>  <pose>  (3) 
[31.290082581681308, 36.20135419074161, 29.58187629116664, -0.921902624785011, -1.4966719416276193, 0.7244508874969111, 6.06168446110085, 0.41375029105008954, 6.155597937266725, -3.039624491516548]

>  <energy>  (3) 
-108.53879998318736

>  <inter_energy>  (3) 
-113.58268917163116

>  <intra_energy>  (3) 
1.551324753523867

>  <rmsd>  (3) 
7.45658

>  <sdf_rank>  (3) 
0

$$$$

     RDKit          3D

 33 33  0  0  0  0  0  0  0  0999 V2000
   32.2121   34.9105   24.9918 C   0  0  1  0  0  0  0  0  0  0  0  0
   31.6823   35.4084   26.3416 C   0  0  1  0  0  0  0  0  0  0  0  0
   32.0228   36.8830   26.5622 C   0  0  2  0  0  0  0  0  0  0  0  0
   33.5123   37.1295   26.3345 C   0  0  2  0  0  0  0  0  0  0  0  0
   33.9141   36.6052   24.9604 C   0  0  1  0  0  0  0  0  0  0  0  0
   35.3933   36.7500   24.6930 C   0  0  0  0  0  0  0  0  0  0  0  0
   29.7566   34.2544   27.3133 C   0  0  0  0  0  0  0  0  0  0  0  0
   28.2795   34.0172   27.2131 C   0  0  0  0  0  0  0  0  0  0  0  0
   30.2594   35.1582   26.4650 N   0  0  0  0  0  0  0  0  0  0  0  0
   31.4801   35.4971   23.9530 O   0  0  0  0  0  0  0  0  0  0  0  0
   31.6893   37.3026   27.8776 O   0  0  0  0  0  0  0  0  0  0  0  0
   34.2642   36.4317   27.4033 O   0  0  0  0  0  0  0  0  0  0  0  0
   33.5979   35.2008   24.8441 O   0  0  0  0  0  0  0  0  0  0  0  0
   35.9450   35.5235   24.2178 O   0  0  0  0  0  0  0  0  0  0  0  0
   30.4659   33.6469   28.1152 O   0  0  0  0  0  0  0  0  0  0  0  0
   35.1200   37.2899   28.4477 S   0  0  2  0  0  0  0  0  0  0  0  0
   34.7427   38.6576   28.2671 O   0  0  0  0  0  0  0  0  0  0  0  0
   36.4878   37.0183   28.0962 O   0  0  0  0  0  0  0  0  0  0  0  0
   34.7568   36.7876   29.7538 O   0  0  0  0  0  0  0  0  0  0  0  0
   32.0912   33.8179   24.9520 H   0  0  0  0  0  0  0  0  0  0  0  0
   32.1865   34.8387   27.1360 H   0  0  0  0  0  0  0  0  0  0  0  0
   31.4306   37.4630   25.8390 H   0  0  0  0  0  0  0  0  0  0  0  0
   33.7377   38.2056   26.3684 H   0  0  0  0  0  0  0  0  0  0  0  0
   33.3517   37.2078   24.2321 H   0  0  0  0  0  0  0  0  0  0  0  0
   35.5478   37.5323   23.9353 H   0  0  0  0  0  0  0  0  0  0  0  0
   35.8963   37.0220   25.6326 H   0  0  0  0  0  0  0  0  0  0  0  0
   27.8498   33.9482   28.2233 H   0  0  0  0  0  0  0  0  0  0  0  0
   27.8101   34.8515   26.6712 H   0  0  0  0  0  0  0  0  0  0  0  0
   28.0949   33.0779   26.6712 H   0  0  0  0  0  0  0  0  0  0  0  0
   29.6096   35.6982   25.8758 H   0  0  0  0  0  0  0  0  0  0  0  0
   30.7669   36.0685   24.3337 H   0  0  0  0  0  0  0  0  0  0  0  0
   32.1497   36.7235   28.5354 H   0  0  0  0  0  0  0  0  0  0  0  0
   36.2002   34.9562   24.9880 H   0  0  0  0  0  0  0  0  0  0  0  0
  1  2  1  0
  1 10  1  0
  1 13  1  0
  2  3  1  0
  2  9  1  0
  3  4  1  0
  3 11  1  0
  4  5  1  0
  4 12  1  0
  5  6  1  0
  5 13  1  0
  6 14  1  0
  7  8  1  0
  7  9  1  0
  7 15  2  0
 12 16  1  0
 16 17  2  0
 16 18  1  6
 16 19  2  0
  1 20  1  1
  2 21  1  1
  3 22  1  6
  4 23  1  6
  5 24  1  6
  6 25  1  0
  6 26  1  0
  8 27  1  0
  8 28  1  0
  8 29  1  0
  9 30  1  0
 10 31  1  0
 11 32  1  0
 14 33  1  0
M  CHG  1  18  -1
M  END
>  <filename_input>  (4) 
7OZ9_NGK_docked.sdf

>  <pdb_id>  (4) 
7OZ9_NGK

>  <pose_rank>  (4) 
3

>  <num_atoms_heavy>  (4) 
19

>  <num_torsions>  (4) 
4

>  <pose>  (4) 
[32.212111105082435, 34.910499415969134, 24.99177725575512, -0.37839793725522924, -0.2620037474264585, -6.957185932216006, 12.305585507271127, -1.10622076486694, -0.035025467396260654, 1.2682753656887722]

>  <energy>  (4) 
-90.31404915054345

>  <inter_energy>  (4) 
-92.3330283560908

>  <intra_energy>  (4) 
1.8105321697524999

>  <rmsd>  (4) 
6.9006

>  <sdf_rank>  (4) 
0

$$$$

     RDKit          3D

 33 33  0  0  0  0  0  0  0  0999 V2000
   35.9974   38.0133   30.3719 C   0  0  1  0  0  0  0  0  0  0  0  0
   35.2520   37.6362   31.6575 C   0  0  1  0  0  0  0  0  0  0  0  0
   34.1688   38.6625   31.9929 C   0  0  2  0  0  0  0  0  0  0  0  0
   34.7477   40.0753   31.9855 C   0  0  2  0  0  0  0  0  0  0  0  0
   35.4492   40.3345   30.6569 C   0  0  1  0  0  0  0  0  0  0  0  0
   36.1105   41.6911   30.6039 C   0  0  0  0  0  0  0  0  0  0  0  0
   35.0515   35.3236   32.4295 C   0  0  0  0  0  0  0  0  0  0  0  0
   34.5193   33.9580   32.1134 C   0  0  0  0  0  0  0  0  0  0  0  0
   34.7146   36.2922   31.5708 N   0  0  0  0  0  0  0  0  0  0  0  0
   35.1482   37.8535   29.2709 O   0  0  0  0  0  0  0  0  0  0  0  0
   33.5941   38.4142   33.2679 O   0  0  0  0  0  0  0  0  0  0  0  0
   35.7010   40.1894   33.1137 O   0  0  0  0  0  0  0  0  0  0  0  0
   36.4820   39.3505   30.4314 O   0  0  0  0  0  0  0  0  0  0  0  0
   36.0181   42.2493   29.2946 O   0  0  0  0  0  0  0  0  0  0  0  0
   35.7650   35.5394   33.4091 O   0  0  0  0  0  0  0  0  0  0  0  0
   35.5031   41.3545   34.1920 S   0  0  2  0  0  0  0  0  0  0  0  0
   36.6998   41.4027   34.9739 O   0  0  0  0  0  0  0  0  0  0  0  0
   34.3418   40.9544   34.9401 O   0  0  0  0  0  0  0  0  0  0  0  0
   35.2984   42.5632   33.4255 O   0  0  0  0  0  0  0  0  0  0  0  0
   36.8649   37.3456   30.2639 H   0  0  0  0  0  0  0  0  0  0  0  0
   35.9753   37.6483   32.4861 H   0  0  0  0  0  0  0  0  0  0  0  0
   33.3883   38.5717   31.2231 H   0  0  0  0  0  0  0  0  0  0  0  0
   33.9492   40.8230   32.1013 H   0  0  0  0  0  0  0  0  0  0  0  0
   34.6652   40.2813   29.8872 H   0  0  0  0  0  0  0  0  0  0  0  0
   35.6124   42.3631   31.3183 H   0  0  0  0  0  0  0  0  0  0  0  0
   37.1731   41.5755   30.8635 H   0  0  0  0  0  0  0  0  0  0  0  0
   34.3098   33.4203   33.0499 H   0  0  0  0  0  0  0  0  0  0  0  0
   33.5920   34.0520   31.5292 H   0  0  0  0  0  0  0  0  0  0  0  0
   35.2657   33.3997   31.5292 H   0  0  0  0  0  0  0  0  0  0  0  0
   34.0465   36.0747   30.8177 H   0  0  0  0  0  0  0  0  0  0  0  0
   34.2264   37.6800   29.5875 H   0  0  0  0  0  0  0  0  0  0  0  0
   34.2297   38.6888   33.9755 H   0  0  0  0  0  0  0  0  0  0  0  0
   35.8568   43.2237   29.3619 H   0  0  0  0  0  0  0  0  0  0  0  0
  1  2  1  0
  1 10  1  0
  1 13  1  0
  2  3  1  0
  2  9  1  0
  3  4  1  0
  3 11  1  0
  4  5  1  0
  4 12  1  0
  5  6  1  0
  5 13  1  0
  6 14  1  0
  7  8  1  0
  7  9  1  0
  7 15  2  0
 12 16  1  0
 16 17  2  0
 16 18  1  1
 16 19  2  0
  1 20  1  6
  2 21  1  1
  3 22  1  6
  4 23  1  1
  5 24  1  6
  6 25  1  0
  6 26  1  0
  8 27  1  0
  8 28  1  0
  8 29  1  0
  9 30  1  0
 10 31  1  0
 11 32  1  0
 14 33  1  0
M  CHG  1  18  -1
M  END
>  <filename_input>  (5) 
7OZ9_NGK_docked.sdf

>  <pdb_id>  (5) 
7OZ9_NGK

>  <pose_rank>  (5) 
4

>  <num_atoms_heavy>  (5) 
19

>  <num_torsions>  (5) 
4

>  <pose>  (5) 
[35.99738125772671, 38.01328666273742, 30.371870281715758, 0.11674308204356737, -0.0959477627413361, 0.3243439121203614, -6.367183197599164, 0.38096118916032207, -6.475651506918421, -1.8636965363322926]

>  <energy>  (5) 
-554.9769931084833

>  <inter_energy>  (5) 
-577.8715007797698

>  <intra_energy>  (5) 
13.03764364962885

>  <rmsd>  (5) 
1.0988

>  <sdf_rank>  (5) 
0

$$$$

     RDKit          3D

 33 33  0  0  0  0  0  0  0  0999 V2000
   33.0101   38.8122   33.0933 C   0  0  1  0  0  0  0  0  0  0  0  0
   33.2417   38.3704   31.6436 C   0  0  1  0  0  0  0  0  0  0  0  0
   34.7333   38.2245   31.3388 C   0  0  2  0  0  0  0  0  0  0  0  0
   35.4900   39.4863   31.7467 C   0  0  2  0  0  0  0  0  0  0  0  0
   35.1902   39.8144   33.2052 C   0  0  1  0  0  0  0  0  0  0  0  0
   35.8496   41.0944   33.6602 C   0  0  0  0  0  0  0  0  0  0  0  0
   31.3377   37.1575   30.7010 C   0  0  0  0  0  0  0  0  0  0  0  0
   30.6431   35.8322   30.6044 C   0  0  0  0  0  0  0  0  0  0  0  0
   32.5084   37.1548   31.3479 N   0  0  0  0  0  0  0  0  0  0  0  0
   33.3449   37.7681   33.9632 O   0  0  0  0  0  0  0  0  0  0  0  0
   34.9608   37.9855   29.9573 O   0  0  0  0  0  0  0  0  0  0  0  0
   35.0568   40.5912   30.8601 O   0  0  0  0  0  0  0  0  0  0  0  0
   33.7690   39.9759   33.4040 O   0  0  0  0  0  0  0  0  0  0  0  0
   34.9837   42.2099   33.4595 O   0  0  0  0  0  0  0  0  0  0  0  0
   30.8562   38.1868   30.2278 O   0  0  0  0  0  0  0  0  0  0  0  0
   36.1057   41.2307   29.8353 S   0  0  2  0  0  0  0  0  0  0  0  0
   37.3757   40.6367   30.1182 O   0  0  0  0  0  0  0  0  0  0  0  0
   36.0559   42.6418   30.1084 O   0  0  0  0  0  0  0  0  0  0  0  0
   35.6202   40.8879   28.5173 O   0  0  0  0  0  0  0  0  0  0  0  0
   31.9458   39.0620   33.2153 H   0  0  0  0  0  0  0  0  0  0  0  0
   32.8528   39.1581   30.9816 H   0  0  0  0  0  0  0  0  0  0  0  0
   35.0984   37.3631   31.9174 H   0  0  0  0  0  0  0  0  0  0  0  0
   36.5753   39.3379   31.6465 H   0  0  0  0  0  0  0  0  0  0  0  0
   35.5872   38.9721   33.7909 H   0  0  0  0  0  0  0  0  0  0  0  0
   36.0924   41.0144   34.7301 H   0  0  0  0  0  0  0  0  0  0  0  0
   36.7651   41.2483   33.0701 H   0  0  0  0  0  0  0  0  0  0  0  0
   30.4422   35.4490   31.6157 H   0  0  0  0  0  0  0  0  0  0  0  0
   29.6933   35.9546   30.0633 H   0  0  0  0  0  0  0  0  0  0  0  0
   31.2843   35.1208   30.0633 H   0  0  0  0  0  0  0  0  0  0  0  0
   32.9051   36.2529   31.6482 H   0  0  0  0  0  0  0  0  0  0  0  0
   33.2467   38.0743   34.8995 H   0  0  0  0  0  0  0  0  0  0  0  0
   35.6398   37.2726   29.8531 H   0  0  0  0  0  0  0  0  0  0  0  0
   34.7028   42.5717   34.3371 H   0  0  0  0  0  0  0  0  0  0  0  0
  1  2  1  0
  1 10  1  0
  1 13  1  0
  2  3  1  0
  2  9  1  0
  3  4  1  0
  3 11  1  0
  4  5  1  0
  4 12  1  0
  5  6  1  0
  5 13  1  0
  6 14  1  0
  7  8  1  0
  7  9  1  0
  7 15  2  0
 12 16  1  0
 16 17  2  0
 16 18  1  6
 16 19  2  0
  1 20  1  6
  2 21  1  6
  3 22  1  1
  4 23  1  1
  5 24  1  1
  6 25  1  0
  6 26  1  0
  8 27  1  0
  8 28  1  0
  8 29  1  0
  9 30  1  0
 10 31  1  0
 11 32  1  0
 14 33  1  0
M  CHG  1  18  -1
M  END
>  <filename_input>  (6) 
7OZ9_NGK_docked.sdf

>  <pdb_id>  (6) 
7OZ9_NGK

>  <pose_rank>  (6) 
5

>  <num_atoms_heavy>  (6) 
19

>  <num_torsions>  (6) 
4

>  <pose>  (6) 
[33.01012392515571, 38.8121785238828, 33.09332408756728, -1.772702121107144, -2.490349365343951, -0.16849711620506058, -0.45103482578902143, -1.795443821797787, 0.0007232162213564129, 0.9549541176704075]

>  <energy>  (6) 
-456.02488939108065

>  <inter_energy>  (6) 
-452.30259018413426

>  <intra_energy>  (6) 
5.770080237880255

>  <rmsd>  (6) 
3.73491

>  <sdf_rank>  (6) 
0

$$$$

     RDKit          3D

 33 33  0  0  0  0  0  0  0  0999 V2000
   35.8272   37.6053   30.0878 C   0  0  1  0  0  0  0  0  0  0  0  0
   34.9343   37.2928   31.2943 C   0  0  1  0  0  0  0  0  0  0  0  0
   33.8153   38.3252   31.4396 C   0  0  2  0  0  0  0  0  0  0  0  0
   34.3863   39.7411   31.4218 C   0  0  2  0  0  0  0  0  0  0  0  0
   35.2412   39.9331   30.1740 C   0  0  1  0  0  0  0  0  0  0  0  0
   35.8995   41.2912   30.1240 C   0  0  0  0  0  0  0  0  0  0  0  0
   34.5264   35.0689   32.2283 C   0  0  0  0  0  0  0  0  0  0  0  0
   34.0670   33.6719   31.9358 C   0  0  0  0  0  0  0  0  0  0  0  0
   34.4156   35.9407   31.2200 N   0  0  0  0  0  0  0  0  0  0  0  0
   35.1166   37.3760   28.9040 O   0  0  0  0  0  0  0  0  0  0  0  0
   33.0928   38.1424   32.6487 O   0  0  0  0  0  0  0  0  0  0  0  0
   35.1971   39.9273   32.6476 O   0  0  0  0  0  0  0  0  0  0  0  0
   36.2967   38.9485   30.1293 O   0  0  0  0  0  0  0  0  0  0  0  0
   35.7622   41.8738   28.8294 O   0  0  0  0  0  0  0  0  0  0  0  0
   34.9896   35.3919   33.3221 O   0  0  0  0  0  0  0  0  0  0  0  0
   34.7428   41.0141   33.7300 S   0  0  2  0  0  0  0  0  0  0  0  0
   35.9151   41.3866   34.4600 O   0  0  0  0  0  0  0  0  0  0  0  0
   33.7593   40.3330   34.5281 O   0  0  0  0  0  0  0  0  0  0  0  0
   34.1961   42.1155   32.9695 O   0  0  0  0  0  0  0  0  0  0  0  0
   36.7035   36.9413   30.1221 H   0  0  0  0  0  0  0  0  0  0  0  0
   35.5531   37.3582   32.2015 H   0  0  0  0  0  0  0  0  0  0  0  0
   33.1330   38.1839   30.5884 H   0  0  0  0  0  0  0  0  0  0  0  0
   33.5772   40.4860   31.3990 H   0  0  0  0  0  0  0  0  0  0  0  0
   34.5552   39.8294   29.3204 H   0  0  0  0  0  0  0  0  0  0  0  0
   35.4258   41.9491   30.8675 H   0  0  0  0  0  0  0  0  0  0  0  0
   36.9705   41.1720   30.3449 H   0  0  0  0  0  0  0  0  0  0  0  0
   33.8914   33.1381   32.8814 H   0  0  0  0  0  0  0  0  0  0  0  0
   33.1331   33.7070   31.3557 H   0  0  0  0  0  0  0  0  0  0  0  0
   34.8394   33.1458   31.3557 H   0  0  0  0  0  0  0  0  0  0  0  0
   33.9427   35.6396   30.3560 H   0  0  0  0  0  0  0  0  0  0  0  0
   34.1977   37.0796   29.1228 H   0  0  0  0  0  0  0  0  0  0  0  0
   33.6952   38.2949   33.4194 H   0  0  0  0  0  0  0  0  0  0  0  0
   35.5361   42.8332   28.9216 H   0  0  0  0  0  0  0  0  0  0  0  0
  1  2  1  0
  1 10  1  0
  1 13  1  0
  2  3  1  0
  2  9  1  0
  3  4  1  0
  3 11  1  0
  4  5  1  0
  4 12  1  0
  5  6  1  0
  5 13  1  0
  6 14  1  0
  7  8  1  0
  7  9  1  0
  7 15  2  0
 12 16  1  0
 16 17  2  0
 16 18  1  1
 16 19  2  0
  1 20  1  6
  2 21  1  1
  3 22  1  6
  4 23  1  6
  5 24  1  6
  6 25  1  0
  6 26  1  0
  8 27  1  0
  8 28  1  0
  8 29  1  0
  9 30  1  0
 10 31  1  0
 11 32  1  0
 14 33  1  0
M  CHG  1  18  -1
M  END
>  <filename_input>  (7) 
7OZ9_NGK_docked.sdf

>  <pdb_id>  (7) 
7OZ9_NGK

>  <pose_rank>  (7) 
6

>  <num_atoms_heavy>  (7) 
19

>  <num_torsions>  (7) 
4

>  <pose>  (7) 
[35.8271525018011, 37.60526724702127, 30.08782319275422, 0.04192232405713297, -0.20516406715828314, 0.3403623333690584, -6.237883440910683, 0.5524786387786695, -6.3247880204524645, -1.6569440347987934]

>  <energy>  (7) 
-505.68360401592975

>  <inter_energy>  (7) 
-506.4640484478178

>  <intra_energy>  (7) 
9.467271146820416

>  <rmsd>  (7) 
1.24173

>  <sdf_rank>  (7) 
0

$$$$

     RDKit          3D

 33 33  0  0  0  0  0  0  0  0999 V2000
   35.0790   37.3218   31.5158 C   0  0  1  0  0  0  0  0  0  0  0  0
   34.7487   37.3700   30.0195 C   0  0  1  0  0  0  0  0  0  0  0  0
   33.3055   36.9385   29.7550 C   0  0  2  0  0  0  0  0  0  0  0  0
   33.0146   35.5986   30.4267 C   0  0  2  0  0  0  0  0  0  0  0  0
   33.3699   35.6800   31.9072 C   0  0  1  0  0  0  0  0  0  0  0  0
   33.1755   34.3654   32.6245 C   0  0  0  0  0  0  0  0  0  0  0  0
   35.5703   38.8532   28.2560 C   0  0  0  0  0  0  0  0  0  0  0  0
   35.9299   40.2638   27.8969 C   0  0  0  0  0  0  0  0  0  0  0  0
   35.0304   38.6811   29.4676 N   0  0  0  0  0  0  0  0  0  0  0  0
   34.3852   38.3369   32.1843 O   0  0  0  0  0  0  0  0  0  0  0  0
   33.0463   36.8145   28.3639 O   0  0  0  0  0  0  0  0  0  0  0  0
   33.8221   34.5577   29.7492 O   0  0  0  0  0  0  0  0  0  0  0  0
   34.7552   36.0527   32.0736 O   0  0  0  0  0  0  0  0  0  0  0  0
   34.4306   33.7414   32.8883 O   0  0  0  0  0  0  0  0  0  0  0  0
   35.7711   37.9097   27.4912 O   0  0  0  0  0  0  0  0  0  0  0  0
   33.0816   33.3296   29.0401 S   0  0  2  0  0  0  0  0  0  0  0  0
   33.4574   32.1500   29.7563 O   0  0  0  0  0  0  0  0  0  0  0  0
   33.5617   33.3583   27.6847 O   0  0  0  0  0  0  0  0  0  0  0  0
   31.6679   33.6121   29.1497 O   0  0  0  0  0  0  0  0  0  0  0  0
   36.1611   37.4771   31.6386 H   0  0  0  0  0  0  0  0  0  0  0  0
   35.4004   36.6493   29.5038 H   0  0  0  0  0  0  0  0  0  0  0  0
   32.6531   37.7189   30.1738 H   0  0  0  0  0  0  0  0  0  0  0  0
   31.9468   35.3470   30.3455 H   0  0  0  0  0  0  0  0  0  0  0  0
   32.6940   36.4333   32.3380 H   0  0  0  0  0  0  0  0  0  0  0  0
   32.6562   34.5478   33.5769 H   0  0  0  0  0  0  0  0  0  0  0  0
   32.5785   33.6995   31.9840 H   0  0  0  0  0  0  0  0  0  0  0  0
   36.0791   40.8494   28.8160 H   0  0  0  0  0  0  0  0  0  0  0  0
   36.8574   40.2666   27.3056 H   0  0  0  0  0  0  0  0  0  0  0  0
   35.1168   40.7103   27.3056 H   0  0  0  0  0  0  0  0  0  0  0  0
   34.8056   39.5133   30.0313 H   0  0  0  0  0  0  0  0  0  0  0  0
   34.4732   38.2082   33.1620 H   0  0  0  0  0  0  0  0  0  0  0  0
   32.1616   36.3910   28.2295 H   0  0  0  0  0  0  0  0  0  0  0  0
   34.5664   33.6738   33.8666 H   0  0  0  0  0  0  0  0  0  0  0  0
  1  2  1  0
  1 10  1  0
  1 13  1  0
  2  3  1  0
  2  9  1  0
  3  4  1  0
  3 11  1  0
  4  5  1  0
  4 12  1  0
  5  6  1  0
  5 13  1  0
  6 14  1  0
  7  8  1  0
  7  9  1  0
  7 15  2  0
 12 16  1  0
 16 17  2  0
 16 18  1  6
 16 19  2  0
  1 20  1  6
  2 21  1  6
  3 22  1  1
  4 23  1  1
  5 24  1  1
  6 25  1  0
  6 26  1  0
  8 27  1  0
  8 28  1  0
  8 29  1  0
  9 30  1  0
 10 31  1  0
 11 32  1  0
 14 33  1  0
M  CHG  1  18  -1
M  END
>  <filename_input>  (8) 
7OZ9_NGK_docked.sdf

>  <pdb_id>  (8) 
7OZ9_NGK

>  <pose_rank>  (8) 
7

>  <num_atoms_heavy>  (8) 
19

>  <num_torsions>  (8) 
4

>  <pose>  (8) 
[35.079029677677816, 37.32178567913407, 31.515805700418458, 2.5930841019517428, -1.2257104211692271, 0.29703238946510957, 0.265193027608159, 4.732229878809421, 6.172045832367813, -0.9420057596974232]

>  <energy>  (8) 
-244.02421283606074

>  <inter_energy>  (8) 
-254.1669682159637

>  <intra_energy>  (8) 
9.363224116623076

>  <rmsd>  (8) 
6.92234

>  <sdf_rank>  (8) 
0

$$$$

     RDKit          3D

 33 33  0  0  0  0  0  0  0  0999 V2000
   33.2125   36.5509   33.0949 C   0  0  1  0  0  0  0  0  0  0  0  0
   33.4009   35.6544   31.8656 C   0  0  1  0  0  0  0  0  0  0  0  0
   34.8225   35.7621   31.3121 C   0  0  2  0  0  0  0  0  0  0  0  0
   35.2048   37.2245   31.0962 C   0  0  2  0  0  0  0  0  0  0  0  0
   34.9871   38.0067   32.3868 C   0  0  1  0  0  0  0  0  0  0  0  0
   35.2770   39.4802   32.2290 C   0  0  0  0  0  0  0  0  0  0  0  0
   31.7703   33.8619   32.2012 C   0  0  0  0  0  0  0  0  0  0  0  0
   31.5641   32.4512   32.6656 C   0  0  0  0  0  0  0  0  0  0  0  0
   33.0397   34.2821   32.1636 N   0  0  0  0  0  0  0  0  0  0  0  0
   33.9426   36.0339   34.1713 O   0  0  0  0  0  0  0  0  0  0  0  0
   34.9537   35.0719   30.0776 O   0  0  0  0  0  0  0  0  0  0  0  0
   34.3612   37.7659   30.0054 O   0  0  0  0  0  0  0  0  0  0  0  0
   33.6153   37.8889   32.8227 O   0  0  0  0  0  0  0  0  0  0  0  0
   34.0663   40.2324   32.1775 O   0  0  0  0  0  0  0  0  0  0  0  0
   30.8314   34.5934   31.8872 O   0  0  0  0  0  0  0  0  0  0  0  0
   35.0059   38.0031   28.5605 S   0  0  2  0  0  0  0  0  0  0  0  0
   36.2291   37.2627   28.5263 O   0  0  0  0  0  0  0  0  0  0  0  0
   35.1919   39.4271   28.4826 O   0  0  0  0  0  0  0  0  0  0  0  0
   34.0341   37.5029   27.6142 O   0  0  0  0  0  0  0  0  0  0  0  0
   32.1434   36.5674   33.3532 H   0  0  0  0  0  0  0  0  0  0  0  0
   32.7204   36.0099   31.0778 H   0  0  0  0  0  0  0  0  0  0  0  0
   35.4934   35.3033   32.0533 H   0  0  0  0  0  0  0  0  0  0  0  0
   36.2657   37.3119   30.8191 H   0  0  0  0  0  0  0  0  0  0  0  0
   35.6831   37.5752   33.1212 H   0  0  0  0  0  0  0  0  0  0  0  0
   35.8783   39.8229   33.0840 H   0  0  0  0  0  0  0  0  0  0  0  0
   35.8267   39.6325   31.2884 H   0  0  0  0  0  0  0  0  0  0  0  0
   31.5601   32.4241   33.7652 H   0  0  0  0  0  0  0  0  0  0  0  0
   30.6017   32.0773   32.2861 H   0  0  0  0  0  0  0  0  0  0  0  0
   32.3791   31.8174   32.2861 H   0  0  0  0  0  0  0  0  0  0  0  0
   33.7908   33.6035   32.3540 H   0  0  0  0  0  0  0  0  0  0  0  0
   33.5290   36.3269   35.0217 H   0  0  0  0  0  0  0  0  0  0  0  0
   35.1355   34.1146   30.2525 H   0  0  0  0  0  0  0  0  0  0  0  0
   33.7576   40.4242   33.0984 H   0  0  0  0  0  0  0  0  0  0  0  0
  1  2  1  0
  1 10  1  0
  1 13  1  0
  2  3  1  0
  2  9  1  0
  3  4  1  0
  3 11  1  0
  4  5  1  0
  4 12  1  0
  5  6  1  0
  5 13  1  0
  6 14  1  0
  7  8  1  0
  7  9  1  0
  7 15  2  0
 12 16  1  0
 16 17  2  0
 16 18  1  6
 16 19  2  0
  1 20  1  1
  2 21  1  6
  3 22  1  1
  4 23  1  6
  5 24  1  1
  6 25  1  0
  6 26  1  0
  8 27  1  0
  8 28  1  0
  8 29  1  0
  9 30  1  0
 10 31  1  0
 11 32  1  0
 14 33  1  0
M  CHG  1  18  -1
M  END
>  <filename_input>  (9) 
7OZ9_NGK_docked.sdf

>  <pdb_id>  (9) 
7OZ9_NGK

>  <pose_rank>  (9) 
8

>  <num_atoms_heavy>  (9) 
19

>  <num_torsions>  (9) 
4

>  <pose>  (9) 
[33.212536546886916, 36.55094455369069, 33.094932793602226, -1.4365136648448038, -2.7346567335910943, 0.4780583499281105, -0.8090974253181183, -1.5511229626019727, 0.14618438338189896, 1.351453879031022]

>  <energy>  (9) 
-297.71763533168337

>  <inter_energy>  (9) 
-306.8751977840402

>  <intra_energy>  (9) 
13.647539454331543

>  <rmsd>  (9) 
4.55481

>  <sdf_rank>  (9) 
0

$$$$

     RDKit          3D

 33 33  0  0  0  0  0  0  0  0999 V2000
   34.5465   34.0671   25.6890 C   0  0  1  0  0  0  0  0  0  0  0  0
   34.9373   33.6235   27.1035 C   0  0  1  0  0  0  0  0  0  0  0  0
   34.5883   34.6946   28.1379 C   0  0  2  0  0  0  0  0  0  0  0  0
   35.1533   36.0496   27.7184 C   0  0  2  0  0  0  0  0  0  0  0  0
   34.6864   36.3842   26.3061 C   0  0  1  0  0  0  0  0  0  0  0  0
   35.2660   37.6814   25.7946 C   0  0  0  0  0  0  0  0  0  0  0  0
   35.0634   31.2898   27.8265 C   0  0  0  0  0  0  0  0  0  0  0  0
   34.3095   30.0033   27.9837 C   0  0  0  0  0  0  0  0  0  0  0  0
   34.3403   32.3428   27.4295 N   0  0  0  0  0  0  0  0  0  0  0  0
   33.1521   34.0882   25.5703 O   0  0  0  0  0  0  0  0  0  0  0  0
   35.1025   34.3660   29.4206 O   0  0  0  0  0  0  0  0  0  0  0  0
   36.6315   35.9719   27.7783 O   0  0  0  0  0  0  0  0  0  0  0  0
   35.0873   35.3480   25.3835 O   0  0  0  0  0  0  0  0  0  0  0  0
   34.3530   38.7587   25.9953 O   0  0  0  0  0  0  0  0  0  0  0  0
   36.2737   31.3709   28.0354 O   0  0  0  0  0  0  0  0  0  0  0  0
   37.4829   36.2023   26.4436 S   0  0  2  0  0  0  0  0  0  0  0  0
   36.8342   35.4622   25.4058 O   0  0  0  0  0  0  0  0  0  0  0  0
   38.7948   35.7105   26.7683 O   0  0  0  0  0  0  0  0  0  0  0  0
   37.4521   37.6277   26.2038 O   0  0  0  0  0  0  0  0  0  0  0  0
   34.9632   33.3459   24.9704 H   0  0  0  0  0  0  0  0  0  0  0  0
   36.0293   33.4934   27.1298 H   0  0  0  0  0  0  0  0  0  0  0  0
   33.4909   34.7452   28.1929 H   0  0  0  0  0  0  0  0  0  0  0  0
   34.7989   36.8437   28.3921 H   0  0  0  0  0  0  0  0  0  0  0  0
   33.5915   36.4724   26.3641 H   0  0  0  0  0  0  0  0  0  0  0  0
   36.2007   37.8959   26.3333 H   0  0  0  0  0  0  0  0  0  0  0  0
   35.4597   37.5800   24.7165 H   0  0  0  0  0  0  0  0  0  0  0  0
   34.1801   29.7826   29.0535 H   0  0  0  0  0  0  0  0  0  0  0  0
   33.3227   30.0959   27.5065 H   0  0  0  0  0  0  0  0  0  0  0  0
   34.8725   29.1877   27.5065 H   0  0  0  0  0  0  0  0  0  0  0  0
   33.3184   32.2399   27.3524 H   0  0  0  0  0  0  0  0  0  0  0  0
   32.7442   34.0944   26.4723 H   0  0  0  0  0  0  0  0  0  0  0  0
   34.5117   34.7436   30.1196 H   0  0  0  0  0  0  0  0  0  0  0  0
   34.2267   38.9077   26.9659 H   0  0  0  0  0  0  0  0  0  0  0  0
  1  2  1  0
  1 10  1  0
  1 13  1  0
  2  3  1  0
  2  9  1  0
  3  4  1  0
  3 11  1  0
  4  5  1  0
  4 12  1  0
  5  6  1  0
  5 13  1  0
  6 14  1  0
  7  8  1  0
  7  9  1  0
  7 15  2  0
 12 16  1  0
 16 17  2  0
 16 18  1  1
 16 19  2  0
  1 20  1  6
  2 21  1  6
  3 22  1  1
  4 23  1  1
  5 24  1  1
  6 25  1  0
  6 26  1  0
  8 27  1  0
  8 28  1  0
  8 29  1  0
  9 30  1  0
 10 31  1  0
 11 32  1  0
 14 33  1  0
M  CHG  1  18  -1
M  END
>  <filename_input>  (10) 
7OZ9_NGK_docked.sdf

>  <pdb_id>  (10) 
7OZ9_NGK

>  <pose_rank>  (10) 
9

>  <num_atoms_heavy>  (10) 
19

>  <num_torsions>  (10) 
4

>  <pose>  (10) 
[34.54648855737581, 34.0670576479271, 25.688974483499948, -2.1039038971020734, -4.99701257602813, -0.9617725872970903, -0.015409063300435693, 1.2173625965024528, -2.2234331139439725, 0.2897576439494962]

>  <energy>  (10) 
205.0372474631087

>  <inter_energy>  (10) 
-88.41581807377085

>  <intra_energy>  (10) 
307.0725811773963

>  <rmsd>  (10) 
7.23384

>  <sdf_rank>  (10) 
0

$$$$

     RDKit          3D

 33 33  0  0  0  0  0  0  0  0999 V2000
   33.0720   35.1670   32.6074 C   0  0  1  0  0  0  0  0  0  0  0  0
   34.0570   34.4580   31.6705 C   0  0  1  0  0  0  0  0  0  0  0  0
   35.4154   35.1606   31.6579 C   0  0  2  0  0  0  0  0  0  0  0  0
   35.2446   36.6536   31.3879 C   0  0  2  0  0  0  0  0  0  0  0  0
   34.2563   37.2451   32.3869 C   0  0  1  0  0  0  0  0  0  0  0  0
   33.9816   38.7085   32.1355 C   0  0  0  0  0  0  0  0  0  0  0  0
   33.5381   32.0905   31.3390 C   0  0  0  0  0  0  0  0  0  0  0  0
   33.6568   30.7087   31.9089 C   0  0  0  0  0  0  0  0  0  0  0  0
   34.1782   33.0537   32.0110 N   0  0  0  0  0  0  0  0  0  0  0  0
   33.4668   34.9775   33.9367 O   0  0  0  0  0  0  0  0  0  0  0  0
   36.2738   34.6154   30.6662 O   0  0  0  0  0  0  0  0  0  0  0  0
   34.7513   36.8183   30.0008 O   0  0  0  0  0  0  0  0  0  0  0  0
   32.9890   36.5568   32.3105 O   0  0  0  0  0  0  0  0  0  0  0  0
   32.9791   39.1963   33.0251 O   0  0  0  0  0  0  0  0  0  0  0  0
   32.8821   32.3279   30.3248 O   0  0  0  0  0  0  0  0  0  0  0  0
   35.5265   37.8015   29.0050 S   0  0  2  0  0  0  0  0  0  0  0  0
   35.9495   38.9267   29.7801 O   0  0  0  0  0  0  0  0  0  0  0  0
   34.5535   38.1287   27.9978 O   0  0  0  0  0  0  0  0  0  0  0  0
   36.6414   37.0366   28.4929 O   0  0  0  0  0  0  0  0  0  0  0  0
   32.0735   34.7307   32.4573 H   0  0  0  0  0  0  0  0  0  0  0  0
   33.6551   34.5150   30.6481 H   0  0  0  0  0  0  0  0  0  0  0  0
   35.8678   35.0068   32.6488 H   0  0  0  0  0  0  0  0  0  0  0  0
   36.2029   37.1813   31.5028 H   0  0  0  0  0  0  0  0  0  0  0  0
   34.7216   37.1268   33.3766 H   0  0  0  0  0  0  0  0  0  0  0  0
   34.9085   39.2808   32.2883 H   0  0  0  0  0  0  0  0  0  0  0  0
   33.6239   38.8274   31.1021 H   0  0  0  0  0  0  0  0  0  0  0  0
   33.6521   30.7636   33.0075 H   0  0  0  0  0  0  0  0  0  0  0  0
   32.8079   30.0975   31.5686 H   0  0  0  0  0  0  0  0  0  0  0  0
   34.5976   30.2513   31.5686 H   0  0  0  0  0  0  0  0  0  0  0  0
   34.7815   32.7872   32.8021 H   0  0  0  0  0  0  0  0  0  0  0  0
   32.7607   35.3164   34.5422 H   0  0  0  0  0  0  0  0  0  0  0  0
   37.0233   34.1393   31.1041 H   0  0  0  0  0  0  0  0  0  0  0  0
   33.2706   39.0545   33.9605 H   0  0  0  0  0  0  0  0  0  0  0  0
  1  2  1  0
  1 10  1  0
  1 13  1  0
  2  3  1  0
  2  9  1  0
  3  4  1  0
  3 11  1  0
  4  5  1  0
  4 12  1  0
  5  6  1  0
  5 13  1  0
  6 14  1  0
  7  8  1  0
  7  9  1  0
  7 15  2  0
 12 16  1  0
 16 17  2  0
 16 18  1  6
 16 19  2  0
  1 20  1  1
  2 21  1  6
  3 22  1  1
  4 23  1  6
  5 24  1  1
  6 25  1  0
  6 26  1  0
  8 27  1  0
  8 28  1  0
  8 29  1  0
  9 30  1  0
 10 31  1  0
 11 32  1  0
 14 33  1  0
M  CHG  1  18  -1
M  END
>  <filename_input>  (11) 
7OZ9_NGK_docked.sdf

>  <pdb_id>  (11) 
7OZ9_NGK

>  <pose_rank>  (11) 
10

>  <num_atoms_heavy>  (11) 
19

>  <num_torsions>  (11) 
4

>  <pose>  (11) 
[33.07201651054201, 35.166980479245034, 32.6073774972721, -1.040089158911761, -3.3956941941087466, 0.31298849789010436, -0.44067826316901665, -0.32044310956147104, -0.24194132330409718, 0.4060079559085706]

>  <energy>  (11) 
-295.75214280994584

>  <inter_energy>  (11) 
-294.4006281276987

>  <intra_energy>  (11) 
11.411225425863726

>  <rmsd>  (11) 
5.02663

>  <sdf_rank>  (11) 
0

$$$$

     RDKit          3D

 33 33  0  0  0  0  0  0  0  0999 V2000
   35.1732   38.0103   30.4496 C   0  0  1  0  0  0  0  0  0  0  0  0
   34.4713   38.0244   31.8126 C   0  0  1  0  0  0  0  0  0  0  0  0
   33.7582   39.3553   32.0564 C   0  0  2  0  0  0  0  0  0  0  0  0
   34.7103   40.5252   31.8201 C   0  0  2  0  0  0  0  0  0  0  0  0
   35.3330   40.4069   30.4335 C   0  0  1  0  0  0  0  0  0  0  0  0
   36.3436   41.4940   30.1557 C   0  0  0  0  0  0  0  0  0  0  0  0
   33.6411   36.0302   32.9609 C   0  0  0  0  0  0  0  0  0  0  0  0
   32.7316   34.8417   32.8700 C   0  0  0  0  0  0  0  0  0  0  0  0
   33.5698   36.8963   31.9441 N   0  0  0  0  0  0  0  0  0  0  0  0
   34.2173   37.9756   29.4279 O   0  0  0  0  0  0  0  0  0  0  0  0
   33.2548   39.4403   33.3819 O   0  0  0  0  0  0  0  0  0  0  0  0
   35.7551   40.4892   32.8698 O   0  0  0  0  0  0  0  0  0  0  0  0
   36.0199   39.1442   30.2950 O   0  0  0  0  0  0  0  0  0  0  0  0
   35.6953   42.6957   29.7435 O   0  0  0  0  0  0  0  0  0  0  0  0
   34.4154   36.1936   33.9038 O   0  0  0  0  0  0  0  0  0  0  0  0
   35.7370   41.5891   34.0314 S   0  0  2  0  0  0  0  0  0  0  0  0
   34.3742   41.7384   34.4391 O   0  0  0  0  0  0  0  0  0  0  0  0
   36.2865   42.7669   33.4156 O   0  0  0  0  0  0  0  0  0  0  0  0
   36.5706   41.0555   35.0853 O   0  0  0  0  0  0  0  0  0  0  0  0
   35.8025   37.1100   30.3915 H   0  0  0  0  0  0  0  0  0  0  0  0
   35.2405   37.9232   32.5924 H   0  0  0  0  0  0  0  0  0  0  0  0
   32.9174   39.4055   31.3488 H   0  0  0  0  0  0  0  0  0  0  0  0
   34.1701   41.4821   31.8711 H   0  0  0  0  0  0  0  0  0  0  0  0
   34.4995   40.4940   29.7209 H   0  0  0  0  0  0  0  0  0  0  0  0
   36.9212   41.6916   31.0708 H   0  0  0  0  0  0  0  0  0  0  0  0
   37.0096   41.1578   29.3474 H   0  0  0  0  0  0  0  0  0  0  0  0
   32.4710   34.5012   33.8830 H   0  0  0  0  0  0  0  0  0  0  0  0
   31.8150   35.1219   32.3302 H   0  0  0  0  0  0  0  0  0  0  0  0
   33.2415   34.0302   32.3302 H   0  0  0  0  0  0  0  0  0  0  0  0
   32.8452   36.7563   31.2255 H   0  0  0  0  0  0  0  0  0  0  0  0
   33.3110   37.9428   29.8249 H   0  0  0  0  0  0  0  0  0  0  0  0
   33.9967   39.3149   34.0253 H   0  0  0  0  0  0  0  0  0  0  0  0
   35.4172   43.2111   30.5416 H   0  0  0  0  0  0  0  0  0  0  0  0
  1  2  1  0
  1 10  1  0
  1 13  1  0
  2  3  1  0
  2  9  1  0
  3  4  1  0
  3 11  1  0
  4  5  1  0
  4 12  1  0
  5  6  1  0
  5 13  1  0
  6 14  1  0
  7  8  1  0
  7  9  1  0
  7 15  2  0
 12 16  1  0
 16 17  2  0
 16 18  1  6
 16 19  2  0
  1 20  1  1
  2 21  1  1
  3 22  1  6
  4 23  1  6
  5 24  1  6
  6 25  1  0
  6 26  1  0
  8 27  1  0
  8 28  1  0
  8 29  1  0
  9 30  1  0
 10 31  1  0
 11 32  1  0
 14 33  1  0
M  CHG  1  18  -1
M  END
>  <filename_input>  (12) 
7OZ9_NGK_docked.sdf

>  <pdb_id>  (12) 
7OZ9_NGK

>  <pose_rank>  (12) 
11

>  <num_atoms_heavy>  (12) 
19

>  <num_torsions>  (12) 
4

>  <pose>  (12) 
[35.173188870723784, 38.01027419342192, 30.44962492947345, -2.6496708013068773, -2.808721374255194, 5.0095118765305955, 12.560351184280554, -4.810647119864063, -12.466606053841378, 8.090767458664104]

>  <energy>  (12) 
-578.2719943519782

>  <inter_energy>  (12) 
-584.1780292182119

>  <intra_energy>  (12) 
17.61421285599768

>  <rmsd>  (12) 
0.547289

>  <sdf_rank>  (12) 
0

$$$$

     RDKit          3D

 33 33  0  0  0  0  0  0  0  0999 V2000
   35.2828   32.3420   31.1536 C   0  0  1  0  0  0  0  0  0  0  0  0
   34.9542   33.8336   31.0207 C   0  0  1  0  0  0  0  0  0  0  0  0
   34.1575   34.1155   29.7460 C   0  0  2  0  0  0  0  0  0  0  0  0
   34.8560   33.5084   28.5316 C   0  0  2  0  0  0  0  0  0  0  0  0
   35.1164   32.0265   28.7782 C   0  0  1  0  0  0  0  0  0  0  0  0
   35.8714   31.3729   27.6454 C   0  0  0  0  0  0  0  0  0  0  0  0
   34.9146   34.9258   33.2093 C   0  0  0  0  0  0  0  0  0  0  0  0
   34.0846   35.2395   34.4180 C   0  0  0  0  0  0  0  0  0  0  0  0
   34.2720   34.3223   32.2033 N   0  0  0  0  0  0  0  0  0  0  0  0
   34.1121   31.6239   31.4232 O   0  0  0  0  0  0  0  0  0  0  0  0
   34.0002   35.5104   29.5288 O   0  0  0  0  0  0  0  0  0  0  0  0
   36.1282   34.2369   28.3189 O   0  0  0  0  0  0  0  0  0  0  0  0
   35.9058   31.8452   29.9739 O   0  0  0  0  0  0  0  0  0  0  0  0
   35.0123   30.5238   26.8870 O   0  0  0  0  0  0  0  0  0  0  0  0
   36.1146   35.1933   33.1498 O   0  0  0  0  0  0  0  0  0  0  0  0
   36.4232   34.8988   26.8926 S   0  0  2  0  0  0  0  0  0  0  0  0
   37.0183   33.8833   26.0800 O   0  0  0  0  0  0  0  0  0  0  0  0
   37.3072   35.9951   27.1843 O   0  0  0  0  0  0  0  0  0  0  0  0
   35.1368   35.3232   26.3873 O   0  0  0  0  0  0  0  0  0  0  0  0
   35.9896   32.2141   31.9867 H   0  0  0  0  0  0  0  0  0  0  0  0
   35.9024   34.3847   30.9368 H   0  0  0  0  0  0  0  0  0  0  0  0
   33.1657   33.6582   29.8772 H   0  0  0  0  0  0  0  0  0  0  0  0
   34.2253   33.5994   27.6349 H   0  0  0  0  0  0  0  0  0  0  0  0
   34.1254   31.5585   28.8731 H   0  0  0  0  0  0  0  0  0  0  0  0
   36.2800   32.1534   26.9868 H   0  0  0  0  0  0  0  0  0  0  0  0
   36.6842   30.7645   28.0685 H   0  0  0  0  0  0  0  0  0  0  0  0
   34.6637   35.0206   35.3273 H   0  0  0  0  0  0  0  0  0  0  0  0
   33.8082   36.3041   34.4068 H   0  0  0  0  0  0  0  0  0  0  0  0
   33.1731   34.6238   34.4068 H   0  0  0  0  0  0  0  0  0  0  0  0
   33.2516   34.1997   32.2714 H   0  0  0  0  0  0  0  0  0  0  0  0
   33.9893   31.5486   32.4027 H   0  0  0  0  0  0  0  0  0  0  0  0
   33.9477   35.9762   30.4008 H   0  0  0  0  0  0  0  0  0  0  0  0
   34.4605   29.9784   27.5020 H   0  0  0  0  0  0  0  0  0  0  0  0
  1  2  1  0
  1 10  1  0
  1 13  1  0
  2  3  1  0
  2  9  1  0
  3  4  1  0
  3 11  1  0
  4  5  1  0
  4 12  1  0
  5  6  1  0
  5 13  1  0
  6 14  1  0
  7  8  1  0
  7  9  1  0
  7 15  2  0
 12 16  1  0
 16 17  2  0
 16 18  1  1
 16 19  2  0
  1 20  1  1
  2 21  1  6
  3 22  1  1
  4 23  1  6
  5 24  1  1
  6 25  1  0
  6 26  1  0
  8 27  1  0
  8 28  1  0
  8 29  1  0
  9 30  1  0
 10 31  1  0
 11 32  1  0
 14 33  1  0
M  CHG  1  18  -1
M  END
>  <filename_input>  (13) 
7OZ9_NGK_docked.sdf

>  <pdb_id>  (13) 
7OZ9_NGK

>  <pose_rank>  (13) 
12

>  <num_atoms_heavy>  (13) 
19

>  <num_torsions>  (13) 
4

>  <pose>  (13) 
[35.282761127069676, 32.34196502232064, 31.15357547608863, -1.6949825080319605, 0.32101883795177993, -0.0756668028520945, 12.046403466460962, -5.253545071737967, -0.20013578457114958, -19.293856989206596]

>  <energy>  (13) 
-185.93705254587914

>  <inter_energy>  (13) 
-182.76932010034426

>  <intra_energy>  (13) 
7.622826729568567

>  <rmsd>  (13) 
7.4118

>  <sdf_rank>  (13) 
0

$$$$

     RDKit          3D

 33 33  0  0  0  0  0  0  0  0999 V2000
   34.1607   33.7479   31.2519 C   0  0  1  0  0  0  0  0  0  0  0  0
   33.3310   34.7073   32.1130 C   0  0  1  0  0  0  0  0  0  0  0  0
   31.8358   34.4086   31.9942 C   0  0  2  0  0  0  0  0  0  0  0  0
   31.4160   34.3471   30.5275 C   0  0  2  0  0  0  0  0  0  0  0  0
   32.3019   33.3548   29.7823 C   0  0  1  0  0  0  0  0  0  0  0  0
   31.9913   33.2936   28.3058 C   0  0  0  0  0  0  0  0  0  0  0  0
   34.8296   35.3930   33.9210 C   0  0  0  0  0  0  0  0  0  0  0  0
   35.2461   35.1465   35.3401 C   0  0  0  0  0  0  0  0  0  0  0  0
   33.7783   34.6858   33.4922 N   0  0  0  0  0  0  0  0  0  0  0  0
   34.1154   32.4619   31.8024 O   0  0  0  0  0  0  0  0  0  0  0  0
   31.0542   35.3976   32.6488 O   0  0  0  0  0  0  0  0  0  0  0  0
   31.5496   35.7055   29.9518 O   0  0  0  0  0  0  0  0  0  0  0  0
   33.6918   33.7262   29.9080 O   0  0  0  0  0  0  0  0  0  0  0  0
   31.2592   32.1108   27.9904 O   0  0  0  0  0  0  0  0  0  0  0  0
   35.4247   36.1851   33.1905 O   0  0  0  0  0  0  0  0  0  0  0  0
   30.3201   36.3408   29.1492 S   0  0  2  0  0  0  0  0  0  0  0  0
   30.7754   36.5779   27.8142 O   0  0  0  0  0  0  0  0  0  0  0  0
   30.0051   37.5431   29.8727 O   0  0  0  0  0  0  0  0  0  0  0  0
   29.2675   35.3511   29.2031 O   0  0  0  0  0  0  0  0  0  0  0  0
   35.2017   34.1032   31.2393 H   0  0  0  0  0  0  0  0  0  0  0  0
   33.4872   35.7275   31.7326 H   0  0  0  0  0  0  0  0  0  0  0  0
   31.6615   33.4355   32.4766 H   0  0  0  0  0  0  0  0  0  0  0  0
   30.3732   34.0093   30.4357 H   0  0  0  0  0  0  0  0  0  0  0  0
   32.1030   32.3732   30.2372 H   0  0  0  0  0  0  0  0  0  0  0  0
   31.3928   34.1733   28.0265 H   0  0  0  0  0  0  0  0  0  0  0  0
   32.9385   33.2813   27.7467 H   0  0  0  0  0  0  0  0  0  0  0  0
   34.5031   35.5862   36.0219 H   0  0  0  0  0  0  0  0  0  0  0  0
   35.3129   34.0634   35.5198 H   0  0  0  0  0  0  0  0  0  0  0  0
   36.2277   35.6093   35.5198 H   0  0  0  0  0  0  0  0  0  0  0  0
   33.2657   34.1026   34.1690 H   0  0  0  0  0  0  0  0  0  0  0  0
   34.1177   32.5256   32.7904 H   0  0  0  0  0  0  0  0  0  0  0  0
   31.1393   35.2898   33.6292 H   0  0  0  0  0  0  0  0  0  0  0  0
   30.9812   31.6617   28.8277 H   0  0  0  0  0  0  0  0  0  0  0  0
  1  2  1  0
  1 10  1  0
  1 13  1  0
  2  3  1  0
  2  9  1  0
  3  4  1  0
  3 11  1  0
  4  5  1  0
  4 12  1  0
  5  6  1  0
  5 13  1  0
  6 14  1  0
  7  8  1  0
  7  9  1  0
  7 15  2  0
 12 16  1  0
 16 17  2  0
 16 18  1  1
 16 19  2  0
  1 20  1  6
  2 21  1  6
  3 22  1  1
  4 23  1  1
  5 24  1  1
  6 25  1  0
  6 26  1  0
  8 27  1  0
  8 28  1  0
  8 29  1  0
  9 30  1  0
 10 31  1  0
 11 32  1  0
 14 33  1  0
M  CHG  1  18  -1
M  END
>  <filename_input>  (14) 
7OZ9_NGK_docked.sdf

>  <pdb_id>  (14) 
7OZ9_NGK

>  <pose_rank>  (14) 
13

>  <num_atoms_heavy>  (14) 
19

>  <num_torsions>  (14) 
4

>  <pose>  (14) 
[34.160744200344666, 33.7478721737782, 31.251922448271362, -1.3751678180784401, 0.4113153158211188, 1.166681358966285, 11.810020258440128, -5.205137004411272, -0.2733753317502313, -19.858374632079045]

>  <energy>  (14) 
-194.55734207323079

>  <inter_energy>  (14) 
-201.79123184134647

>  <intra_energy>  (14) 
5.1287863550673105

>  <rmsd>  (14) 
6.7377

>  <sdf_rank>  (14) 
0

$$$$

     RDKit          3D

 33 33  0  0  0  0  0  0  0  0999 V2000
   35.5459   33.2181   33.2560 C   0  0  1  0  0  0  0  0  0  0  0  0
   34.8004   32.3654   32.2227 C   0  0  1  0  0  0  0  0  0  0  0  0
   34.0872   33.2406   31.1909 C   0  0  2  0  0  0  0  0  0  0  0  0
   33.2271   34.2945   31.8842 C   0  0  2  0  0  0  0  0  0  0  0  0
   34.0796   35.0817   32.8733 C   0  0  1  0  0  0  0  0  0  0  0  0
   33.2779   36.0977   33.6513 C   0  0  0  0  0  0  0  0  0  0  0  0
   35.4780   30.0906   31.6305 C   0  0  0  0  0  0  0  0  0  0  0  0
   36.5705   29.2366   31.0604 C   0  0  0  0  0  0  0  0  0  0  0  0
   35.6935   31.4103   31.5961 N   0  0  0  0  0  0  0  0  0  0  0  0
   36.6437   33.8397   32.6499 O   0  0  0  0  0  0  0  0  0  0  0  0
   33.2564   32.4665   30.3376 O   0  0  0  0  0  0  0  0  0  0  0  0
   32.1196   33.6005   32.5816 O   0  0  0  0  0  0  0  0  0  0  0  0
   34.6854   34.1924   33.8365 O   0  0  0  0  0  0  0  0  0  0  0  0
   33.5442   35.9914   35.0485 O   0  0  0  0  0  0  0  0  0  0  0  0
   34.4528   29.6094   32.1128 O   0  0  0  0  0  0  0  0  0  0  0  0
   30.6192   33.8027   32.0646 S   0  0  2  0  0  0  0  0  0  0  0  0
   30.6269   34.9492   31.2095 O   0  0  0  0  0  0  0  0  0  0  0  0
   29.8497   33.9850   33.2658 O   0  0  0  0  0  0  0  0  0  0  0  0
   30.2860   32.5889   31.3532 O   0  0  0  0  0  0  0  0  0  0  0  0
   35.8991   32.5582   34.0621 H   0  0  0  0  0  0  0  0  0  0  0  0
   34.0242   31.7922   32.7509 H   0  0  0  0  0  0  0  0  0  0  0  0
   34.8667   33.7287   30.5874 H   0  0  0  0  0  0  0  0  0  0  0  0
   32.8139   35.0026   31.1508 H   0  0  0  0  0  0  0  0  0  0  0  0
   34.8383   35.6013   32.2697 H   0  0  0  0  0  0  0  0  0  0  0  0
   33.5467   37.1079   33.3088 H   0  0  0  0  0  0  0  0  0  0  0  0
   32.2079   35.9076   33.4810 H   0  0  0  0  0  0  0  0  0  0  0  0
   37.1484   28.7848   31.8802 H   0  0  0  0  0  0  0  0  0  0  0  0
   36.1292   28.4415   30.4414 H   0  0  0  0  0  0  0  0  0  0  0  0
   37.2355   29.8567   30.4414 H   0  0  0  0  0  0  0  0  0  0  0  0
   36.5275   31.7623   31.1047 H   0  0  0  0  0  0  0  0  0  0  0  0
   37.2542   34.1854   33.3484 H   0  0  0  0  0  0  0  0  0  0  0  0
   32.6532   31.9044   30.8856 H   0  0  0  0  0  0  0  0  0  0  0  0
   32.7566   36.3058   35.5594 H   0  0  0  0  0  0  0  0  0  0  0  0
  1  2  1  0
  1 10  1  0
  1 13  1  0
  2  3  1  0
  2  9  1  0
  3  4  1  0
  3 11  1  0
  4  5  1  0
  4 12  1  0
  5  6  1  0
  5 13  1  0
  6 14  1  0
  7  8  1  0
  7  9  1  0
  7 15  2  0
 12 16  1  0
 16 17  2  0
 16 18  1  1
 16 19  2  0
  1 20  1  1
  2 21  1  1
  3 22  1  6
  4 23  1  6
  5 24  1  6
  6 25  1  0
  6 26  1  0
  8 27  1  0
  8 28  1  0
  8 29  1  0
  9 30  1  0
 10 31  1  0
 11 32  1  0
 14 33  1  0
M  CHG  1  18  -1
M  END
>  <filename_input>  (15) 
7OZ9_NGK_docked.sdf

>  <pdb_id>  (15) 
7OZ9_NGK

>  <pose_rank>  (15) 
14

>  <num_atoms_heavy>  (15) 
19

>  <num_torsions>  (15) 
4

>  <pose>  (15) 
[35.54592308292413, 33.21805953167171, 33.25601933467948, 0.4225902055325384, -1.8786753281280988, 0.6627688194800064, -0.06056347966020676, -1.100870041085044, 0.02079804149969516, 0.7875072124707065]

>  <energy>  (15) 
-270.71731313557865

>  <inter_energy>  (15) 
-257.0297937387553

>  <intra_energy>  (15) 
4.652313328018929

>  <rmsd>  (15) 
7.2979

>  <sdf_rank>  (15) 
0

$$$$

     RDKit          3D

 33 33  0  0  0  0  0  0  0  0999 V2000
   35.1353   35.6690   32.5428 C   0  0  1  0  0  0  0  0  0  0  0  0
   34.6191   34.6046   31.5676 C   0  0  1  0  0  0  0  0  0  0  0  0
   34.4834   35.1673   30.1519 C   0  0  2  0  0  0  0  0  0  0  0  0
   33.6749   36.4623   30.1647 C   0  0  2  0  0  0  0  0  0  0  0  0
   34.2909   37.4410   31.1583 C   0  0  1  0  0  0  0  0  0  0  0  0
   33.5003   38.7220   31.2783 C   0  0  0  0  0  0  0  0  0  0  0  0
   34.9637   32.1946   31.8080 C   0  0  0  0  0  0  0  0  0  0  0  0
   35.9787   31.1010   31.9562 C   0  0  0  0  0  0  0  0  0  0  0  0
   35.4560   33.4208   31.6005 N   0  0  0  0  0  0  0  0  0  0  0  0
   36.4741   35.9601   32.2571 O   0  0  0  0  0  0  0  0  0  0  0  0
   33.8449   34.2421   29.2836 O   0  0  0  0  0  0  0  0  0  0  0  0
   32.2820   36.1331   30.5468 O   0  0  0  0  0  0  0  0  0  0  0  0
   34.3478   36.8531   32.4762 O   0  0  0  0  0  0  0  0  0  0  0  0
   32.9092   38.8336   32.5715 O   0  0  0  0  0  0  0  0  0  0  0  0
   33.7537   31.9819   31.8857 O   0  0  0  0  0  0  0  0  0  0  0  0
   31.0980   36.4097   29.5070 S   0  0  2  0  0  0  0  0  0  0  0  0
   31.4417   37.6022   28.7959 O   0  0  0  0  0  0  0  0  0  0  0  0
   29.9261   36.5467   30.3293 O   0  0  0  0  0  0  0  0  0  0  0  0
   31.0574   35.2490   28.6460 O   0  0  0  0  0  0  0  0  0  0  0  0
   35.0583   35.2709   33.5653 H   0  0  0  0  0  0  0  0  0  0  0  0
   33.6122   34.3045   31.8932 H   0  0  0  0  0  0  0  0  0  0  0  0
   35.5012   35.3627   29.7831 H   0  0  0  0  0  0  0  0  0  0  0  0
   33.6822   36.9347   29.1713 H   0  0  0  0  0  0  0  0  0  0  0  0
   35.2960   37.6682   30.7733 H   0  0  0  0  0  0  0  0  0  0  0  0
   34.1724   39.5772   31.1140 H   0  0  0  0  0  0  0  0  0  0  0  0
   32.6994   38.7137   30.5243 H   0  0  0  0  0  0  0  0  0  0  0  0
   36.1571   30.9087   33.0245 H   0  0  0  0  0  0  0  0  0  0  0  0
   35.6035   30.1850   31.4765 H   0  0  0  0  0  0  0  0  0  0  0  0
   36.9201   31.4070   31.4765 H   0  0  0  0  0  0  0  0  0  0  0  0
   36.4705   33.5286   31.4585 H   0  0  0  0  0  0  0  0  0  0  0  0
   36.9760   36.0691   33.1035 H   0  0  0  0  0  0  0  0  0  0  0  0
   33.3724   33.5576   29.8205 H   0  0  0  0  0  0  0  0  0  0  0  0
   33.6040   38.7024   33.2644 H   0  0  0  0  0  0  0  0  0  0  0  0
  1  2  1  0
  1 10  1  0
  1 13  1  0
  2  3  1  0
  2  9  1  0
  3  4  1  0
  3 11  1  0
  4  5  1  0
  4 12  1  0
  5  6  1  0
  5 13  1  0
  6 14  1  0
  7  8  1  0
  7  9  1  0
  7 15  2  0
 12 16  1  0
 16 17  2  0
 16 18  1  1
 16 19  2  0
  1 20  1  1
  2 21  1  1
  3 22  1  6
  4 23  1  6
  5 24  1  6
  6 25  1  0
  6 26  1  0
  8 27  1  0
  8 28  1  0
  8 29  1  0
  9 30  1  0
 10 31  1  0
 11 32  1  0
 14 33  1  0
M  CHG  1  18  -1
M  END
>  <filename_input>  (16) 
7OZ9_NGK_docked.sdf

>  <pdb_id>  (16) 
7OZ9_NGK

>  <pose_rank>  (16) 
15

>  <num_atoms_heavy>  (16) 
19

>  <num_torsions>  (16) 
4

>  <pose>  (16) 
[35.135287476774074, 35.66903420756052, 32.54279413186398, -0.04689317628327937, -2.084976945491705, 0.9522556416508283, 0.01965027698055588, -1.4130987401244046, -0.06483759953109777, 0.4483152779105079]

>  <energy>  (16) 
-235.19711562464914

>  <inter_energy>  (16) 
-231.46135484155906

>  <intra_energy>  (16) 
7.494630315339785

>  <rmsd>  (16) 
5.62588

>  <sdf_rank>  (16) 
0

$$$$

     RDKit          3D

 33 33  0  0  0  0  0  0  0  0999 V2000
   31.2804   33.9481   28.1377 C   0  0  1  0  0  0  0  0  0  0  0  0
   30.8984   33.7751   29.6123 C   0  0  1  0  0  0  0  0  0  0  0  0
   30.7723   35.1272   30.3159 C   0  0  2  0  0  0  0  0  0  0  0  0
   32.0204   35.9739   30.0783 C   0  0  2  0  0  0  0  0  0  0  0  0
   32.2881   36.0830   28.5813 C   0  0  1  0  0  0  0  0  0  0  0  0
   33.5520   36.8489   28.2713 C   0  0  0  0  0  0  0  0  0  0  0  0
   29.6173   31.9115   30.5454 C   0  0  0  0  0  0  0  0  0  0  0  0
   28.3468   31.1202   30.4581 C   0  0  0  0  0  0  0  0  0  0  0  0
   29.6920   32.9817   29.7464 N   0  0  0  0  0  0  0  0  0  0  0  0
   30.2039   34.4998   27.4338 O   0  0  0  0  0  0  0  0  0  0  0  0
   30.5902   34.9701   31.7158 O   0  0  0  0  0  0  0  0  0  0  0  0
   33.1579   35.3233   30.7692 O   0  0  0  0  0  0  0  0  0  0  0  0
   32.4345   34.7699   27.9981 O   0  0  0  0  0  0  0  0  0  0  0  0
   33.2470   38.1303   27.7242 O   0  0  0  0  0  0  0  0  0  0  0  0
   30.5402   31.5906   31.2941 O   0  0  0  0  0  0  0  0  0  0  0  0
   33.9111   36.1044   31.9448 S   0  0  2  0  0  0  0  0  0  0  0  0
   32.9249   36.8939   32.6155 O   0  0  0  0  0  0  0  0  0  0  0  0
   34.9125   36.8851   31.2696 O   0  0  0  0  0  0  0  0  0  0  0  0
   34.4679   35.0791   32.7986 O   0  0  0  0  0  0  0  0  0  0  0  0
   31.5199   32.9584   27.7217 H   0  0  0  0  0  0  0  0  0  0  0  0
   31.7102   33.2261   30.1119 H   0  0  0  0  0  0  0  0  0  0  0  0
   29.8902   35.6303   29.8930 H   0  0  0  0  0  0  0  0  0  0  0  0
   31.8815   36.9905   30.4750 H   0  0  0  0  0  0  0  0  0  0  0  0
   31.4250   36.6188   28.1595 H   0  0  0  0  0  0  0  0  0  0  0  0
   34.1300   36.9809   29.1979 H   0  0  0  0  0  0  0  0  0  0  0  0
   34.1364   36.2805   27.5329 H   0  0  0  0  0  0  0  0  0  0  0  0
   27.9848   30.8948   31.4721 H   0  0  0  0  0  0  0  0  0  0  0  0
   27.5869   31.7051   29.9191 H   0  0  0  0  0  0  0  0  0  0  0  0
   28.5365   30.1803   29.9191 H   0  0  0  0  0  0  0  0  0  0  0  0
   28.8592   33.2531   29.2046 H   0  0  0  0  0  0  0  0  0  0  0  0
   29.5323   34.8440   28.0745 H   0  0  0  0  0  0  0  0  0  0  0  0
   31.2443   35.5346   32.1990 H   0  0  0  0  0  0  0  0  0  0  0  0
   33.0936   38.7751   28.4595 H   0  0  0  0  0  0  0  0  0  0  0  0
  1  2  1  0
  1 10  1  0
  1 13  1  0
  2  3  1  0
  2  9  1  0
  3  4  1  0
  3 11  1  0
  4  5  1  0
  4 12  1  0
  5  6  1  0
  5 13  1  0
  6 14  1  0
  7  8  1  0
  7  9  1  0
  7 15  2  0
 12 16  1  0
 16 17  2  0
 16 18  1  6
 16 19  2  0
  1 20  1  6
  2 21  1  1
  3 22  1  6
  4 23  1  1
  5 24  1  6
  6 25  1  0
  6 26  1  0
  8 27  1  0
  8 28  1  0
  8 29  1  0
  9 30  1  0
 10 31  1  0
 11 32  1  0
 14 33  1  0
M  CHG  1  18  -1
M  END
>  <filename_input>  (17) 
7OZ9_NGK_docked.sdf

>  <pdb_id>  (17) 
7OZ9_NGK

>  <pose_rank>  (17) 
16

>  <num_atoms_heavy>  (17) 
19

>  <num_torsions>  (17) 
4

>  <pose>  (17) 
[31.280433770519675, 33.94814050009591, 28.137671560995287, -3.1412938074079797, -2.8366822462949592, 4.010185489668689, 6.330022300803389, -5.270096364091247, -12.642284839296563, 7.934079841900748]

>  <energy>  (17) 
-168.80981934167974

>  <inter_energy>  (17) 
-163.82136531643445

>  <intra_energy>  (17) 
7.181395465566284

>  <rmsd>  (17) 
5.71446

>  <sdf_rank>  (17) 
0

$$$$

     RDKit          3D

 33 33  0  0  0  0  0  0  0  0999 V2000
   32.0681   37.4544   28.3835 C   0  0  1  0  0  0  0  0  0  0  0  0
   31.6931   36.7042   29.6669 C   0  0  1  0  0  0  0  0  0  0  0  0
   32.1640   37.4602   30.9101 C   0  0  2  0  0  0  0  0  0  0  0  0
   33.6438   37.8170   30.7925 C   0  0  2  0  0  0  0  0  0  0  0  0
   33.8877   38.5676   29.4880 C   0  0  1  0  0  0  0  0  0  0  0  0
   35.3461   38.8916   29.2679 C   0  0  0  0  0  0  0  0  0  0  0  0
   29.3829   37.2874   30.2215 C   0  0  0  0  0  0  0  0  0  0  0  0
   27.9728   36.7875   30.3205 C   0  0  0  0  0  0  0  0  0  0  0  0
   30.2703   36.4274   29.7095 N   0  0  0  0  0  0  0  0  0  0  0  0
   31.2996   38.6193   28.2772 O   0  0  0  0  0  0  0  0  0  0  0  0
   31.9749   36.6911   32.0892 O   0  0  0  0  0  0  0  0  0  0  0  0
   34.4261   36.5594   30.8289 O   0  0  0  0  0  0  0  0  0  0  0  0
   33.4551   37.7745   28.3612 O   0  0  0  0  0  0  0  0  0  0  0  0
   35.4981   39.8772   28.2482 O   0  0  0  0  0  0  0  0  0  0  0  0
   29.7083   38.4127   30.5998 O   0  0  0  0  0  0  0  0  0  0  0  0
   35.5338   36.3584   31.9655 S   0  0  2  0  0  0  0  0  0  0  0  0
   35.6457   37.6039   32.6596 O   0  0  0  0  0  0  0  0  0  0  0  0
   36.7226   35.9920   31.2439 O   0  0  0  0  0  0  0  0  0  0  0  0
   35.0332   35.2998   32.8136 O   0  0  0  0  0  0  0  0  0  0  0  0
   31.8600   36.8000   27.5243 H   0  0  0  0  0  0  0  0  0  0  0  0
   32.2162   35.7366   29.6605 H   0  0  0  0  0  0  0  0  0  0  0  0
   31.5602   38.3771   30.9786 H   0  0  0  0  0  0  0  0  0  0  0  0
   33.9539   38.4675   31.6235 H   0  0  0  0  0  0  0  0  0  0  0  0
   33.3148   39.5032   29.5675 H   0  0  0  0  0  0  0  0  0  0  0  0
   35.7760   39.2737   30.2056 H   0  0  0  0  0  0  0  0  0  0  0  0
   35.8670   37.9754   28.9529 H   0  0  0  0  0  0  0  0  0  0  0  0
   27.6925   36.6881   31.3795 H   0  0  0  0  0  0  0  0  0  0  0  0
   27.2956   37.5003   29.8273 H   0  0  0  0  0  0  0  0  0  0  0  0
   27.8958   35.8073   29.8273 H   0  0  0  0  0  0  0  0  0  0  0  0
   29.9292   35.5326   29.3302 H   0  0  0  0  0  0  0  0  0  0  0  0
   31.0793   38.9531   29.1828 H   0  0  0  0  0  0  0  0  0  0  0  0
   32.1159   37.2648   32.8836 H   0  0  0  0  0  0  0  0  0  0  0  0
   35.6351   40.7647   28.6649 H   0  0  0  0  0  0  0  0  0  0  0  0
  1  2  1  0
  1 10  1  0
  1 13  1  0
  2  3  1  0
  2  9  1  0
  3  4  1  0
  3 11  1  0
  4  5  1  0
  4 12  1  0
  5  6  1  0
  5 13  1  0
  6 14  1  0
  7  8  1  0
  7  9  1  0
  7 15  2  0
 12 16  1  0
 16 17  2  0
 16 18  1  6
 16 19  2  0
  1 20  1  6
  2 21  1  6
  3 22  1  1
  4 23  1  1
  5 24  1  1
  6 25  1  0
  6 26  1  0
  8 27  1  0
  8 28  1  0
  8 29  1  0
  9 30  1  0
 10 31  1  0
 11 32  1  0
 14 33  1  0
M  CHG  1  18  -1
M  END
>  <filename_input>  (18) 
7OZ9_NGK_docked.sdf

>  <pdb_id>  (18) 
7OZ9_NGK

>  <pose_rank>  (18) 
17

>  <num_atoms_heavy>  (18) 
19

>  <num_torsions>  (18) 
4

>  <pose>  (18) 
[32.0681099534821, 37.45443575327182, 28.383533691949914, -3.651098412252229, -1.8254103511385007, 3.1780714410315225, 2.5544682039545945, 0.023428183100668153, -0.1395251449645606, 0.9370105392418641]

>  <energy>  (18) 
-207.61348562503466

>  <inter_energy>  (18) 
-253.57783594651485

>  <intra_energy>  (18) 
54.2519289811984

>  <rmsd>  (18) 
4.30921

>  <sdf_rank>  (18) 
0

$$$$

     RDKit          3D

 33 33  0  0  0  0  0  0  0  0999 V2000
   29.5948   44.3111   40.9576 C   0  0  1  0  0  0  0  0  0  0  0  0
   29.7514   45.8151   41.2103 C   0  0  1  0  0  0  0  0  0  0  0  0
   28.5704   46.3705   42.0077 C   0  0  2  0  0  0  0  0  0  0  0  0
   27.2484   45.9701   41.3572 C   0  0  2  0  0  0  0  0  0  0  0  0
   27.2067   44.4574   41.1707 C   0  0  1  0  0  0  0  0  0  0  0  0
   25.9548   43.9932   40.4652 C   0  0  0  0  0  0  0  0  0  0  0  0
   31.8069   47.1163   41.4687 C   0  0  0  0  0  0  0  0  0  0  0  0
   33.1467   47.1885   42.1379 C   0  0  0  0  0  0  0  0  0  0  0  0
   31.0197   46.1046   41.8509 N   0  0  0  0  0  0  0  0  0  0  0  0
   29.7511   43.6126   42.1603 O   0  0  0  0  0  0  0  0  0  0  0  0
   28.6223   47.7872   42.0953 O   0  0  0  0  0  0  0  0  0  0  0  0
   27.1477   46.6631   40.0518 O   0  0  0  0  0  0  0  0  0  0  0  0
   28.3292   44.0160   40.3764 O   0  0  0  0  0  0  0  0  0  0  0  0
   24.8987   43.7740   41.3983 O   0  0  0  0  0  0  0  0  0  0  0  0
   31.4568   47.9274   40.6116 O   0  0  0  0  0  0  0  0  0  0  0  0
   25.7591   47.3337   39.6257 S   0  0  2  0  0  0  0  0  0  0  0  0
   26.0461   48.6885   39.2680 O   0  0  0  0  0  0  0  0  0  0  0  0
   24.9299   47.2096   40.7942 O   0  0  0  0  0  0  0  0  0  0  0  0
   25.2811   46.5584   38.5029 O   0  0  0  0  0  0  0  0  0  0  0  0
   30.3731   43.9945   40.2477 H   0  0  0  0  0  0  0  0  0  0  0  0
   29.7512   46.3256   40.2359 H   0  0  0  0  0  0  0  0  0  0  0  0
   28.6356   45.9452   43.0200 H   0  0  0  0  0  0  0  0  0  0  0  0
   26.3990   46.2588   41.9938 H   0  0  0  0  0  0  0  0  0  0  0  0
   27.2343   44.0284   42.1832 H   0  0  0  0  0  0  0  0  0  0  0  0
   25.6431   44.7609   39.7416 H   0  0  0  0  0  0  0  0  0  0  0  0
   26.1716   43.0461   39.9494 H   0  0  0  0  0  0  0  0  0  0  0  0
   33.0122   47.1812   43.2296 H   0  0  0  0  0  0  0  0  0  0  0  0
   33.7538   46.3217   41.8374 H   0  0  0  0  0  0  0  0  0  0  0  0
   33.6571   48.1154   41.8374 H   0  0  0  0  0  0  0  0  0  0  0  0
   31.3267   45.5072   42.6318 H   0  0  0  0  0  0  0  0  0  0  0  0
   29.6128   44.2306   42.9213 H   0  0  0  0  0  0  0  0  0  0  0  0
   28.6322   48.0588   43.0473 H   0  0  0  0  0  0  0  0  0  0  0  0
   25.2523   43.8474   42.3201 H   0  0  0  0  0  0  0  0  0  0  0  0
  1  2  1  0
  1 10  1  0
  1 13  1  0
  2  3  1  0
  2  9  1  0
  3  4  1  0
  3 11  1  0
  4  5  1  0
  4 12  1  0
  5  6  1  0
  5 13  1  0
  6 14  1  0
  7  8  1  0
  7  9  1  0
  7 15  2  0
 12 16  1  0
 16 17  2  0
 16 18  1  1
 16 19  2  0
  1 20  1  6
  2 21  1  6
  3 22  1  1
  4 23  1  1
  5 24  1  1
  6 25  1  0
  6 26  1  0
  8 27  1  0
  8 28  1  0
  8 29  1  0
  9 30  1  0
 10 31  1  0
 11 32  1  0
 14 33  1  0
M  CHG  1  18  -1
M  END
>  <filename_input>  (19) 
7OZ9_NGK_docked.sdf

>  <pdb_id>  (19) 
7OZ9_NGK

>  <pose_rank>  (19) 
18

>  <num_atoms_heavy>  (19) 
19

>  <num_torsions>  (19) 
4

>  <pose>  (19) 
[29.59477553170549, 44.311093090169976, 40.9576234402785, 2.134484601876093, -2.6657716845577126, -1.956203284729523, 0.1771772430989715, 1.3783431463283693, -0.40184924298199093, -2.9935915087402836]

>  <energy>  (19) 
-119.3168849448403

>  <inter_energy>  (19) 
-153.12520926997348

>  <intra_energy>  (19) 
13.753143762355219

>  <rmsd>  (19) 
13.8338

>  <sdf_rank>  (19) 
0

$$$$

     RDKit          3D

 33 33  0  0  0  0  0  0  0  0999 V2000
   32.9264   34.5610   28.8909 C   0  0  1  0  0  0  0  0  0  0  0  0
   32.4249   34.2640   30.3089 C   0  0  1  0  0  0  0  0  0  0  0  0
   32.1777   35.5541   31.0923 C   0  0  2  0  0  0  0  0  0  0  0  0
   33.4030   36.4629   31.0293 C   0  0  2  0  0  0  0  0  0  0  0  0
   33.7955   36.6935   29.5742 C   0  0  1  0  0  0  0  0  0  0  0  0
   35.0465   37.5278   29.4351 C   0  0  0  0  0  0  0  0  0  0  0  0
   30.0102   33.9075   30.1442 C   0  0  0  0  0  0  0  0  0  0  0  0
   28.8974   32.9113   30.2750 C   0  0  0  0  0  0  0  0  0  0  0  0
   31.2479   33.4177   30.2766 N   0  0  0  0  0  0  0  0  0  0  0  0
   31.8921   35.1225   28.1333 O   0  0  0  0  0  0  0  0  0  0  0  0
   31.8810   35.2861   32.4553 O   0  0  0  0  0  0  0  0  0  0  0  0
   34.5035   35.8061   31.7724 O   0  0  0  0  0  0  0  0  0  0  0  0
   34.0506   35.4341   28.9150 O   0  0  0  0  0  0  0  0  0  0  0  0
   34.8779   38.5316   28.4359 O   0  0  0  0  0  0  0  0  0  0  0  0
   29.8001   35.1034   29.9417 O   0  0  0  0  0  0  0  0  0  0  0  0
   34.8209   36.2665   33.2714 S   0  0  2  0  0  0  0  0  0  0  0  0
   33.9126   37.3275   33.5797 O   0  0  0  0  0  0  0  0  0  0  0  0
   36.1979   36.6795   33.2334 O   0  0  0  0  0  0  0  0  0  0  0  0
   34.5992   35.0973   34.0924 O   0  0  0  0  0  0  0  0  0  0  0  0
   33.2451   33.6149   28.4290 H   0  0  0  0  0  0  0  0  0  0  0  0
   33.2134   33.7105   30.8397 H   0  0  0  0  0  0  0  0  0  0  0  0
   31.3145   36.0535   30.6281 H   0  0  0  0  0  0  0  0  0  0  0  0
   33.1849   37.4410   31.4830 H   0  0  0  0  0  0  0  0  0  0  0  0
   32.9497   37.2262   29.1151 H   0  0  0  0  0  0  0  0  0  0  0  0
   35.2664   38.0113   30.3984 H   0  0  0  0  0  0  0  0  0  0  0  0
   35.8770   36.8707   29.1378 H   0  0  0  0  0  0  0  0  0  0  0  0
   28.6926   32.7280   31.3401 H   0  0  0  0  0  0  0  0  0  0  0  0
   27.9925   33.3067   29.7904 H   0  0  0  0  0  0  0  0  0  0  0  0
   29.1906   31.9683   29.7904 H   0  0  0  0  0  0  0  0  0  0  0  0
   31.3697   32.3982   30.3589 H   0  0  0  0  0  0  0  0  0  0  0  0
   31.2043   35.4959   28.7396 H   0  0  0  0  0  0  0  0  0  0  0  0
   32.4767   35.8242   33.0346 H   0  0  0  0  0  0  0  0  0  0  0  0
   34.7305   39.4086   28.8708 H   0  0  0  0  0  0  0  0  0  0  0  0
  1  2  1  0
  1 10  1  0
  1 13  1  0
  2  3  1  0
  2  9  1  0
  3  4  1  0
  3 11  1  0
  4  5  1  0
  4 12  1  0
  5  6  1  0
  5 13  1  0
  6 14  1  0
  7  8  1  0
  7  9  1  0
  7 15  2  0
 12 16  1  0
 16 17  2  0
 16 18  1  6
 16 19  2  0
  1 20  1  6
  2 21  1  1
  3 22  1  6
  4 23  1  1
  5 24  1  6
  6 25  1  0
  6 26  1  0
  8 27  1  0
  8 28  1  0
  8 29  1  0
  9 30  1  0
 10 31  1  0
 11 32  1  0
 14 33  1  0
M  CHG  1  18  -1
M  END
>  <filename_input>  (20) 
7OZ9_NGK_docked.sdf

>  <pdb_id>  (20) 
7OZ9_NGK

>  <pose_rank>  (20) 
19

>  <num_atoms_heavy>  (20) 
19

>  <num_torsions>  (20) 
4

>  <pose>  (20) 
[32.92640702638448, 34.561043400238255, 28.89085014525793, -4.346822265442053, -1.9900196187524006, 3.366506139072724, 2.590037769425974, 0.5455462347727275, 0.24354252599195272, 1.03772012865962]

>  <energy>  (20) 
-151.71158034476565

>  <inter_energy>  (20) 
-215.21121304061748

>  <intra_energy>  (20) 
65.47817398529548

>  <rmsd>  (20) 
4.59969

>  <sdf_rank>  (20) 
0

$$$$

     RDKit          3D

 33 33  0  0  0  0  0  0  0  0999 V2000
   27.1490   42.3245   26.5135 C   0  0  1  0  0  0  0  0  0  0  0  0
   26.6481   42.9771   27.8073 C   0  0  1  0  0  0  0  0  0  0  0  0
   25.7246   44.1597   27.5115 C   0  0  2  0  0  0  0  0  0  0  0  0
   26.3850   45.1234   26.5285 C   0  0  2  0  0  0  0  0  0  0  0  0
   26.8265   44.3623   25.2833 C   0  0  1  0  0  0  0  0  0  0  0  0
   27.5546   45.2400   24.2935 C   0  0  0  0  0  0  0  0  0  0  0  0
   26.7094   41.1976   29.4849 C   0  0  0  0  0  0  0  0  0  0  0  0
   25.9139   40.1473   30.2005 C   0  0  0  0  0  0  0  0  0  0  0  0
   26.0144   41.9993   28.6703 N   0  0  0  0  0  0  0  0  0  0  0  0
   26.0903   41.6656   25.8778 O   0  0  0  0  0  0  0  0  0  0  0  0
   25.3973   44.8728   28.6956 O   0  0  0  0  0  0  0  0  0  0  0  0
   27.5477   45.7459   27.2032 O   0  0  0  0  0  0  0  0  0  0  0  0
   27.7253   43.2896   25.6400 O   0  0  0  0  0  0  0  0  0  0  0  0
   26.6318   45.9939   23.5097 O   0  0  0  0  0  0  0  0  0  0  0  0
   27.9272   41.3082   29.6258 O   0  0  0  0  0  0  0  0  0  0  0  0
   27.6137   47.3385   27.3404 S   0  0  2  0  0  0  0  0  0  0  0  0
   27.4590   47.6411   28.7297 O   0  0  0  0  0  0  0  0  0  0  0  0
   26.5291   47.8120   26.5233 O   0  0  0  0  0  0  0  0  0  0  0  0
   28.9146   47.7187   26.8368 O   0  0  0  0  0  0  0  0  0  0  0  0
   27.9308   41.5950   26.7716 H   0  0  0  0  0  0  0  0  0  0  0  0
   27.5199   43.3758   28.3467 H   0  0  0  0  0  0  0  0  0  0  0  0
   24.8032   43.7483   27.0736 H   0  0  0  0  0  0  0  0  0  0  0  0
   25.6777   45.9061   26.2171 H   0  0  0  0  0  0  0  0  0  0  0  0
   25.9041   43.9802   24.8215 H   0  0  0  0  0  0  0  0  0  0  0  0
   28.2123   45.9316   24.8406 H   0  0  0  0  0  0  0  0  0  0  0  0
   28.1457   44.5993   23.6226 H   0  0  0  0  0  0  0  0  0  0  0  0
   26.0182   40.2850   31.2868 H   0  0  0  0  0  0  0  0  0  0  0  0
   24.8540   40.2354   29.9198 H   0  0  0  0  0  0  0  0  0  0  0  0
   26.2860   39.1509   29.9198 H   0  0  0  0  0  0  0  0  0  0  0  0
   24.9876   41.9188   28.6556 H   0  0  0  0  0  0  0  0  0  0  0  0
   25.4808   41.2863   26.5595 H   0  0  0  0  0  0  0  0  0  0  0  0
   25.6458   44.3313   29.4862 H   0  0  0  0  0  0  0  0  0  0  0  0
   26.0211   46.4928   24.1082 H   0  0  0  0  0  0  0  0  0  0  0  0
  1  2  1  0
  1 10  1  0
  1 13  1  0
  2  3  1  0
  2  9  1  0
  3  4  1  0
  3 11  1  0
  4  5  1  0
  4 12  1  0
  5  6  1  0
  5 13  1  0
  6 14  1  0
  7  8  1  0
  7  9  1  0
  7 15  2  0
 12 16  1  0
 16 17  2  0
 16 18  1  6
 16 19  2  0
  1 20  1  1
  2 21  1  1
  3 22  1  6
  4 23  1  6
  5 24  1  6
  6 25  1  0
  6 26  1  0
  8 27  1  0
  8 28  1  0
  8 29  1  0
  9 30  1  0
 10 31  1  0
 11 32  1  0
 14 33  1  0
M  CHG  1  18  -1
M  END
>  <filename_input>  (21) 
7OZ9_NGK_docked.sdf

>  <pdb_id>  (21) 
7OZ9_NGK

>  <pose_rank>  (21) 
20

>  <num_atoms_heavy>  (21) 
19

>  <num_torsions>  (21) 
4

>  <pose>  (21) 
[27.14896235796043, 42.32451691262023, 26.513475606772644, 5.1121998194005815, -1.6358632473870236, -1.8323176884710326, -0.7517387309071851, 1.489250002669328, -0.14510455452205914, -3.2746289995768887]

>  <energy>  (21) 
-176.04952859238932

>  <inter_energy>  (21) 
-155.36864019069142

>  <intra_energy>  (21) 
3.3314736634996778

>  <rmsd>  (21) 
10.853

>  <sdf_rank>  (21) 
0

$$$$

     RDKit          3D

 33 33  0  0  0  0  0  0  0  0999 V2000
   35.9261   34.8412   28.1033 C   0  0  1  0  0  0  0  0  0  0  0  0
   34.7927   33.8606   28.4265 C   0  0  1  0  0  0  0  0  0  0  0  0
   33.4511   34.5841   28.5518 C   0  0  2  0  0  0  0  0  0  0  0  0
   33.5652   35.7628   29.5155 C   0  0  2  0  0  0  0  0  0  0  0  0
   34.7135   36.6682   29.0837 C   0  0  1  0  0  0  0  0  0  0  0  0
   34.9333   37.8211   30.0339 C   0  0  0  0  0  0  0  0  0  0  0  0
   33.9969   32.8597   26.3410 C   0  0  0  0  0  0  0  0  0  0  0  0
   33.9411   31.6108   25.5132 C   0  0  0  0  0  0  0  0  0  0  0  0
   34.7396   32.7889   27.4512 N   0  0  0  0  0  0  0  0  0  0  0  0
   35.7752   35.3217   26.7975 O   0  0  0  0  0  0  0  0  0  0  0  0
   32.4319   33.7124   29.0197 O   0  0  0  0  0  0  0  0  0  0  0  0
   33.8029   35.2257   30.8755 O   0  0  0  0  0  0  0  0  0  0  0  0
   35.9495   35.9235   29.0279 O   0  0  0  0  0  0  0  0  0  0  0  0
   33.8841   38.7804   29.9184 O   0  0  0  0  0  0  0  0  0  0  0  0
   33.3875   33.8824   26.0279 O   0  0  0  0  0  0  0  0  0  0  0  0
   32.7871   35.5986   32.0539 S   0  0  2  0  0  0  0  0  0  0  0  0
   33.3150   36.7578   32.7043 O   0  0  0  0  0  0  0  0  0  0  0  0
   32.7656   34.4285   32.8897 O   0  0  0  0  0  0  0  0  0  0  0  0
   31.5207   35.8602   31.4073 O   0  0  0  0  0  0  0  0  0  0  0  0
   36.8837   34.3063   28.1872 H   0  0  0  0  0  0  0  0  0  0  0  0
   35.0058   33.4048   29.4047 H   0  0  0  0  0  0  0  0  0  0  0  0
   33.1831   34.9439   27.5474 H   0  0  0  0  0  0  0  0  0  0  0  0
   32.6407   36.3588   29.5116 H   0  0  0  0  0  0  0  0  0  0  0  0
   34.4324   37.0598   28.0949 H   0  0  0  0  0  0  0  0  0  0  0  0
   34.9601   37.4385   31.0649 H   0  0  0  0  0  0  0  0  0  0  0  0
   35.8863   38.3090   29.7814 H   0  0  0  0  0  0  0  0  0  0  0  0
   33.9019   30.7334   26.1755 H   0  0  0  0  0  0  0  0  0  0  0  0
   33.0430   31.6315   24.8784 H   0  0  0  0  0  0  0  0  0  0  0  0
   34.8375   31.5513   24.8784 H   0  0  0  0  0  0  0  0  0  0  0  0
   35.2961   31.9388   27.6202 H   0  0  0  0  0  0  0  0  0  0  0  0
   35.4788   36.2659   26.8255 H   0  0  0  0  0  0  0  0  0  0  0  0
   32.4288   33.7098   30.0097 H   0  0  0  0  0  0  0  0  0  0  0  0
   33.5856   39.0533   30.8220 H   0  0  0  0  0  0  0  0  0  0  0  0
  1  2  1  0
  1 10  1  0
  1 13  1  0
  2  3  1  0
  2  9  1  0
  3  4  1  0
  3 11  1  0
  4  5  1  0
  4 12  1  0
  5  6  1  0
  5 13  1  0
  6 14  1  0
  7  8  1  0
  7  9  1  0
  7 15  2  0
 12 16  1  0
 16 17  2  0
 16 18  1  1
 16 19  2  0
  1 20  1  6
  2 21  1  1
  3 22  1  6
  4 23  1  1
  5 24  1  6
  6 25  1  0
  6 26  1  0
  8 27  1  0
  8 28  1  0
  8 29  1  0
  9 30  1  0
 10 31  1  0
 11 32  1  0
 14 33  1  0
M  CHG  1  18  -1
M  END
>  <filename_input>  (22) 
7OZ9_NGK_docked.sdf

>  <pdb_id>  (22) 
7OZ9_NGK

>  <pose_rank>  (22) 
21

>  <num_atoms_heavy>  (22) 
19

>  <num_torsions>  (22) 
4

>  <pose>  (22) 
[35.926122154077575, 34.84120221552783, 28.103342231313135, -2.9236773255666604, 3.721893171659315, -2.2422486121203957, -3.7713103555001743, 1.6436029759892505, -0.15427844682422104, -0.5559159795022999]

>  <energy>  (22) 
-109.56414725398568

>  <inter_energy>  (22) 
-162.79311696709243

>  <intra_energy>  (22) 
56.76874011964866

>  <rmsd>  (22) 
6.02401

>  <sdf_rank>  (22) 
0

$$$$

     RDKit          3D

 33 33  0  0  0  0  0  0  0  0999 V2000
   26.1325   38.2198   27.4541 C   0  0  1  0  0  0  0  0  0  0  0  0
   26.4265   36.7371   27.7105 C   0  0  1  0  0  0  0  0  0  0  0  0
   26.3137   36.3976   29.1975 C   0  0  2  0  0  0  0  0  0  0  0  0
   27.1490   37.3644   30.0333 C   0  0  2  0  0  0  0  0  0  0  0  0
   26.7578   38.7998   29.6996 C   0  0  1  0  0  0  0  0  0  0  0  0
   27.5949   39.8168   30.4379 C   0  0  0  0  0  0  0  0  0  0  0  0
   25.9277   35.4734   25.6761 C   0  0  0  0  0  0  0  0  0  0  0  0
   24.8748   34.7268   24.9131 C   0  0  0  0  0  0  0  0  0  0  0  0
   25.5752   35.8908   26.8970 N   0  0  0  0  0  0  0  0  0  0  0  0
   24.7732   38.4746   27.6691 O   0  0  0  0  0  0  0  0  0  0  0  0
   26.7520   35.0728   29.4631 O   0  0  0  0  0  0  0  0  0  0  0  0
   28.5782   37.1246   29.7257 O   0  0  0  0  0  0  0  0  0  0  0  0
   26.9291   39.0541   28.2883 O   0  0  0  0  0  0  0  0  0  0  0  0
   26.8821   41.0422   30.5950 O   0  0  0  0  0  0  0  0  0  0  0  0
   27.0421   35.7010   25.2054 O   0  0  0  0  0  0  0  0  0  0  0  0
   29.5252   36.4889   30.8475 S   0  0  2  0  0  0  0  0  0  0  0  0
   30.0279   35.2595   30.3168 O   0  0  0  0  0  0  0  0  0  0  0  0
   28.6631   36.3155   31.9854 O   0  0  0  0  0  0  0  0  0  0  0  0
   30.5724   37.4608   31.0689 O   0  0  0  0  0  0  0  0  0  0  0  0
   26.3860   38.4491   26.4085 H   0  0  0  0  0  0  0  0  0  0  0  0
   27.4669   36.5401   27.4128 H   0  0  0  0  0  0  0  0  0  0  0  0
   25.2515   36.4860   29.4694 H   0  0  0  0  0  0  0  0  0  0  0  0
   26.9715   37.2033   31.1068 H   0  0  0  0  0  0  0  0  0  0  0  0
   25.7060   38.9037   30.0044 H   0  0  0  0  0  0  0  0  0  0  0  0
   27.8522   39.4195   31.4309 H   0  0  0  0  0  0  0  0  0  0  0  0
   28.5073   40.0121   29.8552 H   0  0  0  0  0  0  0  0  0  0  0  0
   24.1868   34.2390   25.6193 H   0  0  0  0  0  0  0  0  0  0  0  0
   24.3131   35.4295   24.2801 H   0  0  0  0  0  0  0  0  0  0  0  0
   25.3521   33.9642   24.2801 H   0  0  0  0  0  0  0  0  0  0  0  0
   24.6623   35.5993   27.2746 H   0  0  0  0  0  0  0  0  0  0  0  0
   24.5937   38.5082   28.6421 H   0  0  0  0  0  0  0  0  0  0  0  0
   26.7990   34.9307   30.4417 H   0  0  0  0  0  0  0  0  0  0  0  0
   26.7689   41.2368   31.5591 H   0  0  0  0  0  0  0  0  0  0  0  0
  1  2  1  0
  1 10  1  0
  1 13  1  0
  2  3  1  0
  2  9  1  0
  3  4  1  0
  3 11  1  0
  4  5  1  0
  4 12  1  0
  5  6  1  0
  5 13  1  0
  6 14  1  0
  7  8  1  0
  7  9  1  0
  7 15  2  0
 12 16  1  0
 16 17  2  0
 16 18  1  1
 16 19  2  0
  1 20  1  6
  2 21  1  6
  3 22  1  1
  4 23  1  1
  5 24  1  1
  6 25  1  0
  6 26  1  0
  8 27  1  0
  8 28  1  0
  8 29  1  0
  9 30  1  0
 10 31  1  0
 11 32  1  0
 14 33  1  0
M  CHG  1  18  -1
M  END
>  <filename_input>  (23) 
7OZ9_NGK_docked.sdf

>  <pdb_id>  (23) 
7OZ9_NGK

>  <pose_rank>  (23) 
22

>  <num_atoms_heavy>  (23) 
19

>  <num_torsions>  (23) 
4

>  <pose>  (23) 
[26.1325140344257, 38.219797807734025, 27.454051814728533, -4.172948878508733, -2.018798816031175, -0.9183942372914331, -0.6106702515822129, 0.20833169747901656, 0.03743815244293044, 3.153315793517437]

>  <energy>  (23) 
-108.21772832842535

>  <inter_energy>  (23) 
-118.79483427611044

>  <intra_energy>  (23) 
2.9134043276097086

>  <rmsd>  (23) 
9.24567

>  <sdf_rank>  (23) 
0

$$$$

     RDKit          3D

 33 33  0  0  0  0  0  0  0  0999 V2000
   29.0511   40.1227   26.5305 C   0  0  1  0  0  0  0  0  0  0  0  0
   27.5951   39.9535   26.9802 C   0  0  1  0  0  0  0  0  0  0  0  0
   27.4960   39.8110   28.4997 C   0  0  2  0  0  0  0  0  0  0  0  0
   28.4454   38.7248   28.9996 C   0  0  2  0  0  0  0  0  0  0  0  0
   29.8576   39.0091   28.5001 C   0  0  1  0  0  0  0  0  0  0  0  0
   30.8415   37.9344   28.8966 C   0  0  0  0  0  0  0  0  0  0  0  0
   26.6815   42.2195   27.1040 C   0  0  0  0  0  0  0  0  0  0  0  0
   25.6745   43.1773   26.5413 C   0  0  0  0  0  0  0  0  0  0  0  0
   26.7693   41.0374   26.4842 N   0  0  0  0  0  0  0  0  0  0  0  0
   29.5259   41.3761   26.9334 O   0  0  0  0  0  0  0  0  0  0  0  0
   26.1754   39.4817   28.9061 O   0  0  0  0  0  0  0  0  0  0  0  0
   27.9617   37.4197   28.4922 O   0  0  0  0  0  0  0  0  0  0  0  0
   29.8760   39.0894   27.0583 O   0  0  0  0  0  0  0  0  0  0  0  0
   31.0325   37.9184   30.3100 O   0  0  0  0  0  0  0  0  0  0  0  0
   27.3748   42.4960   28.0828 O   0  0  0  0  0  0  0  0  0  0  0  0
   27.6217   36.2521   29.5316 S   0  0  2  0  0  0  0  0  0  0  0  0
   27.9808   36.7353   30.8291 O   0  0  0  0  0  0  0  0  0  0  0  0
   28.4184   35.1390   29.0905 O   0  0  0  0  0  0  0  0  0  0  0  0
   26.2002   36.0207   29.4055 O   0  0  0  0  0  0  0  0  0  0  0  0
   29.0867   40.0542   25.4332 H   0  0  0  0  0  0  0  0  0  0  0  0
   27.2103   39.0204   26.5430 H   0  0  0  0  0  0  0  0  0  0  0  0
   27.7739   40.7826   28.9340 H   0  0  0  0  0  0  0  0  0  0  0  0
   28.4697   38.7060   30.0992 H   0  0  0  0  0  0  0  0  0  0  0  0
   30.1539   39.9624   28.9619 H   0  0  0  0  0  0  0  0  0  0  0  0
   30.4563   36.9560   28.5737 H   0  0  0  0  0  0  0  0  0  0  0  0
   31.8069   38.1447   28.4130 H   0  0  0  0  0  0  0  0  0  0  0  0
   25.1463   43.6798   27.3650 H   0  0  0  0  0  0  0  0  0  0  0  0
   26.1883   43.9282   25.9231 H   0  0  0  0  0  0  0  0  0  0  0  0
   24.9502   42.6267   25.9231 H   0  0  0  0  0  0  0  0  0  0  0  0
   26.2286   40.8911   25.6198 H   0  0  0  0  0  0  0  0  0  0  0  0
   29.5427   41.4203   27.9223 H   0  0  0  0  0  0  0  0  0  0  0  0
   26.1277   39.4698   29.8949 H   0  0  0  0  0  0  0  0  0  0  0  0
   30.1550   37.9920   30.7624 H   0  0  0  0  0  0  0  0  0  0  0  0
  1  2  1  0
  1 10  1  0
  1 13  1  0
  2  3  1  0
  2  9  1  0
  3  4  1  0
  3 11  1  0
  4  5  1  0
  4 12  1  0
  5  6  1  0
  5 13  1  0
  6 14  1  0
  7  8  1  0
  7  9  1  0
  7 15  2  0
 12 16  1  0
 16 17  2  0
 16 18  1  6
 16 19  2  0
  1 20  1  6
  2 21  1  6
  3 22  1  1
  4 23  1  1
  5 24  1  1
  6 25  1  0
  6 26  1  0
  8 27  1  0
  8 28  1  0
  8 29  1  0
  9 30  1  0
 10 31  1  0
 11 32  1  0
 14 33  1  0
M  CHG  1  18  -1
M  END
>  <filename_input>  (24) 
7OZ9_NGK_docked.sdf

>  <pdb_id>  (24) 
7OZ9_NGK

>  <pose_rank>  (24) 
23

>  <num_atoms_heavy>  (24) 
19

>  <num_torsions>  (24) 
4

>  <pose>  (24) 
[29.051071470892644, 40.12266580538525, 26.530513868138364, -3.260651855447332, 0.8995536213030175, 2.568362909046818, 2.6403991962133246, 1.7317438758710437, -0.15786904702472895, 0.9875683838336764]

>  <energy>  (24) 
-89.56519234194363

>  <inter_energy>  (24) 
-145.55590992827334

>  <intra_energy>  (24) 
57.68304296131237

>  <rmsd>  (24) 
9.12814

>  <sdf_rank>  (24) 
0

$$$$

     RDKit          3D

 33 33  0  0  0  0  0  0  0  0999 V2000
   36.8282   34.1428   28.4535 C   0  0  1  0  0  0  0  0  0  0  0  0
   35.8407   32.9807   28.2956 C   0  0  1  0  0  0  0  0  0  0  0  0
   34.4033   33.4868   28.1664 C   0  0  2  0  0  0  0  0  0  0  0  0
   34.0708   34.4531   29.3008 C   0  0  2  0  0  0  0  0  0  0  0  0
   35.1121   35.5659   29.3475 C   0  0  1  0  0  0  0  0  0  0  0  0
   34.8882   36.5233   30.4936 C   0  0  0  0  0  0  0  0  0  0  0  0
   35.7687   32.3281   25.9390 C   0  0  0  0  0  0  0  0  0  0  0  0
   36.1350   31.2737   24.9380 C   0  0  0  0  0  0  0  0  0  0  0  0
   36.2154   32.1284   27.1839 N   0  0  0  0  0  0  0  0  0  0  0  0
   36.9172   34.8520   27.2502 O   0  0  0  0  0  0  0  0  0  0  0  0
   33.4704   32.4161   28.1943 O   0  0  0  0  0  0  0  0  0  0  0  0
   34.0613   33.6892   30.5700 O   0  0  0  0  0  0  0  0  0  0  0  0
   36.4356   35.0117   29.5106 O   0  0  0  0  0  0  0  0  0  0  0  0
   33.6766   37.2542   30.3144 O   0  0  0  0  0  0  0  0  0  0  0  0
   35.0883   33.3092   25.6396 O   0  0  0  0  0  0  0  0  0  0  0  0
   32.7390   33.6822   31.4705 S   0  0  2  0  0  0  0  0  0  0  0  0
   32.9214   34.6772   32.4816 O   0  0  0  0  0  0  0  0  0  0  0  0
   32.6668   32.3421   31.9873 O   0  0  0  0  0  0  0  0  0  0  0  0
   31.6542   34.0052   30.5710 O   0  0  0  0  0  0  0  0  0  0  0  0
   37.8152   33.7288   28.7072 H   0  0  0  0  0  0  0  0  0  0  0  0
   35.8863   32.3691   29.2088 H   0  0  0  0  0  0  0  0  0  0  0  0
   34.3286   34.0034   27.1981 H   0  0  0  0  0  0  0  0  0  0  0  0
   33.0851   34.9147   29.1416 H   0  0  0  0  0  0  0  0  0  0  0  0
   35.0155   36.1086   28.3956 H   0  0  0  0  0  0  0  0  0  0  0  0
   34.8302   35.9539   31.4330 H   0  0  0  0  0  0  0  0  0  0  0  0
   35.7269   37.2343   30.5277 H   0  0  0  0  0  0  0  0  0  0  0  0
   36.4518   30.3618   25.4652 H   0  0  0  0  0  0  0  0  0  0  0  0
   35.2626   31.0481   24.3071 H   0  0  0  0  0  0  0  0  0  0  0  0
   36.9594   31.6376   24.3071 H   0  0  0  0  0  0  0  0  0  0  0  0
   36.8511   31.3373   27.3600 H   0  0  0  0  0  0  0  0  0  0  0  0
   37.0382   35.8155   27.4432 H   0  0  0  0  0  0  0  0  0  0  0  0
   33.2657   32.1811   29.1340 H   0  0  0  0  0  0  0  0  0  0  0  0
   33.2959   37.4839   31.1989 H   0  0  0  0  0  0  0  0  0  0  0  0
  1  2  1  0
  1 10  1  0
  1 13  1  0
  2  3  1  0
  2  9  1  0
  3  4  1  0
  3 11  1  0
  4  5  1  0
  4 12  1  0
  5  6  1  0
  5 13  1  0
  6 14  1  0
  7  8  1  0
  7  9  1  0
  7 15  2  0
 12 16  1  0
 16 17  2  0
 16 18  1  1
 16 19  2  0
  1 20  1  1
  2 21  1  1
  3 22  1  6
  4 23  1  6
  5 24  1  6
  6 25  1  0
  6 26  1  0
  8 27  1  0
  8 28  1  0
  8 29  1  0
  9 30  1  0
 10 31  1  0
 11 32  1  0
 14 33  1  0
M  CHG  1  18  -1
M  END
>  <filename_input>  (25) 
7OZ9_NGK_docked.sdf

>  <pdb_id>  (25) 
7OZ9_NGK

>  <pose_rank>  (25) 
24

>  <num_atoms_heavy>  (25) 
19

>  <num_torsions>  (25) 
4

>  <pose>  (25) 
[36.82819584211955, 34.14278406905173, 28.453471995906753, -2.673050584150109, 3.4860871708063104, -2.127885558833153, -3.7663994025623286, 1.7409004362646894, -0.1514954780206883, -0.6319432301145006]

>  <energy>  (25) 
-86.69912611160045

>  <inter_energy>  (25) 
-142.2912779617269

>  <intra_energy>  (25) 
55.78603528131681

>  <rmsd>  (25) 
7.26908

>  <sdf_rank>  (25) 
0

$$$$

     RDKit          3D

 33 33  0  0  0  0  0  0  0  0999 V2000
   34.9570   37.7610   30.5770 C   0  0  1  0  0  0  0  0  0  0  0  0
   34.2810   37.7740   31.9530 C   0  0  1  0  0  0  0  0  0  0  0  0
   33.6170   39.1230   32.2330 C   0  0  2  0  0  0  0  0  0  0  0  0
   34.6030   40.2650   31.9990 C   0  0  2  0  0  0  0  0  0  0  0  0
   35.1960   40.1510   30.5990 C   0  0  1  0  0  0  0  0  0  0  0  0
   36.2370   41.2090   30.3210 C   0  0  0  0  0  0  0  0  0  0  0  0
   33.4020   35.7920   33.0860 C   0  0  0  0  0  0  0  0  0  0  0  0
   32.4530   34.6350   32.9920 C   0  0  0  0  0  0  0  0  0  0  0  0
   33.3450   36.6740   32.0820 N   0  0  0  0  0  0  0  0  0  0  0  0
   33.9820   37.7760   29.5730 O   0  0  0  0  0  0  0  0  0  0  0  0
   33.1410   39.2010   33.5690 O   0  0  0  0  0  0  0  0  0  0  0  0
   35.6650   40.1760   33.0280 O   0  0  0  0  0  0  0  0  0  0  0  0
   35.8380   38.8690   30.4260 O   0  0  0  0  0  0  0  0  0  0  0  0
   36.5310   41.2770   28.9270 O   0  0  0  0  0  0  0  0  0  0  0  0
   34.1940   35.9170   34.0200 O   0  0  0  0  0  0  0  0  0  0  0  0
   35.7890   41.3310   34.1280 S   0  0  2  0  0  0  0  0  0  0  0  0
   36.0490   42.5480   33.4230 O   0  0  0  0  0  0  0  0  0  0  0  0
   36.8770   40.9080   34.9680 O   0  0  0  0  0  0  0  0  0  0  0  0
   34.5160   41.3540   34.8130 O   0  0  0  0  0  0  0  0  0  0  0  0
   35.5549   36.8417   30.4916 H   0  0  0  0  0  0  0  0  0  0  0  0
   35.0605   37.6337   32.7163 H   0  0  0  0  0  0  0  0  0  0  0  0
   32.7656   39.2135   31.5424 H   0  0  0  0  0  0  0  0  0  0  0  0
   34.0959   41.2381   32.0766 H   0  0  0  0  0  0  0  0  0  0  0  0
   34.3530   40.2781   29.9039 H   0  0  0  0  0  0  0  0  0  0  0  0
   35.8577   42.1852   30.6575 H   0  0  0  0  0  0  0  0  0  0  0  0
   37.1580   40.9482   30.8630 H   0  0  0  0  0  0  0  0  0  0  0  0
   32.1797   34.3018   34.0041 H   0  0  0  0  0  0  0  0  0  0  0  0
   31.5471   34.9468   32.4515 H   0  0  0  0  0  0  0  0  0  0  0  0
   32.9360   33.8076   32.4515 H   0  0  0  0  0  0  0  0  0  0  0  0
   32.6065   36.5675   31.3719 H   0  0  0  0  0  0  0  0  0  0  0  0
   33.0826   37.7898   29.9866 H   0  0  0  0  0  0  0  0  0  0  0  0
   33.8968   39.0772   34.1964 H   0  0  0  0  0  0  0  0  0  0  0  0
   37.4878   41.4983   28.8020 H   0  0  0  0  0  0  0  0  0  0  0  0
  1  2  1  0
  1 10  1  0
  1 13  1  0
  2  3  1  0
  2  9  1  0
  3  4  1  0
  3 11  1  0
  4  5  1  0
  4 12  1  0
  5  6  1  0
  5 13  1  0
  6 14  1  0
  7  8  1  0
  7  9  1  0
  7 15  2  0
 12 16  1  0
 16 17  2  0
 16 18  1  1
 16 19  2  0
  1 20  1  1
  2 21  1  1
  3 22  1  6
  4 23  1  6
  5 24  1  6
  6 25  1  0
  6 26  1  0
  8 27  1  0
  8 28  1  0
  8 29  1  0
  9 30  1  0
 10 31  1  0
 11 32  1  0
 14 33  1  0
M  CHG  1  18  -1
M  END
>  <filename_input>  (26) 
7OZ9_NGK_docked.sdf

>  <pdb_id>  (26) 
7OZ9_NGK

>  <pose_rank>  (26) 
25

>  <num_atoms_heavy>  (26) 
19

>  <num_torsions>  (26) 
4

>  <pose>  (26) 
[34.957, 37.761, 30.577, 1e-06, 1e-06, 1e-06, 0.0, 0.0, 0.0, 0.0]

>  <energy>  (26) 
-591.9562170188817

>  <inter_energy>  (26) 
-608.6012968258568

>  <intra_energy>  (26) 
13.661210096222392

>  <rmsd>  (26) 
0.0

>  <sdf_rank>  (26) 
0

$$$$
