
     RDKit          3D

 27 27  0  0  0  0  0  0  0  0999 V2000
   18.4827   -1.1808   19.3966 C   0  0  2  0  0  0  0  0  0  0  0  0
   18.4896   -2.7149   19.6138 C   0  0  1  0  0  0  0  0  0  0  0  0
   17.1895   -3.3405   19.0701 C   0  0  2  0  0  0  0  0  0  0  0  0
   15.9298   -2.6588   19.6391 C   0  0  2  0  0  0  0  0  0  0  0  0
   16.0861   -1.1441   19.3512 C   0  0  1  0  0  0  0  0  0  0  0  0
   14.9031   -0.3452   19.8426 C   0  0  0  0  0  0  0  0  0  0  0  0
   19.5701   -0.6074   20.1012 O   0  0  0  0  0  0  0  0  0  0  0  0
   19.6201   -3.2811   18.9802 O   0  0  0  0  0  0  0  0  0  0  0  0
   15.6596   -2.8832   21.0630 O   0  0  0  0  0  0  0  0  0  0  0  0
   17.2655   -0.6043   19.9011 O   0  0  0  0  0  0  0  0  0  0  0  0
   13.8190   -0.3616   18.8951 O   0  0  0  0  0  0  0  0  0  0  0  0
   12.3640   -0.1261   19.4309 S   0  0  1  0  0  0  0  0  0  0  0  0
   12.4216   -0.4325   20.8737 O   0  0  0  0  0  0  0  0  0  0  0  0
   12.1918    1.2965   19.1672 O   0  0  0  0  0  0  0  0  0  0  0  0
   11.4174   -1.0022   18.6949 O   0  0  0  0  0  0  0  0  0  0  0  0
   17.1422   -4.7519   19.3411 O   0  0  0  0  0  0  0  0  0  0  0  0
   18.5639   -0.9793   18.3182 H   0  0  0  0  0  0  0  0  0  0  0  0
   18.5450   -2.9258   20.6919 H   0  0  0  0  0  0  0  0  0  0  0  0
   17.1978   -3.1809   17.9818 H   0  0  0  0  0  0  0  0  0  0  0  0
   15.0581   -3.1126   19.1450 H   0  0  0  0  0  0  0  0  0  0  0  0
   16.1435   -1.0650   18.2555 H   0  0  0  0  0  0  0  0  0  0  0  0
   14.5527   -0.7747   20.7927 H   0  0  0  0  0  0  0  0  0  0  0  0
   15.2255    0.6979   19.9769 H   0  0  0  0  0  0  0  0  0  0  0  0
   19.4128   -0.6903   21.0751 H   0  0  0  0  0  0  0  0  0  0  0  0
   20.2578   -3.6005   19.6668 H   0  0  0  0  0  0  0  0  0  0  0  0
   16.2960   -2.3547   21.6070 H   0  0  0  0  0  0  0  0  0  0  0  0
   17.1372   -4.9000   20.3199 H   0  0  0  0  0  0  0  0  0  0  0  0
  1  2  1  0
  1  7  1  0
  1 10  1  0
  2  3  1  0
  2  8  1  0
  3  4  1  0
  3 16  1  0
  4  5  1  0
  4  9  1  0
  5  6  1  0
  5 10  1  0
  6 11  1  0
 11 12  1  0
 12 13  2  0
 12 14  2  0
 12 15  1  6
  1 17  1  6
  2 18  1  1
  3 19  1  6
  4 20  1  6
  5 21  1  6
  6 22  1  0
  6 23  1  0
  7 24  1  0
  8 25  1  0
  9 26  1  0
 16 27  1  0
M  CHG  1  15  -1
M  END
>  <filename_input>  (1) 
7OZC_G6S_docked.sdf

>  <pdb_id>  (1) 
7OZC_G6S

>  <pose_rank>  (1) 
0

>  <num_atoms_heavy>  (1) 
16

>  <num_torsions>  (1) 
3

>  <pose>  (1) 
[18.482678285288237, -1.180778648709686, 19.39655450263247, 3.313220446927737, -2.1695649337174854, 4.715544992535653, -0.2823537769872558, -0.6562669132474184, -1.520635589172257]

>  <energy>  (1) 
-744.0214847997426

>  <inter_energy>  (1) 
-740.950500813736

>  <intra_energy>  (1) 
0.0

>  <rmsd>  (1) 
0.55704

>  <sdf_rank>  (1) 
0

$$$$

     RDKit          3D

 27 27  0  0  0  0  0  0  0  0999 V2000
   16.9745   -2.9533   20.2156 C   0  0  2  0  0  0  0  0  0  0  0  0
   18.3574   -2.2603   20.3053 C   0  0  1  0  0  0  0  0  0  0  0  0
   18.1925   -0.7828   20.7141 C   0  0  2  0  0  0  0  0  0  0  0  0
   17.2018   -0.0311   19.8040 C   0  0  2  0  0  0  0  0  0  0  0  0
   15.8885   -0.8538   19.8158 C   0  0  1  0  0  0  0  0  0  0  0  0
   14.8100   -0.2187   18.9716 C   0  0  0  0  0  0  0  0  0  0  0  0
   17.1330   -4.2307   19.6231 O   0  0  0  0  0  0  0  0  0  0  0  0
   19.1757   -2.9473   21.2318 O   0  0  0  0  0  0  0  0  0  0  0  0
   17.6426    0.2082   18.4257 O   0  0  0  0  0  0  0  0  0  0  0  0
   16.0765   -2.1853   19.3956 O   0  0  0  0  0  0  0  0  0  0  0  0
   13.5775   -0.9603   19.0362 O   0  0  0  0  0  0  0  0  0  0  0  0
   12.3018   -0.2297   19.5823 S   0  0  1  0  0  0  0  0  0  0  0  0
   12.4761    1.1905   19.2196 O   0  0  0  0  0  0  0  0  0  0  0  0
   11.2508   -0.8797   18.8103 O   0  0  0  0  0  0  0  0  0  0  0  0
   12.2005   -0.4397   21.0489 O   0  0  0  0  0  0  0  0  0  0  0  0
   19.4598   -0.1031   20.7183 O   0  0  0  0  0  0  0  0  0  0  0  0
   16.5598   -3.0404   21.2307 H   0  0  0  0  0  0  0  0  0  0  0  0
   18.8396   -2.2893   19.3171 H   0  0  0  0  0  0  0  0  0  0  0  0
   17.7797   -0.7854   21.7337 H   0  0  0  0  0  0  0  0  0  0  0  0
   17.0878    0.9850   20.2096 H   0  0  0  0  0  0  0  0  0  0  0  0
   15.5646   -0.8616   20.8670 H   0  0  0  0  0  0  0  0  0  0  0  0
   14.6300    0.8043   19.3336 H   0  0  0  0  0  0  0  0  0  0  0  0
   15.1521   -0.2122   17.9261 H   0  0  0  0  0  0  0  0  0  0  0  0
   17.2180   -4.9155   20.3329 H   0  0  0  0  0  0  0  0  0  0  0  0
   18.8983   -2.7144   22.1532 H   0  0  0  0  0  0  0  0  0  0  0  0
   18.5125    0.6806   18.4348 H   0  0  0  0  0  0  0  0  0  0  0  0
   19.7481    0.0515   21.6527 H   0  0  0  0  0  0  0  0  0  0  0  0
  1  2  1  0
  1  7  1  0
  1 10  1  0
  2  3  1  0
  2  8  1  0
  3  4  1  0
  3 16  1  0
  4  5  1  0
  4  9  1  0
  5  6  1  0
  5 10  1  0
  6 11  1  0
 11 12  1  0
 12 13  2  0
 12 14  2  0
 12 15  1  1
  1 17  1  1
  2 18  1  6
  3 19  1  1
  4 20  1  1
  5 21  1  1
  6 22  1  0
  6 23  1  0
  7 24  1  0
  8 25  1  0
  9 26  1  0
 16 27  1  0
M  CHG  1  15  -1
M  END
>  <filename_input>  (2) 
7OZC_G6S_docked.sdf

>  <pdb_id>  (2) 
7OZC_G6S

>  <pose_rank>  (2) 
1

>  <num_atoms_heavy>  (2) 
16

>  <num_torsions>  (2) 
3

>  <pose>  (2) 
[16.974466178357293, -2.9533167566497007, 20.21558802413789, 2.7083315326037245, -1.4953194108718117, 0.412616556425186, -1.9312889132131366, -1.271716194262833, -0.6340593847407074]

>  <energy>  (2) 
-589.1806542010313

>  <inter_energy>  (2) 
-576.5163654810209

>  <intra_energy>  (2) 
0.0

>  <rmsd>  (2) 
2.61636

>  <sdf_rank>  (2) 
0

$$$$

     RDKit          3D

 27 27  0  0  0  0  0  0  0  0999 V2000
   14.2566    0.5564   18.5259 C   0  0  2  0  0  0  0  0  0  0  0  0
   13.0205   -0.1891   19.0889 C   0  0  1  0  0  0  0  0  0  0  0  0
   13.1706   -0.4080   20.6077 C   0  0  2  0  0  0  0  0  0  0  0  0
   14.5024   -1.0930   20.9712 C   0  0  2  0  0  0  0  0  0  0  0  0
   15.6229   -0.2361   20.3293 C   0  0  1  0  0  0  0  0  0  0  0  0
   16.9987   -0.7845   20.6219 C   0  0  0  0  0  0  0  0  0  0  0  0
   14.2018    0.5425   17.1101 O   0  0  0  0  0  0  0  0  0  0  0  0
   11.8480    0.5482   18.8033 O   0  0  0  0  0  0  0  0  0  0  0  0
   14.6390   -2.4969   20.5694 O   0  0  0  0  0  0  0  0  0  0  0  0
   15.4707   -0.0967   18.9357 O   0  0  0  0  0  0  0  0  0  0  0  0
   17.4239   -1.7209   19.6141 O   0  0  0  0  0  0  0  0  0  0  0  0
   18.0326   -3.0879   20.0836 S   0  0  1  0  0  0  0  0  0  0  0  0
   19.1872   -3.3300   19.1965 O   0  0  0  0  0  0  0  0  0  0  0  0
   18.4322   -2.7666   21.4475 O   0  0  0  0  0  0  0  0  0  0  0  0
   16.9995   -4.1501   19.9846 O   0  0  0  0  0  0  0  0  0  0  0  0
   12.0719   -1.1741   21.1308 O   0  0  0  0  0  0  0  0  0  0  0  0
   14.2481    1.5876   18.9089 H   0  0  0  0  0  0  0  0  0  0  0  0
   12.9447   -1.1754   18.6078 H   0  0  0  0  0  0  0  0  0  0  0  0
   13.1674    0.5908   21.0686 H   0  0  0  0  0  0  0  0  0  0  0  0
   14.5595   -1.1407   22.0686 H   0  0  0  0  0  0  0  0  0  0  0  0
   15.5253    0.7568   20.7925 H   0  0  0  0  0  0  0  0  0  0  0  0
   17.7147    0.0498   20.6583 H   0  0  0  0  0  0  0  0  0  0  0  0
   16.9596   -1.3125   21.5861 H   0  0  0  0  0  0  0  0  0  0  0  0
   13.2850    0.3102   16.8175 H   0  0  0  0  0  0  0  0  0  0  0  0
   11.4148    0.8206   19.6509 H   0  0  0  0  0  0  0  0  0  0  0  0
   14.6945   -3.0673   21.3767 H   0  0  0  0  0  0  0  0  0  0  0  0
   12.0982   -1.1557   22.1203 H   0  0  0  0  0  0  0  0  0  0  0  0
  1  2  1  0
  1  7  1  0
  1 10  1  0
  2  3  1  0
  2  8  1  0
  3  4  1  0
  3 16  1  0
  4  5  1  0
  4  9  1  0
  5  6  1  0
  5 10  1  0
  6 11  1  0
 11 12  1  0
 12 13  2  0
 12 14  2  0
 12 15  1  1
  1 17  1  1
  2 18  1  6
  3 19  1  1
  4 20  1  1
  5 21  1  1
  6 22  1  0
  6 23  1  0
  7 24  1  0
  8 25  1  0
  9 26  1  0
 16 27  1  0
M  CHG  1  15  -1
M  END
>  <filename_input>  (3) 
7OZC_G6S_docked.sdf

>  <pdb_id>  (3) 
7OZC_G6S

>  <pose_rank>  (3) 
2

>  <num_atoms_heavy>  (3) 
16

>  <num_torsions>  (3) 
3

>  <pose>  (3) 
[14.256571619431222, 0.5564143531864388, 18.52590669760677, -1.2806153052991673, -3.078620378848649, 1.498782964678265, 15.308762082733857, 0.6062092667656555, 2.7095986933484233]

>  <energy>  (3) 
-553.0315248150238

>  <inter_energy>  (3) 
-550.6651045905824

>  <intra_energy>  (3) 
11.587972699265109

>  <rmsd>  (3) 
5.48884

>  <sdf_rank>  (3) 
0

$$$$

     RDKit          3D

 27 27  0  0  0  0  0  0  0  0999 V2000
   13.2108   -0.9470   20.3925 C   0  0  2  0  0  0  0  0  0  0  0  0
   13.4236    0.3941   19.6463 C   0  0  1  0  0  0  0  0  0  0  0  0
   14.6066    0.2806   18.6640 C   0  0  2  0  0  0  0  0  0  0  0  0
   15.8873   -0.2362   19.3478 C   0  0  2  0  0  0  0  0  0  0  0  0
   15.5019   -1.5634   20.0491 C   0  0  1  0  0  0  0  0  0  0  0  0
   16.6769   -2.1988   20.7526 C   0  0  0  0  0  0  0  0  0  0  0  0
   12.2783   -0.7516   21.4413 O   0  0  0  0  0  0  0  0  0  0  0  0
   12.2386    0.7528   18.9628 O   0  0  0  0  0  0  0  0  0  0  0  0
   16.5268    0.6780   20.2999 O   0  0  0  0  0  0  0  0  0  0  0  0
   14.4460   -1.4066   20.9685 O   0  0  0  0  0  0  0  0  0  0  0  0
   17.5190   -2.9219   19.8353 O   0  0  0  0  0  0  0  0  0  0  0  0
   19.0530   -2.5956   19.8245 S   0  0  1  0  0  0  0  0  0  0  0  0
   19.4297   -2.4283   21.2419 O   0  0  0  0  0  0  0  0  0  0  0  0
   19.5977   -3.8144   19.2406 O   0  0  0  0  0  0  0  0  0  0  0  0
   19.2934   -1.3721   19.0179 O   0  0  0  0  0  0  0  0  0  0  0  0
   14.8718    1.5418   18.0261 O   0  0  0  0  0  0  0  0  0  0  0  0
   12.8419   -1.6933   19.6734 H   0  0  0  0  0  0  0  0  0  0  0  0
   13.6620    1.1798   20.3783 H   0  0  0  0  0  0  0  0  0  0  0  0
   14.3099   -0.4551   17.9019 H   0  0  0  0  0  0  0  0  0  0  0  0
   16.6519   -0.3578   18.5664 H   0  0  0  0  0  0  0  0  0  0  0  0
   15.1648   -2.2278   19.2399 H   0  0  0  0  0  0  0  0  0  0  0  0
   17.2717   -1.4102   21.2367 H   0  0  0  0  0  0  0  0  0  0  0  0
   16.2879   -2.9109   21.4953 H   0  0  0  0  0  0  0  0  0  0  0  0
   12.7373   -0.8478   22.3132 H   0  0  0  0  0  0  0  0  0  0  0  0
   11.5304    0.9671   19.6204 H   0  0  0  0  0  0  0  0  0  0  0  0
   16.3234    0.3872   21.2241 H   0  0  0  0  0  0  0  0  0  0  0  0
   15.0178    2.2364   18.7163 H   0  0  0  0  0  0  0  0  0  0  0  0
  1  2  1  0
  1  7  1  0
  1 10  1  0
  2  3  1  0
  2  8  1  0
  3  4  1  0
  3 16  1  0
  4  5  1  0
  4  9  1  0
  5  6  1  0
  5 10  1  0
  6 11  1  0
 11 12  1  0
 12 13  2  0
 12 14  2  0
 12 15  1  6
  1 17  1  6
  2 18  1  1
  3 19  1  6
  4 20  1  6
  5 21  1  6
  6 22  1  0
  6 23  1  0
  7 24  1  0
  8 25  1  0
  9 26  1  0
 16 27  1  0
M  CHG  1  15  -1
M  END
>  <filename_input>  (4) 
7OZC_G6S_docked.sdf

>  <pdb_id>  (4) 
7OZC_G6S

>  <pose_rank>  (4) 
3

>  <num_atoms_heavy>  (4) 
16

>  <num_torsions>  (4) 
3

>  <pose>  (4) 
[13.210787270261266, -0.9470109849316317, 20.392503141700193, -0.220008260811111, -0.9718950005540836, -3.2583035647162233, -0.2366705755921573, -1.1425166389965902, -0.4546452150023276]

>  <energy>  (4) 
-496.4883314909989

>  <inter_energy>  (4) 
-489.86949801736057

>  <intra_energy>  (4) 
0.0

>  <rmsd>  (4) 
5.90886

>  <sdf_rank>  (4) 
0

$$$$

     RDKit          3D

 27 27  0  0  0  0  0  0  0  0999 V2000
   14.0541    0.3191   18.9419 C   0  0  2  0  0  0  0  0  0  0  0  0
   13.0288   -0.6433   19.5925 C   0  0  1  0  0  0  0  0  0  0  0  0
   13.6981   -1.4640   20.7131 C   0  0  2  0  0  0  0  0  0  0  0  0
   14.9735   -2.1818   20.2305 C   0  0  2  0  0  0  0  0  0  0  0  0
   15.8772   -1.0904   19.6029 C   0  0  1  0  0  0  0  0  0  0  0  0
   17.1843   -1.6529   19.0985 C   0  0  0  0  0  0  0  0  0  0  0  0
   13.4816    0.8894   17.7780 O   0  0  0  0  0  0  0  0  0  0  0  0
   11.9353    0.0966   20.0992 O   0  0  0  0  0  0  0  0  0  0  0  0
   14.7765   -3.2871   19.2868 O   0  0  0  0  0  0  0  0  0  0  0  0
   15.2422   -0.3938   18.5559 O   0  0  0  0  0  0  0  0  0  0  0  0
   18.2061   -1.6162   20.1123 O   0  0  0  0  0  0  0  0  0  0  0  0
   18.6921   -0.2154   20.6231 S   0  0  1  0  0  0  0  0  0  0  0  0
   18.6826    0.6615   19.4358 O   0  0  0  0  0  0  0  0  0  0  0  0
   17.6406    0.1195   21.5747 O   0  0  0  0  0  0  0  0  0  0  0  0
   20.0419   -0.3495   21.2275 O   0  0  0  0  0  0  0  0  0  0  0  0
   12.7821   -2.4228   21.2693 O   0  0  0  0  0  0  0  0  0  0  0  0
   14.3158    1.0983   19.6728 H   0  0  0  0  0  0  0  0  0  0  0  0
   12.6591   -1.3447   18.8300 H   0  0  0  0  0  0  0  0  0  0  0  0
   13.9892   -0.7462   21.4941 H   0  0  0  0  0  0  0  0  0  0  0  0
   15.4235   -2.6765   21.1039 H   0  0  0  0  0  0  0  0  0  0  0  0
   16.0815   -0.3828   20.4199 H   0  0  0  0  0  0  0  0  0  0  0  0
   17.0272   -2.6964   18.7881 H   0  0  0  0  0  0  0  0  0  0  0  0
   17.5191   -1.0359   18.2515 H   0  0  0  0  0  0  0  0  0  0  0  0
   12.8051    1.5633   18.0393 H   0  0  0  0  0  0  0  0  0  0  0  0
   11.9572    0.0818   21.0889 H   0  0  0  0  0  0  0  0  0  0  0  0
   14.6268   -4.1271   19.7889 H   0  0  0  0  0  0  0  0  0  0  0  0
   12.8212   -2.3818   22.2577 H   0  0  0  0  0  0  0  0  0  0  0  0
  1  2  1  0
  1  7  1  0
  1 10  1  0
  2  3  1  0
  2  8  1  0
  3  4  1  0
  3 16  1  0
  4  5  1  0
  4  9  1  0
  5  6  1  0
  5 10  1  0
  6 11  1  0
 11 12  1  0
 12 13  2  0
 12 14  2  0
 12 15  1  1
  1 17  1  1
  2 18  1  6
  3 19  1  1
  4 20  1  1
  5 21  1  1
  6 22  1  0
  6 23  1  0
  7 24  1  0
  8 25  1  0
  9 26  1  0
 16 27  1  0
M  CHG  1  15  -1
M  END
>  <filename_input>  (5) 
7OZC_G6S_docked.sdf

>  <pdb_id>  (5) 
7OZC_G6S

>  <pose_rank>  (5) 
4

>  <num_atoms_heavy>  (5) 
16

>  <num_torsions>  (5) 
3

>  <pose>  (5) 
[14.05413452968824, 0.31905008642291893, 18.941872729308642, 0.9962865592551726, 2.8414621389325188, -0.8763898048782346, -0.41213750095032153, 1.7872275756688276, -1.8031281092195168]

>  <energy>  (5) 
-457.41903283627227

>  <inter_energy>  (5) 
-477.6654268436522

>  <intra_energy>  (5) 
16.825264763424343

>  <rmsd>  (5) 
5.38809

>  <sdf_rank>  (5) 
0

$$$$

     RDKit          3D

 27 27  0  0  0  0  0  0  0  0999 V2000
   13.3515    0.3113   18.8161 C   0  0  2  0  0  0  0  0  0  0  0  0
   12.8685    0.4518   20.2816 C   0  0  1  0  0  0  0  0  0  0  0  0
   14.0034    0.0854   21.2589 C   0  0  2  0  0  0  0  0  0  0  0  0
   14.6116   -1.2980   20.9569 C   0  0  2  0  0  0  0  0  0  0  0  0
   15.0284   -1.2746   19.4644 C   0  0  1  0  0  0  0  0  0  0  0  0
   15.6633   -2.5733   19.0292 C   0  0  0  0  0  0  0  0  0  0  0  0
   12.2384    0.4294   17.9473 O   0  0  0  0  0  0  0  0  0  0  0  0
   12.4182    1.7727   20.5107 O   0  0  0  0  0  0  0  0  0  0  0  0
   13.7538   -2.4559   21.2299 O   0  0  0  0  0  0  0  0  0  0  0  0
   13.9533   -0.9776   18.6036 O   0  0  0  0  0  0  0  0  0  0  0  0
   17.0283   -2.3847   18.6113 O   0  0  0  0  0  0  0  0  0  0  0  0
   18.1618   -2.5719   19.6790 S   0  0  1  0  0  0  0  0  0  0  0  0
   17.5582   -3.3808   20.7561 O   0  0  0  0  0  0  0  0  0  0  0  0
   19.1542   -3.3129   18.9115 O   0  0  0  0  0  0  0  0  0  0  0  0
   18.6234   -1.2412   20.1497 O   0  0  0  0  0  0  0  0  0  0  0  0
   13.5460    0.1278   22.6216 O   0  0  0  0  0  0  0  0  0  0  0  0
   14.0922    1.0991   18.6143 H   0  0  0  0  0  0  0  0  0  0  0  0
   12.0327   -0.2423   20.4536 H   0  0  0  0  0  0  0  0  0  0  0  0
   14.7919    0.8394   21.1181 H   0  0  0  0  0  0  0  0  0  0  0  0
   15.4557   -1.4444   21.6468 H   0  0  0  0  0  0  0  0  0  0  0  0
   15.7713   -0.4671   19.3869 H   0  0  0  0  0  0  0  0  0  0  0  0
   15.6428   -3.2802   19.8718 H   0  0  0  0  0  0  0  0  0  0  0  0
   15.0934   -2.9639   18.1732 H   0  0  0  0  0  0  0  0  0  0  0  0
   11.4101    0.5173   18.4823 H   0  0  0  0  0  0  0  0  0  0  0  0
   12.3619    1.9379   21.4852 H   0  0  0  0  0  0  0  0  0  0  0  0
   13.6643   -2.5767   22.2084 H   0  0  0  0  0  0  0  0  0  0  0  0
   14.3217    0.0559   23.2324 H   0  0  0  0  0  0  0  0  0  0  0  0
  1  2  1  0
  1  7  1  0
  1 10  1  0
  2  3  1  0
  2  8  1  0
  3  4  1  0
  3 16  1  0
  4  5  1  0
  4  9  1  0
  5  6  1  0
  5 10  1  0
  6 11  1  0
 11 12  1  0
 12 13  2  0
 12 14  2  0
 12 15  1  1
  1 17  1  6
  2 18  1  6
  3 19  1  1
  4 20  1  1
  5 21  1  1
  6 22  1  0
  6 23  1  0
  7 24  1  0
  8 25  1  0
  9 26  1  0
 16 27  1  0
M  CHG  1  15  -1
M  END
>  <filename_input>  (6) 
7OZC_G6S_docked.sdf

>  <pdb_id>  (6) 
7OZC_G6S

>  <pose_rank>  (6) 
5

>  <num_atoms_heavy>  (6) 
16

>  <num_torsions>  (6) 
3

>  <pose>  (6) 
[13.35150711211406, 0.3112502755924975, 18.81612059584677, -0.9804845873479664, -1.812160607041728, 1.7976669948261859, -0.8833332628626827, -1.7490376739870768, -0.8091724129736526]

>  <energy>  (6) 
-477.9556989307999

>  <inter_energy>  (6) 
-480.635077424493

>  <intra_energy>  (6) 
0.12241360899083988

>  <rmsd>  (6) 
5.69475

>  <sdf_rank>  (6) 
0

$$$$

     RDKit          3D

 27 27  0  0  0  0  0  0  0  0999 V2000
   14.2364    0.3851   19.1907 C   0  0  2  0  0  0  0  0  0  0  0  0
   13.5473   -0.8015   19.9104 C   0  0  1  0  0  0  0  0  0  0  0  0
   14.4899   -1.4088   20.9687 C   0  0  2  0  0  0  0  0  0  0  0  0
   15.8662   -1.7790   20.3825 C   0  0  2  0  0  0  0  0  0  0  0  0
   16.4067   -0.4989   19.6963 C   0  0  1  0  0  0  0  0  0  0  0  0
   17.7717   -0.7112   19.0873 C   0  0  0  0  0  0  0  0  0  0  0  0
   13.4481    0.7750   18.0797 O   0  0  0  0  0  0  0  0  0  0  0  0
   12.3424   -0.3627   20.5068 O   0  0  0  0  0  0  0  0  0  0  0  0
   15.8889   -2.9086   19.4473 O   0  0  0  0  0  0  0  0  0  0  0  0
   15.5347   -0.0017   18.7077 O   0  0  0  0  0  0  0  0  0  0  0  0
   18.4798   -1.7876   19.7301 O   0  0  0  0  0  0  0  0  0  0  0  0
   18.7118   -3.1095   18.9188 S   0  0  1  0  0  0  0  0  0  0  0  0
   17.6464   -4.0324   19.3571 O   0  0  0  0  0  0  0  0  0  0  0  0
   18.5194   -2.6409   17.5526 O   0  0  0  0  0  0  0  0  0  0  0  0
   20.0740   -3.6301   19.1993 O   0  0  0  0  0  0  0  0  0  0  0  0
   13.8979   -2.5649   21.5858 O   0  0  0  0  0  0  0  0  0  0  0  0
   14.3437    1.2139   19.9060 H   0  0  0  0  0  0  0  0  0  0  0  0
   13.3134   -1.5833   19.1728 H   0  0  0  0  0  0  0  0  0  0  0  0
   14.6453   -0.6311   21.7310 H   0  0  0  0  0  0  0  0  0  0  0  0
   16.4945   -2.1308   21.2141 H   0  0  0  0  0  0  0  0  0  0  0  0
   16.4838    0.2469   20.5012 H   0  0  0  0  0  0  0  0  0  0  0  0
   17.6527   -0.9498   18.0201 H   0  0  0  0  0  0  0  0  0  0  0  0
   18.3547    0.2118   19.2221 H   0  0  0  0  0  0  0  0  0  0  0  0
   12.6086    1.1903   18.4002 H   0  0  0  0  0  0  0  0  0  0  0  0
   12.4311   -0.3950   21.4923 H   0  0  0  0  0  0  0  0  0  0  0  0
   15.9059   -3.7578   19.9559 H   0  0  0  0  0  0  0  0  0  0  0  0
   13.9446   -2.4736   22.5705 H   0  0  0  0  0  0  0  0  0  0  0  0
  1  2  1  0
  1  7  1  0
  1 10  1  0
  2  3  1  0
  2  8  1  0
  3  4  1  0
  3 16  1  0
  4  5  1  0
  4  9  1  0
  5  6  1  0
  5 10  1  0
  6 11  1  0
 11 12  1  0
 12 13  2  0
 12 14  2  0
 12 15  1  6
  1 17  1  1
  2 18  1  6
  3 19  1  1
  4 20  1  1
  5 21  1  1
  6 22  1  0
  6 23  1  0
  7 24  1  0
  8 25  1  0
  9 26  1  0
 16 27  1  0
M  CHG  1  15  -1
M  END
>  <filename_input>  (7) 
7OZC_G6S_docked.sdf

>  <pdb_id>  (7) 
7OZC_G6S

>  <pose_rank>  (7) 
6

>  <num_atoms_heavy>  (7) 
16

>  <num_torsions>  (7) 
3

>  <pose>  (7) 
[14.236382450731144, 0.3851031322704232, 19.19074623181653, -0.5855963146260668, -2.957315272603709, 0.9120255054598005, 0.7405018093002508, -1.435660829791371, -2.8747276106663433]

>  <energy>  (7) 
-401.7242395750267

>  <inter_energy>  (7) 
-491.47796616824604

>  <intra_energy>  (7) 
96.78007264075416

>  <rmsd>  (7) 
5.44477

>  <sdf_rank>  (7) 
0

$$$$

     RDKit          3D

 27 27  0  0  0  0  0  0  0  0999 V2000
   10.9116   -6.1377   11.9291 C   0  0  2  0  0  0  0  0  0  0  0  0
    9.8341   -6.5375   10.8899 C   0  0  1  0  0  0  0  0  0  0  0  0
    8.6306   -7.1988   11.5910 C   0  0  2  0  0  0  0  0  0  0  0  0
    9.0537   -8.3701   12.4988 C   0  0  2  0  0  0  0  0  0  0  0  0
   10.1318   -7.8092   13.4604 C   0  0  1  0  0  0  0  0  0  0  0  0
   10.6299   -8.8534   14.4302 C   0  0  0  0  0  0  0  0  0  0  0  0
   12.0908   -5.7463   11.2477 O   0  0  0  0  0  0  0  0  0  0  0  0
    9.4242   -5.3949   10.1643 O   0  0  0  0  0  0  0  0  0  0  0  0
    9.5510   -9.5701   11.8176 O   0  0  0  0  0  0  0  0  0  0  0  0
   11.2322   -7.2525   12.7793 O   0  0  0  0  0  0  0  0  0  0  0  0
   12.0643   -8.9741   14.3922 O   0  0  0  0  0  0  0  0  0  0  0  0
   12.6871  -10.4130   14.4245 S   0  0  1  0  0  0  0  0  0  0  0  0
   12.5954  -10.9128   13.0386 O   0  0  0  0  0  0  0  0  0  0  0  0
   14.0572  -10.1198   14.8243 O   0  0  0  0  0  0  0  0  0  0  0  0
   11.9368  -11.2559   15.3899 O   0  0  0  0  0  0  0  0  0  0  0  0
    7.6597   -7.6533   10.6326 O   0  0  0  0  0  0  0  0  0  0  0  0
   10.5192   -5.3117   12.5405 H   0  0  0  0  0  0  0  0  0  0  0  0
   10.2638   -7.2675   10.1882 H   0  0  0  0  0  0  0  0  0  0  0  0
    8.1764   -6.4250   12.2273 H   0  0  0  0  0  0  0  0  0  0  0  0
    8.1508   -8.7311   13.0130 H   0  0  0  0  0  0  0  0  0  0  0  0
    9.6269   -7.0089   14.0214 H   0  0  0  0  0  0  0  0  0  0  0  0
   10.3228   -8.5703   15.4478 H   0  0  0  0  0  0  0  0  0  0  0  0
   10.1964   -9.8228   14.1431 H   0  0  0  0  0  0  0  0  0  0  0  0
   12.7914   -5.5138   11.9075 H   0  0  0  0  0  0  0  0  0  0  0  0
    9.1669   -4.6775   10.7962 H   0  0  0  0  0  0  0  0  0  0  0  0
    9.8288  -10.2405   12.4910 H   0  0  0  0  0  0  0  0  0  0  0  0
    6.8735   -8.0213   11.1085 H   0  0  0  0  0  0  0  0  0  0  0  0
  1  2  1  0
  1  7  1  0
  1 10  1  0
  2  3  1  0
  2  8  1  0
  3  4  1  0
  3 16  1  0
  4  5  1  0
  4  9  1  0
  5  6  1  0
  5 10  1  0
  6 11  1  0
 11 12  1  0
 12 13  2  0
 12 14  2  0
 12 15  1  1
  1 17  1  1
  2 18  1  6
  3 19  1  1
  4 20  1  1
  5 21  1  1
  6 22  1  0
  6 23  1  0
  7 24  1  0
  8 25  1  0
  9 26  1  0
 16 27  1  0
M  CHG  1  15  -1
M  END
>  <filename_input>  (8) 
7OZC_G6S_docked.sdf

>  <pdb_id>  (8) 
7OZC_G6S

>  <pose_rank>  (8) 
7

>  <num_atoms_heavy>  (8) 
16

>  <num_torsions>  (8) 
3

>  <pose>  (8) 
[10.911625528911587, -6.13767552065699, 11.929057034057847, 1.4463598243630862, 1.498381539370659, -0.056766312879197825, -2.9160281855091306, 0.5187331748251772, 0.24850952368844995]

>  <energy>  (8) 
-180.32427877487595

>  <inter_energy>  (8) 
-152.64627895223884

>  <intra_energy>  (8) 
0.0

>  <rmsd>  (8) 
11.9427

>  <sdf_rank>  (8) 
0

$$$$

     RDKit          3D

 27 27  0  0  0  0  0  0  0  0999 V2000
   11.0425   -7.2564   28.8811 C   0  0  2  0  0  0  0  0  0  0  0  0
   11.1588   -8.7561   29.2528 C   0  0  1  0  0  0  0  0  0  0  0  0
   10.3726   -9.6214   28.2475 C   0  0  2  0  0  0  0  0  0  0  0  0
    8.9130   -9.1531   28.0888 C   0  0  2  0  0  0  0  0  0  0  0  0
    8.9748   -7.6462   27.7324 C   0  0  1  0  0  0  0  0  0  0  0  0
    7.6022   -7.0520   27.5272 C   0  0  0  0  0  0  0  0  0  0  0  0
   11.5747   -6.4742   29.9360 O   0  0  0  0  0  0  0  0  0  0  0  0
   12.5207   -9.1360   29.2818 O   0  0  0  0  0  0  0  0  0  0  0  0
    8.0345   -9.3697   29.2431 O   0  0  0  0  0  0  0  0  0  0  0  0
    9.6648   -6.8865   28.6974 O   0  0  0  0  0  0  0  0  0  0  0  0
    7.6719   -5.7484   26.9195 O   0  0  0  0  0  0  0  0  0  0  0  0
    6.9176   -5.5228   25.5631 S   0  0  1  0  0  0  0  0  0  0  0  0
    5.7943   -4.6202   25.8829 O   0  0  0  0  0  0  0  0  0  0  0  0
    7.9511   -4.8709   24.7693 O   0  0  0  0  0  0  0  0  0  0  0  0
    6.4677   -6.8310   25.0232 O   0  0  0  0  0  0  0  0  0  0  0  0
   10.3992  -11.0081   28.6274 O   0  0  0  0  0  0  0  0  0  0  0  0
   11.5960   -7.0833   27.9464 H   0  0  0  0  0  0  0  0  0  0  0  0
   10.7254   -8.9143   30.2514 H   0  0  0  0  0  0  0  0  0  0  0  0
   10.8733   -9.5027   27.2753 H   0  0  0  0  0  0  0  0  0  0  0  0
    8.4520   -9.7719   27.3048 H   0  0  0  0  0  0  0  0  0  0  0  0
    9.5328   -7.5983   26.7856 H   0  0  0  0  0  0  0  0  0  0  0  0
    7.0189   -7.7186   26.8750 H   0  0  0  0  0  0  0  0  0  0  0  0
    7.1235   -6.9462   28.5119 H   0  0  0  0  0  0  0  0  0  0  0  0
   11.3078   -6.8666   30.8048 H   0  0  0  0  0  0  0  0  0  0  0  0
   12.8200   -9.2195   30.2218 H   0  0  0  0  0  0  0  0  0  0  0  0
    8.5501   -9.2426   30.0787 H   0  0  0  0  0  0  0  0  0  0  0  0
   10.4006  -11.0798   29.6148 H   0  0  0  0  0  0  0  0  0  0  0  0
  1  2  1  0
  1  7  1  0
  1 10  1  0
  2  3  1  0
  2  8  1  0
  3  4  1  0
  3 16  1  0
  4  5  1  0
  4  9  1  0
  5  6  1  0
  5 10  1  0
  6 11  1  0
 11 12  1  0
 12 13  2  0
 12 14  2  0
 12 15  1  6
  1 17  1  6
  2 18  1  1
  3 19  1  6
  4 20  1  6
  5 21  1  6
  6 22  1  0
  6 23  1  0
  7 24  1  0
  8 25  1  0
  9 26  1  0
 16 27  1  0
M  CHG  1  15  -1
M  END
>  <filename_input>  (9) 
7OZC_G6S_docked.sdf

>  <pdb_id>  (9) 
7OZC_G6S

>  <pose_rank>  (9) 
8

>  <num_atoms_heavy>  (9) 
16

>  <num_torsions>  (9) 
3

>  <pose>  (9) 
[11.042514957650903, -7.256430093204128, 28.88109537555762, -0.12522743190777763, -0.4537241036678331, 0.05312584799174856, -1.7551071369316393, -1.2302875721370765, 0.7676964710670189]

>  <energy>  (9) 
-173.7630605613315

>  <inter_energy>  (9) 
-153.77017632928394

>  <intra_energy>  (9) 
0.0

>  <rmsd>  (9) 
11.8443

>  <sdf_rank>  (9) 
0

$$$$

     RDKit          3D

 27 27  0  0  0  0  0  0  0  0999 V2000
   11.5712   -8.6551   12.1350 C   0  0  2  0  0  0  0  0  0  0  0  0
   12.9752   -7.9998   12.1438 C   0  0  1  0  0  0  0  0  0  0  0  0
   13.8720   -8.6650   13.2070 C   0  0  2  0  0  0  0  0  0  0  0  0
   13.2108   -8.6875   14.5989 C   0  0  2  0  0  0  0  0  0  0  0  0
   11.8258   -9.3575   14.4130 C   0  0  1  0  0  0  0  0  0  0  0  0
   11.0652   -9.4650   15.7126 C   0  0  0  0  0  0  0  0  0  0  0  0
   10.7045   -7.8848   11.3206 O   0  0  0  0  0  0  0  0  0  0  0  0
   13.5588   -8.1057   10.8600 O   0  0  0  0  0  0  0  0  0  0  0  0
   13.0654   -7.3903   15.2675 O   0  0  0  0  0  0  0  0  0  0  0  0
   11.0231   -8.6939   13.4642 O   0  0  0  0  0  0  0  0  0  0  0  0
    9.6504   -9.2802   15.5181 O   0  0  0  0  0  0  0  0  0  0  0  0
    8.7143  -10.5305   15.6600 S   0  0  1  0  0  0  0  0  0  0  0  0
    9.6068  -11.6525   16.0113 O   0  0  0  0  0  0  0  0  0  0  0  0
    7.8638  -10.1229   16.7707 O   0  0  0  0  0  0  0  0  0  0  0  0
    7.9875  -10.7523   14.3841 O   0  0  0  0  0  0  0  0  0  0  0  0
   15.1504   -8.0115   13.2872 O   0  0  0  0  0  0  0  0  0  0  0  0
   11.6655   -9.6803   11.7477 H   0  0  0  0  0  0  0  0  0  0  0  0
   12.8741   -6.9350   12.4003 H   0  0  0  0  0  0  0  0  0  0  0  0
   14.0175   -9.7067   12.8850 H   0  0  0  0  0  0  0  0  0  0  0  0
   13.8805   -9.2420   15.2728 H   0  0  0  0  0  0  0  0  0  0  0  0
   12.0445  -10.3688   14.0394 H   0  0  0  0  0  0  0  0  0  0  0  0
   11.2384  -10.4611   16.1458 H   0  0  0  0  0  0  0  0  0  0  0  0
   11.4249   -8.6739   16.3870 H   0  0  0  0  0  0  0  0  0  0  0  0
   10.1017   -7.3490   11.8947 H   0  0  0  0  0  0  0  0  0  0  0  0
   14.5287   -8.2817   10.9519 H   0  0  0  0  0  0  0  0  0  0  0  0
   13.0800   -7.5212   16.2487 H   0  0  0  0  0  0  0  0  0  0  0  0
   15.3975   -7.8852   14.2375 H   0  0  0  0  0  0  0  0  0  0  0  0
  1  2  1  0
  1  7  1  0
  1 10  1  0
  2  3  1  0
  2  8  1  0
  3  4  1  0
  3 16  1  0
  4  5  1  0
  4  9  1  0
  5  6  1  0
  5 10  1  0
  6 11  1  0
 11 12  1  0
 12 13  2  0
 12 14  2  0
 12 15  1  6
  1 17  1  6
  2 18  1  1
  3 19  1  6
  4 20  1  1
  5 21  1  6
  6 22  1  0
  6 23  1  0
  7 24  1  0
  8 25  1  0
  9 26  1  0
 16 27  1  0
M  CHG  1  15  -1
M  END
>  <filename_input>  (10) 
7OZC_G6S_docked.sdf

>  <pdb_id>  (10) 
7OZC_G6S

>  <pose_rank>  (10) 
9

>  <num_atoms_heavy>  (10) 
16

>  <num_torsions>  (10) 
3

>  <pose>  (10) 
[11.571151630401214, -8.655139296977861, 12.135033509000165, 2.4328358383143516, -1.5406666519141659, -2.965390187331669, -2.5969672381690465, -1.4687800858752609, -1.1424209784922863]

>  <energy>  (10) 
-173.18921041550365

>  <inter_energy>  (10) 
-160.9524849718451

>  <intra_energy>  (10) 
0.04185537676016453

>  <rmsd>  (10) 
10.8525

>  <sdf_rank>  (10) 
0

$$$$

     RDKit          3D

 27 27  0  0  0  0  0  0  0  0999 V2000
   12.4449   -9.5638   14.5333 C   0  0  2  0  0  0  0  0  0  0  0  0
   10.9686   -9.9220   14.8383 C   0  0  1  0  0  0  0  0  0  0  0  0
   10.1524   -9.9952   13.5323 C   0  0  2  0  0  0  0  0  0  0  0  0
   10.2974   -8.7197   12.6796 C   0  0  2  0  0  0  0  0  0  0  0  0
   11.8182   -8.5003   12.4782 C   0  0  1  0  0  0  0  0  0  0  0  0
   12.1121   -7.2824   11.6358 C   0  0  0  0  0  0  0  0  0  0  0  0
   13.1144   -9.2801   15.7494 O   0  0  0  0  0  0  0  0  0  0  0  0
   10.9102  -11.1518   15.5342 O   0  0  0  0  0  0  0  0  0  0  0  0
    9.6729   -7.5067   13.2180 O   0  0  0  0  0  0  0  0  0  0  0  0
   12.5193   -8.3969   13.6958 O   0  0  0  0  0  0  0  0  0  0  0  0
   11.2669   -6.1724   11.9918 O   0  0  0  0  0  0  0  0  0  0  0  0
   11.7580   -4.7253   11.6394 S   0  0  1  0  0  0  0  0  0  0  0  0
   10.8534   -4.2514   10.5736 O   0  0  0  0  0  0  0  0  0  0  0  0
   11.5412   -4.0365   12.9049 O   0  0  0  0  0  0  0  0  0  0  0  0
   13.1779   -4.7757   11.2074 O   0  0  0  0  0  0  0  0  0  0  0  0
    8.7622  -10.2420   13.8045 O   0  0  0  0  0  0  0  0  0  0  0  0
   12.9124  -10.4154   14.0173 H   0  0  0  0  0  0  0  0  0  0  0  0
   10.5305   -9.1358   15.4709 H   0  0  0  0  0  0  0  0  0  0  0  0
   10.5631  -10.8364   12.9546 H   0  0  0  0  0  0  0  0  0  0  0  0
    9.7491   -8.8870   11.7408 H   0  0  0  0  0  0  0  0  0  0  0  0
   12.1695   -9.3978   11.9480 H   0  0  0  0  0  0  0  0  0  0  0  0
   13.1628   -6.9921   11.7832 H   0  0  0  0  0  0  0  0  0  0  0  0
   11.9178   -7.5380   10.5837 H   0  0  0  0  0  0  0  0  0  0  0  0
   12.5328   -9.5266   16.5117 H   0  0  0  0  0  0  0  0  0  0  0  0
   10.9184  -10.9800   16.5091 H   0  0  0  0  0  0  0  0  0  0  0  0
    9.6893   -7.5384   14.2074 H   0  0  0  0  0  0  0  0  0  0  0  0
    8.6172  -10.2678   14.7835 H   0  0  0  0  0  0  0  0  0  0  0  0
  1  2  1  0
  1  7  1  0
  1 10  1  0
  2  3  1  0
  2  8  1  0
  3  4  1  0
  3 16  1  0
  4  5  1  0
  4  9  1  0
  5  6  1  0
  5 10  1  0
  6 11  1  0
 11 12  1  0
 12 13  2  0
 12 14  2  0
 12 15  1  6
  1 17  1  6
  2 18  1  1
  3 19  1  6
  4 20  1  6
  5 21  1  6
  6 22  1  0
  6 23  1  0
  7 24  1  0
  8 25  1  0
  9 26  1  0
 16 27  1  0
M  CHG  1  15  -1
M  END
>  <filename_input>  (11) 
7OZC_G6S_docked.sdf

>  <pdb_id>  (11) 
7OZC_G6S

>  <pose_rank>  (11) 
10

>  <num_atoms_heavy>  (11) 
16

>  <num_torsions>  (11) 
3

>  <pose>  (11) 
[12.444858491108837, -9.563827723634878, 14.53326823347249, 2.109722334698224, 2.345243784013781, 3.496433068495144, 1.9007759087895741, -0.6165476155073307, 0.7720544526687998]

>  <energy>  (11) 
-114.2400043661609

>  <inter_energy>  (11) 
-136.9685429250836

>  <intra_energy>  (11) 
29.200175896919962

>  <rmsd>  (11) 
10.6595

>  <sdf_rank>  (11) 
0

$$$$

     RDKit          3D

 27 27  0  0  0  0  0  0  0  0999 V2000
    9.6415   -7.1482   12.1361 C   0  0  2  0  0  0  0  0  0  0  0  0
    8.3382   -7.8682   12.5648 C   0  0  1  0  0  0  0  0  0  0  0  0
    8.2658   -7.9787   14.1010 C   0  0  2  0  0  0  0  0  0  0  0  0
    9.5319   -8.6199   14.7017 C   0  0  2  0  0  0  0  0  0  0  0  0
   10.7320   -7.7958   14.1704 C   0  0  1  0  0  0  0  0  0  0  0  0
   12.0517   -8.3050   14.6979 C   0  0  0  0  0  0  0  0  0  0  0  0
    9.7938   -7.2614   10.7319 O   0  0  0  0  0  0  0  0  0  0  0  0
    7.2182   -7.1674   12.0605 O   0  0  0  0  0  0  0  0  0  0  0  0
    9.7289  -10.0466   14.4245 O   0  0  0  0  0  0  0  0  0  0  0  0
   10.7844   -7.7557   12.7631 O   0  0  0  0  0  0  0  0  0  0  0  0
   12.5731   -9.3735   13.8855 O   0  0  0  0  0  0  0  0  0  0  0  0
   14.1171   -9.6461   13.9230 S   0  0  1  0  0  0  0  0  0  0  0  0
   14.5934   -9.4015   12.5475 O   0  0  0  0  0  0  0  0  0  0  0  0
   14.5627   -8.6230   14.8600 O   0  0  0  0  0  0  0  0  0  0  0  0
   14.3633  -11.0384   14.3772 O   0  0  0  0  0  0  0  0  0  0  0  0
    7.1043   -8.7203   14.5118 O   0  0  0  0  0  0  0  0  0  0  0  0
    9.5748   -6.0930   12.4397 H   0  0  0  0  0  0  0  0  0  0  0  0
    8.3357   -8.8865   12.1489 H   0  0  0  0  0  0  0  0  0  0  0  0
    8.1931   -6.9504   14.4847 H   0  0  0  0  0  0  0  0  0  0  0  0
    9.4285   -8.5903   15.7964 H   0  0  0  0  0  0  0  0  0  0  0  0
   10.5657   -6.7743   14.5430 H   0  0  0  0  0  0  0  0  0  0  0  0
   12.7760   -7.4771   14.7057 H   0  0  0  0  0  0  0  0  0  0  0  0
   11.8878   -8.6948   15.7134 H   0  0  0  0  0  0  0  0  0  0  0  0
   10.5716   -7.8396   10.5299 H   0  0  0  0  0  0  0  0  0  0  0  0
    6.6746   -6.8273   12.8148 H   0  0  0  0  0  0  0  0  0  0  0  0
    9.7973  -10.5423   15.2786 H   0  0  0  0  0  0  0  0  0  0  0  0
    7.0625   -8.7470   15.5005 H   0  0  0  0  0  0  0  0  0  0  0  0
  1  2  1  0
  1  7  1  0
  1 10  1  0
  2  3  1  0
  2  8  1  0
  3  4  1  0
  3 16  1  0
  4  5  1  0
  4  9  1  0
  5  6  1  0
  5 10  1  0
  6 11  1  0
 11 12  1  0
 12 13  2  0
 12 14  2  0
 12 15  1  1
  1 17  1  6
  2 18  1  6
  3 19  1  1
  4 20  1  1
  5 21  1  1
  6 22  1  0
  6 23  1  0
  7 24  1  0
  8 25  1  0
  9 26  1  0
 16 27  1  0
M  CHG  1  15  -1
M  END
>  <filename_input>  (12) 
7OZC_G6S_docked.sdf

>  <pdb_id>  (12) 
7OZC_G6S

>  <pose_rank>  (12) 
11

>  <num_atoms_heavy>  (12) 
16

>  <num_torsions>  (12) 
3

>  <pose>  (12) 
[9.641455902363393, -7.148179243692541, 12.136059463675544, -1.4279607182388498, -3.1429322473169203, 1.6035282247863005, 2.6672032052630397, -0.6265096102196437, -3.2158921429522294]

>  <energy>  (12) 
-163.97840608491828

>  <inter_energy>  (12) 
-158.43853509078033

>  <intra_energy>  (12) 
5.495337232404201

>  <rmsd>  (12) 
11.8442

>  <sdf_rank>  (12) 
0

$$$$

     RDKit          3D

 27 27  0  0  0  0  0  0  0  0999 V2000
   10.3431  -10.4874   25.5393 C   0  0  2  0  0  0  0  0  0  0  0  0
    9.4498  -10.7755   24.3066 C   0  0  1  0  0  0  0  0  0  0  0  0
    8.7377   -9.4878   23.8462 C   0  0  2  0  0  0  0  0  0  0  0  0
    7.9738   -8.7994   24.9941 C   0  0  2  0  0  0  0  0  0  0  0  0
    8.9981   -8.5957   26.1390 C   0  0  1  0  0  0  0  0  0  0  0  0
    8.3867   -7.9073   27.3354 C   0  0  0  0  0  0  0  0  0  0  0  0
   10.8017  -11.7154   26.0774 O   0  0  0  0  0  0  0  0  0  0  0  0
   10.2375  -11.3123   23.2619 O   0  0  0  0  0  0  0  0  0  0  0  0
    6.7842   -9.4989   25.4909 O   0  0  0  0  0  0  0  0  0  0  0  0
    9.5936   -9.8019   26.5576 O   0  0  0  0  0  0  0  0  0  0  0  0
    9.3134   -6.9972   27.9570 O   0  0  0  0  0  0  0  0  0  0  0  0
    9.1645   -6.7244   29.4942 S   0  0  1  0  0  0  0  0  0  0  0  0
    7.7756   -6.2601   29.6788 O   0  0  0  0  0  0  0  0  0  0  0  0
    9.3868   -8.0566   30.0411 O   0  0  0  0  0  0  0  0  0  0  0  0
   10.1686   -5.7155   29.9177 O   0  0  0  0  0  0  0  0  0  0  0  0
    7.8386   -9.7556   22.7564 O   0  0  0  0  0  0  0  0  0  0  0  0
   11.1877   -9.8589   25.2206 H   0  0  0  0  0  0  0  0  0  0  0  0
    8.6800  -11.5108   24.5836 H   0  0  0  0  0  0  0  0  0  0  0  0
    9.5259   -8.8006   23.5048 H   0  0  0  0  0  0  0  0  0  0  0  0
    7.5633   -7.8586   24.5988 H   0  0  0  0  0  0  0  0  0  0  0  0
    9.7798   -7.9497   25.7128 H   0  0  0  0  0  0  0  0  0  0  0  0
    7.4997   -7.3449   27.0084 H   0  0  0  0  0  0  0  0  0  0  0  0
    8.1154   -8.6773   28.0727 H   0  0  0  0  0  0  0  0  0  0  0  0
   10.7845  -11.6694   27.0662 H   0  0  0  0  0  0  0  0  0  0  0  0
   10.9911  -11.8258   23.6472 H   0  0  0  0  0  0  0  0  0  0  0  0
    6.7892   -9.4960   26.4809 H   0  0  0  0  0  0  0  0  0  0  0  0
    6.9543  -10.0190   23.1152 H   0  0  0  0  0  0  0  0  0  0  0  0
  1  2  1  0
  1  7  1  0
  1 10  1  0
  2  3  1  0
  2  8  1  0
  3  4  1  0
  3 16  1  0
  4  5  1  0
  4  9  1  0
  5  6  1  0
  5 10  1  0
  6 11  1  0
 11 12  1  0
 12 13  2  0
 12 14  2  0
 12 15  1  1
  1 17  1  6
  2 18  1  1
  3 19  1  6
  4 20  1  6
  5 21  1  6
  6 22  1  0
  6 23  1  0
  7 24  1  0
  8 25  1  0
  9 26  1  0
 16 27  1  0
M  CHG  1  15  -1
M  END
>  <filename_input>  (13) 
7OZC_G6S_docked.sdf

>  <pdb_id>  (13) 
7OZC_G6S

>  <pose_rank>  (13) 
12

>  <num_atoms_heavy>  (13) 
16

>  <num_torsions>  (13) 
3

>  <pose>  (13) 
[10.343130648074256, -10.487409075078112, 25.539336449869506, -3.47505054263009, 0.5724331052236322, 3.2085225360020684, -1.3303167946036785, 0.27492647147977856, -2.1357940433490734]

>  <energy>  (13) 
-154.73527378451388

>  <inter_energy>  (13) 
-134.991020323098

>  <intra_energy>  (13) 
0.0

>  <rmsd>  (13) 
12.3117

>  <sdf_rank>  (13) 
0

$$$$

     RDKit          3D

 27 27  0  0  0  0  0  0  0  0999 V2000
   10.5110   -6.8530   13.4930 C   0  0  2  0  0  0  0  0  0  0  0  0
   10.6436   -7.3065   12.0174 C   0  0  1  0  0  0  0  0  0  0  0  0
    9.2538   -7.6045   11.4198 C   0  0  2  0  0  0  0  0  0  0  0  0
    8.4462   -8.5939   12.2823 C   0  0  2  0  0  0  0  0  0  0  0  0
    8.4190   -8.0026   13.7145 C   0  0  1  0  0  0  0  0  0  0  0  0
    7.6372   -8.8673   14.6737 C   0  0  0  0  0  0  0  0  0  0  0  0
   11.7990   -6.8069   14.0818 O   0  0  0  0  0  0  0  0  0  0  0  0
   11.3058   -6.3060   11.2687 O   0  0  0  0  0  0  0  0  0  0  0  0
    8.9342   -9.9768   12.3094 O   0  0  0  0  0  0  0  0  0  0  0  0
    9.7087   -7.7854   14.2383 O   0  0  0  0  0  0  0  0  0  0  0  0
    8.4311   -9.2522   15.8116 O   0  0  0  0  0  0  0  0  0  0  0  0
    8.2852  -10.7162   16.3548 S   0  0  1  0  0  0  0  0  0  0  0  0
    7.1493  -10.6751   17.2965 O   0  0  0  0  0  0  0  0  0  0  0  0
    7.9718  -11.4424   15.1311 O   0  0  0  0  0  0  0  0  0  0  0  0
    9.5545  -11.1326   17.0036 O   0  0  0  0  0  0  0  0  0  0  0  0
    9.3654   -8.1088   10.0778 O   0  0  0  0  0  0  0  0  0  0  0  0
   10.0345   -5.8618   13.5133 H   0  0  0  0  0  0  0  0  0  0  0  0
   11.2380   -8.2312   11.9768 H   0  0  0  0  0  0  0  0  0  0  0  0
    8.7099   -6.6485   11.4033 H   0  0  0  0  0  0  0  0  0  0  0  0
    7.4494   -8.6899   11.8272 H   0  0  0  0  0  0  0  0  0  0  0  0
    7.9146   -7.0303   13.6136 H   0  0  0  0  0  0  0  0  0  0  0  0
    6.7590   -8.3058   15.0253 H   0  0  0  0  0  0  0  0  0  0  0  0
    7.3336   -9.7813   14.1423 H   0  0  0  0  0  0  0  0  0  0  0  0
   11.7114   -6.8100   15.0679 H   0  0  0  0  0  0  0  0  0  0  0  0
   11.7331   -5.6606   11.8859 H   0  0  0  0  0  0  0  0  0  0  0  0
    9.0383  -10.2716   13.2488 H   0  0  0  0  0  0  0  0  0  0  0  0
    9.5791   -9.0751   10.1051 H   0  0  0  0  0  0  0  0  0  0  0  0
  1  2  1  0
  1  7  1  0
  1 10  1  0
  2  3  1  0
  2  8  1  0
  3  4  1  0
  3 16  1  0
  4  5  1  0
  4  9  1  0
  5  6  1  0
  5 10  1  0
  6 11  1  0
 11 12  1  0
 12 13  2  0
 12 14  2  0
 12 15  1  1
  1 17  1  6
  2 18  1  1
  3 19  1  6
  4 20  1  6
  5 21  1  6
  6 22  1  0
  6 23  1  0
  7 24  1  0
  8 25  1  0
  9 26  1  0
 16 27  1  0
M  CHG  1  15  -1
M  END
>  <filename_input>  (14) 
7OZC_G6S_docked.sdf

>  <pdb_id>  (14) 
7OZC_G6S

>  <pose_rank>  (14) 
13

>  <num_atoms_heavy>  (14) 
16

>  <num_torsions>  (14) 
3

>  <pose>  (14) 
[10.511023048040833, -6.852989590657293, 13.493001445877374, -4.383645532078791, -1.7965001459908279, -1.1835937967889234, 3.3280002348661895, 0.4742415708535779, -2.671152522029567]

>  <energy>  (14) 
-116.28513811512393

>  <inter_energy>  (14) 
-115.96657061679547

>  <intra_energy>  (14) 
0.18211097862880887

>  <rmsd>  (14) 
11.8556

>  <sdf_rank>  (14) 
0

$$$$

     RDKit          3D

 27 27  0  0  0  0  0  0  0  0999 V2000
   25.0728   -8.2962   12.3297 C   0  0  2  0  0  0  0  0  0  0  0  0
   24.0453   -9.4341   12.5539 C   0  0  1  0  0  0  0  0  0  0  0  0
   23.2296   -9.6824   11.2692 C   0  0  2  0  0  0  0  0  0  0  0  0
   22.5873   -8.3914   10.7254 C   0  0  2  0  0  0  0  0  0  0  0  0
   23.7371   -7.3639   10.5707 C   0  0  1  0  0  0  0  0  0  0  0  0
   23.2520   -6.0433   10.0232 C   0  0  0  0  0  0  0  0  0  0  0  0
   25.6443   -7.9350   13.5749 O   0  0  0  0  0  0  0  0  0  0  0  0
   24.7179  -10.6118   12.9547 O   0  0  0  0  0  0  0  0  0  0  0  0
   21.4983   -7.8229   11.5268 O   0  0  0  0  0  0  0  0  0  0  0  0
   24.4287   -7.1352   11.7766 O   0  0  0  0  0  0  0  0  0  0  0  0
   24.0669   -4.9468   10.4782 O   0  0  0  0  0  0  0  0  0  0  0  0
   23.3503   -3.7100   11.1235 S   0  0  1  0  0  0  0  0  0  0  0  0
   21.9698   -3.7387   10.6019 O   0  0  0  0  0  0  0  0  0  0  0  0
   23.4212   -4.0484   12.5390 O   0  0  0  0  0  0  0  0  0  0  0  0
   24.0777   -2.4687   10.7556 O   0  0  0  0  0  0  0  0  0  0  0  0
   22.2134  -10.6764   11.4861 O   0  0  0  0  0  0  0  0  0  0  0  0
   25.8448   -8.6538   11.6325 H   0  0  0  0  0  0  0  0  0  0  0  0
   23.3465   -9.1368   13.3497 H   0  0  0  0  0  0  0  0  0  0  0  0
   23.9405  -10.0501   10.5145 H   0  0  0  0  0  0  0  0  0  0  0  0
   22.0928   -8.6442    9.7759 H   0  0  0  0  0  0  0  0  0  0  0  0
   24.4326   -7.8186    9.8499 H   0  0  0  0  0  0  0  0  0  0  0  0
   23.2842   -6.0795    8.9243 H   0  0  0  0  0  0  0  0  0  0  0  0
   22.2252   -5.8795   10.3821 H   0  0  0  0  0  0  0  0  0  0  0  0
   25.0840   -8.2891   14.3103 H   0  0  0  0  0  0  0  0  0  0  0  0
   24.7436  -10.6568   13.9433 H   0  0  0  0  0  0  0  0  0  0  0  0
   21.7054   -7.9310   12.4888 H   0  0  0  0  0  0  0  0  0  0  0  0
   22.0808  -10.8061   12.4586 H   0  0  0  0  0  0  0  0  0  0  0  0
  1  2  1  0
  1  7  1  0
  1 10  1  0
  2  3  1  0
  2  8  1  0
  3  4  1  0
  3 16  1  0
  4  5  1  0
  4  9  1  0
  5  6  1  0
  5 10  1  0
  6 11  1  0
 11 12  1  0
 12 13  2  0
 12 14  2  0
 12 15  1  1
  1 17  1  6
  2 18  1  1
  3 19  1  6
  4 20  1  6
  5 21  1  6
  6 22  1  0
  6 23  1  0
  7 24  1  0
  8 25  1  0
  9 26  1  0
 16 27  1  0
M  CHG  1  15  -1
M  END
>  <filename_input>  (15) 
7OZC_G6S_docked.sdf

>  <pdb_id>  (15) 
7OZC_G6S

>  <pose_rank>  (15) 
14

>  <num_atoms_heavy>  (15) 
16

>  <num_torsions>  (15) 
3

>  <pose>  (15) 
[25.072771530124477, -8.296203391742571, 12.329655852747603, 1.536480045557483, 3.572790247372436, 3.4982078177132885, -2.4783583223568333, 0.6719642224982679, -1.5663246500426082]

>  <energy>  (15) 
-145.1230464681853

>  <inter_energy>  (15) 
-134.18369819506046

>  <intra_energy>  (15) 
0.20048777515286614

>  <rmsd>  (15) 
13.0653

>  <sdf_rank>  (15) 
0

$$$$

     RDKit          3D

 27 27  0  0  0  0  0  0  0  0999 V2000
   21.9235   -2.6044   11.6035 C   0  0  2  0  0  0  0  0  0  0  0  0
   22.7532   -3.6320   10.7934 C   0  0  1  0  0  0  0  0  0  0  0  0
   24.2100   -3.6632   11.2972 C   0  0  2  0  0  0  0  0  0  0  0  0
   24.8500   -2.2615   11.3235 C   0  0  2  0  0  0  0  0  0  0  0  0
   23.8992   -1.3637   12.1552 C   0  0  1  0  0  0  0  0  0  0  0  0
   24.4149    0.0495   12.2818 C   0  0  0  0  0  0  0  0  0  0  0  0
   20.6635   -2.4297   10.9792 O   0  0  0  0  0  0  0  0  0  0  0  0
   22.1604   -4.9118   10.8977 O   0  0  0  0  0  0  0  0  0  0  0  0
   25.1204   -1.6487   10.0188 O   0  0  0  0  0  0  0  0  0  0  0  0
   22.5898   -1.3302   11.6364 O   0  0  0  0  0  0  0  0  0  0  0  0
   23.3673    1.0180   12.0870 O   0  0  0  0  0  0  0  0  0  0  0  0
   23.7304    2.3685   11.3772 S   0  0  1  0  0  0  0  0  0  0  0  0
   24.8331    2.0426   10.4516 O   0  0  0  0  0  0  0  0  0  0  0  0
   22.4853    2.6667   10.6816 O   0  0  0  0  0  0  0  0  0  0  0  0
   24.1159    3.3762   12.3976 O   0  0  0  0  0  0  0  0  0  0  0  0
   25.0141   -4.5492   10.4994 O   0  0  0  0  0  0  0  0  0  0  0  0
   21.8040   -2.9818   12.6298 H   0  0  0  0  0  0  0  0  0  0  0  0
   22.7643   -3.3319    9.7352 H   0  0  0  0  0  0  0  0  0  0  0  0
   24.1748   -4.0382   12.3307 H   0  0  0  0  0  0  0  0  0  0  0  0
   25.8529   -2.3656   11.7632 H   0  0  0  0  0  0  0  0  0  0  0  0
   23.8680   -1.8261   13.1528 H   0  0  0  0  0  0  0  0  0  0  0  0
   24.8427    0.1843   13.2863 H   0  0  0  0  0  0  0  0  0  0  0  0
   25.1770    0.2075   11.5045 H   0  0  0  0  0  0  0  0  0  0  0  0
   19.9627   -2.3326   11.6717 H   0  0  0  0  0  0  0  0  0  0  0  0
   22.0510   -5.1479   11.8529 H   0  0  0  0  0  0  0  0  0  0  0  0
   25.5166   -0.7512   10.1515 H   0  0  0  0  0  0  0  0  0  0  0  0
   25.5465   -5.1360   11.0930 H   0  0  0  0  0  0  0  0  0  0  0  0
  1  2  1  0
  1  7  1  0
  1 10  1  0
  2  3  1  0
  2  8  1  0
  3  4  1  0
  3 16  1  0
  4  5  1  0
  4  9  1  0
  5  6  1  0
  5 10  1  0
  6 11  1  0
 11 12  1  0
 12 13  2  0
 12 14  2  0
 12 15  1  1
  1 17  1  1
  2 18  1  6
  3 19  1  1
  4 20  1  1
  5 21  1  1
  6 22  1  0
  6 23  1  0
  7 24  1  0
  8 25  1  0
  9 26  1  0
 16 27  1  0
M  CHG  1  15  -1
M  END
>  <filename_input>  (16) 
7OZC_G6S_docked.sdf

>  <pdb_id>  (16) 
7OZC_G6S

>  <pose_rank>  (16) 
15

>  <num_atoms_heavy>  (16) 
16

>  <num_torsions>  (16) 
3

>  <pose>  (16) 
[21.92350270463555, -2.604374267966884, 11.603518373564123, -1.045811605741288, 2.810984303736172, 0.7772710052525671, -2.7346192623966945, 0.3850382425397092, -0.6328543810238301]

>  <energy>  (16) 
-141.93422777465045

>  <inter_energy>  (16) 
-126.42272405395462

>  <intra_energy>  (16) 
0.0

>  <rmsd>  (16) 
12.3598

>  <sdf_rank>  (16) 
0

$$$$

     RDKit          3D

 27 27  0  0  0  0  0  0  0  0999 V2000
   25.3402   -0.5777   12.4002 C   0  0  2  0  0  0  0  0  0  0  0  0
   24.7770   -1.9237   11.8790 C   0  0  1  0  0  0  0  0  0  0  0  0
   24.1877   -1.7482   10.4650 C   0  0  2  0  0  0  0  0  0  0  0  0
   23.1610   -0.6008   10.3975 C   0  0  2  0  0  0  0  0  0  0  0  0
   23.8735    0.6554   10.9596 C   0  0  1  0  0  0  0  0  0  0  0  0
   22.9829    1.8742   10.9368 C   0  0  0  0  0  0  0  0  0  0  0  0
   25.6642   -0.7107   13.7732 O   0  0  0  0  0  0  0  0  0  0  0  0
   25.8002   -2.9000   11.8767 O   0  0  0  0  0  0  0  0  0  0  0  0
   21.8923   -0.8254   11.0981 O   0  0  0  0  0  0  0  0  0  0  0  0
   24.3592    0.4657   12.2684 O   0  0  0  0  0  0  0  0  0  0  0  0
   23.7491    3.0934   10.9338 O   0  0  0  0  0  0  0  0  0  0  0  0
   23.9621    3.8370   12.2980 S   0  0  1  0  0  0  0  0  0  0  0  0
   25.1165    3.1715   12.9330 O   0  0  0  0  0  0  0  0  0  0  0  0
   24.2750    5.1845   11.8403 O   0  0  0  0  0  0  0  0  0  0  0  0
   22.7242    3.7413   13.1128 O   0  0  0  0  0  0  0  0  0  0  0  0
   23.5838   -2.9682   10.0015 O   0  0  0  0  0  0  0  0  0  0  0  0
   26.2317   -0.3190   11.8099 H   0  0  0  0  0  0  0  0  0  0  0  0
   23.9692   -2.2587   12.5462 H   0  0  0  0  0  0  0  0  0  0  0  0
   25.0294   -1.4879    9.8064 H   0  0  0  0  0  0  0  0  0  0  0  0
   22.8513   -0.4975    9.3471 H   0  0  0  0  0  0  0  0  0  0  0  0
   24.7299    0.8229   10.2900 H   0  0  0  0  0  0  0  0  0  0  0  0
   22.3590    1.8430   10.0314 H   0  0  0  0  0  0  0  0  0  0  0  0
   22.3613    1.8620   11.8442 H   0  0  0  0  0  0  0  0  0  0  0  0
   24.9030   -0.3982   14.3236 H   0  0  0  0  0  0  0  0  0  0  0  0
   26.0400   -3.1288   12.8095 H   0  0  0  0  0  0  0  0  0  0  0  0
   22.0459   -0.7982   12.0758 H   0  0  0  0  0  0  0  0  0  0  0  0
   23.3117   -3.5178   10.7787 H   0  0  0  0  0  0  0  0  0  0  0  0
  1  2  1  0
  1  7  1  0
  1 10  1  0
  2  3  1  0
  2  8  1  0
  3  4  1  0
  3 16  1  0
  4  5  1  0
  4  9  1  0
  5  6  1  0
  5 10  1  0
  6 11  1  0
 11 12  1  0
 12 13  2  0
 12 14  2  0
 12 15  1  1
  1 17  1  6
  2 18  1  1
  3 19  1  6
  4 20  1  6
  5 21  1  6
  6 22  1  0
  6 23  1  0
  7 24  1  0
  8 25  1  0
  9 26  1  0
 16 27  1  0
M  CHG  1  15  -1
M  END
>  <filename_input>  (17) 
7OZC_G6S_docked.sdf

>  <pdb_id>  (17) 
7OZC_G6S

>  <pose_rank>  (17) 
16

>  <num_atoms_heavy>  (17) 
16

>  <num_torsions>  (17) 
3

>  <pose>  (17) 
[25.34024438465531, -0.5777172447714671, 12.400176886792284, -1.741624054607639, 3.959419448969163, 3.129247106763523, -64.40114431907132, 45.190045117538375, -12.267708745421727]

>  <energy>  (17) 
-84.08902720572107

>  <inter_energy>  (17) 
-94.78202591561485

>  <intra_energy>  (17) 
11.54280320519305

>  <rmsd>  (17) 
12.416

>  <sdf_rank>  (17) 
0

$$$$

     RDKit          3D

 27 27  0  0  0  0  0  0  0  0999 V2000
   22.3036   -2.0629   10.6169 C   0  0  2  0  0  0  0  0  0  0  0  0
   22.9784   -0.6862   10.8403 C   0  0  1  0  0  0  0  0  0  0  0  0
   24.5107   -0.8139   10.7262 C   0  0  2  0  0  0  0  0  0  0  0  0
   25.0758   -1.9159   11.6436 C   0  0  2  0  0  0  0  0  0  0  0  0
   24.2937   -3.2098   11.3034 C   0  0  1  0  0  0  0  0  0  0  0  0
   24.7595   -4.3896   12.1221 C   0  0  0  0  0  0  0  0  0  0  0  0
   20.9297   -1.9658   10.9497 O   0  0  0  0  0  0  0  0  0  0  0  0
   22.4829    0.2461    9.8994 O   0  0  0  0  0  0  0  0  0  0  0  0
   25.0210   -1.6495   13.0848 O   0  0  0  0  0  0  0  0  0  0  0  0
   22.9016   -3.0619   11.4613 O   0  0  0  0  0  0  0  0  0  0  0  0
   24.0593   -5.5958   11.7641 O   0  0  0  0  0  0  0  0  0  0  0  0
   24.8866   -6.9221   11.6373 S   0  0  1  0  0  0  0  0  0  0  0  0
   25.6961   -7.0001   12.8691 O   0  0  0  0  0  0  0  0  0  0  0  0
   23.8228   -7.9172   11.6025 O   0  0  0  0  0  0  0  0  0  0  0  0
   25.7164   -6.8724   10.4067 O   0  0  0  0  0  0  0  0  0  0  0  0
   25.1569    0.4377   11.0158 O   0  0  0  0  0  0  0  0  0  0  0  0
   22.4328   -2.3493    9.5627 H   0  0  0  0  0  0  0  0  0  0  0  0
   22.7402   -0.3283   11.8528 H   0  0  0  0  0  0  0  0  0  0  0  0
   24.7234   -1.0987    9.6852 H   0  0  0  0  0  0  0  0  0  0  0  0
   26.1550   -1.9891   11.4441 H   0  0  0  0  0  0  0  0  0  0  0  0
   24.5064   -3.4025   10.2415 H   0  0  0  0  0  0  0  0  0  0  0  0
   25.8361   -4.5386   11.9524 H   0  0  0  0  0  0  0  0  0  0  0  0
   24.5536   -4.1749   13.1812 H   0  0  0  0  0  0  0  0  0  0  0  0
   20.8284   -1.9587   11.9345 H   0  0  0  0  0  0  0  0  0  0  0  0
   22.0757    1.0119   10.3766 H   0  0  0  0  0  0  0  0  0  0  0  0
   25.1935   -2.4879   13.5821 H   0  0  0  0  0  0  0  0  0  0  0  0
   25.2189    0.5579   11.9966 H   0  0  0  0  0  0  0  0  0  0  0  0
  1  2  1  0
  1  7  1  0
  1 10  1  0
  2  3  1  0
  2  8  1  0
  3  4  1  0
  3 16  1  0
  4  5  1  0
  4  9  1  0
  5  6  1  0
  5 10  1  0
  6 11  1  0
 11 12  1  0
 12 13  2  0
 12 14  2  0
 12 15  1  6
  1 17  1  6
  2 18  1  1
  3 19  1  6
  4 20  1  6
  5 21  1  6
  6 22  1  0
  6 23  1  0
  7 24  1  0
  8 25  1  0
  9 26  1  0
 16 27  1  0
M  CHG  1  15  -1
M  END
>  <filename_input>  (18) 
7OZC_G6S_docked.sdf

>  <pdb_id>  (18) 
7OZC_G6S

>  <pose_rank>  (18) 
17

>  <num_atoms_heavy>  (18) 
16

>  <num_torsions>  (18) 
3

>  <pose>  (18) 
[22.303637961414395, -2.0629205773417754, 10.61690977622017, -0.48501816544490817, -0.003949351860839386, 2.5142301505389417, -1.938821908937787, -0.9613851856621302, -0.3053843143181199]

>  <energy>  (18) 
-91.22481840899454

>  <inter_energy>  (18) 
-95.4489068960311

>  <intra_energy>  (18) 
0.0

>  <rmsd>  (18) 
13.2902

>  <sdf_rank>  (18) 
0

$$$$

     RDKit          3D

 27 27  0  0  0  0  0  0  0  0999 V2000
   23.0889   -9.8918   25.9950 C   0  0  2  0  0  0  0  0  0  0  0  0
   22.0473  -10.9938   26.3135 C   0  0  1  0  0  0  0  0  0  0  0  0
   20.8204  -10.3850   27.0215 C   0  0  2  0  0  0  0  0  0  0  0  0
   21.2119   -9.5529   28.2582 C   0  0  2  0  0  0  0  0  0  0  0  0
   22.2567   -8.5161   27.7733 C   0  0  1  0  0  0  0  0  0  0  0  0
   22.7211   -7.6102   28.8881 C   0  0  0  0  0  0  0  0  0  0  0  0
   24.2908  -10.5016   25.5575 O   0  0  0  0  0  0  0  0  0  0  0  0
   21.6629  -11.6460   25.1190 O   0  0  0  0  0  0  0  0  0  0  0  0
   21.7317  -10.3040   29.4057 O   0  0  0  0  0  0  0  0  0  0  0  0
   23.3799   -9.1163   27.1708 O   0  0  0  0  0  0  0  0  0  0  0  0
   24.0750   -7.1649   28.6831 O   0  0  0  0  0  0  0  0  0  0  0  0
   24.3183   -5.6417   28.3996 S   0  0  1  0  0  0  0  0  0  0  0  0
   25.7747   -5.4439   28.5354 O   0  0  0  0  0  0  0  0  0  0  0  0
   23.8651   -5.5347   27.0189 O   0  0  0  0  0  0  0  0  0  0  0  0
   23.5355   -4.8274   29.3637 O   0  0  0  0  0  0  0  0  0  0  0  0
   19.8826  -11.4070   27.4009 O   0  0  0  0  0  0  0  0  0  0  0  0
   22.6762   -9.2344   25.2156 H   0  0  0  0  0  0  0  0  0  0  0  0
   22.5004  -11.7328   26.9907 H   0  0  0  0  0  0  0  0  0  0  0  0
   20.3450   -9.7088   26.2958 H   0  0  0  0  0  0  0  0  0  0  0  0
   20.2918   -9.0979   28.6537 H   0  0  0  0  0  0  0  0  0  0  0  0
   21.7333   -7.9148   27.0154 H   0  0  0  0  0  0  0  0  0  0  0  0
   22.0599   -6.7322   28.9328 H   0  0  0  0  0  0  0  0  0  0  0  0
   22.6857   -8.1786   29.8292 H   0  0  0  0  0  0  0  0  0  0  0  0
   24.8277  -10.7741   26.3435 H   0  0  0  0  0  0  0  0  0  0  0  0
   21.1728  -12.4773   25.3400 H   0  0  0  0  0  0  0  0  0  0  0  0
   21.4330   -9.8725   30.2452 H   0  0  0  0  0  0  0  0  0  0  0  0
   19.8338  -11.4601   28.3882 H   0  0  0  0  0  0  0  0  0  0  0  0
  1  2  1  0
  1  7  1  0
  1 10  1  0
  2  3  1  0
  2  8  1  0
  3  4  1  0
  3 16  1  0
  4  5  1  0
  4  9  1  0
  5  6  1  0
  5 10  1  0
  6 11  1  0
 11 12  1  0
 12 13  2  0
 12 14  2  0
 12 15  1  1
  1 17  1  6
  2 18  1  1
  3 19  1  6
  4 20  1  1
  5 21  1  6
  6 22  1  0
  6 23  1  0
  7 24  1  0
  8 25  1  0
  9 26  1  0
 16 27  1  0
M  CHG  1  15  -1
M  END
>  <filename_input>  (19) 
7OZC_G6S_docked.sdf

>  <pdb_id>  (19) 
7OZC_G6S

>  <pose_rank>  (19) 
18

>  <num_atoms_heavy>  (19) 
16

>  <num_torsions>  (19) 
3

>  <pose>  (19) 
[23.088917605413442, -9.891751722448323, 25.995003531552257, 0.1918395175014193, 0.9476620665968976, -0.9190886532194161, -2.4969395199082753, -1.3881736372798577, 1.7640406171508773]

>  <energy>  (19) 
-93.51741941544054

>  <inter_energy>  (19) 
-91.99914639051035

>  <intra_energy>  (19) 
0.5021695975958078

>  <rmsd>  (19) 
13.2749

>  <sdf_rank>  (19) 
0

$$$$

     RDKit          3D

 27 27  0  0  0  0  0  0  0  0999 V2000
   13.3389   -8.1230   12.1949 C   0  0  2  0  0  0  0  0  0  0  0  0
   13.3703   -9.6649   12.3443 C   0  0  1  0  0  0  0  0  0  0  0  0
   12.2271  -10.3069   11.5330 C   0  0  2  0  0  0  0  0  0  0  0  0
   10.8534   -9.6980   11.8754 C   0  0  2  0  0  0  0  0  0  0  0  0
   10.9962   -8.1663   11.6875 C   0  0  1  0  0  0  0  0  0  0  0  0
    9.7075   -7.4340   11.9736 C   0  0  0  0  0  0  0  0  0  0  0  0
   14.2449   -7.5484   13.1205 O   0  0  0  0  0  0  0  0  0  0  0  0
   14.6249  -10.1597   11.9185 O   0  0  0  0  0  0  0  0  0  0  0  0
   10.3247  -10.0022   13.2092 O   0  0  0  0  0  0  0  0  0  0  0  0
   12.0236   -7.6144   12.4779 O   0  0  0  0  0  0  0  0  0  0  0  0
    8.7249   -7.6643   10.9465 O   0  0  0  0  0  0  0  0  0  0  0  0
    7.2100   -7.6313   11.3507 S   0  0  1  0  0  0  0  0  0  0  0  0
    7.1869   -7.1739   12.7539 O   0  0  0  0  0  0  0  0  0  0  0  0
    6.6921   -6.6304   10.4271 O   0  0  0  0  0  0  0  0  0  0  0  0
    6.6217   -8.9838   11.1776 O   0  0  0  0  0  0  0  0  0  0  0  0
   12.1898  -11.7308   11.7298 O   0  0  0  0  0  0  0  0  0  0  0  0
   13.6168   -7.8654   11.1622 H   0  0  0  0  0  0  0  0  0  0  0  0
   13.2268   -9.9272   13.4029 H   0  0  0  0  0  0  0  0  0  0  0  0
   12.4373  -10.0931   10.4747 H   0  0  0  0  0  0  0  0  0  0  0  0
   10.1132  -10.1563   11.2030 H   0  0  0  0  0  0  0  0  0  0  0  0
   11.2595   -8.0308   10.6280 H   0  0  0  0  0  0  0  0  0  0  0  0
    9.3054   -7.7827   12.9363 H   0  0  0  0  0  0  0  0  0  0  0  0
    9.9250   -6.3561   12.0047 H   0  0  0  0  0  0  0  0  0  0  0  0
   13.9410   -7.7411   14.0427 H   0  0  0  0  0  0  0  0  0  0  0  0
   15.1790  -10.3783   12.7092 H   0  0  0  0  0  0  0  0  0  0  0  0
   10.9415   -9.6473   13.8974 H   0  0  0  0  0  0  0  0  0  0  0  0
   12.1846  -11.9299   12.6996 H   0  0  0  0  0  0  0  0  0  0  0  0
  1  2  1  0
  1  7  1  0
  1 10  1  0
  2  3  1  0
  2  8  1  0
  3  4  1  0
  3 16  1  0
  4  5  1  0
  4  9  1  0
  5  6  1  0
  5 10  1  0
  6 11  1  0
 11 12  1  0
 12 13  2  0
 12 14  2  0
 12 15  1  1
  1 17  1  6
  2 18  1  1
  3 19  1  6
  4 20  1  6
  5 21  1  6
  6 22  1  0
  6 23  1  0
  7 24  1  0
  8 25  1  0
  9 26  1  0
 16 27  1  0
M  CHG  1  15  -1
M  END
>  <filename_input>  (20) 
7OZC_G6S_docked.sdf

>  <pdb_id>  (20) 
7OZC_G6S

>  <pose_rank>  (20) 
19

>  <num_atoms_heavy>  (20) 
16

>  <num_torsions>  (20) 
3

>  <pose>  (20) 
[13.338855265329302, -8.123006491214495, 12.194857629819333, 0.468722924541961, 5.635129829120073, 2.3445868692525305, -0.07969171683038802, -0.7462078539135394, -1.035989246161766]

>  <energy>  (20) 
-128.06032877316818

>  <inter_energy>  (20) 
-118.17692370094385

>  <intra_energy>  (20) 
0.0

>  <rmsd>  (20) 
11.6501

>  <sdf_rank>  (20) 
0

$$$$

     RDKit          3D

 27 27  0  0  0  0  0  0  0  0999 V2000
   14.2834   -7.8906   12.3468 C   0  0  2  0  0  0  0  0  0  0  0  0
   14.7938   -9.3501   12.2458 C   0  0  1  0  0  0  0  0  0  0  0  0
   13.6066  -10.3292   12.1506 C   0  0  2  0  0  0  0  0  0  0  0  0
   12.5883  -10.1263   13.2894 C   0  0  2  0  0  0  0  0  0  0  0  0
   12.1926   -8.6282   13.2589 C   0  0  1  0  0  0  0  0  0  0  0  0
   11.1752   -8.2853   14.3202 C   0  0  0  0  0  0  0  0  0  0  0  0
   15.3716   -7.0391   12.6606 O   0  0  0  0  0  0  0  0  0  0  0  0
   15.6421   -9.4818   11.1219 O   0  0  0  0  0  0  0  0  0  0  0  0
   13.0347  -10.5098   14.6329 O   0  0  0  0  0  0  0  0  0  0  0  0
   13.3017   -7.7696   13.3910 O   0  0  0  0  0  0  0  0  0  0  0  0
    9.9939   -7.6892   13.7524 O   0  0  0  0  0  0  0  0  0  0  0  0
    8.9361   -8.6345   13.0838 S   0  0  1  0  0  0  0  0  0  0  0  0
    8.7091   -9.7213   14.0565 O   0  0  0  0  0  0  0  0  0  0  0  0
    7.7916   -7.7405   12.9660 O   0  0  0  0  0  0  0  0  0  0  0  0
    9.4624   -9.1265   11.7852 O   0  0  0  0  0  0  0  0  0  0  0  0
   14.0610  -11.6935   12.1427 O   0  0  0  0  0  0  0  0  0  0  0  0
   13.8307   -7.6104   11.3842 H   0  0  0  0  0  0  0  0  0  0  0  0
   15.3664   -9.5950   13.1525 H   0  0  0  0  0  0  0  0  0  0  0  0
   13.0981  -10.1115   11.1998 H   0  0  0  0  0  0  0  0  0  0  0  0
   11.7451  -10.8076   13.1026 H   0  0  0  0  0  0  0  0  0  0  0  0
   11.7447   -8.4703   12.2667 H   0  0  0  0  0  0  0  0  0  0  0  0
   10.8902   -9.2054   14.8514 H   0  0  0  0  0  0  0  0  0  0  0  0
   11.6297   -7.5576   15.0086 H   0  0  0  0  0  0  0  0  0  0  0  0
   15.4622   -6.9681   13.6439 H   0  0  0  0  0  0  0  0  0  0  0  0
   16.5730   -9.6264   11.4263 H   0  0  0  0  0  0  0  0  0  0  0  0
   12.4866  -10.0389   15.3096 H   0  0  0  0  0  0  0  0  0  0  0  0
   14.1668  -12.0114   13.0743 H   0  0  0  0  0  0  0  0  0  0  0  0
  1  2  1  0
  1  7  1  0
  1 10  1  0
  2  3  1  0
  2  8  1  0
  3  4  1  0
  3 16  1  0
  4  5  1  0
  4  9  1  0
  5  6  1  0
  5 10  1  0
  6 11  1  0
 11 12  1  0
 12 13  2  0
 12 14  2  0
 12 15  1  6
  1 17  1  6
  2 18  1  1
  3 19  1  6
  4 20  1  6
  5 21  1  6
  6 22  1  0
  6 23  1  0
  7 24  1  0
  8 25  1  0
  9 26  1  0
 16 27  1  0
M  CHG  1  15  -1
M  END
>  <filename_input>  (21) 
7OZC_G6S_docked.sdf

>  <pdb_id>  (21) 
7OZC_G6S

>  <pose_rank>  (21) 
20

>  <num_atoms_heavy>  (21) 
16

>  <num_torsions>  (21) 
3

>  <pose>  (21) 
[14.283393746034546, -7.890616347023781, 12.34683118628722, -0.4138147445988465, -5.144079176651797, -2.5428847072541814, -0.9928192884340362, -1.9852276332846956, -0.3187570157656504]

>  <energy>  (21) 
-107.93931878721435

>  <inter_energy>  (21) 
-122.44311274693004

>  <intra_energy>  (21) 
6.283546208205561

>  <rmsd>  (21) 
10.6691

>  <sdf_rank>  (21) 
0

$$$$

     RDKit          3D

 27 27  0  0  0  0  0  0  0  0999 V2000
   20.9097   -7.9033   27.3580 C   0  0  2  0  0  0  0  0  0  0  0  0
   21.6410   -9.2693   27.3634 C   0  0  1  0  0  0  0  0  0  0  0  0
   22.9400   -9.1801   28.1891 C   0  0  2  0  0  0  0  0  0  0  0  0
   23.8432   -8.0169   27.7349 C   0  0  2  0  0  0  0  0  0  0  0  0
   22.9644   -6.7410   27.7756 C   0  0  1  0  0  0  0  0  0  0  0  0
   23.7321   -5.5065   27.3684 C   0  0  0  0  0  0  0  0  0  0  0  0
   19.8520   -7.9468   26.4161 O   0  0  0  0  0  0  0  0  0  0  0  0
   20.7845  -10.2666   27.8846 O   0  0  0  0  0  0  0  0  0  0  0  0
   24.4727   -8.1621   26.4182 O   0  0  0  0  0  0  0  0  0  0  0  0
   21.8102   -6.8493   26.9751 O   0  0  0  0  0  0  0  0  0  0  0  0
   22.9660   -4.3070   27.5869 O   0  0  0  0  0  0  0  0  0  0  0  0
   23.2389   -3.4821   28.8925 S   0  0  1  0  0  0  0  0  0  0  0  0
   24.6183   -3.8230   29.2924 O   0  0  0  0  0  0  0  0  0  0  0  0
   23.1212   -2.1176   28.3953 O   0  0  0  0  0  0  0  0  0  0  0  0
   22.2353   -3.8439   29.9257 O   0  0  0  0  0  0  0  0  0  0  0  0
   23.6741  -10.4154   28.1330 O   0  0  0  0  0  0  0  0  0  0  0  0
   20.5259   -7.7075   28.3702 H   0  0  0  0  0  0  0  0  0  0  0  0
   21.9104   -9.5376   26.3312 H   0  0  0  0  0  0  0  0  0  0  0  0
   22.6364   -8.9864   29.2284 H   0  0  0  0  0  0  0  0  0  0  0  0
   24.7030   -7.9806   28.4201 H   0  0  0  0  0  0  0  0  0  0  0  0
   22.6530   -6.6409   28.8259 H   0  0  0  0  0  0  0  0  0  0  0  0
   24.6579   -5.4511   27.9599 H   0  0  0  0  0  0  0  0  0  0  0  0
   23.9550   -5.5802   26.2937 H   0  0  0  0  0  0  0  0  0  0  0  0
   18.9858   -7.9824   26.8940 H   0  0  0  0  0  0  0  0  0  0  0  0
   20.8088  -10.2384   28.8739 H   0  0  0  0  0  0  0  0  0  0  0  0
   25.4308   -8.3832   26.5331 H   0  0  0  0  0  0  0  0  0  0  0  0
   23.8612  -10.7301   29.0528 H   0  0  0  0  0  0  0  0  0  0  0  0
  1  2  1  0
  1  7  1  0
  1 10  1  0
  2  3  1  0
  2  8  1  0
  3  4  1  0
  3 16  1  0
  4  5  1  0
  4  9  1  0
  5  6  1  0
  5 10  1  0
  6 11  1  0
 11 12  1  0
 12 13  2  0
 12 14  2  0
 12 15  1  1
  1 17  1  1
  2 18  1  6
  3 19  1  1
  4 20  1  1
  5 21  1  1
  6 22  1  0
  6 23  1  0
  7 24  1  0
  8 25  1  0
  9 26  1  0
 16 27  1  0
M  CHG  1  15  -1
M  END
>  <filename_input>  (22) 
7OZC_G6S_docked.sdf

>  <pdb_id>  (22) 
7OZC_G6S

>  <pose_rank>  (22) 
21

>  <num_atoms_heavy>  (22) 
16

>  <num_torsions>  (22) 
3

>  <pose>  (22) 
[20.909686134337782, -7.9032945740078375, 27.358045011952775, -0.8663511407157177, 2.8884265440952435, -0.08373451913954716, -1.834179043772874, -1.646463858876563, -0.7386980367156462]

>  <energy>  (22) 
-102.7854904804903

>  <inter_energy>  (22) 
-100.07882215752971

>  <intra_energy>  (22) 
0.0

>  <rmsd>  (22) 
12.5109

>  <sdf_rank>  (22) 
0

$$$$

     RDKit          3D

 27 27  0  0  0  0  0  0  0  0999 V2000
   10.7898   -8.7662   28.1294 C   0  0  2  0  0  0  0  0  0  0  0  0
   10.6981  -10.2108   27.5768 C   0  0  1  0  0  0  0  0  0  0  0  0
    9.9080  -10.2306   26.2529 C   0  0  2  0  0  0  0  0  0  0  0  0
    8.5321   -9.5486   26.3826 C   0  0  2  0  0  0  0  0  0  0  0  0
    8.7994   -8.1326   26.9529 C   0  0  1  0  0  0  0  0  0  0  0  0
    7.5284   -7.3346   27.1171 C   0  0  0  0  0  0  0  0  0  0  0  0
   11.3146   -8.8050   29.4450 O   0  0  0  0  0  0  0  0  0  0  0  0
   11.9989  -10.7336   27.3907 O   0  0  0  0  0  0  0  0  0  0  0  0
    7.5367  -10.2495   27.2006 O   0  0  0  0  0  0  0  0  0  0  0  0
    9.4858   -8.1618   28.1829 O   0  0  0  0  0  0  0  0  0  0  0  0
    7.7992   -5.9797   27.5222 O   0  0  0  0  0  0  0  0  0  0  0  0
    7.0763   -5.4311   28.8013 S   0  0  1  0  0  0  0  0  0  0  0  0
    7.3979   -3.9913   28.8481 O   0  0  0  0  0  0  0  0  0  0  0  0
    5.6804   -5.6824   28.4676 O   0  0  0  0  0  0  0  0  0  0  0  0
    7.5599   -6.1669   29.9972 O   0  0  0  0  0  0  0  0  0  0  0  0
    9.7401  -11.5751   25.7712 O   0  0  0  0  0  0  0  0  0  0  0  0
   11.4394   -8.1776   27.4650 H   0  0  0  0  0  0  0  0  0  0  0  0
   10.1635  -10.8410   28.3028 H   0  0  0  0  0  0  0  0  0  0  0  0
   10.5024   -9.6573   25.5263 H   0  0  0  0  0  0  0  0  0  0  0  0
    8.0730   -9.5406   25.3831 H   0  0  0  0  0  0  0  0  0  0  0  0
    9.4400   -7.6394   26.2069 H   0  0  0  0  0  0  0  0  0  0  0  0
    6.9907   -7.3192   26.1576 H   0  0  0  0  0  0  0  0  0  0  0  0
    6.9223   -7.8124   27.9009 H   0  0  0  0  0  0  0  0  0  0  0  0
   10.5726   -8.7501   30.0981 H   0  0  0  0  0  0  0  0  0  0  0  0
   12.4164  -10.9014   28.2726 H   0  0  0  0  0  0  0  0  0  0  0  0
    7.7384  -10.1075   28.1593 H   0  0  0  0  0  0  0  0  0  0  0  0
    9.6628  -12.1939   26.5401 H   0  0  0  0  0  0  0  0  0  0  0  0
  1  2  1  0
  1  7  1  0
  1 10  1  0
  2  3  1  0
  2  8  1  0
  3  4  1  0
  3 16  1  0
  4  5  1  0
  4  9  1  0
  5  6  1  0
  5 10  1  0
  6 11  1  0
 11 12  1  0
 12 13  2  0
 12 14  2  0
 12 15  1  1
  1 17  1  6
  2 18  1  1
  3 19  1  6
  4 20  1  6
  5 21  1  6
  6 22  1  0
  6 23  1  0
  7 24  1  0
  8 25  1  0
  9 26  1  0
 16 27  1  0
M  CHG  1  15  -1
M  END
>  <filename_input>  (23) 
7OZC_G6S_docked.sdf

>  <pdb_id>  (23) 
7OZC_G6S

>  <pose_rank>  (23) 
22

>  <num_atoms_heavy>  (23) 
16

>  <num_torsions>  (23) 
3

>  <pose>  (23) 
[10.789767673333731, -8.766191276460328, 28.129409825776555, -3.5211707718485283, 3.94252118421011, 1.8045281462782177, -1.875923392958832, 0.7118379359294368, 2.1134538158843235]

>  <energy>  (23) 
-120.55435699779687

>  <inter_energy>  (23) 
-106.08624389905793

>  <intra_energy>  (23) 
0.22468385238784488

>  <rmsd>  (23) 
12.3441

>  <sdf_rank>  (23) 
0

$$$$

     RDKit          3D

 27 27  0  0  0  0  0  0  0  0999 V2000
   23.7811    0.5303   11.7930 C   0  0  2  0  0  0  0  0  0  0  0  0
   25.0038    0.4347   12.7398 C   0  0  1  0  0  0  0  0  0  0  0  0
   24.6133    0.8677   14.1672 C   0  0  2  0  0  0  0  0  0  0  0  0
   23.9393    2.2533   14.1944 C   0  0  2  0  0  0  0  0  0  0  0  0
   22.7563    2.1824   13.1957 C   0  0  1  0  0  0  0  0  0  0  0  0
   21.9854    3.4788   13.1318 C   0  0  0  0  0  0  0  0  0  0  0  0
   24.2142    0.3501   10.4560 O   0  0  0  0  0  0  0  0  0  0  0  0
   25.5061   -0.8873   12.7380 O   0  0  0  0  0  0  0  0  0  0  0  0
   24.8014    3.3987   13.8849 O   0  0  0  0  0  0  0  0  0  0  0  0
   23.1627    1.8248   11.8950 O   0  0  0  0  0  0  0  0  0  0  0  0
   21.9531    4.0135   11.7952 O   0  0  0  0  0  0  0  0  0  0  0  0
   21.4884    5.4991   11.6034 S   0  0  1  0  0  0  0  0  0  0  0  0
   20.4902    5.4620   10.5166 O   0  0  0  0  0  0  0  0  0  0  0  0
   20.8913    5.7791   12.9026 O   0  0  0  0  0  0  0  0  0  0  0  0
   22.6628    6.3470   11.2759 O   0  0  0  0  0  0  0  0  0  0  0  0
   25.7571    0.8668   15.0388 O   0  0  0  0  0  0  0  0  0  0  0  0
   23.0556   -0.2458   12.0784 H   0  0  0  0  0  0  0  0  0  0  0  0
   25.7914    1.1135   12.3807 H   0  0  0  0  0  0  0  0  0  0  0  0
   23.8825    0.1291   14.5283 H   0  0  0  0  0  0  0  0  0  0  0  0
   23.6282    2.4479   15.2313 H   0  0  0  0  0  0  0  0  0  0  0  0
   22.0987    1.3916   13.5861 H   0  0  0  0  0  0  0  0  0  0  0  0
   20.9540    3.2973   13.4682 H   0  0  0  0  0  0  0  0  0  0  0  0
   22.4890    4.2097   13.7815 H   0  0  0  0  0  0  0  0  0  0  0  0
   25.1283   -0.0302   10.4536 H   0  0  0  0  0  0  0  0  0  0  0  0
   25.6238   -1.1969   13.6710 H   0  0  0  0  0  0  0  0  0  0  0  0
   25.1138    3.8138   14.7276 H   0  0  0  0  0  0  0  0  0  0  0  0
   25.4538    0.8670   15.9812 H   0  0  0  0  0  0  0  0  0  0  0  0
  1  2  1  0
  1  7  1  0
  1 10  1  0
  2  3  1  0
  2  8  1  0
  3  4  1  0
  3 16  1  0
  4  5  1  0
  4  9  1  0
  5  6  1  0
  5 10  1  0
  6 11  1  0
 11 12  1  0
 12 13  2  0
 12 14  2  0
 12 15  1  6
  1 17  1  1
  2 18  1  6
  3 19  1  1
  4 20  1  1
  5 21  1  1
  6 22  1  0
  6 23  1  0
  7 24  1  0
  8 25  1  0
  9 26  1  0
 16 27  1  0
M  CHG  1  15  -1
M  END
>  <filename_input>  (24) 
7OZC_G6S_docked.sdf

>  <pdb_id>  (24) 
7OZC_G6S

>  <pose_rank>  (24) 
23

>  <num_atoms_heavy>  (24) 
16

>  <num_torsions>  (24) 
3

>  <pose>  (24) 
[23.781050274348946, 0.5302591470870502, 11.79301086353718, 3.3310116568762056, -2.5247248828502857, 0.07037613342881027, 3.2997808117312664, 0.01909041256372651, 2.8242493447064563]

>  <energy>  (24) 
-100.46222688053767

>  <inter_energy>  (24) 
-97.99382928641977

>  <intra_energy>  (24) 
0.0

>  <rmsd>  (24) 
11.8141

>  <sdf_rank>  (24) 
0

$$$$

     RDKit          3D

 27 27  0  0  0  0  0  0  0  0999 V2000
   20.2905    3.2421   10.5983 C   0  0  2  0  0  0  0  0  0  0  0  0
   18.8078    3.3222   11.0411 C   0  0  1  0  0  0  0  0  0  0  0  0
   18.6010    4.4988   12.0158 C   0  0  2  0  0  0  0  0  0  0  0  0
   19.5813    4.4535   13.2041 C   0  0  2  0  0  0  0  0  0  0  0  0
   21.0028    4.3643   12.5934 C   0  0  1  0  0  0  0  0  0  0  0  0
   22.0777    4.3309   13.6530 C   0  0  0  0  0  0  0  0  0  0  0  0
   20.4994    2.0309    9.8932 O   0  0  0  0  0  0  0  0  0  0  0  0
   17.9777    3.4622    9.9048 O   0  0  0  0  0  0  0  0  0  0  0  0
   19.3731    3.3733   14.1741 O   0  0  0  0  0  0  0  0  0  0  0  0
   21.1612    3.2523   11.7430 O   0  0  0  0  0  0  0  0  0  0  0  0
   22.8045    5.5725   13.7134 O   0  0  0  0  0  0  0  0  0  0  0  0
   24.0353    5.7567   12.7591 S   0  0  1  0  0  0  0  0  0  0  0  0
   23.5687    6.6535   11.6836 O   0  0  0  0  0  0  0  0  0  0  0  0
   24.9908    6.4015   13.6505 O   0  0  0  0  0  0  0  0  0  0  0  0
   24.4721    4.4308   12.2526 O   0  0  0  0  0  0  0  0  0  0  0  0
   17.2485    4.5349   12.5031 O   0  0  0  0  0  0  0  0  0  0  0  0
   20.5131    4.1105    9.9610 H   0  0  0  0  0  0  0  0  0  0  0  0
   18.5377    2.3935   11.5651 H   0  0  0  0  0  0  0  0  0  0  0  0
   18.8045    5.4166   11.4446 H   0  0  0  0  0  0  0  0  0  0  0  0
   19.4159    5.3616   13.8023 H   0  0  0  0  0  0  0  0  0  0  0  0
   21.1157    5.2805   11.9951 H   0  0  0  0  0  0  0  0  0  0  0  0
   21.6090    4.1442   14.6305 H   0  0  0  0  0  0  0  0  0  0  0  0
   22.7871    3.5302   13.3968 H   0  0  0  0  0  0  0  0  0  0  0  0
   20.6270    1.2911   10.5386 H   0  0  0  0  0  0  0  0  0  0  0  0
   17.0444    3.6195   10.1953 H   0  0  0  0  0  0  0  0  0  0  0  0
   19.4431    3.7365   15.0924 H   0  0  0  0  0  0  0  0  0  0  0  0
   17.2543    4.5347   13.4931 H   0  0  0  0  0  0  0  0  0  0  0  0
  1  2  1  0
  1  7  1  0
  1 10  1  0
  2  3  1  0
  2  8  1  0
  3  4  1  0
  3 16  1  0
  4  5  1  0
  4  9  1  0
  5  6  1  0
  5 10  1  0
  6 11  1  0
 11 12  1  0
 12 13  2  0
 12 14  2  0
 12 15  1  6
  1 17  1  6
  2 18  1  1
  3 19  1  6
  4 20  1  1
  5 21  1  6
  6 22  1  0
  6 23  1  0
  7 24  1  0
  8 25  1  0
  9 26  1  0
 16 27  1  0
M  CHG  1  15  -1
M  END
>  <filename_input>  (25) 
7OZC_G6S_docked.sdf

>  <pdb_id>  (25) 
7OZC_G6S

>  <pose_rank>  (25) 
24

>  <num_atoms_heavy>  (25) 
16

>  <num_torsions>  (25) 
3

>  <pose>  (25) 
[20.290468029332512, 3.242062007086887, 10.598319570585332, -1.4037419563626963, -2.074828063195762, 3.2831636249075506, -0.7076895508920028, 1.404053641498426, 0.6547423263748527]

>  <energy>  (25) 
-113.34034124259898

>  <inter_energy>  (25) 
-103.4584002188879

>  <intra_energy>  (25) 
0.44160884920606147

>  <rmsd>  (25) 
12.3789

>  <sdf_rank>  (25) 
0

$$$$

     RDKit          3D

 27 27  0  0  0  0  0  0  0  0999 V2000
   18.2070   -1.2660   19.8820 C   0  0  2  0  0  0  0  0  0  0  0  0
   18.3540   -2.8040   19.9990 C   0  0  1  0  0  0  0  0  0  0  0  0
   17.1440   -3.5100   19.3550 C   0  0  2  0  0  0  0  0  0  0  0  0
   15.8020   -2.9910   19.9070 C   0  0  2  0  0  0  0  0  0  0  0  0
   15.8220   -1.4520   19.7260 C   0  0  1  0  0  0  0  0  0  0  0  0
   14.5480   -0.8040   20.2120 C   0  0  0  0  0  0  0  0  0  0  0  0
   19.2040   -0.6430   20.6730 O   0  0  0  0  0  0  0  0  0  0  0  0
   19.5590   -3.2160   19.3840 O   0  0  0  0  0  0  0  0  0  0  0  0
   15.4970   -3.3380   21.2990 O   0  0  0  0  0  0  0  0  0  0  0  0
   16.9200   -0.8430   20.3650 O   0  0  0  0  0  0  0  0  0  0  0  0
   13.4190   -1.1730   19.3980 O   0  0  0  0  0  0  0  0  0  0  0  0
   12.0870   -0.3630   19.5690 S   0  0  1  0  0  0  0  0  0  0  0  0
   12.3890    0.9980   19.0840 O   0  0  0  0  0  0  0  0  0  0  0  0
   11.1960   -1.0910   18.6750 O   0  0  0  0  0  0  0  0  0  0  0  0
   11.6730   -0.3860   20.9950 O   0  0  0  0  0  0  0  0  0  0  0  0
   17.2230   -4.9350   19.5310 O   0  0  0  0  0  0  0  0  0  0  0  0
   18.3121   -0.9836   18.8241 H   0  0  0  0  0  0  0  0  0  0  0  0
   18.3856   -3.0829   21.0626 H   0  0  0  0  0  0  0  0  0  0  0  0
   17.1812   -3.2753   18.2810 H   0  0  0  0  0  0  0  0  0  0  0  0
   14.9993   -3.4895   19.3438 H   0  0  0  0  0  0  0  0  0  0  0  0
   15.9161   -1.2921   18.6418 H   0  0  0  0  0  0  0  0  0  0  0  0
   14.3594   -1.1214   21.2482 H   0  0  0  0  0  0  0  0  0  0  0  0
   14.6731    0.2871   20.1507 H   0  0  0  0  0  0  0  0  0  0  0  0
   18.9943   -0.7740   21.6316 H   0  0  0  0  0  0  0  0  0  0  0  0
   20.2243   -3.4435   20.0810 H   0  0  0  0  0  0  0  0  0  0  0  0
   16.0132   -2.7507   21.9062 H   0  0  0  0  0  0  0  0  0  0  0  0
   17.2348   -5.1480   20.4978 H   0  0  0  0  0  0  0  0  0  0  0  0
  1  2  1  0
  1  7  1  0
  1 10  1  0
  2  3  1  0
  2  8  1  0
  3  4  1  0
  3 16  1  0
  4  5  1  0
  4  9  1  0
  5  6  1  0
  5 10  1  0
  6 11  1  0
 11 12  1  0
 12 13  2  0
 12 14  2  0
 12 15  1  1
  1 17  1  6
  2 18  1  1
  3 19  1  6
  4 20  1  6
  5 21  1  6
  6 22  1  0
  6 23  1  0
  7 24  1  0
  8 25  1  0
  9 26  1  0
 16 27  1  0
M  CHG  1  15  -1
M  END
>  <filename_input>  (26) 
7OZC_G6S_docked.sdf

>  <pdb_id>  (26) 
7OZC_G6S

>  <pose_rank>  (26) 
25

>  <num_atoms_heavy>  (26) 
16

>  <num_torsions>  (26) 
3

>  <pose>  (26) 
[18.207, -1.266, 19.882, 1e-06, 1e-06, 1e-06, 0.0, 0.0, 0.0]

>  <energy>  (26) 
-749.5999908095345

>  <inter_energy>  (26) 
-735.8542286645193

>  <intra_energy>  (26) 
0.0

>  <rmsd>  (26) 
0.0

>  <sdf_rank>  (26) 
0

$$$$
