
     RDKit          3D

 30 30  0  0  0  0  0  0  0  0999 V2000
  -20.5392  -44.3688   28.7032 C   0  0  0  0  0  0  0  0  0  0  0  0
  -18.5510  -43.3869   29.8375 C   0  0  0  0  0  0  0  0  0  0  0  0
  -17.8550  -42.2245   30.2726 C   0  0  1  0  0  0  0  0  0  0  0  0
  -18.8001  -41.0585   30.5696 C   0  0  2  0  0  0  0  0  0  0  0  0
  -19.7372  -40.8354   29.3805 C   0  0  2  0  0  0  0  0  0  0  0  0
  -20.8012  -39.7648   29.6975 C   0  0  1  0  0  0  0  0  0  0  0  0
  -21.3501  -39.1794   28.4031 C   0  0  1  0  0  0  0  0  0  0  0  0
  -21.3734  -37.6462   28.4680 C   0  0  0  0  0  0  0  0  0  0  0  0
  -18.0490  -39.8502   30.8269 O   0  0  0  0  0  0  0  0  0  0  0  0
  -20.0577  -45.5300   28.6442 O   0  0  0  0  0  0  0  0  0  0  0  0
  -21.6928  -44.1699   28.2460 O   0  0  0  0  0  0  0  0  0  0  0  0
  -17.0110  -42.4744   31.4118 O   0  0  0  0  0  0  0  0  0  0  0  0
  -20.4359  -42.0639   29.0813 O   0  0  0  0  0  0  0  0  0  0  0  0
  -19.8097  -43.2804   29.2292 C   0  0  0  0  0  0  0  0  0  0  0  0
  -21.8731  -40.4134   30.4044 O   0  0  0  0  0  0  0  0  0  0  0  0
  -20.5742  -39.5820   27.2645 O   0  0  0  0  0  0  0  0  0  0  0  0
  -20.2527  -37.1328   27.7372 O   0  0  0  0  0  0  0  0  0  0  0  0
  -18.0971  -44.3787   29.9797 H   0  0  0  0  0  0  0  0  0  0  0  0
  -17.2087  -41.9410   29.4288 H   0  0  0  0  0  0  0  0  0  0  0  0
  -19.3914  -41.3059   31.4636 H   0  0  0  0  0  0  0  0  0  0  0  0
  -19.1223  -40.5044   28.5307 H   0  0  0  0  0  0  0  0  0  0  0  0
  -20.3591  -38.9557   30.2975 H   0  0  0  0  0  0  0  0  0  0  0  0
  -22.3737  -39.5656   28.2887 H   0  0  0  0  0  0  0  0  0  0  0  0
  -22.3071  -37.2721   28.0228 H   0  0  0  0  0  0  0  0  0  0  0  0
  -21.3169  -37.3170   29.5161 H   0  0  0  0  0  0  0  0  0  0  0  0
  -17.9652  -39.7154   31.8041 H   0  0  0  0  0  0  0  0  0  0  0  0
  -17.5258  -42.3220   32.2436 H   0  0  0  0  0  0  0  0  0  0  0  0
  -21.7266  -40.3248   31.3794 H   0  0  0  0  0  0  0  0  0  0  0  0
  -19.7387  -40.0156   27.5711 H   0  0  0  0  0  0  0  0  0  0  0  0
  -19.5619  -36.8163   28.3719 H   0  0  0  0  0  0  0  0  0  0  0  0
  1 10  1  0
  1 11  2  0
  1 14  1  0
  2  3  1  0
  2 14  2  0
  3  4  1  0
  3 12  1  0
  4  5  1  0
  4  9  1  0
  5  6  1  0
  5 13  1  0
  6  7  1  0
  6 15  1  0
  7  8  1  0
  7 16  1  0
  8 17  1  0
 13 14  1  0
  2 18  1  0
  3 19  1  6
  4 20  1  1
  5 21  1  6
  6 22  1  1
  7 23  1  6
  8 24  1  0
  8 25  1  0
  9 26  1  0
 12 27  1  0
 15 28  1  0
 16 29  1  0
 17 30  1  0
M  CHG  1  10  -1
M  END
>  <filename_input>  (1) 
7P1F_KFN_docked.sdf

>  <pdb_id>  (1) 
7P1F_KFN

>  <pose_rank>  (1) 
0

>  <num_atoms_heavy>  (1) 
17

>  <num_torsions>  (1) 
4

>  <pose>  (1) 
[-18.551029318768414, -43.3869182592852, 29.837451203535238, -4.794454112095971, -0.8777122402010109, 3.827725855424084, -0.13179012524353026, -6.632785265727474, 0.9254823969051126, 0.7086584778895388]

>  <energy>  (1) 
-829.2797911164821

>  <inter_energy>  (1) 
-819.1452238445235

>  <intra_energy>  (1) 
3.092645711599108

>  <rmsd>  (1) 
0.834141

>  <sdf_rank>  (1) 
0

$$$$

     RDKit          3D

 30 30  0  0  0  0  0  0  0  0999 V2000
  -21.0146  -44.4390   29.7850 C   0  0  0  0  0  0  0  0  0  0  0  0
  -18.9369  -43.0868   30.0262 C   0  0  0  0  0  0  0  0  0  0  0  0
  -18.2568  -41.8582   29.7961 C   0  0  1  0  0  0  0  0  0  0  0  0
  -19.2152  -40.6674   29.7292 C   0  0  2  0  0  0  0  0  0  0  0  0
  -20.3460  -40.9673   28.7426 C   0  0  2  0  0  0  0  0  0  0  0  0
  -21.4119  -39.8526   28.7548 C   0  0  1  0  0  0  0  0  0  0  0  0
  -22.8003  -40.4637   28.8904 C   0  0  1  0  0  0  0  0  0  0  0  0
  -22.9296  -41.2279   30.2150 C   0  0  0  0  0  0  0  0  0  0  0  0
  -18.5129  -39.4744   29.3119 O   0  0  0  0  0  0  0  0  0  0  0  0
  -21.2053  -44.9938   30.8984 O   0  0  0  0  0  0  0  0  0  0  0  0
  -21.4624  -44.9934   28.7499 O   0  0  0  0  0  0  0  0  0  0  0  0
  -17.2242  -41.6030   30.7661 O   0  0  0  0  0  0  0  0  0  0  0  0
  -21.0021  -42.1970   29.1220 O   0  0  0  0  0  0  0  0  0  0  0  0
  -20.2820  -43.2384   29.6612 C   0  0  0  0  0  0  0  0  0  0  0  0
  -21.1574  -39.0206   29.9003 O   0  0  0  0  0  0  0  0  0  0  0  0
  -23.8305  -39.4658   28.8301 O   0  0  0  0  0  0  0  0  0  0  0  0
  -24.0144  -42.1586   30.1108 O   0  0  0  0  0  0  0  0  0  0  0  0
  -18.4019  -43.9259   30.4951 H   0  0  0  0  0  0  0  0  0  0  0  0
  -17.7765  -41.9726   28.8131 H   0  0  0  0  0  0  0  0  0  0  0  0
  -19.6357  -40.4993   30.7317 H   0  0  0  0  0  0  0  0  0  0  0  0
  -19.9006  -41.0411   27.7395 H   0  0  0  0  0  0  0  0  0  0  0  0
  -21.3655  -39.2723   27.8214 H   0  0  0  0  0  0  0  0  0  0  0  0
  -22.9270  -41.1552   28.0445 H   0  0  0  0  0  0  0  0  0  0  0  0
  -21.9955  -41.7713   30.4203 H   0  0  0  0  0  0  0  0  0  0  0  0
  -23.1229  -40.5211   31.0354 H   0  0  0  0  0  0  0  0  0  0  0  0
  -18.2160  -38.9700   30.1103 H   0  0  0  0  0  0  0  0  0  0  0  0
  -17.5980  -41.6954   31.6782 H   0  0  0  0  0  0  0  0  0  0  0  0
  -21.3165  -39.5405   30.7277 H   0  0  0  0  0  0  0  0  0  0  0  0
  -24.0955  -39.2091   29.7488 H   0  0  0  0  0  0  0  0  0  0  0  0
  -24.3156  -42.4171   31.0178 H   0  0  0  0  0  0  0  0  0  0  0  0
  1 10  1  0
  1 11  2  0
  1 14  1  0
  2  3  1  0
  2 14  2  0
  3  4  1  0
  3 12  1  0
  4  5  1  0
  4  9  1  0
  5  6  1  0
  5 13  1  0
  6  7  1  0
  6 15  1  0
  7  8  1  0
  7 16  1  0
  8 17  1  0
 13 14  1  0
  2 18  1  0
  3 19  1  6
  4 20  1  1
  5 21  1  6
  6 22  1  6
  7 23  1  6
  8 24  1  0
  8 25  1  0
  9 26  1  0
 12 27  1  0
 15 28  1  0
 16 29  1  0
 17 30  1  0
M  CHG  1  10  -1
M  END
>  <filename_input>  (2) 
7P1F_KFN_docked.sdf

>  <pdb_id>  (2) 
7P1F_KFN

>  <pose_rank>  (2) 
1

>  <num_atoms_heavy>  (2) 
17

>  <num_torsions>  (2) 
4

>  <pose>  (2) 
[-18.936865500777127, -43.0868436574315, 30.02622423942963, -6.076185046525178, 2.7916326676864602, -0.510372924155768, 7.318350337703579, 0.8915035220130342, -8.252393363211766, 2.4364710544300396]

>  <energy>  (2) 
-437.29552660738875

>  <inter_energy>  (2) 
-509.8827657408829

>  <intra_energy>  (2) 
61.843092143146514

>  <rmsd>  (2) 
1.94675

>  <sdf_rank>  (2) 
0

$$$$

     RDKit          3D

 30 30  0  0  0  0  0  0  0  0999 V2000
  -19.6035  -43.4323   29.5987 C   0  0  0  0  0  0  0  0  0  0  0  0
  -22.0742  -43.1961   29.8074 C   0  0  0  0  0  0  0  0  0  0  0  0
  -23.2064  -42.3388   29.8981 C   0  0  1  0  0  0  0  0  0  0  0  0
  -22.9762  -40.9965   29.2008 C   0  0  2  0  0  0  0  0  0  0  0  0
  -21.6643  -40.3776   29.6887 C   0  0  2  0  0  0  0  0  0  0  0  0
  -21.3228  -39.0947   28.9036 C   0  0  1  0  0  0  0  0  0  0  0  0
  -19.9546  -38.5763   29.3264 C   0  0  1  0  0  0  0  0  0  0  0  0
  -19.0943  -39.7144   29.8920 C   0  0  0  0  0  0  0  0  0  0  0  0
  -24.0692  -40.0900   29.4727 O   0  0  0  0  0  0  0  0  0  0  0  0
  -18.5424  -43.0434   30.1524 O   0  0  0  0  0  0  0  0  0  0  0  0
  -19.5929  -44.5214   28.9718 O   0  0  0  0  0  0  0  0  0  0  0  0
  -24.4100  -42.9509   29.3988 O   0  0  0  0  0  0  0  0  0  0  0  0
  -20.5837  -41.3131   29.4794 O   0  0  0  0  0  0  0  0  0  0  0  0
  -20.7889  -42.6658   29.6276 C   0  0  0  0  0  0  0  0  0  0  0  0
  -21.2773  -39.4387   27.5076 O   0  0  0  0  0  0  0  0  0  0  0  0
  -19.2535  -37.9671   28.2319 O   0  0  0  0  0  0  0  0  0  0  0  0
  -17.7303  -39.5018   29.5070 O   0  0  0  0  0  0  0  0  0  0  0  0
  -22.2088  -44.2854   29.8790 H   0  0  0  0  0  0  0  0  0  0  0  0
  -23.3431  -42.1521   30.9735 H   0  0  0  0  0  0  0  0  0  0  0  0
  -22.9206  -41.1702   28.1160 H   0  0  0  0  0  0  0  0  0  0  0  0
  -21.7874  -40.1361   30.7548 H   0  0  0  0  0  0  0  0  0  0  0  0
  -22.0763  -38.3176   29.0992 H   0  0  0  0  0  0  0  0  0  0  0  0
  -20.1286  -37.8164   30.1024 H   0  0  0  0  0  0  0  0  0  0  0  0
  -19.1707  -39.7246   30.9893 H   0  0  0  0  0  0  0  0  0  0  0  0
  -19.4465  -40.6789   29.4974 H   0  0  0  0  0  0  0  0  0  0  0  0
  -24.1836  -39.9951   30.4515 H   0  0  0  0  0  0  0  0  0  0  0  0
  -24.9744  -43.2380   30.1599 H   0  0  0  0  0  0  0  0  0  0  0  0
  -21.1483  -40.4157   27.4126 H   0  0  0  0  0  0  0  0  0  0  0  0
  -18.5551  -37.3602   28.5842 H   0  0  0  0  0  0  0  0  0  0  0  0
  -17.1685  -39.4142   30.3174 H   0  0  0  0  0  0  0  0  0  0  0  0
  1 10  1  0
  1 11  2  0
  1 14  1  0
  2  3  1  0
  2 14  2  0
  3  4  1  0
  3 12  1  0
  4  5  1  0
  4  9  1  0
  5  6  1  0
  5 13  1  0
  6  7  1  0
  6 15  1  0
  7  8  1  0
  7 16  1  0
  8 17  1  0
 13 14  1  0
  2 18  1  0
  3 19  1  1
  4 20  1  6
  5 21  1  1
  6 22  1  6
  7 23  1  1
  8 24  1  0
  8 25  1  0
  9 26  1  0
 12 27  1  0
 15 28  1  0
 16 29  1  0
 17 30  1  0
M  CHG  1  10  -1
M  END
>  <filename_input>  (3) 
7P1F_KFN_docked.sdf

>  <pdb_id>  (3) 
7P1F_KFN

>  <pose_rank>  (3) 
2

>  <num_atoms_heavy>  (3) 
17

>  <num_torsions>  (3) 
4

>  <pose>  (3) 
[-22.074207815312057, -43.196050917465925, 29.807397851591205, -0.7366712206078032, 3.6521982748060435, -0.15595026564100478, -8.751062649222208, -6.163750870403652, 3.6612755633878877, 1.453346940841422]

>  <energy>  (3) 
-340.4996469981791

>  <inter_energy>  (3) 
-396.3291291342766

>  <intra_energy>  (3) 
62.762563435904084

>  <rmsd>  (3) 
3.81331

>  <sdf_rank>  (3) 
0

$$$$

     RDKit          3D

 30 30  0  0  0  0  0  0  0  0999 V2000
  -20.2489  -43.8437   29.1865 C   0  0  0  0  0  0  0  0  0  0  0  0
  -18.3711  -42.6900   30.3469 C   0  0  0  0  0  0  0  0  0  0  0  0
  -17.6354  -41.4919   30.5666 C   0  0  1  0  0  0  0  0  0  0  0  0
  -18.4901  -40.2394   30.3622 C   0  0  2  0  0  0  0  0  0  0  0  0
  -19.2028  -40.3136   29.0099 C   0  0  2  0  0  0  0  0  0  0  0  0
  -20.1873  -39.1402   28.8291 C   0  0  1  0  0  0  0  0  0  0  0  0
  -20.9316  -39.2861   27.5085 C   0  0  1  0  0  0  0  0  0  0  0  0
  -22.4454  -39.3735   27.7457 C   0  0  0  0  0  0  0  0  0  0  0  0
  -17.6679  -39.0511   30.4110 O   0  0  0  0  0  0  0  0  0  0  0  0
  -19.7053  -44.9648   29.0093 O   0  0  0  0  0  0  0  0  0  0  0  0
  -21.4915  -43.7437   29.0275 O   0  0  0  0  0  0  0  0  0  0  0  0
  -17.0093  -41.4524   31.8624 O   0  0  0  0  0  0  0  0  0  0  0  0
  -19.9690  -41.5360   28.9362 O   0  0  0  0  0  0  0  0  0  0  0  0
  -19.5021  -42.6923   29.5183 C   0  0  0  0  0  0  0  0  0  0  0  0
  -21.1382  -39.2009   29.9067 O   0  0  0  0  0  0  0  0  0  0  0  0
  -20.6653  -38.1889   26.6220 O   0  0  0  0  0  0  0  0  0  0  0  0
  -23.1262  -38.8108   26.6172 O   0  0  0  0  0  0  0  0  0  0  0  0
  -18.0494  -43.6234   30.8318 H   0  0  0  0  0  0  0  0  0  0  0  0
  -16.8400  -41.4969   29.8068 H   0  0  0  0  0  0  0  0  0  0  0  0
  -19.2357  -40.1885   31.1694 H   0  0  0  0  0  0  0  0  0  0  0  0
  -18.4323  -40.2732   28.2259 H   0  0  0  0  0  0  0  0  0  0  0  0
  -19.6431  -38.1842   28.8299 H   0  0  0  0  0  0  0  0  0  0  0  0
  -20.5710  -40.2144   27.0414 H   0  0  0  0  0  0  0  0  0  0  0  0
  -22.7398  -40.4264   27.8670 H   0  0  0  0  0  0  0  0  0  0  0  0
  -22.7122  -38.8176   28.6567 H   0  0  0  0  0  0  0  0  0  0  0  0
  -17.4982  -38.8058   31.3550 H   0  0  0  0  0  0  0  0  0  0  0  0
  -17.7043  -41.4962   32.5661 H   0  0  0  0  0  0  0  0  0  0  0  0
  -20.6586  -39.1703   30.7722 H   0  0  0  0  0  0  0  0  0  0  0  0
  -20.4681  -37.3765   27.1523 H   0  0  0  0  0  0  0  0  0  0  0  0
  -23.8495  -38.2129   26.9326 H   0  0  0  0  0  0  0  0  0  0  0  0
  1 10  1  0
  1 11  2  0
  1 14  1  0
  2  3  1  0
  2 14  2  0
  3  4  1  0
  3 12  1  0
  4  5  1  0
  4  9  1  0
  5  6  1  0
  5 13  1  0
  6  7  1  0
  6 15  1  0
  7  8  1  0
  7 16  1  0
  8 17  1  0
 13 14  1  0
  2 18  1  0
  3 19  1  6
  4 20  1  1
  5 21  1  6
  6 22  1  6
  7 23  1  6
  8 24  1  0
  8 25  1  0
  9 26  1  0
 12 27  1  0
 15 28  1  0
 16 29  1  0
 17 30  1  0
M  CHG  1  10  -1
M  END
>  <filename_input>  (4) 
7P1F_KFN_docked.sdf

>  <pdb_id>  (4) 
7P1F_KFN

>  <pose_rank>  (4) 
3

>  <num_atoms_heavy>  (4) 
17

>  <num_torsions>  (4) 
4

>  <pose>  (4) 
[-18.371137264213456, -42.68996260034434, 30.346861508739117, -0.21285192674290004, -0.1680757136004807, -0.12879937979760575, -6.9407527968203055, 0.08340236906119937, -7.226497972494042, 1.5492480151296875]

>  <energy>  (4) 
-653.3455747700532

>  <inter_energy>  (4) 
-655.4894006184608

>  <intra_energy>  (4) 
0.3208149157291477

>  <rmsd>  (4) 
1.10623

>  <sdf_rank>  (4) 
0

$$$$

     RDKit          3D

 30 30  0  0  0  0  0  0  0  0999 V2000
  -17.4139  -39.6894   31.0891 C   0  0  0  0  0  0  0  0  0  0  0  0
  -18.0420  -42.0080   30.4309 C   0  0  0  0  0  0  0  0  0  0  0  0
  -19.0427  -42.9073   29.9674 C   0  0  1  0  0  0  0  0  0  0  0  0
  -20.1044  -42.2070   29.1169 C   0  0  2  0  0  0  0  0  0  0  0  0
  -20.6402  -40.9825   29.8623 C   0  0  2  0  0  0  0  0  0  0  0  0
  -21.6062  -40.1663   28.9794 C   0  0  1  0  0  0  0  0  0  0  0  0
  -23.0436  -40.4109   29.4193 C   0  0  1  0  0  0  0  0  0  0  0  0
  -23.9734  -40.5131   28.2026 C   0  0  0  0  0  0  0  0  0  0  0  0
  -21.1948  -43.1097   28.8229 O   0  0  0  0  0  0  0  0  0  0  0  0
  -16.9873  -39.7481   32.2717 O   0  0  0  0  0  0  0  0  0  0  0  0
  -17.0468  -38.7324   30.3620 O   0  0  0  0  0  0  0  0  0  0  0  0
  -18.4951  -44.0259   29.2453 O   0  0  0  0  0  0  0  0  0  0  0  0
  -19.5405  -40.1152   30.2161 O   0  0  0  0  0  0  0  0  0  0  0  0
  -18.3191  -40.6408   30.5704 C   0  0  0  0  0  0  0  0  0  0  0  0
  -21.2946  -38.7744   29.1662 O   0  0  0  0  0  0  0  0  0  0  0  0
  -23.1664  -41.6113   30.1969 O   0  0  0  0  0  0  0  0  0  0  0  0
  -25.2767  -40.9119   28.6455 O   0  0  0  0  0  0  0  0  0  0  0  0
  -17.0413  -42.3893   30.6822 H   0  0  0  0  0  0  0  0  0  0  0  0
  -19.5265  -43.2956   30.8758 H   0  0  0  0  0  0  0  0  0  0  0  0
  -19.6418  -41.8892   28.1709 H   0  0  0  0  0  0  0  0  0  0  0  0
  -21.1719  -41.3436   30.7550 H   0  0  0  0  0  0  0  0  0  0  0  0
  -21.4990  -40.4617   27.9252 H   0  0  0  0  0  0  0  0  0  0  0  0
  -23.3352  -39.5533   30.0433 H   0  0  0  0  0  0  0  0  0  0  0  0
  -24.0366  -39.5350   27.7032 H   0  0  0  0  0  0  0  0  0  0  0  0
  -23.5781  -41.2549   27.4931 H   0  0  0  0  0  0  0  0  0  0  0  0
  -21.5899  -43.4368   29.6697 H   0  0  0  0  0  0  0  0  0  0  0  0
  -18.1637  -44.7028   29.8873 H   0  0  0  0  0  0  0  0  0  0  0  0
  -21.2496  -38.5734   30.1345 H   0  0  0  0  0  0  0  0  0  0  0  0
  -23.1432  -41.3843   31.1602 H   0  0  0  0  0  0  0  0  0  0  0  0
  -25.3009  -40.9193   29.6352 H   0  0  0  0  0  0  0  0  0  0  0  0
  1 10  1  0
  1 11  2  0
  1 14  1  0
  2  3  1  0
  2 14  2  0
  3  4  1  0
  3 12  1  0
  4  5  1  0
  4  9  1  0
  5  6  1  0
  5 13  1  0
  6  7  1  0
  6 15  1  0
  7  8  1  0
  7 16  1  0
  8 17  1  0
 13 14  1  0
  2 18  1  0
  3 19  1  1
  4 20  1  6
  5 21  1  1
  6 22  1  6
  7 23  1  1
  8 24  1  0
  8 25  1  0
  9 26  1  0
 12 27  1  0
 15 28  1  0
 16 29  1  0
 17 30  1  0
M  CHG  1  10  -1
M  END
>  <filename_input>  (5) 
7P1F_KFN_docked.sdf

>  <pdb_id>  (5) 
7P1F_KFN

>  <pose_rank>  (5) 
4

>  <num_atoms_heavy>  (5) 
17

>  <num_torsions>  (5) 
4

>  <pose>  (5) 
[-18.041996783161665, -42.00802158685419, 30.430940764989174, 2.2791281380097193, -2.0248587320414244, 0.709793068207573, -1.1240831510547495, -1.287806897224372, 0.7846115380114399, -4.330351723598935]

>  <energy>  (5) 
-401.5411124667091

>  <inter_energy>  (5) 
-401.0782336269508

>  <intra_energy>  (5) 
14.62437668469363

>  <rmsd>  (5) 
3.9067

>  <sdf_rank>  (5) 
0

$$$$

     RDKit          3D

 30 30  0  0  0  0  0  0  0  0999 V2000
  -20.6455  -43.9215   29.3184 C   0  0  0  0  0  0  0  0  0  0  0  0
  -21.2102  -41.7161   28.3080 C   0  0  0  0  0  0  0  0  0  0  0  0
  -20.9680  -40.3154   28.2422 C   0  0  1  0  0  0  0  0  0  0  0  0
  -19.5275  -39.9569   28.6128 C   0  0  2  0  0  0  0  0  0  0  0  0
  -19.1586  -40.6080   29.9477 C   0  0  2  0  0  0  0  0  0  0  0  0
  -17.6693  -40.3914   30.2853 C   0  0  1  0  0  0  0  0  0  0  0  0
  -17.3401  -41.0429   31.6220 C   0  0  1  0  0  0  0  0  0  0  0  0
  -15.8558  -40.8574   31.9650 C   0  0  0  0  0  0  0  0  0  0  0  0
  -19.3722  -38.5230   28.7147 O   0  0  0  0  0  0  0  0  0  0  0  0
  -21.7547  -44.4644   29.0759 O   0  0  0  0  0  0  0  0  0  0  0  0
  -19.7123  -44.6313   29.7706 O   0  0  0  0  0  0  0  0  0  0  0  0
  -21.2991  -39.7525   26.9593 O   0  0  0  0  0  0  0  0  0  0  0  0
  -19.3805  -42.0330   29.8657 O   0  0  0  0  0  0  0  0  0  0  0  0
  -20.4319  -42.5379   29.1354 C   0  0  0  0  0  0  0  0  0  0  0  0
  -16.8932  -41.0286   29.2553 O   0  0  0  0  0  0  0  0  0  0  0  0
  -18.1324  -40.5005   32.6891 O   0  0  0  0  0  0  0  0  0  0  0  0
  -15.7273  -39.7894   32.9119 O   0  0  0  0  0  0  0  0  0  0  0  0
  -22.0160  -42.1585   27.7037 H   0  0  0  0  0  0  0  0  0  0  0  0
  -21.6399  -39.8698   28.9905 H   0  0  0  0  0  0  0  0  0  0  0  0
  -18.8591  -40.3310   27.8232 H   0  0  0  0  0  0  0  0  0  0  0  0
  -19.7843  -40.1469   30.7261 H   0  0  0  0  0  0  0  0  0  0  0  0
  -17.4460  -39.3161   30.3462 H   0  0  0  0  0  0  0  0  0  0  0  0
  -17.5703  -42.1136   31.5188 H   0  0  0  0  0  0  0  0  0  0  0  0
  -15.4587  -41.7864   32.4002 H   0  0  0  0  0  0  0  0  0  0  0  0
  -15.2901  -40.6164   31.0529 H   0  0  0  0  0  0  0  0  0  0  0  0
  -19.3438  -38.2612   29.6691 H   0  0  0  0  0  0  0  0  0  0  0  0
  -21.7968  -38.9065   27.0886 H   0  0  0  0  0  0  0  0  0  0  0  0
  -16.1986  -41.5989   29.6705 H   0  0  0  0  0  0  0  0  0  0  0  0
  -17.7419  -40.7678   33.5587 H   0  0  0  0  0  0  0  0  0  0  0  0
  -15.7714  -40.1559   33.8306 H   0  0  0  0  0  0  0  0  0  0  0  0
  1 10  1  0
  1 11  2  0
  1 14  1  0
  2  3  1  0
  2 14  2  0
  3  4  1  0
  3 12  1  0
  4  5  1  0
  4  9  1  0
  5  6  1  0
  5 13  1  0
  6  7  1  0
  6 15  1  0
  7  8  1  0
  7 16  1  0
  8 17  1  0
 13 14  1  0
  2 18  1  0
  3 19  1  1
  4 20  1  6
  5 21  1  1
  6 22  1  1
  7 23  1  6
  8 24  1  0
  8 25  1  0
  9 26  1  0
 12 27  1  0
 15 28  1  0
 16 29  1  0
 17 30  1  0
M  CHG  1  10  -1
M  END
>  <filename_input>  (6) 
7P1F_KFN_docked.sdf

>  <pdb_id>  (6) 
7P1F_KFN

>  <pose_rank>  (6) 
5

>  <num_atoms_heavy>  (6) 
17

>  <num_torsions>  (6) 
4

>  <pose>  (6) 
[-21.210209365506742, -41.716137465668965, 28.307977563485057, -0.9966798751168039, -3.2531023793643823, -0.44317229354219867, -0.3979169030481249, 6.307101561163402, 0.07758462104194812, -5.584601116265519]

>  <energy>  (6) 
-477.34642619519167

>  <inter_energy>  (6) 
-463.8188357412441

>  <intra_energy>  (6) 
0.0

>  <rmsd>  (6) 
4.46018

>  <sdf_rank>  (6) 
0

$$$$

     RDKit          3D

 30 30  0  0  0  0  0  0  0  0999 V2000
  -21.9501  -38.7315   26.6227 C   0  0  0  0  0  0  0  0  0  0  0  0
  -22.3553  -40.3569   28.4659 C   0  0  0  0  0  0  0  0  0  0  0  0
  -21.8402  -41.0854   29.5746 C   0  0  1  0  0  0  0  0  0  0  0  0
  -20.6724  -40.3648   30.2513 C   0  0  2  0  0  0  0  0  0  0  0  0
  -19.6287  -39.9721   29.2032 C   0  0  2  0  0  0  0  0  0  0  0  0
  -18.5054  -39.1159   29.8229 C   0  0  1  0  0  0  0  0  0  0  0  0
  -17.2726  -39.9758   30.0679 C   0  0  1  0  0  0  0  0  0  0  0  0
  -17.0944  -40.2542   31.5666 C   0  0  0  0  0  0  0  0  0  0  0  0
  -20.0609  -41.2153   31.2478 O   0  0  0  0  0  0  0  0  0  0  0  0
  -21.1930  -37.9061   26.0488 O   0  0  0  0  0  0  0  0  0  0  0  0
  -23.1119  -38.8981   26.1737 O   0  0  0  0  0  0  0  0  0  0  0  0
  -22.8506  -41.4047   30.5491 O   0  0  0  0  0  0  0  0  0  0  0  0
  -20.2571  -39.1798   28.1715 O   0  0  0  0  0  0  0  0  0  0  0  0
  -21.5480  -39.4431   27.7740 C   0  0  0  0  0  0  0  0  0  0  0  0
  -18.1717  -38.0858   28.8759 O   0  0  0  0  0  0  0  0  0  0  0  0
  -17.3488  -41.2284   29.3709 O   0  0  0  0  0  0  0  0  0  0  0  0
  -16.3073  -39.2051   32.1441 O   0  0  0  0  0  0  0  0  0  0  0  0
  -23.3970  -40.5123   28.1487 H   0  0  0  0  0  0  0  0  0  0  0  0
  -21.4672  -42.0301   29.1524 H   0  0  0  0  0  0  0  0  0  0  0  0
  -21.0575  -39.4602   30.7447 H   0  0  0  0  0  0  0  0  0  0  0  0
  -19.2026  -40.9004   28.7949 H   0  0  0  0  0  0  0  0  0  0  0  0
  -18.8386  -38.6866   30.7792 H   0  0  0  0  0  0  0  0  0  0  0  0
  -16.4098  -39.4101   29.6863 H   0  0  0  0  0  0  0  0  0  0  0  0
  -18.0793  -40.2884   32.0553 H   0  0  0  0  0  0  0  0  0  0  0  0
  -16.5883  -41.2205   31.7082 H   0  0  0  0  0  0  0  0  0  0  0  0
  -20.2969  -40.8871   32.1515 H   0  0  0  0  0  0  0  0  0  0  0  0
  -22.4798  -41.2875   31.4595 H   0  0  0  0  0  0  0  0  0  0  0  0
  -17.9057  -37.2649   29.3613 H   0  0  0  0  0  0  0  0  0  0  0  0
  -17.3939  -41.9687   30.0267 H   0  0  0  0  0  0  0  0  0  0  0  0
  -16.3518  -39.2644   33.1313 H   0  0  0  0  0  0  0  0  0  0  0  0
  1 10  1  0
  1 11  2  0
  1 14  1  0
  2  3  1  0
  2 14  2  0
  3  4  1  0
  3 12  1  0
  4  5  1  0
  4  9  1  0
  5  6  1  0
  5 13  1  0
  6  7  1  0
  6 15  1  0
  7  8  1  0
  7 16  1  0
  8 17  1  0
 13 14  1  0
  2 18  1  0
  3 19  1  6
  4 20  1  1
  5 21  1  6
  6 22  1  1
  7 23  1  6
  8 24  1  0
  8 25  1  0
  9 26  1  0
 12 27  1  0
 15 28  1  0
 16 29  1  0
 17 30  1  0
M  CHG  1  10  -1
M  END
>  <filename_input>  (7) 
7P1F_KFN_docked.sdf

>  <pdb_id>  (7) 
7P1F_KFN

>  <pose_rank>  (7) 
6

>  <num_atoms_heavy>  (7) 
17

>  <num_torsions>  (7) 
4

>  <pose>  (7) 
[-22.355302272112166, -40.356909459381086, 28.465936587461194, -0.5589924465233059, 1.5400845806051071, 3.953265664883564, 3.093319663747716, -1.3411929596327907, 1.369183081868078, 3.672632237952516]

>  <energy>  (7) 
-443.5731133567638

>  <inter_energy>  (7) 
-451.30199730521474

>  <intra_energy>  (7) 
10.136569006061737

>  <rmsd>  (7) 
5.05425

>  <sdf_rank>  (7) 
0

$$$$

     RDKit          3D

 30 30  0  0  0  0  0  0  0  0999 V2000
  -21.2048  -38.9316   27.6818 C   0  0  0  0  0  0  0  0  0  0  0  0
  -21.2946  -41.1602   28.7903 C   0  0  0  0  0  0  0  0  0  0  0  0
  -20.6054  -42.2082   29.4624 C   0  0  1  0  0  0  0  0  0  0  0  0
  -19.3757  -41.7028   30.2197 C   0  0  2  0  0  0  0  0  0  0  0  0
  -18.5038  -40.8587   29.2872 C   0  0  2  0  0  0  0  0  0  0  0  0
  -17.3304  -40.2104   30.0499 C   0  0  1  0  0  0  0  0  0  0  0  0
  -17.7007  -40.0306   31.5161 C   0  0  1  0  0  0  0  0  0  0  0  0
  -16.4735  -39.6150   32.3386 C   0  0  0  0  0  0  0  0  0  0  0  0
  -18.6033  -42.8131   30.7305 O   0  0  0  0  0  0  0  0  0  0  0  0
  -20.7430  -37.7613   27.7161 O   0  0  0  0  0  0  0  0  0  0  0  0
  -22.2381  -39.1528   27.0017 O   0  0  0  0  0  0  0  0  0  0  0  0
  -21.4569  -42.9541   30.3518 O   0  0  0  0  0  0  0  0  0  0  0  0
  -19.2961  -39.7903   28.7238 O   0  0  0  0  0  0  0  0  0  0  0  0
  -20.6218  -39.9894   28.4129 C   0  0  0  0  0  0  0  0  0  0  0  0
  -16.2075  -41.1052   29.9615 O   0  0  0  0  0  0  0  0  0  0  0  0
  -18.7290  -39.0441   31.6895 O   0  0  0  0  0  0  0  0  0  0  0  0
  -15.8023  -40.7939   32.8005 O   0  0  0  0  0  0  0  0  0  0  0  0
  -22.3656  -41.2697   28.5648 H   0  0  0  0  0  0  0  0  0  0  0  0
  -20.2676  -42.8892   28.6674 H   0  0  0  0  0  0  0  0  0  0  0  0
  -19.7140  -41.0867   31.0658 H   0  0  0  0  0  0  0  0  0  0  0  0
  -18.1121  -41.5255   28.5049 H   0  0  0  0  0  0  0  0  0  0  0  0
  -17.0929  -39.2274   29.6172 H   0  0  0  0  0  0  0  0  0  0  0  0
  -18.0780  -41.0014   31.8699 H   0  0  0  0  0  0  0  0  0  0  0  0
  -15.7910  -39.0239   31.7103 H   0  0  0  0  0  0  0  0  0  0  0  0
  -16.7902  -39.0060   33.1982 H   0  0  0  0  0  0  0  0  0  0  0  0
  -18.6153  -42.7958   31.7203 H   0  0  0  0  0  0  0  0  0  0  0  0
  -21.2183  -42.7451   31.2896 H   0  0  0  0  0  0  0  0  0  0  0  0
  -15.9051  -41.3462   30.8728 H   0  0  0  0  0  0  0  0  0  0  0  0
  -18.8841  -38.8953   32.6559 H   0  0  0  0  0  0  0  0  0  0  0  0
  -15.7965  -40.8040   33.7904 H   0  0  0  0  0  0  0  0  0  0  0  0
  1 10  1  0
  1 11  2  0
  1 14  1  0
  2  3  1  0
  2 14  2  0
  3  4  1  0
  3 12  1  0
  4  5  1  0
  4  9  1  0
  5  6  1  0
  5 13  1  0
  6  7  1  0
  6 15  1  0
  7  8  1  0
  7 16  1  0
  8 17  1  0
 13 14  1  0
  2 18  1  0
  3 19  1  6
  4 20  1  1
  5 21  1  6
  6 22  1  6
  7 23  1  1
  8 24  1  0
  8 25  1  0
  9 26  1  0
 12 27  1  0
 15 28  1  0
 16 29  1  0
 17 30  1  0
M  CHG  1  10  -1
M  END
>  <filename_input>  (8) 
7P1F_KFN_docked.sdf

>  <pdb_id>  (8) 
7P1F_KFN

>  <pose_rank>  (8) 
7

>  <num_atoms_heavy>  (8) 
17

>  <num_torsions>  (8) 
4

>  <pose>  (8) 
[-21.294578667354212, -41.16015475002497, 28.790349535543232, -0.8713214579663128, 0.5429718576981459, 4.177563648117482, -3.566673084608604, -34.98842911396953, -62.908552929666286, -34.03003031447951]

>  <energy>  (8) 
-450.2052678750091

>  <inter_energy>  (8) 
-482.4143726216523

>  <intra_energy>  (8) 
31.454894705937974

>  <rmsd>  (8) 
5.01167

>  <sdf_rank>  (8) 
0

$$$$

     RDKit          3D

 30 30  0  0  0  0  0  0  0  0999 V2000
  -20.9851  -44.3163   28.9629 C   0  0  0  0  0  0  0  0  0  0  0  0
  -18.8540  -43.3892   29.8587 C   0  0  0  0  0  0  0  0  0  0  0  0
  -18.0547  -42.2473   30.1453 C   0  0  1  0  0  0  0  0  0  0  0  0
  -18.8990  -41.0015   30.4211 C   0  0  2  0  0  0  0  0  0  0  0  0
  -19.9154  -40.8046   29.2941 C   0  0  2  0  0  0  0  0  0  0  0  0
  -20.8822  -39.6442   29.6065 C   0  0  1  0  0  0  0  0  0  0  0  0
  -21.1134  -38.8097   28.3537 C   0  0  1  0  0  0  0  0  0  0  0  0
  -22.6107  -38.5437   28.1476 C   0  0  0  0  0  0  0  0  0  0  0  0
  -18.0568  -39.8307   30.5229 O   0  0  0  0  0  0  0  0  0  0  0  0
  -21.8242  -44.8223   29.7527 O   0  0  0  0  0  0  0  0  0  0  0  0
  -20.8666  -44.8078   27.8124 O   0  0  0  0  0  0  0  0  0  0  0  0
  -17.1368  -42.4684   31.2321 O   0  0  0  0  0  0  0  0  0  0  0  0
  -20.7102  -42.0020   29.1481 O   0  0  0  0  0  0  0  0  0  0  0  0
  -20.1496  -43.2436   29.3431 C   0  0  0  0  0  0  0  0  0  0  0  0
  -22.1345  -40.2206   30.0174 O   0  0  0  0  0  0  0  0  0  0  0  0
  -20.4248  -37.5517   28.4161 O   0  0  0  0  0  0  0  0  0  0  0  0
  -22.8199  -38.0749   26.8096 O   0  0  0  0  0  0  0  0  0  0  0  0
  -18.4515  -44.3961   30.0437 H   0  0  0  0  0  0  0  0  0  0  0  0
  -17.4639  -42.0712   29.2343 H   0  0  0  0  0  0  0  0  0  0  0  0
  -19.4289  -41.1415   31.3749 H   0  0  0  0  0  0  0  0  0  0  0  0
  -19.3533  -40.5796   28.3757 H   0  0  0  0  0  0  0  0  0  0  0  0
  -20.4616  -39.0005   30.3931 H   0  0  0  0  0  0  0  0  0  0  0  0
  -20.7156  -39.3896   27.5078 H   0  0  0  0  0  0  0  0  0  0  0  0
  -23.1760  -39.4741   28.3053 H   0  0  0  0  0  0  0  0  0  0  0  0
  -22.9566  -37.7859   28.8660 H   0  0  0  0  0  0  0  0  0  0  0  0
  -17.9030  -39.6169   31.4772 H   0  0  0  0  0  0  0  0  0  0  0  0
  -17.6115  -42.3541   32.0933 H   0  0  0  0  0  0  0  0  0  0  0  0
  -22.1796  -40.2414   31.0061 H   0  0  0  0  0  0  0  0  0  0  0  0
  -20.2860  -37.2981   29.3630 H   0  0  0  0  0  0  0  0  0  0  0  0
  -23.2232  -37.1711   26.8358 H   0  0  0  0  0  0  0  0  0  0  0  0
  1 10  1  0
  1 11  2  0
  1 14  1  0
  2  3  1  0
  2 14  2  0
  3  4  1  0
  3 12  1  0
  4  5  1  0
  4  9  1  0
  5  6  1  0
  5 13  1  0
  6  7  1  0
  6 15  1  0
  7  8  1  0
  7 16  1  0
  8 17  1  0
 13 14  1  0
  2 18  1  0
  3 19  1  6
  4 20  1  1
  5 21  1  6
  6 22  1  1
  7 23  1  6
  8 24  1  0
  8 25  1  0
  9 26  1  0
 12 27  1  0
 15 28  1  0
 16 29  1  0
 17 30  1  0
M  CHG  1  10  -1
M  END
>  <filename_input>  (9) 
7P1F_KFN_docked.sdf

>  <pdb_id>  (9) 
7P1F_KFN

>  <pose_rank>  (9) 
8

>  <num_atoms_heavy>  (9) 
17

>  <num_torsions>  (9) 
4

>  <pose>  (9) 
[-18.854036553603866, -43.38924324014032, 29.858743808182105, -0.5315543836235924, 3.7796307021449125, -5.178030716745542, 1.6020833622904376, -0.698239560337623, -0.7353409723265412, 2.3423278389908373]

>  <energy>  (9) 
-702.4872674023693

>  <inter_energy>  (9) 
-683.1769527046339

>  <intra_energy>  (9) 
0.0

>  <rmsd>  (9) 
1.03371

>  <sdf_rank>  (9) 
0

$$$$

     RDKit          3D

 30 30  0  0  0  0  0  0  0  0999 V2000
  -22.7359  -41.3656   30.2939 C   0  0  0  0  0  0  0  0  0  0  0  0
  -22.1714  -39.3076   29.0095 C   0  0  0  0  0  0  0  0  0  0  0  0
  -21.1705  -38.4419   28.4862 C   0  0  1  0  0  0  0  0  0  0  0  0
  -19.8620  -39.1779   28.1913 C   0  0  2  0  0  0  0  0  0  0  0  0
  -19.4326  -39.9835   29.4196 C   0  0  2  0  0  0  0  0  0  0  0  0
  -18.1966  -40.8547   29.1155 C   0  0  1  0  0  0  0  0  0  0  0  0
  -17.1255  -40.6229   30.1731 C   0  0  1  0  0  0  0  0  0  0  0  0
  -17.3603  -41.5275   31.3904 C   0  0  0  0  0  0  0  0  0  0  0  0
  -18.8202  -38.2388   27.8404 O   0  0  0  0  0  0  0  0  0  0  0  0
  -23.6109  -40.9607   31.1028 O   0  0  0  0  0  0  0  0  0  0  0  0
  -22.6592  -42.5968   30.0542 O   0  0  0  0  0  0  0  0  0  0  0  0
  -21.6077  -37.7296   27.3140 O   0  0  0  0  0  0  0  0  0  0  0  0
  -20.5023  -40.8721   29.8103 O   0  0  0  0  0  0  0  0  0  0  0  0
  -21.8169  -40.4861   29.6813 C   0  0  0  0  0  0  0  0  0  0  0  0
  -18.6114  -42.2310   29.1693 O   0  0  0  0  0  0  0  0  0  0  0  0
  -15.8076  -40.8705   29.6606 O   0  0  0  0  0  0  0  0  0  0  0  0
  -16.8517  -40.8742   32.5601 O   0  0  0  0  0  0  0  0  0  0  0  0
  -23.2335  -39.0497   28.8858 H   0  0  0  0  0  0  0  0  0  0  0  0
  -20.9822  -37.7038   29.2797 H   0  0  0  0  0  0  0  0  0  0  0  0
  -20.0264  -39.8588   27.3431 H   0  0  0  0  0  0  0  0  0  0  0  0
  -19.1916  -39.2671   30.2188 H   0  0  0  0  0  0  0  0  0  0  0  0
  -17.7858  -40.5996   28.1275 H   0  0  0  0  0  0  0  0  0  0  0  0
  -17.1969  -39.5666   30.4714 H   0  0  0  0  0  0  0  0  0  0  0  0
  -18.4380  -41.7127   31.5103 H   0  0  0  0  0  0  0  0  0  0  0  0
  -16.8437  -42.4878   31.2459 H   0  0  0  0  0  0  0  0  0  0  0  0
  -18.4141  -37.8728   28.6657 H   0  0  0  0  0  0  0  0  0  0  0  0
  -22.1054  -36.9186   27.5872 H   0  0  0  0  0  0  0  0  0  0  0  0
  -18.6965  -42.5134   30.1144 H   0  0  0  0  0  0  0  0  0  0  0  0
  -15.1772  -40.9889   30.4147 H   0  0  0  0  0  0  0  0  0  0  0  0
  -17.2026  -41.3249   33.3687 H   0  0  0  0  0  0  0  0  0  0  0  0
  1 10  1  0
  1 11  2  0
  1 14  1  0
  2  3  1  0
  2 14  2  0
  3  4  1  0
  3 12  1  0
  4  5  1  0
  4  9  1  0
  5  6  1  0
  5 13  1  0
  6  7  1  0
  6 15  1  0
  7  8  1  0
  7 16  1  0
  8 17  1  0
 13 14  1  0
  2 18  1  0
  3 19  1  1
  4 20  1  6
  5 21  1  1
  6 22  1  6
  7 23  1  1
  8 24  1  0
  8 25  1  0
  9 26  1  0
 12 27  1  0
 15 28  1  0
 16 29  1  0
 17 30  1  0
M  CHG  1  10  -1
M  END
>  <filename_input>  (10) 
7P1F_KFN_docked.sdf

>  <pdb_id>  (10) 
7P1F_KFN

>  <pose_rank>  (10) 
9

>  <num_atoms_heavy>  (10) 
17

>  <num_torsions>  (10) 
4

>  <pose>  (10) 
[-22.171358894993848, -39.307634078944034, 29.009515249202813, -1.9203009815339773, -2.4307713338842616, 0.17456839606467445, -0.9196342448857723, -0.860149714505332, -1.5530803069344776, -3.689709082097151]

>  <energy>  (10) 
-459.8323863129923

>  <inter_energy>  (10) 
-433.7341478343992

>  <intra_energy>  (10) 
0.015270457215215123

>  <rmsd>  (10) 
4.85436

>  <sdf_rank>  (10) 
0

$$$$

     RDKit          3D

 30 30  0  0  0  0  0  0  0  0999 V2000
  -20.8384  -39.1969   28.4128 C   0  0  0  0  0  0  0  0  0  0  0  0
  -18.7249  -39.9104   29.5208 C   0  0  0  0  0  0  0  0  0  0  0  0
  -17.9820  -40.9382   30.1665 C   0  0  1  0  0  0  0  0  0  0  0  0
  -18.3980  -42.3353   29.7017 C   0  0  2  0  0  0  0  0  0  0  0  0
  -19.9178  -42.4840   29.8035 C   0  0  2  0  0  0  0  0  0  0  0  0
  -20.3917  -43.8253   29.2077 C   0  0  1  0  0  0  0  0  0  0  0  0
  -21.7806  -44.1643   29.7323 C   0  0  1  0  0  0  0  0  0  0  0  0
  -21.7577  -45.4842   30.5151 C   0  0  0  0  0  0  0  0  0  0  0  0
  -17.7577  -43.3496   30.5089 O   0  0  0  0  0  0  0  0  0  0  0  0
  -22.0934  -39.2768   28.4608 O   0  0  0  0  0  0  0  0  0  0  0  0
  -20.3182  -38.2383   27.7885 O   0  0  0  0  0  0  0  0  0  0  0  0
  -16.5595  -40.7749   30.0174 O   0  0  0  0  0  0  0  0  0  0  0  0
  -20.5560  -41.4278   29.0525 O   0  0  0  0  0  0  0  0  0  0  0  0
  -20.0020  -40.1691   29.0034 C   0  0  0  0  0  0  0  0  0  0  0  0
  -20.4614  -43.6660   27.7797 O   0  0  0  0  0  0  0  0  0  0  0  0
  -22.2959  -43.1304   30.5845 O   0  0  0  0  0  0  0  0  0  0  0  0
  -22.1824  -46.5451   29.6503 O   0  0  0  0  0  0  0  0  0  0  0  0
  -18.2929  -38.9032   29.4268 H   0  0  0  0  0  0  0  0  0  0  0  0
  -18.2231  -40.8421   31.2354 H   0  0  0  0  0  0  0  0  0  0  0  0
  -18.0844  -42.4642   28.6552 H   0  0  0  0  0  0  0  0  0  0  0  0
  -20.1851  -42.4386   30.8695 H   0  0  0  0  0  0  0  0  0  0  0  0
  -19.6969  -44.6314   29.4862 H   0  0  0  0  0  0  0  0  0  0  0  0
  -22.4371  -44.2600   28.8549 H   0  0  0  0  0  0  0  0  0  0  0  0
  -20.7364  -45.6846   30.8710 H   0  0  0  0  0  0  0  0  0  0  0  0
  -22.4337  -45.4158   31.3802 H   0  0  0  0  0  0  0  0  0  0  0  0
  -17.8897  -43.1404   31.4675 H   0  0  0  0  0  0  0  0  0  0  0  0
  -16.1374  -40.7264   30.9115 H   0  0  0  0  0  0  0  0  0  0  0  0
  -20.8489  -42.7807   27.5650 H   0  0  0  0  0  0  0  0  0  0  0  0
  -22.1672  -43.3887   31.5315 H   0  0  0  0  0  0  0  0  0  0  0  0
  -22.4895  -47.3123   30.1955 H   0  0  0  0  0  0  0  0  0  0  0  0
  1 10  1  0
  1 11  2  0
  1 14  1  0
  2  3  1  0
  2 14  2  0
  3  4  1  0
  3 12  1  0
  4  5  1  0
  4  9  1  0
  5  6  1  0
  5 13  1  0
  6  7  1  0
  6 15  1  0
  7  8  1  0
  7 16  1  0
  8 17  1  0
 13 14  1  0
  2 18  1  0
  3 19  1  1
  4 20  1  6
  5 21  1  1
  6 22  1  6
  7 23  1  6
  8 24  1  0
  8 25  1  0
  9 26  1  0
 12 27  1  0
 15 28  1  0
 16 29  1  0
 17 30  1  0
M  CHG  1  10  -1
M  END
>  <filename_input>  (11) 
7P1F_KFN_docked.sdf

>  <pdb_id>  (11) 
7P1F_KFN

>  <pose_rank>  (11) 
10

>  <num_atoms_heavy>  (11) 
17

>  <num_torsions>  (11) 
4

>  <pose>  (11) 
[-18.72490616318226, -39.9104235020793, 29.520807846608562, -3.093502319989316, -0.33918538396335796, -1.450046843349196, -2.6490217771223112, -12.873428018577519, 1.1587291433595295, -2.7590116983865682]

>  <energy>  (11) 
-393.07426016720126

>  <inter_energy>  (11) 
-386.8916991834892

>  <intra_energy>  (11) 
8.226280315185102

>  <rmsd>  (11) 
4.72274

>  <sdf_rank>  (11) 
0

$$$$

     RDKit          3D

 30 30  0  0  0  0  0  0  0  0999 V2000
  -23.8825  -40.9466   29.6670 C   0  0  0  0  0  0  0  0  0  0  0  0
  -23.6269  -39.1680   27.9422 C   0  0  0  0  0  0  0  0  0  0  0  0
  -22.7817  -38.2336   27.2808 C   0  0  1  0  0  0  0  0  0  0  0  0
  -21.3194  -38.6834   27.2639 C   0  0  2  0  0  0  0  0  0  0  0  0
  -20.8758  -39.0564   28.6803 C   0  0  2  0  0  0  0  0  0  0  0  0
  -19.4536  -39.6531   28.6842 C   0  0  1  0  0  0  0  0  0  0  0  0
  -18.6787  -39.1397   29.8906 C   0  0  1  0  0  0  0  0  0  0  0  0
  -17.7330  -40.2220   30.4287 C   0  0  0  0  0  0  0  0  0  0  0  0
  -20.4710  -37.6300   26.7530 O   0  0  0  0  0  0  0  0  0  0  0  0
  -23.5651  -42.1587   29.7854 O   0  0  0  0  0  0  0  0  0  0  0  0
  -24.9408  -40.5440   30.2120 O   0  0  0  0  0  0  0  0  0  0  0  0
  -23.2194  -37.9374   25.9417 O   0  0  0  0  0  0  0  0  0  0  0  0
  -21.7670  -40.0596   29.2152 O   0  0  0  0  0  0  0  0  0  0  0  0
  -23.1089  -40.0393   28.9107 C   0  0  0  0  0  0  0  0  0  0  0  0
  -19.5822  -41.0820   28.7895 O   0  0  0  0  0  0  0  0  0  0  0  0
  -17.9093  -37.9704   29.5722 O   0  0  0  0  0  0  0  0  0  0  0  0
  -17.3232  -39.8641   31.7545 O   0  0  0  0  0  0  0  0  0  0  0  0
  -24.6972  -39.2072   27.6911 H   0  0  0  0  0  0  0  0  0  0  0  0
  -22.8535  -37.3089   27.8722 H   0  0  0  0  0  0  0  0  0  0  0  0
  -21.2303  -39.5610   26.6068 H   0  0  0  0  0  0  0  0  0  0  0  0
  -20.8926  -38.1383   29.2861 H   0  0  0  0  0  0  0  0  0  0  0  0
  -18.9188  -39.3667   27.7666 H   0  0  0  0  0  0  0  0  0  0  0  0
  -19.4223  -38.8764   30.6573 H   0  0  0  0  0  0  0  0  0  0  0  0
  -18.2552  -41.1898   30.4525 H   0  0  0  0  0  0  0  0  0  0  0  0
  -16.8515  -40.3043   29.7760 H   0  0  0  0  0  0  0  0  0  0  0  0
  -20.0704  -37.1327   27.5096 H   0  0  0  0  0  0  0  0  0  0  0  0
  -24.0387  -37.3828   25.9773 H   0  0  0  0  0  0  0  0  0  0  0  0
  -19.6056  -41.3417   29.7445 H   0  0  0  0  0  0  0  0  0  0  0  0
  -17.6186  -37.5286   30.4091 H   0  0  0  0  0  0  0  0  0  0  0  0
  -17.8792  -40.3497   32.4142 H   0  0  0  0  0  0  0  0  0  0  0  0
  1 10  1  0
  1 11  2  0
  1 14  1  0
  2  3  1  0
  2 14  2  0
  3  4  1  0
  3 12  1  0
  4  5  1  0
  4  9  1  0
  5  6  1  0
  5 13  1  0
  6  7  1  0
  6 15  1  0
  7  8  1  0
  7 16  1  0
  8 17  1  0
 13 14  1  0
  2 18  1  0
  3 19  1  1
  4 20  1  6
  5 21  1  1
  6 22  1  6
  7 23  1  1
  8 24  1  0
  8 25  1  0
  9 26  1  0
 12 27  1  0
 15 28  1  0
 16 29  1  0
 17 30  1  0
M  CHG  1  10  -1
M  END
>  <filename_input>  (12) 
7P1F_KFN_docked.sdf

>  <pdb_id>  (12) 
7P1F_KFN

>  <pose_rank>  (12) 
11

>  <num_atoms_heavy>  (12) 
17

>  <num_torsions>  (12) 
4

>  <pose>  (12) 
[-23.626931475642678, -39.16804796191315, 27.9421729059821, 1.548620913654788, 2.473928760675526, -0.3705001108732479, 2.252414323197137, -0.66096244625728, -0.5152858095099132, 2.3710737116019676]

>  <energy>  (12) 
-426.23668214982695

>  <inter_energy>  (12) 
-430.81267520054257

>  <intra_energy>  (12) 
0.0

>  <rmsd>  (12) 
5.17632

>  <sdf_rank>  (12) 
0

$$$$

     RDKit          3D

 30 30  0  0  0  0  0  0  0  0999 V2000
  -23.7665  -38.7373   24.9547 C   0  0  0  0  0  0  0  0  0  0  0  0
  -25.0037  -38.9910   27.1014 C   0  0  0  0  0  0  0  0  0  0  0  0
  -24.9621  -39.2348   28.5028 C   0  0  1  0  0  0  0  0  0  0  0  0
  -23.6418  -38.7852   29.1318 C   0  0  2  0  0  0  0  0  0  0  0  0
  -22.4671  -39.3714   28.3453 C   0  0  2  0  0  0  0  0  0  0  0  0
  -21.1193  -38.8246   28.8584 C   0  0  1  0  0  0  0  0  0  0  0  0
  -20.1132  -39.9607   28.9862 C   0  0  1  0  0  0  0  0  0  0  0  0
  -18.6918  -39.4623   28.6923 C   0  0  0  0  0  0  0  0  0  0  0  0
  -23.5642  -39.2160   30.5098 O   0  0  0  0  0  0  0  0  0  0  0  0
  -22.7373  -38.3080   24.3714 O   0  0  0  0  0  0  0  0  0  0  0  0
  -24.7879  -38.9906   24.2679 O   0  0  0  0  0  0  0  0  0  0  0  0
  -26.0682  -38.6383   29.2050 O   0  0  0  0  0  0  0  0  0  0  0  0
  -22.5843  -38.9972   26.9549 O   0  0  0  0  0  0  0  0  0  0  0  0
  -23.8196  -38.9044   26.3556 C   0  0  0  0  0  0  0  0  0  0  0  0
  -20.6340  -37.8826   27.8856 O   0  0  0  0  0  0  0  0  0  0  0  0
  -20.1355  -40.5481   30.2958 O   0  0  0  0  0  0  0  0  0  0  0  0
  -18.0379  -39.1642   29.9322 O   0  0  0  0  0  0  0  0  0  0  0  0
  -25.9743  -38.8692   26.5984 H   0  0  0  0  0  0  0  0  0  0  0  0
  -25.0431  -40.3266   28.6095 H   0  0  0  0  0  0  0  0  0  0  0  0
  -23.5948  -37.6866   29.1002 H   0  0  0  0  0  0  0  0  0  0  0  0
  -22.4947  -40.4637   28.4722 H   0  0  0  0  0  0  0  0  0  0  0  0
  -21.2514  -38.3506   29.8422 H   0  0  0  0  0  0  0  0  0  0  0  0
  -20.4022  -40.7254   28.2501 H   0  0  0  0  0  0  0  0  0  0  0  0
  -18.1304  -40.2424   28.1572 H   0  0  0  0  0  0  0  0  0  0  0  0
  -18.7360  -38.5578   28.0678 H   0  0  0  0  0  0  0  0  0  0  0  0
  -23.7042  -38.4388   31.1069 H   0  0  0  0  0  0  0  0  0  0  0  0
  -25.9211  -38.7177   30.1808 H   0  0  0  0  0  0  0  0  0  0  0  0
  -20.2336  -37.1054   28.3501 H   0  0  0  0  0  0  0  0  0  0  0  0
  -20.1084  -39.8322   30.9791 H   0  0  0  0  0  0  0  0  0  0  0  0
  -18.6221  -39.4306   30.6858 H   0  0  0  0  0  0  0  0  0  0  0  0
  1 10  1  0
  1 11  2  0
  1 14  1  0
  2  3  1  0
  2 14  2  0
  3  4  1  0
  3 12  1  0
  4  5  1  0
  4  9  1  0
  5  6  1  0
  5 13  1  0
  6  7  1  0
  6 15  1  0
  7  8  1  0
  7 16  1  0
  8 17  1  0
 13 14  1  0
  2 18  1  0
  3 19  1  6
  4 20  1  1
  5 21  1  6
  6 22  1  1
  7 23  1  6
  8 24  1  0
  8 25  1  0
  9 26  1  0
 12 27  1  0
 15 28  1  0
 16 29  1  0
 17 30  1  0
M  CHG  1  10  -1
M  END
>  <filename_input>  (13) 
7P1F_KFN_docked.sdf

>  <pdb_id>  (13) 
7P1F_KFN

>  <pose_rank>  (13) 
12

>  <num_atoms_heavy>  (13) 
17

>  <num_torsions>  (13) 
4

>  <pose>  (13) 
[-25.003688151042205, -38.99097132297433, 27.101431550931665, 0.07410445217916986, 2.182419593530379, 3.129857684619968, -3.5148173559563993, -0.7441853835479606, -6.759903049291211, -5.655185778804655]

>  <energy>  (13) 
-344.25545079433715

>  <inter_energy>  (13) 
-339.3881549691129

>  <intra_energy>  (13) 
0.0

>  <rmsd>  (13) 
6.08432

>  <sdf_rank>  (13) 
0

$$$$

     RDKit          3D

 30 30  0  0  0  0  0  0  0  0999 V2000
  -25.4396  -41.2353   30.8153 C   0  0  0  0  0  0  0  0  0  0  0  0
  -26.7152  -39.2071   30.1351 C   0  0  0  0  0  0  0  0  0  0  0  0
  -26.7057  -37.9057   29.5594 C   0  0  1  0  0  0  0  0  0  0  0  0
  -25.5691  -37.7248   28.5512 C   0  0  2  0  0  0  0  0  0  0  0  0
  -24.2430  -38.1547   29.1829 C   0  0  2  0  0  0  0  0  0  0  0  0
  -23.0952  -38.1255   28.1531 C   0  0  1  0  0  0  0  0  0  0  0  0
  -21.9817  -39.0680   28.5903 C   0  0  1  0  0  0  0  0  0  0  0  0
  -20.7696  -38.2764   29.0996 C   0  0  0  0  0  0  0  0  0  0  0  0
  -25.4794  -36.3444   28.1308 O   0  0  0  0  0  0  0  0  0  0  0  0
  -26.2822  -42.1472   30.6092 O   0  0  0  0  0  0  0  0  0  0  0  0
  -24.5009  -41.4521   31.6222 O   0  0  0  0  0  0  0  0  0  0  0  0
  -27.9623  -37.5572   28.9496 O   0  0  0  0  0  0  0  0  0  0  0  0
  -24.3571  -39.5118   29.6647 O   0  0  0  0  0  0  0  0  0  0  0  0
  -25.5399  -39.9687   30.1996 C   0  0  0  0  0  0  0  0  0  0  0  0
  -23.6260  -38.5855   26.8977 O   0  0  0  0  0  0  0  0  0  0  0  0
  -22.4164  -39.9637   29.6244 O   0  0  0  0  0  0  0  0  0  0  0  0
  -20.4461  -37.2567   28.1459 O   0  0  0  0  0  0  0  0  0  0  0  0
  -27.6540  -39.6195   30.5335 H   0  0  0  0  0  0  0  0  0  0  0  0
  -26.5359  -37.2179   30.4008 H   0  0  0  0  0  0  0  0  0  0  0  0
  -25.7782  -38.3509   27.6713 H   0  0  0  0  0  0  0  0  0  0  0  0
  -24.0225  -37.4537   30.0014 H   0  0  0  0  0  0  0  0  0  0  0  0
  -22.6889  -37.1071   28.0658 H   0  0  0  0  0  0  0  0  0  0  0  0
  -21.6995  -39.6583   27.7060 H   0  0  0  0  0  0  0  0  0  0  0  0
  -21.0114  -37.8131   30.0675 H   0  0  0  0  0  0  0  0  0  0  0  0
  -19.9110  -38.9519   29.2281 H   0  0  0  0  0  0  0  0  0  0  0  0
  -25.4414  -35.7584   28.9279 H   0  0  0  0  0  0  0  0  0  0  0  0
  -28.6313  -37.3717   29.6554 H   0  0  0  0  0  0  0  0  0  0  0  0
  -24.3633  -39.2246   27.0655 H   0  0  0  0  0  0  0  0  0  0  0  0
  -22.2227  -39.5647   30.5095 H   0  0  0  0  0  0  0  0  0  0  0  0
  -20.1837  -36.4299   28.6231 H   0  0  0  0  0  0  0  0  0  0  0  0
  1 10  1  0
  1 11  2  0
  1 14  1  0
  2  3  1  0
  2 14  2  0
  3  4  1  0
  3 12  1  0
  4  5  1  0
  4  9  1  0
  5  6  1  0
  5 13  1  0
  6  7  1  0
  6 15  1  0
  7  8  1  0
  7 16  1  0
  8 17  1  0
 13 14  1  0
  2 18  1  0
  3 19  1  1
  4 20  1  6
  5 21  1  1
  6 22  1  6
  7 23  1  6
  8 24  1  0
  8 25  1  0
  9 26  1  0
 12 27  1  0
 15 28  1  0
 16 29  1  0
 17 30  1  0
M  CHG  1  10  -1
M  END
>  <filename_input>  (14) 
7P1F_KFN_docked.sdf

>  <pdb_id>  (14) 
7P1F_KFN

>  <pose_rank>  (14) 
13

>  <num_atoms_heavy>  (14) 
17

>  <num_torsions>  (14) 
4

>  <pose>  (14) 
[-26.715235274983478, -39.20707497993676, 30.135114654864868, -0.8747038063585856, -2.45409778521726, 0.373668076889844, 0.7902777754604791, -5.838853648320374, -4.913783505579801, -8.19835295667084]

>  <energy>  (14) 
-223.82494406811054

>  <inter_energy>  (14) 
-285.2046939915733

>  <intra_energy>  (14) 
67.57399102151027

>  <rmsd>  (14) 
6.49802

>  <sdf_rank>  (14) 
0

$$$$

     RDKit          3D

 30 30  0  0  0  0  0  0  0  0999 V2000
  -25.5073  -39.2455   25.9281 C   0  0  0  0  0  0  0  0  0  0  0  0
  -25.4930  -37.1689   27.3031 C   0  0  0  0  0  0  0  0  0  0  0  0
  -24.7766  -36.2886   28.1615 C   0  0  1  0  0  0  0  0  0  0  0  0
  -23.2708  -36.3114   27.8914 C   0  0  2  0  0  0  0  0  0  0  0  0
  -22.7663  -37.7563   27.8916 C   0  0  2  0  0  0  0  0  0  0  0  0
  -21.2821  -37.8327   27.4790 C   0  0  1  0  0  0  0  0  0  0  0  0
  -20.5181  -38.7208   28.4521 C   0  0  1  0  0  0  0  0  0  0  0  0
  -21.4608  -39.2921   29.5199 C   0  0  0  0  0  0  0  0  0  0  0  0
  -22.5636  -35.5521   28.8984 O   0  0  0  0  0  0  0  0  0  0  0  0
  -25.0934  -39.5441   24.7777 O   0  0  0  0  0  0  0  0  0  0  0  0
  -26.5502  -39.8003   26.3569 O   0  0  0  0  0  0  0  0  0  0  0  0
  -25.2647  -34.9354   28.1046 O   0  0  0  0  0  0  0  0  0  0  0  0
  -23.5217  -38.5298   26.9335 O   0  0  0  0  0  0  0  0  0  0  0  0
  -24.8600  -38.2814   26.7311 C   0  0  0  0  0  0  0  0  0  0  0  0
  -21.2252  -38.4239   26.1689 O   0  0  0  0  0  0  0  0  0  0  0  0
  -19.8658  -39.8094   27.7812 O   0  0  0  0  0  0  0  0  0  0  0  0
  -20.7427  -40.2472   30.3111 O   0  0  0  0  0  0  0  0  0  0  0  0
  -26.5537  -36.9746   27.0863 H   0  0  0  0  0  0  0  0  0  0  0  0
  -24.9524  -36.6689   29.1786 H   0  0  0  0  0  0  0  0  0  0  0  0
  -23.0843  -35.8561   26.9076 H   0  0  0  0  0  0  0  0  0  0  0  0
  -22.8866  -38.1498   28.9117 H   0  0  0  0  0  0  0  0  0  0  0  0
  -20.8343  -36.8280   27.4837 H   0  0  0  0  0  0  0  0  0  0  0  0
  -19.7535  -38.0880   28.9265 H   0  0  0  0  0  0  0  0  0  0  0  0
  -21.8250  -38.4784   30.1642 H   0  0  0  0  0  0  0  0  0  0  0  0
  -22.3195  -39.7801   29.0358 H   0  0  0  0  0  0  0  0  0  0  0  0
  -22.8452  -35.8545   29.7980 H   0  0  0  0  0  0  0  0  0  0  0  0
  -25.3891  -34.5905   29.0242 H   0  0  0  0  0  0  0  0  0  0  0  0
  -21.1308  -39.4057   26.2537 H   0  0  0  0  0  0  0  0  0  0  0  0
  -19.4917  -40.4339   28.4521 H   0  0  0  0  0  0  0  0  0  0  0  0
  -20.8870  -40.0552   31.2715 H   0  0  0  0  0  0  0  0  0  0  0  0
  1 10  1  0
  1 11  2  0
  1 14  1  0
  2  3  1  0
  2 14  2  0
  3  4  1  0
  3 12  1  0
  4  5  1  0
  4  9  1  0
  5  6  1  0
  5 13  1  0
  6  7  1  0
  6 15  1  0
  7  8  1  0
  7 16  1  0
  8 17  1  0
 13 14  1  0
  2 18  1  0
  3 19  1  1
  4 20  1  6
  5 21  1  1
  6 22  1  6
  7 23  1  1
  8 24  1  0
  8 25  1  0
  9 26  1  0
 12 27  1  0
 15 28  1  0
 16 29  1  0
 17 30  1  0
M  CHG  1  10  -1
M  END
>  <filename_input>  (15) 
7P1F_KFN_docked.sdf

>  <pdb_id>  (15) 
7P1F_KFN

>  <pose_rank>  (15) 
14

>  <num_atoms_heavy>  (15) 
17

>  <num_torsions>  (15) 
4

>  <pose>  (15) 
[-25.49296867330516, -37.16886220272658, 27.30312853343719, 1.5780144967918026, 2.7598064688723705, 1.6363081080789699, 2.1666715135456944, -0.7977481482301613, 3.258817834704637, 1.957126178081878]

>  <energy>  (15) 
-395.7755319538679

>  <inter_energy>  (15) 
-375.6504279497619

>  <intra_energy>  (15) 
1.275152882408871

>  <rmsd>  (15) 
6.60993

>  <sdf_rank>  (15) 
0

$$$$

     RDKit          3D

 30 30  0  0  0  0  0  0  0  0999 V2000
  -27.4638  -36.4555   30.5513 C   0  0  0  0  0  0  0  0  0  0  0  0
  -25.9347  -35.8266   28.6886 C   0  0  0  0  0  0  0  0  0  0  0  0
  -24.8594  -36.1871   27.8290 C   0  0  1  0  0  0  0  0  0  0  0  0
  -24.7848  -37.6971   27.5937 C   0  0  2  0  0  0  0  0  0  0  0  0
  -24.8049  -38.4321   28.9359 C   0  0  2  0  0  0  0  0  0  0  0  0
  -24.8783  -39.9600   28.7382 C   0  0  1  0  0  0  0  0  0  0  0  0
  -23.6579  -40.6233   29.3627 C   0  0  1  0  0  0  0  0  0  0  0  0
  -24.0386  -41.3466   30.6616 C   0  0  0  0  0  0  0  0  0  0  0  0
  -23.5788  -38.0389   26.8732 O   0  0  0  0  0  0  0  0  0  0  0  0
  -27.7053  -35.2803   30.9315 O   0  0  0  0  0  0  0  0  0  0  0  0
  -28.1250  -37.3996   31.0521 O   0  0  0  0  0  0  0  0  0  0  0  0
  -24.8993  -35.4954   26.5671 O   0  0  0  0  0  0  0  0  0  0  0  0
  -25.9757  -38.0363   29.6839 O   0  0  0  0  0  0  0  0  0  0  0  0
  -26.4501  -36.7465   29.6126 C   0  0  0  0  0  0  0  0  0  0  0  0
  -26.0581  -40.4294   29.4142 O   0  0  0  0  0  0  0  0  0  0  0  0
  -23.0483  -41.5674   28.4695 O   0  0  0  0  0  0  0  0  0  0  0  0
  -23.0038  -41.1375   31.6307 O   0  0  0  0  0  0  0  0  0  0  0  0
  -26.3656  -34.8164   28.6275 H   0  0  0  0  0  0  0  0  0  0  0  0
  -23.9477  -35.8730   28.3581 H   0  0  0  0  0  0  0  0  0  0  0  0
  -25.6551  -38.0017   26.9938 H   0  0  0  0  0  0  0  0  0  0  0  0
  -23.8789  -38.1731   29.4702 H   0  0  0  0  0  0  0  0  0  0  0  0
  -24.9089  -40.2033   27.6659 H   0  0  0  0  0  0  0  0  0  0  0  0
  -22.9357  -39.8218   29.5775 H   0  0  0  0  0  0  0  0  0  0  0  0
  -24.9885  -40.9442   31.0433 H   0  0  0  0  0  0  0  0  0  0  0  0
  -24.1553  -42.4230   30.4679 H   0  0  0  0  0  0  0  0  0  0  0  0
  -22.8560  -38.2437   27.5179 H   0  0  0  0  0  0  0  0  0  0  0  0
  -24.9554  -34.5200   26.7270 H   0  0  0  0  0  0  0  0  0  0  0  0
  -25.9212  -40.3749   30.3932 H   0  0  0  0  0  0  0  0  0  0  0  0
  -22.5932  -42.2723   28.9949 H   0  0  0  0  0  0  0  0  0  0  0  0
  -23.3842  -41.2143   32.5415 H   0  0  0  0  0  0  0  0  0  0  0  0
  1 10  1  0
  1 11  2  0
  1 14  1  0
  2  3  1  0
  2 14  2  0
  3  4  1  0
  3 12  1  0
  4  5  1  0
  4  9  1  0
  5  6  1  0
  5 13  1  0
  6  7  1  0
  6 15  1  0
  7  8  1  0
  7 16  1  0
  8 17  1  0
 13 14  1  0
  2 18  1  0
  3 19  1  1
  4 20  1  6
  5 21  1  1
  6 22  1  6
  7 23  1  1
  8 24  1  0
  8 25  1  0
  9 26  1  0
 12 27  1  0
 15 28  1  0
 16 29  1  0
 17 30  1  0
M  CHG  1  10  -1
M  END
>  <filename_input>  (16) 
7P1F_KFN_docked.sdf

>  <pdb_id>  (16) 
7P1F_KFN

>  <pose_rank>  (16) 
15

>  <num_atoms_heavy>  (16) 
17

>  <num_torsions>  (16) 
4

>  <pose>  (16) 
[-25.934677673266222, -35.826642033456665, 28.68860432744916, -2.6805960393697137, -1.1954405219651123, 0.5682200486390806, -0.4252849766425012, 5.261973685525597, -1.1894859286513881, -3.5040229080261778]

>  <energy>  (16) 
-226.7387036000642

>  <inter_energy>  (16) 
-218.75528171075274

>  <intra_energy>  (16) 
0.0034474657560283916

>  <rmsd>  (16) 
7.92123

>  <sdf_rank>  (16) 
0

$$$$

     RDKit          3D

 30 30  0  0  0  0  0  0  0  0999 V2000
  -25.4192  -45.2760   33.5344 C   0  0  0  0  0  0  0  0  0  0  0  0
  -24.5491  -44.7082   31.2707 C   0  0  0  0  0  0  0  0  0  0  0  0
  -24.1581  -43.7064   30.3387 C   0  0  1  0  0  0  0  0  0  0  0  0
  -23.6495  -42.4386   31.0277 C   0  0  2  0  0  0  0  0  0  0  0  0
  -24.6641  -41.9761   32.0760 C   0  0  2  0  0  0  0  0  0  0  0  0
  -24.1231  -40.7856   32.8938 C   0  0  1  0  0  0  0  0  0  0  0  0
  -22.8188  -41.1751   33.5767 C   0  0  1  0  0  0  0  0  0  0  0  0
  -21.8147  -40.0153   33.5303 C   0  0  0  0  0  0  0  0  0  0  0  0
  -23.4397  -41.3851   30.0599 O   0  0  0  0  0  0  0  0  0  0  0  0
  -26.4892  -45.9200   33.3786 O   0  0  0  0  0  0  0  0  0  0  0  0
  -24.7714  -45.4308   34.6000 O   0  0  0  0  0  0  0  0  0  0  0  0
  -23.1800  -44.1769   29.3930 O   0  0  0  0  0  0  0  0  0  0  0  0
  -24.9246  -43.0539   33.0019 O   0  0  0  0  0  0  0  0  0  0  0  0
  -24.9481  -44.3599   32.5688 C   0  0  0  0  0  0  0  0  0  0  0  0
  -23.8624  -39.7100   31.9750 O   0  0  0  0  0  0  0  0  0  0  0  0
  -23.0256  -41.5529   34.9460 O   0  0  0  0  0  0  0  0  0  0  0  0
  -21.2730  -39.8166   34.8421 O   0  0  0  0  0  0  0  0  0  0  0  0
  -24.5382  -45.7662   30.9697 H   0  0  0  0  0  0  0  0  0  0  0  0
  -25.0732  -43.4556   29.7821 H   0  0  0  0  0  0  0  0  0  0  0  0
  -22.6913  -42.6664   31.5176 H   0  0  0  0  0  0  0  0  0  0  0  0
  -25.5775  -41.6732   31.5431 H   0  0  0  0  0  0  0  0  0  0  0  0
  -24.8538  -40.4879   33.6603 H   0  0  0  0  0  0  0  0  0  0  0  0
  -22.4184  -42.0399   33.0273 H   0  0  0  0  0  0  0  0  0  0  0  0
  -21.0031  -40.2576   32.8286 H   0  0  0  0  0  0  0  0  0  0  0  0
  -22.3204  -39.0983   33.1935 H   0  0  0  0  0  0  0  0  0  0  0  0
  -23.2699  -40.5319   30.5325 H   0  0  0  0  0  0  0  0  0  0  0  0
  -22.4032  -44.5505   29.8799 H   0  0  0  0  0  0  0  0  0  0  0  0
  -23.6622  -38.8838   32.4823 H   0  0  0  0  0  0  0  0  0  0  0  0
  -22.6456  -40.8587   35.5409 H   0  0  0  0  0  0  0  0  0  0  0  0
  -21.9503  -40.0650   35.5200 H   0  0  0  0  0  0  0  0  0  0  0  0
  1 10  1  0
  1 11  2  0
  1 14  1  0
  2  3  1  0
  2 14  2  0
  3  4  1  0
  3 12  1  0
  4  5  1  0
  4  9  1  0
  5  6  1  0
  5 13  1  0
  6  7  1  0
  6 15  1  0
  7  8  1  0
  7 16  1  0
  8 17  1  0
 13 14  1  0
  2 18  1  0
  3 19  1  6
  4 20  1  1
  5 21  1  6
  6 22  1  1
  7 23  1  6
  8 24  1  0
  8 25  1  0
  9 26  1  0
 12 27  1  0
 15 28  1  0
 16 29  1  0
 17 30  1  0
M  CHG  1  10  -1
M  END
>  <filename_input>  (17) 
7P1F_KFN_docked.sdf

>  <pdb_id>  (17) 
7P1F_KFN

>  <pose_rank>  (17) 
16

>  <num_atoms_heavy>  (17) 
17

>  <num_torsions>  (17) 
4

>  <pose>  (17) 
[-24.549119306665816, -44.70819833983694, 31.2707063805513, -0.3019631480728576, 7.91554959045867, -1.3021075394717363, -7.438037331424748, -4.125951241486319, 5.683110437744826, 1.2309589759475825]

>  <energy>  (17) 
-93.5231543210206

>  <inter_energy>  (17) 
-124.19107071676623

>  <intra_energy>  (17) 
22.84473475407383

>  <rmsd>  (17) 
6.22125

>  <sdf_rank>  (17) 
0

$$$$

     RDKit          3D

 30 30  0  0  0  0  0  0  0  0999 V2000
  -22.6439  -44.3246   30.0003 C   0  0  0  0  0  0  0  0  0  0  0  0
  -23.0960  -41.9935   29.2487 C   0  0  0  0  0  0  0  0  0  0  0  0
  -22.6639  -40.6399   29.1705 C   0  0  1  0  0  0  0  0  0  0  0  0
  -21.1389  -40.5163   29.1650 C   0  0  2  0  0  0  0  0  0  0  0  0
  -20.5507  -41.3092   30.3344 C   0  0  2  0  0  0  0  0  0  0  0  0
  -19.0094  -41.3302   30.2795 C   0  0  1  0  0  0  0  0  0  0  0  0
  -18.4372  -40.5921   31.4825 C   0  0  1  0  0  0  0  0  0  0  0  0
  -17.1129  -39.9070   31.1190 C   0  0  0  0  0  0  0  0  0  0  0  0
  -20.7423  -39.1301   29.2724 O   0  0  0  0  0  0  0  0  0  0  0  0
  -23.7999  -44.6539   30.3733 O   0  0  0  0  0  0  0  0  0  0  0  0
  -21.7877  -45.2270   29.8215 O   0  0  0  0  0  0  0  0  0  0  0  0
  -23.2166  -39.9433   28.0384 O   0  0  0  0  0  0  0  0  0  0  0  0
  -21.0045  -42.6788   30.2639 O   0  0  0  0  0  0  0  0  0  0  0  0
  -22.2714  -42.9753   29.8158 C   0  0  0  0  0  0  0  0  0  0  0  0
  -18.5914  -42.7054   30.3372 O   0  0  0  0  0  0  0  0  0  0  0  0
  -19.3477  -39.6017   31.9832 O   0  0  0  0  0  0  0  0  0  0  0  0
  -17.3895  -38.7684   30.2939 O   0  0  0  0  0  0  0  0  0  0  0  0
  -24.0868  -42.2722   28.8604 H   0  0  0  0  0  0  0  0  0  0  0  0
  -23.0476  -40.1601   30.0830 H   0  0  0  0  0  0  0  0  0  0  0  0
  -20.7579  -40.9219   28.2161 H   0  0  0  0  0  0  0  0  0  0  0  0
  -20.8803  -40.8229   31.2644 H   0  0  0  0  0  0  0  0  0  0  0  0
  -18.6554  -40.8434   29.3588 H   0  0  0  0  0  0  0  0  0  0  0  0
  -18.2672  -41.3453   32.2659 H   0  0  0  0  0  0  0  0  0  0  0  0
  -16.6013  -39.5821   32.0370 H   0  0  0  0  0  0  0  0  0  0  0  0
  -16.4658  -40.6118   30.5762 H   0  0  0  0  0  0  0  0  0  0  0  0
  -20.6709  -38.8804   30.2277 H   0  0  0  0  0  0  0  0  0  0  0  0
  -23.7996  -39.2086   28.3555 H   0  0  0  0  0  0  0  0  0  0  0  0
  -18.5064  -42.9850   31.2831 H   0  0  0  0  0  0  0  0  0  0  0  0
  -19.3367  -39.6138   32.9731 H   0  0  0  0  0  0  0  0  0  0  0  0
  -17.5801  -37.9840   30.8671 H   0  0  0  0  0  0  0  0  0  0  0  0
  1 10  1  0
  1 11  2  0
  1 14  1  0
  2  3  1  0
  2 14  2  0
  3  4  1  0
  3 12  1  0
  4  5  1  0
  4  9  1  0
  5  6  1  0
  5 13  1  0
  6  7  1  0
  6 15  1  0
  7  8  1  0
  7 16  1  0
  8 17  1  0
 13 14  1  0
  2 18  1  0
  3 19  1  1
  4 20  1  6
  5 21  1  1
  6 22  1  6
  7 23  1  1
  8 24  1  0
  8 25  1  0
  9 26  1  0
 12 27  1  0
 15 28  1  0
 16 29  1  0
 17 30  1  0
M  CHG  1  10  -1
M  END
>  <filename_input>  (18) 
7P1F_KFN_docked.sdf

>  <pdb_id>  (18) 
7P1F_KFN

>  <pose_rank>  (18) 
17

>  <num_atoms_heavy>  (18) 
17

>  <num_torsions>  (18) 
4

>  <pose>  (18) 
[-23.09604900738698, -41.993489888490934, 29.248711110963495, -1.1950596055872473, -2.935531996354989, -0.3309441772201076, -0.7197529051477106, 5.18299850612082, 0.6554403702829142, -6.067806275273869]

>  <energy>  (18) 
-332.14087381464657

>  <inter_energy>  (18) 
-347.9251651069785

>  <intra_energy>  (18) 
3.7811692557408136

>  <rmsd>  (18) 
4.18061

>  <sdf_rank>  (18) 
0

$$$$

     RDKit          3D

 30 30  0  0  0  0  0  0  0  0999 V2000
  -20.4660  -44.3017   29.0558 C   0  0  0  0  0  0  0  0  0  0  0  0
  -18.7181  -42.9722   30.2310 C   0  0  0  0  0  0  0  0  0  0  0  0
  -18.1728  -41.6958   30.5447 C   0  0  1  0  0  0  0  0  0  0  0  0
  -19.2332  -40.5929   30.5362 C   0  0  2  0  0  0  0  0  0  0  0  0
  -20.0256  -40.6462   29.2280 C   0  0  2  0  0  0  0  0  0  0  0  0
  -21.1990  -39.6453   29.2413 C   0  0  1  0  0  0  0  0  0  0  0  0
  -22.0367  -39.8109   27.9803 C   0  0  1  0  0  0  0  0  0  0  0  0
  -23.3736  -39.0696   28.1158 C   0  0  0  0  0  0  0  0  0  0  0  0
  -18.6143  -39.2936   30.6743 O   0  0  0  0  0  0  0  0  0  0  0  0
  -19.7630  -45.2737   28.6751 O   0  0  0  0  0  0  0  0  0  0  0  0
  -21.7173  -44.4142   29.0273 O   0  0  0  0  0  0  0  0  0  0  0  0
  -17.4642  -41.6855   31.7978 O   0  0  0  0  0  0  0  0  0  0  0  0
  -20.5858  -41.9668   29.0581 O   0  0  0  0  0  0  0  0  0  0  0  0
  -19.8936  -43.0809   29.4746 C   0  0  0  0  0  0  0  0  0  0  0  0
  -22.0169  -39.9498   30.3848 O   0  0  0  0  0  0  0  0  0  0  0  0
  -21.3525  -39.3211   26.8173 O   0  0  0  0  0  0  0  0  0  0  0  0
  -24.3559  -39.7310   27.3087 O   0  0  0  0  0  0  0  0  0  0  0  0
  -18.2124  -43.8825   30.5854 H   0  0  0  0  0  0  0  0  0  0  0  0
  -17.4476  -41.4860   29.7446 H   0  0  0  0  0  0  0  0  0  0  0  0
  -19.9132  -40.7542   31.3857 H   0  0  0  0  0  0  0  0  0  0  0  0
  -19.3342  -40.3936   28.4106 H   0  0  0  0  0  0  0  0  0  0  0  0
  -20.8183  -38.6142   29.2857 H   0  0  0  0  0  0  0  0  0  0  0  0
  -22.2164  -40.8892   27.8576 H   0  0  0  0  0  0  0  0  0  0  0  0
  -23.6947  -39.0770   29.1679 H   0  0  0  0  0  0  0  0  0  0  0  0
  -23.2574  -38.0280   27.7819 H   0  0  0  0  0  0  0  0  0  0  0  0
  -18.5114  -39.0775   31.6349 H   0  0  0  0  0  0  0  0  0  0  0  0
  -18.1142  -41.6949   32.5445 H   0  0  0  0  0  0  0  0  0  0  0  0
  -21.5092  -39.7608   31.2134 H   0  0  0  0  0  0  0  0  0  0  0  0
  -20.5803  -38.7683   27.0970 H   0  0  0  0  0  0  0  0  0  0  0  0
  -25.0182  -40.1769   27.8941 H   0  0  0  0  0  0  0  0  0  0  0  0
  1 10  1  0
  1 11  2  0
  1 14  1  0
  2  3  1  0
  2 14  2  0
  3  4  1  0
  3 12  1  0
  4  5  1  0
  4  9  1  0
  5  6  1  0
  5 13  1  0
  6  7  1  0
  6 15  1  0
  7  8  1  0
  7 16  1  0
  8 17  1  0
 13 14  1  0
  2 18  1  0
  3 19  1  6
  4 20  1  1
  5 21  1  6
  6 22  1  1
  7 23  1  6
  8 24  1  0
  8 25  1  0
  9 26  1  0
 12 27  1  0
 15 28  1  0
 16 29  1  0
 17 30  1  0
M  CHG  1  10  -1
M  END
>  <filename_input>  (19) 
7P1F_KFN_docked.sdf

>  <pdb_id>  (19) 
7P1F_KFN

>  <pose_rank>  (19) 
18

>  <num_atoms_heavy>  (19) 
17

>  <num_torsions>  (19) 
4

>  <pose>  (19) 
[-18.718095903254277, -42.972219808833955, 30.230988658711453, -3.992290590957684, -4.79318139849076, 1.5651906009446133, -0.7013305192454754, 6.400862949517503, 6.147677676896942, 2.5752575201074848]

>  <energy>  (19) 
-646.162070033268

>  <inter_energy>  (19) 
-650.9456977471452

>  <intra_energy>  (19) 
0.0

>  <rmsd>  (19) 
0.938977

>  <sdf_rank>  (19) 
0

$$$$

     RDKit          3D

 30 30  0  0  0  0  0  0  0  0999 V2000
  -25.4891  -36.5275   26.7165 C   0  0  0  0  0  0  0  0  0  0  0  0
  -23.1715  -37.3086   27.1881 C   0  0  0  0  0  0  0  0  0  0  0  0
  -22.3007  -38.1164   27.9718 C   0  0  1  0  0  0  0  0  0  0  0  0
  -23.0034  -39.3553   28.5306 C   0  0  2  0  0  0  0  0  0  0  0  0
  -24.2990  -38.9433   29.2332 C   0  0  2  0  0  0  0  0  0  0  0  0
  -25.1099  -40.1757   29.6831 C   0  0  1  0  0  0  0  0  0  0  0  0
  -26.4500  -40.2073   28.9602 C   0  0  1  0  0  0  0  0  0  0  0  0
  -27.2631  -41.4399   29.3783 C   0  0  0  0  0  0  0  0  0  0  0  0
  -22.1445  -40.0465   29.4661 O   0  0  0  0  0  0  0  0  0  0  0  0
  -25.1318  -35.6651   25.8724 O   0  0  0  0  0  0  0  0  0  0  0  0
  -26.7115  -36.6375   26.9864 O   0  0  0  0  0  0  0  0  0  0  0  0
  -21.1115  -38.5060   27.2601 O   0  0  0  0  0  0  0  0  0  0  0  0
  -25.1258  -38.1928   28.3168 O   0  0  0  0  0  0  0  0  0  0  0  0
  -24.5578  -37.3438   27.3946 C   0  0  0  0  0  0  0  0  0  0  0  0
  -24.3586  -41.3470   29.3185 O   0  0  0  0  0  0  0  0  0  0  0  0
  -27.2268  -39.0295   29.2251 O   0  0  0  0  0  0  0  0  0  0  0  0
  -28.5860  -41.0236   29.7396 O   0  0  0  0  0  0  0  0  0  0  0  0
  -22.7529  -36.6501   26.4128 H   0  0  0  0  0  0  0  0  0  0  0  0
  -21.9963  -37.4799   28.8158 H   0  0  0  0  0  0  0  0  0  0  0  0
  -23.2363  -40.0325   27.6956 H   0  0  0  0  0  0  0  0  0  0  0  0
  -24.0233  -38.3420   30.1121 H   0  0  0  0  0  0  0  0  0  0  0  0
  -25.2888  -40.1376   30.7678 H   0  0  0  0  0  0  0  0  0  0  0  0
  -26.2292  -40.2512   27.8835 H   0  0  0  0  0  0  0  0  0  0  0  0
  -27.3157  -42.1494   28.5394 H   0  0  0  0  0  0  0  0  0  0  0  0
  -26.7802  -41.9312   30.2359 H   0  0  0  0  0  0  0  0  0  0  0  0
  -22.4190  -39.8256   30.3912 H   0  0  0  0  0  0  0  0  0  0  0  0
  -20.4004  -38.7390   27.9083 H   0  0  0  0  0  0  0  0  0  0  0  0
  -24.0585  -41.8148   30.1377 H   0  0  0  0  0  0  0  0  0  0  0  0
  -27.3105  -38.9025   30.2033 H   0  0  0  0  0  0  0  0  0  0  0  0
  -28.6662  -40.9984   30.7261 H   0  0  0  0  0  0  0  0  0  0  0  0
  1 10  1  0
  1 11  2  0
  1 14  1  0
  2  3  1  0
  2 14  2  0
  3  4  1  0
  3 12  1  0
  4  5  1  0
  4  9  1  0
  5  6  1  0
  5 13  1  0
  6  7  1  0
  6 15  1  0
  7  8  1  0
  7 16  1  0
  8 17  1  0
 13 14  1  0
  2 18  1  0
  3 19  1  1
  4 20  1  6
  5 21  1  1
  6 22  1  1
  7 23  1  6
  8 24  1  0
  8 25  1  0
  9 26  1  0
 12 27  1  0
 15 28  1  0
 16 29  1  0
 17 30  1  0
M  CHG  1  10  -1
M  END
>  <filename_input>  (20) 
7P1F_KFN_docked.sdf

>  <pdb_id>  (20) 
7P1F_KFN

>  <pose_rank>  (20) 
19

>  <num_atoms_heavy>  (20) 
17

>  <num_torsions>  (20) 
4

>  <pose>  (20) 
[-23.171513323121303, -37.308608816059895, 27.188127948901496, -3.860752930922468, -0.5930272258975342, -0.6370629019189917, -0.055724489842091565, 1.1304394776793587, 0.07769914363582098, 1.212755009663148]

>  <energy>  (20) 
-173.32350044431166

>  <inter_energy>  (20) 
-212.55143065344095

>  <intra_energy>  (20) 
48.6153094855669

>  <rmsd>  (20) 
6.85875

>  <sdf_rank>  (20) 
0

$$$$

     RDKit          3D

 30 30  0  0  0  0  0  0  0  0999 V2000
  -23.8934  -35.6036   28.9097 C   0  0  0  0  0  0  0  0  0  0  0  0
  -24.5915  -37.2745   27.1996 C   0  0  0  0  0  0  0  0  0  0  0  0
  -24.2535  -38.3975   26.3936 C   0  0  1  0  0  0  0  0  0  0  0  0
  -23.1715  -39.2685   27.0352 C   0  0  2  0  0  0  0  0  0  0  0  0
  -21.9833  -38.3974   27.4493 C   0  0  2  0  0  0  0  0  0  0  0  0
  -20.9340  -39.2140   28.2309 C   0  0  1  0  0  0  0  0  0  0  0  0
  -19.7397  -38.3329   28.5723 C   0  0  1  0  0  0  0  0  0  0  0  0
  -18.4270  -39.1112   28.4096 C   0  0  0  0  0  0  0  0  0  0  0  0
  -22.7257  -40.2865   26.1103 O   0  0  0  0  0  0  0  0  0  0  0  0
  -23.5831  -35.5582   30.1285 O   0  0  0  0  0  0  0  0  0  0  0  0
  -24.4490  -34.6030   28.3908 O   0  0  0  0  0  0  0  0  0  0  0  0
  -25.3965  -39.2048   26.0556 O   0  0  0  0  0  0  0  0  0  0  0  0
  -22.4424  -37.3389   28.3186 O   0  0  0  0  0  0  0  0  0  0  0  0
  -23.6727  -36.7545   28.1222 C   0  0  0  0  0  0  0  0  0  0  0  0
  -21.5496  -39.6550   29.4540 O   0  0  0  0  0  0  0  0  0  0  0  0
  -19.6877  -37.1609   27.7449 O   0  0  0  0  0  0  0  0  0  0  0  0
  -17.3278  -38.2268   28.6609 O   0  0  0  0  0  0  0  0  0  0  0  0
  -25.5833  -36.8098   27.0978 H   0  0  0  0  0  0  0  0  0  0  0  0
  -23.8508  -37.9745   25.4615 H   0  0  0  0  0  0  0  0  0  0  0  0
  -23.5969  -39.7580   27.9237 H   0  0  0  0  0  0  0  0  0  0  0  0
  -21.5296  -37.9963   26.5310 H   0  0  0  0  0  0  0  0  0  0  0  0
  -20.5893  -40.0665   27.6273 H   0  0  0  0  0  0  0  0  0  0  0  0
  -19.8637  -38.0215   29.6200 H   0  0  0  0  0  0  0  0  0  0  0  0
  -18.4011  -39.9452   29.1264 H   0  0  0  0  0  0  0  0  0  0  0  0
  -18.3562  -39.5123   27.3877 H   0  0  0  0  0  0  0  0  0  0  0  0
  -22.3845  -41.0658   26.6166 H   0  0  0  0  0  0  0  0  0  0  0  0
  -25.8376  -39.5162   26.8854 H   0  0  0  0  0  0  0  0  0  0  0  0
  -21.0457  -39.2940   30.2259 H   0  0  0  0  0  0  0  0  0  0  0  0
  -19.6519  -36.3541   28.3175 H   0  0  0  0  0  0  0  0  0  0  0  0
  -17.2022  -38.1257   29.6376 H   0  0  0  0  0  0  0  0  0  0  0  0
  1 10  1  0
  1 11  2  0
  1 14  1  0
  2  3  1  0
  2 14  2  0
  3  4  1  0
  3 12  1  0
  4  5  1  0
  4  9  1  0
  5  6  1  0
  5 13  1  0
  6  7  1  0
  6 15  1  0
  7  8  1  0
  7 16  1  0
  8 17  1  0
 13 14  1  0
  2 18  1  0
  3 19  1  6
  4 20  1  1
  5 21  1  6
  6 22  1  6
  7 23  1  1
  8 24  1  0
  8 25  1  0
  9 26  1  0
 12 27  1  0
 15 28  1  0
 16 29  1  0
 17 30  1  0
M  CHG  1  10  -1
M  END
>  <filename_input>  (21) 
7P1F_KFN_docked.sdf

>  <pdb_id>  (21) 
7P1F_KFN

>  <pose_rank>  (21) 
20

>  <num_atoms_heavy>  (21) 
17

>  <num_torsions>  (21) 
4

>  <pose>  (21) 
[-24.591478425631582, -37.27448150843938, 27.19959122597734, 1.312960296490228, 0.9075849893563769, -2.1461549872708163, 2.3629469425123277, -0.013265463314976758, 0.7870671930725703, 2.020610459317122]

>  <energy>  (21) 
-300.69708516571063

>  <inter_energy>  (21) 
-305.2646621045483

>  <intra_energy>  (21) 
10.11095057918137

>  <rmsd>  (21) 
6.87503

>  <sdf_rank>  (21) 
0

$$$$

     RDKit          3D

 30 30  0  0  0  0  0  0  0  0999 V2000
  -26.0698  -35.7157   29.1825 C   0  0  0  0  0  0  0  0  0  0  0  0
  -27.0825  -37.8808   28.4819 C   0  0  0  0  0  0  0  0  0  0  0  0
  -26.9213  -39.1467   27.8523 C   0  0  1  0  0  0  0  0  0  0  0  0
  -25.4860  -39.6671   27.9528 C   0  0  2  0  0  0  0  0  0  0  0  0
  -24.5095  -38.5881   27.4792 C   0  0  2  0  0  0  0  0  0  0  0  0
  -23.0454  -39.0194   27.7016 C   0  0  1  0  0  0  0  0  0  0  0  0
  -22.1026  -37.9397   27.1873 C   0  0  1  0  0  0  0  0  0  0  0  0
  -21.0090  -37.6371   28.2207 C   0  0  0  0  0  0  0  0  0  0  0  0
  -25.3205  -40.8564   27.1474 O   0  0  0  0  0  0  0  0  0  0  0  0
  -25.9173  -35.4965   30.4123 O   0  0  0  0  0  0  0  0  0  0  0  0
  -26.3359  -34.7485   28.4256 O   0  0  0  0  0  0  0  0  0  0  0  0
  -27.8385  -40.1378   28.3514 O   0  0  0  0  0  0  0  0  0  0  0  0
  -24.7239  -37.3782   28.2387 O   0  0  0  0  0  0  0  0  0  0  0  0
  -25.9902  -37.0156   28.6370 C   0  0  0  0  0  0  0  0  0  0  0  0
  -22.8477  -39.1714   29.1183 O   0  0  0  0  0  0  0  0  0  0  0  0
  -21.4784  -38.3207   25.9520 O   0  0  0  0  0  0  0  0  0  0  0  0
  -19.7578  -38.1382   27.7339 O   0  0  0  0  0  0  0  0  0  0  0  0
  -28.0737  -37.5780   28.8504 H   0  0  0  0  0  0  0  0  0  0  0  0
  -27.1544  -38.9744   26.7912 H   0  0  0  0  0  0  0  0  0  0  0  0
  -25.2770  -39.9179   29.0032 H   0  0  0  0  0  0  0  0  0  0  0  0
  -24.6878  -38.4270   26.4058 H   0  0  0  0  0  0  0  0  0  0  0  0
  -22.8405  -39.9585   27.1666 H   0  0  0  0  0  0  0  0  0  0  0  0
  -22.7131  -37.0413   27.0132 H   0  0  0  0  0  0  0  0  0  0  0  0
  -20.9368  -36.5502   28.3741 H   0  0  0  0  0  0  0  0  0  0  0  0
  -21.2568  -38.1203   29.1773 H   0  0  0  0  0  0  0  0  0  0  0  0
  -25.2111  -41.6428   27.7388 H   0  0  0  0  0  0  0  0  0  0  0  0
  -27.8289  -40.1274   29.3413 H   0  0  0  0  0  0  0  0  0  0  0  0
  -23.5311  -38.6460   29.6051 H   0  0  0  0  0  0  0  0  0  0  0  0
  -20.6494  -38.8269   26.1435 H   0  0  0  0  0  0  0  0  0  0  0  0
  -19.1753  -38.3715   28.4997 H   0  0  0  0  0  0  0  0  0  0  0  0
  1 10  1  0
  1 11  2  0
  1 14  1  0
  2  3  1  0
  2 14  2  0
  3  4  1  0
  3 12  1  0
  4  5  1  0
  4  9  1  0
  5  6  1  0
  5 13  1  0
  6  7  1  0
  6 15  1  0
  7  8  1  0
  7 16  1  0
  8 17  1  0
 13 14  1  0
  2 18  1  0
  3 19  1  6
  4 20  1  1
  5 21  1  6
  6 22  1  6
  7 23  1  6
  8 24  1  0
  8 25  1  0
  9 26  1  0
 12 27  1  0
 15 28  1  0
 16 29  1  0
 17 30  1  0
M  CHG  1  10  -1
M  END
>  <filename_input>  (22) 
7P1F_KFN_docked.sdf

>  <pdb_id>  (22) 
7P1F_KFN

>  <pose_rank>  (22) 
21

>  <num_atoms_heavy>  (22) 
17

>  <num_torsions>  (22) 
4

>  <pose>  (22) 
[-27.082458167536878, -37.88076098044076, 28.481881700722827, -0.6788810378531099, -1.2280527110614365, 3.3965575292563766, 1.5540952667371701, 0.005423662866499873, -0.7298621914372423, 0.8471547857975716]

>  <energy>  (22) 
-341.56052257979223

>  <inter_energy>  (22) 
-321.3205117033275

>  <intra_energy>  (22) 
0.0

>  <rmsd>  (22) 
7.64691

>  <sdf_rank>  (22) 
0

$$$$

     RDKit          3D

 30 30  0  0  0  0  0  0  0  0999 V2000
  -21.2267  -44.1519   29.4431 C   0  0  0  0  0  0  0  0  0  0  0  0
  -23.3401  -42.8526   29.6636 C   0  0  0  0  0  0  0  0  0  0  0  0
  -23.9748  -41.5901   29.8320 C   0  0  1  0  0  0  0  0  0  0  0  0
  -23.1383  -40.4396   29.2684 C   0  0  2  0  0  0  0  0  0  0  0  0
  -21.7126  -40.5175   29.8191 C   0  0  2  0  0  0  0  0  0  0  0  0
  -20.7989  -39.4623   29.1628 C   0  0  1  0  0  0  0  0  0  0  0  0
  -19.4483  -39.4358   29.8661 C   0  0  1  0  0  0  0  0  0  0  0  0
  -19.6033  -39.7875   31.3519 C   0  0  0  0  0  0  0  0  0  0  0  0
  -23.7245  -39.1661   29.6221 O   0  0  0  0  0  0  0  0  0  0  0  0
  -19.9710  -44.1784   29.3623 O   0  0  0  0  0  0  0  0  0  0  0  0
  -21.8572  -45.2380   29.3996 O   0  0  0  0  0  0  0  0  0  0  0  0
  -25.3001  -41.5537   29.2711 O   0  0  0  0  0  0  0  0  0  0  0  0
  -21.1534  -41.8165   29.5249 O   0  0  0  0  0  0  0  0  0  0  0  0
  -21.9463  -42.9411   29.5410 C   0  0  0  0  0  0  0  0  0  0  0  0
  -20.6006  -39.8514   27.7922 O   0  0  0  0  0  0  0  0  0  0  0  0
  -18.5179  -40.3514   29.2689 O   0  0  0  0  0  0  0  0  0  0  0  0
  -18.3867  -40.3848   31.8177 O   0  0  0  0  0  0  0  0  0  0  0  0
  -23.9491  -43.7680   29.6293 H   0  0  0  0  0  0  0  0  0  0  0  0
  -24.0642  -41.4535   30.9198 H   0  0  0  0  0  0  0  0  0  0  0  0
  -23.1152  -40.5274   28.1722 H   0  0  0  0  0  0  0  0  0  0  0  0
  -21.7650  -40.3375   30.9030 H   0  0  0  0  0  0  0  0  0  0  0  0
  -21.2588  -38.4654   29.2325 H   0  0  0  0  0  0  0  0  0  0  0  0
  -19.0558  -38.4135   29.7616 H   0  0  0  0  0  0  0  0  0  0  0  0
  -19.8100  -38.8735   31.9280 H   0  0  0  0  0  0  0  0  0  0  0  0
  -20.4379  -40.4921   31.4826 H   0  0  0  0  0  0  0  0  0  0  0  0
  -23.7628  -39.0828   30.6078 H   0  0  0  0  0  0  0  0  0  0  0  0
  -25.9674  -41.5353   30.0022 H   0  0  0  0  0  0  0  0  0  0  0  0
  -20.1512  -40.7330   27.7612 H   0  0  0  0  0  0  0  0  0  0  0  0
  -18.0273  -40.8343   29.9805 H   0  0  0  0  0  0  0  0  0  0  0  0
  -18.3789  -40.3886   32.8076 H   0  0  0  0  0  0  0  0  0  0  0  0
  1 10  1  0
  1 11  2  0
  1 14  1  0
  2  3  1  0
  2 14  2  0
  3  4  1  0
  3 12  1  0
  4  5  1  0
  4  9  1  0
  5  6  1  0
  5 13  1  0
  6  7  1  0
  6 15  1  0
  7  8  1  0
  7 16  1  0
  8 17  1  0
 13 14  1  0
  2 18  1  0
  3 19  1  1
  4 20  1  6
  5 21  1  1
  6 22  1  6
  7 23  1  1
  8 24  1  0
  8 25  1  0
  9 26  1  0
 12 27  1  0
 15 28  1  0
 16 29  1  0
 17 30  1  0
M  CHG  1  10  -1
M  END
>  <filename_input>  (23) 
7P1F_KFN_docked.sdf

>  <pdb_id>  (23) 
7P1F_KFN

>  <pose_rank>  (23) 
22

>  <num_atoms_heavy>  (23) 
17

>  <num_torsions>  (23) 
4

>  <pose>  (23) 
[-23.34014112479197, -42.85257956317266, 29.663615134076128, 0.071398166287974, 3.6773187778222027, 0.26327612020854335, -9.428182191210075, -6.389666291959784, 2.683432478776475, 1.5914945354414642]

>  <energy>  (23) 
-375.387673565227

>  <inter_energy>  (23) 
-381.68484978287

>  <intra_energy>  (23) 
10.551880147906143

>  <rmsd>  (23) 
4.1196

>  <sdf_rank>  (23) 
0

$$$$

     RDKit          3D

 30 30  0  0  0  0  0  0  0  0999 V2000
  -23.0014  -45.8716   30.3520 C   0  0  0  0  0  0  0  0  0  0  0  0
  -24.4978  -43.8970   30.6074 C   0  0  0  0  0  0  0  0  0  0  0  0
  -24.6437  -42.4816   30.6297 C   0  0  1  0  0  0  0  0  0  0  0  0
  -23.5935  -41.7756   29.7698 C   0  0  2  0  0  0  0  0  0  0  0  0
  -22.1969  -42.2807   30.1391 C   0  0  2  0  0  0  0  0  0  0  0  0
  -21.1229  -41.7016   29.1957 C   0  0  1  0  0  0  0  0  0  0  0  0
  -20.0220  -41.0350   30.0099 C   0  0  1  0  0  0  0  0  0  0  0  0
  -20.5698  -40.5290   31.3512 C   0  0  0  0  0  0  0  0  0  0  0  0
  -23.6575  -40.3444   29.9648 O   0  0  0  0  0  0  0  0  0  0  0  0
  -22.2743  -46.4012   31.2321 O   0  0  0  0  0  0  0  0  0  0  0  0
  -23.4853  -46.6007   29.4502 O   0  0  0  0  0  0  0  0  0  0  0  0
  -25.9626  -42.0515   30.2450 O   0  0  0  0  0  0  0  0  0  0  0  0
  -22.1556  -43.7189   30.0100 O   0  0  0  0  0  0  0  0  0  0  0  0
  -23.2557  -44.4830   30.3256 C   0  0  0  0  0  0  0  0  0  0  0  0
  -20.5550  -42.7986   28.4585 O   0  0  0  0  0  0  0  0  0  0  0  0
  -18.9301  -41.9313   30.2650 O   0  0  0  0  0  0  0  0  0  0  0  0
  -19.4719  -40.1259   32.1795 O   0  0  0  0  0  0  0  0  0  0  0  0
  -25.3681  -44.5375   30.8132 H   0  0  0  0  0  0  0  0  0  0  0  0
  -24.4859  -42.1906   31.6787 H   0  0  0  0  0  0  0  0  0  0  0  0
  -23.7986  -41.9992   28.7124 H   0  0  0  0  0  0  0  0  0  0  0  0
  -21.9912  -41.9628   31.1719 H   0  0  0  0  0  0  0  0  0  0  0  0
  -21.5710  -40.9567   28.5216 H   0  0  0  0  0  0  0  0  0  0  0  0
  -19.6530  -40.1884   29.4121 H   0  0  0  0  0  0  0  0  0  0  0  0
  -21.2358  -39.6710   31.1779 H   0  0  0  0  0  0  0  0  0  0  0  0
  -21.1364  -41.3303   31.8480 H   0  0  0  0  0  0  0  0  0  0  0  0
  -23.6664  -40.1436   30.9342 H   0  0  0  0  0  0  0  0  0  0  0  0
  -26.5021  -41.8756   31.0562 H   0  0  0  0  0  0  0  0  0  0  0  0
  -20.2048  -43.4750   29.0908 H   0  0  0  0  0  0  0  0  0  0  0  0
  -18.8073  -42.0320   31.2422 H   0  0  0  0  0  0  0  0  0  0  0  0
  -19.7256  -40.2191   33.1319 H   0  0  0  0  0  0  0  0  0  0  0  0
  1 10  1  0
  1 11  2  0
  1 14  1  0
  2  3  1  0
  2 14  2  0
  3  4  1  0
  3 12  1  0
  4  5  1  0
  4  9  1  0
  5  6  1  0
  5 13  1  0
  6  7  1  0
  6 15  1  0
  7  8  1  0
  7 16  1  0
  8 17  1  0
 13 14  1  0
  2 18  1  0
  3 19  1  1
  4 20  1  6
  5 21  1  1
  6 22  1  6
  7 23  1  6
  8 24  1  0
  8 25  1  0
  9 26  1  0
 12 27  1  0
 15 28  1  0
 16 29  1  0
 17 30  1  0
M  CHG  1  10  -1
M  END
>  <filename_input>  (24) 
7P1F_KFN_docked.sdf

>  <pdb_id>  (24) 
7P1F_KFN

>  <pose_rank>  (24) 
23

>  <num_atoms_heavy>  (24) 
17

>  <num_torsions>  (24) 
4

>  <pose>  (24) 
[-24.497838465767888, -43.89699254846316, 30.607373971329586, 0.8470074166211157, 3.707027711580599, 0.15777651658480243, -8.243864637989722, -7.1871331183164155, 2.7544607014077997, 1.905060215766072]

>  <energy>  (24) 
-269.3418301412294

>  <inter_energy>  (24) 
-264.05108655581046

>  <intra_energy>  (24) 
2.1641677030426614

>  <rmsd>  (24) 
4.69861

>  <sdf_rank>  (24) 
0

$$$$

     RDKit          3D

 30 30  0  0  0  0  0  0  0  0999 V2000
  -22.6785  -43.3319   30.7216 C   0  0  0  0  0  0  0  0  0  0  0  0
  -22.6914  -41.0012   29.8432 C   0  0  0  0  0  0  0  0  0  0  0  0
  -21.9528  -39.8749   29.3842 C   0  0  1  0  0  0  0  0  0  0  0  0
  -20.6141  -40.2733   28.7596 C   0  0  2  0  0  0  0  0  0  0  0  0
  -19.8502  -41.1933   29.7147 C   0  0  2  0  0  0  0  0  0  0  0  0
  -18.5616  -41.7343   29.0623 C   0  0  1  0  0  0  0  0  0  0  0  0
  -17.3657  -40.9039   29.5090 C   0  0  1  0  0  0  0  0  0  0  0  0
  -17.2886  -40.8437   31.0405 C   0  0  0  0  0  0  0  0  0  0  0  0
  -19.8173  -39.1002   28.4774 O   0  0  0  0  0  0  0  0  0  0  0  0
  -23.9019  -43.3339   31.0167 O   0  0  0  0  0  0  0  0  0  0  0  0
  -22.0031  -44.3686   30.9410 O   0  0  0  0  0  0  0  0  0  0  0  0
  -22.6991  -39.0566   28.4644 O   0  0  0  0  0  0  0  0  0  0  0  0
  -20.6753  -42.3306   30.0501 O   0  0  0  0  0  0  0  0  0  0  0  0
  -22.0372  -42.1916   30.1905 C   0  0  0  0  0  0  0  0  0  0  0  0
  -18.3811  -43.0880   29.5144 O   0  0  0  0  0  0  0  0  0  0  0  0
  -16.1304  -41.4333   29.0045 O   0  0  0  0  0  0  0  0  0  0  0  0
  -15.9707  -40.4316   31.4239 O   0  0  0  0  0  0  0  0  0  0  0  0
  -23.7864  -40.9374   29.9262 H   0  0  0  0  0  0  0  0  0  0  0  0
  -21.7510  -39.2746   30.2836 H   0  0  0  0  0  0  0  0  0  0  0  0
  -20.8116  -40.8035   27.8163 H   0  0  0  0  0  0  0  0  0  0  0  0
  -19.5929  -40.6049   30.6077 H   0  0  0  0  0  0  0  0  0  0  0  0
  -18.6417  -41.6866   27.9663 H   0  0  0  0  0  0  0  0  0  0  0  0
  -17.5107  -39.8928   29.1007 H   0  0  0  0  0  0  0  0  0  0  0  0
  -18.0261  -40.1207   31.4191 H   0  0  0  0  0  0  0  0  0  0  0  0
  -17.5064  -41.8355   31.4636 H   0  0  0  0  0  0  0  0  0  0  0  0
  -19.5331  -38.6818   29.3284 H   0  0  0  0  0  0  0  0  0  0  0  0
  -23.2720  -38.4284   28.9717 H   0  0  0  0  0  0  0  0  0  0  0  0
  -18.3784  -43.1078   30.5042 H   0  0  0  0  0  0  0  0  0  0  0  0
  -15.5449  -41.6842   29.7623 H   0  0  0  0  0  0  0  0  0  0  0  0
  -15.9055  -40.4113   32.4116 H   0  0  0  0  0  0  0  0  0  0  0  0
  1 10  1  0
  1 11  2  0
  1 14  1  0
  2  3  1  0
  2 14  2  0
  3  4  1  0
  3 12  1  0
  4  5  1  0
  4  9  1  0
  5  6  1  0
  5 13  1  0
  6  7  1  0
  6 15  1  0
  7  8  1  0
  7 16  1  0
  8 17  1  0
 13 14  1  0
  2 18  1  0
  3 19  1  1
  4 20  1  6
  5 21  1  1
  6 22  1  6
  7 23  1  6
  8 24  1  0
  8 25  1  0
  9 26  1  0
 12 27  1  0
 15 28  1  0
 16 29  1  0
 17 30  1  0
M  CHG  1  10  -1
M  END
>  <filename_input>  (25) 
7P1F_KFN_docked.sdf

>  <pdb_id>  (25) 
7P1F_KFN

>  <pose_rank>  (25) 
24

>  <num_atoms_heavy>  (25) 
17

>  <num_torsions>  (25) 
4

>  <pose>  (25) 
[-22.691442661062123, -41.001245196014324, 29.843170271262363, 1.8430734963350097, 2.880264043576477, -0.09376605358322808, -6.4022957415127735, -7.682173061788743, 4.181090760936826, 1.7711160823262022]

>  <energy>  (25) 
-375.54283707690985

>  <inter_energy>  (25) 
-374.95568819432873

>  <intra_energy>  (25) 
4.476245675951789

>  <rmsd>  (25) 
4.47571

>  <sdf_rank>  (25) 
0

$$$$

     RDKit          3D

 30 30  0  0  0  0  0  0  0  0999 V2000
  -20.3970  -44.4070   28.8070 C   0  0  0  0  0  0  0  0  0  0  0  0
  -18.4790  -43.2480   29.8940 C   0  0  0  0  0  0  0  0  0  0  0  0
  -17.8510  -42.0240   30.2580 C   0  0  1  0  0  0  0  0  0  0  0  0
  -18.8600  -40.8930   30.4670 C   0  0  2  0  0  0  0  0  0  0  0  0
  -19.7910  -40.7990   29.2560 C   0  0  2  0  0  0  0  0  0  0  0  0
  -20.9140  -39.7680   29.4900 C   0  0  1  0  0  0  0  0  0  0  0  0
  -21.7940  -39.6690   28.2510 C   0  0  1  0  0  0  0  0  0  0  0  0
  -22.9940  -38.7480   28.5100 C   0  0  0  0  0  0  0  0  0  0  0  0
  -18.1770  -39.6320   30.6510 O   0  0  0  0  0  0  0  0  0  0  0  0
  -19.9130  -45.5590   28.9570 O   0  0  0  0  0  0  0  0  0  0  0  0
  -21.4890  -44.2860   28.1970 O   0  0  0  0  0  0  0  0  0  0  0  0
  -17.0110  -42.1530   31.4200 O   0  0  0  0  0  0  0  0  0  0  0  0
  -20.4200  -42.0800   29.0320 O   0  0  0  0  0  0  0  0  0  0  0  0
  -19.7330  -43.2490   29.2670 C   0  0  0  0  0  0  0  0  0  0  0  0
  -21.7130  -40.2380   30.5900 O   0  0  0  0  0  0  0  0  0  0  0  0
  -21.0660  -39.1720   27.1180 O   0  0  0  0  0  0  0  0  0  0  0  0
  -22.5130  -37.4370   28.8320 O   0  0  0  0  0  0  0  0  0  0  0  0
  -17.9756  -44.2027   30.1066 H   0  0  0  0  0  0  0  0  0  0  0  0
  -17.2089  -41.7627   29.4040 H   0  0  0  0  0  0  0  0  0  0  0  0
  -19.4499  -41.1120   31.3692 H   0  0  0  0  0  0  0  0  0  0  0  0
  -19.1825  -40.4924   28.3924 H   0  0  0  0  0  0  0  0  0  0  0  0
  -20.4831  -38.7787   29.7034 H   0  0  0  0  0  0  0  0  0  0  0  0
  -22.1443  -40.6876   28.0279 H   0  0  0  0  0  0  0  0  0  0  0  0
  -23.6232  -38.6993   27.6090 H   0  0  0  0  0  0  0  0  0  0  0  0
  -23.5915  -39.1411   29.3458 H   0  0  0  0  0  0  0  0  0  0  0  0
  -18.0777  -39.4486   31.6188 H   0  0  0  0  0  0  0  0  0  0  0  0
  -17.5631  -42.0682   32.2374 H   0  0  0  0  0  0  0  0  0  0  0  0
  -21.2811  -39.9839   31.4438 H   0  0  0  0  0  0  0  0  0  0  0  0
  -20.2902  -38.6424   27.4307 H   0  0  0  0  0  0  0  0  0  0  0  0
  -22.4745  -37.3320   29.8157 H   0  0  0  0  0  0  0  0  0  0  0  0
  1 10  1  0
  1 11  2  0
  1 14  1  0
  2  3  1  0
  2 14  2  0
  3  4  1  0
  3 12  1  0
  4  5  1  0
  4  9  1  0
  5  6  1  0
  5 13  1  0
  6  7  1  0
  6 15  1  0
  7  8  1  0
  7 16  1  0
  8 17  1  0
 13 14  1  0
  2 18  1  0
  3 19  1  6
  4 20  1  1
  5 21  1  6
  6 22  1  1
  7 23  1  6
  8 24  1  0
  8 25  1  0
  9 26  1  0
 12 27  1  0
 15 28  1  0
 16 29  1  0
 17 30  1  0
M  CHG  1  10  -1
M  END
>  <filename_input>  (26) 
7P1F_KFN_docked.sdf

>  <pdb_id>  (26) 
7P1F_KFN

>  <pose_rank>  (26) 
25

>  <num_atoms_heavy>  (26) 
17

>  <num_torsions>  (26) 
4

>  <pose>  (26) 
[-18.479, -43.248, 29.894, 1e-06, 1e-06, 1e-06, 0.0, 0.0, 0.0, 0.0]

>  <energy>  (26) 
-797.1309396511946

>  <inter_energy>  (26) 
-794.9131307922722

>  <intra_energy>  (26) 
0.0

>  <rmsd>  (26) 
0.0

>  <sdf_rank>  (26) 
0

$$$$
