
     RDKit          3D

 41 43  0  0  0  0  0  0  0  0999 V2000
   31.7427   -7.1335  -26.7921 O   0  0  0  0  0  0  0  0  0  0  0  0
   32.5105   -7.5993  -27.6272 C   0  0  0  0  0  0  0  0  0  0  0  0
   32.0583   -8.2868  -28.6766 O   0  0  0  0  0  0  0  0  0  0  0  0
   33.9932   -7.5421  -27.4985 C   0  0  0  0  0  0  0  0  0  0  0  0
   34.5383   -6.5437  -26.7278 C   0  0  0  0  0  0  0  0  0  0  0  0
   35.9035   -6.4527  -26.5645 C   0  0  0  0  0  0  0  0  0  0  0  0
   36.7674   -7.3709  -27.0909 C   0  0  0  0  0  0  0  0  0  0  0  0
   38.1165   -7.5535  -27.0690 N   0  0  0  0  0  0  0  0  0  0  0  0
   34.8256   -8.5064  -28.1127 C   0  0  0  0  0  0  0  0  0  0  0  0
   36.2066   -8.4458  -27.9120 C   0  0  0  0  0  0  0  0  0  0  0  0
   37.2299   -9.1853  -28.3098 N   0  0  0  0  0  0  0  0  0  0  0  0
   37.0455  -10.3487  -29.1926 C   0  0  0  0  0  0  0  0  0  0  0  0
   38.3788   -8.6586  -27.8453 C   0  0  0  0  0  0  0  0  0  0  0  0
   39.7204   -9.2248  -28.1280 C   0  0  0  0  0  0  0  0  0  0  0  0
   40.7393   -8.2516  -28.0544 O   0  0  0  0  0  0  0  0  0  0  0  0
   41.9915   -8.9028  -27.7578 C   0  0  2  0  0  0  0  0  0  0  0  0
   42.4360   -8.4563  -26.3918 C   0  0  0  0  0  0  0  0  0  0  0  0
   43.6826   -8.2350  -26.0917 C   0  0  0  0  0  0  0  0  0  0  0  0
   44.7435   -8.3752  -27.0642 O   0  0  0  0  0  0  0  0  0  0  0  0
   44.3852   -8.9142  -28.3908 C   0  0  1  0  0  0  0  0  0  0  0  0
   42.9685   -8.4360  -28.7786 C   0  0  2  0  0  0  0  0  0  0  0  0
   42.7488   -6.9958  -28.8397 O   0  0  0  0  0  0  0  0  0  0  0  0
   45.4148   -8.5133  -29.4152 C   0  0  0  0  0  0  0  0  0  0  0  0
   45.2555   -9.4219  -30.5335 O   0  0  0  0  0  0  0  0  0  0  0  0
   33.8799   -5.8116  -26.2373 H   0  0  0  0  0  0  0  0  0  0  0  0
   36.3129   -5.6094  -25.9890 H   0  0  0  0  0  0  0  0  0  0  0  0
   34.3899   -9.2962  -28.7423 H   0  0  0  0  0  0  0  0  0  0  0  0
   36.9023  -11.2528  -28.5826 H   0  0  0  0  0  0  0  0  0  0  0  0
   36.1612  -10.1908  -29.8274 H   0  0  0  0  0  0  0  0  0  0  0  0
   37.9354  -10.4719  -29.8274 H   0  0  0  0  0  0  0  0  0  0  0  0
   39.9327  -10.0152  -27.3930 H   0  0  0  0  0  0  0  0  0  0  0  0
   39.7084   -9.6222  -29.1536 H   0  0  0  0  0  0  0  0  0  0  0  0
   41.9050   -9.9992  -27.7748 H   0  0  0  0  0  0  0  0  0  0  0  0
   41.6736   -8.3106  -25.6123 H   0  0  0  0  0  0  0  0  0  0  0  0
   43.9375   -7.9316  -25.0656 H   0  0  0  0  0  0  0  0  0  0  0  0
   44.3748  -10.0135  -28.3532 H   0  0  0  0  0  0  0  0  0  0  0  0
   42.8442   -8.8481  -29.7909 H   0  0  0  0  0  0  0  0  0  0  0  0
   42.6932   -6.6312  -27.9210 H   0  0  0  0  0  0  0  0  0  0  0  0
   45.2442   -7.4764  -29.7403 H   0  0  0  0  0  0  0  0  0  0  0  0
   46.4320   -8.5668  -29.0000 H   0  0  0  0  0  0  0  0  0  0  0  0
   45.0950  -10.3379  -30.1942 H   0  0  0  0  0  0  0  0  0  0  0  0
  1  2  1  0
  2  3  2  0
  2  4  1  0
  4  5  2  0
  4  9  1  0
  5  6  1  0
  6  7  2  0
  7  8  1  0
  7 10  1  0
  8 13  2  0
  9 10  2  0
 10 11  1  0
 11 12  1  0
 11 13  1  0
 13 14  1  0
 14 15  1  0
 16 15  1  0
 16 17  1  0
 16 21  1  0
 17 18  2  0
 18 19  1  0
 19 20  1  0
 20 21  1  0
 20 23  1  0
 21 22  1  0
 23 24  1  0
  5 25  1  0
  6 26  1  0
  9 27  1  0
 12 28  1  0
 12 29  1  0
 12 30  1  0
 14 31  1  0
 14 32  1  0
 16 33  1  1
 17 34  1  0
 18 35  1  0
 20 36  1  1
 21 37  1  6
 22 38  1  0
 23 39  1  0
 23 40  1  0
 24 41  1  0
M  CHG  1   1  -1
M  END
>  <filename_input>  (1) 
7P1M_4IU_docked.sdf

>  <pdb_id>  (1) 
7P1M_4IU

>  <pose_rank>  (1) 
0

>  <num_atoms_heavy>  (1) 
24

>  <num_torsions>  (1) 
5

>  <pose>  (1) 
[33.99321864701911, -7.542087129443186, -27.498514148755195, -0.4602768211797386, -1.3719872280881462, -3.1696132248000475, -0.6398219863817922, 3.920277639173816, 12.043922023383411, 5.98982691457397, 1.6075325910082605]

>  <energy>  (1) 
-535.1287725723682

>  <inter_energy>  (1) 
-531.1871997821869

>  <intra_energy>  (1) 
0.0

>  <rmsd>  (1) 
8.88681

>  <sdf_rank>  (1) 
0

$$$$

     RDKit          3D

 41 43  0  0  0  0  0  0  0  0999 V2000
   46.6653   -7.4663  -28.2650 O   0  0  0  0  0  0  0  0  0  0  0  0
   45.6123   -7.6007  -28.8790 C   0  0  0  0  0  0  0  0  0  0  0  0
   45.5415   -7.3729  -30.1911 O   0  0  0  0  0  0  0  0  0  0  0  0
   44.3143   -7.9153  -28.2198 C   0  0  0  0  0  0  0  0  0  0  0  0
   44.3320   -8.2764  -26.8941 C   0  0  0  0  0  0  0  0  0  0  0  0
   43.1584   -8.5651  -26.2323 C   0  0  0  0  0  0  0  0  0  0  0  0
   41.9336   -8.4431  -26.8251 C   0  0  0  0  0  0  0  0  0  0  0  0
   40.6438   -8.6200  -26.4261 N   0  0  0  0  0  0  0  0  0  0  0  0
   43.0876   -7.8088  -28.9155 C   0  0  0  0  0  0  0  0  0  0  0  0
   41.8921   -8.0550  -28.2363 C   0  0  0  0  0  0  0  0  0  0  0  0
   40.6135   -8.0186  -28.5769 N   0  0  0  0  0  0  0  0  0  0  0  0
   40.1879   -7.6961  -29.9486 C   0  0  0  0  0  0  0  0  0  0  0  0
   39.8529   -8.3785  -27.5256 C   0  0  0  0  0  0  0  0  0  0  0  0
   38.3730   -8.4704  -27.5699 C   0  0  0  0  0  0  0  0  0  0  0  0
   37.7492   -7.2676  -27.1765 O   0  0  0  0  0  0  0  0  0  0  0  0
   36.3786   -7.5425  -26.8218 C   0  0  2  0  0  0  0  0  0  0  0  0
   35.7572   -8.3307  -27.9423 C   0  0  0  0  0  0  0  0  0  0  0  0
   34.5255   -8.1623  -28.3262 C   0  0  0  0  0  0  0  0  0  0  0  0
   33.6594   -7.1764  -27.7190 O   0  0  0  0  0  0  0  0  0  0  0  0
   34.1755   -6.4471  -26.5440 C   0  0  1  0  0  0  0  0  0  0  0  0
   35.6964   -6.2257  -26.6989 C   0  0  2  0  0  0  0  0  0  0  0  0
   36.1423   -5.4899  -27.8761 O   0  0  0  0  0  0  0  0  0  0  0  0
   33.4328   -5.1485  -26.3650 C   0  0  0  0  0  0  0  0  0  0  0  0
   32.0237   -5.4854  -26.3174 O   0  0  0  0  0  0  0  0  0  0  0  0
   45.2902   -8.3354  -26.3572 H   0  0  0  0  0  0  0  0  0  0  0  0
   43.2096   -8.9064  -25.1879 H   0  0  0  0  0  0  0  0  0  0  0  0
   43.0752   -7.5348  -29.9807 H   0  0  0  0  0  0  0  0  0  0  0  0
   39.3117   -7.0320  -29.9142 H   0  0  0  0  0  0  0  0  0  0  0  0
   41.0096   -7.1919  -30.4784 H   0  0  0  0  0  0  0  0  0  0  0  0
   39.9246   -8.6235  -30.4784 H   0  0  0  0  0  0  0  0  0  0  0  0
   38.0642   -8.7090  -28.5984 H   0  0  0  0  0  0  0  0  0  0  0  0
   38.0637   -9.2559  -26.8648 H   0  0  0  0  0  0  0  0  0  0  0  0
   36.2971   -8.1119  -25.8842 H   0  0  0  0  0  0  0  0  0  0  0  0
   36.3712   -9.0826  -28.4598 H   0  0  0  0  0  0  0  0  0  0  0  0
   34.1304   -8.7900  -29.1386 H   0  0  0  0  0  0  0  0  0  0  0  0
   34.0095   -7.0445  -25.6354 H   0  0  0  0  0  0  0  0  0  0  0  0
   35.9455   -5.6337  -25.8060 H   0  0  0  0  0  0  0  0  0  0  0  0
   36.6338   -4.6789  -27.5917 H   0  0  0  0  0  0  0  0  0  0  0  0
   33.7393   -4.6611  -25.4277 H   0  0  0  0  0  0  0  0  0  0  0  0
   33.6480   -4.4497  -27.1869 H   0  0  0  0  0  0  0  0  0  0  0  0
   31.7327   -5.5550  -25.3737 H   0  0  0  0  0  0  0  0  0  0  0  0
  1  2  1  0
  2  3  2  0
  2  4  1  0
  4  5  2  0
  4  9  1  0
  5  6  1  0
  6  7  2  0
  7  8  1  0
  7 10  1  0
  8 13  2  0
  9 10  2  0
 10 11  1  0
 11 12  1  0
 11 13  1  0
 13 14  1  0
 14 15  1  0
 16 15  1  0
 16 17  1  0
 16 21  1  0
 17 18  2  0
 18 19  1  0
 19 20  1  0
 20 21  1  0
 20 23  1  0
 21 22  1  0
 23 24  1  0
  5 25  1  0
  6 26  1  0
  9 27  1  0
 12 28  1  0
 12 29  1  0
 12 30  1  0
 14 31  1  0
 14 32  1  0
 16 33  1  1
 17 34  1  0
 18 35  1  0
 20 36  1  1
 21 37  1  1
 22 38  1  0
 23 39  1  0
 23 40  1  0
 24 41  1  0
M  CHG  1   1  -1
M  END
>  <filename_input>  (2) 
7P1M_4IU_docked.sdf

>  <pdb_id>  (2) 
7P1M_4IU

>  <pose_rank>  (2) 
1

>  <num_atoms_heavy>  (2) 
24

>  <num_torsions>  (2) 
5

>  <pose>  (2) 
[44.314273166353246, -7.915291921955866, -28.21975366091913, -6.012857826905518, -1.091085080190593, 0.658748708514195, -0.3895995245504371, -6.663394322521066, 0.2334281324903656, 0.81490440575908, -0.25847634990546453]

>  <energy>  (2) 
-676.1929814349188

>  <inter_energy>  (2) 
-673.6065430936477

>  <intra_energy>  (2) 
0.0

>  <rmsd>  (2) 
0.677151

>  <sdf_rank>  (2) 
0

$$$$

     RDKit          3D

 41 43  0  0  0  0  0  0  0  0999 V2000
   31.6102   -8.1989  -28.2221 O   0  0  0  0  0  0  0  0  0  0  0  0
   32.2111   -7.4708  -27.4394 C   0  0  0  0  0  0  0  0  0  0  0  0
   31.5678   -6.5619  -26.7055 O   0  0  0  0  0  0  0  0  0  0  0  0
   33.6951   -7.4512  -27.3138 C   0  0  0  0  0  0  0  0  0  0  0  0
   34.2694   -6.4435  -26.5771 C   0  0  0  0  0  0  0  0  0  0  0  0
   35.6369   -6.3857  -26.4180 C   0  0  0  0  0  0  0  0  0  0  0  0
   36.4737   -7.3449  -26.9141 C   0  0  0  0  0  0  0  0  0  0  0  0
   37.8172   -7.5647  -26.8871 N   0  0  0  0  0  0  0  0  0  0  0  0
   34.4990   -8.4585  -27.8961 C   0  0  0  0  0  0  0  0  0  0  0  0
   35.8815   -8.4303  -27.6985 C   0  0  0  0  0  0  0  0  0  0  0  0
   36.8828   -9.2112  -28.0723 N   0  0  0  0  0  0  0  0  0  0  0  0
   36.6643  -10.3977  -28.9156 C   0  0  0  0  0  0  0  0  0  0  0  0
   38.0469   -8.7020  -27.6264 C   0  0  0  0  0  0  0  0  0  0  0  0
   39.3716   -9.3149  -27.8910 C   0  0  0  0  0  0  0  0  0  0  0  0
   40.4369   -8.4407  -27.5880 O   0  0  0  0  0  0  0  0  0  0  0  0
   41.4513   -8.5646  -28.6056 C   0  0  2  0  0  0  0  0  0  0  0  0
   41.9067   -9.9980  -28.6364 C   0  0  0  0  0  0  0  0  0  0  0  0
   43.1450  -10.3417  -28.8399 C   0  0  0  0  0  0  0  0  0  0  0  0
   44.1932   -9.3632  -29.0258 O   0  0  0  0  0  0  0  0  0  0  0  0
   43.7940   -7.9450  -29.1140 C   0  0  1  0  0  0  0  0  0  0  0  0
   42.5817   -7.6900  -28.1913 C   0  0  2  0  0  0  0  0  0  0  0  0
   42.7531   -7.9882  -26.7743 O   0  0  0  0  0  0  0  0  0  0  0  0
   44.9579   -7.0504  -28.7746 C   0  0  0  0  0  0  0  0  0  0  0  0
   45.8324   -7.8240  -27.9154 O   0  0  0  0  0  0  0  0  0  0  0  0
   33.6327   -5.6772  -26.1109 H   0  0  0  0  0  0  0  0  0  0  0  0
   36.0709   -5.5356  -25.8712 H   0  0  0  0  0  0  0  0  0  0  0  0
   34.0401   -9.2563  -28.4987 H   0  0  0  0  0  0  0  0  0  0  0  0
   36.5023  -11.2776  -28.2757 H   0  0  0  0  0  0  0  0  0  0  0  0
   35.7804  -10.2384  -29.5507 H   0  0  0  0  0  0  0  0  0  0  0  0
   37.5470  -10.5637  -29.5507 H   0  0  0  0  0  0  0  0  0  0  0  0
   39.4715  -10.2208  -27.2751 H   0  0  0  0  0  0  0  0  0  0  0  0
   39.4248   -9.5504  -28.9642 H   0  0  0  0  0  0  0  0  0  0  0  0
   41.0807   -8.2764  -29.6004 H   0  0  0  0  0  0  0  0  0  0  0  0
   41.1599  -10.7904  -28.4801 H   0  0  0  0  0  0  0  0  0  0  0  0
   43.4026  -11.4106  -28.8714 H   0  0  0  0  0  0  0  0  0  0  0  0
   43.4923   -7.7088  -30.1451 H   0  0  0  0  0  0  0  0  0  0  0  0
   42.4202   -6.6073  -28.2998 H   0  0  0  0  0  0  0  0  0  0  0  0
   42.3398   -7.2694  -26.2335 H   0  0  0  0  0  0  0  0  0  0  0  0
   45.4897   -6.7540  -29.6907 H   0  0  0  0  0  0  0  0  0  0  0  0
   44.6208   -6.1300  -28.2752 H   0  0  0  0  0  0  0  0  0  0  0  0
   45.6171   -7.6335  -26.9680 H   0  0  0  0  0  0  0  0  0  0  0  0
  1  2  1  0
  2  3  2  0
  2  4  1  0
  4  5  2  0
  4  9  1  0
  5  6  1  0
  6  7  2  0
  7  8  1  0
  7 10  1  0
  8 13  2  0
  9 10  2  0
 10 11  1  0
 11 12  1  0
 11 13  1  0
 13 14  1  0
 14 15  1  0
 16 15  1  0
 16 17  1  0
 16 21  1  0
 17 18  2  0
 18 19  1  0
 19 20  1  0
 20 21  1  0
 20 23  1  0
 21 22  1  0
 23 24  1  0
  5 25  1  0
  6 26  1  0
  9 27  1  0
 12 28  1  0
 12 29  1  0
 12 30  1  0
 14 31  1  0
 14 32  1  0
 16 33  1  6
 17 34  1  0
 18 35  1  0
 20 36  1  6
 21 37  1  1
 22 38  1  0
 23 39  1  0
 23 40  1  0
 24 41  1  0
M  CHG  1   1  -1
M  END
>  <filename_input>  (3) 
7P1M_4IU_docked.sdf

>  <pdb_id>  (3) 
7P1M_4IU

>  <pose_rank>  (3) 
2

>  <num_atoms_heavy>  (3) 
24

>  <num_torsions>  (3) 
5

>  <pose>  (3) 
[33.69512712743525, -7.451236416072509, -27.31376507024368, 0.37563956938932086, 1.130261816601951, 2.500096137722396, 2.743583008296519, -2.1533873710685225, 6.897342972697957, 0.670632443715612, -1.6530188038992286]

>  <energy>  (3) 
-561.3104092743362

>  <inter_energy>  (3) 
-548.8542886304903

>  <intra_energy>  (3) 
0.37629702555923583

>  <rmsd>  (3) 
8.82623

>  <sdf_rank>  (3) 
0

$$$$

     RDKit          3D

 41 43  0  0  0  0  0  0  0  0999 V2000
   31.7209   -6.5922  -26.5743 O   0  0  0  0  0  0  0  0  0  0  0  0
   32.8465   -6.1473  -26.7713 C   0  0  0  0  0  0  0  0  0  0  0  0
   33.1052   -4.8437  -26.6612 O   0  0  0  0  0  0  0  0  0  0  0  0
   33.9843   -6.9806  -27.2504 C   0  0  0  0  0  0  0  0  0  0  0  0
   33.8080   -7.7213  -28.3941 C   0  0  0  0  0  0  0  0  0  0  0  0
   34.8323   -8.4993  -28.8882 C   0  0  0  0  0  0  0  0  0  0  0  0
   36.0746   -8.5223  -28.3204 C   0  0  0  0  0  0  0  0  0  0  0  0
   37.2531   -9.1461  -28.5964 N   0  0  0  0  0  0  0  0  0  0  0  0
   35.2295   -6.9859  -26.5800 C   0  0  0  0  0  0  0  0  0  0  0  0
   36.2852   -7.7363  -27.1031 C   0  0  0  0  0  0  0  0  0  0  0  0
   37.5448   -7.9306  -26.7455 N   0  0  0  0  0  0  0  0  0  0  0  0
   38.1068   -7.3172  -25.5311 C   0  0  0  0  0  0  0  0  0  0  0  0
   38.1329   -8.7877  -27.6014 C   0  0  0  0  0  0  0  0  0  0  0  0
   39.5387   -9.2446  -27.4769 C   0  0  0  0  0  0  0  0  0  0  0  0
   40.2597   -9.0946  -28.6804 O   0  0  0  0  0  0  0  0  0  0  0  0
   41.4979   -9.8275  -28.5817 C   0  0  2  0  0  0  0  0  0  0  0  0
   42.1501   -9.4653  -27.2754 C   0  0  0  0  0  0  0  0  0  0  0  0
   43.4371   -9.3277  -27.1425 C   0  0  0  0  0  0  0  0  0  0  0  0
   44.3457   -9.4862  -28.2561 O   0  0  0  0  0  0  0  0  0  0  0  0
   43.7785   -9.9472  -29.5384 C   0  0  1  0  0  0  0  0  0  0  0  0
   42.3545   -9.3737  -29.7107 C   0  0  2  0  0  0  0  0  0  0  0  0
   42.2180   -7.9221  -29.6915 O   0  0  0  0  0  0  0  0  0  0  0  0
   44.6826   -9.5620  -30.6805 C   0  0  0  0  0  0  0  0  0  0  0  0
   46.0384   -9.8107  -30.2318 O   0  0  0  0  0  0  0  0  0  0  0  0
   32.8418   -7.6931  -28.9192 H   0  0  0  0  0  0  0  0  0  0  0  0
   34.6427   -9.1250  -29.7728 H   0  0  0  0  0  0  0  0  0  0  0  0
   35.3654   -6.4049  -25.6558 H   0  0  0  0  0  0  0  0  0  0  0  0
   37.6687   -7.7953  -24.6425 H   0  0  0  0  0  0  0  0  0  0  0  0
   39.1979   -7.4558  -25.5216 H   0  0  0  0  0  0  0  0  0  0  0  0
   37.8735   -6.2423  -25.5216 H   0  0  0  0  0  0  0  0  0  0  0  0
   40.0342   -8.6545  -26.6919 H   0  0  0  0  0  0  0  0  0  0  0  0
   39.5232  -10.3154  -27.2256 H   0  0  0  0  0  0  0  0  0  0  0  0
   41.3423  -10.9156  -28.6243 H   0  0  0  0  0  0  0  0  0  0  0  0
   41.5108   -9.3099  -26.3938 H   0  0  0  0  0  0  0  0  0  0  0  0
   43.8469   -9.0830  -26.1515 H   0  0  0  0  0  0  0  0  0  0  0  0
   43.7054  -11.0448  -29.5375 H   0  0  0  0  0  0  0  0  0  0  0  0
   42.0690   -9.7348  -30.7097 H   0  0  0  0  0  0  0  0  0  0  0  0
   42.1883   -7.6059  -28.7538 H   0  0  0  0  0  0  0  0  0  0  0  0
   44.4571  -10.1733  -31.5669 H   0  0  0  0  0  0  0  0  0  0  0  0
   44.5428   -8.5077  -30.9614 H   0  0  0  0  0  0  0  0  0  0  0  0
   46.0628   -9.8152  -29.2421 H   0  0  0  0  0  0  0  0  0  0  0  0
  1  2  1  0
  2  3  2  0
  2  4  1  0
  4  5  2  0
  4  9  1  0
  5  6  1  0
  6  7  2  0
  7  8  1  0
  7 10  1  0
  8 13  2  0
  9 10  2  0
 10 11  1  0
 11 12  1  0
 11 13  1  0
 13 14  1  0
 14 15  1  0
 16 15  1  0
 16 17  1  0
 16 21  1  0
 17 18  2  0
 18 19  1  0
 19 20  1  0
 20 21  1  0
 20 23  1  0
 21 22  1  0
 23 24  1  0
  5 25  1  0
  6 26  1  0
  9 27  1  0
 12 28  1  0
 12 29  1  0
 12 30  1  0
 14 31  1  0
 14 32  1  0
 16 33  1  1
 17 34  1  0
 18 35  1  0
 20 36  1  1
 21 37  1  6
 22 38  1  0
 23 39  1  0
 23 40  1  0
 24 41  1  0
M  CHG  1   1  -1
M  END
>  <filename_input>  (4) 
7P1M_4IU_docked.sdf

>  <pdb_id>  (4) 
7P1M_4IU

>  <pose_rank>  (4) 
3

>  <num_atoms_heavy>  (4) 
24

>  <num_torsions>  (4) 
5

>  <pose>  (4) 
[33.98430698825908, -6.980594010103768, -27.250357685974677, -0.393811521502814, -2.9863173100823723, 0.6930552056295791, 0.7256896216052208, 5.254498039297281, 0.13564882676614873, 0.846710379217998, -0.47841808164669913]

>  <energy>  (4) 
-493.12005274906124

>  <inter_energy>  (4) 
-488.142979928683

>  <intra_energy>  (4) 
0.0

>  <rmsd>  (4) 
8.99969

>  <sdf_rank>  (4) 
0

$$$$

     RDKit          3D

 41 43  0  0  0  0  0  0  0  0999 V2000
   31.4507   -6.7248  -26.5221 O   0  0  0  0  0  0  0  0  0  0  0  0
   32.6200   -6.3590  -26.4687 C   0  0  0  0  0  0  0  0  0  0  0  0
   32.9496   -5.1615  -25.9830 O   0  0  0  0  0  0  0  0  0  0  0  0
   33.7517   -7.1487  -27.0291 C   0  0  0  0  0  0  0  0  0  0  0  0
   33.4558   -8.2496  -27.7961 C   0  0  0  0  0  0  0  0  0  0  0  0
   34.4646   -9.0077  -28.3496 C   0  0  0  0  0  0  0  0  0  0  0  0
   35.7837   -8.6739  -28.2274 C   0  0  0  0  0  0  0  0  0  0  0  0
   36.9589   -9.1943  -28.6769 N   0  0  0  0  0  0  0  0  0  0  0  0
   35.0962   -6.7632  -26.8201 C   0  0  0  0  0  0  0  0  0  0  0  0
   36.1205   -7.5014  -27.4177 C   0  0  0  0  0  0  0  0  0  0  0  0
   37.4398   -7.3961  -27.4424 N   0  0  0  0  0  0  0  0  0  0  0  0
   38.1448   -6.3393  -26.6988 C   0  0  0  0  0  0  0  0  0  0  0  0
   37.9628   -8.4077  -28.1609 C   0  0  0  0  0  0  0  0  0  0  0  0
   39.4180   -8.6071  -28.3685 C   0  0  0  0  0  0  0  0  0  0  0  0
   40.0891   -8.9422  -27.1735 O   0  0  0  0  0  0  0  0  0  0  0  0
   41.3133   -8.1841  -27.0926 C   0  0  2  0  0  0  0  0  0  0  0  0
   41.5080   -7.4736  -28.4042 C   0  0  0  0  0  0  0  0  0  0  0  0
   42.6760   -7.3147  -28.9550 C   0  0  0  0  0  0  0  0  0  0  0  0
   43.8846   -7.8376  -28.3578 O   0  0  0  0  0  0  0  0  0  0  0  0
   43.7739   -8.4493  -27.0190 C   0  0  1  0  0  0  0  0  0  0  0  0
   42.4120   -9.1666  -26.8885 C   0  0  2  0  0  0  0  0  0  0  0  0
   42.1227  -10.2200  -27.8542 O   0  0  0  0  0  0  0  0  0  0  0  0
   44.9289   -9.3850  -26.7728 C   0  0  0  0  0  0  0  0  0  0  0  0
   46.0123   -8.5717  -26.2568 O   0  0  0  0  0  0  0  0  0  0  0  0
   32.4059   -8.5279  -27.9696 H   0  0  0  0  0  0  0  0  0  0  0  0
   34.1978   -9.9154  -28.9108 H   0  0  0  0  0  0  0  0  0  0  0  0
   35.3330   -5.8908  -26.1933 H   0  0  0  0  0  0  0  0  0  0  0  0
   38.0296   -6.5120  -25.6185 H   0  0  0  0  0  0  0  0  0  0  0  0
   39.2129   -6.3566  -26.9611 H   0  0  0  0  0  0  0  0  0  0  0  0
   37.7187   -5.3597  -26.9611 H   0  0  0  0  0  0  0  0  0  0  0  0
   39.5635   -9.4196  -29.0956 H   0  0  0  0  0  0  0  0  0  0  0  0
   39.8383   -7.6591  -28.7355 H   0  0  0  0  0  0  0  0  0  0  0  0
   41.2936   -7.4472  -26.2762 H   0  0  0  0  0  0  0  0  0  0  0  0
   40.6241   -7.0708  -28.9203 H   0  0  0  0  0  0  0  0  0  0  0  0
   42.7463   -6.7651  -29.9052 H   0  0  0  0  0  0  0  0  0  0  0  0
   43.8207   -7.6653  -26.2489 H   0  0  0  0  0  0  0  0  0  0  0  0
   42.4745   -9.6213  -25.8888 H   0  0  0  0  0  0  0  0  0  0  0  0
   41.8935  -11.0546  -27.3734 H   0  0  0  0  0  0  0  0  0  0  0  0
   44.6463  -10.1529  -26.0376 H   0  0  0  0  0  0  0  0  0  0  0  0
   45.2251   -9.9042  -27.6962 H   0  0  0  0  0  0  0  0  0  0  0  0
   45.9933   -8.5860  -25.2671 H   0  0  0  0  0  0  0  0  0  0  0  0
  1  2  1  0
  2  3  2  0
  2  4  1  0
  4  5  2  0
  4  9  1  0
  5  6  1  0
  6  7  2  0
  7  8  1  0
  7 10  1  0
  8 13  2  0
  9 10  2  0
 10 11  1  0
 11 12  1  0
 11 13  1  0
 13 14  1  0
 14 15  1  0
 16 15  1  0
 16 17  1  0
 16 21  1  0
 17 18  2  0
 18 19  1  0
 19 20  1  0
 20 21  1  0
 20 23  1  0
 21 22  1  0
 23 24  1  0
  5 25  1  0
  6 26  1  0
  9 27  1  0
 12 28  1  0
 12 29  1  0
 12 30  1  0
 14 31  1  0
 14 32  1  0
 16 33  1  1
 17 34  1  0
 18 35  1  0
 20 36  1  1
 21 37  1  1
 22 38  1  0
 23 39  1  0
 23 40  1  0
 24 41  1  0
M  CHG  1   1  -1
M  END
>  <filename_input>  (5) 
7P1M_4IU_docked.sdf

>  <pdb_id>  (5) 
7P1M_4IU

>  <pose_rank>  (5) 
4

>  <num_atoms_heavy>  (5) 
24

>  <num_torsions>  (5) 
5

>  <pose>  (5) 
[33.75166008797667, -7.14865964439529, -27.02911537148531, 0.018136423570192312, 3.118556754688372, -1.349948049365411, -0.05179970287914449, -3.8866385946117408, 0.6743472100184725, 1.5540631273033858, 0.29622740770370315]

>  <energy>  (5) 
-523.9898949788741

>  <inter_energy>  (5) 
-534.6539324103395

>  <intra_energy>  (5) 
10.70418148880791

>  <rmsd>  (5) 
8.83665

>  <sdf_rank>  (5) 
0

$$$$

     RDKit          3D

 41 43  0  0  0  0  0  0  0  0999 V2000
   44.9111   -7.6536  -32.3133 O   0  0  0  0  0  0  0  0  0  0  0  0
   43.7402   -8.0013  -32.2042 C   0  0  0  0  0  0  0  0  0  0  0  0
   43.0098   -8.3200  -33.2734 O   0  0  0  0  0  0  0  0  0  0  0  0
   43.0012   -7.9956  -30.9110 C   0  0  0  0  0  0  0  0  0  0  0  0
   43.6918   -7.6581  -29.7721 C   0  0  0  0  0  0  0  0  0  0  0  0
   43.0534   -7.6243  -28.5515 C   0  0  0  0  0  0  0  0  0  0  0  0
   41.7127   -7.8513  -28.4190 C   0  0  0  0  0  0  0  0  0  0  0  0
   40.8296   -7.8533  -27.3826 N   0  0  0  0  0  0  0  0  0  0  0  0
   41.6187   -8.2866  -30.8491 C   0  0  0  0  0  0  0  0  0  0  0  0
   40.9571   -8.2082  -29.6213 C   0  0  0  0  0  0  0  0  0  0  0  0
   39.7035   -8.3875  -29.2360 N   0  0  0  0  0  0  0  0  0  0  0  0
   38.6543   -8.7953  -30.1844 C   0  0  0  0  0  0  0  0  0  0  0  0
   39.6079   -8.2103  -27.9046 C   0  0  0  0  0  0  0  0  0  0  0  0
   38.3459   -8.3627  -27.1398 C   0  0  0  0  0  0  0  0  0  0  0  0
   37.5727   -7.1825  -27.1407 O   0  0  0  0  0  0  0  0  0  0  0  0
   36.2785   -7.4674  -26.5716 C   0  0  2  0  0  0  0  0  0  0  0  0
   35.6690   -8.6029  -27.3474 C   0  0  0  0  0  0  0  0  0  0  0  0
   34.3990   -8.6691  -27.6227 C   0  0  0  0  0  0  0  0  0  0  0  0
   33.4717   -7.6334  -27.2250 O   0  0  0  0  0  0  0  0  0  0  0  0
   33.9886   -6.5478  -26.3688 C   0  0  1  0  0  0  0  0  0  0  0  0
   35.4540   -6.2414  -26.7493 C   0  0  2  0  0  0  0  0  0  0  0  0
   35.7113   -5.8441  -28.1284 O   0  0  0  0  0  0  0  0  0  0  0  0
   33.1110   -5.3282  -26.4811 C   0  0  0  0  0  0  0  0  0  0  0  0
   31.7429   -5.8075  -26.4938 O   0  0  0  0  0  0  0  0  0  0  0  0
   44.7622   -7.4129  -29.8352 H   0  0  0  0  0  0  0  0  0  0  0  0
   43.6452   -7.4065  -27.6502 H   0  0  0  0  0  0  0  0  0  0  0  0
   41.0698   -8.5719  -31.7587 H   0  0  0  0  0  0  0  0  0  0  0  0
   37.7701   -9.1389  -29.6275 H   0  0  0  0  0  0  0  0  0  0  0  0
   38.3790   -7.9387  -30.8172 H   0  0  0  0  0  0  0  0  0  0  0  0
   39.0296   -9.6130  -30.8172 H   0  0  0  0  0  0  0  0  0  0  0  0
   37.7547   -9.1732  -27.5910 H   0  0  0  0  0  0  0  0  0  0  0  0
   38.6104   -8.5906  -26.0967 H   0  0  0  0  0  0  0  0  0  0  0  0
   36.3424   -7.7426  -25.5085 H   0  0  0  0  0  0  0  0  0  0  0  0
   36.3257   -9.4130  -27.6974 H   0  0  0  0  0  0  0  0  0  0  0  0
   34.0187   -9.5407  -28.1756 H   0  0  0  0  0  0  0  0  0  0  0  0
   33.9699   -6.8660  -25.3160 H   0  0  0  0  0  0  0  0  0  0  0  0
   35.7007   -5.3936  -26.0932 H   0  0  0  0  0  0  0  0  0  0  0  0
   36.2494   -5.0131  -28.1375 H   0  0  0  0  0  0  0  0  0  0  0  0
   33.2728   -4.6626  -25.6204 H   0  0  0  0  0  0  0  0  0  0  0  0
   33.3407   -4.7543  -27.3910 H   0  0  0  0  0  0  0  0  0  0  0  0
   31.4238   -5.9194  -25.5634 H   0  0  0  0  0  0  0  0  0  0  0  0
  1  2  1  0
  2  3  2  0
  2  4  1  0
  4  5  2  0
  4  9  1  0
  5  6  1  0
  6  7  2  0
  7  8  1  0
  7 10  1  0
  8 13  2  0
  9 10  2  0
 10 11  1  0
 11 12  1  0
 11 13  1  0
 13 14  1  0
 14 15  1  0
 16 15  1  0
 16 17  1  0
 16 21  1  0
 17 18  2  0
 18 19  1  0
 19 20  1  0
 20 21  1  0
 20 23  1  0
 21 22  1  0
 23 24  1  0
  5 25  1  0
  6 26  1  0
  9 27  1  0
 12 28  1  0
 12 29  1  0
 12 30  1  0
 14 31  1  0
 14 32  1  0
 16 33  1  1
 17 34  1  0
 18 35  1  0
 20 36  1  1
 21 37  1  1
 22 38  1  0
 23 39  1  0
 23 40  1  0
 24 41  1  0
M  CHG  1   1  -1
M  END
>  <filename_input>  (6) 
7P1M_4IU_docked.sdf

>  <pdb_id>  (6) 
7P1M_4IU

>  <pose_rank>  (6) 
5

>  <num_atoms_heavy>  (6) 
24

>  <num_torsions>  (6) 
5

>  <pose>  (6) 
[43.00124999016483, -7.9956234659168475, -30.911024819691754, -0.36762772495993784, 0.5471486249460712, 0.115840154685589, -0.2759700478301546, -25.394212724545433, -50.517739609118784, -5.555783924053065, -6.7682497932689705]

>  <energy>  (6) 
-565.313971103798

>  <inter_energy>  (6) 
-563.5487767564571

>  <intra_energy>  (6) 
0.0

>  <rmsd>  (6) 
2.2516

>  <sdf_rank>  (6) 
0

$$$$

     RDKit          3D

 41 43  0  0  0  0  0  0  0  0999 V2000
   46.5287   -8.4165  -28.2085 O   0  0  0  0  0  0  0  0  0  0  0  0
   45.5474   -8.9853  -27.7423 C   0  0  0  0  0  0  0  0  0  0  0  0
   45.6111   -9.6362  -26.5800 O   0  0  0  0  0  0  0  0  0  0  0  0
   44.2482   -9.0991  -28.4616 C   0  0  0  0  0  0  0  0  0  0  0  0
   44.0029   -8.2299  -29.4971 C   0  0  0  0  0  0  0  0  0  0  0  0
   42.8226   -8.3002  -30.2044 C   0  0  0  0  0  0  0  0  0  0  0  0
   41.8816   -9.2617  -29.9664 C   0  0  0  0  0  0  0  0  0  0  0  0
   40.6759   -9.5902  -30.5071 N   0  0  0  0  0  0  0  0  0  0  0  0
   43.3028  -10.0959  -28.1257 C   0  0  0  0  0  0  0  0  0  0  0  0
   42.1255  -10.2011  -28.8700 C   0  0  0  0  0  0  0  0  0  0  0  0
   41.0806  -11.0129  -28.8336 N   0  0  0  0  0  0  0  0  0  0  0  0
   40.9627  -12.0758  -27.8221 C   0  0  0  0  0  0  0  0  0  0  0  0
   40.1918  -10.6520  -29.7785 C   0  0  0  0  0  0  0  0  0  0  0  0
   38.8932  -11.3357  -29.9949 C   0  0  0  0  0  0  0  0  0  0  0  0
   38.7908  -11.8958  -31.2858 O   0  0  0  0  0  0  0  0  0  0  0  0
   38.1270  -13.1729  -31.1933 C   0  0  2  0  0  0  0  0  0  0  0  0
   38.6874  -14.0672  -32.2653 C   0  0  0  0  0  0  0  0  0  0  0  0
   37.9584  -14.9155  -32.9300 C   0  0  0  0  0  0  0  0  0  0  0  0
   36.5356  -15.0458  -32.7074 O   0  0  0  0  0  0  0  0  0  0  0  0
   35.9463  -14.2744  -31.5955 C   0  0  1  0  0  0  0  0  0  0  0  0
   36.6832  -12.9242  -31.4542 C   0  0  2  0  0  0  0  0  0  0  0  0
   36.6847  -12.0452  -32.6176 O   0  0  0  0  0  0  0  0  0  0  0  0
   34.4669  -14.0884  -31.8124 C   0  0  0  0  0  0  0  0  0  0  0  0
   33.8858  -13.8642  -30.5034 O   0  0  0  0  0  0  0  0  0  0  0  0
   44.7546   -7.4722  -29.7633 H   0  0  0  0  0  0  0  0  0  0  0  0
   42.6308   -7.5545  -30.9900 H   0  0  0  0  0  0  0  0  0  0  0  0
   43.4928  -10.7815  -27.2868 H   0  0  0  0  0  0  0  0  0  0  0  0
   41.0119  -11.6322  -26.8167 H   0  0  0  0  0  0  0  0  0  0  0  0
   40.0014  -12.5957  -27.9468 H   0  0  0  0  0  0  0  0  0  0  0  0
   41.7867  -12.7937  -27.9468 H   0  0  0  0  0  0  0  0  0  0  0  0
   38.7885  -12.1395  -29.2513 H   0  0  0  0  0  0  0  0  0  0  0  0
   38.0963  -10.5847  -29.8901 H   0  0  0  0  0  0  0  0  0  0  0  0
   38.2689  -13.6458  -30.2104 H   0  0  0  0  0  0  0  0  0  0  0  0
   39.7606  -14.0010  -32.4974 H   0  0  0  0  0  0  0  0  0  0  0  0
   38.4398  -15.5540  -33.6854 H   0  0  0  0  0  0  0  0  0  0  0  0
   36.0696  -14.8294  -30.6538 H   0  0  0  0  0  0  0  0  0  0  0  0
   36.1244  -12.4284  -30.6468 H   0  0  0  0  0  0  0  0  0  0  0  0
   36.6862  -11.1015  -32.3182 H   0  0  0  0  0  0  0  0  0  0  0  0
   34.2841  -13.2207  -32.4633 H   0  0  0  0  0  0  0  0  0  0  0  0
   34.0220  -14.9679  -32.3007 H   0  0  0  0  0  0  0  0  0  0  0  0
   34.5399  -14.1165  -29.8043 H   0  0  0  0  0  0  0  0  0  0  0  0
  1  2  1  0
  2  3  2  0
  2  4  1  0
  4  5  2  0
  4  9  1  0
  5  6  1  0
  6  7  2  0
  7  8  1  0
  7 10  1  0
  8 13  2  0
  9 10  2  0
 10 11  1  0
 11 12  1  0
 11 13  1  0
 13 14  1  0
 14 15  1  0
 16 15  1  0
 16 17  1  0
 16 21  1  0
 17 18  2  0
 18 19  1  0
 19 20  1  0
 20 21  1  0
 20 23  1  0
 21 22  1  0
 23 24  1  0
  5 25  1  0
  6 26  1  0
  9 27  1  0
 12 28  1  0
 12 29  1  0
 12 30  1  0
 14 31  1  0
 14 32  1  0
 16 33  1  1
 17 34  1  0
 18 35  1  0
 20 36  1  1
 21 37  1  1
 22 38  1  0
 23 39  1  0
 23 40  1  0
 24 41  1  0
M  CHG  1   1  -1
M  END
>  <filename_input>  (7) 
7P1M_4IU_docked.sdf

>  <pdb_id>  (7) 
7P1M_4IU

>  <pose_rank>  (7) 
6

>  <num_atoms_heavy>  (7) 
24

>  <num_torsions>  (7) 
5

>  <pose>  (7) 
[44.248150141753484, -9.09912284545847, -28.46157412553891, 3.567861096224018, 1.0961509431155416, 0.1316226173477257, -0.5397270641549549, -7.132257374747924, 11.79075850690545, -0.8833809208004265, 1.5228242698980434]

>  <energy>  (7) 
-167.53093470470856

>  <inter_energy>  (7) 
-169.8509931045234

>  <intra_energy>  (7) 
0.29183840611919143

>  <rmsd>  (7) 
5.90659

>  <sdf_rank>  (7) 
0

$$$$

     RDKit          3D

 41 43  0  0  0  0  0  0  0  0999 V2000
   34.3643   -9.3117  -28.0922 O   0  0  0  0  0  0  0  0  0  0  0  0
   34.5226   -9.1945  -29.3026 C   0  0  0  0  0  0  0  0  0  0  0  0
   33.5535   -8.7180  -30.0850 O   0  0  0  0  0  0  0  0  0  0  0  0
   35.7411   -9.6647  -30.0186 C   0  0  0  0  0  0  0  0  0  0  0  0
   36.1313   -8.9856  -31.1476 C   0  0  0  0  0  0  0  0  0  0  0  0
   37.2583   -9.3705  -31.8405 C   0  0  0  0  0  0  0  0  0  0  0  0
   38.0714  -10.3821  -31.4138 C   0  0  0  0  0  0  0  0  0  0  0  0
   39.2296  -10.9445  -31.8566 N   0  0  0  0  0  0  0  0  0  0  0  0
   36.5072  -10.7516  -29.5374 C   0  0  0  0  0  0  0  0  0  0  0  0
   37.6761  -11.1159  -30.2100 C   0  0  0  0  0  0  0  0  0  0  0  0
   38.6039  -12.0392  -30.0131 N   0  0  0  0  0  0  0  0  0  0  0  0
   38.5158  -12.9983  -28.9000 C   0  0  0  0  0  0  0  0  0  0  0  0
   39.5231  -11.9762  -30.9951 C   0  0  0  0  0  0  0  0  0  0  0  0
   40.6887  -12.8882  -31.0950 C   0  0  0  0  0  0  0  0  0  0  0  0
   40.3704  -14.0948  -31.7535 O   0  0  0  0  0  0  0  0  0  0  0  0
   40.8677  -14.0381  -33.1060 C   0  0  2  0  0  0  0  0  0  0  0  0
   39.8504  -14.6882  -34.0034 C   0  0  0  0  0  0  0  0  0  0  0  0
   40.1774  -15.4216  -35.0272 C   0  0  0  0  0  0  0  0  0  0  0  0
   41.5559  -15.6938  -35.3682 O   0  0  0  0  0  0  0  0  0  0  0  0
   42.6005  -14.9973  -34.5920 C   0  0  1  0  0  0  0  0  0  0  0  0
   42.1308  -14.8244  -33.1306 C   0  0  2  0  0  0  0  0  0  0  0  0
   41.8013  -16.0380  -32.3925 O   0  0  0  0  0  0  0  0  0  0  0  0
   43.9054  -15.7455  -34.6792 C   0  0  0  0  0  0  0  0  0  0  0  0
   44.8046  -15.1126  -33.7346 O   0  0  0  0  0  0  0  0  0  0  0  0
   35.5395   -8.1283  -31.5008 H   0  0  0  0  0  0  0  0  0  0  0  0
   37.5129   -8.8436  -32.7720 H   0  0  0  0  0  0  0  0  0  0  0  0
   36.1860  -11.3046  -28.6424 H   0  0  0  0  0  0  0  0  0  0  0  0
   38.5656  -12.4563  -27.9441 H   0  0  0  0  0  0  0  0  0  0  0  0
   37.5636  -13.5456  -28.9620 H   0  0  0  0  0  0  0  0  0  0  0  0
   39.3524  -13.7099  -28.9620 H   0  0  0  0  0  0  0  0  0  0  0  0
   41.4882  -12.3804  -31.6543 H   0  0  0  0  0  0  0  0  0  0  0  0
   41.0091  -13.1375  -30.0726 H   0  0  0  0  0  0  0  0  0  0  0  0
   41.0455  -13.0057  -33.4415 H   0  0  0  0  0  0  0  0  0  0  0  0
   38.7830  -14.5370  -33.7844 H   0  0  0  0  0  0  0  0  0  0  0  0
   39.3798  -15.8481  -35.6532 H   0  0  0  0  0  0  0  0  0  0  0  0
   42.7707  -13.9964  -35.0153 H   0  0  0  0  0  0  0  0  0  0  0  0
   43.0024  -14.3542  -32.6518 H   0  0  0  0  0  0  0  0  0  0  0  0
   41.8506  -15.8566  -31.4205 H   0  0  0  0  0  0  0  0  0  0  0  0
   43.7563  -16.8024  -34.4128 H   0  0  0  0  0  0  0  0  0  0  0  0
   44.3143  -15.7160  -35.6999 H   0  0  0  0  0  0  0  0  0  0  0  0
   44.5120  -15.3185  -32.8115 H   0  0  0  0  0  0  0  0  0  0  0  0
  1  2  1  0
  2  3  2  0
  2  4  1  0
  4  5  2  0
  4  9  1  0
  5  6  1  0
  6  7  2  0
  7  8  1  0
  7 10  1  0
  8 13  2  0
  9 10  2  0
 10 11  1  0
 11 12  1  0
 11 13  1  0
 13 14  1  0
 14 15  1  0
 16 15  1  0
 16 17  1  0
 16 21  1  0
 17 18  2  0
 18 19  1  0
 19 20  1  0
 20 21  1  0
 20 23  1  0
 21 22  1  0
 23 24  1  0
  5 25  1  0
  6 26  1  0
  9 27  1  0
 12 28  1  0
 12 29  1  0
 12 30  1  0
 14 31  1  0
 14 32  1  0
 16 33  1  6
 17 34  1  0
 18 35  1  0
 20 36  1  6
 21 37  1  1
 22 38  1  0
 23 39  1  0
 23 40  1  0
 24 41  1  0
M  CHG  1   1  -1
M  END
>  <filename_input>  (8) 
7P1M_4IU_docked.sdf

>  <pdb_id>  (8) 
7P1M_4IU

>  <pose_rank>  (8) 
7

>  <num_atoms_heavy>  (8) 
24

>  <num_torsions>  (8) 
5

>  <pose>  (8) 
[35.74107350863064, -9.664685164161353, -30.018599930674046, -0.9004585265207261, -2.9580990883793197, -1.166396069963365, -2.8189449032021248, 8.9961594244701, 11.118290193114534, -0.7677962759020281, -4.195856842221239]

>  <energy>  (8) 
-45.804560796749755

>  <inter_energy>  (8) 
-45.40453948536843

>  <intra_energy>  (8) 
0.026057788852191868

>  <rmsd>  (8) 
10.3263

>  <sdf_rank>  (8) 
0

$$$$

     RDKit          3D

 41 43  0  0  0  0  0  0  0  0999 V2000
   32.5876   -9.5474  -28.9059 O   0  0  0  0  0  0  0  0  0  0  0  0
   33.4424   -8.9337  -28.2762 C   0  0  0  0  0  0  0  0  0  0  0  0
   33.2097   -7.7076  -27.8061 O   0  0  0  0  0  0  0  0  0  0  0  0
   34.8296   -9.4370  -28.0739 C   0  0  0  0  0  0  0  0  0  0  0  0
   35.1279  -10.7059  -28.5084 C   0  0  0  0  0  0  0  0  0  0  0  0
   36.3990  -11.2158  -28.3578 C   0  0  0  0  0  0  0  0  0  0  0  0
   37.4281  -10.4790  -27.8433 C   0  0  0  0  0  0  0  0  0  0  0  0
   38.7523  -10.6960  -27.6123 N   0  0  0  0  0  0  0  0  0  0  0  0
   35.8314   -8.6270  -27.4905 C   0  0  0  0  0  0  0  0  0  0  0  0
   37.1326   -9.1224  -27.3783 C   0  0  0  0  0  0  0  0  0  0  0  0
   38.2714   -8.6278  -26.9194 N   0  0  0  0  0  0  0  0  0  0  0  0
   38.3478   -7.2803  -26.3321 C   0  0  0  0  0  0  0  0  0  0  0  0
   39.2429   -9.5547  -27.0212 C   0  0  0  0  0  0  0  0  0  0  0  0
   40.6403   -9.3391  -26.5724 C   0  0  0  0  0  0  0  0  0  0  0  0
   41.4048   -8.6287  -27.5219 O   0  0  0  0  0  0  0  0  0  0  0  0
   42.6776   -9.2861  -27.6881 C   0  0  2  0  0  0  0  0  0  0  0  0
   43.4210   -9.1972  -26.3834 C   0  0  0  0  0  0  0  0  0  0  0  0
   44.7074   -9.0146  -26.3142 C   0  0  0  0  0  0  0  0  0  0  0  0
   45.5252   -8.8534  -27.4958 O   0  0  0  0  0  0  0  0  0  0  0  0
   44.8726   -9.0385  -28.8068 C   0  0  1  0  0  0  0  0  0  0  0  0
   43.4156   -8.5303  -28.7362 C   0  0  2  0  0  0  0  0  0  0  0  0
   43.2180   -7.1342  -28.3648 O   0  0  0  0  0  0  0  0  0  0  0  0
   45.6597   -8.3433  -29.8872 C   0  0  0  0  0  0  0  0  0  0  0  0
   47.0590   -8.5134  -29.5488 O   0  0  0  0  0  0  0  0  0  0  0  0
   34.3460  -11.3193  -28.9800 H   0  0  0  0  0  0  0  0  0  0  0  0
   36.5925  -12.2547  -28.6633 H   0  0  0  0  0  0  0  0  0  0  0  0
   35.5883   -7.6170  -27.1288 H   0  0  0  0  0  0  0  0  0  0  0  0
   38.3435   -7.3577  -25.2348 H   0  0  0  0  0  0  0  0  0  0  0  0
   39.2753   -6.7889  -26.6613 H   0  0  0  0  0  0  0  0  0  0  0  0
   37.4819   -6.6872  -26.6613 H   0  0  0  0  0  0  0  0  0  0  0  0
   40.6256   -8.7686  -25.6320 H   0  0  0  0  0  0  0  0  0  0  0  0
   41.1059  -10.3264  -26.4365 H   0  0  0  0  0  0  0  0  0  0  0  0
   42.5666  -10.3421  -27.9754 H   0  0  0  0  0  0  0  0  0  0  0  0
   42.8521   -9.2908  -25.4466 H   0  0  0  0  0  0  0  0  0  0  0  0
   45.1882   -8.9816  -25.3254 H   0  0  0  0  0  0  0  0  0  0  0  0
   44.8478  -10.1087  -29.0600 H   0  0  0  0  0  0  0  0  0  0  0  0
   43.0630   -8.6666  -29.7692 H   0  0  0  0  0  0  0  0  0  0  0  0
   43.2066   -7.0537  -27.3781 H   0  0  0  0  0  0  0  0  0  0  0  0
   45.4470   -8.7987  -30.8656 H   0  0  0  0  0  0  0  0  0  0  0  0
   45.3921   -7.2783  -29.9527 H   0  0  0  0  0  0  0  0  0  0  0  0
   47.1612   -8.5258  -28.5641 H   0  0  0  0  0  0  0  0  0  0  0  0
  1  2  1  0
  2  3  2  0
  2  4  1  0
  4  5  2  0
  4  9  1  0
  5  6  1  0
  6  7  2  0
  7  8  1  0
  7 10  1  0
  8 13  2  0
  9 10  2  0
 10 11  1  0
 11 12  1  0
 11 13  1  0
 13 14  1  0
 14 15  1  0
 16 15  1  0
 16 17  1  0
 16 21  1  0
 17 18  2  0
 18 19  1  0
 19 20  1  0
 20 21  1  0
 20 23  1  0
 21 22  1  0
 23 24  1  0
  5 25  1  0
  6 26  1  0
  9 27  1  0
 12 28  1  0
 12 29  1  0
 12 30  1  0
 14 31  1  0
 14 32  1  0
 16 33  1  6
 17 34  1  0
 18 35  1  0
 20 36  1  6
 21 37  1  6
 22 38  1  0
 23 39  1  0
 23 40  1  0
 24 41  1  0
M  CHG  1   1  -1
M  END
>  <filename_input>  (9) 
7P1M_4IU_docked.sdf

>  <pdb_id>  (9) 
7P1M_4IU

>  <pose_rank>  (9) 
8

>  <num_atoms_heavy>  (9) 
24

>  <num_torsions>  (9) 
5

>  <pose>  (9) 
[34.829550481991596, -9.436969838854157, -28.073905971923246, 0.02435925493211764, -2.9080496798721267, 1.765230797263782, -0.3157801616190745, -6.474992931350513, 0.7130367441958825, -5.713785416991641, -0.5567248902117883]

>  <energy>  (9) 
-382.1201211400896

>  <inter_energy>  (9) 
-382.3167787571094

>  <intra_energy>  (9) 
0.08534265191745126

>  <rmsd>  (9) 
8.91996

>  <sdf_rank>  (9) 
0

$$$$

     RDKit          3D

 41 43  0  0  0  0  0  0  0  0999 V2000
   47.2106   -7.4510  -29.6109 O   0  0  0  0  0  0  0  0  0  0  0  0
   47.0419   -8.1444  -28.6136 C   0  0  0  0  0  0  0  0  0  0  0  0
   48.0135   -8.9259  -28.1408 O   0  0  0  0  0  0  0  0  0  0  0  0
   45.7334   -8.2662  -27.9126 C   0  0  0  0  0  0  0  0  0  0  0  0
   45.7429   -8.5533  -26.5690 C   0  0  0  0  0  0  0  0  0  0  0  0
   44.5610   -8.6641  -25.8693 C   0  0  0  0  0  0  0  0  0  0  0  0
   43.3440   -8.4308  -26.4445 C   0  0  0  0  0  0  0  0  0  0  0  0
   42.0532   -8.4313  -26.0114 N   0  0  0  0  0  0  0  0  0  0  0  0
   44.5101   -8.0536  -28.5897 C   0  0  0  0  0  0  0  0  0  0  0  0
   43.3119   -8.1187  -27.8748 C   0  0  0  0  0  0  0  0  0  0  0  0
   42.0380   -7.9499  -28.1924 N   0  0  0  0  0  0  0  0  0  0  0  0
   41.6179   -7.6553  -29.5720 C   0  0  0  0  0  0  0  0  0  0  0  0
   41.2679   -8.1588  -27.1077 C   0  0  0  0  0  0  0  0  0  0  0  0
   39.7868   -8.0771  -27.1183 C   0  0  0  0  0  0  0  0  0  0  0  0
   39.1798   -9.3006  -26.7644 O   0  0  0  0  0  0  0  0  0  0  0  0
   37.9443   -9.4416  -27.4948 C   0  0  2  0  0  0  0  0  0  0  0  0
   37.0294   -8.3212  -27.0821 C   0  0  0  0  0  0  0  0  0  0  0  0
   35.7448   -8.4734  -26.9414 C   0  0  0  0  0  0  0  0  0  0  0  0
   35.0954   -9.7491  -27.1456 O   0  0  0  0  0  0  0  0  0  0  0  0
   35.9216  -10.8605  -27.6563 C   0  0  1  0  0  0  0  0  0  0  0  0
   37.3533  -10.7452  -27.0877 C   0  0  2  0  0  0  0  0  0  0  0  0
   37.4925  -10.7540  -25.6363 O   0  0  0  0  0  0  0  0  0  0  0  0
   35.2866  -12.1844  -27.3183 C   0  0  0  0  0  0  0  0  0  0  0  0
   36.1033  -13.2033  -27.9478 O   0  0  0  0  0  0  0  0  0  0  0  0
   46.7011   -8.6958  -26.0480 H   0  0  0  0  0  0  0  0  0  0  0  0
   44.5988   -8.9510  -24.8081 H   0  0  0  0  0  0  0  0  0  0  0  0
   44.5024   -7.8391  -29.6686 H   0  0  0  0  0  0  0  0  0  0  0  0
   40.7174   -7.0238  -29.5542 H   0  0  0  0  0  0  0  0  0  0  0  0
   42.4269   -7.1257  -30.0964 H   0  0  0  0  0  0  0  0  0  0  0  0
   41.3955   -8.5963  -30.0964 H   0  0  0  0  0  0  0  0  0  0  0  0
   39.4701   -7.3049  -26.4017 H   0  0  0  0  0  0  0  0  0  0  0  0
   39.4711   -7.8289  -28.1424 H   0  0  0  0  0  0  0  0  0  0  0  0
   38.0978   -9.4071  -28.5835 H   0  0  0  0  0  0  0  0  0  0  0  0
   37.4654   -7.3296  -26.8907 H   0  0  0  0  0  0  0  0  0  0  0  0
   35.1335   -7.6039  -26.6582 H   0  0  0  0  0  0  0  0  0  0  0  0
   35.9852  -10.8009  -28.7528 H   0  0  0  0  0  0  0  0  0  0  0  0
   37.8442  -11.6446  -27.4878 H   0  0  0  0  0  0  0  0  0  0  0  0
   36.5968  -10.6974  -25.2185 H   0  0  0  0  0  0  0  0  0  0  0  0
   35.2693  -12.3307  -26.2282 H   0  0  0  0  0  0  0  0  0  0  0  0
   34.2470  -12.2304  -27.6749 H   0  0  0  0  0  0  0  0  0  0  0  0
   36.5428  -13.7515  -27.2503 H   0  0  0  0  0  0  0  0  0  0  0  0
  1  2  1  0
  2  3  2  0
  2  4  1  0
  4  5  2  0
  4  9  1  0
  5  6  1  0
  6  7  2  0
  7  8  1  0
  7 10  1  0
  8 13  2  0
  9 10  2  0
 10 11  1  0
 11 12  1  0
 11 13  1  0
 13 14  1  0
 14 15  1  0
 16 15  1  0
 16 17  1  0
 16 21  1  0
 17 18  2  0
 18 19  1  0
 19 20  1  0
 20 21  1  0
 20 23  1  0
 21 22  1  0
 23 24  1  0
  5 25  1  0
  6 26  1  0
  9 27  1  0
 12 28  1  0
 12 29  1  0
 12 30  1  0
 14 31  1  0
 14 32  1  0
 16 33  1  6
 17 34  1  0
 18 35  1  0
 20 36  1  6
 21 37  1  6
 22 38  1  0
 23 39  1  0
 23 40  1  0
 24 41  1  0
M  CHG  1   1  -1
M  END
>  <filename_input>  (10) 
7P1M_4IU_docked.sdf

>  <pdb_id>  (10) 
7P1M_4IU

>  <pose_rank>  (10) 
9

>  <num_atoms_heavy>  (10) 
24

>  <num_torsions>  (10) 
5

>  <pose>  (10) 
[45.733386267778855, -8.266194043217334, -27.91264642880891, -2.9878838302215653, -1.465043688987485, 5.13937818495409, 3.414801477799886, -2.981336223969865, 0.49206714057585865, 0.6057543248928002, 1.859701185611055]

>  <energy>  (10) 
-444.9989363042778

>  <inter_energy>  (10) 
-427.61168370896155

>  <intra_energy>  (10) 
0.0

>  <rmsd>  (10) 
3.42176

>  <sdf_rank>  (10) 
0

$$$$

     RDKit          3D

 41 43  0  0  0  0  0  0  0  0999 V2000
   36.2688  -16.8836  -26.7727 O   0  0  0  0  0  0  0  0  0  0  0  0
   35.5695  -15.8763  -26.7625 C   0  0  0  0  0  0  0  0  0  0  0  0
   35.0122  -15.4313  -25.6356 O   0  0  0  0  0  0  0  0  0  0  0  0
   35.1899  -15.1302  -27.9944 C   0  0  0  0  0  0  0  0  0  0  0  0
   35.0641  -15.8366  -29.1662 C   0  0  0  0  0  0  0  0  0  0  0  0
   34.7024  -15.1978  -30.3323 C   0  0  0  0  0  0  0  0  0  0  0  0
   34.3876  -13.8690  -30.3728 C   0  0  0  0  0  0  0  0  0  0  0  0
   33.9778  -13.0009  -31.3385 N   0  0  0  0  0  0  0  0  0  0  0  0
   34.9231  -13.7418  -27.9643 C   0  0  0  0  0  0  0  0  0  0  0  0
   34.5108  -13.0986  -29.1338 C   0  0  0  0  0  0  0  0  0  0  0  0
   34.1679  -11.8550  -29.4307 N   0  0  0  0  0  0  0  0  0  0  0  0
   34.2073  -10.7813  -28.4246 C   0  0  0  0  0  0  0  0  0  0  0  0
   33.8745  -11.7655  -30.7418 C   0  0  0  0  0  0  0  0  0  0  0  0
   33.4769  -10.5048  -31.4148 C   0  0  0  0  0  0  0  0  0  0  0  0
   32.1587  -10.5569  -31.9153 O   0  0  0  0  0  0  0  0  0  0  0  0
   31.4130   -9.4378  -31.3943 C   0  0  2  0  0  0  0  0  0  0  0  0
   30.1415   -9.9671  -30.7895 C   0  0  0  0  0  0  0  0  0  0  0  0
   29.0046   -9.3399  -30.8737 C   0  0  0  0  0  0  0  0  0  0  0  0
   28.8683   -8.0886  -31.5852 O   0  0  0  0  0  0  0  0  0  0  0  0
   30.0994   -7.4639  -32.1075 C   0  0  1  0  0  0  0  0  0  0  0  0
   31.0887   -8.5631  -32.5537 C   0  0  2  0  0  0  0  0  0  0  0  0
   30.6271   -9.4948  -33.5759 O   0  0  0  0  0  0  0  0  0  0  0  0
   29.7700   -6.5137  -33.2295 C   0  0  0  0  0  0  0  0  0  0  0  0
   29.0688   -5.3966  -32.6280 O   0  0  0  0  0  0  0  0  0  0  0  0
   35.2535  -16.9201  -29.1735 H   0  0  0  0  0  0  0  0  0  0  0  0
   34.6656  -15.7794  -31.2653 H   0  0  0  0  0  0  0  0  0  0  0  0
   35.0390  -13.1739  -27.0293 H   0  0  0  0  0  0  0  0  0  0  0  0
   34.1911  -11.2222  -27.4169 H   0  0  0  0  0  0  0  0  0  0  0  0
   35.1277  -10.1926  -28.5525 H   0  0  0  0  0  0  0  0  0  0  0  0
   33.3326  -10.1267  -28.5525 H   0  0  0  0  0  0  0  0  0  0  0  0
   33.5479   -9.6798  -30.6907 H   0  0  0  0  0  0  0  0  0  0  0  0
   34.1545  -10.3507  -32.2676 H   0  0  0  0  0  0  0  0  0  0  0  0
   31.9769   -8.8801  -30.6320 H   0  0  0  0  0  0  0  0  0  0  0  0
   30.1742  -10.9265  -30.2524 H   0  0  0  0  0  0  0  0  0  0  0  0
   28.1189   -9.7756  -30.3881 H   0  0  0  0  0  0  0  0  0  0  0  0
   30.5810   -6.8746  -31.3133 H   0  0  0  0  0  0  0  0  0  0  0  0
   31.9245   -7.9806  -32.9686 H   0  0  0  0  0  0  0  0  0  0  0  0
   30.2321  -10.2920  -33.1417 H   0  0  0  0  0  0  0  0  0  0  0  0
   30.6929   -6.1657  -33.7165 H   0  0  0  0  0  0  0  0  0  0  0  0
   29.1544   -7.0032  -33.9986 H   0  0  0  0  0  0  0  0  0  0  0  0
   29.1151   -5.4703  -31.6418 H   0  0  0  0  0  0  0  0  0  0  0  0
  1  2  1  0
  2  3  2  0
  2  4  1  0
  4  5  2  0
  4  9  1  0
  5  6  1  0
  6  7  2  0
  7  8  1  0
  7 10  1  0
  8 13  2  0
  9 10  2  0
 10 11  1  0
 11 12  1  0
 11 13  1  0
 13 14  1  0
 14 15  1  0
 16 15  1  0
 16 17  1  0
 16 21  1  0
 17 18  2  0
 18 19  1  0
 19 20  1  0
 20 21  1  0
 20 23  1  0
 21 22  1  0
 23 24  1  0
  5 25  1  0
  6 26  1  0
  9 27  1  0
 12 28  1  0
 12 29  1  0
 12 30  1  0
 14 31  1  0
 14 32  1  0
 16 33  1  1
 17 34  1  0
 18 35  1  0
 20 36  1  1
 21 37  1  6
 22 38  1  0
 23 39  1  0
 23 40  1  0
 24 41  1  0
M  CHG  1   1  -1
M  END
>  <filename_input>  (11) 
7P1M_4IU_docked.sdf

>  <pdb_id>  (11) 
7P1M_4IU

>  <pose_rank>  (11) 
10

>  <num_atoms_heavy>  (11) 
24

>  <num_torsions>  (11) 
5

>  <pose>  (11) 
[35.18993603079237, -15.130236738912533, -27.9944084491866, 2.03562605679726, -1.494633306638181, 0.21758936173006682, 0.32102811117810426, -0.7947209827091981, 5.2438544460343355, -0.5471808545174754, 0.000768803121224293]

>  <energy>  (11) 
-70.39058600817212

>  <inter_energy>  (11) 
-70.82075407890304

>  <intra_energy>  (11) 
0.0

>  <rmsd>  (11) 
8.96644

>  <sdf_rank>  (11) 
0

$$$$

     RDKit          3D

 41 43  0  0  0  0  0  0  0  0999 V2000
   47.1642   -7.3221  -29.4115 O   0  0  0  0  0  0  0  0  0  0  0  0
   46.3423   -8.2219  -29.5481 C   0  0  0  0  0  0  0  0  0  0  0  0
   46.4903   -9.1588  -30.4855 O   0  0  0  0  0  0  0  0  0  0  0  0
   45.0713   -8.2945  -28.7751 C   0  0  0  0  0  0  0  0  0  0  0  0
   45.1442   -8.2531  -27.4036 C   0  0  0  0  0  0  0  0  0  0  0  0
   43.9979   -8.3037  -26.6406 C   0  0  0  0  0  0  0  0  0  0  0  0
   42.7492   -8.3265  -27.1944 C   0  0  0  0  0  0  0  0  0  0  0  0
   41.4766   -8.3436  -26.7106 N   0  0  0  0  0  0  0  0  0  0  0  0
   43.8158   -8.3621  -29.4226 C   0  0  0  0  0  0  0  0  0  0  0  0
   42.6490   -8.3664  -28.6546 C   0  0  0  0  0  0  0  0  0  0  0  0
   41.3569   -8.3958  -28.9403 N   0  0  0  0  0  0  0  0  0  0  0  0
   40.8739   -8.4764  -30.3285 C   0  0  0  0  0  0  0  0  0  0  0  0
   40.6400   -8.4121  -27.8006 C   0  0  0  0  0  0  0  0  0  0  0  0
   39.1584   -8.4722  -27.7578 C   0  0  0  0  0  0  0  0  0  0  0  0
   38.6774   -9.7968  -27.6888 O   0  0  0  0  0  0  0  0  0  0  0  0
   37.2778   -9.7718  -27.3419 C   0  0  2  0  0  0  0  0  0  0  0  0
   36.9053  -11.1295  -26.8122 C   0  0  0  0  0  0  0  0  0  0  0  0
   35.7586  -11.6934  -27.0573 C   0  0  0  0  0  0  0  0  0  0  0  0
   34.7556  -11.0653  -27.8882 O   0  0  0  0  0  0  0  0  0  0  0  0
   35.0171   -9.6874  -28.3484 C   0  0  1  0  0  0  0  0  0  0  0  0
   36.5301   -9.5040  -28.6003 C   0  0  2  0  0  0  0  0  0  0  0  0
   37.1526  -10.3942  -29.5729 O   0  0  0  0  0  0  0  0  0  0  0  0
   34.2005   -9.3809  -29.5770 C   0  0  0  0  0  0  0  0  0  0  0  0
   33.3811  -10.5504  -29.8266 O   0  0  0  0  0  0  0  0  0  0  0  0
   46.1250   -8.1791  -26.9111 H   0  0  0  0  0  0  0  0  0  0  0  0
   44.0918   -8.3264  -25.5449 H   0  0  0  0  0  0  0  0  0  0  0  0
   43.7587   -8.4108  -30.5201 H   0  0  0  0  0  0  0  0  0  0  0  0
   39.7889   -8.6572  -30.3293 H   0  0  0  0  0  0  0  0  0  0  0  0
   41.0883   -7.5301  -30.8468 H   0  0  0  0  0  0  0  0  0  0  0  0
   41.3837   -9.3019  -30.8468 H   0  0  0  0  0  0  0  0  0  0  0  0
   38.8076   -7.9220  -26.8722 H   0  0  0  0  0  0  0  0  0  0  0  0
   38.7767   -8.0239  -28.6870 H   0  0  0  0  0  0  0  0  0  0  0  0
   37.0501   -9.0077  -26.5840 H   0  0  0  0  0  0  0  0  0  0  0  0
   37.6345  -11.6695  -26.1903 H   0  0  0  0  0  0  0  0  0  0  0  0
   35.5454  -12.6793  -26.6186 H   0  0  0  0  0  0  0  0  0  0  0  0
   34.7129   -8.9730  -27.5692 H   0  0  0  0  0  0  0  0  0  0  0  0
   36.5867   -8.4756  -28.9868 H   0  0  0  0  0  0  0  0  0  0  0  0
   37.6502  -11.1060  -29.0976 H   0  0  0  0  0  0  0  0  0  0  0  0
   33.5642   -8.5011  -29.4010 H   0  0  0  0  0  0  0  0  0  0  0  0
   34.8461   -9.1553  -30.4386 H   0  0  0  0  0  0  0  0  0  0  0  0
   33.1023  -10.9482  -28.9640 H   0  0  0  0  0  0  0  0  0  0  0  0
  1  2  1  0
  2  3  2  0
  2  4  1  0
  4  5  2  0
  4  9  1  0
  5  6  1  0
  6  7  2  0
  7  8  1  0
  7 10  1  0
  8 13  2  0
  9 10  2  0
 10 11  1  0
 11 12  1  0
 11 13  1  0
 13 14  1  0
 14 15  1  0
 16 15  1  0
 16 17  1  0
 16 21  1  0
 17 18  2  0
 18 19  1  0
 19 20  1  0
 20 21  1  0
 20 23  1  0
 21 22  1  0
 23 24  1  0
  5 25  1  0
  6 26  1  0
  9 27  1  0
 12 28  1  0
 12 29  1  0
 12 30  1  0
 14 31  1  0
 14 32  1  0
 16 33  1  1
 17 34  1  0
 18 35  1  0
 20 36  1  1
 21 37  1  6
 22 38  1  0
 23 39  1  0
 23 40  1  0
 24 41  1  0
M  CHG  1   1  -1
M  END
>  <filename_input>  (12) 
7P1M_4IU_docked.sdf

>  <pdb_id>  (12) 
7P1M_4IU

>  <pose_rank>  (12) 
11

>  <num_atoms_heavy>  (12) 
24

>  <num_torsions>  (12) 
5

>  <pose>  (12) 
[45.071267920280796, -8.294502415957188, -28.775102718415752, 5.529924460714577, -2.147669104410133, 1.4334449525519586, -1.1579368071529001, -28.588446573019063, -6.603763094470876, 5.174411990408255, -1.149454362351965]

>  <energy>  (12) 
-413.4278581036665

>  <inter_energy>  (12) 
-399.64509132515843

>  <intra_energy>  (12) 
2.378709757127878

>  <rmsd>  (12) 
2.97335

>  <sdf_rank>  (12) 
0

$$$$

     RDKit          3D

 41 43  0  0  0  0  0  0  0  0999 V2000
   35.7508   -8.2739  -30.1474 O   0  0  0  0  0  0  0  0  0  0  0  0
   36.0016   -8.5324  -28.9752 C   0  0  0  0  0  0  0  0  0  0  0  0
   35.0350   -8.8550  -28.1149 O   0  0  0  0  0  0  0  0  0  0  0  0
   37.3618   -8.4069  -28.3817 C   0  0  0  0  0  0  0  0  0  0  0  0
   37.5044   -8.6371  -27.0346 C   0  0  0  0  0  0  0  0  0  0  0  0
   38.7428   -8.5472  -26.4371 C   0  0  0  0  0  0  0  0  0  0  0  0
   39.8830   -8.2987  -27.1474 C   0  0  0  0  0  0  0  0  0  0  0  0
   41.2063   -8.1894  -26.8457 N   0  0  0  0  0  0  0  0  0  0  0  0
   38.4898   -8.1012  -29.1781 C   0  0  0  0  0  0  0  0  0  0  0  0
   39.7538   -8.0549  -28.5854 C   0  0  0  0  0  0  0  0  0  0  0  0
   40.9771   -7.8298  -29.0381 N   0  0  0  0  0  0  0  0  0  0  0  0
   41.2311   -7.5086  -30.4520 C   0  0  0  0  0  0  0  0  0  0  0  0
   41.8547   -7.8759  -28.0178 C   0  0  0  0  0  0  0  0  0  0  0  0
   43.3114   -7.6407  -28.1702 C   0  0  0  0  0  0  0  0  0  0  0  0
   43.9468   -8.6676  -28.8999 O   0  0  0  0  0  0  0  0  0  0  0  0
   45.2104   -8.1801  -29.3956 C   0  0  2  0  0  0  0  0  0  0  0  0
   45.3836   -8.6834  -30.8025 C   0  0  0  0  0  0  0  0  0  0  0  0
   46.5331   -9.0608  -31.2813 C   0  0  0  0  0  0  0  0  0  0  0  0
   47.7384   -9.0518  -30.4826 O   0  0  0  0  0  0  0  0  0  0  0  0
   47.6552   -8.4677  -29.1296 C   0  0  1  0  0  0  0  0  0  0  0  0
   46.2656   -8.7626  -28.5229 C   0  0  2  0  0  0  0  0  0  0  0  0
   45.8811  -10.1635  -28.3973 O   0  0  0  0  0  0  0  0  0  0  0  0
   48.7707   -8.9914  -28.2627 C   0  0  0  0  0  0  0  0  0  0  0  0
   48.5017   -8.5189  -26.9189 O   0  0  0  0  0  0  0  0  0  0  0  0
   36.6234   -8.8950  -26.4287 H   0  0  0  0  0  0  0  0  0  0  0  0
   38.8160   -8.6806  -25.3477 H   0  0  0  0  0  0  0  0  0  0  0  0
   38.3729   -7.9018  -30.2536 H   0  0  0  0  0  0  0  0  0  0  0  0
   41.9121   -6.6471  -30.5157 H   0  0  0  0  0  0  0  0  0  0  0  0
   41.6900   -8.3763  -30.9484 H   0  0  0  0  0  0  0  0  0  0  0  0
   40.2808   -7.2624  -30.9484 H   0  0  0  0  0  0  0  0  0  0  0  0
   43.4623   -6.6870  -28.6972 H   0  0  0  0  0  0  0  0  0  0  0  0
   43.7555   -7.6188  -27.1641 H   0  0  0  0  0  0  0  0  0  0  0  0
   45.2639   -7.0814  -29.3903 H   0  0  0  0  0  0  0  0  0  0  0  0
   44.4997   -8.7348  -31.4552 H   0  0  0  0  0  0  0  0  0  0  0  0
   46.5898   -9.3973  -32.3270 H   0  0  0  0  0  0  0  0  0  0  0  0
   47.7754   -7.3759  -29.1898 H   0  0  0  0  0  0  0  0  0  0  0  0
   46.3483   -8.3347  -27.5129 H   0  0  0  0  0  0  0  0  0  0  0  0
   45.8154  -10.4030  -27.4389 H   0  0  0  0  0  0  0  0  0  0  0  0
   48.7843  -10.0911  -28.2836 H   0  0  0  0  0  0  0  0  0  0  0  0
   49.7506   -8.6415  -28.6195 H   0  0  0  0  0  0  0  0  0  0  0  0
   48.8685   -9.1633  -26.2629 H   0  0  0  0  0  0  0  0  0  0  0  0
  1  2  1  0
  2  3  2  0
  2  4  1  0
  4  5  2  0
  4  9  1  0
  5  6  1  0
  6  7  2  0
  7  8  1  0
  7 10  1  0
  8 13  2  0
  9 10  2  0
 10 11  1  0
 11 12  1  0
 11 13  1  0
 13 14  1  0
 14 15  1  0
 16 15  1  0
 16 17  1  0
 16 21  1  0
 17 18  2  0
 18 19  1  0
 19 20  1  0
 20 21  1  0
 20 23  1  0
 21 22  1  0
 23 24  1  0
  5 25  1  0
  6 26  1  0
  9 27  1  0
 12 28  1  0
 12 29  1  0
 12 30  1  0
 14 31  1  0
 14 32  1  0
 16 33  1  6
 17 34  1  0
 18 35  1  0
 20 36  1  6
 21 37  1  1
 22 38  1  0
 23 39  1  0
 23 40  1  0
 24 41  1  0
M  CHG  1   1  -1
M  END
>  <filename_input>  (13) 
7P1M_4IU_docked.sdf

>  <pdb_id>  (13) 
7P1M_4IU

>  <pose_rank>  (13) 
12

>  <num_atoms_heavy>  (13) 
24

>  <num_torsions>  (13) 
5

>  <pose>  (13) 
[37.361848890635365, -8.406899827786251, -28.3817221019041, -0.14651281582415773, 0.467404727242565, -3.0481279386912505, 2.8584134103461096, -6.247034235889901, -6.71146548751573, -0.7306032619741696, 2.075680274427385]

>  <energy>  (13) 
-405.5235717620967

>  <inter_energy>  (13) 
-379.39685555610174

>  <intra_energy>  (13) 
2.093638314115628

>  <rmsd>  (13) 
9.24261

>  <sdf_rank>  (13) 
0

$$$$

     RDKit          3D

 41 43  0  0  0  0  0  0  0  0999 V2000
   48.9036   -6.2425  -30.2106 O   0  0  0  0  0  0  0  0  0  0  0  0
   48.0398   -6.9439  -30.7260 C   0  0  0  0  0  0  0  0  0  0  0  0
   48.2155   -7.4851  -31.9321 O   0  0  0  0  0  0  0  0  0  0  0  0
   46.6966   -7.1655  -30.1219 C   0  0  0  0  0  0  0  0  0  0  0  0
   46.5709   -7.0411  -28.7593 C   0  0  0  0  0  0  0  0  0  0  0  0
   45.3482   -7.2227  -28.1504 C   0  0  0  0  0  0  0  0  0  0  0  0
   44.2049   -7.4622  -28.8589 C   0  0  0  0  0  0  0  0  0  0  0  0
   42.8926   -7.6445  -28.5450 N   0  0  0  0  0  0  0  0  0  0  0  0
   45.5661   -7.4551  -30.9207 C   0  0  0  0  0  0  0  0  0  0  0  0
   44.3160   -7.5939  -30.3129 C   0  0  0  0  0  0  0  0  0  0  0  0
   43.0937   -7.8322  -30.7616 N   0  0  0  0  0  0  0  0  0  0  0  0
   42.8254   -8.0577  -32.1912 C   0  0  0  0  0  0  0  0  0  0  0  0
   42.2344   -7.8955  -29.7268 C   0  0  0  0  0  0  0  0  0  0  0  0
   40.7849   -8.1751  -29.8730 C   0  0  0  0  0  0  0  0  0  0  0  0
   40.2924   -9.0043  -28.8432 O   0  0  0  0  0  0  0  0  0  0  0  0
   39.3325   -8.2643  -28.0616 C   0  0  2  0  0  0  0  0  0  0  0  0
   39.6594   -8.4691  -26.6077 C   0  0  0  0  0  0  0  0  0  0  0  0
   38.7465   -8.5894  -25.6884 C   0  0  0  0  0  0  0  0  0  0  0  0
   37.3347   -8.5632  -25.9996 O   0  0  0  0  0  0  0  0  0  0  0  0
   36.9490   -8.2574  -27.3911 C   0  0  1  0  0  0  0  0  0  0  0  0
   37.9967   -8.8479  -28.3605 C   0  0  2  0  0  0  0  0  0  0  0  0
   38.2218  -10.2871  -28.2963 O   0  0  0  0  0  0  0  0  0  0  0  0
   35.5629   -8.7744  -27.6770 C   0  0  0  0  0  0  0  0  0  0  0  0
   35.4973  -10.1066  -27.1091 O   0  0  0  0  0  0  0  0  0  0  0  0
   47.4529   -6.7947  -28.1500 H   0  0  0  0  0  0  0  0  0  0  0  0
   45.2906   -7.1731  -27.0530 H   0  0  0  0  0  0  0  0  0  0  0  0
   45.6701   -7.5699  -32.0098 H   0  0  0  0  0  0  0  0  0  0  0  0
   41.9876   -8.7620  -32.3004 H   0  0  0  0  0  0  0  0  0  0  0  0
   42.5662   -7.1023  -32.6708 H   0  0  0  0  0  0  0  0  0  0  0  0
   43.7221   -8.4773  -32.6708 H   0  0  0  0  0  0  0  0  0  0  0  0
   40.2369   -7.2215  -29.8517 H   0  0  0  0  0  0  0  0  0  0  0  0
   40.6387   -8.7017  -30.8276 H   0  0  0  0  0  0  0  0  0  0  0  0
   39.3477   -7.1889  -28.2926 H   0  0  0  0  0  0  0  0  0  0  0  0
   40.7167   -8.5195  -26.3085 H   0  0  0  0  0  0  0  0  0  0  0  0
   39.0587   -8.7150  -24.6411 H   0  0  0  0  0  0  0  0  0  0  0  0
   36.9261   -7.1674  -27.5378 H   0  0  0  0  0  0  0  0  0  0  0  0
   37.5739   -8.6076  -29.3472 H   0  0  0  0  0  0  0  0  0  0  0  0
   38.2664  -10.5722  -27.3493 H   0  0  0  0  0  0  0  0  0  0  0  0
   34.8101   -8.1237  -27.2083 H   0  0  0  0  0  0  0  0  0  0  0  0
   35.3589   -8.7914  -28.7578 H   0  0  0  0  0  0  0  0  0  0  0  0
   35.5004  -10.0446  -26.1210 H   0  0  0  0  0  0  0  0  0  0  0  0
  1  2  1  0
  2  3  2  0
  2  4  1  0
  4  5  2  0
  4  9  1  0
  5  6  1  0
  6  7  2  0
  7  8  1  0
  7 10  1  0
  8 13  2  0
  9 10  2  0
 10 11  1  0
 11 12  1  0
 11 13  1  0
 13 14  1  0
 14 15  1  0
 16 15  1  0
 16 17  1  0
 16 21  1  0
 17 18  2  0
 18 19  1  0
 19 20  1  0
 20 21  1  0
 20 23  1  0
 21 22  1  0
 23 24  1  0
  5 25  1  0
  6 26  1  0
  9 27  1  0
 12 28  1  0
 12 29  1  0
 12 30  1  0
 14 31  1  0
 14 32  1  0
 16 33  1  6
 17 34  1  0
 18 35  1  0
 20 36  1  1
 21 37  1  6
 22 38  1  0
 23 39  1  0
 23 40  1  0
 24 41  1  0
M  CHG  1   1  -1
M  END
>  <filename_input>  (14) 
7P1M_4IU_docked.sdf

>  <pdb_id>  (14) 
7P1M_4IU

>  <pose_rank>  (14) 
13

>  <num_atoms_heavy>  (14) 
24

>  <num_torsions>  (14) 
5

>  <pose>  (14) 
[46.69657298255696, -7.16554501900771, -30.121879711643953, -0.2275046415637967, -0.08563046554107032, 0.09128574095058939, 5.625990508134111, -8.872927301929769, 5.065654745327471, 5.663468753887919, -1.971981385269163]

>  <energy>  (14) 
-377.60964142709713

>  <inter_energy>  (14) 
-375.5167669501301

>  <intra_energy>  (14) 
5.445908757606713

>  <rmsd>  (14) 
4.06265

>  <sdf_rank>  (14) 
0

$$$$

     RDKit          3D

 41 43  0  0  0  0  0  0  0  0999 V2000
   31.8622   -5.4631  -37.6567 O   0  0  0  0  0  0  0  0  0  0  0  0
   32.7088   -5.3732  -36.7741 C   0  0  0  0  0  0  0  0  0  0  0  0
   33.5670   -4.3531  -36.7387 O   0  0  0  0  0  0  0  0  0  0  0  0
   32.9318   -6.4246  -35.7429 C   0  0  0  0  0  0  0  0  0  0  0  0
   32.2463   -7.6090  -35.8669 C   0  0  0  0  0  0  0  0  0  0  0  0
   32.4253   -8.6200  -34.9480 C   0  0  0  0  0  0  0  0  0  0  0  0
   33.3263   -8.5297  -33.9251 C   0  0  0  0  0  0  0  0  0  0  0  0
   33.7317   -9.3511  -32.9176 N   0  0  0  0  0  0  0  0  0  0  0  0
   33.8512   -6.2381  -34.6847 C   0  0  0  0  0  0  0  0  0  0  0  0
   34.0707   -7.2775  -33.7776 C   0  0  0  0  0  0  0  0  0  0  0  0
   34.8573   -7.4316  -32.7242 N   0  0  0  0  0  0  0  0  0  0  0  0
   35.7349   -6.3492  -32.2500 C   0  0  0  0  0  0  0  0  0  0  0  0
   34.6530   -8.6455  -32.1786 C   0  0  0  0  0  0  0  0  0  0  0  0
   35.3536   -9.1343  -30.9658 C   0  0  0  0  0  0  0  0  0  0  0  0
   34.5719   -8.9893  -29.8001 O   0  0  0  0  0  0  0  0  0  0  0  0
   34.8836   -7.7258  -29.1786 C   0  0  2  0  0  0  0  0  0  0  0  0
   36.1031   -7.9183  -28.3192 C   0  0  0  0  0  0  0  0  0  0  0  0
   36.2566   -7.3303  -27.1687 C   0  0  0  0  0  0  0  0  0  0  0  0
   35.2458   -6.4607  -26.6094 O   0  0  0  0  0  0  0  0  0  0  0  0
   34.0751   -6.1463  -27.4517 C   0  0  1  0  0  0  0  0  0  0  0  0
   33.7193   -7.3719  -28.3221 C   0  0  2  0  0  0  0  0  0  0  0  0
   33.4095   -8.6134  -27.6231 O   0  0  0  0  0  0  0  0  0  0  0  0
   32.9154   -5.7081  -26.5955 C   0  0  0  0  0  0  0  0  0  0  0  0
   33.1624   -4.3223  -26.2491 O   0  0  0  0  0  0  0  0  0  0  0  0
   31.5494   -7.7510  -36.7061 H   0  0  0  0  0  0  0  0  0  0  0  0
   31.8202   -9.5338  -35.0416 H   0  0  0  0  0  0  0  0  0  0  0  0
   34.3882   -5.2841  -34.5770 H   0  0  0  0  0  0  0  0  0  0  0  0
   35.7431   -6.3390  -31.1501 H   0  0  0  0  0  0  0  0  0  0  0  0
   36.7564   -6.5155  -32.6228 H   0  0  0  0  0  0  0  0  0  0  0  0
   35.3611   -5.3841  -32.6228 H   0  0  0  0  0  0  0  0  0  0  0  0
   35.5930  -10.1994  -31.1008 H   0  0  0  0  0  0  0  0  0  0  0  0
   36.2641   -8.5307  -30.8372 H   0  0  0  0  0  0  0  0  0  0  0  0
   35.0774   -6.9346  -29.9179 H   0  0  0  0  0  0  0  0  0  0  0  0
   36.9001   -8.5854  -28.6793 H   0  0  0  0  0  0  0  0  0  0  0  0
   37.1849   -7.5001  -26.6036 H   0  0  0  0  0  0  0  0  0  0  0  0
   34.3170   -5.3101  -28.1243 H   0  0  0  0  0  0  0  0  0  0  0  0
   32.8144   -7.0372  -28.8504 H   0  0  0  0  0  0  0  0  0  0  0  0
   33.4477   -8.4603  -26.6458 H   0  0  0  0  0  0  0  0  0  0  0  0
   31.9733   -5.7979  -27.1562 H   0  0  0  0  0  0  0  0  0  0  0  0
   32.8256   -6.3340  -25.6954 H   0  0  0  0  0  0  0  0  0  0  0  0
   33.1795   -4.2264  -25.2639 H   0  0  0  0  0  0  0  0  0  0  0  0
  1  2  1  0
  2  3  2  0
  2  4  1  0
  4  5  2  0
  4  9  1  0
  5  6  1  0
  6  7  2  0
  7  8  1  0
  7 10  1  0
  8 13  2  0
  9 10  2  0
 10 11  1  0
 11 12  1  0
 11 13  1  0
 13 14  1  0
 14 15  1  0
 16 15  1  0
 16 17  1  0
 16 21  1  0
 17 18  2  0
 18 19  1  0
 19 20  1  0
 20 21  1  0
 20 23  1  0
 21 22  1  0
 23 24  1  0
  5 25  1  0
  6 26  1  0
  9 27  1  0
 12 28  1  0
 12 29  1  0
 12 30  1  0
 14 31  1  0
 14 32  1  0
 16 33  1  6
 17 34  1  0
 18 35  1  0
 20 36  1  6
 21 37  1  6
 22 38  1  0
 23 39  1  0
 23 40  1  0
 24 41  1  0
M  CHG  1   1  -1
M  END
>  <filename_input>  (15) 
7P1M_4IU_docked.sdf

>  <pdb_id>  (15) 
7P1M_4IU

>  <pose_rank>  (15) 
14

>  <num_atoms_heavy>  (15) 
24

>  <num_torsions>  (15) 
5

>  <pose>  (15) 
[32.931766998144866, -6.424598501325505, -35.742896504236654, -1.6277509092798597, -2.1115577378910855, 2.1645045520182435, -0.09100528975495185, 2.9476611316079113, 1.431493735531305, 0.22582547217732662, 0.18163493372246864]

>  <energy>  (15) 
-297.7774825514205

>  <inter_energy>  (15) 
-308.9989555228263

>  <intra_energy>  (15) 
3.8390194600037226

>  <rmsd>  (15) 
9.1325

>  <sdf_rank>  (15) 
0

$$$$

     RDKit          3D

 41 43  0  0  0  0  0  0  0  0999 V2000
   37.3276  -14.5394  -24.9324 O   0  0  0  0  0  0  0  0  0  0  0  0
   36.4342  -13.7018  -24.9972 C   0  0  0  0  0  0  0  0  0  0  0  0
   36.2184  -12.8408  -24.0019 O   0  0  0  0  0  0  0  0  0  0  0  0
   35.4534  -13.6354  -26.1161 C   0  0  0  0  0  0  0  0  0  0  0  0
   34.4591  -14.5826  -26.1627 C   0  0  0  0  0  0  0  0  0  0  0  0
   33.5181  -14.5595  -27.1689 C   0  0  0  0  0  0  0  0  0  0  0  0
   33.4806  -13.5746  -28.1150 C   0  0  0  0  0  0  0  0  0  0  0  0
   32.6770  -13.2807  -29.1742 N   0  0  0  0  0  0  0  0  0  0  0  0
   35.5077  -12.6075  -27.0858 C   0  0  0  0  0  0  0  0  0  0  0  0
   34.5286  -12.5527  -28.0806 C   0  0  0  0  0  0  0  0  0  0  0  0
   34.2844  -11.7322  -29.0902 N   0  0  0  0  0  0  0  0  0  0  0  0
   35.1648  -10.5910  -29.3890 C   0  0  0  0  0  0  0  0  0  0  0  0
   33.2054  -12.1603  -29.7726 C   0  0  0  0  0  0  0  0  0  0  0  0
   32.6716  -11.4857  -30.9811 C   0  0  0  0  0  0  0  0  0  0  0  0
   31.8066  -10.4179  -30.6611 O   0  0  0  0  0  0  0  0  0  0  0  0
   31.1392  -10.7098  -29.4164 C   0  0  2  0  0  0  0  0  0  0  0  0
   29.8938  -11.4936  -29.7290 C   0  0  0  0  0  0  0  0  0  0  0  0
   28.7772  -11.3338  -29.0805 C   0  0  0  0  0  0  0  0  0  0  0  0
   28.6376  -10.3624  -28.0186 O   0  0  0  0  0  0  0  0  0  0  0  0
   29.8517   -9.6392  -27.5925 C   0  0  1  0  0  0  0  0  0  0  0  0
   30.7678   -9.4012  -28.8132 C   0  0  2  0  0  0  0  0  0  0  0  0
   30.2040   -8.6498  -29.9283 O   0  0  0  0  0  0  0  0  0  0  0  0
   29.4806   -8.3497  -26.9071 C   0  0  0  0  0  0  0  0  0  0  0  0
   30.6870   -7.5471  -26.8632 O   0  0  0  0  0  0  0  0  0  0  0  0
   34.4141  -15.3652  -25.3910 H   0  0  0  0  0  0  0  0  0  0  0  0
   32.7691  -15.3640  -27.2121 H   0  0  0  0  0  0  0  0  0  0  0  0
   36.3129  -11.8586  -27.0570 H   0  0  0  0  0  0  0  0  0  0  0  0
   35.5127  -10.1401  -28.4480 H   0  0  0  0  0  0  0  0  0  0  0  0
   36.0309  -10.9388  -29.9712 H   0  0  0  0  0  0  0  0  0  0  0  0
   34.6087   -9.8415  -29.9712 H   0  0  0  0  0  0  0  0  0  0  0  0
   33.5147  -11.0938  -31.5689 H   0  0  0  0  0  0  0  0  0  0  0  0
   32.0935  -12.2271  -31.5523 H   0  0  0  0  0  0  0  0  0  0  0  0
   31.7737  -11.2888  -28.7294 H   0  0  0  0  0  0  0  0  0  0  0  0
   29.9288  -12.2343  -30.5414 H   0  0  0  0  0  0  0  0  0  0  0  0
   27.9118  -11.9577  -29.3487 H   0  0  0  0  0  0  0  0  0  0  0  0
   30.4076  -10.2468  -26.8632 H   0  0  0  0  0  0  0  0  0  0  0  0
   31.5936   -8.8151  -28.3836 H   0  0  0  0  0  0  0  0  0  0  0  0
   29.6479   -7.9088  -29.5794 H   0  0  0  0  0  0  0  0  0  0  0  0
   28.6973   -7.8281  -27.4764 H   0  0  0  0  0  0  0  0  0  0  0  0
   29.0877   -8.5343  -25.8963 H   0  0  0  0  0  0  0  0  0  0  0  0
   30.9381   -7.3801  -25.9202 H   0  0  0  0  0  0  0  0  0  0  0  0
  1  2  1  0
  2  3  2  0
  2  4  1  0
  4  5  2  0
  4  9  1  0
  5  6  1  0
  6  7  2  0
  7  8  1  0
  7 10  1  0
  8 13  2  0
  9 10  2  0
 10 11  1  0
 11 12  1  0
 11 13  1  0
 13 14  1  0
 14 15  1  0
 16 15  1  0
 16 17  1  0
 16 21  1  0
 17 18  2  0
 18 19  1  0
 19 20  1  0
 20 21  1  0
 20 23  1  0
 21 22  1  0
 23 24  1  0
  5 25  1  0
  6 26  1  0
  9 27  1  0
 12 28  1  0
 12 29  1  0
 12 30  1  0
 14 31  1  0
 14 32  1  0
 16 33  1  1
 17 34  1  0
 18 35  1  0
 20 36  1  1
 21 37  1  1
 22 38  1  0
 23 39  1  0
 23 40  1  0
 24 41  1  0
M  CHG  1   1  -1
M  END
>  <filename_input>  (16) 
7P1M_4IU_docked.sdf

>  <pdb_id>  (16) 
7P1M_4IU

>  <pose_rank>  (16) 
15

>  <num_atoms_heavy>  (16) 
24

>  <num_torsions>  (16) 
5

>  <pose>  (16) 
[35.45344843051358, -13.635434184132722, -26.116108240362706, 0.9553680037104681, -1.1736427053628513, -0.028545790641894015, 1.0874028418062862, -0.24481014731806439, 2.515866490688472, 0.16296695191010696, 2.210527892556011]

>  <energy>  (16) 
-145.36910155584235

>  <inter_energy>  (16) 
-167.9619586602732

>  <intra_energy>  (16) 
28.00181079901236

>  <rmsd>  (16) 
8.19173

>  <sdf_rank>  (16) 
0

$$$$

     RDKit          3D

 41 43  0  0  0  0  0  0  0  0999 V2000
   34.8898  -12.9570  -27.1787 O   0  0  0  0  0  0  0  0  0  0  0  0
   35.8388  -12.8386  -26.4110 C   0  0  0  0  0  0  0  0  0  0  0  0
   35.7318  -13.1638  -25.1221 O   0  0  0  0  0  0  0  0  0  0  0  0
   37.1400  -12.2305  -26.8050 C   0  0  0  0  0  0  0  0  0  0  0  0
   38.0287  -13.0040  -27.5119 C   0  0  0  0  0  0  0  0  0  0  0  0
   39.2413  -12.4868  -27.9126 C   0  0  0  0  0  0  0  0  0  0  0  0
   39.5904  -11.1840  -27.6950 C   0  0  0  0  0  0  0  0  0  0  0  0
   40.6685  -10.4082  -27.9948 N   0  0  0  0  0  0  0  0  0  0  0  0
   37.4474  -10.8836  -26.5028 C   0  0  0  0  0  0  0  0  0  0  0  0
   38.6554  -10.3409  -26.9473 C   0  0  0  0  0  0  0  0  0  0  0  0
   39.2178   -9.1460  -26.8586 N   0  0  0  0  0  0  0  0  0  0  0  0
   38.5717   -8.0395  -26.1341 C   0  0  0  0  0  0  0  0  0  0  0  0
   40.4279   -9.1686  -27.4488 C   0  0  0  0  0  0  0  0  0  0  0  0
   41.3405   -8.0005  -27.5066 C   0  0  0  0  0  0  0  0  0  0  0  0
   42.4976   -8.1848  -26.7206 O   0  0  0  0  0  0  0  0  0  0  0  0
   43.5929   -7.4622  -27.3190 C   0  0  2  0  0  0  0  0  0  0  0  0
   43.2336   -7.1749  -28.7512 C   0  0  0  0  0  0  0  0  0  0  0  0
   44.1031   -7.2101  -29.7185 C   0  0  0  0  0  0  0  0  0  0  0  0
   45.4884   -7.5583  -29.4940 O   0  0  0  0  0  0  0  0  0  0  0  0
   45.9265   -7.7450  -28.0969 C   0  0  1  0  0  0  0  0  0  0  0  0
   44.7762   -8.3633  -27.2718 C   0  0  2  0  0  0  0  0  0  0  0  0
   44.2548   -9.6486  -27.7212 O   0  0  0  0  0  0  0  0  0  0  0  0
   47.1729   -8.5901  -28.0466 C   0  0  0  0  0  0  0  0  0  0  0  0
   47.1563   -9.4162  -29.2377 O   0  0  0  0  0  0  0  0  0  0  0  0
   37.7702  -14.0441  -27.7598 H   0  0  0  0  0  0  0  0  0  0  0  0
   39.9549  -13.1474  -28.4268 H   0  0  0  0  0  0  0  0  0  0  0  0
   36.7423  -10.2693  -25.9235 H   0  0  0  0  0  0  0  0  0  0  0  0
   38.6681   -8.2047  -25.0508 H   0  0  0  0  0  0  0  0  0  0  0  0
   39.0576   -7.0906  -26.4050 H   0  0  0  0  0  0  0  0  0  0  0  0
   37.5064   -7.9964  -26.4050 H   0  0  0  0  0  0  0  0  0  0  0  0
   41.6445   -7.8407  -28.5516 H   0  0  0  0  0  0  0  0  0  0  0  0
   40.7984   -7.1303  -27.1081 H   0  0  0  0  0  0  0  0  0  0  0  0
   43.8027   -6.5168  -26.7972 H   0  0  0  0  0  0  0  0  0  0  0  0
   42.1898   -6.9241  -28.9913 H   0  0  0  0  0  0  0  0  0  0  0  0
   43.7738   -6.9671  -30.7396 H   0  0  0  0  0  0  0  0  0  0  0  0
   46.1768   -6.7697  -27.6541 H   0  0  0  0  0  0  0  0  0  0  0  0
   45.2378   -8.5038  -26.2832 H   0  0  0  0  0  0  0  0  0  0  0  0
   44.0286  -10.2061  -26.9350 H   0  0  0  0  0  0  0  0  0  0  0  0
   48.0669   -7.9493  -28.0406 H   0  0  0  0  0  0  0  0  0  0  0  0
   47.2007   -9.2054  -27.1352 H   0  0  0  0  0  0  0  0  0  0  0  0
   47.1370  -10.3711  -28.9768 H   0  0  0  0  0  0  0  0  0  0  0  0
  1  2  1  0
  2  3  2  0
  2  4  1  0
  4  5  2  0
  4  9  1  0
  5  6  1  0
  6  7  2  0
  7  8  1  0
  7 10  1  0
  8 13  2  0
  9 10  2  0
 10 11  1  0
 11 12  1  0
 11 13  1  0
 13 14  1  0
 14 15  1  0
 16 15  1  0
 16 17  1  0
 16 21  1  0
 17 18  2  0
 18 19  1  0
 19 20  1  0
 20 21  1  0
 20 23  1  0
 21 22  1  0
 23 24  1  0
  5 25  1  0
  6 26  1  0
  9 27  1  0
 12 28  1  0
 12 29  1  0
 12 30  1  0
 14 31  1  0
 14 32  1  0
 16 33  1  1
 17 34  1  0
 18 35  1  0
 20 36  1  1
 21 37  1  1
 22 38  1  0
 23 39  1  0
 23 40  1  0
 24 41  1  0
M  CHG  1   1  -1
M  END
>  <filename_input>  (17) 
7P1M_4IU_docked.sdf

>  <pdb_id>  (17) 
7P1M_4IU

>  <pose_rank>  (17) 
16

>  <num_atoms_heavy>  (17) 
24

>  <num_torsions>  (17) 
5

>  <pose>  (17) 
[37.1400262775547, -12.23046458008146, -26.804955244356798, -1.2319088326254992, 2.291096376605693, -1.191921468206525, -1.5934804975447374, 3.1758217123263854, -0.6226577790883994, 1.371021217110672, -1.6589117722458677]

>  <energy>  (17) 
-395.8197166379803

>  <inter_energy>  (17) 
-390.86327883066804

>  <intra_energy>  (17) 
3.5564707449131285

>  <rmsd>  (17) 
8.69123

>  <sdf_rank>  (17) 
0

$$$$

     RDKit          3D

 41 43  0  0  0  0  0  0  0  0999 V2000
   38.9500  -11.8061  -27.0807 O   0  0  0  0  0  0  0  0  0  0  0  0
   38.8692  -10.5906  -27.2216 C   0  0  0  0  0  0  0  0  0  0  0  0
   37.8364   -9.9036  -26.7318 O   0  0  0  0  0  0  0  0  0  0  0  0
   39.8341   -9.7938  -28.0294 C   0  0  0  0  0  0  0  0  0  0  0  0
   39.5004   -9.4965  -29.3287 C   0  0  0  0  0  0  0  0  0  0  0  0
   40.3508   -8.7513  -30.1161 C   0  0  0  0  0  0  0  0  0  0  0  0
   41.5148   -8.2193  -29.6380 C   0  0  0  0  0  0  0  0  0  0  0  0
   42.5058   -7.4404  -30.1530 N   0  0  0  0  0  0  0  0  0  0  0  0
   41.0436   -9.3153  -27.4745 C   0  0  0  0  0  0  0  0  0  0  0  0
   41.8870   -8.5203  -28.2542 C   0  0  0  0  0  0  0  0  0  0  0  0
   43.0417   -7.9110  -28.0363 N   0  0  0  0  0  0  0  0  0  0  0  0
   43.7434   -8.0228  -26.7472 C   0  0  0  0  0  0  0  0  0  0  0  0
   43.4444   -7.2860  -29.1590 C   0  0  0  0  0  0  0  0  0  0  0  0
   44.7140   -6.5270  -29.2716 C   0  0  0  0  0  0  0  0  0  0  0  0
   45.7446   -7.2903  -29.8597 O   0  0  0  0  0  0  0  0  0  0  0  0
   46.7149   -7.6295  -28.8481 C   0  0  2  0  0  0  0  0  0  0  0  0
   48.0692   -7.1953  -29.3382 C   0  0  0  0  0  0  0  0  0  0  0  0
   49.1530   -7.8810  -29.1193 C   0  0  0  0  0  0  0  0  0  0  0  0
   49.1356   -9.1386  -28.4058 O   0  0  0  0  0  0  0  0  0  0  0  0
   47.8557   -9.5645  -27.8064 C   0  0  1  0  0  0  0  0  0  0  0  0
   46.6857   -9.1106  -28.7071 C   0  0  2  0  0  0  0  0  0  0  0  0
   46.6832   -9.5926  -30.0832 O   0  0  0  0  0  0  0  0  0  0  0  0
   47.8504  -11.0548  -27.5850 C   0  0  0  0  0  0  0  0  0  0  0  0
   49.0090  -11.5769  -28.2827 O   0  0  0  0  0  0  0  0  0  0  0  0
   38.5471   -9.8562  -29.7435 H   0  0  0  0  0  0  0  0  0  0  0  0
   40.0826   -8.5783  -31.1688 H   0  0  0  0  0  0  0  0  0  0  0  0
   41.3175   -9.5665  -26.4392 H   0  0  0  0  0  0  0  0  0  0  0  0
   43.0213   -7.9077  -25.9255 H   0  0  0  0  0  0  0  0  0  0  0  0
   44.2253   -9.0091  -26.6764 H   0  0  0  0  0  0  0  0  0  0  0  0
   44.5080   -7.2352  -26.6764 H   0  0  0  0  0  0  0  0  0  0  0  0
   44.5385   -5.6341  -29.8896 H   0  0  0  0  0  0  0  0  0  0  0  0
   45.0348   -6.2557  -28.2550 H   0  0  0  0  0  0  0  0  0  0  0  0
   46.5003   -7.1427  -27.8853 H   0  0  0  0  0  0  0  0  0  0  0  0
   48.1466   -6.2568  -29.9068 H   0  0  0  0  0  0  0  0  0  0  0  0
   50.1132   -7.4917  -29.4887 H   0  0  0  0  0  0  0  0  0  0  0  0
   47.7316   -9.0891  -26.8222 H   0  0  0  0  0  0  0  0  0  0  0  0
   45.8089   -9.5300  -28.1921 H   0  0  0  0  0  0  0  0  0  0  0  0
   46.6781  -10.5826  -30.0861 H   0  0  0  0  0  0  0  0  0  0  0  0
   47.9201  -11.2799  -26.5105 H   0  0  0  0  0  0  0  0  0  0  0  0
   46.9214  -11.5100  -27.9589 H   0  0  0  0  0  0  0  0  0  0  0  0
   49.6822  -11.8803  -27.6233 H   0  0  0  0  0  0  0  0  0  0  0  0
  1  2  1  0
  2  3  2  0
  2  4  1  0
  4  5  2  0
  4  9  1  0
  5  6  1  0
  6  7  2  0
  7  8  1  0
  7 10  1  0
  8 13  2  0
  9 10  2  0
 10 11  1  0
 11 12  1  0
 11 13  1  0
 13 14  1  0
 14 15  1  0
 16 15  1  0
 16 17  1  0
 16 21  1  0
 17 18  2  0
 18 19  1  0
 19 20  1  0
 20 21  1  0
 20 23  1  0
 21 22  1  0
 23 24  1  0
  5 25  1  0
  6 26  1  0
  9 27  1  0
 12 28  1  0
 12 29  1  0
 12 30  1  0
 14 31  1  0
 14 32  1  0
 16 33  1  1
 17 34  1  0
 18 35  1  0
 20 36  1  1
 21 37  1  1
 22 38  1  0
 23 39  1  0
 23 40  1  0
 24 41  1  0
M  CHG  1   1  -1
M  END
>  <filename_input>  (18) 
7P1M_4IU_docked.sdf

>  <pdb_id>  (18) 
7P1M_4IU

>  <pose_rank>  (18) 
17

>  <num_atoms_heavy>  (18) 
24

>  <num_torsions>  (18) 
5

>  <pose>  (18) 
[39.83406073821528, -9.793848268320643, -28.02942923288444, -0.9922807807935019, 3.1330173644912365, 0.6833990441322304, 1.4725141237201949, -3.3502678889389164, 1.1553533026851912, -0.515173969451512, -1.3939928399085637]

>  <energy>  (18) 
-392.4270088186615

>  <inter_energy>  (18) 
-359.89346693103073

>  <intra_energy>  (18) 
0.9769289040281552

>  <rmsd>  (18) 
9.6994

>  <sdf_rank>  (18) 
0

$$$$

     RDKit          3D

 41 43  0  0  0  0  0  0  0  0999 V2000
   41.6571   -8.9352  -34.5470 O   0  0  0  0  0  0  0  0  0  0  0  0
   40.8607   -9.8176  -34.2455 C   0  0  0  0  0  0  0  0  0  0  0  0
   41.0279  -11.0734  -34.6618 O   0  0  0  0  0  0  0  0  0  0  0  0
   39.5990   -9.5612  -33.4966 C   0  0  0  0  0  0  0  0  0  0  0  0
   38.5015   -9.1336  -34.2041 C   0  0  0  0  0  0  0  0  0  0  0  0
   37.3058   -8.8942  -33.5626 C   0  0  0  0  0  0  0  0  0  0  0  0
   37.1296   -9.1305  -32.2286 C   0  0  0  0  0  0  0  0  0  0  0  0
   36.0895   -9.0238  -31.3563 N   0  0  0  0  0  0  0  0  0  0  0  0
   39.5080   -9.7874  -32.1036 C   0  0  0  0  0  0  0  0  0  0  0  0
   38.2856   -9.5910  -31.4568 C   0  0  0  0  0  0  0  0  0  0  0  0
   37.8693   -9.7331  -30.2083 N   0  0  0  0  0  0  0  0  0  0  0  0
   38.7820  -10.1529  -29.1324 C   0  0  0  0  0  0  0  0  0  0  0  0
   36.5746   -9.3745  -30.1175 C   0  0  0  0  0  0  0  0  0  0  0  0
   35.8007   -9.3879  -28.8520 C   0  0  0  0  0  0  0  0  0  0  0  0
   34.4094   -9.3112  -29.0736 O   0  0  0  0  0  0  0  0  0  0  0  0
   33.7736   -8.7796  -27.8934 C   0  0  2  0  0  0  0  0  0  0  0  0
   32.2856   -8.8124  -28.1118 C   0  0  0  0  0  0  0  0  0  0  0  0
   31.4884   -7.8757  -27.6873 C   0  0  0  0  0  0  0  0  0  0  0  0
   31.9784   -6.7069  -26.9912 O   0  0  0  0  0  0  0  0  0  0  0  0
   33.4142   -6.6681  -26.6512 C   0  0  1  0  0  0  0  0  0  0  0  0
   34.2283   -7.3689  -27.7613 C   0  0  2  0  0  0  0  0  0  0  0  0
   34.1045   -6.8339  -29.1120 O   0  0  0  0  0  0  0  0  0  0  0  0
   33.8639   -5.2463  -26.4356 C   0  0  0  0  0  0  0  0  0  0  0  0
   32.7803   -4.5739  -25.7463 O   0  0  0  0  0  0  0  0  0  0  0  0
   38.5780   -8.9813  -35.2908 H   0  0  0  0  0  0  0  0  0  0  0  0
   36.4617   -8.4981  -34.1462 H   0  0  0  0  0  0  0  0  0  0  0  0
   40.3910  -10.1148  -31.5351 H   0  0  0  0  0  0  0  0  0  0  0  0
   38.3207   -9.9407  -28.1566 H   0  0  0  0  0  0  0  0  0  0  0  0
   38.9784  -11.2318  -29.2183 H   0  0  0  0  0  0  0  0  0  0  0  0
   39.7290   -9.5999  -29.2183 H   0  0  0  0  0  0  0  0  0  0  0  0
   36.0219  -10.3205  -28.3122 H   0  0  0  0  0  0  0  0  0  0  0  0
   36.0973   -8.5047  -28.2672 H   0  0  0  0  0  0  0  0  0  0  0  0
   34.0241   -9.3553  -26.9902 H   0  0  0  0  0  0  0  0  0  0  0  0
   31.8524   -9.6657  -28.6542 H   0  0  0  0  0  0  0  0  0  0  0  0
   30.4073   -7.9763  -27.8636 H   0  0  0  0  0  0  0  0  0  0  0  0
   33.5863   -7.2099  -25.7095 H   0  0  0  0  0  0  0  0  0  0  0  0
   35.2660   -7.2248  -27.4260 H   0  0  0  0  0  0  0  0  0  0  0  0
   33.8814   -5.8704  -29.0661 H   0  0  0  0  0  0  0  0  0  0  0  0
   34.7765   -5.2250  -25.8217 H   0  0  0  0  0  0  0  0  0  0  0  0
   34.0960   -4.7525  -27.3907 H   0  0  0  0  0  0  0  0  0  0  0  0
   32.9108   -4.6548  -24.7682 H   0  0  0  0  0  0  0  0  0  0  0  0
  1  2  1  0
  2  3  2  0
  2  4  1  0
  4  5  2  0
  4  9  1  0
  5  6  1  0
  6  7  2  0
  7  8  1  0
  7 10  1  0
  8 13  2  0
  9 10  2  0
 10 11  1  0
 11 12  1  0
 11 13  1  0
 13 14  1  0
 14 15  1  0
 16 15  1  0
 16 17  1  0
 16 21  1  0
 17 18  2  0
 18 19  1  0
 19 20  1  0
 20 21  1  0
 20 23  1  0
 21 22  1  0
 23 24  1  0
  5 25  1  0
  6 26  1  0
  9 27  1  0
 12 28  1  0
 12 29  1  0
 12 30  1  0
 14 31  1  0
 14 32  1  0
 16 33  1  1
 17 34  1  0
 18 35  1  0
 20 36  1  1
 21 37  1  1
 22 38  1  0
 23 39  1  0
 23 40  1  0
 24 41  1  0
M  CHG  1   1  -1
M  END
>  <filename_input>  (19) 
7P1M_4IU_docked.sdf

>  <pdb_id>  (19) 
7P1M_4IU

>  <pose_rank>  (19) 
18

>  <num_atoms_heavy>  (19) 
24

>  <num_torsions>  (19) 
5

>  <pose>  (19) 
[39.59901289313437, -9.561176702962623, -33.4965972750681, 2.9576777739735687, -0.024196496059853866, -1.5599439877363888, 1.239929597872777, 10.922123791866069, -5.961723705294732, 11.198901896767444, -0.531334899649557]

>  <energy>  (19) 
-371.36996207873074

>  <inter_energy>  (19) 
-385.4971846486893

>  <intra_energy>  (19) 
8.203900899051893

>  <rmsd>  (19) 
5.26616

>  <sdf_rank>  (19) 
0

$$$$

     RDKit          3D

 41 43  0  0  0  0  0  0  0  0999 V2000
   35.5749   -9.6057  -31.1460 O   0  0  0  0  0  0  0  0  0  0  0  0
   35.3702   -9.1717  -30.0174 C   0  0  0  0  0  0  0  0  0  0  0  0
   34.1439   -8.8327  -29.6176 O   0  0  0  0  0  0  0  0  0  0  0  0
   36.4575   -8.8814  -29.0419 C   0  0  0  0  0  0  0  0  0  0  0  0
   36.1031   -8.5626  -27.7532 C   0  0  0  0  0  0  0  0  0  0  0  0
   37.0696   -8.2979  -26.8074 C   0  0  0  0  0  0  0  0  0  0  0  0
   38.4051   -8.4038  -27.0746 C   0  0  0  0  0  0  0  0  0  0  0  0
   39.5511   -8.2429  -26.3571 N   0  0  0  0  0  0  0  0  0  0  0  0
   37.8207   -8.9686  -29.4078 C   0  0  0  0  0  0  0  0  0  0  0  0
   38.8043   -8.7469  -28.4410 C   0  0  0  0  0  0  0  0  0  0  0  0
   40.1277   -8.7755  -28.4481 N   0  0  0  0  0  0  0  0  0  0  0  0
   40.8881   -9.0552  -29.6771 C   0  0  0  0  0  0  0  0  0  0  0  0
   40.5956   -8.4510  -27.2279 C   0  0  0  0  0  0  0  0  0  0  0  0
   42.0381   -8.3613  -26.8936 C   0  0  0  0  0  0  0  0  0  0  0  0
   42.8496   -9.0241  -27.8385 O   0  0  0  0  0  0  0  0  0  0  0  0
   44.1740   -8.4543  -27.8035 C   0  0  2  0  0  0  0  0  0  0  0  0
   44.1453   -7.1626  -28.5738 C   0  0  0  0  0  0  0  0  0  0  0  0
   45.1312   -6.7654  -29.3242 C   0  0  0  0  0  0  0  0  0  0  0  0
   46.3298   -7.5550  -29.4994 O   0  0  0  0  0  0  0  0  0  0  0  0
   46.4643   -8.7795  -28.6863 C   0  0  1  0  0  0  0  0  0  0  0  0
   45.0745   -9.4230  -28.4855 C   0  0  2  0  0  0  0  0  0  0  0  0
   44.3383   -9.7983  -29.6868 O   0  0  0  0  0  0  0  0  0  0  0  0
   47.4382   -9.7321  -29.3298 C   0  0  0  0  0  0  0  0  0  0  0  0
   47.3140  -10.9885  -28.6174 O   0  0  0  0  0  0  0  0  0  0  0  0
   35.0400   -8.5184  -27.4744 H   0  0  0  0  0  0  0  0  0  0  0  0
   36.7540   -7.9899  -25.7996 H   0  0  0  0  0  0  0  0  0  0  0  0
   38.1037   -9.2086  -30.4433 H   0  0  0  0  0  0  0  0  0  0  0  0
   41.8901   -9.4237  -29.4124 H   0  0  0  0  0  0  0  0  0  0  0  0
   40.3611   -9.8183  -30.2686 H   0  0  0  0  0  0  0  0  0  0  0  0
   40.9812   -8.1324  -30.2686 H   0  0  0  0  0  0  0  0  0  0  0  0
   42.3281   -7.3007  -26.8605 H   0  0  0  0  0  0  0  0  0  0  0  0
   42.1886   -8.8498  -25.9196 H   0  0  0  0  0  0  0  0  0  0  0  0
   44.5171   -8.2608  -26.7764 H   0  0  0  0  0  0  0  0  0  0  0  0
   43.2514   -6.5258  -28.4995 H   0  0  0  0  0  0  0  0  0  0  0  0
   45.0504   -5.7982  -29.8418 H   0  0  0  0  0  0  0  0  0  0  0  0
   46.8669   -8.5232  -27.6952 H   0  0  0  0  0  0  0  0  0  0  0  0
   45.3122  -10.3392  -27.9251 H   0  0  0  0  0  0  0  0  0  0  0  0
   43.4866  -10.2325  -29.4297 H   0  0  0  0  0  0  0  0  0  0  0  0
   47.1888   -9.8710  -30.3921 H   0  0  0  0  0  0  0  0  0  0  0  0
   48.4667   -9.3453  -29.2792 H   0  0  0  0  0  0  0  0  0  0  0  0
   47.3308  -10.8180  -27.6423 H   0  0  0  0  0  0  0  0  0  0  0  0
  1  2  1  0
  2  3  2  0
  2  4  1  0
  4  5  2  0
  4  9  1  0
  5  6  1  0
  6  7  2  0
  7  8  1  0
  7 10  1  0
  8 13  2  0
  9 10  2  0
 10 11  1  0
 11 12  1  0
 11 13  1  0
 13 14  1  0
 14 15  1  0
 16 15  1  0
 16 17  1  0
 16 21  1  0
 17 18  2  0
 18 19  1  0
 19 20  1  0
 20 21  1  0
 20 23  1  0
 21 22  1  0
 23 24  1  0
  5 25  1  0
  6 26  1  0
  9 27  1  0
 12 28  1  0
 12 29  1  0
 12 30  1  0
 14 31  1  0
 14 32  1  0
 16 33  1  1
 17 34  1  0
 18 35  1  0
 20 36  1  1
 21 37  1  1
 22 38  1  0
 23 39  1  0
 23 40  1  0
 24 41  1  0
M  CHG  1   1  -1
M  END
>  <filename_input>  (20) 
7P1M_4IU_docked.sdf

>  <pdb_id>  (20) 
7P1M_4IU

>  <pose_rank>  (20) 
19

>  <num_atoms_heavy>  (20) 
24

>  <num_torsions>  (20) 
5

>  <pose>  (20) 
[36.457487318397106, -8.881354603200968, -29.04186642606699, 0.4414225967905063, -0.15678702930715374, -3.137054447035231, 3.0777196827905784, -5.366393702767561, -6.794774573985941, 0.3170952260013954, 2.1256594664327038]

>  <energy>  (20) 
-332.4047520966041

>  <inter_energy>  (20) 
-352.93118481207273

>  <intra_energy>  (20) 
25.07920928229104

>  <rmsd>  (20) 
8.85466

>  <sdf_rank>  (20) 
0

$$$$

     RDKit          3D

 41 43  0  0  0  0  0  0  0  0999 V2000
   37.6569   -8.6853  -27.0764 O   0  0  0  0  0  0  0  0  0  0  0  0
   38.4906   -9.0583  -27.8947 C   0  0  0  0  0  0  0  0  0  0  0  0
   38.1536   -9.8451  -28.9174 O   0  0  0  0  0  0  0  0  0  0  0  0
   39.9465   -8.7700  -27.7703 C   0  0  0  0  0  0  0  0  0  0  0  0
   40.5586   -9.0342  -26.5689 C   0  0  0  0  0  0  0  0  0  0  0  0
   41.9061   -8.7983  -26.4038 C   0  0  0  0  0  0  0  0  0  0  0  0
   42.7046   -8.3643  -27.4239 C   0  0  0  0  0  0  0  0  0  0  0  0
   44.0299   -8.0851  -27.5633 N   0  0  0  0  0  0  0  0  0  0  0  0
   40.6979   -8.2775  -28.8625 C   0  0  0  0  0  0  0  0  0  0  0  0
   42.0729   -8.0810  -28.7141 C   0  0  0  0  0  0  0  0  0  0  0  0
   43.0382   -7.6695  -29.5210 N   0  0  0  0  0  0  0  0  0  0  0  0
   42.7636   -7.2574  -30.9071 C   0  0  0  0  0  0  0  0  0  0  0  0
   44.2061   -7.6359  -28.8517 C   0  0  0  0  0  0  0  0  0  0  0  0
   45.4891   -7.1945  -29.4513 C   0  0  0  0  0  0  0  0  0  0  0  0
   46.6073   -7.6575  -28.7261 O   0  0  0  0  0  0  0  0  0  0  0  0
   47.7722   -7.6081  -29.5749 C   0  0  2  0  0  0  0  0  0  0  0  0
   47.3144   -7.3080  -30.9761 C   0  0  0  0  0  0  0  0  0  0  0  0
   47.8631   -7.8419  -32.0281 C   0  0  0  0  0  0  0  0  0  0  0  0
   48.9464   -8.7946  -31.9299 O   0  0  0  0  0  0  0  0  0  0  0  0
   49.5118   -9.0481  -30.5902 C   0  0  1  0  0  0  0  0  0  0  0  0
   48.3914   -8.9604  -29.5303 C   0  0  2  0  0  0  0  0  0  0  0  0
   47.2607   -9.8679  -29.6848 O   0  0  0  0  0  0  0  0  0  0  0  0
   50.2121  -10.3818  -30.5602 C   0  0  0  0  0  0  0  0  0  0  0  0
   49.5752  -11.2019  -31.5719 O   0  0  0  0  0  0  0  0  0  0  0  0
   39.9685   -9.4371  -25.7326 H   0  0  0  0  0  0  0  0  0  0  0  0
   42.3556   -8.9656  -25.4139 H   0  0  0  0  0  0  0  0  0  0  0  0
   40.2045   -8.0516  -29.8194 H   0  0  0  0  0  0  0  0  0  0  0  0
   42.1538   -6.3419  -30.9035 H   0  0  0  0  0  0  0  0  0  0  0  0
   43.7134   -7.0631  -31.4269 H   0  0  0  0  0  0  0  0  0  0  0  0
   42.2185   -8.0591  -31.4269 H   0  0  0  0  0  0  0  0  0  0  0  0
   45.5501   -7.5803  -30.4796 H   0  0  0  0  0  0  0  0  0  0  0  0
   45.5082   -6.0948  -29.4327 H   0  0  0  0  0  0  0  0  0  0  0  0
   48.4906   -6.8403  -29.2518 H   0  0  0  0  0  0  0  0  0  0  0  0
   46.4791   -6.6064  -31.1174 H   0  0  0  0  0  0  0  0  0  0  0  0
   47.4911   -7.5594  -33.0240 H   0  0  0  0  0  0  0  0  0  0  0  0
   50.2638   -8.2806  -30.3546 H   0  0  0  0  0  0  0  0  0  0  0  0
   48.9189   -9.2202  -28.6007 H   0  0  0  0  0  0  0  0  0  0  0  0
   46.9276  -10.1352  -28.7917 H   0  0  0  0  0  0  0  0  0  0  0  0
   51.2804  -10.2557  -30.7900 H   0  0  0  0  0  0  0  0  0  0  0  0
   50.1401  -10.8475  -29.5663 H   0  0  0  0  0  0  0  0  0  0  0  0
   49.0308  -11.9030  -31.1336 H   0  0  0  0  0  0  0  0  0  0  0  0
  1  2  1  0
  2  3  2  0
  2  4  1  0
  4  5  2  0
  4  9  1  0
  5  6  1  0
  6  7  2  0
  7  8  1  0
  7 10  1  0
  8 13  2  0
  9 10  2  0
 10 11  1  0
 11 12  1  0
 11 13  1  0
 13 14  1  0
 14 15  1  0
 16 15  1  0
 16 17  1  0
 16 21  1  0
 17 18  2  0
 18 19  1  0
 19 20  1  0
 20 21  1  0
 20 23  1  0
 21 22  1  0
 23 24  1  0
  5 25  1  0
  6 26  1  0
  9 27  1  0
 12 28  1  0
 12 29  1  0
 12 30  1  0
 14 31  1  0
 14 32  1  0
 16 33  1  1
 17 34  1  0
 18 35  1  0
 20 36  1  1
 21 37  1  1
 22 38  1  0
 23 39  1  0
 23 40  1  0
 24 41  1  0
M  CHG  1   1  -1
M  END
>  <filename_input>  (21) 
7P1M_4IU_docked.sdf

>  <pdb_id>  (21) 
7P1M_4IU

>  <pose_rank>  (21) 
20

>  <num_atoms_heavy>  (21) 
24

>  <num_torsions>  (21) 
5

>  <pose>  (21) 
[39.946518826611715, -8.769967516183923, -27.770317118326666, -0.6688528780553387, 0.5493418962947144, -2.880286298189078, 0.6516462515767615, -1.5696065578212985, -0.43697089414854756, 1.527577277560822, -1.6702008034296405]

>  <energy>  (21) 
-344.79185373904824

>  <inter_energy>  (21) 
-344.19940950661777

>  <intra_energy>  (21) 
6.633106061911669

>  <rmsd>  (21) 
10.0645

>  <sdf_rank>  (21) 
0

$$$$

     RDKit          3D

 41 43  0  0  0  0  0  0  0  0999 V2000
   35.0703  -17.1354  -23.9173 O   0  0  0  0  0  0  0  0  0  0  0  0
   34.8129  -16.7512  -25.0530 C   0  0  0  0  0  0  0  0  0  0  0  0
   34.2431  -17.5614  -25.9459 O   0  0  0  0  0  0  0  0  0  0  0  0
   35.2020  -15.4104  -25.5719 C   0  0  0  0  0  0  0  0  0  0  0  0
   35.8726  -14.5588  -24.7275 C   0  0  0  0  0  0  0  0  0  0  0  0
   36.2674  -13.3118  -25.1607 C   0  0  0  0  0  0  0  0  0  0  0  0
   36.0802  -12.8893  -26.4464 C   0  0  0  0  0  0  0  0  0  0  0  0
   36.3835  -11.7627  -27.1483 N   0  0  0  0  0  0  0  0  0  0  0  0
   34.9321  -15.0281  -26.9064 C   0  0  0  0  0  0  0  0  0  0  0  0
   35.3715  -13.7836  -27.3640 C   0  0  0  0  0  0  0  0  0  0  0  0
   35.3066  -13.1525  -28.5258 N   0  0  0  0  0  0  0  0  0  0  0  0
   34.6236  -13.7425  -29.6886 C   0  0  0  0  0  0  0  0  0  0  0  0
   35.8759  -11.9373  -28.4151 C   0  0  0  0  0  0  0  0  0  0  0  0
   35.9509  -10.9563  -29.5252 C   0  0  0  0  0  0  0  0  0  0  0  0
   34.7076  -10.3405  -29.7814 O   0  0  0  0  0  0  0  0  0  0  0  0
   34.1698   -9.8330  -28.5432 C   0  0  2  0  0  0  0  0  0  0  0  0
   32.7084  -10.1860  -28.4914 C   0  0  0  0  0  0  0  0  0  0  0  0
   31.8069   -9.3915  -27.9925 C   0  0  0  0  0  0  0  0  0  0  0  0
   32.1389   -8.0847  -27.4701 O   0  0  0  0  0  0  0  0  0  0  0  0
   33.5682   -7.7242  -27.3937 C   0  0  1  0  0  0  0  0  0  0  0  0
   34.3254   -8.3537  -28.5838 C   0  0  2  0  0  0  0  0  0  0  0  0
   33.8744   -7.9915  -29.9223 O   0  0  0  0  0  0  0  0  0  0  0  0
   33.7299   -6.2267  -27.3521 C   0  0  0  0  0  0  0  0  0  0  0  0
   34.9015   -5.9635  -26.5399 O   0  0  0  0  0  0  0  0  0  0  0  0
   36.0960  -14.8750  -23.6978 H   0  0  0  0  0  0  0  0  0  0  0  0
   36.7514  -12.6312  -24.4448 H   0  0  0  0  0  0  0  0  0  0  0  0
   34.3817  -15.7040  -27.5774 H   0  0  0  0  0  0  0  0  0  0  0  0
   33.8335  -14.4250  -29.3424 H   0  0  0  0  0  0  0  0  0  0  0  0
   34.1763  -12.9420  -30.2962 H   0  0  0  0  0  0  0  0  0  0  0  0
   35.3506  -14.3013  -30.2962 H   0  0  0  0  0  0  0  0  0  0  0  0
   36.6829  -10.1787  -29.2612 H   0  0  0  0  0  0  0  0  0  0  0  0
   36.2509  -11.4989  -30.4338 H   0  0  0  0  0  0  0  0  0  0  0  0
   34.6798  -10.2539  -27.6641 H   0  0  0  0  0  0  0  0  0  0  0  0
   32.3879  -11.1587  -28.8929 H   0  0  0  0  0  0  0  0  0  0  0  0
   30.7588   -9.7245  -27.9672 H   0  0  0  0  0  0  0  0  0  0  0  0
   34.0015   -8.1239  -26.4650 H   0  0  0  0  0  0  0  0  0  0  0  0
   35.3477   -7.9712  -28.4480 H   0  0  0  0  0  0  0  0  0  0  0  0
   33.1043   -7.3730  -29.8550 H   0  0  0  0  0  0  0  0  0  0  0  0
   33.8749   -5.8315  -28.3683 H   0  0  0  0  0  0  0  0  0  0  0  0
   32.8367   -5.7409  -26.9324 H   0  0  0  0  0  0  0  0  0  0  0  0
   34.6580   -6.0182  -25.5819 H   0  0  0  0  0  0  0  0  0  0  0  0
  1  2  1  0
  2  3  2  0
  2  4  1  0
  4  5  2  0
  4  9  1  0
  5  6  1  0
  6  7  2  0
  7  8  1  0
  7 10  1  0
  8 13  2  0
  9 10  2  0
 10 11  1  0
 11 12  1  0
 11 13  1  0
 13 14  1  0
 14 15  1  0
 16 15  1  0
 16 17  1  0
 16 21  1  0
 17 18  2  0
 18 19  1  0
 19 20  1  0
 20 21  1  0
 20 23  1  0
 21 22  1  0
 23 24  1  0
  5 25  1  0
  6 26  1  0
  9 27  1  0
 12 28  1  0
 12 29  1  0
 12 30  1  0
 14 31  1  0
 14 32  1  0
 16 33  1  1
 17 34  1  0
 18 35  1  0
 20 36  1  1
 21 37  1  6
 22 38  1  0
 23 39  1  0
 23 40  1  0
 24 41  1  0
M  CHG  1   1  -1
M  END
>  <filename_input>  (22) 
7P1M_4IU_docked.sdf

>  <pdb_id>  (22) 
7P1M_4IU

>  <pose_rank>  (22) 
21

>  <num_atoms_heavy>  (22) 
24

>  <num_torsions>  (22) 
5

>  <pose>  (22) 
[35.202042965126445, -15.410383362046892, -25.5719234830853, -1.0944230146096676, -0.1973648216731157, -1.835049503207063, -0.21808704260746056, -3.7555761030648678, -2.346567581214016, -0.6784376825954989, 1.3694565615872607]

>  <energy>  (22) 
-237.3048629277695

>  <inter_energy>  (22) 
-239.3715889783907

>  <intra_energy>  (22) 
9.2599747888543

>  <rmsd>  (22) 
7.75727

>  <sdf_rank>  (22) 
0

$$$$

     RDKit          3D

 41 43  0  0  0  0  0  0  0  0999 V2000
   40.5099   -6.4004  -36.6494 O   0  0  0  0  0  0  0  0  0  0  0  0
   39.8195   -7.3891  -36.4264 C   0  0  0  0  0  0  0  0  0  0  0  0
   39.9239   -8.4895  -37.1726 O   0  0  0  0  0  0  0  0  0  0  0  0
   38.7433   -7.4214  -35.3972 C   0  0  0  0  0  0  0  0  0  0  0  0
   37.4928   -6.9774  -35.7537 C   0  0  0  0  0  0  0  0  0  0  0  0
   36.4580   -6.9978  -34.8442 C   0  0  0  0  0  0  0  0  0  0  0  0
   36.5972   -7.5142  -33.5870 C   0  0  0  0  0  0  0  0  0  0  0  0
   35.7729   -7.6939  -32.5183 N   0  0  0  0  0  0  0  0  0  0  0  0
   38.9780   -7.9309  -34.0990 C   0  0  0  0  0  0  0  0  0  0  0  0
   37.9208   -7.9969  -33.1884 C   0  0  0  0  0  0  0  0  0  0  0  0
   37.8019   -8.4295  -31.9430 N   0  0  0  0  0  0  0  0  0  0  0  0
   38.9540   -8.9591  -31.1955 C   0  0  0  0  0  0  0  0  0  0  0  0
   36.5411   -8.2336  -31.5126 C   0  0  0  0  0  0  0  0  0  0  0  0
   36.0704   -8.5814  -30.1495 C   0  0  0  0  0  0  0  0  0  0  0  0
   34.6907   -8.8749  -30.1174 O   0  0  0  0  0  0  0  0  0  0  0  0
   34.1964   -8.6666  -28.7787 C   0  0  2  0  0  0  0  0  0  0  0  0
   32.7933   -9.2050  -28.7119 C   0  0  0  0  0  0  0  0  0  0  0  0
   31.8485   -8.6317  -28.0252 C   0  0  0  0  0  0  0  0  0  0  0  0
   32.0688   -7.4066  -27.2893 O   0  0  0  0  0  0  0  0  0  0  0  0
   33.4492   -6.8877  -27.2271 C   0  0  1  0  0  0  0  0  0  0  0  0
   34.1785   -7.1958  -28.5534 C   0  0  2  0  0  0  0  0  0  0  0  0
   33.5865   -6.6624  -29.7745 O   0  0  0  0  0  0  0  0  0  0  0  0
   33.4416   -5.4130  -26.9181 C   0  0  0  0  0  0  0  0  0  0  0  0
   32.8201   -5.2702  -25.6162 O   0  0  0  0  0  0  0  0  0  0  0  0
   37.3165   -6.6029  -36.7729 H   0  0  0  0  0  0  0  0  0  0  0  0
   35.4836   -6.5829  -35.1413 H   0  0  0  0  0  0  0  0  0  0  0  0
   39.9829   -8.2718  -33.8093 H   0  0  0  0  0  0  0  0  0  0  0  0
   38.7624   -8.8710  -30.1159 H   0  0  0  0  0  0  0  0  0  0  0  0
   39.1052  -10.0171  -31.4560 H   0  0  0  0  0  0  0  0  0  0  0  0
   39.8554   -8.3849  -31.4560 H   0  0  0  0  0  0  0  0  0  0  0  0
   36.6275   -9.4620  -29.7970 H   0  0  0  0  0  0  0  0  0  0  0  0
   36.2440   -7.7099  -29.5012 H   0  0  0  0  0  0  0  0  0  0  0  0
   34.8178   -9.1685  -28.0225 H   0  0  0  0  0  0  0  0  0  0  0  0
   32.5557  -10.1239  -29.2680 H   0  0  0  0  0  0  0  0  0  0  0  0
   30.8505   -9.0936  -28.0037 H   0  0  0  0  0  0  0  0  0  0  0  0
   33.9961   -7.3874  -26.4140 H   0  0  0  0  0  0  0  0  0  0  0  0
   35.1579   -6.7173  -28.4062 H   0  0  0  0  0  0  0  0  0  0  0  0
   32.8718   -6.0185  -29.5408 H   0  0  0  0  0  0  0  0  0  0  0  0
   34.4704   -5.0244  -26.8931 H   0  0  0  0  0  0  0  0  0  0  0  0
   32.8930   -4.8477  -27.6858 H   0  0  0  0  0  0  0  0  0  0  0  0
   33.4956   -5.4254  -24.9093 H   0  0  0  0  0  0  0  0  0  0  0  0
  1  2  1  0
  2  3  2  0
  2  4  1  0
  4  5  2  0
  4  9  1  0
  5  6  1  0
  6  7  2  0
  7  8  1  0
  7 10  1  0
  8 13  2  0
  9 10  2  0
 10 11  1  0
 11 12  1  0
 11 13  1  0
 13 14  1  0
 14 15  1  0
 16 15  1  0
 16 17  1  0
 16 21  1  0
 17 18  2  0
 18 19  1  0
 19 20  1  0
 20 21  1  0
 20 23  1  0
 21 22  1  0
 23 24  1  0
  5 25  1  0
  6 26  1  0
  9 27  1  0
 12 28  1  0
 12 29  1  0
 12 30  1  0
 14 31  1  0
 14 32  1  0
 16 33  1  1
 17 34  1  0
 18 35  1  0
 20 36  1  1
 21 37  1  1
 22 38  1  0
 23 39  1  0
 23 40  1  0
 24 41  1  0
M  CHG  1   1  -1
M  END
>  <filename_input>  (23) 
7P1M_4IU_docked.sdf

>  <pdb_id>  (23) 
7P1M_4IU

>  <pose_rank>  (23) 
22

>  <num_atoms_heavy>  (23) 
24

>  <num_torsions>  (23) 
5

>  <pose>  (23) 
[38.74334881246916, -7.42138177033661, -35.39722537728369, 2.864431375060353, 0.23914617819391193, -1.9790764219291224, 1.2897418981214088, 11.133379270865966, -5.970428180200948, 11.285607498120374, -0.1270087394735521]

>  <energy>  (23) 
-328.4378506690613

>  <inter_energy>  (23) 
-317.29128864520317

>  <intra_energy>  (23) 
5.776507651078009

>  <rmsd>  (23) 
6.43706

>  <sdf_rank>  (23) 
0

$$$$

     RDKit          3D

 41 43  0  0  0  0  0  0  0  0999 V2000
   38.7390   -7.9679  -28.9527 O   0  0  0  0  0  0  0  0  0  0  0  0
   37.5916   -8.2384  -29.2905 C   0  0  0  0  0  0  0  0  0  0  0  0
   37.3312   -8.7966  -30.4734 O   0  0  0  0  0  0  0  0  0  0  0  0
   36.3934   -7.8784  -28.4825 C   0  0  0  0  0  0  0  0  0  0  0  0
   36.5903   -7.4082  -27.2065 C   0  0  0  0  0  0  0  0  0  0  0  0
   35.5173   -7.0483  -26.4206 C   0  0  0  0  0  0  0  0  0  0  0  0
   34.2311   -7.0721  -26.8806 C   0  0  0  0  0  0  0  0  0  0  0  0
   33.0126   -6.7530  -26.3635 N   0  0  0  0  0  0  0  0  0  0  0  0
   35.0871   -7.9733  -29.0158 C   0  0  0  0  0  0  0  0  0  0  0  0
   33.9996   -7.5656  -28.2396 C   0  0  0  0  0  0  0  0  0  0  0  0
   32.6931   -7.5032  -28.4428 N   0  0  0  0  0  0  0  0  0  0  0  0
   32.0846   -7.9576  -29.7037 C   0  0  0  0  0  0  0  0  0  0  0  0
   32.0817   -7.0503  -27.3319 C   0  0  0  0  0  0  0  0  0  0  0  0
   30.6130   -6.8841  -27.2070 C   0  0  0  0  0  0  0  0  0  0  0  0
   30.0200   -7.9124  -26.4444 O   0  0  0  0  0  0  0  0  0  0  0  0
   29.9329   -9.1054  -27.2501 C   0  0  2  0  0  0  0  0  0  0  0  0
   28.7188   -8.9849  -28.1300 C   0  0  0  0  0  0  0  0  0  0  0  0
   27.9526   -9.9960  -28.4190 C   0  0  0  0  0  0  0  0  0  0  0  0
   28.1948  -11.3196  -27.8896 O   0  0  0  0  0  0  0  0  0  0  0  0
   29.4302  -11.5257  -27.1085 C   0  0  1  0  0  0  0  0  0  0  0  0
   29.7572  -10.2449  -26.3093 C   0  0  2  0  0  0  0  0  0  0  0  0
   28.7449   -9.7718  -25.3726 O   0  0  0  0  0  0  0  0  0  0  0  0
   29.2892  -12.7283  -26.2118 C   0  0  0  0  0  0  0  0  0  0  0  0
   28.2647  -13.5645  -26.8057 O   0  0  0  0  0  0  0  0  0  0  0  0
   37.6122   -7.3184  -26.8094 H   0  0  0  0  0  0  0  0  0  0  0  0
   35.7032   -6.7299  -25.3842 H   0  0  0  0  0  0  0  0  0  0  0  0
   34.9289   -8.3644  -30.0317 H   0  0  0  0  0  0  0  0  0  0  0  0
   31.2212   -8.6024  -29.4827 H   0  0  0  0  0  0  0  0  0  0  0  0
   31.7515   -7.0854  -30.2854 H   0  0  0  0  0  0  0  0  0  0  0  0
   32.8263   -8.5247  -30.2854 H   0  0  0  0  0  0  0  0  0  0  0  0
   30.4063   -5.9192  -26.7209 H   0  0  0  0  0  0  0  0  0  0  0  0
   30.1828   -6.9249  -28.2186 H   0  0  0  0  0  0  0  0  0  0  0  0
   30.8258   -9.2516  -27.8757 H   0  0  0  0  0  0  0  0  0  0  0  0
   28.4678   -7.9987  -28.5475 H   0  0  0  0  0  0  0  0  0  0  0  0
   27.0932   -9.8389  -29.0874 H   0  0  0  0  0  0  0  0  0  0  0  0
   30.2701  -11.7251  -27.7902 H   0  0  0  0  0  0  0  0  0  0  0  0
   30.6482  -10.5401  -25.7357 H   0  0  0  0  0  0  0  0  0  0  0  0
   29.0590   -9.9186  -24.4453 H   0  0  0  0  0  0  0  0  0  0  0  0
   30.2419  -13.2753  -26.1565 H   0  0  0  0  0  0  0  0  0  0  0  0
   29.0178  -12.4322  -25.1877 H   0  0  0  0  0  0  0  0  0  0  0  0
   27.7353  -13.9966  -26.0894 H   0  0  0  0  0  0  0  0  0  0  0  0
  1  2  1  0
  2  3  2  0
  2  4  1  0
  4  5  2  0
  4  9  1  0
  5  6  1  0
  6  7  2  0
  7  8  1  0
  7 10  1  0
  8 13  2  0
  9 10  2  0
 10 11  1  0
 11 12  1  0
 11 13  1  0
 13 14  1  0
 14 15  1  0
 16 15  1  0
 16 17  1  0
 16 21  1  0
 17 18  2  0
 18 19  1  0
 19 20  1  0
 20 21  1  0
 20 23  1  0
 21 22  1  0
 23 24  1  0
  5 25  1  0
  6 26  1  0
  9 27  1  0
 12 28  1  0
 12 29  1  0
 12 30  1  0
 14 31  1  0
 14 32  1  0
 16 33  1  6
 17 34  1  0
 18 35  1  0
 20 36  1  6
 21 37  1  1
 22 38  1  0
 23 39  1  0
 23 40  1  0
 24 41  1  0
M  CHG  1   1  -1
M  END
>  <filename_input>  (24) 
7P1M_4IU_docked.sdf

>  <pdb_id>  (24) 
7P1M_4IU

>  <pose_rank>  (24) 
23

>  <num_atoms_heavy>  (24) 
24

>  <num_torsions>  (24) 
5

>  <pose>  (24) 
[36.39340597821477, -7.878354593374508, -28.482453100955986, 5.22583721502561, -1.4165133797185046, 1.9066633421157886, -0.38853070763149733, -3.2486316219522124, 7.997765358288081, 0.27637272054626427, -0.7971661033648589]

>  <energy>  (24) 
-374.0658909460522

>  <inter_energy>  (24) 
-339.28093090248217

>  <intra_energy>  (24) 
6.053293974499086

>  <rmsd>  (24) 
7.6473

>  <sdf_rank>  (24) 
0

$$$$

     RDKit          3D

 41 43  0  0  0  0  0  0  0  0999 V2000
   42.1953   -9.9717  -29.8200 O   0  0  0  0  0  0  0  0  0  0  0  0
   41.3523   -9.0812  -29.8173 C   0  0  0  0  0  0  0  0  0  0  0  0
   41.5910   -7.8997  -30.3879 O   0  0  0  0  0  0  0  0  0  0  0  0
   40.0522   -9.1862  -29.0982 C   0  0  0  0  0  0  0  0  0  0  0  0
   40.0774   -9.3204  -27.7310 C   0  0  0  0  0  0  0  0  0  0  0  0
   38.9033   -9.4085  -27.0152 C   0  0  0  0  0  0  0  0  0  0  0  0
   37.6757   -9.2995  -27.6046 C   0  0  0  0  0  0  0  0  0  0  0  0
   36.3870   -9.3132  -27.1653 N   0  0  0  0  0  0  0  0  0  0  0  0
   38.8192   -9.1094  -29.7864 C   0  0  0  0  0  0  0  0  0  0  0  0
   37.6265   -9.1513  -29.0605 C   0  0  0  0  0  0  0  0  0  0  0  0
   36.3454   -9.0802  -29.3862 N   0  0  0  0  0  0  0  0  0  0  0  0
   35.9097   -8.9622  -30.7873 C   0  0  0  0  0  0  0  0  0  0  0  0
   35.5879   -9.2029  -28.2798 C   0  0  0  0  0  0  0  0  0  0  0  0
   34.1046   -9.1938  -28.2893 C   0  0  0  0  0  0  0  0  0  0  0  0
   33.5604  -10.4955  -28.2779 O   0  0  0  0  0  0  0  0  0  0  0  0
   32.6672  -10.6421  -29.4007 C   0  0  2  0  0  0  0  0  0  0  0  0
   31.3102  -11.0160  -28.8700 C   0  0  0  0  0  0  0  0  0  0  0  0
   30.5223  -11.8566  -29.4746 C   0  0  0  0  0  0  0  0  0  0  0  0
   30.9046  -12.5234  -30.6993 O   0  0  0  0  0  0  0  0  0  0  0  0
   32.1774  -12.1181  -31.3274 C   0  0  1  0  0  0  0  0  0  0  0  0
   33.2031  -11.7546  -30.2310 C   0  0  2  0  0  0  0  0  0  0  0  0
   33.5287  -12.7910  -29.2585 O   0  0  0  0  0  0  0  0  0  0  0  0
   32.6854  -13.2087  -32.2343 C   0  0  0  0  0  0  0  0  0  0  0  0
   31.6389  -13.4533  -33.2072 O   0  0  0  0  0  0  0  0  0  0  0  0
   41.0422   -9.3577  -27.2038 H   0  0  0  0  0  0  0  0  0  0  0  0
   38.9565   -9.5728  -25.9288 H   0  0  0  0  0  0  0  0  0  0  0  0
   38.7995   -9.0176  -30.8824 H   0  0  0  0  0  0  0  0  0  0  0  0
   34.8483   -8.6749  -30.8182 H   0  0  0  0  0  0  0  0  0  0  0  0
   36.5122   -8.1949  -31.2953 H   0  0  0  0  0  0  0  0  0  0  0  0
   36.0428   -9.9287  -31.2953 H   0  0  0  0  0  0  0  0  0  0  0  0
   33.7485   -8.6538  -27.3996 H   0  0  0  0  0  0  0  0  0  0  0  0
   33.7773   -8.7007  -29.2166 H   0  0  0  0  0  0  0  0  0  0  0  0
   32.5873   -9.7184  -29.9926 H   0  0  0  0  0  0  0  0  0  0  0  0
   30.9691  -10.5588  -27.9295 H   0  0  0  0  0  0  0  0  0  0  0  0
   29.5337  -12.0666  -29.0402 H   0  0  0  0  0  0  0  0  0  0  0  0
   32.0151  -11.2263  -31.9505 H   0  0  0  0  0  0  0  0  0  0  0  0
   34.1087  -11.5302  -30.8137 H   0  0  0  0  0  0  0  0  0  0  0  0
   33.4158  -12.4316  -28.3429 H   0  0  0  0  0  0  0  0  0  0  0  0
   33.6068  -12.8844  -32.7402 H   0  0  0  0  0  0  0  0  0  0  0  0
   32.9230  -14.1206  -31.6668 H   0  0  0  0  0  0  0  0  0  0  0  0
   30.7907  -13.6515  -32.7367 H   0  0  0  0  0  0  0  0  0  0  0  0
  1  2  1  0
  2  3  2  0
  2  4  1  0
  4  5  2  0
  4  9  1  0
  5  6  1  0
  6  7  2  0
  7  8  1  0
  7 10  1  0
  8 13  2  0
  9 10  2  0
 10 11  1  0
 11 12  1  0
 11 13  1  0
 13 14  1  0
 14 15  1  0
 16 15  1  0
 16 17  1  0
 16 21  1  0
 17 18  2  0
 18 19  1  0
 19 20  1  0
 20 21  1  0
 20 23  1  0
 21 22  1  0
 23 24  1  0
  5 25  1  0
  6 26  1  0
  9 27  1  0
 12 28  1  0
 12 29  1  0
 12 30  1  0
 14 31  1  0
 14 32  1  0
 16 33  1  6
 17 34  1  0
 18 35  1  0
 20 36  1  6
 21 37  1  6
 22 38  1  0
 23 39  1  0
 23 40  1  0
 24 41  1  0
M  CHG  1   1  -1
M  END
>  <filename_input>  (25) 
7P1M_4IU_docked.sdf

>  <pdb_id>  (25) 
7P1M_4IU

>  <pose_rank>  (25) 
24

>  <num_atoms_heavy>  (25) 
24

>  <num_torsions>  (25) 
5

>  <pose>  (25) 
[40.05220731459074, -9.186186022393168, -29.098172347382963, 2.1027326894935587, -2.2256871288483695, 5.36936374904913, 0.8831497887449798, 2.9235110840410403, 0.870887834554354, -0.43812538097625364, -6.4808300951038635]

>  <energy>  (25) 
-195.43693620930867

>  <inter_energy>  (25) 
-195.6107112043411

>  <intra_energy>  (25) 
0.0

>  <rmsd>  (25) 
5.6301

>  <sdf_rank>  (25) 
0

$$$$

     RDKit          3D

 41 43  0  0  0  0  0  0  0  0999 V2000
   46.4720   -8.3220  -27.9690 O   0  0  0  0  0  0  0  0  0  0  0  0
   45.3920   -8.1640  -28.5280 C   0  0  0  0  0  0  0  0  0  0  0  0
   45.3170   -7.6590  -29.7600 O   0  0  0  0  0  0  0  0  0  0  0  0
   44.0820   -8.4090  -27.8630 C   0  0  0  0  0  0  0  0  0  0  0  0
   44.0710   -8.5900  -26.5010 C   0  0  0  0  0  0  0  0  0  0  0  0
   42.8850   -8.8070  -25.8340 C   0  0  0  0  0  0  0  0  0  0  0  0
   41.6740   -8.7850  -26.4660 C   0  0  0  0  0  0  0  0  0  0  0  0
   40.3770   -8.9280  -26.0770 N   0  0  0  0  0  0  0  0  0  0  0  0
   42.8720   -8.4160  -28.5950 C   0  0  0  0  0  0  0  0  0  0  0  0
   41.6630   -8.5890  -27.9170 C   0  0  0  0  0  0  0  0  0  0  0  0
   40.3930   -8.6190  -28.2890 N   0  0  0  0  0  0  0  0  0  0  0  0
   39.9980   -8.4890  -29.7010 C   0  0  0  0  0  0  0  0  0  0  0  0
   39.6110   -8.8480  -27.2170 C   0  0  0  0  0  0  0  0  0  0  0  0
   38.1340   -8.9690  -27.2830 C   0  0  0  0  0  0  0  0  0  0  0  0
   37.5070   -7.7360  -27.5610 O   0  0  0  0  0  0  0  0  0  0  0  0
   36.0770   -7.9080  -27.4870 C   0  0  2  0  0  0  0  0  0  0  0  0
   35.5610   -8.1200  -28.8840 C   0  0  0  0  0  0  0  0  0  0  0  0
   34.4280   -7.6340  -29.3000 C   0  0  0  0  0  0  0  0  0  0  0  0
   33.5830   -6.8220  -28.4530 O   0  0  0  0  0  0  0  0  0  0  0  0
   33.9810   -6.6680  -27.0400 C   0  0  1  0  0  0  0  0  0  0  0  0
   35.5220   -6.6420  -26.9360 C   0  0  2  0  0  0  0  0  0  0  0  0
   36.2190   -5.6010  -27.6820 O   0  0  0  0  0  0  0  0  0  0  0  0
   33.3560   -5.4300  -26.4510 C   0  0  0  0  0  0  0  0  0  0  0  0
   31.9330   -5.6920  -26.3620 O   0  0  0  0  0  0  0  0  0  0  0  0
   45.0161   -8.5615  -25.9389 H   0  0  0  0  0  0  0  0  0  0  0  0
   42.9143   -9.0053  -24.7524 H   0  0  0  0  0  0  0  0  0  0  0  0
   42.8828   -8.2865  -29.6873 H   0  0  0  0  0  0  0  0  0  0  0  0
   38.9546   -8.1456  -29.7597 H   0  0  0  0  0  0  0  0  0  0  0  0
   40.6529   -7.7590  -30.1992 H   0  0  0  0  0  0  0  0  0  0  0  0
   40.0913   -9.4653  -30.1992 H   0  0  0  0  0  0  0  0  0  0  0  0
   37.8730   -9.6852  -28.0760 H   0  0  0  0  0  0  0  0  0  0  0  0
   37.7804   -9.3118  -26.2994 H   0  0  0  0  0  0  0  0  0  0  0  0
   35.7925   -8.7640  -26.8575 H   0  0  0  0  0  0  0  0  0  0  0  0
   36.1682   -8.7119  -29.5847 H   0  0  0  0  0  0  0  0  0  0  0  0
   34.1026   -7.8477  -30.3288 H   0  0  0  0  0  0  0  0  0  0  0  0
   33.6151   -7.5259  -26.4568 H   0  0  0  0  0  0  0  0  0  0  0  0
   35.6878   -6.4683  -25.8625 H   0  0  0  0  0  0  0  0  0  0  0  0
   36.6424   -4.9686  -27.0489 H   0  0  0  0  0  0  0  0  0  0  0  0
   33.7699   -5.2340  -25.4509 H   0  0  0  0  0  0  0  0  0  0  0  0
   33.5604   -4.5459  -27.0728 H   0  0  0  0  0  0  0  0  0  0  0  0
   31.6654   -5.7413  -25.4101 H   0  0  0  0  0  0  0  0  0  0  0  0
  1  2  1  0
  2  3  2  0
  2  4  1  0
  4  5  2  0
  4  9  1  0
  5  6  1  0
  6  7  2  0
  7  8  1  0
  7 10  1  0
  8 13  2  0
  9 10  2  0
 10 11  1  0
 11 12  1  0
 11 13  1  0
 13 14  1  0
 14 15  1  0
 16 15  1  0
 16 17  1  0
 16 21  1  0
 17 18  2  0
 18 19  1  0
 19 20  1  0
 20 21  1  0
 20 23  1  0
 21 22  1  0
 23 24  1  0
  5 25  1  0
  6 26  1  0
  9 27  1  0
 12 28  1  0
 12 29  1  0
 12 30  1  0
 14 31  1  0
 14 32  1  0
 16 33  1  1
 17 34  1  0
 18 35  1  0
 20 36  1  1
 21 37  1  1
 22 38  1  0
 23 39  1  0
 23 40  1  0
 24 41  1  0
M  CHG  1   1  -1
M  END
>  <filename_input>  (26) 
7P1M_4IU_docked.sdf

>  <pdb_id>  (26) 
7P1M_4IU

>  <pose_rank>  (26) 
25

>  <num_atoms_heavy>  (26) 
24

>  <num_torsions>  (26) 
5

>  <pose>  (26) 
[44.082, -8.409, -27.863, 1e-06, 1e-06, 1e-06, 0.0, 0.0, 0.0, 0.0, 0.0]

>  <energy>  (26) 
-603.0157888776072

>  <inter_energy>  (26) 
-613.0884831998676

>  <intra_energy>  (26) 
1.5976865890147665

>  <rmsd>  (26) 
0.0

>  <sdf_rank>  (26) 
0

$$$$
