
     RDKit          3D

 26 26  0  0  0  0  0  0  0  0999 V2000
    1.1677   15.5962   43.1984 C   0  0  2  0  0  0  0  0  0  0  0  0
    0.9649   17.1022   43.0622 C   0  0  2  0  0  0  0  0  0  0  0  0
    0.6865   17.6920   44.4413 C   0  0  1  0  0  0  0  0  0  0  0  0
    1.7954   17.3219   45.4301 C   0  0  1  0  0  0  0  0  0  0  0  0
    1.9132   15.7999   45.4836 C   0  0  2  0  0  0  0  0  0  0  0  0
    3.0193   15.2986   46.3855 C   0  0  0  0  0  0  0  0  0  0  0  0
   -0.0548   15.0327   43.5793 O   0  0  0  0  0  0  0  0  0  0  0  0
   -0.1259   17.3578   42.1812 O   0  0  0  0  0  0  0  0  0  0  0  0
    0.5178   19.1058   44.3404 O   0  0  0  0  0  0  0  0  0  0  0  0
    3.0470   17.8622   44.9968 O   0  0  0  0  0  0  0  0  0  0  0  0
    2.1845   15.3132   44.1520 O   0  0  0  0  0  0  0  0  0  0  0  0
   -0.0620   13.5983   43.5355 C   0  0  0  0  0  0  0  0  0  0  0  0
    1.4951   15.1641   42.2413 H   0  0  0  0  0  0  0  0  0  0  0  0
    1.8695   17.5695   42.6458 H   0  0  0  0  0  0  0  0  0  0  0  0
   -0.2483   17.2628   44.8312 H   0  0  0  0  0  0  0  0  0  0  0  0
    1.5483   17.7307   46.4210 H   0  0  0  0  0  0  0  0  0  0  0  0
    0.9614   15.4293   45.8920 H   0  0  0  0  0  0  0  0  0  0  0  0
    2.7242   15.4324   47.4367 H   0  0  0  0  0  0  0  0  0  0  0  0
    3.1984   14.2315   46.1878 H   0  0  0  0  0  0  0  0  0  0  0  0
    3.9398   15.8676   46.1878 H   0  0  0  0  0  0  0  0  0  0  0  0
   -0.9402   17.5487   42.7110 H   0  0  0  0  0  0  0  0  0  0  0  0
    0.4710   19.4982   45.2481 H   0  0  0  0  0  0  0  0  0  0  0  0
    3.5953   18.0989   45.7863 H   0  0  0  0  0  0  0  0  0  0  0  0
   -0.0640   13.2002   44.5609 H   0  0  0  0  0  0  0  0  0  0  0  0
   -0.9619   13.2521   43.0060 H   0  0  0  0  0  0  0  0  0  0  0  0
    0.8344   13.2431   43.0060 H   0  0  0  0  0  0  0  0  0  0  0  0
  1  2  1  0
  1  7  1  0
  1 11  1  0
  2  3  1  0
  2  8  1  0
  3  4  1  0
  3  9  1  0
  4  5  1  0
  4 10  1  0
  5  6  1  0
  5 11  1  0
  7 12  1  0
  1 13  1  6
  2 14  1  6
  3 15  1  1
  4 16  1  1
  5 17  1  1
  6 18  1  0
  6 19  1  0
  6 20  1  0
  8 21  1  0
  9 22  1  0
 10 23  1  0
 12 24  1  0
 12 25  1  0
 12 26  1  0
M  END
>  <filename_input>  (1) 
7P2I_MFU_docked.sdf

>  <pdb_id>  (1) 
7P2I_MFU

>  <pose_rank>  (1) 
0

>  <num_atoms_heavy>  (1) 
12

>  <num_torsions>  (1) 
1

>  <pose>  (1) 
[1.1677066580150524, 15.596235345651534, 43.198406119211, 6.249446244029939, 0.1457786744805074, -0.3178008162076937, 12.500200152270473]

>  <energy>  (1) 
-1148.5407655411332

>  <inter_energy>  (1) 
-1120.150139210108

>  <intra_energy>  (1) 
2.001794194321323

>  <rmsd>  (1) 
0.121041

>  <sdf_rank>  (1) 
0

$$$$

     RDKit          3D

 26 26  0  0  0  0  0  0  0  0999 V2000
   -0.2891   10.1157   44.0672 C   0  0  2  0  0  0  0  0  0  0  0  0
    0.1990   11.5582   43.9763 C   0  0  2  0  0  0  0  0  0  0  0  0
    0.1042   12.2020   45.3562 C   0  0  1  0  0  0  0  0  0  0  0  0
    0.8612   11.3760   46.3997 C   0  0  1  0  0  0  0  0  0  0  0  0
    0.2962    9.9568   46.4021 C   0  0  2  0  0  0  0  0  0  0  0  0
    0.9998    9.0149   47.3537 C   0  0  0  0  0  0  0  0  0  0  0  0
   -1.6597   10.1446   44.3460 O   0  0  0  0  0  0  0  0  0  0  0  0
   -0.6000   12.2728   43.0369 O   0  0  0  0  0  0  0  0  0  0  0  0
    0.5799   13.5466   45.2990 O   0  0  0  0  0  0  0  0  0  0  0  0
    2.2517   11.3138   46.0696 O   0  0  0  0  0  0  0  0  0  0  0  0
    0.4262    9.4086   45.0731 O   0  0  0  0  0  0  0  0  0  0  0  0
   -2.4335    9.2788   43.5028 C   0  0  0  0  0  0  0  0  0  0  0  0
   -0.1131    9.5895   43.1174 H   0  0  0  0  0  0  0  0  0  0  0  0
    1.2453   11.5829   43.6377 H   0  0  0  0  0  0  0  0  0  0  0  0
   -0.9505   12.2250   45.6678 H   0  0  0  0  0  0  0  0  0  0  0  0
    0.7444   11.8457   47.3875 H   0  0  0  0  0  0  0  0  0  0  0  0
   -0.7494   10.0399   46.7333 H   0  0  0  0  0  0  0  0  0  0  0  0
    0.7799    9.3093   48.3905 H   0  0  0  0  0  0  0  0  0  0  0  0
    0.6461    7.9877   47.1814 H   0  0  0  0  0  0  0  0  0  0  0  0
    2.0852    9.0626   47.1814 H   0  0  0  0  0  0  0  0  0  0  0  0
   -1.2435   12.8483   43.5214 H   0  0  0  0  0  0  0  0  0  0  0  0
    0.7023   13.8926   46.2185 H   0  0  0  0  0  0  0  0  0  0  0  0
    2.7876   11.2898   46.9016 H   0  0  0  0  0  0  0  0  0  0  0  0
   -3.0373    8.6032   44.1265 H   0  0  0  0  0  0  0  0  0  0  0  0
   -3.0979    9.8833   42.8677 H   0  0  0  0  0  0  0  0  0  0  0  0
   -1.7585    8.6863   42.8677 H   0  0  0  0  0  0  0  0  0  0  0  0
  1  2  1  0
  1  7  1  0
  1 11  1  0
  2  3  1  0
  2  8  1  0
  3  4  1  0
  3  9  1  0
  4  5  1  0
  4 10  1  0
  5  6  1  0
  5 11  1  0
  7 12  1  0
  1 13  1  6
  2 14  1  6
  3 15  1  1
  4 16  1  1
  5 17  1  1
  6 18  1  0
  6 19  1  0
  6 20  1  0
  8 21  1  0
  9 22  1  0
 10 23  1  0
 12 24  1  0
 12 25  1  0
 12 26  1  0
M  END
>  <filename_input>  (2) 
7P2I_MFU_docked.sdf

>  <pdb_id>  (2) 
7P2I_MFU

>  <pose_rank>  (2) 
1

>  <num_atoms_heavy>  (2) 
12

>  <num_torsions>  (2) 
1

>  <pose>  (2) 
[-0.28907800005092876, 10.115692171601573, 44.06718110693465, -0.007724604486499448, -0.9928964333897148, -6.6690127886811705, 5.546860841859374]

>  <energy>  (2) 
-139.7558722770509

>  <inter_energy>  (2) 
-139.34529398110791

>  <intra_energy>  (2) 
0.1022848792341142

>  <rmsd>  (2) 
5.87063

>  <sdf_rank>  (2) 
0

$$$$

     RDKit          3D

 26 26  0  0  0  0  0  0  0  0999 V2000
    2.1857   12.8555   43.7120 C   0  0  2  0  0  0  0  0  0  0  0  0
    1.2435   13.5896   42.7630 C   0  0  2  0  0  0  0  0  0  0  0  0
    0.1149   14.2196   43.5733 C   0  0  1  0  0  0  0  0  0  0  0  0
    0.6709   15.1175   44.6819 C   0  0  1  0  0  0  0  0  0  0  0  0
    1.5989   14.2850   45.5645 C   0  0  2  0  0  0  0  0  0  0  0  0
    2.2655   15.0709   46.6718 C   0  0  0  0  0  0  0  0  0  0  0  0
    1.4900   11.7664   44.2480 O   0  0  0  0  0  0  0  0  0  0  0  0
    0.7188   12.6708   41.8081 O   0  0  0  0  0  0  0  0  0  0  0  0
   -0.7662   14.9334   42.7064 O   0  0  0  0  0  0  0  0  0  0  0  0
    1.4228   16.1953   44.1170 O   0  0  0  0  0  0  0  0  0  0  0  0
    2.6430   13.7292   44.7371 O   0  0  0  0  0  0  0  0  0  0  0  0
    2.3160   10.8852   45.0231 C   0  0  0  0  0  0  0  0  0  0  0  0
    3.0756   12.4999   43.1719 H   0  0  0  0  0  0  0  0  0  0  0  0
    1.7878   14.3808   42.2266 H   0  0  0  0  0  0  0  0  0  0  0  0
   -0.4608   13.4213   44.0646 H   0  0  0  0  0  0  0  0  0  0  0  0
   -0.1643   15.5275   45.2689 H   0  0  0  0  0  0  0  0  0  0  0  0
    0.9699   13.5168   46.0380 H   0  0  0  0  0  0  0  0  0  0  0  0
    1.9360   14.6825   47.6467 H   0  0  0  0  0  0  0  0  0  0  0  0
    3.3575   14.9700   46.5869 H   0  0  0  0  0  0  0  0  0  0  0  0
    1.9876   16.1319   46.5869 H   0  0  0  0  0  0  0  0  0  0  0  0
    0.2871   11.9150   42.2799 H   0  0  0  0  0  0  0  0  0  0  0  0
   -1.4104   15.4553   43.2474 H   0  0  0  0  0  0  0  0  0  0  0  0
    1.8073   16.7462   44.8442 H   0  0  0  0  0  0  0  0  0  0  0  0
    2.1440   11.0688   46.0939 H   0  0  0  0  0  0  0  0  0  0  0  0
    2.0633    9.8415   44.7847 H   0  0  0  0  0  0  0  0  0  0  0  0
    3.3738   11.0699   44.7847 H   0  0  0  0  0  0  0  0  0  0  0  0
  1  2  1  0
  1  7  1  0
  1 11  1  0
  2  3  1  0
  2  8  1  0
  3  4  1  0
  3  9  1  0
  4  5  1  0
  4 10  1  0
  5  6  1  0
  5 11  1  0
  7 12  1  0
  1 13  1  6
  2 14  1  6
  3 15  1  1
  4 16  1  1
  5 17  1  1
  6 18  1  0
  6 19  1  0
  6 20  1  0
  8 21  1  0
  9 22  1  0
 10 23  1  0
 12 24  1  0
 12 25  1  0
 12 26  1  0
M  END
>  <filename_input>  (3) 
7P2I_MFU_docked.sdf

>  <pdb_id>  (3) 
7P2I_MFU

>  <pose_rank>  (3) 
2

>  <num_atoms_heavy>  (3) 
12

>  <num_torsions>  (3) 
1

>  <pose>  (3) 
[2.185738680799429, 12.855457139751973, 43.712042679891134, 2.942396806365577, 1.668755802122411, -4.091539715011516, -0.03799917363464844]

>  <energy>  (3) 
-332.0968514037455

>  <inter_energy>  (3) 
-326.91653961275193

>  <intra_energy>  (3) 
2.4116046091809027

>  <rmsd>  (3) 
3.3046

>  <sdf_rank>  (3) 
0

$$$$

     RDKit          3D

 26 26  0  0  0  0  0  0  0  0999 V2000
    1.3224   17.1207   43.5243 C   0  0  2  0  0  0  0  0  0  0  0  0
    2.1272   17.0840   44.8198 C   0  0  2  0  0  0  0  0  0  0  0  0
    1.4811   16.0873   45.7772 C   0  0  1  0  0  0  0  0  0  0  0  0
    1.3359   14.7117   45.1208 C   0  0  1  0  0  0  0  0  0  0  0  0
    0.5214   14.8669   43.8379 C   0  0  2  0  0  0  0  0  0  0  0  0
    0.3524   13.5831   43.0559 C   0  0  0  0  0  0  0  0  0  0  0  0
    0.0708   17.6748   43.8137 O   0  0  0  0  0  0  0  0  0  0  0  0
    2.1554   18.3857   45.3997 O   0  0  0  0  0  0  0  0  0  0  0  0
    2.2334   16.0188   46.9883 O   0  0  0  0  0  0  0  0  0  0  0  0
    2.6223   14.1842   44.7844 O   0  0  0  0  0  0  0  0  0  0  0  0
    1.1930   15.8132   42.9793 O   0  0  0  0  0  0  0  0  0  0  0  0
    0.1217   19.0773   44.1140 C   0  0  0  0  0  0  0  0  0  0  0  0
    1.8361   17.7343   42.7696 H   0  0  0  0  0  0  0  0  0  0  0  0
    3.1608   16.7688   44.6142 H   0  0  0  0  0  0  0  0  0  0  0  0
    0.4669   16.4346   46.0235 H   0  0  0  0  0  0  0  0  0  0  0  0
    0.8359   14.0270   45.8216 H   0  0  0  0  0  0  0  0  0  0  0  0
   -0.4809   15.2001   44.1452 H   0  0  0  0  0  0  0  0  0  0  0  0
    0.2415   12.7404   43.7541 H   0  0  0  0  0  0  0  0  0  0  0  0
   -0.5440   13.6549   42.4225 H   0  0  0  0  0  0  0  0  0  0  0  0
    1.2369   13.4205   42.4225 H   0  0  0  0  0  0  0  0  0  0  0  0
    2.1537   18.3074   46.3866 H   0  0  0  0  0  0  0  0  0  0  0  0
    1.6187   16.0748   47.7622 H   0  0  0  0  0  0  0  0  0  0  0  0
    3.1221   13.9793   45.6140 H   0  0  0  0  0  0  0  0  0  0  0  0
    0.1268   19.2187   45.2049 H   0  0  0  0  0  0  0  0  0  0  0  0
    1.0362   19.5115   43.6837 H   0  0  0  0  0  0  0  0  0  0  0  0
   -0.7590   19.5766   43.6837 H   0  0  0  0  0  0  0  0  0  0  0  0
  1  2  1  0
  1  7  1  0
  1 11  1  0
  2  3  1  0
  2  8  1  0
  3  4  1  0
  3  9  1  0
  4  5  1  0
  4 10  1  0
  5  6  1  0
  5 11  1  0
  7 12  1  0
  1 13  1  6
  2 14  1  6
  3 15  1  1
  4 16  1  1
  5 17  1  1
  6 18  1  0
  6 19  1  0
  6 20  1  0
  8 21  1  0
  9 22  1  0
 10 23  1  0
 12 24  1  0
 12 25  1  0
 12 26  1  0
M  END
>  <filename_input>  (4) 
7P2I_MFU_docked.sdf

>  <pdb_id>  (4) 
7P2I_MFU

>  <pose_rank>  (4) 
3

>  <num_atoms_heavy>  (4) 
12

>  <num_torsions>  (4) 
1

>  <pose>  (4) 
[1.3223663312325136, 17.120691713880035, 43.524279238355064, 16.453524170257314, -0.44515313767995535, -12.351955067301214, 10.749841189863933]

>  <energy>  (4) 
-229.21045801455605

>  <inter_energy>  (4) 
-273.1705039833924

>  <intra_energy>  (4) 
36.494555946126106

>  <rmsd>  (4) 
3.34726

>  <sdf_rank>  (4) 
0

$$$$

     RDKit          3D

 26 26  0  0  0  0  0  0  0  0999 V2000
    0.3848   14.4736   44.5885 C   0  0  2  0  0  0  0  0  0  0  0  0
    0.9065   13.4690   45.6113 C   0  0  2  0  0  0  0  0  0  0  0  0
    2.4256   13.5852   45.6905 C   0  0  1  0  0  0  0  0  0  0  0  0
    2.8505   15.0251   45.9917 C   0  0  1  0  0  0  0  0  0  0  0  0
    2.2727   15.9398   44.9133 C   0  0  2  0  0  0  0  0  0  0  0  0
    2.5708   17.4075   45.1256 C   0  0  0  0  0  0  0  0  0  0  0  0
    0.8326   14.0704   43.3260 O   0  0  0  0  0  0  0  0  0  0  0  0
    0.5271   12.1518   45.2210 O   0  0  0  0  0  0  0  0  0  0  0  0
    2.9333   12.6699   46.6610 O   0  0  0  0  0  0  0  0  0  0  0  0
    2.3396   15.4375   47.2625 O   0  0  0  0  0  0  0  0  0  0  0  0
    0.8376   15.7855   44.9008 O   0  0  0  0  0  0  0  0  0  0  0  0
   -0.2274   13.6806   42.4405 C   0  0  0  0  0  0  0  0  0  0  0  0
   -0.7148   14.5011   44.6027 H   0  0  0  0  0  0  0  0  0  0  0  0
    0.4764   13.6794   46.6016 H   0  0  0  0  0  0  0  0  0  0  0  0
    2.8555   13.3210   44.7131 H   0  0  0  0  0  0  0  0  0  0  0  0
    3.9488   15.0829   46.0071 H   0  0  0  0  0  0  0  0  0  0  0  0
    2.7463   15.6407   43.9666 H   0  0  0  0  0  0  0  0  0  0  0  0
    2.6141   17.6207   46.2038 H   0  0  0  0  0  0  0  0  0  0  0  0
    3.5377   17.6559   44.6636 H   0  0  0  0  0  0  0  0  0  0  0  0
    1.7773   18.0133   44.6636 H   0  0  0  0  0  0  0  0  0  0  0  0
    0.3685   11.6012   46.0283 H   0  0  0  0  0  0  0  0  0  0  0  0
    2.7428   13.0132   47.5698 H   0  0  0  0  0  0  0  0  0  0  0  0
    2.8670   15.0118   47.9841 H   0  0  0  0  0  0  0  0  0  0  0  0
   -1.0988   13.3602   43.0305 H   0  0  0  0  0  0  0  0  0  0  0  0
   -0.5080   14.5344   41.8062 H   0  0  0  0  0  0  0  0  0  0  0  0
    0.1121   12.8485   41.8062 H   0  0  0  0  0  0  0  0  0  0  0  0
  1  2  1  0
  1  7  1  0
  1 11  1  0
  2  3  1  0
  2  8  1  0
  3  4  1  0
  3  9  1  0
  4  5  1  0
  4 10  1  0
  5  6  1  0
  5 11  1  0
  7 12  1  0
  1 13  1  6
  2 14  1  1
  3 15  1  6
  4 16  1  1
  5 17  1  6
  6 18  1  0
  6 19  1  0
  6 20  1  0
  8 21  1  0
  9 22  1  0
 10 23  1  0
 12 24  1  0
 12 25  1  0
 12 26  1  0
M  END
>  <filename_input>  (5) 
7P2I_MFU_docked.sdf

>  <pdb_id>  (5) 
7P2I_MFU

>  <pose_rank>  (5) 
4

>  <num_atoms_heavy>  (5) 
12

>  <num_torsions>  (5) 
1

>  <pose>  (5) 
[0.38479182480581164, 14.47362321706756, 44.58853315481085, -2.0257952873310074, -1.5824090946332545, -2.23863218236571, 5.242845611229445]

>  <energy>  (5) 
-274.71215594993913

>  <inter_energy>  (5) 
-280.87823830688393

>  <intra_energy>  (5) 
3.4362956870601726

>  <rmsd>  (5) 
3.75349

>  <sdf_rank>  (5) 
0

$$$$

     RDKit          3D

 26 26  0  0  0  0  0  0  0  0999 V2000
    1.2431   14.6481   42.2112 C   0  0  2  0  0  0  0  0  0  0  0  0
    0.4282   15.9377   42.1880 C   0  0  2  0  0  0  0  0  0  0  0  0
   -0.0305   16.2603   43.6068 C   0  0  1  0  0  0  0  0  0  0  0  0
    1.1600   16.3188   44.5679 C   0  0  1  0  0  0  0  0  0  0  0  0
    1.9020   14.9850   44.5072 C   0  0  2  0  0  0  0  0  0  0  0  0
    3.1419   14.9296   45.3719 C   0  0  0  0  0  0  0  0  0  0  0  0
    0.3775   13.6011   42.5454 O   0  0  0  0  0  0  0  0  0  0  0  0
   -0.6951   15.7755   41.3258 O   0  0  0  0  0  0  0  0  0  0  0  0
   -0.7750   17.4781   43.6119 O   0  0  0  0  0  0  0  0  0  0  0  0
    2.0601   17.3606   44.1798 O   0  0  0  0  0  0  0  0  0  0  0  0
    2.3126   14.7496   43.1436 O   0  0  0  0  0  0  0  0  0  0  0  0
    1.0258   12.3226   42.6141 C   0  0  0  0  0  0  0  0  0  0  0  0
    1.6928   14.4595   41.2252 H   0  0  0  0  0  0  0  0  0  0  0  0
    1.0438   16.7674   41.8103 H   0  0  0  0  0  0  0  0  0  0  0  0
   -0.6901   15.4544   43.9608 H   0  0  0  0  0  0  0  0  0  0  0  0
    0.7939   16.5174   45.5860 H   0  0  0  0  0  0  0  0  0  0  0  0
    1.2030   14.2238   44.8840 H   0  0  0  0  0  0  0  0  0  0  0  0
    2.8503   14.9426   46.4324 H   0  0  0  0  0  0  0  0  0  0  0  0
    3.6985   14.0057   45.1560 H   0  0  0  0  0  0  0  0  0  0  0  0
    3.7787   15.8002   45.1560 H   0  0  0  0  0  0  0  0  0  0  0  0
   -1.5140   15.6573   41.8694 H   0  0  0  0  0  0  0  0  0  0  0  0
   -0.9454   17.7568   44.5465 H   0  0  0  0  0  0  0  0  0  0  0  0
    2.4333   17.7926   44.9886 H   0  0  0  0  0  0  0  0  0  0  0  0
    1.1690   12.0402   43.6675 H   0  0  0  0  0  0  0  0  0  0  0  0
    0.4016   11.5676   42.1137 H   0  0  0  0  0  0  0  0  0  0  0  0
    2.0037   12.3800   42.1137 H   0  0  0  0  0  0  0  0  0  0  0  0
  1  2  1  0
  1  7  1  0
  1 11  1  0
  2  3  1  0
  2  8  1  0
  3  4  1  0
  3  9  1  0
  4  5  1  0
  4 10  1  0
  5  6  1  0
  5 11  1  0
  7 12  1  0
  1 13  1  6
  2 14  1  6
  3 15  1  1
  4 16  1  1
  5 17  1  1
  6 18  1  0
  6 19  1  0
  6 20  1  0
  8 21  1  0
  9 22  1  0
 10 23  1  0
 12 24  1  0
 12 25  1  0
 12 26  1  0
M  END
>  <filename_input>  (6) 
7P2I_MFU_docked.sdf

>  <pdb_id>  (6) 
7P2I_MFU

>  <pose_rank>  (6) 
5

>  <num_atoms_heavy>  (6) 
12

>  <num_torsions>  (6) 
1

>  <pose>  (6) 
[1.2430846881202124, 14.648132992612496, 42.21117618446714, -0.6890828081972794, -0.10492928119984762, -5.806958310372678, 6.391209274947373]

>  <energy>  (6) 
-385.72158394117304

>  <inter_energy>  (6) 
-377.1607007641423

>  <intra_energy>  (6) 
5.233371053961511

>  <rmsd>  (6) 
1.60969

>  <sdf_rank>  (6) 
0

$$$$

     RDKit          3D

 26 26  0  0  0  0  0  0  0  0999 V2000
    2.0554   13.1612   43.6821 C   0  0  2  0  0  0  0  0  0  0  0  0
    2.1358   14.6841   43.6374 C   0  0  2  0  0  0  0  0  0  0  0  0
    1.5952   15.2480   44.9478 C   0  0  1  0  0  0  0  0  0  0  0  0
    2.3270   14.6426   46.1487 C   0  0  1  0  0  0  0  0  0  0  0  0
    2.1855   13.1227   46.0906 C   0  0  2  0  0  0  0  0  0  0  0  0
    2.9173   12.3929   47.1951 C   0  0  0  0  0  0  0  0  0  0  0  0
    0.7028   12.8041   43.6848 O   0  0  0  0  0  0  0  0  0  0  0  0
    1.3743   15.1688   42.5344 O   0  0  0  0  0  0  0  0  0  0  0  0
    1.6840   16.6726   44.9373 O   0  0  0  0  0  0  0  0  0  0  0  0
    3.7177   14.9742   46.1008 O   0  0  0  0  0  0  0  0  0  0  0  0
    2.7228   12.6592   44.8336 O   0  0  0  0  0  0  0  0  0  0  0  0
    0.3885   11.7462   42.7674 C   0  0  0  0  0  0  0  0  0  0  0  0
    2.5545   12.7238   42.8048 H   0  0  0  0  0  0  0  0  0  0  0  0
    3.1805   15.0042   43.5105 H   0  0  0  0  0  0  0  0  0  0  0  0
    0.5348   14.9720   45.0450 H   0  0  0  0  0  0  0  0  0  0  0  0
    1.8916   15.0413   47.0768 H   0  0  0  0  0  0  0  0  0  0  0  0
    1.1132   12.9064   46.2066 H   0  0  0  0  0  0  0  0  0  0  0  0
    2.5585   12.7507   48.1714 H   0  0  0  0  0  0  0  0  0  0  0  0
    2.7286   11.3127   47.1086 H   0  0  0  0  0  0  0  0  0  0  0  0
    3.9970   12.5846   47.1086 H   0  0  0  0  0  0  0  0  0  0  0  0
    0.5886   15.6689   42.8701 H   0  0  0  0  0  0  0  0  0  0  0  0
    1.7050   17.0088   45.8682 H   0  0  0  0  0  0  0  0  0  0  0  0
    4.0689   15.0579   47.0226 H   0  0  0  0  0  0  0  0  0  0  0  0
    0.1194   10.8404   43.3305 H   0  0  0  0  0  0  0  0  0  0  0  0
   -0.4584   12.0494   42.1342 H   0  0  0  0  0  0  0  0  0  0  0  0
    1.2635   11.5379   42.1342 H   0  0  0  0  0  0  0  0  0  0  0  0
  1  2  1  0
  1  7  1  0
  1 11  1  0
  2  3  1  0
  2  8  1  0
  3  4  1  0
  3  9  1  0
  4  5  1  0
  4 10  1  0
  5  6  1  0
  5 11  1  0
  7 12  1  0
  1 13  1  6
  2 14  1  6
  3 15  1  1
  4 16  1  1
  5 17  1  6
  6 18  1  0
  6 19  1  0
  6 20  1  0
  8 21  1  0
  9 22  1  0
 10 23  1  0
 12 24  1  0
 12 25  1  0
 12 26  1  0
M  END
>  <filename_input>  (7) 
7P2I_MFU_docked.sdf

>  <pdb_id>  (7) 
7P2I_MFU

>  <pose_rank>  (7) 
6

>  <num_atoms_heavy>  (7) 
12

>  <num_torsions>  (7) 
1

>  <pose>  (7) 
[2.05540387312658, 13.161217360028207, 43.68207482750434, 0.9682221420303787, -5.479732449650716, -3.5522073250468753, 5.579271253411548]

>  <energy>  (7) 
-280.81886949001995

>  <inter_energy>  (7) 
-270.6755607408239

>  <intra_energy>  (7) 
0.02824817656359044

>  <rmsd>  (7) 
2.79333

>  <sdf_rank>  (7) 
0

$$$$

     RDKit          3D

 26 26  0  0  0  0  0  0  0  0999 V2000
    2.3583   11.8492   44.1001 C   0  0  2  0  0  0  0  0  0  0  0  0
    1.0857   12.2301   44.8504 C   0  0  2  0  0  0  0  0  0  0  0  0
    1.0134   11.4260   46.1448 C   0  0  1  0  0  0  0  0  0  0  0  0
    2.2828   11.6154   46.9797 C   0  0  1  0  0  0  0  0  0  0  0  0
    3.4882   11.2102   46.1335 C   0  0  2  0  0  0  0  0  0  0  0  0
    4.8197   11.4059   46.8240 C   0  0  0  0  0  0  0  0  0  0  0  0
    2.2259   10.5214   43.6799 O   0  0  0  0  0  0  0  0  0  0  0  0
   -0.0489   11.9594   44.0313 O   0  0  0  0  0  0  0  0  0  0  0  0
   -0.1590   11.7853   46.8755 O   0  0  0  0  0  0  0  0  0  0  0  0
    2.4289   12.9878   47.3557 O   0  0  0  0  0  0  0  0  0  0  0  0
    3.4985   12.0139   44.9345 O   0  0  0  0  0  0  0  0  0  0  0  0
    2.6177   10.3114   42.3154 C   0  0  0  0  0  0  0  0  0  0  0  0
    2.5009   12.5037   43.2276 H   0  0  0  0  0  0  0  0  0  0  0  0
    1.0960   13.3032   45.0924 H   0  0  0  0  0  0  0  0  0  0  0  0
    0.9480   10.3561   45.8974 H   0  0  0  0  0  0  0  0  0  0  0  0
    2.2153   10.9968   47.8868 H   0  0  0  0  0  0  0  0  0  0  0  0
    3.3770   10.1349   45.9302 H   0  0  0  0  0  0  0  0  0  0  0  0
    4.6741   11.3845   47.9141 H   0  0  0  0  0  0  0  0  0  0  0  0
    5.5073   10.5991   46.5300 H   0  0  0  0  0  0  0  0  0  0  0  0
    5.2461   12.3763   46.5300 H   0  0  0  0  0  0  0  0  0  0  0  0
   -0.8333   11.7722   44.6056 H   0  0  0  0  0  0  0  0  0  0  0  0
    0.0268   11.7284   47.8462 H   0  0  0  0  0  0  0  0  0  0  0  0
    2.4367   13.0604   48.3430 H   0  0  0  0  0  0  0  0  0  0  0  0
    3.5870    9.7920   42.2880 H   0  0  0  0  0  0  0  0  0  0  0  0
    1.8591    9.6990   41.8061 H   0  0  0  0  0  0  0  0  0  0  0  0
    2.7076   11.2823   41.8061 H   0  0  0  0  0  0  0  0  0  0  0  0
  1  2  1  0
  1  7  1  0
  1 11  1  0
  2  3  1  0
  2  8  1  0
  3  4  1  0
  3  9  1  0
  4  5  1  0
  4 10  1  0
  5  6  1  0
  5 11  1  0
  7 12  1  0
  1 13  1  6
  2 14  1  1
  3 15  1  6
  4 16  1  1
  5 17  1  6
  6 18  1  0
  6 19  1  0
  6 20  1  0
  8 21  1  0
  9 22  1  0
 10 23  1  0
 12 24  1  0
 12 25  1  0
 12 26  1  0
M  END
>  <filename_input>  (8) 
7P2I_MFU_docked.sdf

>  <pdb_id>  (8) 
7P2I_MFU

>  <pose_rank>  (8) 
7

>  <num_atoms_heavy>  (8) 
12

>  <num_torsions>  (8) 
1

>  <pose>  (8) 
[2.358269619852271, 11.849212493050619, 44.10013107893295, -3.0222045872063026, -0.16289495400927867, -4.024915438878202, -0.6986983813316741]

>  <energy>  (8) 
-239.07669344163187

>  <inter_energy>  (8) 
-237.7120946280983

>  <intra_energy>  (8) 
0.020706773426394712

>  <rmsd>  (8) 
5.42023

>  <sdf_rank>  (8) 
0

$$$$

     RDKit          3D

 26 26  0  0  0  0  0  0  0  0999 V2000
    0.4698   11.6821   44.5772 C   0  0  2  0  0  0  0  0  0  0  0  0
    0.4288   10.2415   44.0767 C   0  0  2  0  0  0  0  0  0  0  0  0
    1.8560    9.7581   43.8388 C   0  0  1  0  0  0  0  0  0  0  0  0
    2.7111    9.9330   45.0968 C   0  0  1  0  0  0  0  0  0  0  0  0
    2.6776   11.4035   45.5087 C   0  0  2  0  0  0  0  0  0  0  0  0
    3.4401   11.7050   46.7799 C   0  0  0  0  0  0  0  0  0  0  0  0
    0.9412   12.4846   43.5328 O   0  0  0  0  0  0  0  0  0  0  0  0
   -0.3266   10.1784   42.8697 O   0  0  0  0  0  0  0  0  0  0  0  0
    1.8420    8.4022   43.3928 O   0  0  0  0  0  0  0  0  0  0  0  0
    2.1836    9.1461   46.1685 O   0  0  0  0  0  0  0  0  0  0  0  0
    1.3034   11.7887   45.7250 O   0  0  0  0  0  0  0  0  0  0  0  0
    0.2345   13.7267   43.4018 C   0  0  0  0  0  0  0  0  0  0  0  0
   -0.5350   12.0137   44.8776 H   0  0  0  0  0  0  0  0  0  0  0  0
   -0.0513    9.5944   44.8255 H   0  0  0  0  0  0  0  0  0  0  0  0
    2.3146   10.3730   43.0503 H   0  0  0  0  0  0  0  0  0  0  0  0
    3.7405    9.6096   44.8828 H   0  0  0  0  0  0  0  0  0  0  0  0
    3.1591   11.9648   44.6944 H   0  0  0  0  0  0  0  0  0  0  0  0
    2.8145   11.4577   47.6502 H   0  0  0  0  0  0  0  0  0  0  0  0
    4.3604   11.1031   46.8069 H   0  0  0  0  0  0  0  0  0  0  0  0
    3.7000   12.7736   46.8069 H   0  0  0  0  0  0  0  0  0  0  0  0
   -1.2892   10.0979   43.0866 H   0  0  0  0  0  0  0  0  0  0  0  0
    1.8358    7.7972   44.1764 H   0  0  0  0  0  0  0  0  0  0  0  0
    2.4513    9.5454   47.0339 H   0  0  0  0  0  0  0  0  0  0  0  0
    0.0071   14.1263   44.4011 H   0  0  0  0  0  0  0  0  0  0  0  0
    0.8579   14.4471   42.8520 H   0  0  0  0  0  0  0  0  0  0  0  0
   -0.7033   13.5588   42.8520 H   0  0  0  0  0  0  0  0  0  0  0  0
  1  2  1  0
  1  7  1  0
  1 11  1  0
  2  3  1  0
  2  8  1  0
  3  4  1  0
  3  9  1  0
  4  5  1  0
  4 10  1  0
  5  6  1  0
  5 11  1  0
  7 12  1  0
  1 13  1  1
  2 14  1  1
  3 15  1  6
  4 16  1  6
  5 17  1  6
  6 18  1  0
  6 19  1  0
  6 20  1  0
  8 21  1  0
  9 22  1  0
 10 23  1  0
 12 24  1  0
 12 25  1  0
 12 26  1  0
M  END
>  <filename_input>  (9) 
7P2I_MFU_docked.sdf

>  <pdb_id>  (9) 
7P2I_MFU

>  <pose_rank>  (9) 
8

>  <num_atoms_heavy>  (9) 
12

>  <num_torsions>  (9) 
1

>  <pose>  (9) 
[0.4698430386712553, 11.682092588157706, 44.577244525959024, 2.203236095287675, -0.21153707536008542, 2.437259979545016, 5.654406967559454]

>  <energy>  (9) 
-217.5646636055396

>  <inter_energy>  (9) 
-216.38129114152048

>  <intra_energy>  (9) 
0.0

>  <rmsd>  (9) 
6.43934

>  <sdf_rank>  (9) 
0

$$$$

     RDKit          3D

 26 26  0  0  0  0  0  0  0  0999 V2000
    0.5762   12.5046   42.9422 C   0  0  2  0  0  0  0  0  0  0  0  0
    1.6521   13.5277   43.2934 C   0  0  2  0  0  0  0  0  0  0  0  0
    1.7121   13.6837   44.8098 C   0  0  1  0  0  0  0  0  0  0  0  0
    1.9246   12.3298   45.4924 C   0  0  1  0  0  0  0  0  0  0  0  0
    0.7989   11.3880   45.0690 C   0  0  2  0  0  0  0  0  0  0  0  0
    0.9220    9.9888   45.6303 C   0  0  0  0  0  0  0  0  0  0  0  0
   -0.6640   13.0527   43.2867 O   0  0  0  0  0  0  0  0  0  0  0  0
    1.3430   14.7745   42.6758 O   0  0  0  0  0  0  0  0  0  0  0  0
    2.7307   14.6195   45.1622 O   0  0  0  0  0  0  0  0  0  0  0  0
    3.1730   11.7607   45.0877 O   0  0  0  0  0  0  0  0  0  0  0  0
    0.8070   11.2808   43.6295 O   0  0  0  0  0  0  0  0  0  0  0  0
   -1.5410   13.2335   42.1652 C   0  0  0  0  0  0  0  0  0  0  0  0
    0.5975   12.2781   41.8660 H   0  0  0  0  0  0  0  0  0  0  0  0
    2.6317   13.1874   42.9266 H   0  0  0  0  0  0  0  0  0  0  0  0
    0.7485   14.0761   45.1669 H   0  0  0  0  0  0  0  0  0  0  0  0
    1.9278   12.4708   46.5833 H   0  0  0  0  0  0  0  0  0  0  0  0
   -0.1323   11.8208   45.4633 H   0  0  0  0  0  0  0  0  0  0  0  0
    0.9181   10.0330   46.7294 H   0  0  0  0  0  0  0  0  0  0  0  0
    0.0740    9.3792   45.2848 H   0  0  0  0  0  0  0  0  0  0  0  0
    1.8634    9.5366   45.2848 H   0  0  0  0  0  0  0  0  0  0  0  0
    1.1742   15.4557   43.3741 H   0  0  0  0  0  0  0  0  0  0  0  0
    2.7965   14.6800   46.1482 H   0  0  0  0  0  0  0  0  0  0  0  0
    3.7013   11.5199   45.8896 H   0  0  0  0  0  0  0  0  0  0  0  0
   -2.5589   13.4433   42.5257 H   0  0  0  0  0  0  0  0  0  0  0  0
   -1.1869   14.0776   41.5551 H   0  0  0  0  0  0  0  0  0  0  0  0
   -1.5495   12.3183   41.5551 H   0  0  0  0  0  0  0  0  0  0  0  0
  1  2  1  0
  1  7  1  0
  1 11  1  0
  2  3  1  0
  2  8  1  0
  3  4  1  0
  3  9  1  0
  4  5  1  0
  4 10  1  0
  5  6  1  0
  5 11  1  0
  7 12  1  0
  1 13  1  6
  2 14  1  6
  3 15  1  1
  4 16  1  1
  5 17  1  1
  6 18  1  0
  6 19  1  0
  6 20  1  0
  8 21  1  0
  9 22  1  0
 10 23  1  0
 12 24  1  0
 12 25  1  0
 12 26  1  0
M  END
>  <filename_input>  (10) 
7P2I_MFU_docked.sdf

>  <pdb_id>  (10) 
7P2I_MFU

>  <pose_rank>  (10) 
9

>  <num_atoms_heavy>  (10) 
12

>  <num_torsions>  (10) 
1

>  <pose>  (10) 
[0.5761581394405976, 12.504627555910298, 42.94220489672353, 2.3838174221364943, -0.10774877629971012, -6.862246764330678, 5.292663759168638]

>  <energy>  (10) 
-205.90637910130005

>  <inter_energy>  (10) 
-203.75635105615788

>  <intra_energy>  (10) 
2.5304576236132363

>  <rmsd>  (10) 
4.29734

>  <sdf_rank>  (10) 
0

$$$$

     RDKit          3D

 26 26  0  0  0  0  0  0  0  0999 V2000
   -2.1866   16.0157   40.8983 C   0  0  2  0  0  0  0  0  0  0  0  0
   -1.0414   15.0131   40.7940 C   0  0  2  0  0  0  0  0  0  0  0  0
    0.1633   15.5548   41.5574 C   0  0  1  0  0  0  0  0  0  0  0  0
   -0.2103   15.8922   43.0034 C   0  0  1  0  0  0  0  0  0  0  0  0
   -1.3627   16.8947   42.9882 C   0  0  2  0  0  0  0  0  0  0  0  0
   -1.8710   17.2703   44.3625 C   0  0  0  0  0  0  0  0  0  0  0  0
   -1.8141   17.1654   40.1934 O   0  0  0  0  0  0  0  0  0  0  0  0
   -0.7115   14.8082   39.4226 O   0  0  0  0  0  0  0  0  0  0  0  0
    1.2398   14.6197   41.4935 O   0  0  0  0  0  0  0  0  0  0  0  0
   -0.6384   14.7143   43.6928 O   0  0  0  0  0  0  0  0  0  0  0  0
   -2.4662   16.3149   42.2605 O   0  0  0  0  0  0  0  0  0  0  0  0
   -2.8674   17.7052   39.3817 C   0  0  0  0  0  0  0  0  0  0  0  0
   -3.1065   15.5952   40.4659 H   0  0  0  0  0  0  0  0  0  0  0  0
   -1.3416   14.0492   41.2307 H   0  0  0  0  0  0  0  0  0  0  0  0
    0.4945   16.4909   41.0841 H   0  0  0  0  0  0  0  0  0  0  0  0
    0.6677   16.3125   43.5156 H   0  0  0  0  0  0  0  0  0  0  0  0
   -0.9715   17.8100   42.5200 H   0  0  0  0  0  0  0  0  0  0  0  0
   -1.2364   16.8014   45.1290 H   0  0  0  0  0  0  0  0  0  0  0  0
   -1.8395   18.3636   44.4790 H   0  0  0  0  0  0  0  0  0  0  0  0
   -2.9069   16.9188   44.4790 H   0  0  0  0  0  0  0  0  0  0  0  0
    0.1278   14.2870   39.3594 H   0  0  0  0  0  0  0  0  0  0  0  0
    1.5203   14.3762   42.4111 H   0  0  0  0  0  0  0  0  0  0  0  0
   -0.5835   14.8653   44.6697 H   0  0  0  0  0  0  0  0  0  0  0  0
   -3.6584   18.1107   40.0297 H   0  0  0  0  0  0  0  0  0  0  0  0
   -2.4658   18.5086   38.7467 H   0  0  0  0  0  0  0  0  0  0  0  0
   -3.2852   16.9101   38.7467 H   0  0  0  0  0  0  0  0  0  0  0  0
  1  2  1  0
  1  7  1  0
  1 11  1  0
  2  3  1  0
  2  8  1  0
  3  4  1  0
  3  9  1  0
  4  5  1  0
  4 10  1  0
  5  6  1  0
  5 11  1  0
  7 12  1  0
  1 13  1  6
  2 14  1  1
  3 15  1  6
  4 16  1  1
  5 17  1  6
  6 18  1  0
  6 19  1  0
  6 20  1  0
  8 21  1  0
  9 22  1  0
 10 23  1  0
 12 24  1  0
 12 25  1  0
 12 26  1  0
M  END
>  <filename_input>  (11) 
7P2I_MFU_docked.sdf

>  <pdb_id>  (11) 
7P2I_MFU

>  <pose_rank>  (11) 
10

>  <num_atoms_heavy>  (11) 
12

>  <num_torsions>  (11) 
1

>  <pose>  (11) 
[-2.1865775817095026, 16.015724375672562, 40.89825257310427, -0.9359211197944196, -0.4979239147245752, -2.190381941810549, -0.6535989712207696]

>  <energy>  (11) 
-206.63338960529046

>  <inter_energy>  (11) 
-202.94975236314716

>  <intra_energy>  (11) 
0.0

>  <rmsd>  (11) 
4.59995

>  <sdf_rank>  (11) 
0

$$$$

     RDKit          3D

 26 26  0  0  0  0  0  0  0  0999 V2000
    3.3021    9.9533   44.0439 C   0  0  2  0  0  0  0  0  0  0  0  0
    2.6937    9.0821   45.1386 C   0  0  2  0  0  0  0  0  0  0  0  0
    2.9525    9.7345   46.4931 C   0  0  1  0  0  0  0  0  0  0  0  0
    2.4358   11.1757   46.5153 C   0  0  1  0  0  0  0  0  0  0  0  0
    3.1042   11.9510   45.3816 C   0  0  2  0  0  0  0  0  0  0  0  0
    2.6348   13.3834   45.2541 C   0  0  0  0  0  0  0  0  0  0  0  0
    4.6929    9.9151   44.1903 O   0  0  0  0  0  0  0  0  0  0  0  0
    3.2769    7.7824   45.0917 O   0  0  0  0  0  0  0  0  0  0  0  0
    2.3694    8.9473   47.5312 O   0  0  0  0  0  0  0  0  0  0  0  0
    1.0201   11.1982   46.3118 O   0  0  0  0  0  0  0  0  0  0  0  0
    2.8112   11.2853   44.1348 O   0  0  0  0  0  0  0  0  0  0  0  0
    5.3987    9.8710   42.9415 C   0  0  0  0  0  0  0  0  0  0  0  0
    3.0215    9.5743   43.0502 H   0  0  0  0  0  0  0  0  0  0  0  0
    1.6086    8.9857   44.9860 H   0  0  0  0  0  0  0  0  0  0  0  0
    4.0379    9.7795   46.6663 H   0  0  0  0  0  0  0  0  0  0  0  0
    2.6686   11.6288   47.4902 H   0  0  0  0  0  0  0  0  0  0  0  0
    4.1790   11.9758   45.6144 H   0  0  0  0  0  0  0  0  0  0  0  0
    2.4938   13.8137   46.2565 H   0  0  0  0  0  0  0  0  0  0  0  0
    3.3882   13.9687   44.7064 H   0  0  0  0  0  0  0  0  0  0  0  0
    1.6812   13.4093   44.7064 H   0  0  0  0  0  0  0  0  0  0  0  0
    3.4244    7.4535   46.0138 H   0  0  0  0  0  0  0  0  0  0  0  0
    2.6386    9.3108   48.4119 H   0  0  0  0  0  0  0  0  0  0  0  0
    0.5607   11.2055   47.1887 H   0  0  0  0  0  0  0  0  0  0  0  0
    6.4797    9.8035   43.1335 H   0  0  0  0  0  0  0  0  0  0  0  0
    5.0726    8.9915   42.3669 H   0  0  0  0  0  0  0  0  0  0  0  0
    5.1846   10.7843   42.3669 H   0  0  0  0  0  0  0  0  0  0  0  0
  1  2  1  0
  1  7  1  0
  1 11  1  0
  2  3  1  0
  2  8  1  0
  3  4  1  0
  3  9  1  0
  4  5  1  0
  4 10  1  0
  5  6  1  0
  5 11  1  0
  7 12  1  0
  1 13  1  6
  2 14  1  6
  3 15  1  1
  4 16  1  1
  5 17  1  1
  6 18  1  0
  6 19  1  0
  6 20  1  0
  8 21  1  0
  9 22  1  0
 10 23  1  0
 12 24  1  0
 12 25  1  0
 12 26  1  0
M  END
>  <filename_input>  (12) 
7P2I_MFU_docked.sdf

>  <pdb_id>  (12) 
7P2I_MFU

>  <pose_rank>  (12) 
11

>  <num_atoms_heavy>  (12) 
12

>  <num_torsions>  (12) 
1

>  <pose>  (12) 
[3.302096776269735, 9.953337028211433, 44.043917238176256, 0.060250767896364715, -1.676066963330651, -3.3188154178914475, 5.705663562013259]

>  <energy>  (12) 
-203.80156504940035

>  <inter_energy>  (12) 
-190.33047055497374

>  <intra_energy>  (12) 
0.0

>  <rmsd>  (12) 
7.31955

>  <sdf_rank>  (12) 
0

$$$$

     RDKit          3D

 26 26  0  0  0  0  0  0  0  0999 V2000
    1.1009   10.8747   43.1462 C   0  0  2  0  0  0  0  0  0  0  0  0
    1.2683   12.3465   42.7810 C   0  0  2  0  0  0  0  0  0  0  0  0
    1.1651   13.1873   44.0498 C   0  0  1  0  0  0  0  0  0  0  0  0
    2.1672   12.7123   45.1055 C   0  0  1  0  0  0  0  0  0  0  0  0
    1.9120   11.2333   45.3896 C   0  0  2  0  0  0  0  0  0  0  0  0
    2.8781   10.6202   46.3791 C   0  0  0  0  0  0  0  0  0  0  0  0
   -0.2154   10.6893   43.5823 O   0  0  0  0  0  0  0  0  0  0  0  0
    0.2577   12.7237   41.8494 O   0  0  0  0  0  0  0  0  0  0  0  0
    1.3438   14.5678   43.7339 O   0  0  0  0  0  0  0  0  0  0  0  0
    3.5051   12.8605   44.6215 O   0  0  0  0  0  0  0  0  0  0  0  0
    2.0342   10.5002   44.1522 O   0  0  0  0  0  0  0  0  0  0  0  0
   -0.7328    9.3809   43.2998 C   0  0  0  0  0  0  0  0  0  0  0  0
    1.2971   10.2367   42.2719 H   0  0  0  0  0  0  0  0  0  0  0  0
    2.2522   12.5117   42.3177 H   0  0  0  0  0  0  0  0  0  0  0  0
    0.1607   13.0620   44.4805 H   0  0  0  0  0  0  0  0  0  0  0  0
    2.0437   13.3135   46.0183 H   0  0  0  0  0  0  0  0  0  0  0  0
    0.9057   11.1711   45.8294 H   0  0  0  0  0  0  0  0  0  0  0  0
    2.5394   10.8351   47.4033 H   0  0  0  0  0  0  0  0  0  0  0  0
    2.9173    9.5315   46.2267 H   0  0  0  0  0  0  0  0  0  0  0  0
    3.8799   11.0481   46.2267 H   0  0  0  0  0  0  0  0  0  0  0  0
   -0.5478   13.0244   42.3401 H   0  0  0  0  0  0  0  0  0  0  0  0
    1.4116   15.0918   44.5712 H   0  0  0  0  0  0  0  0  0  0  0  0
    4.1276   12.9295   45.3883 H   0  0  0  0  0  0  0  0  0  0  0  0
   -0.9401    8.8567   44.2443 H   0  0  0  0  0  0  0  0  0  0  0  0
   -1.6627    9.4718   42.7192 H   0  0  0  0  0  0  0  0  0  0  0  0
    0.0077    8.8112   42.7192 H   0  0  0  0  0  0  0  0  0  0  0  0
  1  2  1  0
  1  7  1  0
  1 11  1  0
  2  3  1  0
  2  8  1  0
  3  4  1  0
  3  9  1  0
  4  5  1  0
  4 10  1  0
  5  6  1  0
  5 11  1  0
  7 12  1  0
  1 13  1  6
  2 14  1  6
  3 15  1  1
  4 16  1  1
  5 17  1  1
  6 18  1  0
  6 19  1  0
  6 20  1  0
  8 21  1  0
  9 22  1  0
 10 23  1  0
 12 24  1  0
 12 25  1  0
 12 26  1  0
M  END
>  <filename_input>  (13) 
7P2I_MFU_docked.sdf

>  <pdb_id>  (13) 
7P2I_MFU

>  <pose_rank>  (13) 
12

>  <num_atoms_heavy>  (13) 
12

>  <num_torsions>  (13) 
1

>  <pose>  (13) 
[1.1008580793300544, 10.874729031421028, 43.146189743815, -3.846095517911713, 0.014611432260951827, -5.345722004520312, -0.4387978849656189]

>  <energy>  (13) 
-190.58625540647765

>  <inter_energy>  (13) 
-181.7945563733347

>  <intra_energy>  (13) 
0.0

>  <rmsd>  (13) 
4.69736

>  <sdf_rank>  (13) 
0

$$$$

     RDKit          3D

 26 26  0  0  0  0  0  0  0  0999 V2000
   -3.2104   15.0703   39.7066 C   0  0  2  0  0  0  0  0  0  0  0  0
   -1.9892   15.7310   40.3388 C   0  0  2  0  0  0  0  0  0  0  0  0
   -2.4229   16.4703   41.6009 C   0  0  1  0  0  0  0  0  0  0  0  0
   -3.1624   15.5325   42.5590 C   0  0  1  0  0  0  0  0  0  0  0  0
   -4.3570   14.9273   41.8242 C   0  0  2  0  0  0  0  0  0  0  0  0
   -5.1448   13.9302   42.6448 C   0  0  0  0  0  0  0  0  0  0  0  0
   -4.0548   16.0855   39.2443 O   0  0  0  0  0  0  0  0  0  0  0  0
   -1.4023   16.6364   39.4076 O   0  0  0  0  0  0  0  0  0  0  0  0
   -1.2900   17.0763   42.2229 O   0  0  0  0  0  0  0  0  0  0  0  0
   -2.2995   14.4720   42.9796 O   0  0  0  0  0  0  0  0  0  0  0  0
   -3.8738   14.2389   40.6511 O   0  0  0  0  0  0  0  0  0  0  0  0
   -4.3132   16.0170   37.8344 C   0  0  0  0  0  0  0  0  0  0  0  0
   -2.9081   14.4263   38.8676 H   0  0  0  0  0  0  0  0  0  0  0  0
   -1.2424   14.9688   40.6058 H   0  0  0  0  0  0  0  0  0  0  0  0
   -3.1281   17.2675   41.3233 H   0  0  0  0  0  0  0  0  0  0  0  0
   -3.4922   16.1019   43.4405 H   0  0  0  0  0  0  0  0  0  0  0  0
   -5.0306   15.7636   41.5858 H   0  0  0  0  0  0  0  0  0  0  0  0
   -4.9869   14.1300   43.7149 H   0  0  0  0  0  0  0  0  0  0  0  0
   -6.2148   14.0246   42.4081 H   0  0  0  0  0  0  0  0  0  0  0  0
   -4.8054   12.9110   42.4081 H   0  0  0  0  0  0  0  0  0  0  0  0
   -0.9346   17.3578   39.8986 H   0  0  0  0  0  0  0  0  0  0  0  0
   -1.3867   17.0245   43.2068 H   0  0  0  0  0  0  0  0  0  0  0  0
   -2.2736   14.4402   43.9687 H   0  0  0  0  0  0  0  0  0  0  0  0
   -5.3642   15.7385   37.6674 H   0  0  0  0  0  0  0  0  0  0  0  0
   -4.1168   16.9981   37.3775 H   0  0  0  0  0  0  0  0  0  0  0  0
   -3.6568   15.2618   37.3775 H   0  0  0  0  0  0  0  0  0  0  0  0
  1  2  1  0
  1  7  1  0
  1 11  1  0
  2  3  1  0
  2  8  1  0
  3  4  1  0
  3  9  1  0
  4  5  1  0
  4 10  1  0
  5  6  1  0
  5 11  1  0
  7 12  1  0
  1 13  1  6
  2 14  1  1
  3 15  1  6
  4 16  1  1
  5 17  1  6
  6 18  1  0
  6 19  1  0
  6 20  1  0
  8 21  1  0
  9 22  1  0
 10 23  1  0
 12 24  1  0
 12 25  1  0
 12 26  1  0
M  END
>  <filename_input>  (14) 
7P2I_MFU_docked.sdf

>  <pdb_id>  (14) 
7P2I_MFU

>  <pose_rank>  (14) 
13

>  <num_atoms_heavy>  (14) 
12

>  <num_torsions>  (14) 
1

>  <pose>  (14) 
[-3.2103705269976257, 15.070289946257535, 39.70655802835995, 0.2211230767961207, -0.7050149276068101, -1.2461254261958101, -0.9305797939916305]

>  <energy>  (14) 
-189.5324155630989

>  <inter_energy>  (14) 
-193.6670938833669

>  <intra_energy>  (14) 
1.6373496910724137

>  <rmsd>  (14) 
6.02982

>  <sdf_rank>  (14) 
0

$$$$

     RDKit          3D

 26 26  0  0  0  0  0  0  0  0999 V2000
    2.7065   10.5574   42.8271 C   0  0  2  0  0  0  0  0  0  0  0  0
    1.3362    9.9193   42.6210 C   0  0  2  0  0  0  0  0  0  0  0  0
    0.7510    9.5507   43.9808 C   0  0  1  0  0  0  0  0  0  0  0  0
    0.7138   10.7673   44.9097 C   0  0  1  0  0  0  0  0  0  0  0  0
    2.1299   11.3248   45.0403 C   0  0  2  0  0  0  0  0  0  0  0  0
    2.2251   12.5725   45.8902 C   0  0  0  0  0  0  0  0  0  0  0  0
    3.5671    9.5720   43.3227 O   0  0  0  0  0  0  0  0  0  0  0  0
    1.4696    8.7586   41.8046 O   0  0  0  0  0  0  0  0  0  0  0  0
   -0.5437    8.9737   43.8126 O   0  0  0  0  0  0  0  0  0  0  0  0
   -0.1291   11.7846   44.3612 O   0  0  0  0  0  0  0  0  0  0  0  0
    2.6152   11.6590   43.7225 O   0  0  0  0  0  0  0  0  0  0  0  0
    4.6068    9.2057   42.4038 C   0  0  0  0  0  0  0  0  0  0  0  0
    3.0961   10.9480   41.8754 H   0  0  0  0  0  0  0  0  0  0  0  0
    0.6612   10.6270   42.1175 H   0  0  0  0  0  0  0  0  0  0  0  0
    1.4001    8.8017   44.4579 H   0  0  0  0  0  0  0  0  0  0  0  0
    0.3211   10.4619   45.8908 H   0  0  0  0  0  0  0  0  0  0  0  0
    2.7266   10.5435   45.5336 H   0  0  0  0  0  0  0  0  0  0  0  0
    2.2039   12.2939   46.9541 H   0  0  0  0  0  0  0  0  0  0  0  0
    3.1660   13.0971   45.6673 H   0  0  0  0  0  0  0  0  0  0  0  0
    1.3749   13.2338   45.6673 H   0  0  0  0  0  0  0  0  0  0  0  0
    1.5615    7.9587   42.3807 H   0  0  0  0  0  0  0  0  0  0  0  0
   -0.9435    8.7955   44.7006 H   0  0  0  0  0  0  0  0  0  0  0  0
   -0.5519   12.2949   45.0967 H   0  0  0  0  0  0  0  0  0  0  0  0
    5.4988    8.8914   42.9657 H   0  0  0  0  0  0  0  0  0  0  0  0
    4.2608    8.3753   41.7707 H   0  0  0  0  0  0  0  0  0  0  0  0
    4.8579   10.0695   41.7707 H   0  0  0  0  0  0  0  0  0  0  0  0
  1  2  1  0
  1  7  1  0
  1 11  1  0
  2  3  1  0
  2  8  1  0
  3  4  1  0
  3  9  1  0
  4  5  1  0
  4 10  1  0
  5  6  1  0
  5 11  1  0
  7 12  1  0
  1 13  1  6
  2 14  1  6
  3 15  1  1
  4 16  1  1
  5 17  1  1
  6 18  1  0
  6 19  1  0
  6 20  1  0
  8 21  1  0
  9 22  1  0
 10 23  1  0
 12 24  1  0
 12 25  1  0
 12 26  1  0
M  END
>  <filename_input>  (15) 
7P2I_MFU_docked.sdf

>  <pdb_id>  (15) 
7P2I_MFU

>  <pose_rank>  (15) 
14

>  <num_atoms_heavy>  (15) 
12

>  <num_torsions>  (15) 
1

>  <pose>  (15) 
[2.706549543919384, 10.557424042355306, 42.82712835047961, 0.2824158766959031, 0.06394608502250537, -4.405399040371734, 5.205433554547802]

>  <energy>  (15) 
-191.05298655274376

>  <inter_energy>  (15) 
-192.63116092631608

>  <intra_energy>  (15) 
4.2169376743962275

>  <rmsd>  (15) 
6.79918

>  <sdf_rank>  (15) 
0

$$$$

     RDKit          3D

 26 26  0  0  0  0  0  0  0  0999 V2000
    0.2734   11.8436   43.9917 C   0  0  2  0  0  0  0  0  0  0  0  0
    1.5458   11.1427   43.5256 C   0  0  2  0  0  0  0  0  0  0  0  0
    2.6009   11.2488   44.6224 C   0  0  1  0  0  0  0  0  0  0  0  0
    2.0675   10.7053   45.9507 C   0  0  1  0  0  0  0  0  0  0  0  0
    0.7979   11.4716   46.3168 C   0  0  2  0  0  0  0  0  0  0  0  0
    0.1323   10.9907   47.5871 C   0  0  0  0  0  0  0  0  0  0  0  0
    0.5475   13.2125   44.0819 O   0  0  0  0  0  0  0  0  0  0  0  0
    2.0123   11.7522   42.3246 O   0  0  0  0  0  0  0  0  0  0  0  0
    3.7933   10.5774   44.2165 O   0  0  0  0  0  0  0  0  0  0  0  0
    1.7435    9.3178   45.8246 O   0  0  0  0  0  0  0  0  0  0  0  0
   -0.1552   11.3207   45.2432 O   0  0  0  0  0  0  0  0  0  0  0  0
   -0.5398   14.0434   43.6495 C   0  0  0  0  0  0  0  0  0  0  0  0
   -0.5438   11.6736   43.2753 H   0  0  0  0  0  0  0  0  0  0  0  0
    1.3407   10.0811   43.3237 H   0  0  0  0  0  0  0  0  0  0  0  0
    2.8433   12.3097   44.7833 H   0  0  0  0  0  0  0  0  0  0  0  0
    2.8368   10.8282   46.7273 H   0  0  0  0  0  0  0  0  0  0  0  0
    1.1020   12.5162   46.4790 H   0  0  0  0  0  0  0  0  0  0  0  0
    0.6769   11.3842   48.4581 H   0  0  0  0  0  0  0  0  0  0  0  0
   -0.9081   11.3469   47.6136 H   0  0  0  0  0  0  0  0  0  0  0  0
    0.1441    9.8910   47.6136 H   0  0  0  0  0  0  0  0  0  0  0  0
    2.5983   12.5179   42.5492 H   0  0  0  0  0  0  0  0  0  0  0  0
    4.3002   10.2919   45.0176 H   0  0  0  0  0  0  0  0  0  0  0  0
    1.6500    8.9175   46.7252 H   0  0  0  0  0  0  0  0  0  0  0  0
   -1.0658   14.4454   44.5279 H   0  0  0  0  0  0  0  0  0  0  0  0
   -0.1481   14.8745   43.0446 H   0  0  0  0  0  0  0  0  0  0  0  0
   -1.2388   13.4472   43.0446 H   0  0  0  0  0  0  0  0  0  0  0  0
  1  2  1  0
  1  7  1  0
  1 11  1  0
  2  3  1  0
  2  8  1  0
  3  4  1  0
  3  9  1  0
  4  5  1  0
  4 10  1  0
  5  6  1  0
  5 11  1  0
  7 12  1  0
  1 13  1  6
  2 14  1  6
  3 15  1  1
  4 16  1  1
  5 17  1  1
  6 18  1  0
  6 19  1  0
  6 20  1  0
  8 21  1  0
  9 22  1  0
 10 23  1  0
 12 24  1  0
 12 25  1  0
 12 26  1  0
M  END
>  <filename_input>  (16) 
7P2I_MFU_docked.sdf

>  <pdb_id>  (16) 
7P2I_MFU

>  <pose_rank>  (16) 
15

>  <num_atoms_heavy>  (16) 
12

>  <num_torsions>  (16) 
1

>  <pose>  (16) 
[0.27339046124770033, 11.843566527885047, 43.991678298530495, -0.45555982941327583, 0.04773073796432267, -2.121588059760618, 5.710938616032236]

>  <energy>  (16) 
-241.1121366620402

>  <inter_energy>  (16) 
-232.34138122834534

>  <intra_energy>  (16) 
0.0

>  <rmsd>  (16) 
5.9014

>  <sdf_rank>  (16) 
0

$$$$

     RDKit          3D

 26 26  0  0  0  0  0  0  0  0999 V2000
    4.0374   10.5949   45.7294 C   0  0  2  0  0  0  0  0  0  0  0  0
    3.3551   11.3487   44.5921 C   0  0  2  0  0  0  0  0  0  0  0  0
    2.1069   10.5815   44.1669 C   0  0  1  0  0  0  0  0  0  0  0  0
    1.1829   10.3320   45.3620 C   0  0  1  0  0  0  0  0  0  0  0  0
    1.9664    9.5791   46.4356 C   0  0  2  0  0  0  0  0  0  0  0  0
    1.1820    9.3188   47.7025 C   0  0  0  0  0  0  0  0  0  0  0  0
    4.5266    9.3908   45.2117 O   0  0  0  0  0  0  0  0  0  0  0  0
    4.2582   11.4774   43.4970 O   0  0  0  0  0  0  0  0  0  0  0  0
    1.4385   11.2830   43.1187 O   0  0  0  0  0  0  0  0  0  0  0  0
    0.7348   11.5748   45.9104 O   0  0  0  0  0  0  0  0  0  0  0  0
    3.1235   10.3638   46.7947 O   0  0  0  0  0  0  0  0  0  0  0  0
    5.7885    8.9982   45.7711 C   0  0  0  0  0  0  0  0  0  0  0  0
    4.8674   11.1882   46.1407 H   0  0  0  0  0  0  0  0  0  0  0  0
    3.0634   12.3552   44.9267 H   0  0  0  0  0  0  0  0  0  0  0  0
    2.4074    9.5959   43.7817 H   0  0  0  0  0  0  0  0  0  0  0  0
    0.3119    9.7477   45.0306 H   0  0  0  0  0  0  0  0  0  0  0  0
    2.2262    8.6021   46.0021 H   0  0  0  0  0  0  0  0  0  0  0  0
    1.8162    9.5293   48.5762 H   0  0  0  0  0  0  0  0  0  0  0  0
    0.2968    9.9714   47.7263 H   0  0  0  0  0  0  0  0  0  0  0  0
    0.8625    8.2665   47.7263 H   0  0  0  0  0  0  0  0  0  0  0  0
    5.1773   11.6083   43.8409 H   0  0  0  0  0  0  0  0  0  0  0  0
    0.8112   11.9414   43.5100 H   0  0  0  0  0  0  0  0  0  0  0  0
    0.7528   11.5249   46.8990 H   0  0  0  0  0  0  0  0  0  0  0  0
    5.7249    9.0180   46.8691 H   0  0  0  0  0  0  0  0  0  0  0  0
    6.0371    7.9802   45.4366 H   0  0  0  0  0  0  0  0  0  0  0  0
    6.5708    9.6954   45.4366 H   0  0  0  0  0  0  0  0  0  0  0  0
  1  2  1  0
  1  7  1  0
  1 11  1  0
  2  3  1  0
  2  8  1  0
  3  4  1  0
  3  9  1  0
  4  5  1  0
  4 10  1  0
  5  6  1  0
  5 11  1  0
  7 12  1  0
  1 13  1  1
  2 14  1  1
  3 15  1  6
  4 16  1  6
  5 17  1  6
  6 18  1  0
  6 19  1  0
  6 20  1  0
  8 21  1  0
  9 22  1  0
 10 23  1  0
 12 24  1  0
 12 25  1  0
 12 26  1  0
M  END
>  <filename_input>  (17) 
7P2I_MFU_docked.sdf

>  <pdb_id>  (17) 
7P2I_MFU

>  <pose_rank>  (17) 
16

>  <num_atoms_heavy>  (17) 
12

>  <num_torsions>  (17) 
1

>  <pose>  (17) 
[4.037397446670548, 10.594871577438655, 45.729433417176374, 0.008702534545124128, -1.5767233669047238, 1.1437451375983132, 5.7357748664033155]

>  <energy>  (17) 
-188.5075707293846

>  <inter_energy>  (17) 
-177.69425419232002

>  <intra_energy>  (17) 
0.0

>  <rmsd>  (17) 
7.00046

>  <sdf_rank>  (17) 
0

$$$$

     RDKit          3D

 26 26  0  0  0  0  0  0  0  0999 V2000
    0.6523   11.5571   43.4312 C   0  0  2  0  0  0  0  0  0  0  0  0
   -0.3326   10.7588   42.5827 C   0  0  2  0  0  0  0  0  0  0  0  0
   -1.4157   11.6992   42.0631 C   0  0  1  0  0  0  0  0  0  0  0  0
   -0.8000   12.8841   41.3140 C   0  0  1  0  0  0  0  0  0  0  0  0
    0.1669   13.6047   42.2516 C   0  0  2  0  0  0  0  0  0  0  0  0
    0.8925   14.7683   41.6132 C   0  0  0  0  0  0  0  0  0  0  0  0
   -0.0212   11.9837   44.5808 O   0  0  0  0  0  0  0  0  0  0  0  0
   -0.9096    9.7218   43.3722 O   0  0  0  0  0  0  0  0  0  0  0  0
   -2.3356   10.9765   41.2452 O   0  0  0  0  0  0  0  0  0  0  0  0
   -0.0718   12.4245   40.1718 O   0  0  0  0  0  0  0  0  0  0  0  0
    1.1652   12.6612   42.6954 O   0  0  0  0  0  0  0  0  0  0  0  0
    0.8422   12.1800   45.7101 C   0  0  0  0  0  0  0  0  0  0  0  0
    1.5120   10.9316   43.7135 H   0  0  0  0  0  0  0  0  0  0  0  0
    0.1881   10.3013   41.7285 H   0  0  0  0  0  0  0  0  0  0  0  0
   -1.9701   12.1126   42.9185 H   0  0  0  0  0  0  0  0  0  0  0  0
   -1.6024   13.5602   40.9837 H   0  0  0  0  0  0  0  0  0  0  0  0
   -0.4415   14.0071   43.0750 H   0  0  0  0  0  0  0  0  0  0  0  0
    1.2999   15.4218   42.3987 H   0  0  0  0  0  0  0  0  0  0  0  0
    1.7147   14.3895   40.9884 H   0  0  0  0  0  0  0  0  0  0  0  0
    0.1904   15.3399   40.9884 H   0  0  0  0  0  0  0  0  0  0  0  0
   -0.7918    9.9335   44.3321 H   0  0  0  0  0  0  0  0  0  0  0  0
   -2.9688   10.4790   41.8211 H   0  0  0  0  0  0  0  0  0  0  0  0
    0.7265   11.9207   40.4702 H   0  0  0  0  0  0  0  0  0  0  0  0
    0.2671   12.0492   46.6386 H   0  0  0  0  0  0  0  0  0  0  0  0
    1.6599   11.4448   45.6787 H   0  0  0  0  0  0  0  0  0  0  0  0
    1.2616   13.1964   45.6787 H   0  0  0  0  0  0  0  0  0  0  0  0
  1  2  1  0
  1  7  1  0
  1 11  1  0
  2  3  1  0
  2  8  1  0
  3  4  1  0
  3  9  1  0
  4  5  1  0
  4 10  1  0
  5  6  1  0
  5 11  1  0
  7 12  1  0
  1 13  1  1
  2 14  1  6
  3 15  1  1
  4 16  1  6
  5 17  1  1
  6 18  1  0
  6 19  1  0
  6 20  1  0
  8 21  1  0
  9 22  1  0
 10 23  1  0
 12 24  1  0
 12 25  1  0
 12 26  1  0
M  END
>  <filename_input>  (18) 
7P2I_MFU_docked.sdf

>  <pdb_id>  (18) 
7P2I_MFU

>  <pose_rank>  (18) 
17

>  <num_atoms_heavy>  (18) 
12

>  <num_torsions>  (18) 
1

>  <pose>  (18) 
[0.6523019421209146, 11.557125724249461, 43.431194644038726, 3.7530512149155744, -0.7154170321926072, -1.7252727372404688, 5.905125822198576]

>  <energy>  (18) 
-185.35708260626575

>  <inter_energy>  (18) 
-174.266487047389

>  <intra_energy>  (18) 
0.0

>  <rmsd>  (18) 
5.98555

>  <sdf_rank>  (18) 
0

$$$$

     RDKit          3D

 26 26  0  0  0  0  0  0  0  0999 V2000
   -3.4481   14.6560   38.7649 C   0  0  2  0  0  0  0  0  0  0  0  0
   -2.2492   15.5617   38.5007 C   0  0  2  0  0  0  0  0  0  0  0  0
   -2.0122   16.4407   39.7249 C   0  0  1  0  0  0  0  0  0  0  0  0
   -1.8562   15.5904   40.9886 C   0  0  1  0  0  0  0  0  0  0  0  0
   -3.1045   14.7253   41.1516 C   0  0  2  0  0  0  0  0  0  0  0  0
   -3.0541   13.7880   42.3378 C   0  0  0  0  0  0  0  0  0  0  0  0
   -4.5870   15.4650   38.8401 O   0  0  0  0  0  0  0  0  0  0  0  0
   -2.5039   16.3655   37.3516 O   0  0  0  0  0  0  0  0  0  0  0  0
   -0.8781   17.2800   39.5085 O   0  0  0  0  0  0  0  0  0  0  0  0
   -0.7176   14.7324   40.8717 O   0  0  0  0  0  0  0  0  0  0  0  0
   -3.2611   13.9171   39.9659 O   0  0  0  0  0  0  0  0  0  0  0  0
   -5.5621   15.1759   37.8276 C   0  0  0  0  0  0  0  0  0  0  0  0
   -3.5639   13.9242   37.9518 H   0  0  0  0  0  0  0  0  0  0  0  0
   -1.3510   14.9551   38.3127 H   0  0  0  0  0  0  0  0  0  0  0  0
   -2.8907   17.0850   39.8774 H   0  0  0  0  0  0  0  0  0  0  0  0
   -1.7226   16.2528   41.8565 H   0  0  0  0  0  0  0  0  0  0  0  0
   -3.9431   15.4183   41.3143 H   0  0  0  0  0  0  0  0  0  0  0  0
   -3.0855   14.3729   43.2689 H   0  0  0  0  0  0  0  0  0  0  0  0
   -3.9170   13.1066   42.3036 H   0  0  0  0  0  0  0  0  0  0  0  0
   -2.1233   13.2029   42.3036 H   0  0  0  0  0  0  0  0  0  0  0  0
   -2.7902   17.2690   37.6378 H   0  0  0  0  0  0  0  0  0  0  0  0
   -0.5022   17.5582   40.3811 H   0  0  0  0  0  0  0  0  0  0  0  0
   -0.3940   14.4886   41.7750 H   0  0  0  0  0  0  0  0  0  0  0  0
   -6.5127   14.8940   38.3039 H   0  0  0  0  0  0  0  0  0  0  0  0
   -5.7158   16.0671   37.2015 H   0  0  0  0  0  0  0  0  0  0  0  0
   -5.2052   14.3449   37.2015 H   0  0  0  0  0  0  0  0  0  0  0  0
  1  2  1  0
  1  7  1  0
  1 11  1  0
  2  3  1  0
  2  8  1  0
  3  4  1  0
  3  9  1  0
  4  5  1  0
  4 10  1  0
  5  6  1  0
  5 11  1  0
  7 12  1  0
  1 13  1  6
  2 14  1  6
  3 15  1  1
  4 16  1  1
  5 17  1  1
  6 18  1  0
  6 19  1  0
  6 20  1  0
  8 21  1  0
  9 22  1  0
 10 23  1  0
 12 24  1  0
 12 25  1  0
 12 26  1  0
M  END
>  <filename_input>  (19) 
7P2I_MFU_docked.sdf

>  <pdb_id>  (19) 
7P2I_MFU

>  <pose_rank>  (19) 
18

>  <num_atoms_heavy>  (19) 
12

>  <num_torsions>  (19) 
1

>  <pose>  (19) 
[-3.4481207255681356, 14.655998431421146, 38.76485588322451, -0.20707686572469333, -0.2034127057880028, -1.0183884752049115, -0.9840114076588575]

>  <energy>  (19) 
-168.90705242185305

>  <inter_energy>  (19) 
-181.15778245570309

>  <intra_energy>  (19) 
2.423179170831105

>  <rmsd>  (19) 
6.37605

>  <sdf_rank>  (19) 
0

$$$$

     RDKit          3D

 26 26  0  0  0  0  0  0  0  0999 V2000
    1.6961   11.1867   44.5529 C   0  0  2  0  0  0  0  0  0  0  0  0
    1.7217   11.4971   46.0464 C   0  0  2  0  0  0  0  0  0  0  0  0
    0.2876   11.5925   46.5579 C   0  0  1  0  0  0  0  0  0  0  0  0
   -0.5002   10.3235   46.2213 C   0  0  1  0  0  0  0  0  0  0  0  0
   -0.4563   10.1088   44.7096 C   0  0  2  0  0  0  0  0  0  0  0  0
   -1.1520    8.8483   44.2457 C   0  0  0  0  0  0  0  0  0  0  0  0
    1.1632   12.2996   43.8938 O   0  0  0  0  0  0  0  0  0  0  0  0
    2.4119   12.7247   46.2657 O   0  0  0  0  0  0  0  0  0  0  0  0
    0.2884   11.8583   47.9604 O   0  0  0  0  0  0  0  0  0  0  0  0
    0.0902    9.1887   46.8614 O   0  0  0  0  0  0  0  0  0  0  0  0
    0.9245   10.0191   44.2984 O   0  0  0  0  0  0  0  0  0  0  0  0
    1.9439   12.7258   42.7676 C   0  0  0  0  0  0  0  0  0  0  0  0
    2.7130   10.9868   44.1841 H   0  0  0  0  0  0  0  0  0  0  0  0
    2.2463   10.6975   46.5900 H   0  0  0  0  0  0  0  0  0  0  0  0
   -0.2173   12.4282   46.0515 H   0  0  0  0  0  0  0  0  0  0  0  0
   -1.5370   10.4376   46.5708 H   0  0  0  0  0  0  0  0  0  0  0  0
   -0.9851   10.9619   44.2596 H   0  0  0  0  0  0  0  0  0  0  0  0
   -1.4744    8.2642   45.1203 H   0  0  0  0  0  0  0  0  0  0  0  0
   -2.0301    9.1159   43.6396 H   0  0  0  0  0  0  0  0  0  0  0  0
   -0.4575    8.2479   43.6396 H   0  0  0  0  0  0  0  0  0  0  0  0
    2.5013   12.8838   47.2387 H   0  0  0  0  0  0  0  0  0  0  0  0
    0.2859   11.0027   48.4584 H   0  0  0  0  0  0  0  0  0  0  0  0
    0.0336    9.2974   47.8438 H   0  0  0  0  0  0  0  0  0  0  0  0
    2.8578   13.2245   43.1226 H   0  0  0  0  0  0  0  0  0  0  0  0
    2.2165   11.8513   42.1584 H   0  0  0  0  0  0  0  0  0  0  0  0
    1.3560   13.4281   42.1584 H   0  0  0  0  0  0  0  0  0  0  0  0
  1  2  1  0
  1  7  1  0
  1 11  1  0
  2  3  1  0
  2  8  1  0
  3  4  1  0
  3  9  1  0
  4  5  1  0
  4 10  1  0
  5  6  1  0
  5 11  1  0
  7 12  1  0
  1 13  1  6
  2 14  1  1
  3 15  1  6
  4 16  1  1
  5 17  1  6
  6 18  1  0
  6 19  1  0
  6 20  1  0
  8 21  1  0
  9 22  1  0
 10 23  1  0
 12 24  1  0
 12 25  1  0
 12 26  1  0
M  END
>  <filename_input>  (20) 
7P2I_MFU_docked.sdf

>  <pdb_id>  (20) 
7P2I_MFU

>  <pose_rank>  (20) 
19

>  <num_atoms_heavy>  (20) 
12

>  <num_torsions>  (20) 
1

>  <pose>  (20) 
[1.6961326789793925, 11.186695204506629, 44.552918572117456, 1.2459667778593833, -1.1430877960716046, -1.0370080756281965, 5.532588027605474]

>  <energy>  (20) 
-172.56546972243976

>  <inter_energy>  (20) 
-162.91846801539324

>  <intra_energy>  (20) 
0.15013205320108097

>  <rmsd>  (20) 
6.5042

>  <sdf_rank>  (20) 
0

$$$$

     RDKit          3D

 26 26  0  0  0  0  0  0  0  0999 V2000
    8.4014    9.0940   34.8783 C   0  0  2  0  0  0  0  0  0  0  0  0
    9.6933    9.8724   35.1079 C   0  0  2  0  0  0  0  0  0  0  0  0
    9.9156   10.0331   36.6087 C   0  0  1  0  0  0  0  0  0  0  0  0
    9.8992    8.6741   37.3140 C   0  0  1  0  0  0  0  0  0  0  0  0
    8.5696    7.9847   37.0138 C   0  0  2  0  0  0  0  0  0  0  0  0
    8.4463    6.5987   37.6070 C   0  0  0  0  0  0  0  0  0  0  0  0
    7.3373    9.8955   35.3055 O   0  0  0  0  0  0  0  0  0  0  0  0
    9.5988   11.1478   34.4787 O   0  0  0  0  0  0  0  0  0  0  0  0
   11.1335   10.7382   36.8470 O   0  0  0  0  0  0  0  0  0  0  0  0
   10.9617    7.8496   36.8267 O   0  0  0  0  0  0  0  0  0  0  0  0
    8.4306    7.8585   35.5826 O   0  0  0  0  0  0  0  0  0  0  0  0
    6.1836    9.8155   34.4558 C   0  0  0  0  0  0  0  0  0  0  0  0
    8.2818    8.8534   33.8116 H   0  0  0  0  0  0  0  0  0  0  0  0
   10.5449    9.3287   34.6732 H   0  0  0  0  0  0  0  0  0  0  0  0
    9.0896   10.6243   37.0308 H   0  0  0  0  0  0  0  0  0  0  0  0
   10.0261    8.8262   38.3960 H   0  0  0  0  0  0  0  0  0  0  0  0
    7.7868    8.6091   37.4692 H   0  0  0  0  0  0  0  0  0  0  0  0
    8.4525    6.6678   38.7048 H   0  0  0  0  0  0  0  0  0  0  0  0
    7.5038    6.1398   37.2738 H   0  0  0  0  0  0  0  0  0  0  0  0
    9.2930    5.9806   37.2738 H   0  0  0  0  0  0  0  0  0  0  0  0
    9.5465   11.8540   35.1705 H   0  0  0  0  0  0  0  0  0  0  0  0
   11.2802   10.8232   37.8223 H   0  0  0  0  0  0  0  0  0  0  0  0
   11.4580    7.4645   37.5919 H   0  0  0  0  0  0  0  0  0  0  0  0
    5.2763    9.7525   35.0744 H   0  0  0  0  0  0  0  0  0  0  0  0
    6.1329   10.7123   33.8208 H   0  0  0  0  0  0  0  0  0  0  0  0
    6.2573    8.9203   33.8208 H   0  0  0  0  0  0  0  0  0  0  0  0
  1  2  1  0
  1  7  1  0
  1 11  1  0
  2  3  1  0
  2  8  1  0
  3  4  1  0
  3  9  1  0
  4  5  1  0
  4 10  1  0
  5  6  1  0
  5 11  1  0
  7 12  1  0
  1 13  1  6
  2 14  1  6
  3 15  1  1
  4 16  1  1
  5 17  1  1
  6 18  1  0
  6 19  1  0
  6 20  1  0
  8 21  1  0
  9 22  1  0
 10 23  1  0
 12 24  1  0
 12 25  1  0
 12 26  1  0
M  END
>  <filename_input>  (21) 
7P2I_MFU_docked.sdf

>  <pdb_id>  (21) 
7P2I_MFU

>  <pose_rank>  (21) 
20

>  <num_atoms_heavy>  (21) 
12

>  <num_torsions>  (21) 
1

>  <pose>  (21) 
[8.401409356271875, 9.094032644743976, 34.87828308971208, -1.1390165988247032, -0.08276505652548351, 4.974561702462205, -0.5859199096821994]

>  <energy>  (21) 
-154.22671141594336

>  <inter_energy>  (21) 
-123.59080545876512

>  <intra_energy>  (21) 
0.0

>  <rmsd>  (21) 
13.7153

>  <sdf_rank>  (21) 
0

$$$$

     RDKit          3D

 26 26  0  0  0  0  0  0  0  0999 V2000
    1.4489   11.7533   45.6607 C   0  0  2  0  0  0  0  0  0  0  0  0
    0.0419   11.2132   45.8977 C   0  0  2  0  0  0  0  0  0  0  0  0
    0.1416    9.8458   46.5669 C   0  0  1  0  0  0  0  0  0  0  0  0
    0.9799    9.9212   47.8460 C   0  0  1  0  0  0  0  0  0  0  0  0
    2.3588   10.4758   47.4936 C   0  0  2  0  0  0  0  0  0  0  0  0
    3.2730   10.6574   48.6850 C   0  0  0  0  0  0  0  0  0  0  0  0
    2.0639   10.9395   44.7033 O   0  0  0  0  0  0  0  0  0  0  0  0
   -0.6443   11.1100   44.6528 O   0  0  0  0  0  0  0  0  0  0  0  0
   -1.1658    9.3323   46.8206 O   0  0  0  0  0  0  0  0  0  0  0  0
    0.3627   10.7983   48.7925 O   0  0  0  0  0  0  0  0  0  0  0  0
    2.1892   11.7691   46.8752 O   0  0  0  0  0  0  0  0  0  0  0  0
    3.4173   11.3191   44.4139 C   0  0  0  0  0  0  0  0  0  0  0  0
    1.4065   12.7904   45.2965 H   0  0  0  0  0  0  0  0  0  0  0  0
   -0.5198   11.8954   46.5528 H   0  0  0  0  0  0  0  0  0  0  0  0
    0.6559    9.1516   45.8860 H   0  0  0  0  0  0  0  0  0  0  0  0
    1.0625    8.9157   48.2846 H   0  0  0  0  0  0  0  0  0  0  0  0
    2.8288    9.7379   46.8268 H   0  0  0  0  0  0  0  0  0  0  0  0
    2.6934   10.5423   49.6128 H   0  0  0  0  0  0  0  0  0  0  0  0
    4.0701    9.9001   48.6543 H   0  0  0  0  0  0  0  0  0  0  0  0
    3.7202   11.6619   48.6543 H   0  0  0  0  0  0  0  0  0  0  0  0
   -1.6094   10.9649   44.8190 H   0  0  0  0  0  0  0  0  0  0  0  0
   -1.3136    9.2742   47.7978 H   0  0  0  0  0  0  0  0  0  0  0  0
    0.5757   10.4955   49.7107 H   0  0  0  0  0  0  0  0  0  0  0  0
    3.9644   11.4725   45.3558 H   0  0  0  0  0  0  0  0  0  0  0  0
    3.9050   10.5231   43.8321 H   0  0  0  0  0  0  0  0  0  0  0  0
    3.4199   12.2526   43.8321 H   0  0  0  0  0  0  0  0  0  0  0  0
  1  2  1  0
  1  7  1  0
  1 11  1  0
  2  3  1  0
  2  8  1  0
  3  4  1  0
  3  9  1  0
  4  5  1  0
  4 10  1  0
  5  6  1  0
  5 11  1  0
  7 12  1  0
  1 13  1  6
  2 14  1  1
  3 15  1  6
  4 16  1  1
  5 17  1  6
  6 18  1  0
  6 19  1  0
  6 20  1  0
  8 21  1  0
  9 22  1  0
 10 23  1  0
 12 24  1  0
 12 25  1  0
 12 26  1  0
M  END
>  <filename_input>  (22) 
7P2I_MFU_docked.sdf

>  <pdb_id>  (22) 
7P2I_MFU

>  <pose_rank>  (22) 
21

>  <num_atoms_heavy>  (22) 
12

>  <num_torsions>  (22) 
1

>  <pose>  (22) 
[1.448893425903086, 11.753334732880518, 45.66071420781948, -2.4067083141346233, 0.8421478727580105, -3.4915806488957544, 0.1276686858325287]

>  <energy>  (22) 
-151.4569054379893

>  <inter_energy>  (22) 
-144.3906938716037

>  <intra_energy>  (22) 
5.704988491613577

>  <rmsd>  (22) 
6.72035

>  <sdf_rank>  (22) 
0

$$$$

     RDKit          3D

 26 26  0  0  0  0  0  0  0  0999 V2000
    0.6891   10.5297   43.8370 C   0  0  2  0  0  0  0  0  0  0  0  0
   -0.6069   10.4928   44.6411 C   0  0  2  0  0  0  0  0  0  0  0  0
   -0.5210    9.3689   45.6691 C   0  0  1  0  0  0  0  0  0  0  0  0
    0.7256    9.5209   46.5450 C   0  0  1  0  0  0  0  0  0  0  0  0
    1.9564    9.5501   45.6408 C   0  0  2  0  0  0  0  0  0  0  0  0
    3.2597    9.7565   46.3803 C   0  0  0  0  0  0  0  0  0  0  0  0
    0.7512    9.3601   43.0718 O   0  0  0  0  0  0  0  0  0  0  0  0
   -1.7074   10.2802   43.7608 O   0  0  0  0  0  0  0  0  0  0  0  0
   -1.7152    9.3323   46.4502 O   0  0  0  0  0  0  0  0  0  0  0  0
    0.6691   10.7469   47.2798 O   0  0  0  0  0  0  0  0  0  0  0  0
    1.8119   10.6384   44.7035 O   0  0  0  0  0  0  0  0  0  0  0  0
    1.0260    9.5985   41.6836 C   0  0  0  0  0  0  0  0  0  0  0  0
    0.7067   11.4088   43.1760 H   0  0  0  0  0  0  0  0  0  0  0  0
   -0.7551   11.4493   45.1638 H   0  0  0  0  0  0  0  0  0  0  0  0
   -0.4278    8.4084   45.1412 H   0  0  0  0  0  0  0  0  0  0  0  0
    0.7776    8.6783   47.2502 H   0  0  0  0  0  0  0  0  0  0  0  0
    2.0064    8.5655   45.1530 H   0  0  0  0  0  0  0  0  0  0  0  0
    3.0748    9.7272   47.4643 H   0  0  0  0  0  0  0  0  0  0  0  0
    3.9665    8.9591   46.1073 H   0  0  0  0  0  0  0  0  0  0  0  0
    3.6856   10.7333   46.1073 H   0  0  0  0  0  0  0  0  0  0  0  0
   -2.5283   10.1216   44.2910 H   0  0  0  0  0  0  0  0  0  0  0  0
   -1.4807    9.3395   47.4120 H   0  0  0  0  0  0  0  0  0  0  0  0
    0.6781   10.5507   48.2501 H   0  0  0  0  0  0  0  0  0  0  0  0
    1.8542   10.3167   41.5919 H   0  0  0  0  0  0  0  0  0  0  0  0
    1.3058    8.6523   41.1975 H   0  0  0  0  0  0  0  0  0  0  0  0
    0.1289   10.0093   41.1975 H   0  0  0  0  0  0  0  0  0  0  0  0
  1  2  1  0
  1  7  1  0
  1 11  1  0
  2  3  1  0
  2  8  1  0
  3  4  1  0
  3  9  1  0
  4  5  1  0
  4 10  1  0
  5  6  1  0
  5 11  1  0
  7 12  1  0
  1 13  1  6
  2 14  1  1
  3 15  1  6
  4 16  1  1
  5 17  1  6
  6 18  1  0
  6 19  1  0
  6 20  1  0
  8 21  1  0
  9 22  1  0
 10 23  1  0
 12 24  1  0
 12 25  1  0
 12 26  1  0
M  END
>  <filename_input>  (23) 
7P2I_MFU_docked.sdf

>  <pdb_id>  (23) 
7P2I_MFU

>  <pose_rank>  (23) 
22

>  <num_atoms_heavy>  (23) 
12

>  <num_torsions>  (23) 
1

>  <pose>  (23) 
[0.6890740850784681, 10.529727918848854, 43.83697564269466, -3.1070484042485953, 0.10676927555598692, -3.5801504260502304, -0.7838087771868325]

>  <energy>  (23) 
-140.63596405071578

>  <inter_energy>  (23) 
-115.47745060494368

>  <intra_energy>  (23) 
0.29895073331497984

>  <rmsd>  (23) 
6.97542

>  <sdf_rank>  (23) 
0

$$$$

     RDKit          3D

 26 26  0  0  0  0  0  0  0  0999 V2000
   -3.9540   14.0862   41.4294 C   0  0  2  0  0  0  0  0  0  0  0  0
   -2.9972   15.1415   40.8832 C   0  0  2  0  0  0  0  0  0  0  0  0
   -2.2995   15.8310   42.0517 C   0  0  1  0  0  0  0  0  0  0  0  0
   -1.6114   14.8084   42.9600 C   0  0  1  0  0  0  0  0  0  0  0  0
   -2.6560   13.8041   43.4431 C   0  0  2  0  0  0  0  0  0  0  0  0
   -2.0938   12.6978   44.3080 C   0  0  0  0  0  0  0  0  0  0  0  0
   -4.9817   14.7505   42.1075 O   0  0  0  0  0  0  0  0  0  0  0  0
   -3.7264   16.0898   40.1083 O   0  0  0  0  0  0  0  0  0  0  0  0
   -1.3801   16.8067   41.5617 O   0  0  0  0  0  0  0  0  0  0  0  0
   -0.5998   14.1028   42.2355 O   0  0  0  0  0  0  0  0  0  0  0  0
   -3.2666   13.1863   42.2903 O   0  0  0  0  0  0  0  0  0  0  0  0
   -6.2782   14.1771   41.8846 C   0  0  0  0  0  0  0  0  0  0  0  0
   -4.3754   13.4874   40.6085 H   0  0  0  0  0  0  0  0  0  0  0  0
   -2.2408   14.6693   40.2391 H   0  0  0  0  0  0  0  0  0  0  0  0
   -3.0537   16.3480   42.6632 H   0  0  0  0  0  0  0  0  0  0  0  0
   -1.1492   15.3321   43.8098 H   0  0  0  0  0  0  0  0  0  0  0  0
   -3.3711   14.3715   44.0570 H   0  0  0  0  0  0  0  0  0  0  0  0
   -2.2261   12.9582   45.3685 H   0  0  0  0  0  0  0  0  0  0  0  0
   -2.6238   11.7584   44.0922 H   0  0  0  0  0  0  0  0  0  0  0  0
   -1.0225   12.5723   44.0922 H   0  0  0  0  0  0  0  0  0  0  0  0
   -4.2046   16.7116   40.7123 H   0  0  0  0  0  0  0  0  0  0  0  0
   -0.9478   17.2655   42.3251 H   0  0  0  0  0  0  0  0  0  0  0  0
    0.0213   13.6694   42.8731 H   0  0  0  0  0  0  0  0  0  0  0  0
   -6.7568   13.9655   42.8521 H   0  0  0  0  0  0  0  0  0  0  0  0
   -6.8991   14.8846   41.3154 H   0  0  0  0  0  0  0  0  0  0  0  0
   -6.1726   13.2418   41.3154 H   0  0  0  0  0  0  0  0  0  0  0  0
  1  2  1  0
  1  7  1  0
  1 11  1  0
  2  3  1  0
  2  8  1  0
  3  4  1  0
  3  9  1  0
  4  5  1  0
  4 10  1  0
  5  6  1  0
  5 11  1  0
  7 12  1  0
  1 13  1  6
  2 14  1  6
  3 15  1  1
  4 16  1  1
  5 17  1  1
  6 18  1  0
  6 19  1  0
  6 20  1  0
  8 21  1  0
  9 22  1  0
 10 23  1  0
 12 24  1  0
 12 25  1  0
 12 26  1  0
M  END
>  <filename_input>  (24) 
7P2I_MFU_docked.sdf

>  <pdb_id>  (24) 
7P2I_MFU

>  <pose_rank>  (24) 
23

>  <num_atoms_heavy>  (24) 
12

>  <num_torsions>  (24) 
1

>  <pose>  (24) 
[-3.9539840689552, 14.086223136296894, 41.429367889562016, -0.24270043492983162, 0.2638074011990595, -0.8980099912143502, -0.6055364616080576]

>  <energy>  (24) 
-141.40663523600386

>  <inter_energy>  (24) 
-129.6662813984503

>  <intra_energy>  (24) 
0.0

>  <rmsd>  (24) 
5.25257

>  <sdf_rank>  (24) 
0

$$$$

     RDKit          3D

 26 26  0  0  0  0  0  0  0  0999 V2000
   -7.2650   25.1856   47.2142 C   0  0  2  0  0  0  0  0  0  0  0  0
   -5.8128   24.7188   47.1916 C   0  0  2  0  0  0  0  0  0  0  0  0
   -5.7354   23.3726   46.4779 C   0  0  1  0  0  0  0  0  0  0  0  0
   -6.3621   23.4545   45.0834 C   0  0  1  0  0  0  0  0  0  0  0  0
   -7.8058   23.9330   45.2247 C   0  0  2  0  0  0  0  0  0  0  0  0
   -8.5267   24.1145   43.9073 C   0  0  0  0  0  0  0  0  0  0  0  0
   -7.9826   24.3115   48.0378 O   0  0  0  0  0  0  0  0  0  0  0  0
   -5.3291   24.6033   48.5273 O   0  0  0  0  0  0  0  0  0  0  0  0
   -4.3800   22.9283   46.4237 O   0  0  0  0  0  0  0  0  0  0  0  0
   -5.6473   24.3915   44.2726 O   0  0  0  0  0  0  0  0  0  0  0  0
   -7.8025   25.2102   45.8973 O   0  0  0  0  0  0  0  0  0  0  0  0
   -8.6474   24.9680   49.1271 C   0  0  0  0  0  0  0  0  0  0  0  0
   -7.3336   26.2101   47.6087 H   0  0  0  0  0  0  0  0  0  0  0  0
   -5.1892   25.4484   46.6542 H   0  0  0  0  0  0  0  0  0  0  0  0
   -6.3157   22.6322   47.0482 H   0  0  0  0  0  0  0  0  0  0  0  0
   -6.3229   22.4623   44.6099 H   0  0  0  0  0  0  0  0  0  0  0  0
   -8.3380   23.1516   45.7869 H   0  0  0  0  0  0  0  0  0  0  0  0
   -9.5774   24.3789   44.0976 H   0  0  0  0  0  0  0  0  0  0  0  0
   -8.0444   24.9192   43.3331 H   0  0  0  0  0  0  0  0  0  0  0  0
   -8.4827   23.1772   43.3331 H   0  0  0  0  0  0  0  0  0  0  0  0
   -6.0679   24.7796   49.1622 H   0  0  0  0  0  0  0  0  0  0  0  0
   -4.0329   22.8146   47.3438 H   0  0  0  0  0  0  0  0  0  0  0  0
   -5.1616   25.0282   44.8545 H   0  0  0  0  0  0  0  0  0  0  0  0
   -8.2572   24.5827   50.0806 H   0  0  0  0  0  0  0  0  0  0  0  0
   -8.4663   26.0514   49.0678 H   0  0  0  0  0  0  0  0  0  0  0  0
   -9.7284   24.7732   49.0678 H   0  0  0  0  0  0  0  0  0  0  0  0
  1  2  1  0
  1  7  1  0
  1 11  1  0
  2  3  1  0
  2  8  1  0
  3  4  1  0
  3  9  1  0
  4  5  1  0
  4 10  1  0
  5  6  1  0
  5 11  1  0
  7 12  1  0
  1 13  1  1
  2 14  1  6
  3 15  1  1
  4 16  1  6
  5 17  1  1
  6 18  1  0
  6 19  1  0
  6 20  1  0
  8 21  1  0
  9 22  1  0
 10 23  1  0
 12 24  1  0
 12 25  1  0
 12 26  1  0
M  END
>  <filename_input>  (25) 
7P2I_MFU_docked.sdf

>  <pdb_id>  (25) 
7P2I_MFU

>  <pose_rank>  (25) 
24

>  <num_atoms_heavy>  (25) 
12

>  <num_torsions>  (25) 
1

>  <pose>  (25) 
[-7.2650231550970386, 25.185596134325767, 47.214158402998564, -2.5247422432385718, -2.056377562945671, 1.43307363635488, -0.903367204661459]

>  <energy>  (25) 
-130.5534084663711

>  <inter_energy>  (25) 
-119.46609864451973

>  <intra_energy>  (25) 
1.3005954088422529

>  <rmsd>  (25) 
11.9731

>  <sdf_rank>  (25) 
0

$$$$

     RDKit          3D

 26 26  0  0  0  0  0  0  0  0999 V2000
    1.0700   15.6690   43.1290 C   0  0  2  0  0  0  0  0  0  0  0  0
    0.8690   17.1780   43.0290 C   0  0  2  0  0  0  0  0  0  0  0  0
    0.5920   17.7350   44.4220 C   0  0  1  0  0  0  0  0  0  0  0  0
    1.7010   17.3400   45.4010 C   0  0  1  0  0  0  0  0  0  0  0  0
    1.8170   15.8170   45.4180 C   0  0  2  0  0  0  0  0  0  0  0  0
    2.9230   15.2930   46.3070 C   0  0  0  0  0  0  0  0  0  0  0  0
   -0.1530   15.0980   43.4970 O   0  0  0  0  0  0  0  0  0  0  0  0
   -0.2220   17.4560   42.1550 O   0  0  0  0  0  0  0  0  0  0  0  0
    0.4250   19.1510   44.3550 O   0  0  0  0  0  0  0  0  0  0  0  0
    2.9530   17.8890   44.9800 O   0  0  0  0  0  0  0  0  0  0  0  0
    2.0870   15.3620   44.0750 O   0  0  0  0  0  0  0  0  0  0  0  0
   -0.1360   13.6630   43.5020 C   0  0  0  0  0  0  0  0  0  0  0  0
    1.3964   15.2595   42.1616 H   0  0  0  0  0  0  0  0  0  0  0  0
    1.7739   17.6541   42.6234 H   0  0  0  0  0  0  0  0  0  0  0  0
   -0.3431   17.2977   44.8020 H   0  0  0  0  0  0  0  0  0  0  0  0
    1.4549   17.7253   46.4015 H   0  0  0  0  0  0  0  0  0  0  0  0
    0.8650   15.4379   45.8179 H   0  0  0  0  0  0  0  0  0  0  0  0
    2.6403   15.4269   47.3616 H   0  0  0  0  0  0  0  0  0  0  0  0
    3.0820   14.2238   46.1029 H   0  0  0  0  0  0  0  0  0  0  0  0
    3.8511   15.8472   46.1029 H   0  0  0  0  0  0  0  0  0  0  0  0
   -1.0292   17.6617   42.6899 H   0  0  0  0  0  0  0  0  0  0  0  0
    0.3813   19.5219   45.2719 H   0  0  0  0  0  0  0  0  0  0  0  0
    3.4934   18.1260   45.7749 H   0  0  0  0  0  0  0  0  0  0  0  0
   -0.1317   13.3000   44.5404 H   0  0  0  0  0  0  0  0  0  0  0  0
   -1.0297   13.2839   42.9847 H   0  0  0  0  0  0  0  0  0  0  0  0
    0.7664   13.3052   42.9847 H   0  0  0  0  0  0  0  0  0  0  0  0
  1  2  1  0
  1  7  1  0
  1 11  1  0
  2  3  1  0
  2  8  1  0
  3  4  1  0
  3  9  1  0
  4  5  1  0
  4 10  1  0
  5  6  1  0
  5 11  1  0
  7 12  1  0
  1 13  1  6
  2 14  1  6
  3 15  1  1
  4 16  1  1
  5 17  1  1
  6 18  1  0
  6 19  1  0
  6 20  1  0
  8 21  1  0
  9 22  1  0
 10 23  1  0
 12 24  1  0
 12 25  1  0
 12 26  1  0
M  END
>  <filename_input>  (26) 
7P2I_MFU_docked.sdf

>  <pdb_id>  (26) 
7P2I_MFU

>  <pose_rank>  (26) 
25

>  <num_atoms_heavy>  (26) 
12

>  <num_torsions>  (26) 
1

>  <pose>  (26) 
[1.07, 15.669, 43.129, 1e-06, 1e-06, 1e-06, 0.0]

>  <energy>  (26) 
-1069.5641678853328

>  <inter_energy>  (26) 
-1083.348878458494

>  <intra_energy>  (26) 
3.031920251979287

>  <rmsd>  (26) 
0.0

>  <sdf_rank>  (26) 
0

$$$$
