
     RDKit          3D

 29 30  0  0  0  0  0  0  0  0999 V2000
   84.2403   14.3744   34.6104 C   0  0  1  0  0  0  0  0  0  0  0  0
   83.9729   13.3403   35.7149 C   0  0  2  0  0  0  0  0  0  0  0  0
   83.7264   13.9616   37.0794 C   0  0  2  0  0  0  0  0  0  0  0  0
   83.2974   12.8591   38.0345 C   0  0  0  0  0  0  0  0  0  0  0  0
   82.7791   15.1758   37.0851 C   0  0  2  0  0  0  0  0  0  0  0  0
   83.2307   16.1929   36.0754 C   0  0  1  0  0  0  0  0  0  0  0  0
   83.2757   15.5575   34.6755 C   0  0  1  0  0  0  0  0  0  0  0  0
   85.6347   14.7117   34.8579 N   0  0  0  0  0  0  0  0  0  0  0  0
   87.0192   12.7936   34.2229 O   0  0  0  0  0  0  0  0  0  0  0  0
   86.4104   13.3810   35.3809 S   0  0  1  0  0  0  0  0  0  0  0  0
   87.1961   13.6114   36.5399 O   0  0  0  0  0  0  0  0  0  0  0  0
   85.1583   12.5206   35.8098 O   0  0  0  0  0  0  0  0  0  0  0  0
   82.3276   12.0127   37.4195 O   0  0  0  0  0  0  0  0  0  0  0  0
   82.7109   15.7823   38.3802 O   0  0  0  0  0  0  0  0  0  0  0  0
   82.3217   17.3140   36.0564 O   0  0  0  0  0  0  0  0  0  0  0  0
   83.6408   16.5399   33.7096 O   0  0  0  0  0  0  0  0  0  0  0  0
   84.0728   14.0085   33.5866 H   0  0  0  0  0  0  0  0  0  0  0  0
   83.0651   12.7795   35.4478 H   0  0  0  0  0  0  0  0  0  0  0  0
   84.6724   14.4064   37.4219 H   0  0  0  0  0  0  0  0  0  0  0  0
   84.1765   12.2593   38.3128 H   0  0  0  0  0  0  0  0  0  0  0  0
   82.8518   13.3181   38.9294 H   0  0  0  0  0  0  0  0  0  0  0  0
   81.7745   14.8146   36.8201 H   0  0  0  0  0  0  0  0  0  0  0  0
   84.2354   16.5424   36.3557 H   0  0  0  0  0  0  0  0  0  0  0  0
   82.2695   15.1728   34.4529 H   0  0  0  0  0  0  0  0  0  0  0  0
   86.0701   15.0462   33.9864 H   0  0  0  0  0  0  0  0  0  0  0  0
   81.8001   11.5523   38.1195 H   0  0  0  0  0  0  0  0  0  0  0  0
   82.7895   15.0831   39.0766 H   0  0  0  0  0  0  0  0  0  0  0  0
   82.1062   17.5798   36.9854 H   0  0  0  0  0  0  0  0  0  0  0  0
   83.9456   17.3603   34.1723 H   0  0  0  0  0  0  0  0  0  0  0  0
  1  2  1  0
  1  7  1  0
  1  8  1  0
  2  3  1  0
  2 12  1  0
  3  4  1  0
  3  5  1  0
  4 13  1  0
  5  6  1  0
  5 14  1  0
  6  7  1  0
  6 15  1  0
  7 16  1  0
 10  8  1  0
  9 10  2  0
 10 11  2  0
 10 12  1  1
  1 17  1  6
  2 18  1  6
  3 19  1  1
  4 20  1  0
  4 21  1  0
  5 22  1  6
  6 23  1  1
  7 24  1  6
  8 25  1  0
 13 26  1  0
 14 27  1  0
 15 28  1  0
 16 29  1  0
M  END
>  <filename_input>  (1) 
7P4C_5OV_docked.sdf

>  <pdb_id>  (1) 
7P4C_5OV

>  <pose_rank>  (1) 
0

>  <num_atoms_heavy>  (1) 
16

>  <num_torsions>  (1) 
1

>  <pose>  (1) 
[84.24029555974226, 14.3744412673137, 34.61037806043696, -4.247075905856729, 3.8809561854398478, -1.813609587369063, 0.35993961512760786]

>  <energy>  (1) 
-904.684787159018

>  <inter_energy>  (1) 
-893.7941921684912

>  <intra_energy>  (1) 
0.3258181196746931

>  <rmsd>  (1) 
0.595503

>  <sdf_rank>  (1) 
0

$$$$

     RDKit          3D

 29 30  0  0  0  0  0  0  0  0999 V2000
   83.6627   13.9699   34.1910 C   0  0  1  0  0  0  0  0  0  0  0  0
   83.4683   13.1632   35.4841 C   0  0  2  0  0  0  0  0  0  0  0  0
   83.3824   14.0280   36.7303 C   0  0  2  0  0  0  0  0  0  0  0  0
   83.0099   13.1365   37.9043 C   0  0  0  0  0  0  0  0  0  0  0  0
   82.4863   15.2740   36.6028 C   0  0  2  0  0  0  0  0  0  0  0  0
   82.8726   16.0708   35.3888 C   0  0  1  0  0  0  0  0  0  0  0  0
   82.7542   15.1967   34.1288 C   0  0  1  0  0  0  0  0  0  0  0  0
   85.0865   14.2690   34.2449 N   0  0  0  0  0  0  0  0  0  0  0  0
   86.3283   12.1964   33.8437 O   0  0  0  0  0  0  0  0  0  0  0  0
   85.8603   13.0112   34.9270 S   0  0  1  0  0  0  0  0  0  0  0  0
   86.7656   13.3994   35.9484 O   0  0  0  0  0  0  0  0  0  0  0  0
   84.6259   12.3096   35.6171 O   0  0  0  0  0  0  0  0  0  0  0  0
   84.1517   12.4199   38.3714 O   0  0  0  0  0  0  0  0  0  0  0  0
   82.5701   16.1024   37.7675 O   0  0  0  0  0  0  0  0  0  0  0  0
   82.0087   17.2187   35.2504 O   0  0  0  0  0  0  0  0  0  0  0  0
   83.0575   15.9718   32.9718 O   0  0  0  0  0  0  0  0  0  0  0  0
   83.3805   13.4387   33.2700 H   0  0  0  0  0  0  0  0  0  0  0  0
   82.5181   12.6143   35.4070 H   0  0  0  0  0  0  0  0  0  0  0  0
   84.3737   14.4740   36.8988 H   0  0  0  0  0  0  0  0  0  0  0  0
   82.6150   13.7594   38.7205 H   0  0  0  0  0  0  0  0  0  0  0  0
   82.2481   12.4148   37.5745 H   0  0  0  0  0  0  0  0  0  0  0  0
   81.4475   14.9270   36.5004 H   0  0  0  0  0  0  0  0  0  0  0  0
   83.9125   16.4089   35.5082 H   0  0  0  0  0  0  0  0  0  0  0  0
   81.7171   14.8342   34.0724 H   0  0  0  0  0  0  0  0  0  0  0  0
   85.4449   14.4202   33.2912 H   0  0  0  0  0  0  0  0  0  0  0  0
   84.1570   12.4166   39.3614 H   0  0  0  0  0  0  0  0  0  0  0  0
   82.5130   15.5379   38.5788 H   0  0  0  0  0  0  0  0  0  0  0  0
   81.7574   17.5527   36.1478 H   0  0  0  0  0  0  0  0  0  0  0  0
   83.4039   16.8569   33.2490 H   0  0  0  0  0  0  0  0  0  0  0  0
  1  2  1  0
  1  7  1  0
  1  8  1  0
  2  3  1  0
  2 12  1  0
  3  4  1  0
  3  5  1  0
  4 13  1  0
  5  6  1  0
  5 14  1  0
  6  7  1  0
  6 15  1  0
  7 16  1  0
 10  8  1  0
  9 10  2  0
 10 11  2  0
 10 12  1  1
  1 17  1  6
  2 18  1  6
  3 19  1  1
  4 20  1  0
  4 21  1  0
  5 22  1  6
  6 23  1  1
  7 24  1  6
  8 25  1  0
 13 26  1  0
 14 27  1  0
 15 28  1  0
 16 29  1  0
M  END
>  <filename_input>  (2) 
7P4C_5OV_docked.sdf

>  <pdb_id>  (2) 
7P4C_5OV

>  <pose_rank>  (2) 
1

>  <num_atoms_heavy>  (2) 
16

>  <num_torsions>  (2) 
1

>  <pose>  (2) 
[83.66267789935392, 13.96992459023083, 34.190963292138626, -0.0031957197667782794, -0.0621496975737286, 0.035035270062119234, -3.7639319539157383]

>  <energy>  (2) 
-840.7843961260296

>  <inter_energy>  (2) 
-856.7977108294141

>  <intra_energy>  (2) 
10.908358678519251

>  <rmsd>  (2) 
0.655172

>  <sdf_rank>  (2) 
0

$$$$

     RDKit          3D

 29 30  0  0  0  0  0  0  0  0999 V2000
   83.8519   13.9752   34.2657 C   0  0  1  0  0  0  0  0  0  0  0  0
   83.6256   13.0937   35.5037 C   0  0  2  0  0  0  0  0  0  0  0  0
   83.7064   13.8581   36.8143 C   0  0  2  0  0  0  0  0  0  0  0  0
   83.2874   12.9232   37.9378 C   0  0  0  0  0  0  0  0  0  0  0  0
   82.9622   15.2062   36.8337 C   0  0  2  0  0  0  0  0  0  0  0  0
   83.3815   16.0489   35.6624 C   0  0  1  0  0  0  0  0  0  0  0  0
   83.0963   15.3004   34.3494 C   0  0  1  0  0  0  0  0  0  0  0  0
   85.3023   14.1009   34.2583 N   0  0  0  0  0  0  0  0  0  0  0  0
   86.2633   11.9374   33.6301 O   0  0  0  0  0  0  0  0  0  0  0  0
   85.9512   12.7100   34.7972 S   0  0  1  0  0  0  0  0  0  0  0  0
   86.9461   12.9054   35.7900 O   0  0  0  0  0  0  0  0  0  0  0  0
   84.6768   12.1031   35.5039 O   0  0  0  0  0  0  0  0  0  0  0  0
   84.1876   11.8206   38.0343 O   0  0  0  0  0  0  0  0  0  0  0  0
   83.2030   15.9213   38.0504 O   0  0  0  0  0  0  0  0  0  0  0  0
   82.6569   17.2972   35.6617 O   0  0  0  0  0  0  0  0  0  0  0  0
   83.4335   16.1268   33.2382 O   0  0  0  0  0  0  0  0  0  0  0  0
   83.4624   13.5574   33.3256 H   0  0  0  0  0  0  0  0  0  0  0  0
   82.6134   12.6675   35.4415 H   0  0  0  0  0  0  0  0  0  0  0  0
   84.7515   14.1702   36.9574 H   0  0  0  0  0  0  0  0  0  0  0  0
   83.2898   13.4764   38.8886 H   0  0  0  0  0  0  0  0  0  0  0  0
   82.2787   12.5403   37.7236 H   0  0  0  0  0  0  0  0  0  0  0  0
   81.8853   14.9921   36.7668 H   0  0  0  0  0  0  0  0  0  0  0  0
   84.4593   16.2526   35.7457 H   0  0  0  0  0  0  0  0  0  0  0  0
   82.0215   15.0671   34.3269 H   0  0  0  0  0  0  0  0  0  0  0  0
   85.6288   14.2866   33.2992 H   0  0  0  0  0  0  0  0  0  0  0  0
   84.3560   11.6145   38.9878 H   0  0  0  0  0  0  0  0  0  0  0  0
   83.0054   15.3344   38.8228 H   0  0  0  0  0  0  0  0  0  0  0  0
   82.4909   17.5830   36.5950 H   0  0  0  0  0  0  0  0  0  0  0  0
   83.7866   16.9919   33.5653 H   0  0  0  0  0  0  0  0  0  0  0  0
  1  2  1  0
  1  7  1  0
  1  8  1  0
  2  3  1  0
  2 12  1  0
  3  4  1  0
  3  5  1  0
  4 13  1  0
  5  6  1  0
  5 14  1  0
  6  7  1  0
  6 15  1  0
  7 16  1  0
 10  8  1  0
  9 10  2  0
 10 11  2  0
 10 12  1  1
  1 17  1  6
  2 18  1  6
  3 19  1  1
  4 20  1  0
  4 21  1  0
  5 22  1  6
  6 23  1  1
  7 24  1  6
  8 25  1  0
 13 26  1  0
 14 27  1  0
 15 28  1  0
 16 29  1  0
M  END
>  <filename_input>  (3) 
7P4C_5OV_docked.sdf

>  <pdb_id>  (3) 
7P4C_5OV

>  <pose_rank>  (3) 
2

>  <num_atoms_heavy>  (3) 
16

>  <num_torsions>  (3) 
1

>  <pose>  (3) 
[83.85189202857795, 13.975168321285391, 34.265716401482514, 0.07269777334784676, -0.00895882636590991, -0.08642334908504612, -4.043839497786229]

>  <energy>  (3) 
-864.7770840676021

>  <inter_energy>  (3) 
-875.8833782819122

>  <intra_energy>  (3) 
19.555345090341405

>  <rmsd>  (3) 
0.639635

>  <sdf_rank>  (3) 
0

$$$$

     RDKit          3D

 29 30  0  0  0  0  0  0  0  0999 V2000
   83.7509   13.9186   34.1896 C   0  0  1  0  0  0  0  0  0  0  0  0
   83.5124   13.0774   35.4530 C   0  0  2  0  0  0  0  0  0  0  0  0
   83.5621   13.8868   36.7379 C   0  0  2  0  0  0  0  0  0  0  0  0
   83.1334   12.9862   37.8854 C   0  0  0  0  0  0  0  0  0  0  0  0
   82.8033   15.2264   36.6982 C   0  0  2  0  0  0  0  0  0  0  0  0
   83.2341   16.0333   35.5061 C   0  0  1  0  0  0  0  0  0  0  0  0
   82.9799   15.2373   34.2149 C   0  0  1  0  0  0  0  0  0  0  0  0
   85.1998   14.0603   34.2028 N   0  0  0  0  0  0  0  0  0  0  0  0
   86.1947   11.8876   33.6657 O   0  0  0  0  0  0  0  0  0  0  0  0
   85.8540   12.6960   34.8001 S   0  0  1  0  0  0  0  0  0  0  0  0
   86.8292   12.9363   35.8025 O   0  0  0  0  0  0  0  0  0  0  0  0
   84.5739   12.0992   35.5053 O   0  0  0  0  0  0  0  0  0  0  0  0
   81.9227   12.3045   37.5621 O   0  0  0  0  0  0  0  0  0  0  0  0
   83.0150   15.9853   37.8937 O   0  0  0  0  0  0  0  0  0  0  0  0
   82.4962   17.2726   35.4501 O   0  0  0  0  0  0  0  0  0  0  0  0
   83.3277   16.0290   33.0818 O   0  0  0  0  0  0  0  0  0  0  0  0
   83.3825   13.4646   33.2578 H   0  0  0  0  0  0  0  0  0  0  0  0
   82.5061   12.6379   35.3882 H   0  0  0  0  0  0  0  0  0  0  0  0
   84.6011   14.2154   36.8880 H   0  0  0  0  0  0  0  0  0  0  0  0
   83.9242   12.2466   38.0796 H   0  0  0  0  0  0  0  0  0  0  0  0
   82.9646   13.6053   38.7788 H   0  0  0  0  0  0  0  0  0  0  0  0
   81.7301   14.9980   36.6202 H   0  0  0  0  0  0  0  0  0  0  0  0
   84.3080   16.2519   35.6008 H   0  0  0  0  0  0  0  0  0  0  0  0
   81.9083   14.9912   34.1819 H   0  0  0  0  0  0  0  0  0  0  0  0
   85.5411   14.2169   33.2436 H   0  0  0  0  0  0  0  0  0  0  0  0
   81.4582   12.0430   38.3963 H   0  0  0  0  0  0  0  0  0  0  0  0
   82.8544   15.4095   38.6828 H   0  0  0  0  0  0  0  0  0  0  0  0
   82.3090   17.5870   36.3700 H   0  0  0  0  0  0  0  0  0  0  0  0
   83.7067   16.8916   33.3858 H   0  0  0  0  0  0  0  0  0  0  0  0
  1  2  1  0
  1  7  1  0
  1  8  1  0
  2  3  1  0
  2 12  1  0
  3  4  1  0
  3  5  1  0
  4 13  1  0
  5  6  1  0
  5 14  1  0
  6  7  1  0
  6 15  1  0
  7 16  1  0
 10  8  1  0
  9 10  2  0
 10 11  2  0
 10 12  1  1
  1 17  1  6
  2 18  1  6
  3 19  1  1
  4 20  1  0
  4 21  1  0
  5 22  1  6
  6 23  1  1
  7 24  1  6
  8 25  1  0
 13 26  1  0
 14 27  1  0
 15 28  1  0
 16 29  1  0
M  END
>  <filename_input>  (4) 
7P4C_5OV_docked.sdf

>  <pdb_id>  (4) 
7P4C_5OV

>  <pose_rank>  (4) 
3

>  <num_atoms_heavy>  (4) 
16

>  <num_torsions>  (4) 
1

>  <pose>  (4) 
[83.75094258442816, 13.918559576115614, 34.18961729549133, -2.744546031865857, 1.9107688746507674, 5.214245745500713, -5.99324140629384]

>  <energy>  (4) 
-913.4898143683722

>  <inter_energy>  (4) 
-920.0390324485758

>  <intra_energy>  (4) 
0.04379399557997038

>  <rmsd>  (4) 
0.381441

>  <sdf_rank>  (4) 
0

$$$$

     RDKit          3D

 29 30  0  0  0  0  0  0  0  0999 V2000
   83.9185   13.8953   34.3711 C   0  0  1  0  0  0  0  0  0  0  0  0
   83.7591   13.0462   35.6417 C   0  0  2  0  0  0  0  0  0  0  0  0
   83.7781   13.8632   36.9225 C   0  0  2  0  0  0  0  0  0  0  0  0
   83.4309   12.9415   38.0809 C   0  0  0  0  0  0  0  0  0  0  0  0
   82.9314   15.1493   36.8920 C   0  0  2  0  0  0  0  0  0  0  0  0
   83.2862   15.9774   35.6893 C   0  0  1  0  0  0  0  0  0  0  0  0
   83.0622   15.1602   34.4058 C   0  0  1  0  0  0  0  0  0  0  0  0
   85.3548   14.1329   34.3573 N   0  0  0  0  0  0  0  0  0  0  0  0
   86.4819   12.0284   33.8099 O   0  0  0  0  0  0  0  0  0  0  0  0
   86.1087   12.8178   34.9474 S   0  0  1  0  0  0  0  0  0  0  0  0
   87.0837   13.1270   35.9310 O   0  0  0  0  0  0  0  0  0  0  0  0
   84.8840   12.1408   35.6779 O   0  0  0  0  0  0  0  0  0  0  0  0
   82.3794   12.0499   37.7139 O   0  0  0  0  0  0  0  0  0  0  0  0
   83.1138   15.9262   38.0807 O   0  0  0  0  0  0  0  0  0  0  0  0
   82.4669   17.1647   35.6425 O   0  0  0  0  0  0  0  0  0  0  0  0
   83.3363   15.9678   33.2638 O   0  0  0  0  0  0  0  0  0  0  0  0
   83.5643   13.4136   33.4478 H   0  0  0  0  0  0  0  0  0  0  0  0
   82.7832   12.5406   35.5967 H   0  0  0  0  0  0  0  0  0  0  0  0
   84.7955   14.2607   37.0525 H   0  0  0  0  0  0  0  0  0  0  0  0
   84.3208   12.3571   38.3574 H   0  0  0  0  0  0  0  0  0  0  0  0
   83.0975   13.5522   38.9329 H   0  0  0  0  0  0  0  0  0  0  0  0
   81.8745   14.8499   36.8344 H   0  0  0  0  0  0  0  0  0  0  0  0
   84.3448   16.2671   35.7636 H   0  0  0  0  0  0  0  0  0  0  0  0
   82.0089   14.8434   34.3933 H   0  0  0  0  0  0  0  0  0  0  0  0
   85.6677   14.3072   33.3916 H   0  0  0  0  0  0  0  0  0  0  0  0
   81.9531   11.6883   38.5310 H   0  0  0  0  0  0  0  0  0  0  0  0
   82.9788   15.3508   38.8749 H   0  0  0  0  0  0  0  0  0  0  0  0
   82.2623   17.4611   36.5647 H   0  0  0  0  0  0  0  0  0  0  0  0
   83.6401   16.8630   33.5579 H   0  0  0  0  0  0  0  0  0  0  0  0
  1  2  1  0
  1  7  1  0
  1  8  1  0
  2  3  1  0
  2 12  1  0
  3  4  1  0
  3  5  1  0
  4 13  1  0
  5  6  1  0
  5 14  1  0
  6  7  1  0
  6 15  1  0
  7 16  1  0
 10  8  1  0
  9 10  2  0
 10 11  2  0
 10 12  1  1
  1 17  1  6
  2 18  1  6
  3 19  1  1
  4 20  1  0
  4 21  1  0
  5 22  1  6
  6 23  1  1
  7 24  1  6
  8 25  1  0
 13 26  1  0
 14 27  1  0
 15 28  1  0
 16 29  1  0
M  END
>  <filename_input>  (5) 
7P4C_5OV_docked.sdf

>  <pdb_id>  (5) 
7P4C_5OV

>  <pose_rank>  (5) 
4

>  <num_atoms_heavy>  (5) 
16

>  <num_torsions>  (5) 
1

>  <pose>  (5) 
[83.91853028328705, 13.895340295041715, 34.371118187043834, -5.926436771245784, 1.351156464183412, 1.4363968224532946, 0.4304336211887163]

>  <energy>  (5) 
-890.163509227041

>  <inter_energy>  (5) 
-891.1200930155624

>  <intra_energy>  (5) 
0.8771868188625623

>  <rmsd>  (5) 
0.299906

>  <sdf_rank>  (5) 
0

$$$$

     RDKit          3D

 29 30  0  0  0  0  0  0  0  0999 V2000
   83.9646   13.8808   34.3726 C   0  0  1  0  0  0  0  0  0  0  0  0
   83.8191   13.0602   35.6634 C   0  0  2  0  0  0  0  0  0  0  0  0
   83.8447   13.9063   36.9251 C   0  0  2  0  0  0  0  0  0  0  0  0
   83.5110   13.0098   38.1069 C   0  0  0  0  0  0  0  0  0  0  0  0
   82.9920   15.1876   36.8721 C   0  0  2  0  0  0  0  0  0  0  0  0
   83.3334   15.9896   35.6481 C   0  0  1  0  0  0  0  0  0  0  0  0
   83.1028   15.1424   34.3854 C   0  0  1  0  0  0  0  0  0  0  0  0
   85.3996   14.1242   34.3417 N   0  0  0  0  0  0  0  0  0  0  0  0
   86.5318   12.0127   33.8332 O   0  0  0  0  0  0  0  0  0  0  0  0
   86.1642   12.8262   34.9555 S   0  0  1  0  0  0  0  0  0  0  0  0
   87.1456   13.1620   35.9238 O   0  0  0  0  0  0  0  0  0  0  0  0
   84.9484   12.1608   35.7111 O   0  0  0  0  0  0  0  0  0  0  0  0
   82.3735   12.1995   37.8157 O   0  0  0  0  0  0  0  0  0  0  0  0
   83.1804   15.9922   38.0413 O   0  0  0  0  0  0  0  0  0  0  0  0
   82.5083   17.1720   35.5809 O   0  0  0  0  0  0  0  0  0  0  0  0
   83.3641   15.9250   33.2231 O   0  0  0  0  0  0  0  0  0  0  0  0
   83.6052   13.3766   33.4634 H   0  0  0  0  0  0  0  0  0  0  0  0
   82.8452   12.5495   35.6379 H   0  0  0  0  0  0  0  0  0  0  0  0
   84.8613   14.3110   37.0377 H   0  0  0  0  0  0  0  0  0  0  0  0
   84.3721   12.3602   38.3227 H   0  0  0  0  0  0  0  0  0  0  0  0
   83.2834   13.6411   38.9785 H   0  0  0  0  0  0  0  0  0  0  0  0
   81.9361   14.8825   36.8300 H   0  0  0  0  0  0  0  0  0  0  0  0
   84.3912   16.2856   35.7072 H   0  0  0  0  0  0  0  0  0  0  0  0
   82.0509   14.8209   34.3887 H   0  0  0  0  0  0  0  0  0  0  0  0
   85.7039   14.2779   33.3697 H   0  0  0  0  0  0  0  0  0  0  0  0
   81.9551   11.9015   38.6620 H   0  0  0  0  0  0  0  0  0  0  0  0
   83.0501   15.4355   38.8495 H   0  0  0  0  0  0  0  0  0  0  0  0
   82.2948   17.4780   36.4980 H   0  0  0  0  0  0  0  0  0  0  0  0
   83.6656   16.8281   33.4943 H   0  0  0  0  0  0  0  0  0  0  0  0
  1  2  1  0
  1  7  1  0
  1  8  1  0
  2  3  1  0
  2 12  1  0
  3  4  1  0
  3  5  1  0
  4 13  1  0
  5  6  1  0
  5 14  1  0
  6  7  1  0
  6 15  1  0
  7 16  1  0
 10  8  1  0
  9 10  2  0
 10 11  2  0
 10 12  1  1
  1 17  1  6
  2 18  1  6
  3 19  1  1
  4 20  1  0
  4 21  1  0
  5 22  1  6
  6 23  1  1
  7 24  1  6
  8 25  1  0
 13 26  1  0
 14 27  1  0
 15 28  1  0
 16 29  1  0
M  END
>  <filename_input>  (6) 
7P4C_5OV_docked.sdf

>  <pdb_id>  (6) 
7P4C_5OV

>  <pose_rank>  (6) 
5

>  <num_atoms_heavy>  (6) 
16

>  <num_torsions>  (6) 
1

>  <pose>  (6) 
[83.96456561120571, 13.880836568735273, 34.37257289683342, -5.948792110074987, 0.008139868485883661, 1.9809160655248081, 6.611371940382015]

>  <energy>  (6) 
-886.285784673294

>  <inter_energy>  (6) 
-883.9276945852648

>  <intra_energy>  (6) 
0.1652361716369633

>  <rmsd>  (6) 
0.259835

>  <sdf_rank>  (6) 
0

$$$$

     RDKit          3D

 29 30  0  0  0  0  0  0  0  0999 V2000
   83.7772   14.1621   34.2220 C   0  0  1  0  0  0  0  0  0  0  0  0
   83.6050   13.1426   35.3585 C   0  0  2  0  0  0  0  0  0  0  0  0
   83.6822   13.7614   36.7440 C   0  0  2  0  0  0  0  0  0  0  0  0
   83.3173   12.6941   37.7636 C   0  0  0  0  0  0  0  0  0  0  0  0
   82.8906   15.0704   36.9221 C   0  0  2  0  0  0  0  0  0  0  0  0
   83.2582   16.0514   35.8449 C   0  0  1  0  0  0  0  0  0  0  0  0
   82.9762   15.4409   34.4616 C   0  0  1  0  0  0  0  0  0  0  0  0
   85.2218   14.3423   34.2080 N   0  0  0  0  0  0  0  0  0  0  0  0
   86.2481   12.2982   33.3321 O   0  0  0  0  0  0  0  0  0  0  0  0
   85.9297   12.9261   34.5814 S   0  0  1  0  0  0  0  0  0  0  0  0
   86.9348   13.0489   35.5756 O   0  0  0  0  0  0  0  0  0  0  0  0
   84.6908   12.1981   35.2349 O   0  0  0  0  0  0  0  0  0  0  0  0
   82.0061   12.1902   37.5142 O   0  0  0  0  0  0  0  0  0  0  0  0
   83.1276   15.6566   38.2066 O   0  0  0  0  0  0  0  0  0  0  0  0
   82.4895   17.2641   35.9917 O   0  0  0  0  0  0  0  0  0  0  0  0
   83.2635   16.3960   33.4434 O   0  0  0  0  0  0  0  0  0  0  0  0
   83.3860   13.8355   33.2472 H   0  0  0  0  0  0  0  0  0  0  0  0
   82.6078   12.6880   35.2641 H   0  0  0  0  0  0  0  0  0  0  0  0
   84.7178   14.0950   36.9058 H   0  0  0  0  0  0  0  0  0  0  0  0
   84.0409   11.8682   37.6974 H   0  0  0  0  0  0  0  0  0  0  0  0
   83.3410   13.1403   38.7688 H   0  0  0  0  0  0  0  0  0  0  0  0
   81.8211   14.8246   36.8472 H   0  0  0  0  0  0  0  0  0  0  0  0
   84.3294   16.2851   35.9349 H   0  0  0  0  0  0  0  0  0  0  0  0
   81.9103   15.1712   34.4287 H   0  0  0  0  0  0  0  0  0  0  0  0
   85.5240   14.6440   33.2707 H   0  0  0  0  0  0  0  0  0  0  0  0
   81.5505   12.0151   38.3755 H   0  0  0  0  0  0  0  0  0  0  0  0
   82.8684   15.0153   38.9149 H   0  0  0  0  0  0  0  0  0  0  0  0
   82.3645   17.4612   36.9539 H   0  0  0  0  0  0  0  0  0  0  0  0
   83.5221   17.2557   33.8608 H   0  0  0  0  0  0  0  0  0  0  0  0
  1  2  1  0
  1  7  1  0
  1  8  1  0
  2  3  1  0
  2 12  1  0
  3  4  1  0
  3  5  1  0
  4 13  1  0
  5  6  1  0
  5 14  1  0
  6  7  1  0
  6 15  1  0
  7 16  1  0
 10  8  1  0
  9 10  2  0
 10 11  2  0
 10 12  1  1
  1 17  1  6
  2 18  1  6
  3 19  1  1
  4 20  1  0
  4 21  1  0
  5 22  1  1
  6 23  1  6
  7 24  1  1
  8 25  1  0
 13 26  1  0
 14 27  1  0
 15 28  1  0
 16 29  1  0
M  END
>  <filename_input>  (7) 
7P4C_5OV_docked.sdf

>  <pdb_id>  (7) 
7P4C_5OV

>  <pose_rank>  (7) 
6

>  <num_atoms_heavy>  (7) 
16

>  <num_torsions>  (7) 
1

>  <pose>  (7) 
[83.77717374243248, 14.162117638348692, 34.221982871172095, -5.855964975644897, -0.4265636609321246, 1.6308648889106472, 6.400206522158675]

>  <energy>  (7) 
-904.4051501499937

>  <inter_energy>  (7) 
-904.3168035648662

>  <intra_energy>  (7) 
0.0

>  <rmsd>  (7) 
0.465145

>  <sdf_rank>  (7) 
0

$$$$

     RDKit          3D

 29 30  0  0  0  0  0  0  0  0999 V2000
   83.9580   13.6816   34.1764 C   0  0  1  0  0  0  0  0  0  0  0  0
   83.8247   12.7922   35.4222 C   0  0  2  0  0  0  0  0  0  0  0  0
   83.8681   13.5682   36.7277 C   0  0  2  0  0  0  0  0  0  0  0  0
   83.5449   12.6096   37.8628 C   0  0  0  0  0  0  0  0  0  0  0  0
   83.0196   14.8531   36.7548 C   0  0  2  0  0  0  0  0  0  0  0  0
   83.3495   15.7196   35.5723 C   0  0  1  0  0  0  0  0  0  0  0  0
   83.1011   14.9431   34.2681 C   0  0  1  0  0  0  0  0  0  0  0  0
   85.3935   13.9220   34.1418 N   0  0  0  0  0  0  0  0  0  0  0  0
   86.5119   11.8379   33.5056 O   0  0  0  0  0  0  0  0  0  0  0  0
   86.1604   12.5902   34.6748 S   0  0  1  0  0  0  0  0  0  0  0  0
   87.1543   12.8697   35.6483 O   0  0  0  0  0  0  0  0  0  0  0  0
   84.9511   11.8881   35.4075 O   0  0  0  0  0  0  0  0  0  0  0  0
   82.2189   12.1012   37.7272 O   0  0  0  0  0  0  0  0  0  0  0  0
   83.2245   15.5922   37.9638 O   0  0  0  0  0  0  0  0  0  0  0  0
   82.5280   16.9064   35.5794 O   0  0  0  0  0  0  0  0  0  0  0  0
   83.3516   15.7871   33.1472 O   0  0  0  0  0  0  0  0  0  0  0  0
   83.5862   13.2288   33.2454 H   0  0  0  0  0  0  0  0  0  0  0  0
   82.8487   12.2866   35.3805 H   0  0  0  0  0  0  0  0  0  0  0  0
   84.8874   13.9631   36.8502 H   0  0  0  0  0  0  0  0  0  0  0  0
   84.2574   11.7717   37.8426 H   0  0  0  0  0  0  0  0  0  0  0  0
   83.6218   13.1508   38.8174 H   0  0  0  0  0  0  0  0  0  0  0  0
   81.9621   14.5539   36.7086 H   0  0  0  0  0  0  0  0  0  0  0  0
   84.4090   16.0087   35.6349 H   0  0  0  0  0  0  0  0  0  0  0  0
   82.0481   14.6251   34.2664 H   0  0  0  0  0  0  0  0  0  0  0  0
   85.6870   14.1274   33.1761 H   0  0  0  0  0  0  0  0  0  0  0  0
   81.8293   11.9519   38.6249 H   0  0  0  0  0  0  0  0  0  0  0  0
   83.0612   15.0031   38.7424 H   0  0  0  0  0  0  0  0  0  0  0  0
   82.3428   17.1739   36.5144 H   0  0  0  0  0  0  0  0  0  0  0  0
   83.6185   16.6862   33.4642 H   0  0  0  0  0  0  0  0  0  0  0  0
  1  2  1  0
  1  7  1  0
  1  8  1  0
  2  3  1  0
  2 12  1  0
  3  4  1  0
  3  5  1  0
  4 13  1  0
  5  6  1  0
  5 14  1  0
  6  7  1  0
  6 15  1  0
  7 16  1  0
 10  8  1  0
  9 10  2  0
 10 11  2  0
 10 12  1  1
  1 17  1  6
  2 18  1  6
  3 19  1  1
  4 20  1  0
  4 21  1  0
  5 22  1  6
  6 23  1  1
  7 24  1  1
  8 25  1  0
 13 26  1  0
 14 27  1  0
 15 28  1  0
 16 29  1  0
M  END
>  <filename_input>  (8) 
7P4C_5OV_docked.sdf

>  <pdb_id>  (8) 
7P4C_5OV

>  <pose_rank>  (8) 
7

>  <num_atoms_heavy>  (8) 
16

>  <num_torsions>  (8) 
1

>  <pose>  (8) 
[83.95801092249442, 13.68158279699901, 34.17638011556169, -6.081901394486446, -1.0766345054623847, 0.6880629286804771, 6.323419486649123]

>  <energy>  (8) 
-822.8449635390315

>  <inter_energy>  (8) 
-837.5006678565735

>  <intra_energy>  (8) 
0.0

>  <rmsd>  (8) 
0.536451

>  <sdf_rank>  (8) 
0

$$$$

     RDKit          3D

 29 30  0  0  0  0  0  0  0  0999 V2000
   83.8839   13.7572   34.1841 C   0  0  1  0  0  0  0  0  0  0  0  0
   83.7494   12.8341   35.4050 C   0  0  2  0  0  0  0  0  0  0  0  0
   83.8132   13.5716   36.7318 C   0  0  2  0  0  0  0  0  0  0  0  0
   83.4871   12.5848   37.8416 C   0  0  0  0  0  0  0  0  0  0  0  0
   82.9813   14.8656   36.8029 C   0  0  2  0  0  0  0  0  0  0  0  0
   83.3127   15.7616   35.6430 C   0  0  1  0  0  0  0  0  0  0  0  0
   83.0439   15.0262   34.3192 C   0  0  1  0  0  0  0  0  0  0  0  0
   85.3220   13.9806   34.1443 N   0  0  0  0  0  0  0  0  0  0  0  0
   86.4087   11.9019   33.4391 O   0  0  0  0  0  0  0  0  0  0  0  0
   86.0762   12.6245   34.6324 S   0  0  1  0  0  0  0  0  0  0  0  0
   87.0815   12.8634   35.6050 O   0  0  0  0  0  0  0  0  0  0  0  0
   84.8641   11.9168   35.3548 O   0  0  0  0  0  0  0  0  0  0  0  0
   82.1762   12.0495   37.6670 O   0  0  0  0  0  0  0  0  0  0  0  0
   83.2055   15.5670   38.0308 O   0  0  0  0  0  0  0  0  0  0  0  0
   82.5065   16.9579   35.6911 O   0  0  0  0  0  0  0  0  0  0  0  0
   83.2961   15.8989   33.2209 O   0  0  0  0  0  0  0  0  0  0  0  0
   83.4988   13.3360   33.2437 H   0  0  0  0  0  0  0  0  0  0  0  0
   82.7667   12.3421   35.3570 H   0  0  0  0  0  0  0  0  0  0  0  0
   84.8384   13.9500   36.8569 H   0  0  0  0  0  0  0  0  0  0  0  0
   84.2187   11.7636   37.8221 H   0  0  0  0  0  0  0  0  0  0  0  0
   83.5306   13.1095   38.8075 H   0  0  0  0  0  0  0  0  0  0  0  0
   81.9198   14.5811   36.7571 H   0  0  0  0  0  0  0  0  0  0  0  0
   84.3762   16.0356   35.7049 H   0  0  0  0  0  0  0  0  0  0  0  0
   81.9869   14.7215   34.3172 H   0  0  0  0  0  0  0  0  0  0  0  0
   85.6103   14.2101   33.1824 H   0  0  0  0  0  0  0  0  0  0  0  0
   81.7672   11.8825   38.5529 H   0  0  0  0  0  0  0  0  0  0  0  0
   83.0135   14.9661   38.7938 H   0  0  0  0  0  0  0  0  0  0  0  0
   82.3395   17.2056   36.6349 H   0  0  0  0  0  0  0  0  0  0  0  0
   83.5541   16.7919   33.5615 H   0  0  0  0  0  0  0  0  0  0  0  0
  1  2  1  0
  1  7  1  0
  1  8  1  0
  2  3  1  0
  2 12  1  0
  3  4  1  0
  3  5  1  0
  4 13  1  0
  5  6  1  0
  5 14  1  0
  6  7  1  0
  6 15  1  0
  7 16  1  0
 10  8  1  0
  9 10  2  0
 10 11  2  0
 10 12  1  1
  1 17  1  6
  2 18  1  6
  3 19  1  1
  4 20  1  0
  4 21  1  0
  5 22  1  6
  6 23  1  1
  7 24  1  1
  8 25  1  0
 13 26  1  0
 14 27  1  0
 15 28  1  0
 16 29  1  0
M  END
>  <filename_input>  (9) 
7P4C_5OV_docked.sdf

>  <pdb_id>  (9) 
7P4C_5OV

>  <pose_rank>  (9) 
8

>  <num_atoms_heavy>  (9) 
16

>  <num_torsions>  (9) 
1

>  <pose>  (9) 
[83.88393645791797, 13.757198989940685, 34.184089292660396, -5.928974128513126, -1.2261106670531525, 1.2555343484889816, 6.371086192585268]

>  <energy>  (9) 
-853.1134232724954

>  <inter_energy>  (9) 
-847.7275015230961

>  <intra_energy>  (9) 
0.0

>  <rmsd>  (9) 
0.528127

>  <sdf_rank>  (9) 
0

$$$$

     RDKit          3D

 29 30  0  0  0  0  0  0  0  0999 V2000
   83.8134   13.9641   34.4385 C   0  0  1  0  0  0  0  0  0  0  0  0
   83.6754   13.1179   35.7136 C   0  0  2  0  0  0  0  0  0  0  0  0
   83.7135   13.9382   36.9919 C   0  0  2  0  0  0  0  0  0  0  0  0
   83.3862   13.0190   38.1580 C   0  0  0  0  0  0  0  0  0  0  0  0
   82.8646   15.2229   36.9716 C   0  0  2  0  0  0  0  0  0  0  0  0
   83.1989   16.0485   35.7614 C   0  0  1  0  0  0  0  0  0  0  0  0
   82.9558   15.2277   34.4836 C   0  0  1  0  0  0  0  0  0  0  0  0
   85.2489   14.2037   34.4013 N   0  0  0  0  0  0  0  0  0  0  0  0
   86.3703   12.0995   33.8413 O   0  0  0  0  0  0  0  0  0  0  0  0
   86.0141   12.8913   34.9826 S   0  0  1  0  0  0  0  0  0  0  0  0
   87.0041   13.2044   35.9498 O   0  0  0  0  0  0  0  0  0  0  0  0
   84.8022   12.2143   35.7342 O   0  0  0  0  0  0  0  0  0  0  0  0
   82.2472   12.2143   37.8572 O   0  0  0  0  0  0  0  0  0  0  0  0
   83.0646   16.0031   38.1553 O   0  0  0  0  0  0  0  0  0  0  0  0
   82.3770   17.2345   35.7246 O   0  0  0  0  0  0  0  0  0  0  0  0
   83.2104   16.0328   33.3354 O   0  0  0  0  0  0  0  0  0  0  0  0
   83.4453   13.4794   33.5222 H   0  0  0  0  0  0  0  0  0  0  0  0
   82.6997   12.6108   35.6854 H   0  0  0  0  0  0  0  0  0  0  0  0
   84.7323   14.3375   37.1047 H   0  0  0  0  0  0  0  0  0  0  0  0
   84.2485   12.3655   38.3565 H   0  0  0  0  0  0  0  0  0  0  0  0
   83.1634   13.6333   39.0428 H   0  0  0  0  0  0  0  0  0  0  0  0
   81.8073   14.9218   36.9316 H   0  0  0  0  0  0  0  0  0  0  0  0
   84.2580   16.3400   35.8181 H   0  0  0  0  0  0  0  0  0  0  0  0
   81.9028   14.9093   34.4887 H   0  0  0  0  0  0  0  0  0  0  0  0
   85.5461   14.3761   33.4302 H   0  0  0  0  0  0  0  0  0  0  0  0
   81.8230   11.9146   38.7001 H   0  0  0  0  0  0  0  0  0  0  0  0
   82.9191   15.4354   38.9532 H   0  0  0  0  0  0  0  0  0  0  0  0
   82.1756   17.5252   36.6493 H   0  0  0  0  0  0  0  0  0  0  0  0
   83.4961   16.9362   33.6226 H   0  0  0  0  0  0  0  0  0  0  0  0
  1  2  1  0
  1  7  1  0
  1  8  1  0
  2  3  1  0
  2 12  1  0
  3  4  1  0
  3  5  1  0
  4 13  1  0
  5  6  1  0
  5 14  1  0
  6  7  1  0
  6 15  1  0
  7 16  1  0
 10  8  1  0
  9 10  2  0
 10 11  2  0
 10 12  1  1
  1 17  1  6
  2 18  1  6
  3 19  1  1
  4 20  1  0
  4 21  1  0
  5 22  1  6
  6 23  1  1
  7 24  1  6
  8 25  1  0
 13 26  1  0
 14 27  1  0
 15 28  1  0
 16 29  1  0
M  END
>  <filename_input>  (10) 
7P4C_5OV_docked.sdf

>  <pdb_id>  (10) 
7P4C_5OV

>  <pose_rank>  (10) 
9

>  <num_atoms_heavy>  (10) 
16

>  <num_torsions>  (10) 
1

>  <pose>  (10) 
[83.81335996845341, 13.964060357665414, 34.438536051235985, -5.9380274313219505, -1.4241397500987552, 1.3258618341074095, 6.615476746137611]

>  <energy>  (10) 
-894.7895164079904

>  <inter_energy>  (10) 
-894.309551869997

>  <intra_energy>  (10) 
0.1829348604708148

>  <rmsd>  (10) 
0.245848

>  <sdf_rank>  (10) 
0

$$$$

     RDKit          3D

 29 30  0  0  0  0  0  0  0  0999 V2000
   83.6395   14.0048   34.4895 C   0  0  1  0  0  0  0  0  0  0  0  0
   83.5078   13.0843   35.7127 C   0  0  2  0  0  0  0  0  0  0  0  0
   83.5766   13.8245   37.0378 C   0  0  2  0  0  0  0  0  0  0  0  0
   83.2528   12.8405   38.1508 C   0  0  0  0  0  0  0  0  0  0  0  0
   82.7464   15.1197   37.1088 C   0  0  2  0  0  0  0  0  0  0  0  0
   83.0751   16.0129   35.9460 C   0  0  1  0  0  0  0  0  0  0  0  0
   82.8013   15.2750   34.6246 C   0  0  1  0  0  0  0  0  0  0  0  0
   85.0777   14.2265   34.4447 N   0  0  0  0  0  0  0  0  0  0  0  0
   86.1598   12.1451   33.7406 O   0  0  0  0  0  0  0  0  0  0  0  0
   85.8320   12.8705   34.9333 S   0  0  1  0  0  0  0  0  0  0  0  0
   86.8405   13.1104   35.9023 O   0  0  0  0  0  0  0  0  0  0  0  0
   84.6213   12.1658   35.6610 O   0  0  0  0  0  0  0  0  0  0  0  0
   82.0866   12.0849   37.8280 O   0  0  0  0  0  0  0  0  0  0  0  0
   82.9751   15.8234   38.3345 O   0  0  0  0  0  0  0  0  0  0  0  0
   82.2703   17.2101   35.9941 O   0  0  0  0  0  0  0  0  0  0  0  0
   83.0510   16.1451   33.5237 O   0  0  0  0  0  0  0  0  0  0  0  0
   83.2510   13.5821   33.5512 H   0  0  0  0  0  0  0  0  0  0  0  0
   82.5244   12.5934   35.6689 H   0  0  0  0  0  0  0  0  0  0  0  0
   84.6026   14.2021   37.1589 H   0  0  0  0  0  0  0  0  0  0  0  0
   84.1023   12.1547   38.2856 H   0  0  0  0  0  0  0  0  0  0  0  0
   83.0668   13.4019   39.0782 H   0  0  0  0  0  0  0  0  0  0  0  0
   81.6843   14.8362   37.0669 H   0  0  0  0  0  0  0  0  0  0  0  0
   84.1391   16.2858   36.0040 H   0  0  0  0  0  0  0  0  0  0  0  0
   81.7440   14.9714   34.6266 H   0  0  0  0  0  0  0  0  0  0  0  0
   85.3632   14.4536   33.4815 H   0  0  0  0  0  0  0  0  0  0  0  0
   81.6395   11.7953   38.6625 H   0  0  0  0  0  0  0  0  0  0  0  0
   82.7808   15.2257   39.0994 H   0  0  0  0  0  0  0  0  0  0  0  0
   82.1037   17.4580   36.9380 H   0  0  0  0  0  0  0  0  0  0  0  0
   83.3076   17.0395   33.8616 H   0  0  0  0  0  0  0  0  0  0  0  0
  1  2  1  0
  1  7  1  0
  1  8  1  0
  2  3  1  0
  2 12  1  0
  3  4  1  0
  3  5  1  0
  4 13  1  0
  5  6  1  0
  5 14  1  0
  6  7  1  0
  6 15  1  0
  7 16  1  0
 10  8  1  0
  9 10  2  0
 10 11  2  0
 10 12  1  1
  1 17  1  6
  2 18  1  6
  3 19  1  1
  4 20  1  0
  4 21  1  0
  5 22  1  6
  6 23  1  6
  7 24  1  1
  8 25  1  0
 13 26  1  0
 14 27  1  0
 15 28  1  0
 16 29  1  0
M  END
>  <filename_input>  (11) 
7P4C_5OV_docked.sdf

>  <pdb_id>  (11) 
7P4C_5OV

>  <pose_rank>  (11) 
10

>  <num_atoms_heavy>  (11) 
16

>  <num_torsions>  (11) 
1

>  <pose>  (11) 
[83.63950169924621, 14.004755297459514, 34.48952428912855, -5.86306912217338, -1.4317403619030153, 1.3492807601485224, 6.600806987475574]

>  <energy>  (11) 
-914.4083199291864

>  <inter_energy>  (11) 
-906.3305657313905

>  <intra_energy>  (11) 
0.12385090674919194

>  <rmsd>  (11) 
0.425308

>  <sdf_rank>  (11) 
0

$$$$

     RDKit          3D

 29 30  0  0  0  0  0  0  0  0999 V2000
   83.8144   14.1298   34.7676 C   0  0  1  0  0  0  0  0  0  0  0  0
   83.7014   13.6417   36.2201 C   0  0  2  0  0  0  0  0  0  0  0  0
   83.6434   14.7705   37.2355 C   0  0  2  0  0  0  0  0  0  0  0  0
   83.3499   14.1688   38.6006 C   0  0  0  0  0  0  0  0  0  0  0  0
   82.7048   15.9348   36.8680 C   0  0  2  0  0  0  0  0  0  0  0  0
   83.0132   16.4354   35.4852 C   0  0  1  0  0  0  0  0  0  0  0  0
   82.8669   15.2904   34.4687 C   0  0  1  0  0  0  0  0  0  0  0  0
   85.2294   14.4613   34.6804 N   0  0  0  0  0  0  0  0  0  0  0  0
   86.5155   12.3771   34.7079 O   0  0  0  0  0  0  0  0  0  0  0  0
   86.0704   13.4117   35.5955 S   0  0  1  0  0  0  0  0  0  0  0  0
   87.0070   14.0443   36.4535 O   0  0  0  0  0  0  0  0  0  0  0  0
   84.8894   12.8654   36.4892 O   0  0  0  0  0  0  0  0  0  0  0  0
   82.2145   13.3074   38.5350 O   0  0  0  0  0  0  0  0  0  0  0  0
   82.8139   17.0125   37.8042 O   0  0  0  0  0  0  0  0  0  0  0  0
   82.1093   17.5025   35.1283 O   0  0  0  0  0  0  0  0  0  0  0  0
   83.0956   15.7815   33.1504 O   0  0  0  0  0  0  0  0  0  0  0  0
   83.5088   13.3938   34.0094 H   0  0  0  0  0  0  0  0  0  0  0  0
   82.7660   13.0713   36.3190 H   0  0  0  0  0  0  0  0  0  0  0  0
   84.6270   15.2628   37.2471 H   0  0  0  0  0  0  0  0  0  0  0  0
   84.2235   13.5908   38.9365 H   0  0  0  0  0  0  0  0  0  0  0  0
   83.1376   14.9828   39.3093 H   0  0  0  0  0  0  0  0  0  0  0  0
   81.6736   15.5531   36.9002 H   0  0  0  0  0  0  0  0  0  0  0  0
   84.0465   16.8124   35.4717 H   0  0  0  0  0  0  0  0  0  0  0  0
   81.8400   14.9044   34.5489 H   0  0  0  0  0  0  0  0  0  0  0  0
   85.5411   14.3939   33.7010 H   0  0  0  0  0  0  0  0  0  0  0  0
   81.9177   13.0823   39.4522 H   0  0  0  0  0  0  0  0  0  0  0  0
   82.7776   16.6537   38.7262 H   0  0  0  0  0  0  0  0  0  0  0  0
   81.7535   17.9226   35.9511 H   0  0  0  0  0  0  0  0  0  0  0  0
   83.5131   16.6778   33.1999 H   0  0  0  0  0  0  0  0  0  0  0  0
  1  2  1  0
  1  7  1  0
  1  8  1  0
  2  3  1  0
  2 12  1  0
  3  4  1  0
  3  5  1  0
  4 13  1  0
  5  6  1  0
  5 14  1  0
  6  7  1  0
  6 15  1  0
  7 16  1  0
 10  8  1  0
  9 10  2  0
 10 11  2  0
 10 12  1  1
  1 17  1  6
  2 18  1  6
  3 19  1  1
  4 20  1  0
  4 21  1  0
  5 22  1  6
  6 23  1  1
  7 24  1  6
  8 25  1  0
 13 26  1  0
 14 27  1  0
 15 28  1  0
 16 29  1  0
M  END
>  <filename_input>  (12) 
7P4C_5OV_docked.sdf

>  <pdb_id>  (12) 
7P4C_5OV

>  <pose_rank>  (12) 
11

>  <num_atoms_heavy>  (12) 
16

>  <num_torsions>  (12) 
1

>  <pose>  (12) 
[83.81442690940054, 14.129802867170023, 34.76755076595509, -6.268065826788842, -0.28849720221986314, 1.8017031931019603, 6.536198261888964]

>  <energy>  (12) 
-785.9051551510704

>  <inter_energy>  (12) 
-775.9298452975956

>  <intra_energy>  (12) 
0.00038984243225853945

>  <rmsd>  (12) 
0.692876

>  <sdf_rank>  (12) 
0

$$$$

     RDKit          3D

 29 30  0  0  0  0  0  0  0  0999 V2000
   84.9352   14.3928   35.1484 C   0  0  1  0  0  0  0  0  0  0  0  0
   84.1229   14.1386   36.4276 C   0  0  2  0  0  0  0  0  0  0  0  0
   83.2106   12.9271   36.3349 C   0  0  2  0  0  0  0  0  0  0  0  0
   82.6084   12.6779   37.7087 C   0  0  0  0  0  0  0  0  0  0  0  0
   83.8497   11.6717   35.7127 C   0  0  2  0  0  0  0  0  0  0  0  0
   84.4764   12.0084   34.3891 C   0  0  1  0  0  0  0  0  0  0  0  0
   85.5340   13.1095   34.5751 C   0  0  1  0  0  0  0  0  0  0  0  0
   83.9447   15.0357   34.2967 N   0  0  0  0  0  0  0  0  0  0  0  0
   83.5064   17.2789   35.1771 O   0  0  0  0  0  0  0  0  0  0  0  0
   82.9703   15.9497   35.2248 S   0  0  1  0  0  0  0  0  0  0  0  0
   81.5917   15.7445   34.9587 O   0  0  0  0  0  0  0  0  0  0  0  0
   83.2924   15.3032   36.6285 O   0  0  0  0  0  0  0  0  0  0  0  0
   83.5321   13.0401   38.7339 O   0  0  0  0  0  0  0  0  0  0  0  0
   82.8881   10.6257   35.5364 O   0  0  0  0  0  0  0  0  0  0  0  0
   85.1061   10.8390   33.8240 O   0  0  0  0  0  0  0  0  0  0  0  0
   86.1735   13.3815   33.3307 O   0  0  0  0  0  0  0  0  0  0  0  0
   85.8331   15.0126   35.2886 H   0  0  0  0  0  0  0  0  0  0  0  0
   84.8281   13.9485   37.2501 H   0  0  0  0  0  0  0  0  0  0  0  0
   82.4136   13.1610   35.6138 H   0  0  0  0  0  0  0  0  0  0  0  0
   81.6937   13.2791   37.8171 H   0  0  0  0  0  0  0  0  0  0  0  0
   82.3733   11.6076   37.8045 H   0  0  0  0  0  0  0  0  0  0  0  0
   84.6245   11.3145   36.4070 H   0  0  0  0  0  0  0  0  0  0  0  0
   83.6883   12.3633   33.7088 H   0  0  0  0  0  0  0  0  0  0  0  0
   86.2738   12.7403   35.3007 H   0  0  0  0  0  0  0  0  0  0  0  0
   84.4189   15.6303   33.6021 H   0  0  0  0  0  0  0  0  0  0  0  0
   83.1213   12.8790   39.6201 H   0  0  0  0  0  0  0  0  0  0  0  0
   82.5887   10.2999   36.4221 H   0  0  0  0  0  0  0  0  0  0  0  0
   85.4233   10.2499   34.5537 H   0  0  0  0  0  0  0  0  0  0  0  0
   87.0715   13.7635   33.4976 H   0  0  0  0  0  0  0  0  0  0  0  0
  1  2  1  0
  1  7  1  0
  1  8  1  0
  2  3  1  0
  2 12  1  0
  3  4  1  0
  3  5  1  0
  4 13  1  0
  5  6  1  0
  5 14  1  0
  6  7  1  0
  6 15  1  0
  7 16  1  0
 10  8  1  0
  9 10  2  0
 10 11  2  0
 10 12  1  1
  1 17  1  1
  2 18  1  1
  3 19  1  6
  4 20  1  0
  4 21  1  0
  5 22  1  1
  6 23  1  6
  7 24  1  1
  8 25  1  0
 13 26  1  0
 14 27  1  0
 15 28  1  0
 16 29  1  0
M  END
>  <filename_input>  (13) 
7P4C_5OV_docked.sdf

>  <pdb_id>  (13) 
7P4C_5OV

>  <pose_rank>  (13) 
12

>  <num_atoms_heavy>  (13) 
16

>  <num_torsions>  (13) 
1

>  <pose>  (13) 
[84.9351825688884, 14.392845561110734, 35.14837329925592, -0.9837315044108083, -1.1027632434006125, 2.3858081478043704, -5.716510735606943]

>  <energy>  (13) 
-584.6338573775622

>  <inter_energy>  (13) 
-571.0147613798363

>  <intra_energy>  (13) 
2.69484576738319

>  <rmsd>  (13) 
4.04523

>  <sdf_rank>  (13) 
0

$$$$

     RDKit          3D

 29 30  0  0  0  0  0  0  0  0999 V2000
   83.7854   14.0227   34.3253 C   0  0  1  0  0  0  0  0  0  0  0  0
   83.6688   13.2754   35.6627 C   0  0  2  0  0  0  0  0  0  0  0  0
   83.6676   14.1950   36.8722 C   0  0  2  0  0  0  0  0  0  0  0  0
   83.3651   13.3593   38.1059 C   0  0  0  0  0  0  0  0  0  0  0  0
   82.7727   15.4420   36.7463 C   0  0  2  0  0  0  0  0  0  0  0  0
   83.0858   16.1811   35.4761 C   0  0  1  0  0  0  0  0  0  0  0  0
   82.8822   15.2536   34.2663 C   0  0  1  0  0  0  0  0  0  0  0  0
   85.2115   14.3113   34.2757 N   0  0  0  0  0  0  0  0  0  0  0  0
   86.4127   12.2121   33.8892 O   0  0  0  0  0  0  0  0  0  0  0  0
   86.0195   13.0779   34.9627 S   0  0  1  0  0  0  0  0  0  0  0  0
   86.9903   13.5026   35.9065 O   0  0  0  0  0  0  0  0  0  0  0  0
   84.8274   12.4183   35.7600 O   0  0  0  0  0  0  0  0  0  0  0  0
   82.1912   12.5741   37.9038 O   0  0  0  0  0  0  0  0  0  0  0  0
   82.9355   16.3201   37.8654 O   0  0  0  0  0  0  0  0  0  0  0  0
   82.2218   17.3295   35.3417 O   0  0  0  0  0  0  0  0  0  0  0  0
   83.1160   15.9743   33.0590 O   0  0  0  0  0  0  0  0  0  0  0  0
   83.4420   13.4540   33.4486 H   0  0  0  0  0  0  0  0  0  0  0  0
   82.7123   12.7321   35.6704 H   0  0  0  0  0  0  0  0  0  0  0  0
   84.6703   14.6391   36.9576 H   0  0  0  0  0  0  0  0  0  0  0  0
   84.2160   12.6922   38.3084 H   0  0  0  0  0  0  0  0  0  0  0  0
   83.1991   14.0331   38.9593 H   0  0  0  0  0  0  0  0  0  0  0  0
   81.7274   15.1000   36.7255 H   0  0  0  0  0  0  0  0  0  0  0  0
   84.1333   16.5149   35.5144 H   0  0  0  0  0  0  0  0  0  0  0  0
   81.8415   14.8981   34.2917 H   0  0  0  0  0  0  0  0  0  0  0  0
   85.5095   14.4172   33.2954 H   0  0  0  0  0  0  0  0  0  0  0  0
   81.8098   12.3190   38.7811 H   0  0  0  0  0  0  0  0  0  0  0  0
   82.8400   15.8051   38.7056 H   0  0  0  0  0  0  0  0  0  0  0  0
   81.9721   17.6615   36.2404 H   0  0  0  0  0  0  0  0  0  0  0  0
   83.4141   16.8932   33.2757 H   0  0  0  0  0  0  0  0  0  0  0  0
  1  2  1  0
  1  7  1  0
  1  8  1  0
  2  3  1  0
  2 12  1  0
  3  4  1  0
  3  5  1  0
  4 13  1  0
  5  6  1  0
  5 14  1  0
  6  7  1  0
  6 15  1  0
  7 16  1  0
 10  8  1  0
  9 10  2  0
 10 11  2  0
 10 12  1  1
  1 17  1  6
  2 18  1  6
  3 19  1  1
  4 20  1  0
  4 21  1  0
  5 22  1  6
  6 23  1  1
  7 24  1  6
  8 25  1  0
 13 26  1  0
 14 27  1  0
 15 28  1  0
 16 29  1  0
M  END
>  <filename_input>  (14) 
7P4C_5OV_docked.sdf

>  <pdb_id>  (14) 
7P4C_5OV

>  <pose_rank>  (14) 
13

>  <num_atoms_heavy>  (14) 
16

>  <num_torsions>  (14) 
1

>  <pose>  (14) 
[83.78541328275895, 14.022711904424089, 34.32528477497005, -5.373574683816701, 0.2484605907389173, 3.3517640137425375, -6.035544207412387]

>  <energy>  (14) 
-872.2237784307371

>  <inter_energy>  (14) 
-870.4235273237996

>  <intra_energy>  (14) 
0.0

>  <rmsd>  (14) 
0.186142

>  <sdf_rank>  (14) 
0

$$$$

     RDKit          3D

 29 30  0  0  0  0  0  0  0  0999 V2000
   83.9965   13.9023   34.4515 C   0  0  1  0  0  0  0  0  0  0  0  0
   83.8137   13.0708   35.7306 C   0  0  2  0  0  0  0  0  0  0  0  0
   83.8545   13.9001   37.0030 C   0  0  2  0  0  0  0  0  0  0  0  0
   83.4820   13.0002   38.1705 C   0  0  0  0  0  0  0  0  0  0  0  0
   83.0431   15.2084   36.9588 C   0  0  2  0  0  0  0  0  0  0  0  0
   83.4206   16.0141   35.7479 C   0  0  1  0  0  0  0  0  0  0  0  0
   83.1748   15.1902   34.4727 C   0  0  1  0  0  0  0  0  0  0  0  0
   85.4387   14.1005   34.4360 N   0  0  0  0  0  0  0  0  0  0  0  0
   86.5083   11.9607   33.9108 O   0  0  0  0  0  0  0  0  0  0  0  0
   86.1565   12.7716   35.0400 S   0  0  1  0  0  0  0  0  0  0  0  0
   87.1392   13.0642   36.0209 O   0  0  0  0  0  0  0  0  0  0  0  0
   84.9136   12.1356   35.7768 O   0  0  0  0  0  0  0  0  0  0  0  0
   82.5521   12.0009   37.7561 O   0  0  0  0  0  0  0  0  0  0  0  0
   83.2462   15.9922   38.1396 O   0  0  0  0  0  0  0  0  0  0  0  0
   82.6338   17.2228   35.6885 O   0  0  0  0  0  0  0  0  0  0  0  0
   83.4711   15.9783   33.3227 O   0  0  0  0  0  0  0  0  0  0  0  0
   83.6296   13.4209   33.5330 H   0  0  0  0  0  0  0  0  0  0  0  0
   82.8244   12.5915   35.6903 H   0  0  0  0  0  0  0  0  0  0  0  0
   84.8823   14.2711   37.1295 H   0  0  0  0  0  0  0  0  0  0  0  0
   84.3898   12.5123   38.5551 H   0  0  0  0  0  0  0  0  0  0  0  0
   83.0177   13.6130   38.9572 H   0  0  0  0  0  0  0  0  0  0  0  0
   81.9785   14.9373   36.9037 H   0  0  0  0  0  0  0  0  0  0  0  0
   84.4866   16.2757   35.8198 H   0  0  0  0  0  0  0  0  0  0  0  0
   82.1133   14.9021   34.4629 H   0  0  0  0  0  0  0  0  0  0  0  0
   85.7564   14.2564   33.4687 H   0  0  0  0  0  0  0  0  0  0  0  0
   82.1522   11.5712   38.5534 H   0  0  0  0  0  0  0  0  0  0  0  0
   83.1000   15.4277   38.9396 H   0  0  0  0  0  0  0  0  0  0  0  0
   82.4330   17.5313   36.6075 H   0  0  0  0  0  0  0  0  0  0  0  0
   83.8047   16.8657   33.6078 H   0  0  0  0  0  0  0  0  0  0  0  0
  1  2  1  0
  1  7  1  0
  1  8  1  0
  2  3  1  0
  2 12  1  0
  3  4  1  0
  3  5  1  0
  4 13  1  0
  5  6  1  0
  5 14  1  0
  6  7  1  0
  6 15  1  0
  7 16  1  0
 10  8  1  0
  9 10  2  0
 10 11  2  0
 10 12  1  1
  1 17  1  6
  2 18  1  6
  3 19  1  1
  4 20  1  0
  4 21  1  0
  5 22  1  6
  6 23  1  1
  7 24  1  6
  8 25  1  0
 13 26  1  0
 14 27  1  0
 15 28  1  0
 16 29  1  0
M  END
>  <filename_input>  (15) 
7P4C_5OV_docked.sdf

>  <pdb_id>  (15) 
7P4C_5OV

>  <pose_rank>  (15) 
14

>  <num_atoms_heavy>  (15) 
16

>  <num_torsions>  (15) 
1

>  <pose>  (15) 
[83.99649152765996, 13.902258551110867, 34.45148487856319, -3.50479840923097, 1.262444001100057, 5.004393986464594, -5.699425864930207]

>  <energy>  (15) 
-883.3115878342215

>  <inter_energy>  (15) 
-899.240374288208

>  <intra_energy>  (15) 
2.9904711465301292

>  <rmsd>  (15) 
0.336672

>  <sdf_rank>  (15) 
0

$$$$

     RDKit          3D

 29 30  0  0  0  0  0  0  0  0999 V2000
   84.7514   14.4124   34.8800 C   0  0  1  0  0  0  0  0  0  0  0  0
   84.0208   14.1980   36.2146 C   0  0  2  0  0  0  0  0  0  0  0  0
   83.1317   12.9660   36.2272 C   0  0  2  0  0  0  0  0  0  0  0  0
   82.6161   12.7648   37.6433 C   0  0  0  0  0  0  0  0  0  0  0  0
   83.7609   11.6975   35.6216 C   0  0  2  0  0  0  0  0  0  0  0  0
   84.3019   11.9888   34.2503 C   0  0  1  0  0  0  0  0  0  0  0  0
   85.3440   13.1174   34.3269 C   0  0  1  0  0  0  0  0  0  0  0  0
   83.6991   14.9983   34.0622 N   0  0  0  0  0  0  0  0  0  0  0  0
   83.2634   17.2685   34.8717 O   0  0  0  0  0  0  0  0  0  0  0  0
   82.7604   15.9323   35.0070 S   0  0  1  0  0  0  0  0  0  0  0  0
   81.3735   15.6889   34.8318 O   0  0  0  0  0  0  0  0  0  0  0  0
   83.1779   15.3537   36.4151 O   0  0  0  0  0  0  0  0  0  0  0  0
   83.6603   12.9780   38.5917 O   0  0  0  0  0  0  0  0  0  0  0  0
   82.8141   10.6262   35.5466 O   0  0  0  0  0  0  0  0  0  0  0  0
   84.9233   10.8086   33.6986 O   0  0  0  0  0  0  0  0  0  0  0  0
   85.9037   13.3477   33.0365 O   0  0  0  0  0  0  0  0  0  0  0  0
   85.6421   15.0551   34.9408 H   0  0  0  0  0  0  0  0  0  0  0  0
   84.7767   14.0575   37.0013 H   0  0  0  0  0  0  0  0  0  0  0  0
   82.2890   13.1528   35.5452 H   0  0  0  0  0  0  0  0  0  0  0  0
   81.8011   13.4778   37.8363 H   0  0  0  0  0  0  0  0  0  0  0  0
   82.2499   11.7325   37.7446 H   0  0  0  0  0  0  0  0  0  0  0  0
   84.5826   11.3860   36.2832 H   0  0  0  0  0  0  0  0  0  0  0  0
   83.4679   12.2985   33.6034 H   0  0  0  0  0  0  0  0  0  0  0  0
   86.1328   12.7945   35.0223 H   0  0  0  0  0  0  0  0  0  0  0  0
   84.1187   15.5714   33.3163 H   0  0  0  0  0  0  0  0  0  0  0  0
   83.2940   12.9032   39.5084 H   0  0  0  0  0  0  0  0  0  0  0  0
   82.5635   10.3427   36.4615 H   0  0  0  0  0  0  0  0  0  0  0  0
   85.2315   10.2231   34.4350 H   0  0  0  0  0  0  0  0  0  0  0  0
   86.8148   13.7226   33.1341 H   0  0  0  0  0  0  0  0  0  0  0  0
  1  2  1  0
  1  7  1  0
  1  8  1  0
  2  3  1  0
  2 12  1  0
  3  4  1  0
  3  5  1  0
  4 13  1  0
  5  6  1  0
  5 14  1  0
  6  7  1  0
  6 15  1  0
  7 16  1  0
 10  8  1  0
  9 10  2  0
 10 11  2  0
 10 12  1  1
  1 17  1  1
  2 18  1  1
  3 19  1  6
  4 20  1  0
  4 21  1  0
  5 22  1  1
  6 23  1  6
  7 24  1  1
  8 25  1  0
 13 26  1  0
 14 27  1  0
 15 28  1  0
 16 29  1  0
M  END
>  <filename_input>  (16) 
7P4C_5OV_docked.sdf

>  <pdb_id>  (16) 
7P4C_5OV

>  <pose_rank>  (16) 
15

>  <num_atoms_heavy>  (16) 
16

>  <num_torsions>  (16) 
1

>  <pose>  (16) 
[84.75138331940143, 14.41240301066545, 34.88004730902801, -0.914064888042205, -1.0501288909037552, 2.448047941912708, -5.883276532519101]

>  <energy>  (16) 
-610.6914859665106

>  <inter_energy>  (16) 
-613.653346302501

>  <intra_energy>  (16) 
0.6054404545471124

>  <rmsd>  (16) 
4.06872

>  <sdf_rank>  (16) 
0

$$$$

     RDKit          3D

 29 30  0  0  0  0  0  0  0  0999 V2000
   83.9589   13.9767   34.3038 C   0  0  1  0  0  0  0  0  0  0  0  0
   83.7782   13.1536   35.5885 C   0  0  2  0  0  0  0  0  0  0  0  0
   83.7355   14.0004   36.8493 C   0  0  2  0  0  0  0  0  0  0  0  0
   83.3727   13.0976   38.0177 C   0  0  0  0  0  0  0  0  0  0  0  0
   82.8598   15.2641   36.7606 C   0  0  2  0  0  0  0  0  0  0  0  0
   83.2339   16.0725   35.5504 C   0  0  1  0  0  0  0  0  0  0  0  0
   83.0718   15.2204   34.2803 C   0  0  1  0  0  0  0  0  0  0  0  0
   85.3888   14.2493   34.3306 N   0  0  0  0  0  0  0  0  0  0  0  0
   86.5834   12.1612   33.8706 O   0  0  0  0  0  0  0  0  0  0  0  0
   86.1542   12.9674   34.9762 S   0  0  1  0  0  0  0  0  0  0  0  0
   87.0887   13.3234   35.9830 O   0  0  0  0  0  0  0  0  0  0  0  0
   84.9227   12.2774   35.6829 O   0  0  0  0  0  0  0  0  0  0  0  0
   81.9704   12.8354   38.0317 O   0  0  0  0  0  0  0  0  0  0  0  0
   82.9843   16.0727   37.9355 O   0  0  0  0  0  0  0  0  0  0  0  0
   82.3883   17.2378   35.4486 O   0  0  0  0  0  0  0  0  0  0  0  0
   83.3638   16.0078   33.1287 O   0  0  0  0  0  0  0  0  0  0  0  0
   83.6469   13.4650   33.3814 H   0  0  0  0  0  0  0  0  0  0  0  0
   82.8167   12.6232   35.5243 H   0  0  0  0  0  0  0  0  0  0  0  0
   84.7383   14.4258   37.0025 H   0  0  0  0  0  0  0  0  0  0  0  0
   83.9175   12.1468   37.9229 H   0  0  0  0  0  0  0  0  0  0  0  0
   83.6489   13.6020   38.9554 H   0  0  0  0  0  0  0  0  0  0  0  0
   81.8128   14.9374   36.6761 H   0  0  0  0  0  0  0  0  0  0  0  0
   84.2822   16.3900   35.6519 H   0  0  0  0  0  0  0  0  0  0  0  0
   82.0274   14.8775   34.2415 H   0  0  0  0  0  0  0  0  0  0  0  0
   85.7289   14.4088   33.3715 H   0  0  0  0  0  0  0  0  0  0  0  0
   81.6550   12.7764   38.9682 H   0  0  0  0  0  0  0  0  0  0  0  0
   82.8964   15.5020   38.7397 H   0  0  0  0  0  0  0  0  0  0  0  0
   82.1563   17.5575   36.3564 H   0  0  0  0  0  0  0  0  0  0  0  0
   83.6937   16.8972   33.4120 H   0  0  0  0  0  0  0  0  0  0  0  0
  1  2  1  0
  1  7  1  0
  1  8  1  0
  2  3  1  0
  2 12  1  0
  3  4  1  0
  3  5  1  0
  4 13  1  0
  5  6  1  0
  5 14  1  0
  6  7  1  0
  6 15  1  0
  7 16  1  0
 10  8  1  0
  9 10  2  0
 10 11  2  0
 10 12  1  1
  1 17  1  6
  2 18  1  6
  3 19  1  1
  4 20  1  0
  4 21  1  0
  5 22  1  6
  6 23  1  1
  7 24  1  6
  8 25  1  0
 13 26  1  0
 14 27  1  0
 15 28  1  0
 16 29  1  0
M  END
>  <filename_input>  (17) 
7P4C_5OV_docked.sdf

>  <pdb_id>  (17) 
7P4C_5OV

>  <pose_rank>  (17) 
16

>  <num_atoms_heavy>  (17) 
16

>  <num_torsions>  (17) 
1

>  <pose>  (17) 
[83.95891135436112, 13.976684226950715, 34.30376426770606, -1.6491391939011473, 5.56855160308762, -2.2770142963229505, 6.056535018291482]

>  <energy>  (17) 
-889.7279352031078

>  <inter_energy>  (17) 
-888.9650033619635

>  <intra_energy>  (17) 
0.0011751356125933312

>  <rmsd>  (17) 
0.13992

>  <sdf_rank>  (17) 
0

$$$$

     RDKit          3D

 29 30  0  0  0  0  0  0  0  0999 V2000
   84.8882   14.5986   35.2718 C   0  0  1  0  0  0  0  0  0  0  0  0
   84.1625   14.2776   36.5875 C   0  0  2  0  0  0  0  0  0  0  0  0
   83.2566   13.0611   36.4982 C   0  0  2  0  0  0  0  0  0  0  0  0
   82.7467   12.7431   37.8949 C   0  0  0  0  0  0  0  0  0  0  0  0
   83.8648   11.8425   35.7793 C   0  0  2  0  0  0  0  0  0  0  0  0
   84.4018   12.2458   34.4351 C   0  0  1  0  0  0  0  0  0  0  0  0
   85.4597   13.3495   34.6031 C   0  0  1  0  0  0  0  0  0  0  0  0
   83.8393   15.2679   34.5158 N   0  0  0  0  0  0  0  0  0  0  0  0
   83.4396   17.4638   35.5244 O   0  0  0  0  0  0  0  0  0  0  0  0
   82.9191   16.1277   35.5455 S   0  0  1  0  0  0  0  0  0  0  0  0
   81.5279   15.9189   35.3593 O   0  0  0  0  0  0  0  0  0  0  0  0
   83.3368   15.4223   36.8945 O   0  0  0  0  0  0  0  0  0  0  0  0
   83.6588   13.2210   38.8822 O   0  0  0  0  0  0  0  0  0  0  0  0
   82.9029   10.7944   35.6174 O   0  0  0  0  0  0  0  0  0  0  0  0
   85.0036   11.1105   33.7777 O   0  0  0  0  0  0  0  0  0  0  0  0
   86.0150   13.6848   33.3339 O   0  0  0  0  0  0  0  0  0  0  0  0
   85.7880   15.2217   35.3824 H   0  0  0  0  0  0  0  0  0  0  0  0
   84.9210   14.0586   37.3535 H   0  0  0  0  0  0  0  0  0  0  0  0
   82.4127   13.3181   35.8412 H   0  0  0  0  0  0  0  0  0  0  0  0
   81.7692   13.2258   38.0416 H   0  0  0  0  0  0  0  0  0  0  0  0
   82.6510   11.6522   37.9982 H   0  0  0  0  0  0  0  0  0  0  0  0
   84.6860   11.4632   36.4053 H   0  0  0  0  0  0  0  0  0  0  0  0
   83.5683   12.6220   33.8237 H   0  0  0  0  0  0  0  0  0  0  0  0
   86.2480   12.9564   35.2619 H   0  0  0  0  0  0  0  0  0  0  0  0
   84.2624   15.8986   33.8202 H   0  0  0  0  0  0  0  0  0  0  0  0
   83.2976   13.0318   39.7843 H   0  0  0  0  0  0  0  0  0  0  0  0
   82.6098   10.4751   36.5075 H   0  0  0  0  0  0  0  0  0  0  0  0
   85.3403   10.4753   34.4584 H   0  0  0  0  0  0  0  0  0  0  0  0
   86.8551   14.1920   33.4649 H   0  0  0  0  0  0  0  0  0  0  0  0
  1  2  1  0
  1  7  1  0
  1  8  1  0
  2  3  1  0
  2 12  1  0
  3  4  1  0
  3  5  1  0
  4 13  1  0
  5  6  1  0
  5 14  1  0
  6  7  1  0
  6 15  1  0
  7 16  1  0
 10  8  1  0
  9 10  2  0
 10 11  2  0
 10 12  1  1
  1 17  1  1
  2 18  1  1
  3 19  1  6
  4 20  1  0
  4 21  1  0
  5 22  1  1
  6 23  1  6
  7 24  1  1
  8 25  1  0
 13 26  1  0
 14 27  1  0
 15 28  1  0
 16 29  1  0
M  END
>  <filename_input>  (18) 
7P4C_5OV_docked.sdf

>  <pdb_id>  (18) 
7P4C_5OV

>  <pose_rank>  (18) 
17

>  <num_atoms_heavy>  (18) 
16

>  <num_torsions>  (18) 
1

>  <pose>  (18) 
[84.8881977986229, 14.598646310852047, 35.271776395164714, -0.8819086565318641, -1.1358440888981034, 2.372015769544223, -5.590287301700513]

>  <energy>  (18) 
-612.8081226064502

>  <inter_energy>  (18) 
-618.5554617631016

>  <intra_energy>  (18) 
5.208722286687343

>  <rmsd>  (18) 
4.00836

>  <sdf_rank>  (18) 
0

$$$$

     RDKit          3D

 29 30  0  0  0  0  0  0  0  0999 V2000
   84.7628   14.7239   35.3506 C   0  0  1  0  0  0  0  0  0  0  0  0
   83.9260   14.4038   36.5989 C   0  0  2  0  0  0  0  0  0  0  0  0
   83.0800   13.1499   36.4556 C   0  0  2  0  0  0  0  0  0  0  0  0
   82.4498   12.8436   37.8050 C   0  0  0  0  0  0  0  0  0  0  0  0
   83.8009   11.9409   35.8310 C   0  0  2  0  0  0  0  0  0  0  0  0
   84.4495   12.3349   34.5341 C   0  0  1  0  0  0  0  0  0  0  0  0
   85.4435   13.4840   34.7732 C   0  0  1  0  0  0  0  0  0  0  0  0
   83.7672   15.3327   34.4802 N   0  0  0  0  0  0  0  0  0  0  0  0
   83.1885   17.5331   35.3871 O   0  0  0  0  0  0  0  0  0  0  0  0
   82.7197   16.1779   35.3938 S   0  0  1  0  0  0  0  0  0  0  0  0
   81.3620   15.9088   35.0809 O   0  0  0  0  0  0  0  0  0  0  0  0
   83.0315   15.5209   36.7948 O   0  0  0  0  0  0  0  0  0  0  0  0
   83.4387   12.8516   38.8333 O   0  0  0  0  0  0  0  0  0  0  0  0
   82.8997   10.8514   35.6056 O   0  0  0  0  0  0  0  0  0  0  0  0
   85.1549   11.2101   33.9678 O   0  0  0  0  0  0  0  0  0  0  0  0
   86.1058   13.8124   33.5546 O   0  0  0  0  0  0  0  0  0  0  0  0
   85.6233   15.3852   35.5303 H   0  0  0  0  0  0  0  0  0  0  0  0
   84.6146   14.2332   37.4396 H   0  0  0  0  0  0  0  0  0  0  0  0
   82.2944   13.3576   35.7142 H   0  0  0  0  0  0  0  0  0  0  0  0
   81.6881   13.6047   38.0297 H   0  0  0  0  0  0  0  0  0  0  0  0
   81.9890   11.8456   37.7634 H   0  0  0  0  0  0  0  0  0  0  0  0
   84.5714   11.6095   36.5426 H   0  0  0  0  0  0  0  0  0  0  0  0
   83.6654   12.6630   33.8359 H   0  0  0  0  0  0  0  0  0  0  0  0
   86.1787   13.1382   35.5147 H   0  0  0  0  0  0  0  0  0  0  0  0
   84.2314   15.9641   33.8117 H   0  0  0  0  0  0  0  0  0  0  0  0
   82.9947   12.8480   39.7181 H   0  0  0  0  0  0  0  0  0  0  0  0
   82.5984   10.4871   36.4754 H   0  0  0  0  0  0  0  0  0  0  0  0
   85.5108   10.6427   34.6968 H   0  0  0  0  0  0  0  0  0  0  0  0
   86.9740   14.2431   33.7565 H   0  0  0  0  0  0  0  0  0  0  0  0
  1  2  1  0
  1  7  1  0
  1  8  1  0
  2  3  1  0
  2 12  1  0
  3  4  1  0
  3  5  1  0
  4 13  1  0
  5  6  1  0
  5 14  1  0
  6  7  1  0
  6 15  1  0
  7 16  1  0
 10  8  1  0
  9 10  2  0
 10 11  2  0
 10 12  1  1
  1 17  1  1
  2 18  1  1
  3 19  1  6
  4 20  1  0
  4 21  1  0
  5 22  1  1
  6 23  1  6
  7 24  1  1
  8 25  1  0
 13 26  1  0
 14 27  1  0
 15 28  1  0
 16 29  1  0
M  END
>  <filename_input>  (19) 
7P4C_5OV_docked.sdf

>  <pdb_id>  (19) 
7P4C_5OV

>  <pose_rank>  (19) 
18

>  <num_atoms_heavy>  (19) 
16

>  <num_torsions>  (19) 
1

>  <pose>  (19) 
[84.76281315708806, 14.723928680924367, 35.35063207343502, -1.0009299088232129, -1.1727793950205883, 2.402954191422509, -6.016042102996806]

>  <energy>  (19) 
-601.9087519469405

>  <inter_energy>  (19) 
-598.7854470313387

>  <intra_energy>  (19) 
0.00848890543930332

>  <rmsd>  (19) 
4.02969

>  <sdf_rank>  (19) 
0

$$$$

     RDKit          3D

 29 30  0  0  0  0  0  0  0  0999 V2000
   85.7943   12.3034   34.7330 C   0  0  1  0  0  0  0  0  0  0  0  0
   85.1538   12.1067   36.1157 C   0  0  2  0  0  0  0  0  0  0  0  0
   84.5434   13.3756   36.6864 C   0  0  2  0  0  0  0  0  0  0  0  0
   83.7901   13.0126   37.9563 C   0  0  0  0  0  0  0  0  0  0  0  0
   83.7038   14.2023   35.6948 C   0  0  2  0  0  0  0  0  0  0  0  0
   84.4905   14.4686   34.4426 C   0  0  1  0  0  0  0  0  0  0  0  0
   84.9188   13.1385   33.8000 C   0  0  1  0  0  0  0  0  0  0  0  0
   87.0665   12.9173   35.0854 N   0  0  0  0  0  0  0  0  0  0  0  0
   88.4736   11.2220   36.1555 O   0  0  0  0  0  0  0  0  0  0  0  0
   87.5781   12.2891   36.4960 S   0  0  1  0  0  0  0  0  0  0  0  0
   87.9916   13.2747   37.4294 O   0  0  0  0  0  0  0  0  0  0  0  0
   86.2111   11.6857   37.0052 O   0  0  0  0  0  0  0  0  0  0  0  0
   82.9001   11.9236   37.7170 O   0  0  0  0  0  0  0  0  0  0  0  0
   83.2832   15.4438   36.2708 O   0  0  0  0  0  0  0  0  0  0  0  0
   83.6898   15.2126   33.4998 O   0  0  0  0  0  0  0  0  0  0  0  0
   85.6081   13.3910   32.5783 O   0  0  0  0  0  0  0  0  0  0  0  0
   85.9219   11.3800   34.1490 H   0  0  0  0  0  0  0  0  0  0  0  0
   84.3392   11.3743   36.0158 H   0  0  0  0  0  0  0  0  0  0  0  0
   85.3656   14.0667   36.9237 H   0  0  0  0  0  0  0  0  0  0  0  0
   84.5116   12.7256   38.7354 H   0  0  0  0  0  0  0  0  0  0  0  0
   83.2045   13.8845   38.2833 H   0  0  0  0  0  0  0  0  0  0  0  0
   82.8069   13.6150   35.4486 H   0  0  0  0  0  0  0  0  0  0  0  0
   85.3821   15.0558   34.7074 H   0  0  0  0  0  0  0  0  0  0  0  0
   84.0065   12.5577   33.5993 H   0  0  0  0  0  0  0  0  0  0  0  0
   87.7600   12.7244   34.3487 H   0  0  0  0  0  0  0  0  0  0  0  0
   82.5952   11.5505   38.5818 H   0  0  0  0  0  0  0  0  0  0  0  0
   83.3067   15.3744   37.2581 H   0  0  0  0  0  0  0  0  0  0  0  0
   83.0602   15.7976   33.9910 H   0  0  0  0  0  0  0  0  0  0  0  0
   86.5189   13.7247   32.7762 H   0  0  0  0  0  0  0  0  0  0  0  0
  1  2  1  0
  1  7  1  0
  1  8  1  0
  2  3  1  0
  2 12  1  0
  3  4  1  0
  3  5  1  0
  4 13  1  0
  5  6  1  0
  5 14  1  0
  6  7  1  0
  6 15  1  0
  7 16  1  0
 10  8  1  0
  9 10  2  0
 10 11  2  0
 10 12  1  1
  1 17  1  6
  2 18  1  6
  3 19  1  1
  4 20  1  0
  4 21  1  0
  5 22  1  6
  6 23  1  1
  7 24  1  6
  8 25  1  0
 13 26  1  0
 14 27  1  0
 15 28  1  0
 16 29  1  0
M  END
>  <filename_input>  (20) 
7P4C_5OV_docked.sdf

>  <pdb_id>  (20) 
7P4C_5OV

>  <pose_rank>  (20) 
19

>  <num_atoms_heavy>  (20) 
16

>  <num_torsions>  (20) 
1

>  <pose>  (20) 
[85.79431956240232, 12.303419263117572, 34.732994092661755, -0.49395809557860865, -0.4318209051713513, 0.2008952117414055, -6.028670382634579]

>  <energy>  (20) 
-540.4526361453909

>  <inter_energy>  (20) 
-522.7416945101232

>  <intra_energy>  (20) 
0.0007524530912589739

>  <rmsd>  (20) 
2.3086

>  <sdf_rank>  (20) 
0

$$$$

     RDKit          3D

 29 30  0  0  0  0  0  0  0  0999 V2000
   87.3169   12.3617   34.7750 C   0  0  1  0  0  0  0  0  0  0  0  0
   86.9968   11.7689   36.1558 C   0  0  2  0  0  0  0  0  0  0  0  0
   85.7438   12.3502   36.7888 C   0  0  2  0  0  0  0  0  0  0  0  0
   85.4371   11.5602   38.0512 C   0  0  0  0  0  0  0  0  0  0  0  0
   84.5345   12.4843   35.8447 C   0  0  2  0  0  0  0  0  0  0  0  0
   84.9287   13.2201   34.5953 C   0  0  1  0  0  0  0  0  0  0  0  0
   86.0767   12.4780   33.8903 C   0  0  1  0  0  0  0  0  0  0  0  0
   87.9273   13.6328   35.1375 N   0  0  0  0  0  0  0  0  0  0  0  0
   90.1276   13.1835   36.1152 O   0  0  0  0  0  0  0  0  0  0  0  0
   88.7728   13.4341   36.5130 S   0  0  1  0  0  0  0  0  0  0  0  0
   88.5052   14.4348   37.4828 O   0  0  0  0  0  0  0  0  0  0  0  0
   88.1145   12.0892   37.0128 O   0  0  0  0  0  0  0  0  0  0  0  0
   86.4446   10.5775   38.2845 O   0  0  0  0  0  0  0  0  0  0  0  0
   83.4460   13.1643   36.4792 O   0  0  0  0  0  0  0  0  0  0  0  0
   83.8037   13.3134   33.6959 O   0  0  0  0  0  0  0  0  0  0  0  0
   86.4054   13.1408   32.6720 O   0  0  0  0  0  0  0  0  0  0  0  0
   87.9773   11.7427   34.1499 H   0  0  0  0  0  0  0  0  0  0  0  0
   86.8249   10.6892   36.0346 H   0  0  0  0  0  0  0  0  0  0  0  0
   85.9527   13.3993   37.0453 H   0  0  0  0  0  0  0  0  0  0  0  0
   85.3980   12.2487   38.9082 H   0  0  0  0  0  0  0  0  0  0  0  0
   84.4688   11.0533   37.9264 H   0  0  0  0  0  0  0  0  0  0  0  0
   84.2019   11.4685   35.5846 H   0  0  0  0  0  0  0  0  0  0  0  0
   85.2581   14.2319   34.8741 H   0  0  0  0  0  0  0  0  0  0  0  0
   85.7298   11.4564   33.6761 H   0  0  0  0  0  0  0  0  0  0  0  0
   88.5587   13.9410   34.3844 H   0  0  0  0  0  0  0  0  0  0  0  0
   86.5684   10.4568   39.2593 H   0  0  0  0  0  0  0  0  0  0  0  0
   83.5459   13.1019   37.4622 H   0  0  0  0  0  0  0  0  0  0  0  0
   82.9669   13.3829   34.2203 H   0  0  0  0  0  0  0  0  0  0  0  0
   86.8359   14.0090   32.8744 H   0  0  0  0  0  0  0  0  0  0  0  0
  1  2  1  0
  1  7  1  0
  1  8  1  0
  2  3  1  0
  2 12  1  0
  3  4  1  0
  3  5  1  0
  4 13  1  0
  5  6  1  0
  5 14  1  0
  6  7  1  0
  6 15  1  0
  7 16  1  0
 10  8  1  0
  9 10  2  0
 10 11  2  0
 10 12  1  1
  1 17  1  6
  2 18  1  6
  3 19  1  1
  4 20  1  0
  4 21  1  0
  5 22  1  6
  6 23  1  1
  7 24  1  6
  8 25  1  0
 13 26  1  0
 14 27  1  0
 15 28  1  0
 16 29  1  0
M  END
>  <filename_input>  (21) 
7P4C_5OV_docked.sdf

>  <pdb_id>  (21) 
7P4C_5OV

>  <pose_rank>  (21) 
20

>  <num_atoms_heavy>  (21) 
16

>  <num_torsions>  (21) 
1

>  <pose>  (21) 
[87.31692363489378, 12.361747520050939, 34.77497116838849, -0.29047976714910817, -0.5664147234863388, 0.8564338319345812, -5.087244553777195]

>  <energy>  (21) 
-349.84506403893

>  <inter_energy>  (21) 
-353.0503045176978

>  <intra_energy>  (21) 
19.843400945269842

>  <rmsd>  (21) 
3.64963

>  <sdf_rank>  (21) 
0

$$$$

     RDKit          3D

 29 30  0  0  0  0  0  0  0  0999 V2000
   86.2479   11.9932   34.9508 C   0  0  1  0  0  0  0  0  0  0  0  0
   85.7313   12.1115   36.3930 C   0  0  2  0  0  0  0  0  0  0  0  0
   84.9591   13.3932   36.6564 C   0  0  2  0  0  0  0  0  0  0  0  0
   84.3515   13.3062   38.0475 C   0  0  0  0  0  0  0  0  0  0  0  0
   83.9392   13.7789   35.5688 C   0  0  2  0  0  0  0  0  0  0  0  0
   84.5963   13.7839   34.2175 C   0  0  1  0  0  0  0  0  0  0  0  0
   85.1949   12.3985   33.9208 C   0  0  1  0  0  0  0  0  0  0  0  0
   87.4229   12.8519   34.9904 N   0  0  0  0  0  0  0  0  0  0  0  0
   89.1468   11.7432   36.3312 O   0  0  0  0  0  0  0  0  0  0  0  0
   88.1126   12.7284   36.4585 S   0  0  1  0  0  0  0  0  0  0  0  0
   88.4164   13.9863   37.0407 O   0  0  0  0  0  0  0  0  0  0  0  0
   86.8940   12.1118   37.2502 O   0  0  0  0  0  0  0  0  0  0  0  0
   83.6429   12.0785   38.2089 O   0  0  0  0  0  0  0  0  0  0  0  0
   83.3586   15.0623   35.8251 O   0  0  0  0  0  0  0  0  0  0  0  0
   83.6311   14.1103   33.1952 O   0  0  0  0  0  0  0  0  0  0  0  0
   85.7601   12.3856   32.6124 O   0  0  0  0  0  0  0  0  0  0  0  0
   86.4880   10.9686   34.6304 H   0  0  0  0  0  0  0  0  0  0  0  0
   85.0413   11.2756   36.5805 H   0  0  0  0  0  0  0  0  0  0  0  0
   85.6714   14.2302   36.6109 H   0  0  0  0  0  0  0  0  0  0  0  0
   85.1546   13.3615   38.7971 H   0  0  0  0  0  0  0  0  0  0  0  0
   83.6488   14.1419   38.1810 H   0  0  0  0  0  0  0  0  0  0  0  0
   83.1360   13.0276   35.5852 H   0  0  0  0  0  0  0  0  0  0  0  0
   85.3955   14.5397   34.2196 H   0  0  0  0  0  0  0  0  0  0  0  0
   84.3781   11.6641   33.9805 H   0  0  0  0  0  0  0  0  0  0  0  0
   88.0932   12.5551   34.2668 H   0  0  0  0  0  0  0  0  0  0  0  0
   83.5318   11.8860   39.1736 H   0  0  0  0  0  0  0  0  0  0  0  0
   83.2936   15.2059   36.8025 H   0  0  0  0  0  0  0  0  0  0  0  0
   82.7842   14.3968   33.6203 H   0  0  0  0  0  0  0  0  0  0  0  0
   86.7475   12.3631   32.6797 H   0  0  0  0  0  0  0  0  0  0  0  0
  1  2  1  0
  1  7  1  0
  1  8  1  0
  2  3  1  0
  2 12  1  0
  3  4  1  0
  3  5  1  0
  4 13  1  0
  5  6  1  0
  5 14  1  0
  6  7  1  0
  6 15  1  0
  7 16  1  0
 10  8  1  0
  9 10  2  0
 10 11  2  0
 10 12  1  1
  1 17  1  6
  2 18  1  1
  3 19  1  1
  4 20  1  0
  4 21  1  0
  5 22  1  6
  6 23  1  1
  7 24  1  6
  8 25  1  0
 13 26  1  0
 14 27  1  0
 15 28  1  0
 16 29  1  0
M  END
>  <filename_input>  (22) 
7P4C_5OV_docked.sdf

>  <pdb_id>  (22) 
7P4C_5OV

>  <pose_rank>  (22) 
21

>  <num_atoms_heavy>  (22) 
16

>  <num_torsions>  (22) 
1

>  <pose>  (22) 
[86.24794342417802, 11.993155981921836, 34.95084411386266, -0.7287140774288097, -0.3617302950186934, 0.4323408511585694, -6.022959619849204]

>  <energy>  (22) 
-438.0497885646544

>  <inter_energy>  (22) 
-410.56258070599654

>  <intra_energy>  (22) 
0.0032120718073996974

>  <rmsd>  (22) 
2.8449

>  <sdf_rank>  (22) 
0

$$$$

     RDKit          3D

 29 30  0  0  0  0  0  0  0  0999 V2000
   85.2813   12.5630   35.1073 C   0  0  1  0  0  0  0  0  0  0  0  0
   84.5453   12.3603   36.4407 C   0  0  2  0  0  0  0  0  0  0  0  0
   84.0331   13.6534   37.0524 C   0  0  2  0  0  0  0  0  0  0  0  0
   83.1750   13.3032   38.2577 C   0  0  0  0  0  0  0  0  0  0  0  0
   83.3395   14.6139   36.0686 C   0  0  2  0  0  0  0  0  0  0  0  0
   84.2201   14.8637   34.8769 C   0  0  1  0  0  0  0  0  0  0  0  0
   84.5494   13.5325   34.1806 C   0  0  1  0  0  0  0  0  0  0  0  0
   86.5860   13.0226   35.5611 N   0  0  0  0  0  0  0  0  0  0  0  0
   87.7518   11.1365   36.6017 O   0  0  0  0  0  0  0  0  0  0  0  0
   86.9495   12.2708   36.9571 S   0  0  1  0  0  0  0  0  0  0  0  0
   87.4051   13.1574   37.9670 O   0  0  0  0  0  0  0  0  0  0  0  0
   85.5018   11.7856   37.3579 O   0  0  0  0  0  0  0  0  0  0  0  0
   82.0295   12.5534   37.8564 O   0  0  0  0  0  0  0  0  0  0  0  0
   83.0128   15.8599   36.6938 O   0  0  0  0  0  0  0  0  0  0  0  0
   83.5540   15.7354   33.9390 O   0  0  0  0  0  0  0  0  0  0  0  0
   85.3301   13.7770   33.0134 O   0  0  0  0  0  0  0  0  0  0  0  0
   85.3493   11.6637   34.4775 H   0  0  0  0  0  0  0  0  0  0  0  0
   83.6685   11.7223   36.2556 H   0  0  0  0  0  0  0  0  0  0  0  0
   84.9054   14.2423   37.3724 H   0  0  0  0  0  0  0  0  0  0  0  0
   83.7697   12.7050   38.9637 H   0  0  0  0  0  0  0  0  0  0  0  0
   82.8395   14.2345   38.7374 H   0  0  0  0  0  0  0  0  0  0  0  0
   82.4040   14.1363   35.7419 H   0  0  0  0  0  0  0  0  0  0  0  0
   85.1492   15.3407   35.2220 H   0  0  0  0  0  0  0  0  0  0  0  0
   83.5966   13.0605   33.8987 H   0  0  0  0  0  0  0  0  0  0  0  0
   87.2982   12.7984   34.8515 H   0  0  0  0  0  0  0  0  0  0  0  0
   81.5449   12.2362   38.6592 H   0  0  0  0  0  0  0  0  0  0  0  0
   83.0409   15.7528   37.6776 H   0  0  0  0  0  0  0  0  0  0  0  0
   83.0334   16.4167   34.4340 H   0  0  0  0  0  0  0  0  0  0  0  0
   86.2402   14.0620   33.2790 H   0  0  0  0  0  0  0  0  0  0  0  0
  1  2  1  0
  1  7  1  0
  1  8  1  0
  2  3  1  0
  2 12  1  0
  3  4  1  0
  3  5  1  0
  4 13  1  0
  5  6  1  0
  5 14  1  0
  6  7  1  0
  6 15  1  0
  7 16  1  0
 10  8  1  0
  9 10  2  0
 10 11  2  0
 10 12  1  1
  1 17  1  6
  2 18  1  6
  3 19  1  1
  4 20  1  0
  4 21  1  0
  5 22  1  6
  6 23  1  1
  7 24  1  6
  8 25  1  0
 13 26  1  0
 14 27  1  0
 15 28  1  0
 16 29  1  0
M  END
>  <filename_input>  (23) 
7P4C_5OV_docked.sdf

>  <pdb_id>  (23) 
7P4C_5OV

>  <pose_rank>  (23) 
22

>  <num_atoms_heavy>  (23) 
16

>  <num_torsions>  (23) 
1

>  <pose>  (23) 
[85.281299388754, 12.562987921089544, 35.107263407730066, -0.4660007183587638, -0.46370604640864405, 0.07668238796490995, -6.243423285223487]

>  <energy>  (23) 
-577.644546272643

>  <inter_energy>  (23) 
-579.7005541023016

>  <intra_energy>  (23) 
0.0

>  <rmsd>  (23) 
1.98526

>  <sdf_rank>  (23) 
0

$$$$

     RDKit          3D

 29 30  0  0  0  0  0  0  0  0999 V2000
   92.7377   14.3365   38.5748 C   0  0  1  0  0  0  0  0  0  0  0  0
   91.4358   13.7365   38.0217 C   0  0  2  0  0  0  0  0  0  0  0  0
   90.5610   13.1003   39.0886 C   0  0  2  0  0  0  0  0  0  0  0  0
   89.2364   12.7132   38.4503 C   0  0  0  0  0  0  0  0  0  0  0  0
   90.3979   13.9244   40.3793 C   0  0  2  0  0  0  0  0  0  0  0  0
   91.7437   14.3218   40.9166 C   0  0  1  0  0  0  0  0  0  0  0  0
   92.5115   15.1326   39.8590 C   0  0  1  0  0  0  0  0  0  0  0  0
   93.5628   13.1475   38.7331 N   0  0  0  0  0  0  0  0  0  0  0  0
   94.1827   12.3339   36.5076 O   0  0  0  0  0  0  0  0  0  0  0  0
   93.2110   12.1030   37.5366 S   0  0  1  0  0  0  0  0  0  0  0  0
   92.9858   10.7801   37.9980 O   0  0  0  0  0  0  0  0  0  0  0  0
   91.8203   12.7017   37.0901 O   0  0  0  0  0  0  0  0  0  0  0  0
   89.1471   11.2973   38.3007 O   0  0  0  0  0  0  0  0  0  0  0  0
   89.6775   13.1960   41.3796 O   0  0  0  0  0  0  0  0  0  0  0  0
   91.5883   15.1243   42.1062 O   0  0  0  0  0  0  0  0  0  0  0  0
   93.7604   15.5646   40.3930 O   0  0  0  0  0  0  0  0  0  0  0  0
   93.2089   15.0905   37.9271 H   0  0  0  0  0  0  0  0  0  0  0  0
   90.8496   14.5485   37.5667 H   0  0  0  0  0  0  0  0  0  0  0  0
   91.0774   12.2004   39.4540 H   0  0  0  0  0  0  0  0  0  0  0  0
   88.4115   13.0623   39.0888 H   0  0  0  0  0  0  0  0  0  0  0  0
   89.1713   13.1801   37.4564 H   0  0  0  0  0  0  0  0  0  0  0  0
   89.8209   14.8263   40.1270 H   0  0  0  0  0  0  0  0  0  0  0  0
   92.3058   13.4089   41.1630 H   0  0  0  0  0  0  0  0  0  0  0  0
   91.8959   16.0064   39.5990 H   0  0  0  0  0  0  0  0  0  0  0  0
   94.5581   13.4076   38.6841 H   0  0  0  0  0  0  0  0  0  0  0  0
   89.1202   10.8721   39.1943 H   0  0  0  0  0  0  0  0  0  0  0  0
   89.9700   13.4918   42.2780 H   0  0  0  0  0  0  0  0  0  0  0  0
   91.6990   14.5526   42.9068 H   0  0  0  0  0  0  0  0  0  0  0  0
   93.7191   15.5503   41.3821 H   0  0  0  0  0  0  0  0  0  0  0  0
  1  2  1  0
  1  7  1  0
  1  8  1  0
  2  3  1  0
  2 12  1  0
  3  4  1  0
  3  5  1  0
  4 13  1  0
  5  6  1  0
  5 14  1  0
  6  7  1  0
  6 15  1  0
  7 16  1  0
 10  8  1  0
  9 10  2  0
 10 11  2  0
 10 12  1  6
  1 17  1  6
  2 18  1  6
  3 19  1  1
  4 20  1  0
  4 21  1  0
  5 22  1  6
  6 23  1  1
  7 24  1  6
  8 25  1  0
 13 26  1  0
 14 27  1  0
 15 28  1  0
 16 29  1  0
M  END
>  <filename_input>  (24) 
7P4C_5OV_docked.sdf

>  <pdb_id>  (24) 
7P4C_5OV

>  <pose_rank>  (24) 
23

>  <num_atoms_heavy>  (24) 
16

>  <num_torsions>  (24) 
1

>  <pose>  (24) 
[92.73773211862225, 14.336483518216252, 38.574777691727036, -3.4856129149580655, 1.7942596977428757, 2.378960650219326, 3.0208794598871402]

>  <energy>  (24) 
-193.82995287908497

>  <inter_energy>  (24) 
-173.28663821646643

>  <intra_energy>  (24) 
0.645305269895059

>  <rmsd>  (24) 
8.85803

>  <sdf_rank>  (24) 
0

$$$$

     RDKit          3D

 29 30  0  0  0  0  0  0  0  0999 V2000
   92.6201   11.9774   43.0405 C   0  0  1  0  0  0  0  0  0  0  0  0
   93.2142   12.5258   41.7340 C   0  0  2  0  0  0  0  0  0  0  0  0
   92.1661   13.0360   40.7594 C   0  0  2  0  0  0  0  0  0  0  0  0
   92.8818   13.7124   39.6009 C   0  0  0  0  0  0  0  0  0  0  0  0
   91.0594   13.9061   41.3836 C   0  0  2  0  0  0  0  0  0  0  0  0
   90.4418   13.1997   42.5572 C   0  0  1  0  0  0  0  0  0  0  0  0
   91.5224   12.8788   43.6035 C   0  0  1  0  0  0  0  0  0  0  0  0
   92.1697   10.6569   42.6246 N   0  0  0  0  0  0  0  0  0  0  0  0
   94.1396    9.2549   42.2340 O   0  0  0  0  0  0  0  0  0  0  0  0
   93.2078   10.0748   41.5158 S   0  0  1  0  0  0  0  0  0  0  0  0
   92.5616    9.5516   40.3658 O   0  0  0  0  0  0  0  0  0  0  0  0
   93.9081   11.4277   41.1022 O   0  0  0  0  0  0  0  0  0  0  0  0
   93.2028   15.0629   39.9299 O   0  0  0  0  0  0  0  0  0  0  0  0
   90.0431   14.2281   40.4279 O   0  0  0  0  0  0  0  0  0  0  0  0
   89.4295   14.0313   43.1632 O   0  0  0  0  0  0  0  0  0  0  0  0
   90.9252   12.2678   44.7444 O   0  0  0  0  0  0  0  0  0  0  0  0
   93.3247   11.9336   43.8840 H   0  0  0  0  0  0  0  0  0  0  0  0
   93.8640   13.3777   41.9830 H   0  0  0  0  0  0  0  0  0  0  0  0
   91.5975   12.1686   40.3929 H   0  0  0  0  0  0  0  0  0  0  0  0
   93.8092   13.1640   39.3789 H   0  0  0  0  0  0  0  0  0  0  0  0
   92.2189   13.7087   38.7231 H   0  0  0  0  0  0  0  0  0  0  0  0
   91.5248   14.8439   41.7212 H   0  0  0  0  0  0  0  0  0  0  0  0
   89.9821   12.2658   42.2015 H   0  0  0  0  0  0  0  0  0  0  0  0
   91.9951   13.8283   43.8948 H   0  0  0  0  0  0  0  0  0  0  0  0
   92.1442   10.0273   43.4393 H   0  0  0  0  0  0  0  0  0  0  0  0
   93.2272   15.1658   40.9143 H   0  0  0  0  0  0  0  0  0  0  0  0
   89.2149   14.4905   40.9026 H   0  0  0  0  0  0  0  0  0  0  0  0
   89.5009   13.9726   44.1489 H   0  0  0  0  0  0  0  0  0  0  0  0
   91.3091   12.6606   45.5680 H   0  0  0  0  0  0  0  0  0  0  0  0
  1  2  1  0
  1  7  1  0
  1  8  1  0
  2  3  1  0
  2 12  1  0
  3  4  1  0
  3  5  1  0
  4 13  1  0
  5  6  1  0
  5 14  1  0
  6  7  1  0
  6 15  1  0
  7 16  1  0
 10  8  1  0
  9 10  2  0
 10 11  2  0
 10 12  1  6
  1 17  1  1
  2 18  1  1
  3 19  1  6
  4 20  1  0
  4 21  1  0
  5 22  1  1
  6 23  1  6
  7 24  1  1
  8 25  1  0
 13 26  1  0
 14 27  1  0
 15 28  1  0
 16 29  1  0
M  END
>  <filename_input>  (25) 
7P4C_5OV_docked.sdf

>  <pdb_id>  (25) 
7P4C_5OV

>  <pose_rank>  (25) 
24

>  <num_atoms_heavy>  (25) 
16

>  <num_torsions>  (25) 
1

>  <pose>  (25) 
[92.6200789858616, 11.977425150028726, 43.04052480374438, -1.9622073975531198, 2.211466125303156, 0.5938711522118431, -0.3194415112345757]

>  <energy>  (25) 
-127.48309154882587

>  <inter_energy>  (25) 
-116.08381493717182

>  <intra_energy>  (25) 
0.26604020003075024

>  <rmsd>  (25) 
10.8065

>  <sdf_rank>  (25) 
0

$$$$

     RDKit          3D

 29 30  0  0  0  0  0  0  0  0999 V2000
   83.9150   14.0670   34.3600 C   0  0  1  0  0  0  0  0  0  0  0  0
   83.7730   13.2620   35.6610 C   0  0  2  0  0  0  0  0  0  0  0  0
   83.7950   14.1240   36.9120 C   0  0  2  0  0  0  0  0  0  0  0  0
   83.4650   13.2410   38.1050 C   0  0  0  0  0  0  0  0  0  0  0  0
   82.9370   15.4010   36.8430 C   0  0  2  0  0  0  0  0  0  0  0  0
   83.2750   16.1890   35.6090 C   0  0  1  0  0  0  0  0  0  0  0  0
   83.0480   15.3250   34.3570 C   0  0  1  0  0  0  0  0  0  0  0  0
   85.3490   14.3160   34.3260 N   0  0  0  0  0  0  0  0  0  0  0  0
   86.4900   12.2030   33.8440 O   0  0  0  0  0  0  0  0  0  0  0  0
   86.1190   13.0290   34.9560 S   0  0  1  0  0  0  0  0  0  0  0  0
   87.0990   13.3810   35.9200 O   0  0  0  0  0  0  0  0  0  0  0  0
   84.9060   12.3680   35.7200 O   0  0  0  0  0  0  0  0  0  0  0  0
   82.1260   12.7570   38.0150 O   0  0  0  0  0  0  0  0  0  0  0  0
   83.1220   16.2210   38.0020 O   0  0  0  0  0  0  0  0  0  0  0  0
   82.4450   17.3670   35.5270 O   0  0  0  0  0  0  0  0  0  0  0  0
   83.3060   16.0940   33.1850 O   0  0  0  0  0  0  0  0  0  0  0  0
   83.5577   13.5499   33.4572 H   0  0  0  0  0  0  0  0  0  0  0  0
   82.8012   12.7470   35.6420 H   0  0  0  0  0  0  0  0  0  0  0  0
   84.8099   14.5343   37.0195 H   0  0  0  0  0  0  0  0  0  0  0  0
   84.1578   12.3868   38.1254 H   0  0  0  0  0  0  0  0  0  0  0  0
   83.5668   13.8349   39.0253 H   0  0  0  0  0  0  0  0  0  0  0  0
   81.8823   15.0909   36.8047 H   0  0  0  0  0  0  0  0  0  0  0  0
   84.3315   16.4901   35.6643 H   0  0  0  0  0  0  0  0  0  0  0  0
   81.9974   14.9992   34.3644 H   0  0  0  0  0  0  0  0  0  0  0  0
   85.6527   14.4587   33.3522 H   0  0  0  0  0  0  0  0  0  0  0  0
   81.7609   12.6250   38.9257 H   0  0  0  0  0  0  0  0  0  0  0  0
   82.9984   15.6729   38.8171 H   0  0  0  0  0  0  0  0  0  0  0  0
   82.2247   17.6797   36.4401 H   0  0  0  0  0  0  0  0  0  0  0  0
   83.6099   16.9997   33.4448 H   0  0  0  0  0  0  0  0  0  0  0  0
  1  2  1  0
  1  7  1  0
  1  8  1  0
  2  3  1  0
  2 12  1  0
  3  4  1  0
  3  5  1  0
  4 13  1  0
  5  6  1  0
  5 14  1  0
  6  7  1  0
  6 15  1  0
  7 16  1  0
 10  8  1  0
  9 10  2  0
 10 11  2  0
 10 12  1  1
  1 17  1  6
  2 18  1  6
  3 19  1  1
  4 20  1  0
  4 21  1  0
  5 22  1  6
  6 23  1  1
  7 24  1  6
  8 25  1  0
 13 26  1  0
 14 27  1  0
 15 28  1  0
 16 29  1  0
M  END
>  <filename_input>  (26) 
7P4C_5OV_docked.sdf

>  <pdb_id>  (26) 
7P4C_5OV

>  <pose_rank>  (26) 
25

>  <num_atoms_heavy>  (26) 
16

>  <num_torsions>  (26) 
1

>  <pose>  (26) 
[83.915, 14.067, 34.36, 1e-06, 1e-06, 1e-06, 0.0]

>  <energy>  (26) 
-885.9130116508442

>  <inter_energy>  (26) 
-896.3753145841494

>  <intra_energy>  (26) 
0.0

>  <rmsd>  (26) 
0.0

>  <sdf_rank>  (26) 
0

$$$$
