
     RDKit          3D

 43 45  0  0  0  0  0  0  0  0999 V2000
  -24.7437   -1.9275   -8.6598 C   0  0  0  0  0  0  0  0  0  0  0  0
  -24.8860    0.7998   -9.6586 C   0  0  0  0  0  0  0  0  0  0  0  0
  -24.9200    1.8122  -10.6049 C   0  0  0  0  0  0  0  0  0  0  0  0
  -23.7788    2.1022  -11.3460 C   0  0  0  0  0  0  0  0  0  0  0  0
  -23.8171    3.2290  -12.3759 C   0  0  0  0  0  0  0  0  0  0  0  0
  -22.1614    3.7391  -14.2106 C   0  0  0  0  0  0  0  0  0  0  0  0
  -21.0903    5.8597  -14.1147 C   0  0  0  0  0  0  0  0  0  0  0  0
  -19.0272    6.4416  -15.3634 C   0  0  0  0  0  0  0  0  0  0  0  0
  -19.1673    7.3323  -16.5788 C   0  0  0  0  0  0  0  0  0  0  0  0
  -18.0277    7.9939  -16.9905 C   0  0  0  0  0  0  0  0  0  0  0  0
  -18.1196    8.8313  -18.0948 C   0  0  0  0  0  0  0  0  0  0  0  0
  -20.3554    8.3648  -18.3627 C   0  0  0  0  0  0  0  0  0  0  0  0
  -20.3613    7.5252  -17.2487 C   0  0  0  0  0  0  0  0  0  0  0  0
  -21.2137    3.3002  -15.1374 C   0  0  0  0  0  0  0  0  0  0  0  0
  -22.6137    1.3674  -11.1247 C   0  0  0  0  0  0  0  0  0  0  0  0
  -23.7277    0.0608   -9.4458 C   0  0  0  0  0  0  0  0  0  0  0  0
  -22.0911    5.0175  -13.7109 C   0  0  0  0  0  0  0  0  0  0  0  0
  -20.1397    5.4629  -15.0432 C   0  0  0  0  0  0  0  0  0  0  0  0
  -20.1992    4.1676  -15.5689 C   0  0  0  0  0  0  0  0  0  0  0  0
  -22.5845    0.3539  -10.1707 C   0  0  0  0  0  0  0  0  0  0  0  0
  -23.2344    2.8955  -13.6873 N   0  0  0  0  0  0  0  0  0  0  0  0
  -19.2525    8.9964  -18.7711 N   0  0  0  0  0  0  0  0  0  0  0  0
  -23.7414   -0.9640   -8.4813 O   0  0  0  0  0  0  0  0  0  0  0  0
  -25.1011   -2.2711   -7.6779 H   0  0  0  0  0  0  0  0  0  0  0  0
  -25.5807   -1.4862   -9.2209 H   0  0  0  0  0  0  0  0  0  0  0  0
  -24.3358   -2.7812   -9.2209 H   0  0  0  0  0  0  0  0  0  0  0  0
  -25.7873    0.5782   -9.0683 H   0  0  0  0  0  0  0  0  0  0  0  0
  -25.8453    2.3838  -10.7691 H   0  0  0  0  0  0  0  0  0  0  0  0
  -24.8683    3.5128  -12.5320 H   0  0  0  0  0  0  0  0  0  0  0  0
  -23.2011    4.0421  -11.9642 H   0  0  0  0  0  0  0  0  0  0  0  0
  -21.0389    6.8744  -13.6931 H   0  0  0  0  0  0  0  0  0  0  0  0
  -18.1077    5.8530  -15.4982 H   0  0  0  0  0  0  0  0  0  0  0  0
  -19.0384    7.1435  -14.5165 H   0  0  0  0  0  0  0  0  0  0  0  0
  -17.0738    7.8617  -16.4589 H   0  0  0  0  0  0  0  0  0  0  0  0
  -17.2226    9.3776  -18.4218 H   0  0  0  0  0  0  0  0  0  0  0  0
  -21.2905    8.5112  -18.9232 H   0  0  0  0  0  0  0  0  0  0  0  0
  -21.2861    7.0325  -16.9140 H   0  0  0  0  0  0  0  0  0  0  0  0
  -21.2626    2.2736  -15.5293 H   0  0  0  0  0  0  0  0  0  0  0  0
  -21.7094    1.5911  -11.7096 H   0  0  0  0  0  0  0  0  0  0  0  0
  -22.8408    5.3647  -12.9847 H   0  0  0  0  0  0  0  0  0  0  0  0
  -19.4595    3.8335  -16.3113 H   0  0  0  0  0  0  0  0  0  0  0  0
  -21.6578   -0.2116   -9.9935 H   0  0  0  0  0  0  0  0  0  0  0  0
  -23.5758    2.0853  -14.2239 H   0  0  0  0  0  0  0  0  0  0  0  0
  1 23  1  0
  2  3  2  0
  2 16  1  0
  3  4  1  0
  4  5  1  0
  4 15  2  0
  5 21  1  0
  6 14  2  0
  6 17  1  0
  6 21  1  0
  7 17  2  0
  7 18  1  0
  8  9  1  0
  8 18  1  0
  9 10  2  0
  9 13  1  0
 10 11  1  0
 11 22  2  0
 12 13  2  0
 12 22  1  0
 14 19  1  0
 15 20  1  0
 16 20  2  0
 16 23  1  0
 18 19  2  0
  1 24  1  0
  1 25  1  0
  1 26  1  0
  2 27  1  0
  3 28  1  0
  5 29  1  0
  5 30  1  0
  7 31  1  0
  8 32  1  0
  8 33  1  0
 10 34  1  0
 11 35  1  0
 12 36  1  0
 13 37  1  0
 14 38  1  0
 15 39  1  0
 17 40  1  0
 19 41  1  0
 20 42  1  0
 21 43  1  0
M  END
>  <filename_input>  (1) 
7P5T_5YG_docked.sdf

>  <pdb_id>  (1) 
7P5T_5YG

>  <pose_rank>  (1) 
0

>  <num_atoms_heavy>  (1) 
23

>  <num_torsions>  (1) 
6

>  <pose>  (1) 
[-22.161415319390038, 3.739145751966546, -14.21062192852715, -2.5456588687844524, 4.835471406861468, -2.965870256131092, -0.10826959340316918, -0.1666829404803606, 0.0681882420627754, 0.36613937711666183, -0.7250830887825979, -1.9606845890232374]

>  <energy>  (1) 
-927.6244811426232

>  <inter_energy>  (1) 
-915.4311820010795

>  <intra_energy>  (1) 
0.9909623155321354

>  <rmsd>  (1) 
0.595999

>  <sdf_rank>  (1) 
0

$$$$

     RDKit          3D

 43 45  0  0  0  0  0  0  0  0999 V2000
  -24.5998   -2.8355   -8.1288 C   0  0  0  0  0  0  0  0  0  0  0  0
  -23.1920   -0.3912   -9.4416 C   0  0  0  0  0  0  0  0  0  0  0  0
  -23.0294    0.4783  -10.5088 C   0  0  0  0  0  0  0  0  0  0  0  0
  -24.1323    1.1519  -11.0240 C   0  0  0  0  0  0  0  0  0  0  0  0
  -23.9503    2.0964  -12.2100 C   0  0  0  0  0  0  0  0  0  0  0  0
  -22.3211    3.7901  -13.1290 C   0  0  0  0  0  0  0  0  0  0  0  0
  -20.9918    3.3612  -15.0531 C   0  0  0  0  0  0  0  0  0  0  0  0
  -20.3206    5.0888  -16.7021 C   0  0  0  0  0  0  0  0  0  0  0  0
  -19.2890    6.1959  -16.6900 C   0  0  0  0  0  0  0  0  0  0  0  0
  -19.0022    6.7821  -17.9066 C   0  0  0  0  0  0  0  0  0  0  0  0
  -18.0506    7.7933  -17.9380 C   0  0  0  0  0  0  0  0  0  0  0  0
  -17.7015    7.6448  -15.6699 C   0  0  0  0  0  0  0  0  0  0  0  0
  -18.6235    6.6050  -15.5492 C   0  0  0  0  0  0  0  0  0  0  0  0
  -22.3566    5.1477  -13.4538 C   0  0  0  0  0  0  0  0  0  0  0  0
  -25.3894    0.9410  -10.4569 C   0  0  0  0  0  0  0  0  0  0  0  0
  -24.4432   -0.5929   -8.8700 C   0  0  0  0  0  0  0  0  0  0  0  0
  -21.6352    2.9106  -13.9320 C   0  0  0  0  0  0  0  0  0  0  0  0
  -20.9942    4.7040  -15.3997 C   0  0  0  0  0  0  0  0  0  0  0  0
  -21.6809    5.6157  -14.5905 C   0  0  0  0  0  0  0  0  0  0  0  0
  -25.5473    0.0641   -9.3872 C   0  0  0  0  0  0  0  0  0  0  0  0
  -23.0172    3.2132  -11.9804 N   0  0  0  0  0  0  0  0  0  0  0  0
  -17.4308    8.2224  -16.8426 N   0  0  0  0  0  0  0  0  0  0  0  0
  -24.5601   -1.4780   -7.7819 O   0  0  0  0  0  0  0  0  0  0  0  0
  -24.6176   -3.4472   -7.2147 H   0  0  0  0  0  0  0  0  0  0  0  0
  -25.5042   -3.0362   -8.7219 H   0  0  0  0  0  0  0  0  0  0  0  0
  -23.7086   -3.0886   -8.7219 H   0  0  0  0  0  0  0  0  0  0  0  0
  -22.3195   -0.9287   -9.0416 H   0  0  0  0  0  0  0  0  0  0  0  0
  -22.0325    0.6352  -10.9465 H   0  0  0  0  0  0  0  0  0  0  0  0
  -23.5751    1.5078  -13.0602 H   0  0  0  0  0  0  0  0  0  0  0  0
  -24.9347    2.5516  -12.3937 H   0  0  0  0  0  0  0  0  0  0  0  0
  -20.4607    2.6418  -15.6938 H   0  0  0  0  0  0  0  0  0  0  0  0
  -21.1149    5.3947  -17.3989 H   0  0  0  0  0  0  0  0  0  0  0  0
  -19.7459    4.1928  -16.9793 H   0  0  0  0  0  0  0  0  0  0  0  0
  -19.5129    6.4575  -18.8251 H   0  0  0  0  0  0  0  0  0  0  0  0
  -17.8007    8.2561  -18.9041 H   0  0  0  0  0  0  0  0  0  0  0  0
  -17.1801    8.0005  -14.7689 H   0  0  0  0  0  0  0  0  0  0  0  0
  -18.8151    6.1261  -14.5776 H   0  0  0  0  0  0  0  0  0  0  0  0
  -22.9147    5.8506  -12.8179 H   0  0  0  0  0  0  0  0  0  0  0  0
  -26.2644    1.4728  -10.8590 H   0  0  0  0  0  0  0  0  0  0  0  0
  -21.6031    1.8420  -13.6732 H   0  0  0  0  0  0  0  0  0  0  0  0
  -21.6908    6.6864  -14.8427 H   0  0  0  0  0  0  0  0  0  0  0  0
  -26.5443   -0.1062   -8.9548 H   0  0  0  0  0  0  0  0  0  0  0  0
  -22.8589    3.5796  -11.0309 H   0  0  0  0  0  0  0  0  0  0  0  0
  1 23  1  0
  2  3  2  0
  2 16  1  0
  3  4  1  0
  4  5  1  0
  4 15  2  0
  5 21  1  0
  6 14  2  0
  6 17  1  0
  6 21  1  0
  7 17  2  0
  7 18  1  0
  8  9  1  0
  8 18  1  0
  9 10  2  0
  9 13  1  0
 10 11  1  0
 11 22  2  0
 12 13  2  0
 12 22  1  0
 14 19  1  0
 15 20  1  0
 16 20  2  0
 16 23  1  0
 18 19  2  0
  1 24  1  0
  1 25  1  0
  1 26  1  0
  2 27  1  0
  3 28  1  0
  5 29  1  0
  5 30  1  0
  7 31  1  0
  8 32  1  0
  8 33  1  0
 10 34  1  0
 11 35  1  0
 12 36  1  0
 13 37  1  0
 14 38  1  0
 15 39  1  0
 17 40  1  0
 19 41  1  0
 20 42  1  0
 21 43  1  0
M  END
>  <filename_input>  (2) 
7P5T_5YG_docked.sdf

>  <pdb_id>  (2) 
7P5T_5YG

>  <pose_rank>  (2) 
1

>  <num_atoms_heavy>  (2) 
23

>  <num_torsions>  (2) 
6

>  <pose>  (2) 
[-22.321098915419086, 3.790147894106802, -13.129048204180508, -2.0568482730502424, -1.7430412640413346, 2.094235769608261, -0.6703917590750658, -0.06981236006775858, -0.46408343757590975, -1.0807603042827376, 0.5683505891722764, 1.9640063662357028]

>  <energy>  (2) 
-698.3583127934902

>  <inter_energy>  (2) 
-707.0340470716435

>  <intra_energy>  (2) 
5.9839200019456324

>  <rmsd>  (2) 
1.63865

>  <sdf_rank>  (2) 
0

$$$$

     RDKit          3D

 43 45  0  0  0  0  0  0  0  0999 V2000
  -18.7872    9.8288  -17.9179 C   0  0  0  0  0  0  0  0  0  0  0  0
  -18.6757    6.2933  -17.8642 C   0  0  0  0  0  0  0  0  0  0  0  0
  -19.0580    5.2211  -17.0732 C   0  0  0  0  0  0  0  0  0  0  0  0
  -19.2585    5.4072  -15.7091 C   0  0  0  0  0  0  0  0  0  0  0  0
  -19.6640    4.2192  -14.8395 C   0  0  0  0  0  0  0  0  0  0  0  0
  -21.9430    3.3198  -14.2354 C   0  0  0  0  0  0  0  0  0  0  0  0
  -23.1727    1.7073  -12.9940 C   0  0  0  0  0  0  0  0  0  0  0  0
  -24.7822    2.2624  -11.1896 C   0  0  0  0  0  0  0  0  0  0  0  0
  -24.4094    1.0649  -10.3428 C   0  0  0  0  0  0  0  0  0  0  0  0
  -25.4555    0.3079   -9.8545 C   0  0  0  0  0  0  0  0  0  0  0  0
  -25.1536   -0.7920   -9.0619 C   0  0  0  0  0  0  0  0  0  0  0  0
  -22.8943   -0.4036   -9.2436 C   0  0  0  0  0  0  0  0  0  0  0  0
  -23.1054    0.7323  -10.0252 C   0  0  0  0  0  0  0  0  0  0  0  0
  -22.5821    4.3469  -13.5380 C   0  0  0  0  0  0  0  0  0  0  0  0
  -19.0710    6.6742  -15.1561 C   0  0  0  0  0  0  0  0  0  0  0  0
  -18.4992    7.5581  -17.3145 C   0  0  0  0  0  0  0  0  0  0  0  0
  -22.2482    2.0089  -13.9575 C   0  0  0  0  0  0  0  0  0  0  0  0
  -23.8368    2.7009  -12.2906 C   0  0  0  0  0  0  0  0  0  0  0  0
  -23.5450    4.0416  -12.5647 C   0  0  0  0  0  0  0  0  0  0  0  0
  -18.6839    7.7467  -15.9549 C   0  0  0  0  0  0  0  0  0  0  0  0
  -20.9103    3.5461  -15.2449 N   0  0  0  0  0  0  0  0  0  0  0  0
  -23.9031   -1.1452   -8.7801 N   0  0  0  0  0  0  0  0  0  0  0  0
  -18.1195    8.6197  -18.1569 O   0  0  0  0  0  0  0  0  0  0  0  0
  -18.8763    9.9903  -16.8334 H   0  0  0  0  0  0  0  0  0  0  0  0
  -18.2183   10.6567  -18.3663 H   0  0  0  0  0  0  0  0  0  0  0  0
  -19.7908    9.7884  -18.3663 H   0  0  0  0  0  0  0  0  0  0  0  0
  -18.5098    6.1414  -18.9409 H   0  0  0  0  0  0  0  0  0  0  0  0
  -19.2022    4.2273  -17.5221 H   0  0  0  0  0  0  0  0  0  0  0  0
  -18.8507    3.4793  -14.8722 H   0  0  0  0  0  0  0  0  0  0  0  0
  -19.8470    4.6237  -13.8331 H   0  0  0  0  0  0  0  0  0  0  0  0
  -23.3938    0.6528  -12.7726 H   0  0  0  0  0  0  0  0  0  0  0  0
  -25.7479    2.0345  -11.6644 H   0  0  0  0  0  0  0  0  0  0  0  0
  -24.7727    3.1031  -10.4803 H   0  0  0  0  0  0  0  0  0  0  0  0
  -26.4987    0.5684  -10.0866 H   0  0  0  0  0  0  0  0  0  0  0  0
  -25.9791   -1.3928   -8.6524 H   0  0  0  0  0  0  0  0  0  0  0  0
  -21.8626   -0.6981   -9.0012 H   0  0  0  0  0  0  0  0  0  0  0  0
  -22.2617    1.3437  -10.3777 H   0  0  0  0  0  0  0  0  0  0  0  0
  -22.3303    5.3961  -13.7519 H   0  0  0  0  0  0  0  0  0  0  0  0
  -19.2305    6.8273  -14.0786 H   0  0  0  0  0  0  0  0  0  0  0  0
  -21.7484    1.2001  -14.5106 H   0  0  0  0  0  0  0  0  0  0  0  0
  -24.0643    4.8463  -12.0236 H   0  0  0  0  0  0  0  0  0  0  0  0
  -18.5254    8.7394  -15.5083 H   0  0  0  0  0  0  0  0  0  0  0  0
  -21.0509    3.2416  -16.2188 H   0  0  0  0  0  0  0  0  0  0  0  0
  1 23  1  0
  2  3  2  0
  2 16  1  0
  3  4  1  0
  4  5  1  0
  4 15  2  0
  5 21  1  0
  6 14  2  0
  6 17  1  0
  6 21  1  0
  7 17  2  0
  7 18  1  0
  8  9  1  0
  8 18  1  0
  9 10  2  0
  9 13  1  0
 10 11  1  0
 11 22  2  0
 12 13  2  0
 12 22  1  0
 14 19  1  0
 15 20  1  0
 16 20  2  0
 16 23  1  0
 18 19  2  0
  1 24  1  0
  1 25  1  0
  1 26  1  0
  2 27  1  0
  3 28  1  0
  5 29  1  0
  5 30  1  0
  7 31  1  0
  8 32  1  0
  8 33  1  0
 10 34  1  0
 11 35  1  0
 12 36  1  0
 13 37  1  0
 14 38  1  0
 15 39  1  0
 17 40  1  0
 19 41  1  0
 20 42  1  0
 21 43  1  0
M  END
>  <filename_input>  (3) 
7P5T_5YG_docked.sdf

>  <pdb_id>  (3) 
7P5T_5YG

>  <pose_rank>  (3) 
2

>  <num_atoms_heavy>  (3) 
23

>  <num_torsions>  (3) 
6

>  <pose>  (3) 
[-21.943044295956703, 3.3197960772797006, -14.235403268808449, 1.7398707940393443, -0.4345934881773045, 1.9972374578613417, 2.2146623258073013, 0.14035908092929814, -1.5771406217076693, 0.2842340719876197, 0.5923589128272236, -0.519147884623323]

>  <energy>  (3) 
-719.5765226380777

>  <inter_energy>  (3) 
-729.5759245442762

>  <intra_energy>  (3) 
13.649101930075757

>  <rmsd>  (3) 
9.86763

>  <sdf_rank>  (3) 
0

$$$$

     RDKit          3D

 43 45  0  0  0  0  0  0  0  0999 V2000
  -18.1061    7.6786  -18.0184 C   0  0  0  0  0  0  0  0  0  0  0  0
  -19.4943    5.0069  -16.6229 C   0  0  0  0  0  0  0  0  0  0  0  0
  -20.5278    4.5592  -15.8149 C   0  0  0  0  0  0  0  0  0  0  0  0
  -20.8859    5.2884  -14.6855 C   0  0  0  0  0  0  0  0  0  0  0  0
  -22.0145    4.7822  -13.7901 C   0  0  0  0  0  0  0  0  0  0  0  0
  -22.9565    2.7135  -12.6944 C   0  0  0  0  0  0  0  0  0  0  0  0
  -22.9519    2.0904  -10.3998 C   0  0  0  0  0  0  0  0  0  0  0  0
  -24.9149    1.1640   -9.1988 C   0  0  0  0  0  0  0  0  0  0  0  0
  -25.1495   -0.3193   -9.0120 C   0  0  0  0  0  0  0  0  0  0  0  0
  -24.1714   -1.0151   -8.3299 C   0  0  0  0  0  0  0  0  0  0  0  0
  -24.3447   -2.3814   -8.1500 C   0  0  0  0  0  0  0  0  0  0  0  0
  -26.3580   -2.3534   -9.2610 C   0  0  0  0  0  0  0  0  0  0  0  0
  -26.2541   -0.9849   -9.5104 C   0  0  0  0  0  0  0  0  0  0  0  0
  -24.2812    2.2870  -12.8095 C   0  0  0  0  0  0  0  0  0  0  0  0
  -20.1969    6.4629  -14.3821 C   0  0  0  0  0  0  0  0  0  0  0  0
  -18.8149    6.1831  -16.3261 C   0  0  0  0  0  0  0  0  0  0  0  0
  -22.3042    2.6074  -11.4894 C   0  0  0  0  0  0  0  0  0  0  0  0
  -24.2626    1.6445  -10.4800 C   0  0  0  0  0  0  0  0  0  0  0  0
  -24.9409    1.7375  -11.7002 C   0  0  0  0  0  0  0  0  0  0  0  0
  -19.1575    6.9061  -15.1955 C   0  0  0  0  0  0  0  0  0  0  0  0
  -22.2027    3.3210  -13.7896 N   0  0  0  0  0  0  0  0  0  0  0  0
  -25.4201   -3.0271   -8.5910 N   0  0  0  0  0  0  0  0  0  0  0  0
  -17.7782    6.6046  -17.1794 O   0  0  0  0  0  0  0  0  0  0  0  0
  -18.3731    8.5532  -17.4070 H   0  0  0  0  0  0  0  0  0  0  0  0
  -17.2422    7.9250  -18.6533 H   0  0  0  0  0  0  0  0  0  0  0  0
  -18.9602    7.4004  -18.6533 H   0  0  0  0  0  0  0  0  0  0  0  0
  -19.2078    4.4240  -17.5107 H   0  0  0  0  0  0  0  0  0  0  0  0
  -21.0626    3.6313  -16.0657 H   0  0  0  0  0  0  0  0  0  0  0  0
  -21.7996    5.0987  -12.7587 H   0  0  0  0  0  0  0  0  0  0  0  0
  -22.9431    5.2112  -14.1946 H   0  0  0  0  0  0  0  0  0  0  0  0
  -22.4206    2.0271   -9.4388 H   0  0  0  0  0  0  0  0  0  0  0  0
  -25.8956    1.6575   -9.1305 H   0  0  0  0  0  0  0  0  0  0  0  0
  -24.1844    1.4183   -8.4167 H   0  0  0  0  0  0  0  0  0  0  0  0
  -23.2800   -0.5020   -7.9400 H   0  0  0  0  0  0  0  0  0  0  0  0
  -23.5639   -2.9499   -7.6235 H   0  0  0  0  0  0  0  0  0  0  0  0
  -27.2419   -2.8954   -9.6284 H   0  0  0  0  0  0  0  0  0  0  0  0
  -27.0262   -0.4525  -10.0852 H   0  0  0  0  0  0  0  0  0  0  0  0
  -24.8076    2.3819  -13.7707 H   0  0  0  0  0  0  0  0  0  0  0  0
  -20.4775    7.0445  -13.4916 H   0  0  0  0  0  0  0  0  0  0  0  0
  -21.2591    2.9387  -11.4002 H   0  0  0  0  0  0  0  0  0  0  0  0
  -25.9789    1.3841  -11.7886 H   0  0  0  0  0  0  0  0  0  0  0  0
  -18.6110    7.8263  -14.9415 H   0  0  0  0  0  0  0  0  0  0  0  0
  -21.8115    2.7400  -14.5447 H   0  0  0  0  0  0  0  0  0  0  0  0
  1 23  1  0
  2  3  2  0
  2 16  1  0
  3  4  1  0
  4  5  1  0
  4 15  2  0
  5 21  1  0
  6 14  2  0
  6 17  1  0
  6 21  1  0
  7 17  2  0
  7 18  1  0
  8  9  1  0
  8 18  1  0
  9 10  2  0
  9 13  1  0
 10 11  1  0
 11 22  2  0
 12 13  2  0
 12 22  1  0
 14 19  1  0
 15 20  1  0
 16 20  2  0
 16 23  1  0
 18 19  2  0
  1 24  1  0
  1 25  1  0
  1 26  1  0
  2 27  1  0
  3 28  1  0
  5 29  1  0
  5 30  1  0
  7 31  1  0
  8 32  1  0
  8 33  1  0
 10 34  1  0
 11 35  1  0
 12 36  1  0
 13 37  1  0
 14 38  1  0
 15 39  1  0
 17 40  1  0
 19 41  1  0
 20 42  1  0
 21 43  1  0
M  END
>  <filename_input>  (4) 
7P5T_5YG_docked.sdf

>  <pdb_id>  (4) 
7P5T_5YG

>  <pose_rank>  (4) 
3

>  <num_atoms_heavy>  (4) 
23

>  <num_torsions>  (4) 
6

>  <pose>  (4) 
[-22.956544547918476, 2.713461181239661, -12.69437597924221, -0.9514345444443616, -1.6134356847437081, -2.3585380343849627, -0.3036991505245415, -1.8951110292898603, -0.8562943889598273, -0.9267957691158792, -10.469946862530037, -1.0953404665641198]

>  <energy>  (4) 
-656.656916727479

>  <inter_energy>  (4) 
-655.8924159519418

>  <intra_energy>  (4) 
0.13673608171003915

>  <rmsd>  (4) 
10.2587

>  <sdf_rank>  (4) 
0

$$$$

     RDKit          3D

 43 45  0  0  0  0  0  0  0  0999 V2000
  -18.6492    9.1520  -18.2151 C   0  0  0  0  0  0  0  0  0  0  0  0
  -19.0103    7.3603  -15.6734 C   0  0  0  0  0  0  0  0  0  0  0  0
  -19.7442    6.4284  -14.9562 C   0  0  0  0  0  0  0  0  0  0  0  0
  -20.1400    5.2433  -15.5680 C   0  0  0  0  0  0  0  0  0  0  0  0
  -20.9620    4.2272  -14.7782 C   0  0  0  0  0  0  0  0  0  0  0  0
  -22.8463    3.9130  -13.1294 C   0  0  0  0  0  0  0  0  0  0  0  0
  -24.9733    2.9920  -12.5996 C   0  0  0  0  0  0  0  0  0  0  0  0
  -25.3581    1.2804  -10.8457 C   0  0  0  0  0  0  0  0  0  0  0  0
  -24.7882    0.3976   -9.7567 C   0  0  0  0  0  0  0  0  0  0  0  0
  -23.4246    0.1838   -9.7896 C   0  0  0  0  0  0  0  0  0  0  0  0
  -22.8661   -0.6319   -8.8141 C   0  0  0  0  0  0  0  0  0  0  0  0
  -24.9127   -0.9903   -7.8285 C   0  0  0  0  0  0  0  0  0  0  0  0
  -25.5615   -0.2072   -8.7832 C   0  0  0  0  0  0  0  0  0  0  0  0
  -22.2621    3.1527  -12.1143 C   0  0  0  0  0  0  0  0  0  0  0  0
  -19.7914    5.0101  -16.8986 C   0  0  0  0  0  0  0  0  0  0  0  0
  -18.6541    7.1229  -16.9962 C   0  0  0  0  0  0  0  0  0  0  0  0
  -24.1985    3.8266  -13.3593 C   0  0  0  0  0  0  0  0  0  0  0  0
  -24.4303    2.2322  -11.5746 C   0  0  0  0  0  0  0  0  0  0  0  0
  -23.0567    2.3123  -11.3206 C   0  0  0  0  0  0  0  0  0  0  0  0
  -19.0570    5.9512  -17.6150 C   0  0  0  0  0  0  0  0  0  0  0  0
  -22.0912    4.7929  -14.0197 N   0  0  0  0  0  0  0  0  0  0  0  0
  -23.5927   -1.1891   -7.8499 N   0  0  0  0  0  0  0  0  0  0  0  0
  -17.9006    8.0930  -17.6832 O   0  0  0  0  0  0  0  0  0  0  0  0
  -19.0722    9.7504  -17.3947 H   0  0  0  0  0  0  0  0  0  0  0  0
  -17.9980    9.7868  -18.8340 H   0  0  0  0  0  0  0  0  0  0  0  0
  -19.4648    8.7499  -18.8340 H   0  0  0  0  0  0  0  0  0  0  0  0
  -18.7058    8.3002  -15.1896 H   0  0  0  0  0  0  0  0  0  0  0  0
  -20.0124    6.6251  -13.9077 H   0  0  0  0  0  0  0  0  0  0  0  0
  -21.3636    3.4883  -15.4874 H   0  0  0  0  0  0  0  0  0  0  0  0
  -20.2791    3.7924  -14.0335 H   0  0  0  0  0  0  0  0  0  0  0  0
  -26.0514    2.9226  -12.8070 H   0  0  0  0  0  0  0  0  0  0  0  0
  -25.7993    0.6157  -11.6029 H   0  0  0  0  0  0  0  0  0  0  0  0
  -26.0547    1.9442  -10.3126 H   0  0  0  0  0  0  0  0  0  0  0  0
  -22.7983    0.6466  -10.5665 H   0  0  0  0  0  0  0  0  0  0  0  0
  -21.7833   -0.8240   -8.8401 H   0  0  0  0  0  0  0  0  0  0  0  0
  -25.5083   -1.4597   -7.0316 H   0  0  0  0  0  0  0  0  0  0  0  0
  -26.6534   -0.0751   -8.7622 H   0  0  0  0  0  0  0  0  0  0  0  0
  -21.1781    3.2128  -11.9370 H   0  0  0  0  0  0  0  0  0  0  0  0
  -20.0999    4.0737  -17.3864 H   0  0  0  0  0  0  0  0  0  0  0  0
  -24.6593    4.4295  -14.1557 H   0  0  0  0  0  0  0  0  0  0  0  0
  -22.6054    1.7235  -10.5084 H   0  0  0  0  0  0  0  0  0  0  0  0
  -18.7978    5.7649  -18.6677 H   0  0  0  0  0  0  0  0  0  0  0  0
  -22.3432    5.7871  -14.1146 H   0  0  0  0  0  0  0  0  0  0  0  0
  1 23  1  0
  2  3  2  0
  2 16  1  0
  3  4  1  0
  4  5  1  0
  4 15  2  0
  5 21  1  0
  6 14  2  0
  6 17  1  0
  6 21  1  0
  7 17  2  0
  7 18  1  0
  8  9  1  0
  8 18  1  0
  9 10  2  0
  9 13  1  0
 10 11  1  0
 11 22  2  0
 12 13  2  0
 12 22  1  0
 14 19  1  0
 15 20  1  0
 16 20  2  0
 16 23  1  0
 18 19  2  0
  1 24  1  0
  1 25  1  0
  1 26  1  0
  2 27  1  0
  3 28  1  0
  5 29  1  0
  5 30  1  0
  7 31  1  0
  8 32  1  0
  8 33  1  0
 10 34  1  0
 11 35  1  0
 12 36  1  0
 13 37  1  0
 14 38  1  0
 15 39  1  0
 17 40  1  0
 19 41  1  0
 20 42  1  0
 21 43  1  0
M  END
>  <filename_input>  (5) 
7P5T_5YG_docked.sdf

>  <pdb_id>  (5) 
7P5T_5YG

>  <pose_rank>  (5) 
4

>  <num_atoms_heavy>  (5) 
23

>  <num_torsions>  (5) 
6

>  <pose>  (5) 
[-22.84627991379876, 3.9130200284668653, -13.12942818786199, -2.2868669026694617, 2.480801126338329, -0.012499303792652083, -1.610376950510644, 2.37905010235462, -1.6886961137136673, -6.784925196118913, -3.868568864084151, 1.9245938060971925]

>  <energy>  (5) 
-632.0408172288129

>  <inter_energy>  (5) 
-675.1321258689292

>  <intra_energy>  (5) 
39.84359882909044

>  <rmsd>  (5) 
10.0495

>  <sdf_rank>  (5) 
0

$$$$

     RDKit          3D

 43 45  0  0  0  0  0  0  0  0999 V2000
  -19.3841   -4.8336  -11.5341 C   0  0  0  0  0  0  0  0  0  0  0  0
  -19.0291   -3.2669  -14.7601 C   0  0  0  0  0  0  0  0  0  0  0  0
  -19.4850   -2.1560  -15.4526 C   0  0  0  0  0  0  0  0  0  0  0  0
  -20.1295   -1.1318  -14.7662 C   0  0  0  0  0  0  0  0  0  0  0  0
  -20.6439    0.0823  -15.5363 C   0  0  0  0  0  0  0  0  0  0  0  0
  -21.3687    2.3720  -14.7619 C   0  0  0  0  0  0  0  0  0  0  0  0
  -19.9082    4.1558  -15.3436 C   0  0  0  0  0  0  0  0  0  0  0  0
  -20.4307    6.5573  -15.0056 C   0  0  0  0  0  0  0  0  0  0  0  0
  -19.8628    7.0189  -16.3302 C   0  0  0  0  0  0  0  0  0  0  0  0
  -18.4989    6.8822  -16.4952 C   0  0  0  0  0  0  0  0  0  0  0  0
  -17.9385    7.3071  -17.6928 C   0  0  0  0  0  0  0  0  0  0  0  0
  -19.9861    7.9578  -18.5127 C   0  0  0  0  0  0  0  0  0  0  0  0
  -20.6295    7.5823  -17.3333 C   0  0  0  0  0  0  0  0  0  0  0  0
  -22.2902    3.2897  -14.2535 C   0  0  0  0  0  0  0  0  0  0  0  0
  -20.3079   -1.2388  -13.3867 C   0  0  0  0  0  0  0  0  0  0  0  0
  -19.1978   -3.3682  -13.3837 C   0  0  0  0  0  0  0  0  0  0  0  0
  -20.1842    2.8158  -15.2995 C   0  0  0  0  0  0  0  0  0  0  0  0
  -20.7934    5.0951  -14.8363 C   0  0  0  0  0  0  0  0  0  0  0  0
  -22.0012    4.6621  -14.2783 C   0  0  0  0  0  0  0  0  0  0  0  0
  -19.8508   -2.3583  -12.6968 C   0  0  0  0  0  0  0  0  0  0  0  0
  -21.5989    0.9290  -14.8003 N   0  0  0  0  0  0  0  0  0  0  0  0
  -18.6693    7.8156  -18.6804 N   0  0  0  0  0  0  0  0  0  0  0  0
  -18.7109   -4.5099  -12.7202 O   0  0  0  0  0  0  0  0  0  0  0  0
  -18.7693   -4.5380  -10.6712 H   0  0  0  0  0  0  0  0  0  0  0  0
  -20.3448   -4.2989  -11.5002 H   0  0  0  0  0  0  0  0  0  0  0  0
  -19.5665   -5.9178  -11.5002 H   0  0  0  0  0  0  0  0  0  0  0  0
  -18.5273   -4.0789  -15.3066 H   0  0  0  0  0  0  0  0  0  0  0  0
  -19.3378   -2.0846  -16.5404 H   0  0  0  0  0  0  0  0  0  0  0  0
  -19.7787    0.7036  -15.8110 H   0  0  0  0  0  0  0  0  0  0  0  0
  -21.1909   -0.3141  -16.4045 H   0  0  0  0  0  0  0  0  0  0  0  0
  -18.9627    4.4954  -15.7916 H   0  0  0  0  0  0  0  0  0  0  0  0
  -19.6853    6.7971  -14.2331 H   0  0  0  0  0  0  0  0  0  0  0  0
  -21.3955    7.0807  -14.9330 H   0  0  0  0  0  0  0  0  0  0  0  0
  -17.8738    6.4491  -15.7005 H   0  0  0  0  0  0  0  0  0  0  0  0
  -16.8505    7.2197  -17.8293 H   0  0  0  0  0  0  0  0  0  0  0  0
  -20.5835    8.3852  -19.3315 H   0  0  0  0  0  0  0  0  0  0  0  0
  -21.7121    7.7297  -17.2056 H   0  0  0  0  0  0  0  0  0  0  0  0
  -23.2433    2.9362  -13.8333 H   0  0  0  0  0  0  0  0  0  0  0  0
  -20.8148   -0.4307  -12.8388 H   0  0  0  0  0  0  0  0  0  0  0  0
  -19.4562    2.0923  -15.6953 H   0  0  0  0  0  0  0  0  0  0  0  0
  -22.7154    5.3890  -13.8641 H   0  0  0  0  0  0  0  0  0  0  0  0
  -20.0076   -2.4404  -11.6111 H   0  0  0  0  0  0  0  0  0  0  0  0
  -22.4114    0.5130  -14.3231 H   0  0  0  0  0  0  0  0  0  0  0  0
  1 23  1  0
  2  3  2  0
  2 16  1  0
  3  4  1  0
  4  5  1  0
  4 15  2  0
  5 21  1  0
  6 14  2  0
  6 17  1  0
  6 21  1  0
  7 17  2  0
  7 18  1  0
  8  9  1  0
  8 18  1  0
  9 10  2  0
  9 13  1  0
 10 11  1  0
 11 22  2  0
 12 13  2  0
 12 22  1  0
 14 19  1  0
 15 20  1  0
 16 20  2  0
 16 23  1  0
 18 19  2  0
  1 24  1  0
  1 25  1  0
  1 26  1  0
  2 27  1  0
  3 28  1  0
  5 29  1  0
  5 30  1  0
  7 31  1  0
  8 32  1  0
  8 33  1  0
 10 34  1  0
 11 35  1  0
 12 36  1  0
 13 37  1  0
 14 38  1  0
 15 39  1  0
 17 40  1  0
 19 41  1  0
 20 42  1  0
 21 43  1  0
M  END
>  <filename_input>  (6) 
7P5T_5YG_docked.sdf

>  <pdb_id>  (6) 
7P5T_5YG

>  <pose_rank>  (6) 
5

>  <num_atoms_heavy>  (6) 
23

>  <num_torsions>  (6) 
6

>  <pose>  (6) 
[-21.36865813401693, 2.3720316433266686, -14.761916715629834, 1.4925941787097428, 2.328901975375867, -0.4008169686374364, 2.311239043451766, 1.2493480735624398, 0.3409235888377308, -1.4739610461488486, -1.7995673330148618, 0.6832782428046102]

>  <energy>  (6) 
-564.8748379678631

>  <inter_energy>  (6) 
-567.6290557593427

>  <intra_energy>  (6) 
8.174085907589332

>  <rmsd>  (6) 
4.38849

>  <sdf_rank>  (6) 
0

$$$$

     RDKit          3D

 43 45  0  0  0  0  0  0  0  0999 V2000
  -26.6766   -1.3273   -8.5052 C   0  0  0  0  0  0  0  0  0  0  0  0
  -23.9632    0.4269   -9.4790 C   0  0  0  0  0  0  0  0  0  0  0  0
  -23.2492    0.8696  -10.5816 C   0  0  0  0  0  0  0  0  0  0  0  0
  -23.9270    1.2407  -11.7386 C   0  0  0  0  0  0  0  0  0  0  0  0
  -23.1347    1.7124  -12.9558 C   0  0  0  0  0  0  0  0  0  0  0  0
  -22.1955    3.8853  -13.8299 C   0  0  0  0  0  0  0  0  0  0  0  0
  -20.3407    3.9075  -15.3173 C   0  0  0  0  0  0  0  0  0  0  0  0
  -18.8727    5.8718  -15.6922 C   0  0  0  0  0  0  0  0  0  0  0  0
  -19.1817    6.9794  -16.6759 C   0  0  0  0  0  0  0  0  0  0  0  0
  -18.0984    7.5803  -17.2852 C   0  0  0  0  0  0  0  0  0  0  0  0
  -18.3412    8.6103  -18.1848 C   0  0  0  0  0  0  0  0  0  0  0  0
  -20.6153    8.4408  -17.8880 C   0  0  0  0  0  0  0  0  0  0  0  0
  -20.4637    7.4173  -16.9525 C   0  0  0  0  0  0  0  0  0  0  0  0
  -21.9106    5.1990  -13.4520 C   0  0  0  0  0  0  0  0  0  0  0  0
  -25.3194    1.1612  -11.7717 C   0  0  0  0  0  0  0  0  0  0  0  0
  -25.3515    0.3579   -9.5088 C   0  0  0  0  0  0  0  0  0  0  0  0
  -21.4041    3.2517  -14.7578 C   0  0  0  0  0  0  0  0  0  0  0  0
  -20.0196    5.2074  -14.9565 C   0  0  0  0  0  0  0  0  0  0  0  0
  -20.8093    5.8665  -14.0080 C   0  0  0  0  0  0  0  0  0  0  0  0
  -26.0310    0.7128  -10.6623 C   0  0  0  0  0  0  0  0  0  0  0  0
  -23.3361    3.1251  -13.3219 N   0  0  0  0  0  0  0  0  0  0  0  0
  -19.5706    9.0157  -18.4884 N   0  0  0  0  0  0  0  0  0  0  0  0
  -26.0358   -0.0888   -8.3630 O   0  0  0  0  0  0  0  0  0  0  0  0
  -26.8926   -1.7448   -7.5107 H   0  0  0  0  0  0  0  0  0  0  0  0
  -27.6178   -1.1919   -9.0583 H   0  0  0  0  0  0  0  0  0  0  0  0
  -26.0223   -2.0173   -9.0583 H   0  0  0  0  0  0  0  0  0  0  0  0
  -23.4242    0.1262   -8.5684 H   0  0  0  0  0  0  0  0  0  0  0  0
  -22.1515    0.9272  -10.5420 H   0  0  0  0  0  0  0  0  0  0  0  0
  -22.0653    1.5639  -12.7451 H   0  0  0  0  0  0  0  0  0  0  0  0
  -23.4990    1.1195  -13.8078 H   0  0  0  0  0  0  0  0  0  0  0  0
  -19.7267    3.3915  -16.0702 H   0  0  0  0  0  0  0  0  0  0  0  0
  -18.3454    5.0830  -16.2487 H   0  0  0  0  0  0  0  0  0  0  0  0
  -18.3019    6.3739  -14.8971 H   0  0  0  0  0  0  0  0  0  0  0  0
  -17.0718    7.2526  -17.0645 H   0  0  0  0  0  0  0  0  0  0  0  0
  -17.4854    9.1087  -18.6634 H   0  0  0  0  0  0  0  0  0  0  0  0
  -21.6292    8.7857  -18.1393 H   0  0  0  0  0  0  0  0  0  0  0  0
  -21.3360    6.9728  -16.4510 H   0  0  0  0  0  0  0  0  0  0  0  0
  -22.5502    5.7107  -12.7178 H   0  0  0  0  0  0  0  0  0  0  0  0
  -25.8603    1.4556  -12.6831 H   0  0  0  0  0  0  0  0  0  0  0  0
  -21.6257    2.2151  -15.0516 H   0  0  0  0  0  0  0  0  0  0  0  0
  -20.5694    6.8955  -13.7020 H   0  0  0  0  0  0  0  0  0  0  0  0
  -27.1280    0.6407  -10.7016 H   0  0  0  0  0  0  0  0  0  0  0  0
  -24.2608    3.5677  -13.2221 H   0  0  0  0  0  0  0  0  0  0  0  0
  1 23  1  0
  2  3  2  0
  2 16  1  0
  3  4  1  0
  4  5  1  0
  4 15  2  0
  5 21  1  0
  6 14  2  0
  6 17  1  0
  6 21  1  0
  7 17  2  0
  7 18  1  0
  8  9  1  0
  8 18  1  0
  9 10  2  0
  9 13  1  0
 10 11  1  0
 11 22  2  0
 12 13  2  0
 12 22  1  0
 14 19  1  0
 15 20  1  0
 16 20  2  0
 16 23  1  0
 18 19  2  0
  1 24  1  0
  1 25  1  0
  1 26  1  0
  2 27  1  0
  3 28  1  0
  5 29  1  0
  5 30  1  0
  7 31  1  0
  8 32  1  0
  8 33  1  0
 10 34  1  0
 11 35  1  0
 12 36  1  0
 13 37  1  0
 14 38  1  0
 15 39  1  0
 17 40  1  0
 19 41  1  0
 20 42  1  0
 21 43  1  0
M  END
>  <filename_input>  (7) 
7P5T_5YG_docked.sdf

>  <pdb_id>  (7) 
7P5T_5YG

>  <pose_rank>  (7) 
6

>  <num_atoms_heavy>  (7) 
23

>  <num_torsions>  (7) 
6

>  <pose>  (7) 
[-22.19553468037582, 3.88532072241034, -13.829946434776017, 2.3794905235273407, 1.6741752741227116, -1.1925866263055094, 3.4665865090441934, -0.43460186683970525, -5.0520650938343925, 11.32128525929804, -0.38430878036820915, 1.401715085187828]

>  <energy>  (7) 
-807.7203835751407

>  <inter_energy>  (7) 
-805.5155066229058

>  <intra_energy>  (7) 
6.187752739462984

>  <rmsd>  (7) 
0.899139

>  <sdf_rank>  (7) 
0

$$$$

     RDKit          3D

 43 45  0  0  0  0  0  0  0  0999 V2000
  -24.7293   -0.9383   -7.6818 C   0  0  0  0  0  0  0  0  0  0  0  0
  -25.9479    0.2567  -10.5966 C   0  0  0  0  0  0  0  0  0  0  0  0
  -25.7937    1.2463  -11.5548 C   0  0  0  0  0  0  0  0  0  0  0  0
  -24.5194    1.7031  -11.8758 C   0  0  0  0  0  0  0  0  0  0  0  0
  -24.3563    2.8048  -12.9206 C   0  0  0  0  0  0  0  0  0  0  0  0
  -22.2737    3.6193  -14.0898 C   0  0  0  0  0  0  0  0  0  0  0  0
  -20.2668    4.2503  -15.1977 C   0  0  0  0  0  0  0  0  0  0  0  0
  -19.2266    6.4965  -15.0346 C   0  0  0  0  0  0  0  0  0  0  0  0
  -19.4213    7.2834  -16.3125 C   0  0  0  0  0  0  0  0  0  0  0  0
  -18.3481    8.0405  -16.7377 C   0  0  0  0  0  0  0  0  0  0  0  0
  -18.4929    8.7872  -17.8998 C   0  0  0  0  0  0  0  0  0  0  0  0
  -20.6527    8.0551  -18.1962 C   0  0  0  0  0  0  0  0  0  0  0  0
  -20.6050    7.2958  -17.0270 C   0  0  0  0  0  0  0  0  0  0  0  0
  -22.3443    4.8808  -13.4953 C   0  0  0  0  0  0  0  0  0  0  0  0
  -23.4124    1.1566  -11.2261 C   0  0  0  0  0  0  0  0  0  0  0  0
  -24.8437   -0.2952   -9.9569 C   0  0  0  0  0  0  0  0  0  0  0  0
  -21.2321    3.3163  -14.9336 C   0  0  0  0  0  0  0  0  0  0  0  0
  -20.2970    5.5083  -14.6152 C   0  0  0  0  0  0  0  0  0  0  0  0
  -21.3456    5.8330  -13.7475 C   0  0  0  0  0  0  0  0  0  0  0  0
  -23.5735    0.1651  -10.2621 C   0  0  0  0  0  0  0  0  0  0  0  0
  -23.2827    2.5781  -13.9037 N   0  0  0  0  0  0  0  0  0  0  0  0
  -19.6126    8.7786  -18.6170 N   0  0  0  0  0  0  0  0  0  0  0  0
  -25.0466   -1.3043   -8.9971 O   0  0  0  0  0  0  0  0  0  0  0  0
  -25.2837   -1.5778   -6.9793 H   0  0  0  0  0  0  0  0  0  0  0  0
  -23.6489   -1.0632   -7.5169 H   0  0  0  0  0  0  0  0  0  0  0  0
  -25.0062    0.1135   -7.5169 H   0  0  0  0  0  0  0  0  0  0  0  0
  -26.9572   -0.0967  -10.3388 H   0  0  0  0  0  0  0  0  0  0  0  0
  -26.6752    1.6687  -12.0594 H   0  0  0  0  0  0  0  0  0  0  0  0
  -25.3058    2.8988  -13.4681 H   0  0  0  0  0  0  0  0  0  0  0  0
  -24.0787    3.7140  -12.3672 H   0  0  0  0  0  0  0  0  0  0  0  0
  -19.4485    3.9971  -15.8878 H   0  0  0  0  0  0  0  0  0  0  0  0
  -18.2892    5.9312  -15.1427 H   0  0  0  0  0  0  0  0  0  0  0  0
  -19.2473    7.2621  -14.2451 H   0  0  0  0  0  0  0  0  0  0  0  0
  -17.4047    8.0520  -16.1720 H   0  0  0  0  0  0  0  0  0  0  0  0
  -17.6508    9.4082  -18.2392 H   0  0  0  0  0  0  0  0  0  0  0  0
  -21.5779    8.0578  -18.7912 H   0  0  0  0  0  0  0  0  0  0  0  0
  -21.4809    6.7253  -16.6845 H   0  0  0  0  0  0  0  0  0  0  0  0
  -23.1837    5.1281  -12.8287 H   0  0  0  0  0  0  0  0  0  0  0  0
  -22.4025    1.5125  -11.4778 H   0  0  0  0  0  0  0  0  0  0  0  0
  -21.1739    2.3207  -15.3978 H   0  0  0  0  0  0  0  0  0  0  0  0
  -21.3863    6.8226  -13.2691 H   0  0  0  0  0  0  0  0  0  0  0  0
  -22.6961   -0.2509   -9.7453 H   0  0  0  0  0  0  0  0  0  0  0  0
  -23.2439    1.7047  -14.4483 H   0  0  0  0  0  0  0  0  0  0  0  0
  1 23  1  0
  2  3  2  0
  2 16  1  0
  3  4  1  0
  4  5  1  0
  4 15  2  0
  5 21  1  0
  6 14  2  0
  6 17  1  0
  6 21  1  0
  7 17  2  0
  7 18  1  0
  8  9  1  0
  8 18  1  0
  9 10  2  0
  9 13  1  0
 10 11  1  0
 11 22  2  0
 12 13  2  0
 12 22  1  0
 14 19  1  0
 15 20  1  0
 16 20  2  0
 16 23  1  0
 18 19  2  0
  1 24  1  0
  1 25  1  0
  1 26  1  0
  2 27  1  0
  3 28  1  0
  5 29  1  0
  5 30  1  0
  7 31  1  0
  8 32  1  0
  8 33  1  0
 10 34  1  0
 11 35  1  0
 12 36  1  0
 13 37  1  0
 14 38  1  0
 15 39  1  0
 17 40  1  0
 19 41  1  0
 20 42  1  0
 21 43  1  0
M  END
>  <filename_input>  (8) 
7P5T_5YG_docked.sdf

>  <pdb_id>  (8) 
7P5T_5YG

>  <pose_rank>  (8) 
7

>  <num_atoms_heavy>  (8) 
23

>  <num_torsions>  (8) 
6

>  <pose>  (8) 
[-22.27371903156826, 3.6193367504662843, -14.089812290156281, 2.237626897998973, 1.9606181323841512, -0.8366978086312068, 3.010918935327771, -0.2596481496555121, -2.771209671725662, 12.892836397135659, -0.7597705629130594, 1.3944190363759068]

>  <energy>  (8) 
-833.7809134139961

>  <inter_energy>  (8) 
-835.591839759688

>  <intra_energy>  (8) 
2.138851880108999

>  <rmsd>  (8) 
0.717802

>  <sdf_rank>  (8) 
0

$$$$

     RDKit          3D

 43 45  0  0  0  0  0  0  0  0999 V2000
  -24.1993   -1.2303   -6.9445 C   0  0  0  0  0  0  0  0  0  0  0  0
  -25.2054   -0.3761   -9.8335 C   0  0  0  0  0  0  0  0  0  0  0  0
  -25.2457    0.5752  -10.8408 C   0  0  0  0  0  0  0  0  0  0  0  0
  -24.0660    1.1730  -11.2726 C   0  0  0  0  0  0  0  0  0  0  0  0
  -24.1179    2.2321  -12.3715 C   0  0  0  0  0  0  0  0  0  0  0  0
  -22.4436    3.6171  -13.6545 C   0  0  0  0  0  0  0  0  0  0  0  0
  -20.9172    4.8133  -15.0302 C   0  0  0  0  0  0  0  0  0  0  0  0
  -20.9045    7.2807  -15.2868 C   0  0  0  0  0  0  0  0  0  0  0  0
  -19.7947    7.1436  -16.3064 C   0  0  0  0  0  0  0  0  0  0  0  0
  -18.5078    7.0851  -15.8100 C   0  0  0  0  0  0  0  0  0  0  0  0
  -17.4611    6.9724  -16.7159 C   0  0  0  0  0  0  0  0  0  0  0  0
  -18.9048    6.9686  -18.5059 C   0  0  0  0  0  0  0  0  0  0  0  0
  -20.0137    7.1082  -17.6712 C   0  0  0  0  0  0  0  0  0  0  0  0
  -23.0160    4.8212  -13.2394 C   0  0  0  0  0  0  0  0  0  0  0  0
  -22.8563    0.8048  -10.6833 C   0  0  0  0  0  0  0  0  0  0  0  0
  -23.9984   -0.7505   -9.2537 C   0  0  0  0  0  0  0  0  0  0  0  0
  -21.3964    3.6266  -14.5445 C   0  0  0  0  0  0  0  0  0  0  0  0
  -21.4519    6.0288  -14.6303 C   0  0  0  0  0  0  0  0  0  0  0  0
  -22.5137    6.0398  -13.7191 C   0  0  0  0  0  0  0  0  0  0  0  0
  -22.8222   -0.1491   -9.6697 C   0  0  0  0  0  0  0  0  0  0  0  0
  -22.9201    2.3031  -13.2264 N   0  0  0  0  0  0  0  0  0  0  0  0
  -17.6600    6.8992  -18.0286 N   0  0  0  0  0  0  0  0  0  0  0  0
  -24.0037   -1.7273   -8.2404 O   0  0  0  0  0  0  0  0  0  0  0  0
  -23.8993   -1.9925   -6.2103 H   0  0  0  0  0  0  0  0  0  0  0  0
  -23.5902   -0.3252   -6.8030 H   0  0  0  0  0  0  0  0  0  0  0  0
  -25.2617   -0.9830   -6.8030 H   0  0  0  0  0  0  0  0  0  0  0  0
  -26.1406   -0.8410   -9.4882 H   0  0  0  0  0  0  0  0  0  0  0  0
  -26.2065    0.8564  -11.2968 H   0  0  0  0  0  0  0  0  0  0  0  0
  -24.9834    2.0142  -13.0146 H   0  0  0  0  0  0  0  0  0  0  0  0
  -24.1873    3.2029  -11.8590 H   0  0  0  0  0  0  0  0  0  0  0  0
  -20.0891    4.8026  -15.7541 H   0  0  0  0  0  0  0  0  0  0  0  0
  -20.5262    7.9286  -14.4824 H   0  0  0  0  0  0  0  0  0  0  0  0
  -21.7536    7.6691  -15.8685 H   0  0  0  0  0  0  0  0  0  0  0  0
  -18.3168    7.1266  -14.7275 H   0  0  0  0  0  0  0  0  0  0  0  0
  -16.4301    6.9426  -16.3336 H   0  0  0  0  0  0  0  0  0  0  0  0
  -19.0613    6.9138  -19.5933 H   0  0  0  0  0  0  0  0  0  0  0  0
  -21.0296    7.1876  -18.0854 H   0  0  0  0  0  0  0  0  0  0  0  0
  -23.8615    4.8141  -12.5357 H   0  0  0  0  0  0  0  0  0  0  0  0
  -21.9204    1.2726  -11.0226 H   0  0  0  0  0  0  0  0  0  0  0  0
  -20.9423    2.6782  -14.8675 H   0  0  0  0  0  0  0  0  0  0  0  0
  -22.9490    6.9925  -13.3831 H   0  0  0  0  0  0  0  0  0  0  0  0
  -21.8655   -0.4238   -9.2014 H   0  0  0  0  0  0  0  0  0  0  0  0
  -22.4290    1.4454  -13.5162 H   0  0  0  0  0  0  0  0  0  0  0  0
  1 23  1  0
  2  3  2  0
  2 16  1  0
  3  4  1  0
  4  5  1  0
  4 15  2  0
  5 21  1  0
  6 14  2  0
  6 17  1  0
  6 21  1  0
  7 17  2  0
  7 18  1  0
  8  9  1  0
  8 18  1  0
  9 10  2  0
  9 13  1  0
 10 11  1  0
 11 22  2  0
 12 13  2  0
 12 22  1  0
 14 19  1  0
 15 20  1  0
 16 20  2  0
 16 23  1  0
 18 19  2  0
  1 24  1  0
  1 25  1  0
  1 26  1  0
  2 27  1  0
  3 28  1  0
  5 29  1  0
  5 30  1  0
  7 31  1  0
  8 32  1  0
  8 33  1  0
 10 34  1  0
 11 35  1  0
 12 36  1  0
 13 37  1  0
 14 38  1  0
 15 39  1  0
 17 40  1  0
 19 41  1  0
 20 42  1  0
 21 43  1  0
M  END
>  <filename_input>  (9) 
7P5T_5YG_docked.sdf

>  <pdb_id>  (9) 
7P5T_5YG

>  <pose_rank>  (9) 
8

>  <num_atoms_heavy>  (9) 
23

>  <num_torsions>  (9) 
6

>  <pose>  (9) 
[-22.443564376735484, 3.6171365253943923, -13.654460858289987, 1.6363591939151065, 2.192834670421266, -0.97117352094903, 1.5460990966824606, 1.2599621652790487, -2.582248022581308, 12.633562263977714, -1.0100804175125533, 1.831293942626544]

>  <energy>  (9) 
-701.130164278367

>  <inter_energy>  (9) 
-700.3173214542396

>  <intra_energy>  (9) 
5.7927575141902965

>  <rmsd>  (9) 
1.54474

>  <sdf_rank>  (9) 
0

$$$$

     RDKit          3D

 43 45  0  0  0  0  0  0  0  0999 V2000
  -19.8696    4.4225  -16.0968 C   0  0  0  0  0  0  0  0  0  0  0  0
  -21.5142    2.1358  -14.3751 C   0  0  0  0  0  0  0  0  0  0  0  0
  -22.2461    1.8739  -13.2274 C   0  0  0  0  0  0  0  0  0  0  0  0
  -23.1743    2.8056  -12.7736 C   0  0  0  0  0  0  0  0  0  0  0  0
  -23.9664    2.5192  -11.4998 C   0  0  0  0  0  0  0  0  0  0  0  0
  -23.6683    0.6001   -9.8886 C   0  0  0  0  0  0  0  0  0  0  0  0
  -25.0557   -0.4871   -8.2929 C   0  0  0  0  0  0  0  0  0  0  0  0
  -25.4134   -2.9399   -8.1919 C   0  0  0  0  0  0  0  0  0  0  0  0
  -26.6609   -3.4737   -8.8619 C   0  0  0  0  0  0  0  0  0  0  0  0
  -26.6557   -4.8142   -9.1918 C   0  0  0  0  0  0  0  0  0  0  0  0
  -27.7780   -5.3382   -9.8202 C   0  0  0  0  0  0  0  0  0  0  0  0
  -28.8482   -3.3031   -9.7822 C   0  0  0  0  0  0  0  0  0  0  0  0
  -27.7546   -2.6872   -9.1734 C   0  0  0  0  0  0  0  0  0  0  0  0
  -23.3168   -0.6383  -10.4296 C   0  0  0  0  0  0  0  0  0  0  0  0
  -23.3547    3.9934  -13.4827 C   0  0  0  0  0  0  0  0  0  0  0  0
  -21.7019    3.3150  -15.0873 C   0  0  0  0  0  0  0  0  0  0  0  0
  -24.5331    0.6620   -8.8222 C   0  0  0  0  0  0  0  0  0  0  0  0
  -24.7190   -1.7350   -8.7954 C   0  0  0  0  0  0  0  0  0  0  0  0
  -23.8344   -1.8187   -9.8762 C   0  0  0  0  0  0  0  0  0  0  0  0
  -22.6145    4.2526  -14.6329 C   0  0  0  0  0  0  0  0  0  0  0  0
  -23.1979    1.8788  -10.4182 N   0  0  0  0  0  0  0  0  0  0  0  0
  -28.8515   -4.6018  -10.0914 N   0  0  0  0  0  0  0  0  0  0  0  0
  -20.9434    3.5351  -16.2522 O   0  0  0  0  0  0  0  0  0  0  0  0
  -19.6774    4.5814  -15.0254 H   0  0  0  0  0  0  0  0  0  0  0  0
  -18.9723    3.9990  -16.5715 H   0  0  0  0  0  0  0  0  0  0  0  0
  -20.1166    5.3836  -16.5715 H   0  0  0  0  0  0  0  0  0  0  0  0
  -20.7751    1.4011  -14.7269 H   0  0  0  0  0  0  0  0  0  0  0  0
  -22.0937    0.9333  -12.6778 H   0  0  0  0  0  0  0  0  0  0  0  0
  -24.3587    3.4741  -11.1202 H   0  0  0  0  0  0  0  0  0  0  0  0
  -24.7533    1.8043  -11.7820 H   0  0  0  0  0  0  0  0  0  0  0  0
  -25.7588   -0.4192   -7.4497 H   0  0  0  0  0  0  0  0  0  0  0  0
  -25.6895   -2.6715   -7.1615 H   0  0  0  0  0  0  0  0  0  0  0  0
  -24.6816   -3.7532   -8.3057 H   0  0  0  0  0  0  0  0  0  0  0  0
  -25.7872   -5.4494   -8.9634 H   0  0  0  0  0  0  0  0  0  0  0  0
  -27.7789   -6.4010  -10.1040 H   0  0  0  0  0  0  0  0  0  0  0  0
  -29.7372   -2.6987  -10.0153 H   0  0  0  0  0  0  0  0  0  0  0  0
  -27.7622   -1.6105   -8.9483 H   0  0  0  0  0  0  0  0  0  0  0  0
  -22.6336   -0.6881  -11.2902 H   0  0  0  0  0  0  0  0  0  0  0  0
  -24.0890    4.7324  -13.1295 H   0  0  0  0  0  0  0  0  0  0  0  0
  -24.8059    1.6374   -8.3930 H   0  0  0  0  0  0  0  0  0  0  0  0
  -23.5482   -2.7983  -10.2868 H   0  0  0  0  0  0  0  0  0  0  0  0
  -22.7538    5.1976  -15.1784 H   0  0  0  0  0  0  0  0  0  0  0  0
  -22.3474    2.3226  -10.0432 H   0  0  0  0  0  0  0  0  0  0  0  0
  1 23  1  0
  2  3  2  0
  2 16  1  0
  3  4  1  0
  4  5  1  0
  4 15  2  0
  5 21  1  0
  6 14  2  0
  6 17  1  0
  6 21  1  0
  7 17  2  0
  7 18  1  0
  8  9  1  0
  8 18  1  0
  9 10  2  0
  9 13  1  0
 10 11  1  0
 11 22  2  0
 12 13  2  0
 12 22  1  0
 14 19  1  0
 15 20  1  0
 16 20  2  0
 16 23  1  0
 18 19  2  0
  1 24  1  0
  1 25  1  0
  1 26  1  0
  2 27  1  0
  3 28  1  0
  5 29  1  0
  5 30  1  0
  7 31  1  0
  8 32  1  0
  8 33  1  0
 10 34  1  0
 11 35  1  0
 12 36  1  0
 13 37  1  0
 14 38  1  0
 15 39  1  0
 17 40  1  0
 19 41  1  0
 20 42  1  0
 21 43  1  0
M  END
>  <filename_input>  (10) 
7P5T_5YG_docked.sdf

>  <pdb_id>  (10) 
7P5T_5YG

>  <pose_rank>  (10) 
9

>  <num_atoms_heavy>  (10) 
23

>  <num_torsions>  (10) 
6

>  <pose>  (10) 
[-23.668343696158615, 0.6001119168090308, -9.888581753309175, -1.4877472354738364, 2.2772573261581486, 2.1516361673964215, -3.0689505127190033, -1.3420044759331071, 5.162846607036821, -5.893431797353004, 2.295163914624544, 1.5678842741020593]

>  <energy>  (10) 
-492.3403926714264

>  <inter_energy>  (10) 
-483.45132434750445

>  <intra_energy>  (10) 
1.3024640389011137

>  <rmsd>  (10) 
10.9054

>  <sdf_rank>  (10) 
0

$$$$

     RDKit          3D

 43 45  0  0  0  0  0  0  0  0999 V2000
  -25.7130   -1.9428   -7.5117 C   0  0  0  0  0  0  0  0  0  0  0  0
  -23.3944   -0.3387   -9.7878 C   0  0  0  0  0  0  0  0  0  0  0  0
  -23.3912    0.6478  -10.7616 C   0  0  0  0  0  0  0  0  0  0  0  0
  -24.5978    1.1509  -11.2377 C   0  0  0  0  0  0  0  0  0  0  0  0
  -24.5887    2.2262  -12.3220 C   0  0  0  0  0  0  0  0  0  0  0  0
  -22.6297    3.4675  -13.3165 C   0  0  0  0  0  0  0  0  0  0  0  0
  -21.2166    5.0176  -14.4361 C   0  0  0  0  0  0  0  0  0  0  0  0
  -19.7994    4.4565  -16.3933 C   0  0  0  0  0  0  0  0  0  0  0  0
  -19.5414    5.9267  -16.6422 C   0  0  0  0  0  0  0  0  0  0  0  0
  -19.6359    6.3543  -17.9515 C   0  0  0  0  0  0  0  0  0  0  0  0
  -19.3930    7.6948  -18.2217 C   0  0  0  0  0  0  0  0  0  0  0  0
  -18.9936    8.1521  -16.0036 C   0  0  0  0  0  0  0  0  0  0  0  0
  -19.1953    6.8193  -15.6446 C   0  0  0  0  0  0  0  0  0  0  0  0
  -22.2687    2.4754  -14.2304 C   0  0  0  0  0  0  0  0  0  0  0  0
  -25.7965    0.6530  -10.7265 C   0  0  0  0  0  0  0  0  0  0  0  0
  -24.5892   -0.8271   -9.2710 C   0  0  0  0  0  0  0  0  0  0  0  0
  -22.1012    4.7309  -13.4315 C   0  0  0  0  0  0  0  0  0  0  0  0
  -20.8453    4.0617  -15.3695 C   0  0  0  0  0  0  0  0  0  0  0  0
  -21.3786    2.7717  -15.2733 C   0  0  0  0  0  0  0  0  0  0  0  0
  -25.7937   -0.3402   -9.7509 C   0  0  0  0  0  0  0  0  0  0  0  0
  -23.5283    3.2399  -12.1862 N   0  0  0  0  0  0  0  0  0  0  0  0
  -19.0964    8.5714  -17.2669 N   0  0  0  0  0  0  0  0  0  0  0  0
  -24.5448   -1.8224   -8.2769 O   0  0  0  0  0  0  0  0  0  0  0  0
  -25.4554   -1.9163   -6.4426 H   0  0  0  0  0  0  0  0  0  0  0  0
  -26.3923   -1.1100   -7.7460 H   0  0  0  0  0  0  0  0  0  0  0  0
  -26.2081   -2.8968   -7.7460 H   0  0  0  0  0  0  0  0  0  0  0  0
  -22.4391   -0.7406   -9.4192 H   0  0  0  0  0  0  0  0  0  0  0  0
  -22.4387    1.0313  -11.1561 H   0  0  0  0  0  0  0  0  0  0  0  0
  -24.4623    1.7286  -13.2948 H   0  0  0  0  0  0  0  0  0  0  0  0
  -25.5428    2.7655  -12.2273 H   0  0  0  0  0  0  0  0  0  0  0  0
  -20.7905    6.0295  -14.5044 H   0  0  0  0  0  0  0  0  0  0  0  0
  -20.1039    4.0146  -17.3535 H   0  0  0  0  0  0  0  0  0  0  0  0
  -18.8553    4.0898  -15.9641 H   0  0  0  0  0  0  0  0  0  0  0  0
  -19.8962    5.6530  -18.7580 H   0  0  0  0  0  0  0  0  0  0  0  0
  -19.4479    8.0439  -19.2634 H   0  0  0  0  0  0  0  0  0  0  0  0
  -18.7417    8.8817  -15.2199 H   0  0  0  0  0  0  0  0  0  0  0  0
  -19.0825    6.4891  -14.6014 H   0  0  0  0  0  0  0  0  0  0  0  0
  -22.6826    1.4610  -14.1325 H   0  0  0  0  0  0  0  0  0  0  0  0
  -26.7532    1.0490  -11.0979 H   0  0  0  0  0  0  0  0  0  0  0  0
  -22.3897    5.5137  -12.7144 H   0  0  0  0  0  0  0  0  0  0  0  0
  -21.1032    1.9993  -16.0065 H   0  0  0  0  0  0  0  0  0  0  0  0
  -26.7437   -0.7363   -9.3630 H   0  0  0  0  0  0  0  0  0  0  0  0
  -23.4223    3.7767  -11.3135 H   0  0  0  0  0  0  0  0  0  0  0  0
  1 23  1  0
  2  3  2  0
  2 16  1  0
  3  4  1  0
  4  5  1  0
  4 15  2  0
  5 21  1  0
  6 14  2  0
  6 17  1  0
  6 21  1  0
  7 17  2  0
  7 18  1  0
  8  9  1  0
  8 18  1  0
  9 10  2  0
  9 13  1  0
 10 11  1  0
 11 22  2  0
 12 13  2  0
 12 22  1  0
 14 19  1  0
 15 20  1  0
 16 20  2  0
 16 23  1  0
 18 19  2  0
  1 24  1  0
  1 25  1  0
  1 26  1  0
  2 27  1  0
  3 28  1  0
  5 29  1  0
  5 30  1  0
  7 31  1  0
  8 32  1  0
  8 33  1  0
 10 34  1  0
 11 35  1  0
 12 36  1  0
 13 37  1  0
 14 38  1  0
 15 39  1  0
 17 40  1  0
 19 41  1  0
 20 42  1  0
 21 43  1  0
M  END
>  <filename_input>  (11) 
7P5T_5YG_docked.sdf

>  <pdb_id>  (11) 
7P5T_5YG

>  <pose_rank>  (11) 
10

>  <num_atoms_heavy>  (11) 
23

>  <num_torsions>  (11) 
6

>  <pose>  (11) 
[-22.629736483697556, 3.4675337578480088, -13.31653433309316, -0.3498686960419952, 0.34332119241329984, -0.25418611275056974, 1.235925641469542, 0.5469202136392034, -3.182634330441046, 11.002802014230912, 0.9299792961140928, -0.132753300405731]

>  <energy>  (11) 
-640.2313268912746

>  <inter_energy>  (11) 
-661.2471468539233

>  <intra_energy>  (11) 
20.90665517829146

>  <rmsd>  (11) 
1.58433

>  <sdf_rank>  (11) 
0

$$$$

     RDKit          3D

 43 45  0  0  0  0  0  0  0  0999 V2000
  -25.3533   -1.7350   -8.7200 C   0  0  0  0  0  0  0  0  0  0  0  0
  -25.2450    0.7585   -9.9255 C   0  0  0  0  0  0  0  0  0  0  0  0
  -25.1209    1.7964  -10.8358 C   0  0  0  0  0  0  0  0  0  0  0  0
  -23.8587    2.2874  -11.1543 C   0  0  0  0  0  0  0  0  0  0  0  0
  -23.7287    3.4416  -12.1456 C   0  0  0  0  0  0  0  0  0  0  0  0
  -22.1193    3.8756  -14.0401 C   0  0  0  0  0  0  0  0  0  0  0  0
  -20.7901    5.8353  -13.8256 C   0  0  0  0  0  0  0  0  0  0  0  0
  -18.8838    6.4009  -15.3089 C   0  0  0  0  0  0  0  0  0  0  0  0
  -19.0590    7.4062  -16.4264 C   0  0  0  0  0  0  0  0  0  0  0  0
  -17.9052    7.9732  -16.9295 C   0  0  0  0  0  0  0  0  0  0  0  0
  -18.0261    8.9104  -17.9473 C   0  0  0  0  0  0  0  0  0  0  0  0
  -20.3176    8.7169  -17.9619 C   0  0  0  0  0  0  0  0  0  0  0  0
  -20.2921    7.7873  -16.9222 C   0  0  0  0  0  0  0  0  0  0  0  0
  -21.3850    3.4986  -15.1665 C   0  0  0  0  0  0  0  0  0  0  0  0
  -22.7334    1.7259  -10.5503 C   0  0  0  0  0  0  0  0  0  0  0  0
  -24.1226    0.1922   -9.3318 C   0  0  0  0  0  0  0  0  0  0  0  0
  -21.8152    5.0436  -13.3827 C   0  0  0  0  0  0  0  0  0  0  0  0
  -20.0481    5.4997  -14.9480 C   0  0  0  0  0  0  0  0  0  0  0  0
  -20.3475    4.3182  -15.6350 C   0  0  0  0  0  0  0  0  0  0  0  0
  -22.8643    0.6857   -9.6343 C   0  0  0  0  0  0  0  0  0  0  0  0
  -23.1973    3.0705  -13.4687 N   0  0  0  0  0  0  0  0  0  0  0  0
  -19.2031    9.2580  -18.4593 N   0  0  0  0  0  0  0  0  0  0  0  0
  -24.2951   -0.8660   -8.4201 O   0  0  0  0  0  0  0  0  0  0  0  0
  -25.8015   -2.1032   -7.7853 H   0  0  0  0  0  0  0  0  0  0  0  0
  -26.1144   -1.1979   -9.3049 H   0  0  0  0  0  0  0  0  0  0  0  0
  -24.9743   -2.5860   -9.3049 H   0  0  0  0  0  0  0  0  0  0  0  0
  -26.2448    0.3779   -9.6693 H   0  0  0  0  0  0  0  0  0  0  0  0
  -26.0166    2.2301  -11.3045 H   0  0  0  0  0  0  0  0  0  0  0  0
  -24.7266    3.8811  -12.2900 H   0  0  0  0  0  0  0  0  0  0  0  0
  -23.0016    4.1415  -11.7081 H   0  0  0  0  0  0  0  0  0  0  0  0
  -20.5494    6.7588  -13.2786 H   0  0  0  0  0  0  0  0  0  0  0  0
  -18.0445    5.7478  -15.5901 H   0  0  0  0  0  0  0  0  0  0  0  0
  -18.7404    7.0221  -14.4124 H   0  0  0  0  0  0  0  0  0  0  0  0
  -16.9178    7.6908  -16.5353 H   0  0  0  0  0  0  0  0  0  0  0  0
  -17.1152    9.3823  -18.3443 H   0  0  0  0  0  0  0  0  0  0  0  0
  -21.2881    9.0139  -18.3861 H   0  0  0  0  0  0  0  0  0  0  0  0
  -21.2231    7.3708  -16.5101 H   0  0  0  0  0  0  0  0  0  0  0  0
  -21.6204    2.5584  -15.6866 H   0  0  0  0  0  0  0  0  0  0  0  0
  -21.7329    2.1088  -10.8004 H   0  0  0  0  0  0  0  0  0  0  0  0
  -22.3971    5.3429  -12.4985 H   0  0  0  0  0  0  0  0  0  0  0  0
  -19.7764    4.0354  -16.5316 H   0  0  0  0  0  0  0  0  0  0  0  0
  -21.9726    0.2578   -9.1529 H   0  0  0  0  0  0  0  0  0  0  0  0
  -23.5772    2.2611  -13.9801 H   0  0  0  0  0  0  0  0  0  0  0  0
  1 23  1  0
  2  3  2  0
  2 16  1  0
  3  4  1  0
  4  5  1  0
  4 15  2  0
  5 21  1  0
  6 14  2  0
  6 17  1  0
  6 21  1  0
  7 17  2  0
  7 18  1  0
  8  9  1  0
  8 18  1  0
  9 10  2  0
  9 13  1  0
 10 11  1  0
 11 22  2  0
 12 13  2  0
 12 22  1  0
 14 19  1  0
 15 20  1  0
 16 20  2  0
 16 23  1  0
 18 19  2  0
  1 24  1  0
  1 25  1  0
  1 26  1  0
  2 27  1  0
  3 28  1  0
  5 29  1  0
  5 30  1  0
  7 31  1  0
  8 32  1  0
  8 33  1  0
 10 34  1  0
 11 35  1  0
 12 36  1  0
 13 37  1  0
 14 38  1  0
 15 39  1  0
 17 40  1  0
 19 41  1  0
 20 42  1  0
 21 43  1  0
M  END
>  <filename_input>  (12) 
7P5T_5YG_docked.sdf

>  <pdb_id>  (12) 
7P5T_5YG

>  <pose_rank>  (12) 
11

>  <num_atoms_heavy>  (12) 
23

>  <num_torsions>  (12) 
6

>  <pose>  (12) 
[-22.119250945414713, 3.8756059594930474, -14.040132562438815, -4.788621645332105, -2.859625117613676, 2.360694088484928, -0.19828362464354274, -0.13866621411944677, -5.9840783068824095, 12.79858988968826, 6.014408897146633, -2.3155798358866444]

>  <energy>  (12) 
-891.5281057863228

>  <inter_energy>  (12) 
-891.8159555110085

>  <intra_energy>  (12) 
0.6316677082739155

>  <rmsd>  (12) 
0.542334

>  <sdf_rank>  (12) 
0

$$$$

     RDKit          3D

 43 45  0  0  0  0  0  0  0  0999 V2000
  -19.4532   -4.0881  -16.3859 C   0  0  0  0  0  0  0  0  0  0  0  0
  -20.4808   -1.1973  -16.1250 C   0  0  0  0  0  0  0  0  0  0  0  0
  -21.4092   -0.2700  -15.6782 C   0  0  0  0  0  0  0  0  0  0  0  0
  -21.7205   -0.2030  -14.3239 C   0  0  0  0  0  0  0  0  0  0  0  0
  -22.7558    0.8096  -13.8393 C   0  0  0  0  0  0  0  0  0  0  0  0
  -21.3158    2.7447  -14.5805 C   0  0  0  0  0  0  0  0  0  0  0  0
  -20.7817    4.6403  -15.9127 C   0  0  0  0  0  0  0  0  0  0  0  0
  -18.7381    4.8397  -17.3049 C   0  0  0  0  0  0  0  0  0  0  0  0
  -18.9433    6.3370  -17.3824 C   0  0  0  0  0  0  0  0  0  0  0  0
  -19.1519    6.8645  -18.6410 C   0  0  0  0  0  0  0  0  0  0  0  0
  -19.3311    8.2371  -18.7543 C   0  0  0  0  0  0  0  0  0  0  0  0
  -19.1142    8.5334  -16.4842 C   0  0  0  0  0  0  0  0  0  0  0  0
  -18.8989    7.1704  -16.2800 C   0  0  0  0  0  0  0  0  0  0  0  0
  -20.1625    2.0999  -15.0322 C   0  0  0  0  0  0  0  0  0  0  0  0
  -21.0916   -1.0732  -13.4331 C   0  0  0  0  0  0  0  0  0  0  0  0
  -19.8465   -2.0571  -15.2354 C   0  0  0  0  0  0  0  0  0  0  0  0
  -21.6149    4.0089  -15.0289 C   0  0  0  0  0  0  0  0  0  0  0  0
  -19.6350    4.0259  -16.3930 C   0  0  0  0  0  0  0  0  0  0  0  0
  -19.3176    2.7360  -15.9537 C   0  0  0  0  0  0  0  0  0  0  0  0
  -20.1623   -2.0047  -13.8879 C   0  0  0  0  0  0  0  0  0  0  0  0
  -22.2365    2.1678  -13.6025 N   0  0  0  0  0  0  0  0  0  0  0  0
  -19.3286    9.0452  -17.6984 N   0  0  0  0  0  0  0  0  0  0  0  0
  -18.9038   -2.9766  -15.7321 O   0  0  0  0  0  0  0  0  0  0  0  0
  -19.8113   -4.8125  -15.6395 H   0  0  0  0  0  0  0  0  0  0  0  0
  -20.2949   -3.7641  -17.0156 H   0  0  0  0  0  0  0  0  0  0  0  0
  -18.6846   -4.5600  -17.0156 H   0  0  0  0  0  0  0  0  0  0  0  0
  -20.2428   -1.2536  -17.1975 H   0  0  0  0  0  0  0  0  0  0  0  0
  -21.8979    0.4101  -16.3915 H   0  0  0  0  0  0  0  0  0  0  0  0
  -23.5495    0.8754  -14.5980 H   0  0  0  0  0  0  0  0  0  0  0  0
  -23.1113    0.4427  -12.8651 H   0  0  0  0  0  0  0  0  0  0  0  0
  -21.0273    5.6583  -16.2494 H   0  0  0  0  0  0  0  0  0  0  0  0
  -18.8663    4.4427  -18.3227 H   0  0  0  0  0  0  0  0  0  0  0  0
  -17.7379    4.7309  -16.8603 H   0  0  0  0  0  0  0  0  0  0  0  0
  -19.1755    6.2159  -19.5292 H   0  0  0  0  0  0  0  0  0  0  0  0
  -19.4806    8.6714  -19.7538 H   0  0  0  0  0  0  0  0  0  0  0  0
  -19.1070    9.2088  -15.6160 H   0  0  0  0  0  0  0  0  0  0  0  0
  -18.7002    6.7714  -15.2744 H   0  0  0  0  0  0  0  0  0  0  0  0
  -19.9164    1.0926  -14.6652 H   0  0  0  0  0  0  0  0  0  0  0  0
  -21.3323   -1.0228  -12.3609 H   0  0  0  0  0  0  0  0  0  0  0  0
  -22.5261    4.5146  -14.6769 H   0  0  0  0  0  0  0  0  0  0  0  0
  -18.4165    2.2269  -16.3264 H   0  0  0  0  0  0  0  0  0  0  0  0
  -19.6810   -2.6958  -13.1803 H   0  0  0  0  0  0  0  0  0  0  0  0
  -22.5162    2.6995  -12.7659 H   0  0  0  0  0  0  0  0  0  0  0  0
  1 23  1  0
  2  3  2  0
  2 16  1  0
  3  4  1  0
  4  5  1  0
  4 15  2  0
  5 21  1  0
  6 14  2  0
  6 17  1  0
  6 21  1  0
  7 17  2  0
  7 18  1  0
  8  9  1  0
  8 18  1  0
  9 10  2  0
  9 13  1  0
 10 11  1  0
 11 22  2  0
 12 13  2  0
 12 22  1  0
 14 19  1  0
 15 20  1  0
 16 20  2  0
 16 23  1  0
 18 19  2  0
  1 24  1  0
  1 25  1  0
  1 26  1  0
  2 27  1  0
  3 28  1  0
  5 29  1  0
  5 30  1  0
  7 31  1  0
  8 32  1  0
  8 33  1  0
 10 34  1  0
 11 35  1  0
 12 36  1  0
 13 37  1  0
 14 38  1  0
 15 39  1  0
 17 40  1  0
 19 41  1  0
 20 42  1  0
 21 43  1  0
M  END
>  <filename_input>  (13) 
7P5T_5YG_docked.sdf

>  <pdb_id>  (13) 
7P5T_5YG

>  <pose_rank>  (13) 
12

>  <num_atoms_heavy>  (13) 
23

>  <num_torsions>  (13) 
6

>  <pose>  (13) 
[-21.315782071073233, 2.7447014386337307, -14.58050836331067, -23.107269699192308, -3.4792625315421635, 11.134602661437597, 1.820256809212255, 0.5622993885770894, -3.550724839833042, 9.569540905724669, 0.1443421718966836, 2.0298027301984014]

>  <energy>  (13) 
-395.34127933821327

>  <inter_energy>  (13) 
-473.45858321799454

>  <intra_energy>  (13) 
84.83478704076383

>  <rmsd>  (13) 
4.40244

>  <sdf_rank>  (13) 
0

$$$$

     RDKit          3D

 43 45  0  0  0  0  0  0  0  0999 V2000
  -20.5017    7.4940  -18.8695 C   0  0  0  0  0  0  0  0  0  0  0  0
  -19.8791    7.7653  -15.9616 C   0  0  0  0  0  0  0  0  0  0  0  0
  -19.3997    7.3265  -14.7372 C   0  0  0  0  0  0  0  0  0  0  0  0
  -18.0554    6.9946  -14.6017 C   0  0  0  0  0  0  0  0  0  0  0  0
  -17.5358    6.4965  -13.2549 C   0  0  0  0  0  0  0  0  0  0  0  0
  -15.4430    5.7715  -12.0457 C   0  0  0  0  0  0  0  0  0  0  0  0
  -15.7111    3.9799  -10.5057 C   0  0  0  0  0  0  0  0  0  0  0  0
  -13.8792    3.0393   -9.1224 C   0  0  0  0  0  0  0  0  0  0  0  0
  -13.1612    1.8144   -9.6458 C   0  0  0  0  0  0  0  0  0  0  0  0
  -12.2167    1.2518   -8.8107 C   0  0  0  0  0  0  0  0  0  0  0  0
  -11.5270    0.1337   -9.2614 C   0  0  0  0  0  0  0  0  0  0  0  0
  -12.6658    0.1377  -11.2593 C   0  0  0  0  0  0  0  0  0  0  0  0
  -13.3865    1.2764  -10.8995 C   0  0  0  0  0  0  0  0  0  0  0  0
  -14.0983    5.8821  -11.6858 C   0  0  0  0  0  0  0  0  0  0  0  0
  -17.2076    7.1087  -15.7037 C   0  0  0  0  0  0  0  0  0  0  0  0
  -19.0316    7.8889  -17.0568 C   0  0  0  0  0  0  0  0  0  0  0  0
  -16.2369    4.8219  -11.4483 C   0  0  0  0  0  0  0  0  0  0  0  0
  -14.3839    4.0692  -10.1137 C   0  0  0  0  0  0  0  0  0  0  0  0
  -13.5618    5.0345  -10.7053 C   0  0  0  0  0  0  0  0  0  0  0  0
  -17.6954    7.5469  -16.9318 C   0  0  0  0  0  0  0  0  0  0  0  0
  -16.0769    6.5941  -13.0745 N   0  0  0  0  0  0  0  0  0  0  0  0
  -11.7607   -0.4163  -10.4493 N   0  0  0  0  0  0  0  0  0  0  0  0
  -19.5598    8.3471  -18.2782 O   0  0  0  0  0  0  0  0  0  0  0  0
  -21.0724    6.9771  -18.0839 H   0  0  0  0  0  0  0  0  0  0  0  0
  -21.1890    8.0833  -19.4943 H   0  0  0  0  0  0  0  0  0  0  0  0
  -19.9831    6.7520  -19.4943 H   0  0  0  0  0  0  0  0  0  0  0  0
  -20.9441    8.0191  -16.0680 H   0  0  0  0  0  0  0  0  0  0  0  0
  -20.0792    7.2410  -13.8765 H   0  0  0  0  0  0  0  0  0  0  0  0
  -18.0177    7.0888  -12.4632 H   0  0  0  0  0  0  0  0  0  0  0  0
  -17.7797    5.4248  -13.2092 H   0  0  0  0  0  0  0  0  0  0  0  0
  -16.3561    3.2150  -10.0488 H   0  0  0  0  0  0  0  0  0  0  0  0
  -14.7508    2.6845   -8.5529 H   0  0  0  0  0  0  0  0  0  0  0  0
  -13.1076    3.5760   -8.5510 H   0  0  0  0  0  0  0  0  0  0  0  0
  -12.0161    1.6772   -7.8163 H   0  0  0  0  0  0  0  0  0  0  0  0
  -10.7595   -0.3130   -8.6122 H   0  0  0  0  0  0  0  0  0  0  0  0
  -12.8493   -0.3190  -12.2431 H   0  0  0  0  0  0  0  0  0  0  0  0
  -14.1109    1.7318  -11.5908 H   0  0  0  0  0  0  0  0  0  0  0  0
  -13.4594    6.6343  -12.1715 H   0  0  0  0  0  0  0  0  0  0  0  0
  -16.1434    6.8498  -15.6013 H   0  0  0  0  0  0  0  0  0  0  0  0
  -17.2974    4.7384  -11.7283 H   0  0  0  0  0  0  0  0  0  0  0  0
  -12.5076    5.1277  -10.4051 H   0  0  0  0  0  0  0  0  0  0  0  0
  -17.0225    7.6212  -17.7989 H   0  0  0  0  0  0  0  0  0  0  0  0
  -15.5156    7.2284  -13.6606 H   0  0  0  0  0  0  0  0  0  0  0  0
  1 23  1  0
  2  3  2  0
  2 16  1  0
  3  4  1  0
  4  5  1  0
  4 15  2  0
  5 21  1  0
  6 14  2  0
  6 17  1  0
  6 21  1  0
  7 17  2  0
  7 18  1  0
  8  9  1  0
  8 18  1  0
  9 10  2  0
  9 13  1  0
 10 11  1  0
 11 22  2  0
 12 13  2  0
 12 22  1  0
 14 19  1  0
 15 20  1  0
 16 20  2  0
 16 23  1  0
 18 19  2  0
  1 24  1  0
  1 25  1  0
  1 26  1  0
  2 27  1  0
  3 28  1  0
  5 29  1  0
  5 30  1  0
  7 31  1  0
  8 32  1  0
  8 33  1  0
 10 34  1  0
 11 35  1  0
 12 36  1  0
 13 37  1  0
 14 38  1  0
 15 39  1  0
 17 40  1  0
 19 41  1  0
 20 42  1  0
 21 43  1  0
M  END
>  <filename_input>  (14) 
7P5T_5YG_docked.sdf

>  <pdb_id>  (14) 
7P5T_5YG

>  <pose_rank>  (14) 
13

>  <num_atoms_heavy>  (14) 
23

>  <num_torsions>  (14) 
6

>  <pose>  (14) 
[-15.44295497275115, 5.771476207153417, -12.045679049993662, -3.5398896785947684, 1.5030505772473821, 0.5449532967521569, -3.0347388044140313, -0.9059950760290698, 0.6198239613634968, -0.26610576424617643, -1.2006613642905295, 2.223077098919728]

>  <energy>  (14) 
-318.2008804418299

>  <inter_energy>  (14) 
-302.10114289627296

>  <intra_energy>  (14) 
1.3916712845143027

>  <rmsd>  (14) 
10.508

>  <sdf_rank>  (14) 
0

$$$$

     RDKit          3D

 43 45  0  0  0  0  0  0  0  0999 V2000
  -17.0236    7.0401  -16.1597 C   0  0  0  0  0  0  0  0  0  0  0  0
  -20.4093    7.2231  -15.7940 C   0  0  0  0  0  0  0  0  0  0  0  0
  -21.6022    7.1684  -16.4980 C   0  0  0  0  0  0  0  0  0  0  0  0
  -21.6627    7.6738  -17.7928 C   0  0  0  0  0  0  0  0  0  0  0  0
  -22.9833    7.6256  -18.5580 C   0  0  0  0  0  0  0  0  0  0  0  0
  -25.1155    8.8572  -19.1100 C   0  0  0  0  0  0  0  0  0  0  0  0
  -27.1494    7.7450  -19.6387 C   0  0  0  0  0  0  0  0  0  0  0  0
  -28.9817    8.7443  -20.9797 C   0  0  0  0  0  0  0  0  0  0  0  0
  -29.8494    7.5526  -20.6379 C   0  0  0  0  0  0  0  0  0  0  0  0
  -29.9181    6.5505  -21.5849 C   0  0  0  0  0  0  0  0  0  0  0  0
  -30.7152    5.4460  -21.3130 C   0  0  0  0  0  0  0  0  0  0  0  0
  -31.3300    6.2937  -19.2656 C   0  0  0  0  0  0  0  0  0  0  0  0
  -30.5757    7.4499  -19.4658 C   0  0  0  0  0  0  0  0  0  0  0  0
  -25.5267    9.9661  -19.8524 C   0  0  0  0  0  0  0  0  0  0  0  0
  -20.5183    8.2300  -18.3648 C   0  0  0  0  0  0  0  0  0  0  0  0
  -19.2663    7.7678  -16.3683 C   0  0  0  0  0  0  0  0  0  0  0  0
  -25.9315    7.7555  -19.0138 C   0  0  0  0  0  0  0  0  0  0  0  0
  -27.5851    8.8224  -20.3951 C   0  0  0  0  0  0  0  0  0  0  0  0
  -26.7651    9.9502  -20.5110 C   0  0  0  0  0  0  0  0  0  0  0  0
  -19.3237    8.2851  -17.6518 C   0  0  0  0  0  0  0  0  0  0  0  0
  -23.8553    8.7984  -18.3715 N   0  0  0  0  0  0  0  0  0  0  0  0
  -31.3889    5.3171  -20.1739 N   0  0  0  0  0  0  0  0  0  0  0  0
  -18.0746    7.7943  -15.6200 O   0  0  0  0  0  0  0  0  0  0  0  0
  -16.4242    6.6100  -15.3437 H   0  0  0  0  0  0  0  0  0  0  0  0
  -17.4345    6.2295  -16.7794 H   0  0  0  0  0  0  0  0  0  0  0  0
  -16.3872    7.6889  -16.7794 H   0  0  0  0  0  0  0  0  0  0  0  0
  -20.3665    6.8303  -14.7674 H   0  0  0  0  0  0  0  0  0  0  0  0
  -22.4971    6.7273  -16.0348 H   0  0  0  0  0  0  0  0  0  0  0  0
  -22.7533    7.5387  -19.6301 H   0  0  0  0  0  0  0  0  0  0  0  0
  -23.5382    6.7639  -18.1585 H   0  0  0  0  0  0  0  0  0  0  0  0
  -27.7973    6.8617  -19.5384 H   0  0  0  0  0  0  0  0  0  0  0  0
  -28.8754    8.7635  -22.0744 H   0  0  0  0  0  0  0  0  0  0  0  0
  -29.5084    9.5961  -20.5249 H   0  0  0  0  0  0  0  0  0  0  0  0
  -29.3573    6.6246  -22.5284 H   0  0  0  0  0  0  0  0  0  0  0  0
  -30.7920    4.6491  -22.0673 H   0  0  0  0  0  0  0  0  0  0  0  0
  -31.8951    6.1831  -18.3283 H   0  0  0  0  0  0  0  0  0  0  0  0
  -30.5593    8.2541  -18.7155 H   0  0  0  0  0  0  0  0  0  0  0  0
  -24.8792   10.8526  -19.9207 H   0  0  0  0  0  0  0  0  0  0  0  0
  -20.5601    8.6288  -19.3891 H   0  0  0  0  0  0  0  0  0  0  0  0
  -25.6052    6.8801  -18.4331 H   0  0  0  0  0  0  0  0  0  0  0  0
  -27.0876   10.8138  -21.1112 H   0  0  0  0  0  0  0  0  0  0  0  0
  -18.4297    8.7373  -18.1057 H   0  0  0  0  0  0  0  0  0  0  0  0
  -23.5829    9.5605  -17.7345 H   0  0  0  0  0  0  0  0  0  0  0  0
  1 23  1  0
  2  3  2  0
  2 16  1  0
  3  4  1  0
  4  5  1  0
  4 15  2  0
  5 21  1  0
  6 14  2  0
  6 17  1  0
  6 21  1  0
  7 17  2  0
  7 18  1  0
  8  9  1  0
  8 18  1  0
  9 10  2  0
  9 13  1  0
 10 11  1  0
 11 22  2  0
 12 13  2  0
 12 22  1  0
 14 19  1  0
 15 20  1  0
 16 20  2  0
 16 23  1  0
 18 19  2  0
  1 24  1  0
  1 25  1  0
  1 26  1  0
  2 27  1  0
  3 28  1  0
  5 29  1  0
  5 30  1  0
  7 31  1  0
  8 32  1  0
  8 33  1  0
 10 34  1  0
 11 35  1  0
 12 36  1  0
 13 37  1  0
 14 38  1  0
 15 39  1  0
 17 40  1  0
 19 41  1  0
 20 42  1  0
 21 43  1  0
M  END
>  <filename_input>  (15) 
7P5T_5YG_docked.sdf

>  <pdb_id>  (15) 
7P5T_5YG

>  <pose_rank>  (15) 
14

>  <num_atoms_heavy>  (15) 
23

>  <num_torsions>  (15) 
6

>  <pose>  (15) 
[-25.115520027483416, 8.857162371983373, -19.110041943872403, -0.03339987197864521, -0.3778274255218757, 2.569728850957471, 1.639233974986159, 1.001742013476784, 1.3604745917878707, -0.6506259700657495, -3.1216435321245575, -0.881119999260558]

>  <energy>  (15) 
-225.31237725490593

>  <inter_energy>  (15) 
-237.6814850303656

>  <intra_energy>  (15) 
5.152595812783644

>  <rmsd>  (15) 
10.5877

>  <sdf_rank>  (15) 
0

$$$$

     RDKit          3D

 43 45  0  0  0  0  0  0  0  0999 V2000
  -18.1505    7.9813  -14.1697 C   0  0  0  0  0  0  0  0  0  0  0  0
  -20.2976    7.3581  -15.7561 C   0  0  0  0  0  0  0  0  0  0  0  0
  -21.5044    7.2943  -16.4350 C   0  0  0  0  0  0  0  0  0  0  0  0
  -21.6475    7.9551  -17.6509 C   0  0  0  0  0  0  0  0  0  0  0  0
  -22.9842    7.8949  -18.3868 C   0  0  0  0  0  0  0  0  0  0  0  0
  -25.0019    9.2261  -19.1110 C   0  0  0  0  0  0  0  0  0  0  0  0
  -26.9977    8.1952  -19.8902 C   0  0  0  0  0  0  0  0  0  0  0  0
  -28.6648    9.3048  -21.3543 C   0  0  0  0  0  0  0  0  0  0  0  0
  -29.2220   10.6099  -21.8800 C   0  0  0  0  0  0  0  0  0  0  0  0
  -29.9268   10.5443  -23.0652 C   0  0  0  0  0  0  0  0  0  0  0  0
  -30.4426   11.7238  -23.5865 C   0  0  0  0  0  0  0  0  0  0  0  0
  -29.6049   12.9576  -21.8359 C   0  0  0  0  0  0  0  0  0  0  0  0
  -29.0299   11.8277  -21.2541 C   0  0  0  0  0  0  0  0  0  0  0  0
  -25.3124   10.3789  -19.8352 C   0  0  0  0  0  0  0  0  0  0  0  0
  -20.5708    8.6745  -18.1700 C   0  0  0  0  0  0  0  0  0  0  0  0
  -19.2214    8.0663  -16.2789 C   0  0  0  0  0  0  0  0  0  0  0  0
  -25.8479    8.1437  -19.1490 C   0  0  0  0  0  0  0  0  0  0  0  0
  -27.3318    9.3179  -20.6324 C   0  0  0  0  0  0  0  0  0  0  0  0
  -26.4793   10.4272  -20.6121 C   0  0  0  0  0  0  0  0  0  0  0  0
  -19.3621    8.7377  -17.4821 C   0  0  0  0  0  0  0  0  0  0  0  0
  -23.8230    9.0991  -18.2561 N   0  0  0  0  0  0  0  0  0  0  0  0
  -30.2977   12.8958  -22.9755 N   0  0  0  0  0  0  0  0  0  0  0  0
  -18.0120    8.0964  -15.5598 O   0  0  0  0  0  0  0  0  0  0  0  0
  -17.3958    8.6087  -13.6728 H   0  0  0  0  0  0  0  0  0  0  0  0
  -19.1563    8.3130  -13.8727 H   0  0  0  0  0  0  0  0  0  0  0  0
  -18.0079    6.9318  -13.8727 H   0  0  0  0  0  0  0  0  0  0  0  0
  -20.1898    6.8415  -14.7909 H   0  0  0  0  0  0  0  0  0  0  0  0
  -22.3453    6.7236  -16.0142 H   0  0  0  0  0  0  0  0  0  0  0  0
  -22.7781    7.7372  -19.4558 H   0  0  0  0  0  0  0  0  0  0  0  0
  -23.5521    7.0737  -17.9251 H   0  0  0  0  0  0  0  0  0  0  0  0
  -27.6719    7.3261  -19.8972 H   0  0  0  0  0  0  0  0  0  0  0  0
  -29.4076    8.8948  -20.6542 H   0  0  0  0  0  0  0  0  0  0  0  0
  -28.4702    8.7141  -22.2616 H   0  0  0  0  0  0  0  0  0  0  0  0
  -30.0756    9.5848  -23.5823 H   0  0  0  0  0  0  0  0  0  0  0  0
  -30.9909   11.6870  -24.5394 H   0  0  0  0  0  0  0  0  0  0  0  0
  -29.4836   13.9316  -21.3394 H   0  0  0  0  0  0  0  0  0  0  0  0
  -28.4424   11.9032  -20.3272 H   0  0  0  0  0  0  0  0  0  0  0  0
  -24.6415   11.2498  -19.7963 H   0  0  0  0  0  0  0  0  0  0  0  0
  -20.6780    9.1969  -19.1321 H   0  0  0  0  0  0  0  0  0  0  0  0
  -25.6006    7.2338  -18.5826 H   0  0  0  0  0  0  0  0  0  0  0  0
  -26.7211   11.3260  -21.1983 H   0  0  0  0  0  0  0  0  0  0  0  0
  -18.5226    9.3182  -17.8924 H   0  0  0  0  0  0  0  0  0  0  0  0
  -23.5838    9.8356  -17.5770 H   0  0  0  0  0  0  0  0  0  0  0  0
  1 23  1  0
  2  3  2  0
  2 16  1  0
  3  4  1  0
  4  5  1  0
  4 15  2  0
  5 21  1  0
  6 14  2  0
  6 17  1  0
  6 21  1  0
  7 17  2  0
  7 18  1  0
  8  9  1  0
  8 18  1  0
  9 10  2  0
  9 13  1  0
 10 11  1  0
 11 22  2  0
 12 13  2  0
 12 22  1  0
 14 19  1  0
 15 20  1  0
 16 20  2  0
 16 23  1  0
 18 19  2  0
  1 24  1  0
  1 25  1  0
  1 26  1  0
  2 27  1  0
  3 28  1  0
  5 29  1  0
  5 30  1  0
  7 31  1  0
  8 32  1  0
  8 33  1  0
 10 34  1  0
 11 35  1  0
 12 36  1  0
 13 37  1  0
 14 38  1  0
 15 39  1  0
 17 40  1  0
 19 41  1  0
 20 42  1  0
 21 43  1  0
M  END
>  <filename_input>  (16) 
7P5T_5YG_docked.sdf

>  <pdb_id>  (16) 
7P5T_5YG

>  <pose_rank>  (16) 
15

>  <num_atoms_heavy>  (16) 
23

>  <num_torsions>  (16) 
6

>  <pose>  (16) 
[-25.00192504376496, 9.226130653986361, -19.110989330676084, 0.21062605451091146, 0.6749681973861679, -3.6272416203118647, -1.8337477521399999, -1.007189762391743, 1.331016457993453, -0.7951095354410809, -2.9018540074834784, 2.852441691508052]

>  <energy>  (16) 
-162.59419012538513

>  <inter_energy>  (16) 
-187.3326320105796

>  <intra_energy>  (16) 
20.183080568816866

>  <rmsd>  (16) 
10.6531

>  <sdf_rank>  (16) 
0

$$$$

     RDKit          3D

 43 45  0  0  0  0  0  0  0  0999 V2000
  -11.9360   -5.9088  -13.3704 C   0  0  0  0  0  0  0  0  0  0  0  0
  -14.3955   -5.1569  -14.1434 C   0  0  0  0  0  0  0  0  0  0  0  0
  -15.7124   -4.9102  -14.4989 C   0  0  0  0  0  0  0  0  0  0  0  0
  -16.4645   -3.9960  -13.7680 C   0  0  0  0  0  0  0  0  0  0  0  0
  -17.9195   -3.7399  -14.1540 C   0  0  0  0  0  0  0  0  0  0  0  0
  -19.3066   -1.8159  -15.0154 C   0  0  0  0  0  0  0  0  0  0  0  0
  -20.3955   -0.1171  -13.7578 C   0  0  0  0  0  0  0  0  0  0  0  0
  -22.5280    0.9633  -14.4205 C   0  0  0  0  0  0  0  0  0  0  0  0
  -22.1136    2.4030  -14.2068 C   0  0  0  0  0  0  0  0  0  0  0  0
  -22.8108    3.1071  -13.2455 C   0  0  0  0  0  0  0  0  0  0  0  0
  -22.4680    4.4356  -13.0297 C   0  0  0  0  0  0  0  0  0  0  0  0
  -20.8237    4.3556  -14.6354 C   0  0  0  0  0  0  0  0  0  0  0  0
  -21.1180    3.0258  -14.9367 C   0  0  0  0  0  0  0  0  0  0  0  0
  -20.3471   -1.7962  -15.9465 C   0  0  0  0  0  0  0  0  0  0  0  0
  -15.8800   -3.3395  -12.6846 C   0  0  0  0  0  0  0  0  0  0  0  0
  -13.8102   -4.4946  -13.0702 C   0  0  0  0  0  0  0  0  0  0  0  0
  -19.3438   -0.9768  -13.9276 C   0  0  0  0  0  0  0  0  0  0  0  0
  -21.4526   -0.0792  -14.6545 C   0  0  0  0  0  0  0  0  0  0  0  0
  -21.4362   -0.9312  -15.7643 C   0  0  0  0  0  0  0  0  0  0  0  0
  -14.5579   -3.5936  -12.3302 C   0  0  0  0  0  0  0  0  0  0  0  0
  -18.1231   -2.6647  -15.1405 N   0  0  0  0  0  0  0  0  0  0  0  0
  -21.4875    5.0358  -13.6979 N   0  0  0  0  0  0  0  0  0  0  0  0
  -12.4674   -4.7694  -12.7506 O   0  0  0  0  0  0  0  0  0  0  0  0
  -11.6031   -6.6225  -12.6024 H   0  0  0  0  0  0  0  0  0  0  0  0
  -12.7078   -6.3787  -13.9977 H   0  0  0  0  0  0  0  0  0  0  0  0
  -11.0799   -5.6194  -13.9977 H   0  0  0  0  0  0  0  0  0  0  0  0
  -13.8057   -5.8864  -14.7179 H   0  0  0  0  0  0  0  0  0  0  0  0
  -16.1609   -5.4350  -15.3553 H   0  0  0  0  0  0  0  0  0  0  0  0
  -18.3298   -4.6701  -14.5739 H   0  0  0  0  0  0  0  0  0  0  0  0
  -18.4280   -3.4133  -13.2349 H   0  0  0  0  0  0  0  0  0  0  0  0
  -20.4021    0.5592  -12.8903 H   0  0  0  0  0  0  0  0  0  0  0  0
  -23.0904    0.6529  -13.5275 H   0  0  0  0  0  0  0  0  0  0  0  0
  -23.0876    0.9854  -15.3672 H   0  0  0  0  0  0  0  0  0  0  0  0
  -23.6151    2.6294  -12.6668 H   0  0  0  0  0  0  0  0  0  0  0  0
  -23.0281    5.0123  -12.2788 H   0  0  0  0  0  0  0  0  0  0  0  0
  -20.0181    4.8605  -15.1886 H   0  0  0  0  0  0  0  0  0  0  0  0
  -20.5754    2.4899  -15.7294 H   0  0  0  0  0  0  0  0  0  0  0  0
  -20.3126   -2.4594  -16.8234 H   0  0  0  0  0  0  0  0  0  0  0  0
  -16.4695   -2.6140  -12.1049 H   0  0  0  0  0  0  0  0  0  0  0  0
  -18.5266   -0.9961  -13.1916 H   0  0  0  0  0  0  0  0  0  0  0  0
  -22.2672   -0.9227  -16.4850 H   0  0  0  0  0  0  0  0  0  0  0  0
  -14.1091   -3.0813  -11.4664 H   0  0  0  0  0  0  0  0  0  0  0  0
  -17.4460   -2.5144  -15.9020 H   0  0  0  0  0  0  0  0  0  0  0  0
  1 23  1  0
  2  3  2  0
  2 16  1  0
  3  4  1  0
  4  5  1  0
  4 15  2  0
  5 21  1  0
  6 14  2  0
  6 17  1  0
  6 21  1  0
  7 17  2  0
  7 18  1  0
  8  9  1  0
  8 18  1  0
  9 10  2  0
  9 13  1  0
 10 11  1  0
 11 22  2  0
 12 13  2  0
 12 22  1  0
 14 19  1  0
 15 20  1  0
 16 20  2  0
 16 23  1  0
 18 19  2  0
  1 24  1  0
  1 25  1  0
  1 26  1  0
  2 27  1  0
  3 28  1  0
  5 29  1  0
  5 30  1  0
  7 31  1  0
  8 32  1  0
  8 33  1  0
 10 34  1  0
 11 35  1  0
 12 36  1  0
 13 37  1  0
 14 38  1  0
 15 39  1  0
 17 40  1  0
 19 41  1  0
 20 42  1  0
 21 43  1  0
M  END
>  <filename_input>  (17) 
7P5T_5YG_docked.sdf

>  <pdb_id>  (17) 
7P5T_5YG

>  <pose_rank>  (17) 
16

>  <num_atoms_heavy>  (17) 
23

>  <num_torsions>  (17) 
6

>  <pose>  (17) 
[-19.306614840589244, -1.815865269038137, -15.015421782949126, -0.9022619451255931, -3.2388059171441483, -2.5634232419755123, 2.4515907196308957, 0.2979733772656366, 1.651354589304692, 0.01708514788284774, 0.04208318177484126, 3.12321679664216]

>  <energy>  (17) 
-238.65198691952133

>  <inter_energy>  (17) 
-237.48351444025312

>  <intra_energy>  (17) 
4.0286014153900656

>  <rmsd>  (17) 
8.76278

>  <sdf_rank>  (17) 
0

$$$$

     RDKit          3D

 43 45  0  0  0  0  0  0  0  0999 V2000
  -21.8110    2.8330  -14.4977 C   0  0  0  0  0  0  0  0  0  0  0  0
  -23.7219    4.2610  -12.7849 C   0  0  0  0  0  0  0  0  0  0  0  0
  -24.1173    5.0545  -11.7193 C   0  0  0  0  0  0  0  0  0  0  0  0
  -23.9779    4.5817  -10.4183 C   0  0  0  0  0  0  0  0  0  0  0  0
  -24.4299    5.4534   -9.2488 C   0  0  0  0  0  0  0  0  0  0  0  0
  -24.6140    7.8618   -8.5183 C   0  0  0  0  0  0  0  0  0  0  0  0
  -25.4041    9.9555   -7.7150 C   0  0  0  0  0  0  0  0  0  0  0  0
  -24.8148   10.9179   -5.5058 C   0  0  0  0  0  0  0  0  0  0  0  0
  -23.7580   11.9963   -5.4046 C   0  0  0  0  0  0  0  0  0  0  0  0
  -22.6197   11.6764   -4.6919 C   0  0  0  0  0  0  0  0  0  0  0  0
  -21.6323   12.6450   -4.5656 C   0  0  0  0  0  0  0  0  0  0  0  0
  -22.8475   14.1587   -5.7987 C   0  0  0  0  0  0  0  0  0  0  0  0
  -23.9006   13.2571   -5.9539 C   0  0  0  0  0  0  0  0  0  0  0  0
  -23.8568    7.6996   -7.3563 C   0  0  0  0  0  0  0  0  0  0  0  0
  -23.4407    3.3119  -10.2052 C   0  0  0  0  0  0  0  0  0  0  0  0
  -23.1768    2.9999  -12.5716 C   0  0  0  0  0  0  0  0  0  0  0  0
  -25.3783    8.9915   -8.6866 C   0  0  0  0  0  0  0  0  0  0  0  0
  -24.6549    9.8348   -6.5543 C   0  0  0  0  0  0  0  0  0  0  0  0
  -23.8648    8.6951   -6.3682 C   0  0  0  0  0  0  0  0  0  0  0  0
  -23.0482    2.5181  -11.2795 C   0  0  0  0  0  0  0  0  0  0  0  0
  -24.6849    6.8649   -9.5851 N   0  0  0  0  0  0  0  0  0  0  0  0
  -21.7400   13.8484   -5.1208 N   0  0  0  0  0  0  0  0  0  0  0  0
  -22.7806    2.2324  -13.6828 O   0  0  0  0  0  0  0  0  0  0  0  0
  -21.0448    3.3075  -13.8670 H   0  0  0  0  0  0  0  0  0  0  0  0
  -21.3407    2.0678  -15.1328 H   0  0  0  0  0  0  0  0  0  0  0  0
  -22.2866    3.5949  -15.1328 H   0  0  0  0  0  0  0  0  0  0  0  0
  -23.8410    4.6340  -13.8128 H   0  0  0  0  0  0  0  0  0  0  0  0
  -24.5395    6.0537  -11.9015 H   0  0  0  0  0  0  0  0  0  0  0  0
  -25.3591    5.0260   -8.8440 H   0  0  0  0  0  0  0  0  0  0  0  0
  -23.5989    5.4550   -8.5280 H   0  0  0  0  0  0  0  0  0  0  0  0
  -26.0334   10.8463   -7.8583 H   0  0  0  0  0  0  0  0  0  0  0  0
  -24.8601   10.4168   -4.5276 H   0  0  0  0  0  0  0  0  0  0  0  0
  -25.7190   11.4603   -5.8193 H   0  0  0  0  0  0  0  0  0  0  0  0
  -22.4981   10.6823   -4.2369 H   0  0  0  0  0  0  0  0  0  0  0  0
  -20.7285   12.4080   -3.9852 H   0  0  0  0  0  0  0  0  0  0  0  0
  -22.9324   15.1583   -6.2499 H   0  0  0  0  0  0  0  0  0  0  0  0
  -24.8150   13.5401   -6.4958 H   0  0  0  0  0  0  0  0  0  0  0  0
  -23.2537    6.7905   -7.2158 H   0  0  0  0  0  0  0  0  0  0  0  0
  -23.3261    2.9343   -9.1784 H   0  0  0  0  0  0  0  0  0  0  0  0
  -25.9707    9.1215   -9.6043 H   0  0  0  0  0  0  0  0  0  0  0  0
  -23.2575    8.5813   -5.4582 H   0  0  0  0  0  0  0  0  0  0  0  0
  -22.6379    1.5129  -11.1028 H   0  0  0  0  0  0  0  0  0  0  0  0
  -24.9084    7.1434  -10.5513 H   0  0  0  0  0  0  0  0  0  0  0  0
  1 23  1  0
  2  3  2  0
  2 16  1  0
  3  4  1  0
  4  5  1  0
  4 15  2  0
  5 21  1  0
  6 14  2  0
  6 17  1  0
  6 21  1  0
  7 17  2  0
  7 18  1  0
  8  9  1  0
  8 18  1  0
  9 10  2  0
  9 13  1  0
 10 11  1  0
 11 22  2  0
 12 13  2  0
 12 22  1  0
 14 19  1  0
 15 20  1  0
 16 20  2  0
 16 23  1  0
 18 19  2  0
  1 24  1  0
  1 25  1  0
  1 26  1  0
  2 27  1  0
  3 28  1  0
  5 29  1  0
  5 30  1  0
  7 31  1  0
  8 32  1  0
  8 33  1  0
 10 34  1  0
 11 35  1  0
 12 36  1  0
 13 37  1  0
 14 38  1  0
 15 39  1  0
 17 40  1  0
 19 41  1  0
 20 42  1  0
 21 43  1  0
M  END
>  <filename_input>  (18) 
7P5T_5YG_docked.sdf

>  <pdb_id>  (18) 
7P5T_5YG

>  <pose_rank>  (18) 
17

>  <num_atoms_heavy>  (18) 
23

>  <num_torsions>  (18) 
6

>  <pose>  (18) 
[-24.614044669689047, 7.861785644896827, -8.51825802900399, -0.28046340646395507, 4.355197838130386, -0.695470410253152, -0.19328554320906838, 1.3130604671550128, -2.203255030634039, -0.20430200496808257, 1.3600667948855425, -1.8958071497161675]

>  <energy>  (18) 
-161.41057788362627

>  <inter_energy>  (18) 
-159.93061023965734

>  <intra_energy>  (18) 
0.7699812988390212

>  <rmsd>  (18) 
9.46986

>  <sdf_rank>  (18) 
0

$$$$

     RDKit          3D

 43 45  0  0  0  0  0  0  0  0999 V2000
  -29.7994   13.4026  -15.4717 C   0  0  0  0  0  0  0  0  0  0  0  0
  -30.9435   12.6107  -12.6648 C   0  0  0  0  0  0  0  0  0  0  0  0
  -30.8165   11.8957  -11.4841 C   0  0  0  0  0  0  0  0  0  0  0  0
  -30.5961   10.5228  -11.5294 C   0  0  0  0  0  0  0  0  0  0  0  0
  -30.4730    9.7374  -10.2256 C   0  0  0  0  0  0  0  0  0  0  0  0
  -28.3917   10.2488   -8.8935 C   0  0  0  0  0  0  0  0  0  0  0  0
  -26.7421    9.1424   -7.5867 C   0  0  0  0  0  0  0  0  0  0  0  0
  -24.3050    9.2352   -8.0409 C   0  0  0  0  0  0  0  0  0  0  0  0
  -23.6608    9.7122   -6.7573 C   0  0  0  0  0  0  0  0  0  0  0  0
  -23.0699   10.9594   -6.7928 C   0  0  0  0  0  0  0  0  0  0  0  0
  -22.4565   11.4264   -5.6375 C   0  0  0  0  0  0  0  0  0  0  0  0
  -23.0011    9.5153   -4.4800 C   0  0  0  0  0  0  0  0  0  0  0  0
  -23.6165    8.9566   -5.6002 C   0  0  0  0  0  0  0  0  0  0  0  0
  -27.3901   10.7957   -9.6983 C   0  0  0  0  0  0  0  0  0  0  0  0
  -30.5061    9.8844  -12.7665 C   0  0  0  0  0  0  0  0  0  0  0  0
  -30.8432   11.9758  -13.8976 C   0  0  0  0  0  0  0  0  0  0  0  0
  -28.0559    9.4292   -7.8427 C   0  0  0  0  0  0  0  0  0  0  0  0
  -25.7202    9.6779   -8.3561 C   0  0  0  0  0  0  0  0  0  0  0  0
  -26.0419   10.5205   -9.4258 C   0  0  0  0  0  0  0  0  0  0  0  0
  -30.6376   10.6071  -13.9492 C   0  0  0  0  0  0  0  0  0  0  0  0
  -29.8200   10.4611   -9.1208 N   0  0  0  0  0  0  0  0  0  0  0  0
  -22.4396   10.7262   -4.5072 N   0  0  0  0  0  0  0  0  0  0  0  0
  -30.9693   12.7428  -15.0709 O   0  0  0  0  0  0  0  0  0  0  0  0
  -29.2351   13.7209  -14.5827 H   0  0  0  0  0  0  0  0  0  0  0  0
  -29.1813   12.7201  -16.0734 H   0  0  0  0  0  0  0  0  0  0  0  0
  -30.0637   14.2847  -16.0734 H   0  0  0  0  0  0  0  0  0  0  0  0
  -31.1260   13.6948  -12.6259 H   0  0  0  0  0  0  0  0  0  0  0  0
  -30.8897   12.4117  -10.5153 H   0  0  0  0  0  0  0  0  0  0  0  0
  -31.4855    9.4579   -9.8989 H   0  0  0  0  0  0  0  0  0  0  0  0
  -29.8308    8.8724  -10.4478 H   0  0  0  0  0  0  0  0  0  0  0  0
  -26.4912    8.4719   -6.7515 H   0  0  0  0  0  0  0  0  0  0  0  0
  -23.6672    9.5772   -8.8692 H   0  0  0  0  0  0  0  0  0  0  0  0
  -24.3904    8.1467   -7.9071 H   0  0  0  0  0  0  0  0  0  0  0  0
  -23.0844   11.5662   -7.7101 H   0  0  0  0  0  0  0  0  0  0  0  0
  -21.9668   12.4111   -5.6583 H   0  0  0  0  0  0  0  0  0  0  0  0
  -22.9777    8.9392   -3.5432 H   0  0  0  0  0  0  0  0  0  0  0  0
  -24.0525    7.9473   -5.5642 H   0  0  0  0  0  0  0  0  0  0  0  0
  -27.6586   11.4427  -10.5464 H   0  0  0  0  0  0  0  0  0  0  0  0
  -30.3296    8.7994  -12.8080 H   0  0  0  0  0  0  0  0  0  0  0  0
  -28.8448    9.0026   -7.2057 H   0  0  0  0  0  0  0  0  0  0  0  0
  -25.2474   10.9616  -10.0456 H   0  0  0  0  0  0  0  0  0  0  0  0
  -30.5785   10.0935  -14.9201 H   0  0  0  0  0  0  0  0  0  0  0  0
  -30.3584   11.1028   -8.5214 H   0  0  0  0  0  0  0  0  0  0  0  0
  1 23  1  0
  2  3  2  0
  2 16  1  0
  3  4  1  0
  4  5  1  0
  4 15  2  0
  5 21  1  0
  6 14  2  0
  6 17  1  0
  6 21  1  0
  7 17  2  0
  7 18  1  0
  8  9  1  0
  8 18  1  0
  9 10  2  0
  9 13  1  0
 10 11  1  0
 11 22  2  0
 12 13  2  0
 12 22  1  0
 14 19  1  0
 15 20  1  0
 16 20  2  0
 16 23  1  0
 18 19  2  0
  1 24  1  0
  1 25  1  0
  1 26  1  0
  2 27  1  0
  3 28  1  0
  5 29  1  0
  5 30  1  0
  7 31  1  0
  8 32  1  0
  8 33  1  0
 10 34  1  0
 11 35  1  0
 12 36  1  0
 13 37  1  0
 14 38  1  0
 15 39  1  0
 17 40  1  0
 19 41  1  0
 20 42  1  0
 21 43  1  0
M  END
>  <filename_input>  (19) 
7P5T_5YG_docked.sdf

>  <pdb_id>  (19) 
7P5T_5YG

>  <pose_rank>  (19) 
18

>  <num_atoms_heavy>  (19) 
23

>  <num_torsions>  (19) 
6

>  <pose>  (19) 
[-28.391681936483234, 10.248843407530773, -8.893507625549764, -3.978610394377448, 0.15806092278488826, 1.9158941429606708, -5.94668078497327, 1.2797949689863928, 4.948869290188668, -17.993113602831855, 0.9977804178673718, -1.485522435671485]

>  <energy>  (19) 
-225.43018776680134

>  <inter_energy>  (19) 
-222.65312025382116

>  <intra_energy>  (19) 
0.5410705507320257

>  <rmsd>  (19) 
12.3071

>  <sdf_rank>  (19) 
0

$$$$

     RDKit          3D

 43 45  0  0  0  0  0  0  0  0999 V2000
  -18.6414    6.0978  -14.9814 C   0  0  0  0  0  0  0  0  0  0  0  0
  -19.9720    5.3262  -17.1852 C   0  0  0  0  0  0  0  0  0  0  0  0
  -20.7752    4.8757  -18.2212 C   0  0  0  0  0  0  0  0  0  0  0  0
  -21.4052    5.7942  -19.0550 C   0  0  0  0  0  0  0  0  0  0  0  0
  -22.3018    5.2928  -20.1849 C   0  0  0  0  0  0  0  0  0  0  0  0
  -24.5557    4.2343  -20.5945 C   0  0  0  0  0  0  0  0  0  0  0  0
  -26.7647    3.3698  -20.7556 C   0  0  0  0  0  0  0  0  0  0  0  0
  -28.3215    3.8514  -22.6260 C   0  0  0  0  0  0  0  0  0  0  0  0
  -29.2635    5.0342  -22.5658 C   0  0  0  0  0  0  0  0  0  0  0  0
  -29.8251    5.4342  -23.7619 C   0  0  0  0  0  0  0  0  0  0  0  0
  -30.6850    6.5248  -23.7492 C   0  0  0  0  0  0  0  0  0  0  0  0
  -30.4411    6.7922  -21.4782 C   0  0  0  0  0  0  0  0  0  0  0  0
  -29.5469    5.7243  -21.4017 C   0  0  0  0  0  0  0  0  0  0  0  0
  -24.7123    4.8698  -21.8279 C   0  0  0  0  0  0  0  0  0  0  0  0
  -21.2185    7.1591  -18.8349 C   0  0  0  0  0  0  0  0  0  0  0  0
  -19.7776    6.6863  -16.9728 C   0  0  0  0  0  0  0  0  0  0  0  0
  -25.5843    3.4873  -20.0723 C   0  0  0  0  0  0  0  0  0  0  0  0
  -26.9516    3.9757  -21.9889 C   0  0  0  0  0  0  0  0  0  0  0  0
  -25.9132    4.7343  -22.5402 C   0  0  0  0  0  0  0  0  0  0  0  0
  -20.4131    7.6057  -17.7908 C   0  0  0  0  0  0  0  0  0  0  0  0
  -23.3507    4.3432  -19.7741 N   0  0  0  0  0  0  0  0  0  0  0  0
  -30.9957    7.1739  -22.6311 N   0  0  0  0  0  0  0  0  0  0  0  0
  -18.9464    7.0983  -15.9145 O   0  0  0  0  0  0  0  0  0  0  0  0
  -18.7629    6.4964  -13.9634 H   0  0  0  0  0  0  0  0  0  0  0  0
  -19.3202    5.2440  -15.1242 H   0  0  0  0  0  0  0  0  0  0  0  0
  -17.6019    5.7677  -15.1242 H   0  0  0  0  0  0  0  0  0  0  0  0
  -19.4818    4.5978  -16.5225 H   0  0  0  0  0  0  0  0  0  0  0  0
  -20.9140    3.7966  -18.3835 H   0  0  0  0  0  0  0  0  0  0  0  0
  -22.7916    6.1643  -20.6438 H   0  0  0  0  0  0  0  0  0  0  0  0
  -21.6458    4.7449  -20.8772 H   0  0  0  0  0  0  0  0  0  0  0  0
  -27.5837    2.7814  -20.3163 H   0  0  0  0  0  0  0  0  0  0  0  0
  -28.8303    3.0077  -22.1368 H   0  0  0  0  0  0  0  0  0  0  0  0
  -28.1066    3.7369  -23.6987 H   0  0  0  0  0  0  0  0  0  0  0  0
  -29.5979    4.9040  -24.6985 H   0  0  0  0  0  0  0  0  0  0  0  0
  -31.1249    6.8640  -24.6987 H   0  0  0  0  0  0  0  0  0  0  0  0
  -30.6978    7.3378  -20.5582 H   0  0  0  0  0  0  0  0  0  0  0  0
  -29.0822    5.4404  -20.4460 H   0  0  0  0  0  0  0  0  0  0  0  0
  -23.8936    5.4771  -22.2413 H   0  0  0  0  0  0  0  0  0  0  0  0
  -21.7124    7.8894  -19.4926 H   0  0  0  0  0  0  0  0  0  0  0  0
  -25.4588    2.9826  -19.1030 H   0  0  0  0  0  0  0  0  0  0  0  0
  -26.0369    5.2184  -23.5202 H   0  0  0  0  0  0  0  0  0  0  0  0
  -20.2820    8.6839  -17.6164 H   0  0  0  0  0  0  0  0  0  0  0  0
  -23.2373    3.7683  -18.9270 H   0  0  0  0  0  0  0  0  0  0  0  0
  1 23  1  0
  2  3  2  0
  2 16  1  0
  3  4  1  0
  4  5  1  0
  4 15  2  0
  5 21  1  0
  6 14  2  0
  6 17  1  0
  6 21  1  0
  7 17  2  0
  7 18  1  0
  8  9  1  0
  8 18  1  0
  9 10  2  0
  9 13  1  0
 10 11  1  0
 11 22  2  0
 12 13  2  0
 12 22  1  0
 14 19  1  0
 15 20  1  0
 16 20  2  0
 16 23  1  0
 18 19  2  0
  1 24  1  0
  1 25  1  0
  1 26  1  0
  2 27  1  0
  3 28  1  0
  5 29  1  0
  5 30  1  0
  7 31  1  0
  8 32  1  0
  8 33  1  0
 10 34  1  0
 11 35  1  0
 12 36  1  0
 13 37  1  0
 14 38  1  0
 15 39  1  0
 17 40  1  0
 19 41  1  0
 20 42  1  0
 21 43  1  0
M  END
>  <filename_input>  (20) 
7P5T_5YG_docked.sdf

>  <pdb_id>  (20) 
7P5T_5YG

>  <pose_rank>  (20) 
19

>  <num_atoms_heavy>  (20) 
23

>  <num_torsions>  (20) 
6

>  <pose>  (20) 
[-24.55565155121973, 4.234341191622347, -20.59449456707806, 0.5334471099374513, -0.4205232581177963, -3.7813843084846193, -2.922968660574198, -1.2889784619476108, -2.5184292397289516, 5.238299044445183, -3.759762976104471, -3.1744041915288066]

>  <energy>  (20) 
-176.3445862973474

>  <inter_energy>  (20) 
-181.56451814928633

>  <intra_energy>  (20) 
0.2905138123062894

>  <rmsd>  (20) 
10.354

>  <sdf_rank>  (20) 
0

$$$$

     RDKit          3D

 43 45  0  0  0  0  0  0  0  0999 V2000
  -30.1163   11.9957   -9.9106 C   0  0  0  0  0  0  0  0  0  0  0  0
  -30.8222   11.0172  -12.3404 C   0  0  0  0  0  0  0  0  0  0  0  0
  -30.9796   10.3601  -13.5507 C   0  0  0  0  0  0  0  0  0  0  0  0
  -30.4489   10.9149  -14.7109 C   0  0  0  0  0  0  0  0  0  0  0  0
  -30.6390   10.1949  -16.0441 C   0  0  0  0  0  0  0  0  0  0  0  0
  -29.6853    8.4037  -17.5441 C   0  0  0  0  0  0  0  0  0  0  0  0
  -28.8470    6.5989  -18.8453 C   0  0  0  0  0  0  0  0  0  0  0  0
  -29.1643    6.3762  -21.2955 C   0  0  0  0  0  0  0  0  0  0  0  0
  -29.6439    4.9414  -21.3317 C   0  0  0  0  0  0  0  0  0  0  0  0
  -28.6672    3.9661  -21.3056 C   0  0  0  0  0  0  0  0  0  0  0  0
  -29.0678    2.6369  -21.3507 C   0  0  0  0  0  0  0  0  0  0  0  0
  -31.2892    3.2260  -21.4342 C   0  0  0  0  0  0  0  0  0  0  0  0
  -30.9771    4.5855  -21.4191 C   0  0  0  0  0  0  0  0  0  0  0  0
  -30.1959    9.0012  -18.6983 C   0  0  0  0  0  0  0  0  0  0  0  0
  -29.7642   12.1282  -14.6384 C   0  0  0  0  0  0  0  0  0  0  0  0
  -30.1306   12.2210  -12.2669 C   0  0  0  0  0  0  0  0  0  0  0  0
  -29.0125    7.2085  -17.6308 C   0  0  0  0  0  0  0  0  0  0  0  0
  -29.3286    7.1691  -20.0140 C   0  0  0  0  0  0  0  0  0  0  0  0
  -30.0099    8.3894  -19.9468 C   0  0  0  0  0  0  0  0  0  0  0  0
  -29.6119   12.7853  -13.4205 C   0  0  0  0  0  0  0  0  0  0  0  0
  -29.8556    8.9572  -16.2019 N   0  0  0  0  0  0  0  0  0  0  0  0
  -30.3479    2.2800  -21.3966 N   0  0  0  0  0  0  0  0  0  0  0  0
  -29.9871   12.8487  -11.0154 O   0  0  0  0  0  0  0  0  0  0  0  0
  -30.0277   12.5808   -8.9834 H   0  0  0  0  0  0  0  0  0  0  0  0
  -31.0993   11.5030   -9.9408 H   0  0  0  0  0  0  0  0  0  0  0  0
  -29.3232   11.2340   -9.9408 H   0  0  0  0  0  0  0  0  0  0  0  0
  -31.2500   10.5803  -11.4260 H   0  0  0  0  0  0  0  0  0  0  0  0
  -31.5219    9.4040  -13.5937 H   0  0  0  0  0  0  0  0  0  0  0  0
  -31.7042    9.9394  -16.1448 H   0  0  0  0  0  0  0  0  0  0  0  0
  -30.2799   10.8865  -16.8204 H   0  0  0  0  0  0  0  0  0  0  0  0
  -28.3199    5.6347  -18.8952 H   0  0  0  0  0  0  0  0  0  0  0  0
  -28.0902    6.3641  -21.5328 H   0  0  0  0  0  0  0  0  0  0  0  0
  -29.8176    6.8932  -22.0138 H   0  0  0  0  0  0  0  0  0  0  0  0
  -27.6018    4.2340  -21.2507 H   0  0  0  0  0  0  0  0  0  0  0  0
  -28.2982    1.8510  -21.3483 H   0  0  0  0  0  0  0  0  0  0  0  0
  -32.3458    2.9234  -21.4786 H   0  0  0  0  0  0  0  0  0  0  0  0
  -31.7663    5.3498  -21.4749 H   0  0  0  0  0  0  0  0  0  0  0  0
  -30.7444    9.9521  -18.6284 H   0  0  0  0  0  0  0  0  0  0  0  0
  -29.3406   12.5701  -15.5524 H   0  0  0  0  0  0  0  0  0  0  0  0
  -28.6059    6.7406  -16.7221 H   0  0  0  0  0  0  0  0  0  0  0  0
  -30.3949    8.8632  -20.8619 H   0  0  0  0  0  0  0  0  0  0  0  0
  -29.0820   13.7482  -13.3747 H   0  0  0  0  0  0  0  0  0  0  0  0
  -29.4368    8.4919  -15.3840 H   0  0  0  0  0  0  0  0  0  0  0  0
  1 23  1  0
  2  3  2  0
  2 16  1  0
  3  4  1  0
  4  5  1  0
  4 15  2  0
  5 21  1  0
  6 14  2  0
  6 17  1  0
  6 21  1  0
  7 17  2  0
  7 18  1  0
  8  9  1  0
  8 18  1  0
  9 10  2  0
  9 13  1  0
 10 11  1  0
 11 22  2  0
 12 13  2  0
 12 22  1  0
 14 19  1  0
 15 20  1  0
 16 20  2  0
 16 23  1  0
 18 19  2  0
  1 24  1  0
  1 25  1  0
  1 26  1  0
  2 27  1  0
  3 28  1  0
  5 29  1  0
  5 30  1  0
  7 31  1  0
  8 32  1  0
  8 33  1  0
 10 34  1  0
 11 35  1  0
 12 36  1  0
 13 37  1  0
 14 38  1  0
 15 39  1  0
 17 40  1  0
 19 41  1  0
 20 42  1  0
 21 43  1  0
M  END
>  <filename_input>  (21) 
7P5T_5YG_docked.sdf

>  <pdb_id>  (21) 
7P5T_5YG

>  <pose_rank>  (21) 
20

>  <num_atoms_heavy>  (21) 
23

>  <num_torsions>  (21) 
6

>  <pose>  (21) 
[-29.685327156165524, 8.403737112193173, -17.54411308114012, -1.2816201835312573, -1.032647069826353, 3.429671644649043, 2.475388987860675, 0.8938452290304191, -2.6162839581832875, -0.3222497621009292, 0.3588334820261438, -2.533766727563807]

>  <energy>  (21) 
-221.41532557987884

>  <inter_energy>  (21) 
-219.9306075896089

>  <intra_energy>  (21) 
1.105888750533404

>  <rmsd>  (21) 
11.9704

>  <sdf_rank>  (21) 
0

$$$$

     RDKit          3D

 43 45  0  0  0  0  0  0  0  0999 V2000
  -22.6841    1.5513  -12.5156 C   0  0  0  0  0  0  0  0  0  0  0  0
  -24.9869    0.8135   -9.8016 C   0  0  0  0  0  0  0  0  0  0  0  0
  -25.5988    1.4604   -8.7393 C   0  0  0  0  0  0  0  0  0  0  0  0
  -25.4711    2.8393   -8.6054 C   0  0  0  0  0  0  0  0  0  0  0  0
  -26.1338    3.5449   -7.4244 C   0  0  0  0  0  0  0  0  0  0  0  0
  -27.2533    5.7489   -6.9177 C   0  0  0  0  0  0  0  0  0  0  0  0
  -28.6961    6.9886   -5.4913 C   0  0  0  0  0  0  0  0  0  0  0  0
  -27.9883    8.9534   -4.1524 C   0  0  0  0  0  0  0  0  0  0  0  0
  -27.0859   10.1656   -4.0730 C   0  0  0  0  0  0  0  0  0  0  0  0
  -27.6174   11.3580   -4.5221 C   0  0  0  0  0  0  0  0  0  0  0  0
  -26.8149   12.4907   -4.4774 C   0  0  0  0  0  0  0  0  0  0  0  0
  -25.0583   11.3085   -3.5801 C   0  0  0  0  0  0  0  0  0  0  0  0
  -25.7830   10.1170   -3.6126 C   0  0  0  0  0  0  0  0  0  0  0  0
  -26.2039    6.6193   -6.6158 C   0  0  0  0  0  0  0  0  0  0  0  0
  -24.7264    3.5523   -9.5453 C   0  0  0  0  0  0  0  0  0  0  0  0
  -24.2537    1.5258  -10.7440 C   0  0  0  0  0  0  0  0  0  0  0  0
  -28.4910    5.9454   -6.3535 C   0  0  0  0  0  0  0  0  0  0  0  0
  -27.6815    7.8806   -5.1787 C   0  0  0  0  0  0  0  0  0  0  0  0
  -26.4164    7.7014   -5.7489 C   0  0  0  0  0  0  0  0  0  0  0  0
  -24.1114    2.8968  -10.6085 C   0  0  0  0  0  0  0  0  0  0  0  0
  -27.1141    4.5829   -7.7882 N   0  0  0  0  0  0  0  0  0  0  0  0
  -25.5734   12.4656   -4.0020 N   0  0  0  0  0  0  0  0  0  0  0  0
  -23.6572    0.8289  -11.8113 O   0  0  0  0  0  0  0  0  0  0  0  0
  -22.0112    2.0509  -11.8031 H   0  0  0  0  0  0  0  0  0  0  0  0
  -22.1034    0.8638  -13.1481 H   0  0  0  0  0  0  0  0  0  0  0  0
  -23.1741    2.3061  -13.1481 H   0  0  0  0  0  0  0  0  0  0  0  0
  -25.0827   -0.2779   -9.9003 H   0  0  0  0  0  0  0  0  0  0  0  0
  -26.1830    0.8860   -8.0053 H   0  0  0  0  0  0  0  0  0  0  0  0
  -26.6503    2.7851   -6.8194 H   0  0  0  0  0  0  0  0  0  0  0  0
  -25.3271    4.0608   -6.8831 H   0  0  0  0  0  0  0  0  0  0  0  0
  -29.6885    7.1224   -5.0360 H   0  0  0  0  0  0  0  0  0  0  0  0
  -27.9687    8.4705   -3.1642 H   0  0  0  0  0  0  0  0  0  0  0  0
  -28.9561    9.3631   -4.4770 H   0  0  0  0  0  0  0  0  0  0  0  0
  -28.6475   11.4095   -4.9045 H   0  0  0  0  0  0  0  0  0  0  0  0
  -27.2211   13.4431   -4.8488 H   0  0  0  0  0  0  0  0  0  0  0  0
  -24.0284   11.2941   -3.1940 H   0  0  0  0  0  0  0  0  0  0  0  0
  -25.3325    9.1693   -3.2827 H   0  0  0  0  0  0  0  0  0  0  0  0
  -25.2100    6.4562   -7.0580 H   0  0  0  0  0  0  0  0  0  0  0  0
  -24.6242    4.6430   -9.4454 H   0  0  0  0  0  0  0  0  0  0  0  0
  -29.3188    5.2626   -6.5955 H   0  0  0  0  0  0  0  0  0  0  0  0
  -25.5985    8.4005   -5.5202 H   0  0  0  0  0  0  0  0  0  0  0  0
  -23.5151    3.4651  -11.3375 H   0  0  0  0  0  0  0  0  0  0  0  0
  -27.6890    4.4889   -8.6376 H   0  0  0  0  0  0  0  0  0  0  0  0
  1 23  1  0
  2  3  2  0
  2 16  1  0
  3  4  1  0
  4  5  1  0
  4 15  2  0
  5 21  1  0
  6 14  2  0
  6 17  1  0
  6 21  1  0
  7 17  2  0
  7 18  1  0
  8  9  1  0
  8 18  1  0
  9 10  2  0
  9 13  1  0
 10 11  1  0
 11 22  2  0
 12 13  2  0
 12 22  1  0
 14 19  1  0
 15 20  1  0
 16 20  2  0
 16 23  1  0
 18 19  2  0
  1 24  1  0
  1 25  1  0
  1 26  1  0
  2 27  1  0
  3 28  1  0
  5 29  1  0
  5 30  1  0
  7 31  1  0
  8 32  1  0
  8 33  1  0
 10 34  1  0
 11 35  1  0
 12 36  1  0
 13 37  1  0
 14 38  1  0
 15 39  1  0
 17 40  1  0
 19 41  1  0
 20 42  1  0
 21 43  1  0
M  END
>  <filename_input>  (22) 
7P5T_5YG_docked.sdf

>  <pdb_id>  (22) 
7P5T_5YG

>  <pose_rank>  (22) 
21

>  <num_atoms_heavy>  (22) 
23

>  <num_torsions>  (22) 
6

>  <pose>  (22) 
[-27.253289651633374, 5.7489349293799314, -6.91765004881157, 0.7852673095804282, -0.9041542670146849, 0.8738832927682888, -1.263958095350882, -1.638964648704453, -1.6212897674553302, -0.03464238840945479, -0.5049170702124767, 0.47753846224254404]

>  <energy>  (22) 
-168.82800468058508

>  <inter_energy>  (22) 
-177.18682598318514

>  <intra_energy>  (22) 
7.9157303549823315

>  <rmsd>  (22) 
10.7364

>  <sdf_rank>  (22) 
0

$$$$

     RDKit          3D

 43 45  0  0  0  0  0  0  0  0999 V2000
  -29.8298   10.5304   -9.6702 C   0  0  0  0  0  0  0  0  0  0  0  0
  -26.4152   10.6147   -8.7950 C   0  0  0  0  0  0  0  0  0  0  0  0
  -25.4863    9.9330   -8.0244 C   0  0  0  0  0  0  0  0  0  0  0  0
  -25.9131    9.1812   -6.9343 C   0  0  0  0  0  0  0  0  0  0  0  0
  -24.8841    8.4451   -6.0792 C   0  0  0  0  0  0  0  0  0  0  0  0
  -23.1052   10.0765   -5.3432 C   0  0  0  0  0  0  0  0  0  0  0  0
  -22.0535   12.1956   -5.1046 C   0  0  0  0  0  0  0  0  0  0  0  0
  -19.7825   12.7320   -5.9466 C   0  0  0  0  0  0  0  0  0  0  0  0
  -18.4007   12.2661   -5.5422 C   0  0  0  0  0  0  0  0  0  0  0  0
  -18.2843   11.7049   -4.2863 C   0  0  0  0  0  0  0  0  0  0  0  0
  -17.0289   11.2771   -3.8740 C   0  0  0  0  0  0  0  0  0  0  0  0
  -16.0674   11.9263   -5.8596 C   0  0  0  0  0  0  0  0  0  0  0  0
  -17.2837   12.4067   -6.3450 C   0  0  0  0  0  0  0  0  0  0  0  0
  -22.0000    9.6061   -6.0552 C   0  0  0  0  0  0  0  0  0  0  0  0
  -27.2739    9.1248   -6.6322 C   0  0  0  0  0  0  0  0  0  0  0  0
  -27.7723   10.5496   -8.5000 C   0  0  0  0  0  0  0  0  0  0  0  0
  -23.1212   11.3695   -4.8776 C   0  0  0  0  0  0  0  0  0  0  0  0
  -20.9449   11.7672   -5.8191 C   0  0  0  0  0  0  0  0  0  0  0  0
  -20.9133   10.4564   -6.3075 C   0  0  0  0  0  0  0  0  0  0  0  0
  -28.2021    9.8141   -7.4079 C   0  0  0  0  0  0  0  0  0  0  0  0
  -24.2668    9.2530   -5.0129 N   0  0  0  0  0  0  0  0  0  0  0  0
  -15.9537   11.3717   -4.6505 N   0  0  0  0  0  0  0  0  0  0  0  0
  -28.6808   11.2504   -9.3150 O   0  0  0  0  0  0  0  0  0  0  0  0
  -30.3530   10.2025   -8.7598 H   0  0  0  0  0  0  0  0  0  0  0  0
  -30.4960   11.1729  -10.2647 H   0  0  0  0  0  0  0  0  0  0  0  0
  -29.5421    9.6508  -10.2647 H   0  0  0  0  0  0  0  0  0  0  0  0
  -26.0742   11.2150   -9.6513 H   0  0  0  0  0  0  0  0  0  0  0  0
  -24.4163    9.9862   -8.2737 H   0  0  0  0  0  0  0  0  0  0  0  0
  -25.3836    7.5849   -5.6096 H   0  0  0  0  0  0  0  0  0  0  0  0
  -24.0680    8.1593   -6.7591 H   0  0  0  0  0  0  0  0  0  0  0  0
  -22.0755   13.2227   -4.7114 H   0  0  0  0  0  0  0  0  0  0  0  0
  -20.0216   13.6097   -5.3282 H   0  0  0  0  0  0  0  0  0  0  0  0
  -19.6984   12.9054   -7.0296 H   0  0  0  0  0  0  0  0  0  0  0  0
  -19.1612   11.5994   -3.6306 H   0  0  0  0  0  0  0  0  0  0  0  0
  -16.9202   10.8444   -2.8685 H   0  0  0  0  0  0  0  0  0  0  0  0
  -15.1724   12.0071   -6.4940 H   0  0  0  0  0  0  0  0  0  0  0  0
  -17.3521   12.8822   -7.3346 H   0  0  0  0  0  0  0  0  0  0  0  0
  -21.9815    8.5680   -6.4185 H   0  0  0  0  0  0  0  0  0  0  0  0
  -27.6169    8.5299   -5.7729 H   0  0  0  0  0  0  0  0  0  0  0  0
  -23.9941   11.7415   -4.3211 H   0  0  0  0  0  0  0  0  0  0  0  0
  -20.0469   10.0972   -6.8823 H   0  0  0  0  0  0  0  0  0  0  0  0
  -29.2718    9.7748   -7.1546 H   0  0  0  0  0  0  0  0  0  0  0  0
  -24.6457    9.2378   -4.0552 H   0  0  0  0  0  0  0  0  0  0  0  0
  1 23  1  0
  2  3  2  0
  2 16  1  0
  3  4  1  0
  4  5  1  0
  4 15  2  0
  5 21  1  0
  6 14  2  0
  6 17  1  0
  6 21  1  0
  7 17  2  0
  7 18  1  0
  8  9  1  0
  8 18  1  0
  9 10  2  0
  9 13  1  0
 10 11  1  0
 11 22  2  0
 12 13  2  0
 12 22  1  0
 14 19  1  0
 15 20  1  0
 16 20  2  0
 16 23  1  0
 18 19  2  0
  1 24  1  0
  1 25  1  0
  1 26  1  0
  2 27  1  0
  3 28  1  0
  5 29  1  0
  5 30  1  0
  7 31  1  0
  8 32  1  0
  8 33  1  0
 10 34  1  0
 11 35  1  0
 12 36  1  0
 13 37  1  0
 14 38  1  0
 15 39  1  0
 17 40  1  0
 19 41  1  0
 20 42  1  0
 21 43  1  0
M  END
>  <filename_input>  (23) 
7P5T_5YG_docked.sdf

>  <pdb_id>  (23) 
7P5T_5YG

>  <pose_rank>  (23) 
22

>  <num_atoms_heavy>  (23) 
23

>  <num_torsions>  (23) 
6

>  <pose>  (23) 
[-23.105152631478663, 10.076547325644501, -5.343180868045352, 0.1707046045928739, 5.993533301751298, -0.6933247281137851, -2.499209848543154, -4.444237134740906, 2.796105793884695, 1.043719141528593, -3.191316432755617, -0.5582169506719687]

>  <energy>  (23) 
-184.6166908555219

>  <inter_energy>  (23) 
-179.16059462885323

>  <intra_energy>  (23) 
3.3142393888418367

>  <rmsd>  (23) 
11.5864

>  <sdf_rank>  (23) 
0

$$$$

     RDKit          3D

 43 45  0  0  0  0  0  0  0  0999 V2000
  -14.3601    9.8380   -4.3028 C   0  0  0  0  0  0  0  0  0  0  0  0
  -13.0075    7.5556   -5.5727 C   0  0  0  0  0  0  0  0  0  0  0  0
  -12.8817    6.4649   -6.4190 C   0  0  0  0  0  0  0  0  0  0  0  0
  -12.9185    6.6531   -7.7969 C   0  0  0  0  0  0  0  0  0  0  0  0
  -12.7956    5.4463   -8.7244 C   0  0  0  0  0  0  0  0  0  0  0  0
  -13.2340    2.9802   -8.4178 C   0  0  0  0  0  0  0  0  0  0  0  0
  -13.4120    0.8309   -7.4168 C   0  0  0  0  0  0  0  0  0  0  0  0
  -12.1384   -1.1655   -8.1560 C   0  0  0  0  0  0  0  0  0  0  0  0
  -13.0549   -2.1445   -8.8573 C   0  0  0  0  0  0  0  0  0  0  0  0
  -13.4653   -3.2378   -8.1210 C   0  0  0  0  0  0  0  0  0  0  0  0
  -14.2967   -4.1658   -8.7347 C   0  0  0  0  0  0  0  0  0  0  0  0
  -14.3115   -2.9720  -10.7002 C   0  0  0  0  0  0  0  0  0  0  0  0
  -13.4558   -2.0046  -10.1732 C   0  0  0  0  0  0  0  0  0  0  0  0
  -12.2589    2.4946   -9.2915 C   0  0  0  0  0  0  0  0  0  0  0  0
  -13.0823    7.9409   -8.3078 C   0  0  0  0  0  0  0  0  0  0  0  0
  -13.1600    8.8401   -6.0824 C   0  0  0  0  0  0  0  0  0  0  0  0
  -13.7986    2.1422   -7.4862 C   0  0  0  0  0  0  0  0  0  0  0  0
  -12.4375    0.3171   -8.2590 C   0  0  0  0  0  0  0  0  0  0  0  0
  -11.8457    1.1566   -9.2091 C   0  0  0  0  0  0  0  0  0  0  0  0
  -13.2113    9.0323   -7.4531 C   0  0  0  0  0  0  0  0  0  0  0  0
  -13.7418    4.3505   -8.4510 N   0  0  0  0  0  0  0  0  0  0  0  0
  -14.7204   -4.0239   -9.9871 N   0  0  0  0  0  0  0  0  0  0  0  0
  -13.2748    9.9191   -5.1862 O   0  0  0  0  0  0  0  0  0  0  0  0
  -13.9922    9.8655   -3.2665 H   0  0  0  0  0  0  0  0  0  0  0  0
  -15.0369   10.6881   -4.4744 H   0  0  0  0  0  0  0  0  0  0  0  0
  -14.9029    8.8968   -4.4744 H   0  0  0  0  0  0  0  0  0  0  0  0
  -12.9863    7.4028   -4.4836 H   0  0  0  0  0  0  0  0  0  0  0  0
  -12.7533    5.4548   -6.0027 H   0  0  0  0  0  0  0  0  0  0  0  0
  -12.9614    5.7906   -9.7559 H   0  0  0  0  0  0  0  0  0  0  0  0
  -11.7902    5.0323   -8.5578 H   0  0  0  0  0  0  0  0  0  0  0  0
  -13.8853    0.1696   -6.6761 H   0  0  0  0  0  0  0  0  0  0  0  0
  -12.1472   -1.4236   -7.0868 H   0  0  0  0  0  0  0  0  0  0  0  0
  -11.1772   -1.2799   -8.6785 H   0  0  0  0  0  0  0  0  0  0  0  0
  -13.1430   -3.3702   -7.0777 H   0  0  0  0  0  0  0  0  0  0  0  0
  -14.6163   -5.0502   -8.1640 H   0  0  0  0  0  0  0  0  0  0  0  0
  -14.6609   -2.8645  -11.7377 H   0  0  0  0  0  0  0  0  0  0  0  0
  -13.1111   -1.1577  -10.7847 H   0  0  0  0  0  0  0  0  0  0  0  0
  -11.8146    3.1617  -10.0448 H   0  0  0  0  0  0  0  0  0  0  0  0
  -13.1097    8.0956   -9.3965 H   0  0  0  0  0  0  0  0  0  0  0  0
  -14.5630    2.5263   -6.7947 H   0  0  0  0  0  0  0  0  0  0  0  0
  -11.0660    0.7722   -9.8831 H   0  0  0  0  0  0  0  0  0  0  0  0
  -13.3533   10.0425   -7.8644 H   0  0  0  0  0  0  0  0  0  0  0  0
  -14.7396    4.5459   -8.2866 H   0  0  0  0  0  0  0  0  0  0  0  0
  1 23  1  0
  2  3  2  0
  2 16  1  0
  3  4  1  0
  4  5  1  0
  4 15  2  0
  5 21  1  0
  6 14  2  0
  6 17  1  0
  6 21  1  0
  7 17  2  0
  7 18  1  0
  8  9  1  0
  8 18  1  0
  9 10  2  0
  9 13  1  0
 10 11  1  0
 11 22  2  0
 12 13  2  0
 12 22  1  0
 14 19  1  0
 15 20  1  0
 16 20  2  0
 16 23  1  0
 18 19  2  0
  1 24  1  0
  1 25  1  0
  1 26  1  0
  2 27  1  0
  3 28  1  0
  5 29  1  0
  5 30  1  0
  7 31  1  0
  8 32  1  0
  8 33  1  0
 10 34  1  0
 11 35  1  0
 12 36  1  0
 13 37  1  0
 14 38  1  0
 15 39  1  0
 17 40  1  0
 19 41  1  0
 20 42  1  0
 21 43  1  0
M  END
>  <filename_input>  (24) 
7P5T_5YG_docked.sdf

>  <pdb_id>  (24) 
7P5T_5YG

>  <pose_rank>  (24) 
23

>  <num_atoms_heavy>  (24) 
23

>  <num_torsions>  (24) 
6

>  <pose>  (24) 
[-13.233951813328506, 2.9801601733875795, -8.41781991071548, 1.6956114583189035, -0.9283447128826028, -1.6694044400289183, 2.9793842609492094, 0.4177124229081058, -3.3201170419058186, 0.19404006961629325, -3.7552852839384196, 2.3200158166863027]

>  <energy>  (24) 
-213.46585394924864

>  <inter_energy>  (24) 
-212.11344279303827

>  <intra_energy>  (24) 
0.45892832136621553

>  <rmsd>  (24) 
13.4217

>  <sdf_rank>  (24) 
0

$$$$

     RDKit          3D

 43 45  0  0  0  0  0  0  0  0999 V2000
  -24.3790    1.5860   -9.7234 C   0  0  0  0  0  0  0  0  0  0  0  0
  -22.4679   -0.4542  -10.5575 C   0  0  0  0  0  0  0  0  0  0  0  0
  -22.0174   -1.5706  -11.2446 C   0  0  0  0  0  0  0  0  0  0  0  0
  -22.5158   -2.8282  -10.9196 C   0  0  0  0  0  0  0  0  0  0  0  0
  -22.0042   -4.0566  -11.6688 C   0  0  0  0  0  0  0  0  0  0  0  0
  -20.1509   -5.1794  -10.3755 C   0  0  0  0  0  0  0  0  0  0  0  0
  -17.9784   -4.2595  -10.6705 C   0  0  0  0  0  0  0  0  0  0  0  0
  -16.0230   -4.8071   -9.2455 C   0  0  0  0  0  0  0  0  0  0  0  0
  -15.6609   -4.7559   -7.7771 C   0  0  0  0  0  0  0  0  0  0  0  0
  -14.9802   -5.8464   -7.2735 C   0  0  0  0  0  0  0  0  0  0  0  0
  -14.6419   -5.8421   -5.9265 C   0  0  0  0  0  0  0  0  0  0  0  0
  -15.6011   -3.7762   -5.6099 C   0  0  0  0  0  0  0  0  0  0  0  0
  -16.0036   -3.7072   -6.9437 C   0  0  0  0  0  0  0  0  0  0  0  0
  -19.6794   -5.9585   -9.3170 C   0  0  0  0  0  0  0  0  0  0  0  0
  -23.4644   -2.9470   -9.9036 C   0  0  0  0  0  0  0  0  0  0  0  0
  -23.4211   -0.5718   -9.5522 C   0  0  0  0  0  0  0  0  0  0  0  0
  -19.2930   -4.3393  -11.0440 C   0  0  0  0  0  0  0  0  0  0  0  0
  -17.4718   -5.0278   -9.6332 C   0  0  0  0  0  0  0  0  0  0  0  0
  -18.3283   -5.8946   -8.9455 C   0  0  0  0  0  0  0  0  0  0  0  0
  -23.9109   -1.8226   -9.2147 C   0  0  0  0  0  0  0  0  0  0  0  0
  -21.5461   -5.1639  -10.8116 N   0  0  0  0  0  0  0  0  0  0  0  0
  -14.9319   -4.8235   -5.1225 N   0  0  0  0  0  0  0  0  0  0  0  0
  -23.8564    0.5897   -8.8873 O   0  0  0  0  0  0  0  0  0  0  0  0
  -24.8031    2.3944   -9.1097 H   0  0  0  0  0  0  0  0  0  0  0  0
  -23.5767    1.9899  -10.3583 H   0  0  0  0  0  0  0  0  0  0  0  0
  -25.1674    1.1555  -10.3583 H   0  0  0  0  0  0  0  0  0  0  0  0
  -22.0659    0.5379  -10.8109 H   0  0  0  0  0  0  0  0  0  0  0  0
  -21.2689   -1.4627  -12.0435 H   0  0  0  0  0  0  0  0  0  0  0  0
  -22.8194   -4.4323  -12.3046 H   0  0  0  0  0  0  0  0  0  0  0  0
  -21.1234   -3.7243  -12.2378 H   0  0  0  0  0  0  0  0  0  0  0  0
  -17.3086   -3.5703  -11.2056 H   0  0  0  0  0  0  0  0  0  0  0  0
  -15.7120   -3.8496   -9.6887 H   0  0  0  0  0  0  0  0  0  0  0  0
  -15.5088   -5.7065   -9.6151 H   0  0  0  0  0  0  0  0  0  0  0  0
  -14.7134   -6.6947   -7.9209 H   0  0  0  0  0  0  0  0  0  0  0  0
  -14.1150   -6.7131   -5.5096 H   0  0  0  0  0  0  0  0  0  0  0  0
  -15.8432   -2.9400   -4.9374 H   0  0  0  0  0  0  0  0  0  0  0  0
  -16.5751   -2.8461   -7.3204 H   0  0  0  0  0  0  0  0  0  0  0  0
  -20.3679   -6.6229   -8.7742 H   0  0  0  0  0  0  0  0  0  0  0  0
  -23.8635   -3.9387   -9.6443 H   0  0  0  0  0  0  0  0  0  0  0  0
  -19.6635   -3.7294  -11.8811 H   0  0  0  0  0  0  0  0  0  0  0  0
  -17.9468   -6.5182   -8.1235 H   0  0  0  0  0  0  0  0  0  0  0  0
  -24.6493   -1.9271   -8.4061 H   0  0  0  0  0  0  0  0  0  0  0  0
  -22.1950   -5.9110  -10.5258 H   0  0  0  0  0  0  0  0  0  0  0  0
  1 23  1  0
  2  3  2  0
  2 16  1  0
  3  4  1  0
  4  5  1  0
  4 15  2  0
  5 21  1  0
  6 14  2  0
  6 17  1  0
  6 21  1  0
  7 17  2  0
  7 18  1  0
  8  9  1  0
  8 18  1  0
  9 10  2  0
  9 13  1  0
 10 11  1  0
 11 22  2  0
 12 13  2  0
 12 22  1  0
 14 19  1  0
 15 20  1  0
 16 20  2  0
 16 23  1  0
 18 19  2  0
  1 24  1  0
  1 25  1  0
  1 26  1  0
  2 27  1  0
  3 28  1  0
  5 29  1  0
  5 30  1  0
  7 31  1  0
  8 32  1  0
  8 33  1  0
 10 34  1  0
 11 35  1  0
 12 36  1  0
 13 37  1  0
 14 38  1  0
 15 39  1  0
 17 40  1  0
 19 41  1  0
 20 42  1  0
 21 43  1  0
M  END
>  <filename_input>  (25) 
7P5T_5YG_docked.sdf

>  <pdb_id>  (25) 
7P5T_5YG

>  <pose_rank>  (25) 
24

>  <num_atoms_heavy>  (25) 
23

>  <num_torsions>  (25) 
6

>  <pose>  (25) 
[-20.150937634067176, -5.1794245906626575, -10.375527567330408, 3.463217260695718, 2.8034085510096336, 1.1062128928301616, 3.96974628835036, -1.6649440150405321, 0.20454267853379493, 0.987693729790332, 3.8553067263292418, -1.9393053627938446]

>  <energy>  (25) 
-212.77819329001946

>  <inter_energy>  (25) 
-206.877868467007

>  <intra_energy>  (25) 
1.834785514555431

>  <rmsd>  (25) 
11.516

>  <sdf_rank>  (25) 
0

$$$$

     RDKit          3D

 43 45  0  0  0  0  0  0  0  0999 V2000
  -24.0770   -1.9270   -8.5410 C   0  0  0  0  0  0  0  0  0  0  0  0
  -25.5990    0.6640  -10.5940 C   0  0  0  0  0  0  0  0  0  0  0  0
  -25.2130    1.7400  -11.3780 C   0  0  0  0  0  0  0  0  0  0  0  0
  -23.8800    2.1380  -11.3950 C   0  0  0  0  0  0  0  0  0  0  0  0
  -23.4630    3.3340  -12.2480 C   0  0  0  0  0  0  0  0  0  0  0  0
  -21.9490    3.7970  -14.2130 C   0  0  0  0  0  0  0  0  0  0  0  0
  -20.8100    5.8840  -14.2300 C   0  0  0  0  0  0  0  0  0  0  0  0
  -18.7970    6.3670  -15.5970 C   0  0  0  0  0  0  0  0  0  0  0  0
  -19.0250    7.3310  -16.7410 C   0  0  0  0  0  0  0  0  0  0  0  0
  -17.8970    7.7960  -17.3870 C   0  0  0  0  0  0  0  0  0  0  0  0
  -18.0650    8.6930  -18.4340 C   0  0  0  0  0  0  0  0  0  0  0  0
  -20.3530    8.6540  -18.2060 C   0  0  0  0  0  0  0  0  0  0  0  0
  -20.2770    7.7720  -17.1280 C   0  0  0  0  0  0  0  0  0  0  0  0
  -21.0640    3.3040  -15.1740 C   0  0  0  0  0  0  0  0  0  0  0  0
  -22.9490    1.4460  -10.6200 C   0  0  0  0  0  0  0  0  0  0  0  0
  -24.6690   -0.0320   -9.8300 C   0  0  0  0  0  0  0  0  0  0  0  0
  -21.8140    5.0850  -13.7530 C   0  0  0  0  0  0  0  0  0  0  0  0
  -19.9210    5.4330  -15.1940 C   0  0  0  0  0  0  0  0  0  0  0  0
  -20.0470    4.1270  -15.6800 C   0  0  0  0  0  0  0  0  0  0  0  0
  -23.3430    0.3680   -9.8320 C   0  0  0  0  0  0  0  0  0  0  0  0
  -23.0190    3.0020  -13.6130 N   0  0  0  0  0  0  0  0  0  0  0  0
  -19.2650    9.0960  -18.8410 N   0  0  0  0  0  0  0  0  0  0  0  0
  -25.1040   -1.1240   -9.0560 O   0  0  0  0  0  0  0  0  0  0  0  0
  -24.1085   -1.9024   -7.4417 H   0  0  0  0  0  0  0  0  0  0  0  0
  -24.2115   -2.9620   -8.8886 H   0  0  0  0  0  0  0  0  0  0  0  0
  -23.1050   -1.5469   -8.8886 H   0  0  0  0  0  0  0  0  0  0  0  0
  -26.6551    0.3567  -10.5761 H   0  0  0  0  0  0  0  0  0  0  0  0
  -25.9575    2.2769  -11.9842 H   0  0  0  0  0  0  0  0  0  0  0  0
  -24.3239    4.0143  -12.3254 H   0  0  0  0  0  0  0  0  0  0  0  0
  -22.5947    3.7830  -11.7435 H   0  0  0  0  0  0  0  0  0  0  0  0
  -20.7060    6.9072  -13.8397 H   0  0  0  0  0  0  0  0  0  0  0  0
  -17.9367    5.7384  -15.8705 H   0  0  0  0  0  0  0  0  0  0  0  0
  -18.6666    7.0196  -14.7212 H   0  0  0  0  0  0  0  0  0  0  0  0
  -16.8934    7.4654  -17.0811 H   0  0  0  0  0  0  0  0  0  0  0  0
  -17.1730    9.0842  -18.9451 H   0  0  0  0  0  0  0  0  0  0  0  0
  -21.3421    8.9967  -18.5441 H   0  0  0  0  0  0  0  0  0  0  0  0
  -21.1839    7.4381  -16.6027 H   0  0  0  0  0  0  0  0  0  0  0  0
  -21.1644    2.2696  -15.5345 H   0  0  0  0  0  0  0  0  0  0  0  0
  -21.8934    1.7551  -10.6316 H   0  0  0  0  0  0  0  0  0  0  0  0
  -22.5144    5.4748  -12.9997 H   0  0  0  0  0  0  0  0  0  0  0  0
  -19.3570    3.7503  -16.4494 H   0  0  0  0  0  0  0  0  0  0  0  0
  -22.6046   -0.1636   -9.2138 H   0  0  0  0  0  0  0  0  0  0  0  0
  -23.4532    2.2264  -14.1334 H   0  0  0  0  0  0  0  0  0  0  0  0
  1 23  1  0
  2  3  2  0
  2 16  1  0
  3  4  1  0
  4  5  1  0
  4 15  2  0
  5 21  1  0
  6 14  2  0
  6 17  1  0
  6 21  1  0
  7 17  2  0
  7 18  1  0
  8  9  1  0
  8 18  1  0
  9 10  2  0
  9 13  1  0
 10 11  1  0
 11 22  2  0
 12 13  2  0
 12 22  1  0
 14 19  1  0
 15 20  1  0
 16 20  2  0
 16 23  1  0
 18 19  2  0
  1 24  1  0
  1 25  1  0
  1 26  1  0
  2 27  1  0
  3 28  1  0
  5 29  1  0
  5 30  1  0
  7 31  1  0
  8 32  1  0
  8 33  1  0
 10 34  1  0
 11 35  1  0
 12 36  1  0
 13 37  1  0
 14 38  1  0
 15 39  1  0
 17 40  1  0
 19 41  1  0
 20 42  1  0
 21 43  1  0
M  END
>  <filename_input>  (26) 
7P5T_5YG_docked.sdf

>  <pdb_id>  (26) 
7P5T_5YG

>  <pose_rank>  (26) 
25

>  <num_atoms_heavy>  (26) 
23

>  <num_torsions>  (26) 
6

>  <pose>  (26) 
[-21.949, 3.797, -14.213, 1e-06, 1e-06, 1e-06, 0.0, 0.0, 0.0, 0.0, 0.0, 0.0]

>  <energy>  (26) 
-901.3035165612878

>  <inter_energy>  (26) 
-891.5770018697673

>  <intra_energy>  (26) 
2.707625000307094

>  <rmsd>  (26) 
0.0

>  <sdf_rank>  (26) 
0

$$$$
