
     RDKit          3D

 50 52  0  0  0  0  0  0  0  0999 V2000
  -20.6579    0.9268   -5.7912 N   0  0  0  0  0  0  0  0  0  0  0  0
  -20.9695   -0.2398   -5.2368 C   0  0  0  0  0  0  0  0  0  0  0  0
  -22.1777   -0.5709   -5.0365 O   0  0  0  0  0  0  0  0  0  0  0  0
  -19.9756   -1.0980   -4.8081 N   0  0  0  0  0  0  0  0  0  0  0  0
  -18.6391   -0.8909   -4.9795 C   0  0  0  0  0  0  0  0  0  0  0  0
  -17.8197   -1.6987   -4.5163 O   0  0  0  0  0  0  0  0  0  0  0  0
  -18.2788    0.3297   -5.6387 C   0  0  0  0  0  0  0  0  0  0  0  0
  -16.9887    0.5941   -5.8620 N   0  0  0  0  0  0  0  0  0  0  0  0
  -16.6808    1.8140   -6.3921 C   0  0  0  0  0  0  0  0  0  0  0  0
  -15.3313    2.1690   -6.5832 C   0  0  0  0  0  0  0  0  0  0  0  0
  -14.9648    3.3835   -7.0731 C   0  0  0  0  0  0  0  0  0  0  0  0
  -13.5006    3.7433   -7.1645 C   0  0  0  0  0  0  0  0  0  0  0  0
  -15.9631    4.2870   -7.4783 C   0  0  0  0  0  0  0  0  0  0  0  0
  -15.6116    5.6225   -8.0801 C   0  0  0  0  0  0  0  0  0  0  0  0
  -17.2965    3.9566   -7.3249 C   0  0  0  0  0  0  0  0  0  0  0  0
  -17.6862    2.7301   -6.7686 C   0  0  0  0  0  0  0  0  0  0  0  0
  -19.0348    2.4117   -6.5596 N   0  0  0  0  0  0  0  0  0  0  0  0
  -19.3668    1.2048   -5.9969 C   0  0  0  0  0  0  0  0  0  0  0  0
  -20.0869    3.4241   -6.7691 C   0  0  0  0  0  0  0  0  0  0  0  0
  -20.8493    3.3535   -8.0792 C   0  0  2  0  0  0  0  0  0  0  0  0
  -20.1591    4.1147   -9.0745 O   0  0  0  0  0  0  0  0  0  0  0  0
  -22.2682    3.8659   -7.8825 C   0  0  2  0  0  0  0  0  0  0  0  0
  -23.0995    3.3888   -8.9163 O   0  0  0  0  0  0  0  0  0  0  0  0
  -22.3498    5.3997   -7.8062 C   0  0  2  0  0  0  0  0  0  0  0  0
  -23.0088    5.7643   -6.6091 O   0  0  0  0  0  0  0  0  0  0  0  0
  -23.0411    5.9949   -9.0053 C   0  0  0  0  0  0  0  0  0  0  0  0
  -24.2195    6.7800   -8.6804 O   0  0  0  0  0  0  0  0  0  0  0  0
  -25.6654    6.2972   -9.1907 P   0  0  2  0  0  0  0  0  0  0  0  0
  -25.9785    5.0112   -8.4960 O   0  0  0  0  0  0  0  0  0  0  0  0
  -25.4477    6.1195  -10.6985 O   0  0  0  0  0  0  0  0  0  0  0  0
  -26.6571    7.4052   -8.8419 O   0  0  0  0  0  0  0  0  0  0  0  0
  -20.2660   -1.9588   -4.3225 H   0  0  0  0  0  0  0  0  0  0  0  0
  -14.5481    1.4400   -6.3279 H   0  0  0  0  0  0  0  0  0  0  0  0
  -13.0843    3.8457   -6.1514 H   0  0  0  0  0  0  0  0  0  0  0  0
  -12.9613    2.9510   -7.7042 H   0  0  0  0  0  0  0  0  0  0  0  0
  -13.3900    4.6954   -7.7042 H   0  0  0  0  0  0  0  0  0  0  0  0
  -15.4206    6.3482   -7.2758 H   0  0  0  0  0  0  0  0  0  0  0  0
  -14.7102    5.5187   -8.7019 H   0  0  0  0  0  0  0  0  0  0  0  0
  -16.4473    5.9759   -8.7019 H   0  0  0  0  0  0  0  0  0  0  0  0
  -18.0685    4.6713   -7.6463 H   0  0  0  0  0  0  0  0  0  0  0  0
  -20.8167    3.3203   -5.9527 H   0  0  0  0  0  0  0  0  0  0  0  0
  -19.5590    4.3889   -6.7934 H   0  0  0  0  0  0  0  0  0  0  0  0
  -20.9089    2.3087   -8.4180 H   0  0  0  0  0  0  0  0  0  0  0  0
  -19.5636    4.7714   -8.6337 H   0  0  0  0  0  0  0  0  0  0  0  0
  -22.6144    3.4813   -6.9119 H   0  0  0  0  0  0  0  0  0  0  0  0
  -23.8877    2.9363   -8.5236 H   0  0  0  0  0  0  0  0  0  0  0  0
  -21.3268    5.8040   -7.8073 H   0  0  0  0  0  0  0  0  0  0  0  0
  -22.4712    5.4668   -5.8328 H   0  0  0  0  0  0  0  0  0  0  0  0
  -22.3256    6.6459   -9.5289 H   0  0  0  0  0  0  0  0  0  0  0  0
  -23.3816    5.1529   -9.6259 H   0  0  0  0  0  0  0  0  0  0  0  0
  1  2  1  0
  1 18  2  0
  2  3  2  0
  2  4  1  0
  4  5  1  0
  5  6  2  0
  5  7  1  0
  7  8  2  0
  7 18  1  0
  8  9  1  0
  9 10  1  0
  9 16  2  0
 10 11  2  0
 11 12  1  0
 11 13  1  0
 13 14  1  0
 13 15  2  0
 15 16  1  0
 16 17  1  0
 17 18  1  0
 17 19  1  0
 19 20  1  0
 20 21  1  0
 20 22  1  0
 22 23  1  0
 22 24  1  0
 24 25  1  0
 24 26  1  0
 26 27  1  0
 27 28  1  0
 28 29  2  0
 28 30  1  6
 28 31  1  0
  4 32  1  0
 10 33  1  0
 12 34  1  0
 12 35  1  0
 12 36  1  0
 14 37  1  0
 14 38  1  0
 14 39  1  0
 15 40  1  0
 19 41  1  0
 19 42  1  0
 20 43  1  6
 21 44  1  0
 22 45  1  1
 23 46  1  0
 24 47  1  1
 25 48  1  0
 26 49  1  0
 26 50  1  0
M  CHG  2  30  -1  31  -1
M  END
>  <filename_input>  (1) 
7PGX_FMN_docked.sdf

>  <pdb_id>  (1) 
7PGX_FMN

>  <pose_rank>  (1) 
0

>  <num_atoms_heavy>  (1) 
31

>  <num_torsions>  (1) 
7

>  <pose>  (1) 
[-20.657915459110573, 0.926837153174124, -5.791219820507347, 2.252982996879598, 0.04732832395870371, 5.7718107185492435, 19.01091726529348, 11.717165782988596, 2.575654054786551, 5.177805404045511, -4.9926990092405275, 2.6445535890656244, 2.211672587375752]

>  <energy>  (1) 
-1178.6858150372398

>  <inter_energy>  (1) 
-1170.9827369330692

>  <intra_energy>  (1) 
7.0329770524326065

>  <rmsd>  (1) 
0.996066

>  <sdf_rank>  (1) 
0

$$$$

     RDKit          3D

 50 52  0  0  0  0  0  0  0  0999 V2000
  -20.7180    0.5870   -5.7954 N   0  0  0  0  0  0  0  0  0  0  0  0
  -20.9640   -0.5867   -5.2232 C   0  0  0  0  0  0  0  0  0  0  0  0
  -22.1519   -0.9862   -5.0265 O   0  0  0  0  0  0  0  0  0  0  0  0
  -19.9243   -1.3763   -4.7718 N   0  0  0  0  0  0  0  0  0  0  0  0
  -18.6011   -1.0923   -4.9366 C   0  0  0  0  0  0  0  0  0  0  0  0
  -17.7389   -1.8414   -4.4529 O   0  0  0  0  0  0  0  0  0  0  0  0
  -18.3088    0.1364   -5.6141 C   0  0  0  0  0  0  0  0  0  0  0  0
  -17.0349    0.4740   -5.8320 N   0  0  0  0  0  0  0  0  0  0  0  0
  -16.7961    1.7011   -6.3809 C   0  0  0  0  0  0  0  0  0  0  0  0
  -15.4686    2.1331   -6.5678 C   0  0  0  0  0  0  0  0  0  0  0  0
  -15.1712    3.3589   -7.0760 C   0  0  0  0  0  0  0  0  0  0  0  0
  -13.7305    3.8044   -7.1622 C   0  0  0  0  0  0  0  0  0  0  0  0
  -16.2182    4.1938   -7.5045 C   0  0  0  0  0  0  0  0  0  0  0  0
  -15.9421    5.5377   -8.1268 C   0  0  0  0  0  0  0  0  0  0  0  0
  -17.5308    3.7866   -7.3558 C   0  0  0  0  0  0  0  0  0  0  0  0
  -17.8512    2.5486   -6.7811 C   0  0  0  0  0  0  0  0  0  0  0  0
  -19.1801    2.1534   -6.5770 N   0  0  0  0  0  0  0  0  0  0  0  0
  -19.4440    0.9385   -5.9960 C   0  0  0  0  0  0  0  0  0  0  0  0
  -20.2890    3.0972   -6.8123 C   0  0  0  0  0  0  0  0  0  0  0  0
  -21.1823    2.8149   -8.0060 C   0  0  2  0  0  0  0  0  0  0  0  0
  -20.3907    2.7825   -9.1972 O   0  0  0  0  0  0  0  0  0  0  0  0
  -22.2724    3.8719   -8.1002 C   0  0  2  0  0  0  0  0  0  0  0  0
  -22.8129    3.8907   -9.4021 O   0  0  0  0  0  0  0  0  0  0  0  0
  -21.7841    5.2775   -7.7120 C   0  0  2  0  0  0  0  0  0  0  0  0
  -22.6451    5.8041   -6.7213 O   0  0  0  0  0  0  0  0  0  0  0  0
  -21.6999    6.2008   -8.8996 C   0  0  0  0  0  0  0  0  0  0  0  0
  -21.5915    7.6068   -8.5503 O   0  0  0  0  0  0  0  0  0  0  0  0
  -21.4187    8.7060   -9.7105 P   0  0  2  0  0  0  0  0  0  0  0  0
  -21.0832   10.0044   -9.0502 O   0  0  0  0  0  0  0  0  0  0  0  0
  -22.8024    8.7168  -10.3722 O   0  0  0  0  0  0  0  0  0  0  0  0
  -20.3037    8.2146  -10.6315 O   0  0  0  0  0  0  0  0  0  0  0  0
  -20.1668   -2.2445   -4.2736 H   0  0  0  0  0  0  0  0  0  0  0  0
  -14.6454    1.4569   -6.2937 H   0  0  0  0  0  0  0  0  0  0  0  0
  -13.3241    3.9300   -6.1478 H   0  0  0  0  0  0  0  0  0  0  0  0
  -13.1437    3.0457   -7.7009 H   0  0  0  0  0  0  0  0  0  0  0  0
  -13.6744    4.7618   -7.7009 H   0  0  0  0  0  0  0  0  0  0  0  0
  -15.7886    6.2844   -7.3338 H   0  0  0  0  0  0  0  0  0  0  0  0
  -15.0382    5.4742   -8.7505 H   0  0  0  0  0  0  0  0  0  0  0  0
  -16.7977    5.8357   -8.7505 H   0  0  0  0  0  0  0  0  0  0  0  0
  -18.3413    4.4482   -7.6955 H   0  0  0  0  0  0  0  0  0  0  0  0
  -20.9234    3.0967   -5.9137 H   0  0  0  0  0  0  0  0  0  0  0  0
  -19.8066    4.0607   -7.0335 H   0  0  0  0  0  0  0  0  0  0  0  0
  -21.6678    1.8356   -7.8829 H   0  0  0  0  0  0  0  0  0  0  0  0
  -19.4315    2.7431   -8.9550 H   0  0  0  0  0  0  0  0  0  0  0  0
  -23.0495    3.5941   -7.3729 H   0  0  0  0  0  0  0  0  0  0  0  0
  -23.8009    3.9251   -9.3488 H   0  0  0  0  0  0  0  0  0  0  0  0
  -20.7625    5.1940   -7.3128 H   0  0  0  0  0  0  0  0  0  0  0  0
  -22.2882    5.5858   -5.8240 H   0  0  0  0  0  0  0  0  0  0  0  0
  -20.8155    5.9225   -9.4916 H   0  0  0  0  0  0  0  0  0  0  0  0
  -22.6394    6.0842   -9.4598 H   0  0  0  0  0  0  0  0  0  0  0  0
  1  2  1  0
  1 18  2  0
  2  3  2  0
  2  4  1  0
  4  5  1  0
  5  6  2  0
  5  7  1  0
  7  8  2  0
  7 18  1  0
  8  9  1  0
  9 10  1  0
  9 16  2  0
 10 11  2  0
 11 12  1  0
 11 13  1  0
 13 14  1  0
 13 15  2  0
 15 16  1  0
 16 17  1  0
 17 18  1  0
 17 19  1  0
 19 20  1  0
 20 21  1  0
 20 22  1  0
 22 23  1  0
 22 24  1  0
 24 25  1  0
 24 26  1  0
 26 27  1  0
 27 28  1  0
 28 29  2  0
 28 30  1  6
 28 31  1  0
  4 32  1  0
 10 33  1  0
 12 34  1  0
 12 35  1  0
 12 36  1  0
 14 37  1  0
 14 38  1  0
 14 39  1  0
 15 40  1  0
 19 41  1  0
 19 42  1  0
 20 43  1  1
 21 44  1  0
 22 45  1  1
 23 46  1  0
 24 47  1  1
 25 48  1  0
 26 49  1  0
 26 50  1  0
M  CHG  2  30  -1  31  -1
M  END
>  <filename_input>  (2) 
7PGX_FMN_docked.sdf

>  <pdb_id>  (2) 
7PGX_FMN

>  <pose_rank>  (2) 
1

>  <num_atoms_heavy>  (2) 
31

>  <num_torsions>  (2) 
7

>  <pose>  (2) 
[-20.717993625244922, 0.5870298020078846, -5.795427193196609, -0.048480718699834884, -0.010557358807273508, -0.021230063607096998, 0.33791391735305826, 5.958575053096787, -4.400878355174849, -1.1349881953728511, 2.045764824252929, 1.4695861851213299, -1.898796675619744]

>  <energy>  (2) 
-1143.897893851907

>  <inter_energy>  (2) 
-1139.1959945581639

>  <intra_energy>  (2) 
8.657984137540774

>  <rmsd>  (2) 
2.14239

>  <sdf_rank>  (2) 
0

$$$$

     RDKit          3D

 50 52  0  0  0  0  0  0  0  0999 V2000
  -20.5950    0.7681   -5.7766 N   0  0  0  0  0  0  0  0  0  0  0  0
  -20.9072   -0.4193   -5.2685 C   0  0  0  0  0  0  0  0  0  0  0  0
  -22.1157   -0.7598   -5.0872 O   0  0  0  0  0  0  0  0  0  0  0  0
  -19.9138   -1.2914   -4.8674 N   0  0  0  0  0  0  0  0  0  0  0  0
  -18.5768   -1.0757   -5.0239 C   0  0  0  0  0  0  0  0  0  0  0  0
  -17.7583   -1.8991   -4.5873 O   0  0  0  0  0  0  0  0  0  0  0  0
  -18.2155    0.1697   -5.6344 C   0  0  0  0  0  0  0  0  0  0  0  0
  -16.9248    0.4447   -5.8407 N   0  0  0  0  0  0  0  0  0  0  0  0
  -16.6165    1.6844   -6.3225 C   0  0  0  0  0  0  0  0  0  0  0  0
  -15.2667    2.0487   -6.4929 C   0  0  0  0  0  0  0  0  0  0  0  0
  -14.9000    3.2815   -6.9345 C   0  0  0  0  0  0  0  0  0  0  0  0
  -13.4361    3.6471   -7.0044 C   0  0  0  0  0  0  0  0  0  0  0  0
  -15.8980    4.1980   -7.3103 C   0  0  0  0  0  0  0  0  0  0  0  0
  -15.5459    5.5561   -7.8591 C   0  0  0  0  0  0  0  0  0  0  0  0
  -17.2315    3.8597   -7.1766 C   0  0  0  0  0  0  0  0  0  0  0  0
  -17.6217    2.6123   -6.6692 C   0  0  0  0  0  0  0  0  0  0  0  0
  -18.9708    2.2839   -6.4795 N   0  0  0  0  0  0  0  0  0  0  0  0
  -19.3033    1.0559   -5.9648 C   0  0  0  0  0  0  0  0  0  0  0  0
  -20.0237    3.3017   -6.6559 C   0  0  0  0  0  0  0  0  0  0  0  0
  -20.6362    3.4158   -8.0396 C   0  0  2  0  0  0  0  0  0  0  0  0
  -19.8299    4.2770   -8.8487 O   0  0  0  0  0  0  0  0  0  0  0  0
  -22.0617    3.9369   -7.9351 C   0  0  2  0  0  0  0  0  0  0  0  0
  -22.7629    3.6617   -9.1266 O   0  0  0  0  0  0  0  0  0  0  0  0
  -22.1320    5.4399   -7.6175 C   0  0  2  0  0  0  0  0  0  0  0  0
  -22.6620    5.6090   -6.3172 O   0  0  0  0  0  0  0  0  0  0  0  0
  -22.9433    6.2008   -8.6338 C   0  0  0  0  0  0  0  0  0  0  0  0
  -24.3057    6.4812   -8.2145 O   0  0  0  0  0  0  0  0  0  0  0  0
  -25.4766    6.5672   -9.3124 P   0  0  2  0  0  0  0  0  0  0  0  0
  -25.5883    5.2215   -9.9537 O   0  0  0  0  0  0  0  0  0  0  0  0
  -24.9565    7.6420  -10.2752 O   0  0  0  0  0  0  0  0  0  0  0  0
  -26.7528    6.9706   -8.5765 O   0  0  0  0  0  0  0  0  0  0  0  0
  -20.2050   -2.1705   -4.4165 H   0  0  0  0  0  0  0  0  0  0  0  0
  -14.4835    1.3119   -6.2613 H   0  0  0  0  0  0  0  0  0  0  0  0
  -13.0342    3.7475   -5.9854 H   0  0  0  0  0  0  0  0  0  0  0  0
  -12.8864    2.8587   -7.5394 H   0  0  0  0  0  0  0  0  0  0  0  0
  -13.3217    4.6014   -7.5394 H   0  0  0  0  0  0  0  0  0  0  0  0
  -15.3655    6.2523   -7.0268 H   0  0  0  0  0  0  0  0  0  0  0  0
  -14.6383    5.4784   -8.4756 H   0  0  0  0  0  0  0  0  0  0  0  0
  -16.3771    5.9291   -8.4756 H   0  0  0  0  0  0  0  0  0  0  0  0
  -18.0032    4.5848   -7.4746 H   0  0  0  0  0  0  0  0  0  0  0  0
  -20.8348    3.0680   -5.9506 H   0  0  0  0  0  0  0  0  0  0  0  0
  -19.5256    4.2666   -6.4798 H   0  0  0  0  0  0  0  0  0  0  0  0
  -20.6707    2.4235   -8.5131 H   0  0  0  0  0  0  0  0  0  0  0  0
  -19.2831    4.8611   -8.2657 H   0  0  0  0  0  0  0  0  0  0  0  0
  -22.5319    3.4121   -7.0905 H   0  0  0  0  0  0  0  0  0  0  0  0
  -23.6615    3.3090   -8.9067 H   0  0  0  0  0  0  0  0  0  0  0  0
  -21.1139    5.8540   -7.6624 H   0  0  0  0  0  0  0  0  0  0  0  0
  -21.9681    5.3876   -5.6467 H   0  0  0  0  0  0  0  0  0  0  0  0
  -22.4388    7.1579   -8.8323 H   0  0  0  0  0  0  0  0  0  0  0  0
  -23.0109    5.5634   -9.5278 H   0  0  0  0  0  0  0  0  0  0  0  0
  1  2  1  0
  1 18  2  0
  2  3  2  0
  2  4  1  0
  4  5  1  0
  5  6  2  0
  5  7  1  0
  7  8  2  0
  7 18  1  0
  8  9  1  0
  9 10  1  0
  9 16  2  0
 10 11  2  0
 11 12  1  0
 11 13  1  0
 13 14  1  0
 13 15  2  0
 15 16  1  0
 16 17  1  0
 17 18  1  0
 17 19  1  0
 19 20  1  0
 20 21  1  0
 20 22  1  0
 22 23  1  0
 22 24  1  0
 24 25  1  0
 24 26  1  0
 26 27  1  0
 27 28  1  0
 28 29  2  0
 28 30  1  6
 28 31  1  0
  4 32  1  0
 10 33  1  0
 12 34  1  0
 12 35  1  0
 12 36  1  0
 14 37  1  0
 14 38  1  0
 14 39  1  0
 15 40  1  0
 19 41  1  0
 19 42  1  0
 20 43  1  6
 21 44  1  0
 22 45  1  1
 23 46  1  0
 24 47  1  1
 25 48  1  0
 26 49  1  0
 26 50  1  0
M  CHG  2  30  -1  31  -1
M  END
>  <filename_input>  (3) 
7PGX_FMN_docked.sdf

>  <pdb_id>  (3) 
7PGX_FMN

>  <pose_rank>  (3) 
2

>  <num_atoms_heavy>  (3) 
31

>  <num_torsions>  (3) 
7

>  <pose>  (3) 
[-20.594967470931294, 0.7681242204464441, -5.7765687128952, 0.519315335748534, -0.34734865796833053, -6.3321692222401635, -18.842364510527933, -32.21853926492794, -3.7478850593931416, 11.691605299036787, 0.9070738752509788, -4.214557286902782, -4.120194532354991]

>  <energy>  (3) 
-1133.7079541924334

>  <inter_energy>  (3) 
-1149.7778145932734

>  <intra_energy>  (3) 
11.02292266120827

>  <rmsd>  (3) 
0.958573

>  <sdf_rank>  (3) 
0

$$$$

     RDKit          3D

 50 52  0  0  0  0  0  0  0  0999 V2000
  -17.3814    5.1117   -7.6584 N   0  0  0  0  0  0  0  0  0  0  0  0
  -16.1125    5.2397   -8.0316 C   0  0  0  0  0  0  0  0  0  0  0  0
  -15.7282    6.2285   -8.7271 O   0  0  0  0  0  0  0  0  0  0  0  0
  -15.1895    4.2605   -7.7192 N   0  0  0  0  0  0  0  0  0  0  0  0
  -15.4482    3.1594   -6.9582 C   0  0  0  0  0  0  0  0  0  0  0  0
  -14.5638    2.3099   -6.7719 O   0  0  0  0  0  0  0  0  0  0  0  0
  -16.7949    3.0339   -6.4841 C   0  0  0  0  0  0  0  0  0  0  0  0
  -17.1210    1.9920   -5.7145 N   0  0  0  0  0  0  0  0  0  0  0  0
  -18.4358    1.8498   -5.3750 C   0  0  0  0  0  0  0  0  0  0  0  0
  -18.8429    0.7310   -4.6224 C   0  0  0  0  0  0  0  0  0  0  0  0
  -20.1435    0.5191   -4.2866 C   0  0  0  0  0  0  0  0  0  0  0  0
  -20.5331   -0.7480   -3.5625 C   0  0  0  0  0  0  0  0  0  0  0  0
  -21.1048    1.4858   -4.6306 C   0  0  0  0  0  0  0  0  0  0  0  0
  -22.5494    1.3280   -4.2337 C   0  0  0  0  0  0  0  0  0  0  0  0
  -20.7307    2.6062   -5.3486 C   0  0  0  0  0  0  0  0  0  0  0  0
  -19.4024    2.8075   -5.7493 C   0  0  0  0  0  0  0  0  0  0  0  0
  -19.0266    3.9130   -6.5243 N   0  0  0  0  0  0  0  0  0  0  0  0
  -17.7164    4.0589   -6.9060 C   0  0  0  0  0  0  0  0  0  0  0  0
  -20.0465    4.8203   -7.0830 C   0  0  0  0  0  0  0  0  0  0  0  0
  -21.0684    4.2027   -8.0194 C   0  0  2  0  0  0  0  0  0  0  0  0
  -20.4177    3.2707   -8.8880 O   0  0  0  0  0  0  0  0  0  0  0  0
  -21.7718    5.2936   -8.8129 C   0  0  2  0  0  0  0  0  0  0  0  0
  -20.8335    6.2493   -9.2527 O   0  0  0  0  0  0  0  0  0  0  0  0
  -22.8962    5.9837   -8.0228 C   0  0  2  0  0  0  0  0  0  0  0  0
  -23.5839    5.0111   -7.2604 O   0  0  0  0  0  0  0  0  0  0  0  0
  -23.8449    6.7363   -8.9193 C   0  0  0  0  0  0  0  0  0  0  0  0
  -24.4894    5.9105   -9.9258 O   0  0  0  0  0  0  0  0  0  0  0  0
  -26.0937    5.8774  -10.0228 P   0  0  2  0  0  0  0  0  0  0  0  0
  -26.5257    4.4623   -9.8098 O   0  0  0  0  0  0  0  0  0  0  0  0
  -26.3543    6.3686  -11.4523 O   0  0  0  0  0  0  0  0  0  0  0  0
  -26.6277    6.8190   -8.9452 O   0  0  0  0  0  0  0  0  0  0  0  0
  -14.2345    4.3706   -8.0889 H   0  0  0  0  0  0  0  0  0  0  0  0
  -18.0839    0.0050   -4.2955 H   0  0  0  0  0  0  0  0  0  0  0  0
  -20.4815   -0.5804   -2.4766 H   0  0  0  0  0  0  0  0  0  0  0  0
  -21.5592   -1.0292   -3.8418 H   0  0  0  0  0  0  0  0  0  0  0  0
  -19.8422   -1.5571   -3.8418 H   0  0  0  0  0  0  0  0  0  0  0  0
  -22.6294    1.3192   -3.1367 H   0  0  0  0  0  0  0  0  0  0  0  0
  -23.1344    2.1676   -4.6373 H   0  0  0  0  0  0  0  0  0  0  0  0
  -22.9393    0.3819   -4.6373 H   0  0  0  0  0  0  0  0  0  0  0  0
  -21.4916    3.3559   -5.6113 H   0  0  0  0  0  0  0  0  0  0  0  0
  -20.5939    5.2663   -6.2396 H   0  0  0  0  0  0  0  0  0  0  0  0
  -19.4872    5.5395   -7.6994 H   0  0  0  0  0  0  0  0  0  0  0  0
  -21.8286    3.6632   -7.4353 H   0  0  0  0  0  0  0  0  0  0  0  0
  -19.9432    2.5910   -8.3468 H   0  0  0  0  0  0  0  0  0  0  0  0
  -22.2455    4.8044   -9.6768 H   0  0  0  0  0  0  0  0  0  0  0  0
  -20.4099    6.6809   -8.4689 H   0  0  0  0  0  0  0  0  0  0  0  0
  -22.4446    6.7314   -7.3542 H   0  0  0  0  0  0  0  0  0  0  0  0
  -23.4539    5.1950   -6.2964 H   0  0  0  0  0  0  0  0  0  0  0  0
  -24.6264    7.1900   -8.2921 H   0  0  0  0  0  0  0  0  0  0  0  0
  -23.2458    7.4848   -9.4586 H   0  0  0  0  0  0  0  0  0  0  0  0
  1  2  1  0
  1 18  2  0
  2  3  2  0
  2  4  1  0
  4  5  1  0
  5  6  2  0
  5  7  1  0
  7  8  2  0
  7 18  1  0
  8  9  1  0
  9 10  1  0
  9 16  2  0
 10 11  2  0
 11 12  1  0
 11 13  1  0
 13 14  1  0
 13 15  2  0
 15 16  1  0
 16 17  1  0
 17 18  1  0
 17 19  1  0
 19 20  1  0
 20 21  1  0
 20 22  1  0
 22 23  1  0
 22 24  1  0
 24 25  1  0
 24 26  1  0
 26 27  1  0
 27 28  1  0
 28 29  2  0
 28 30  1  6
 28 31  1  0
  4 32  1  0
 10 33  1  0
 12 34  1  0
 12 35  1  0
 12 36  1  0
 14 37  1  0
 14 38  1  0
 14 39  1  0
 15 40  1  0
 19 41  1  0
 19 42  1  0
 20 43  1  1
 21 44  1  0
 22 45  1  6
 23 46  1  0
 24 47  1  1
 25 48  1  0
 26 49  1  0
 26 50  1  0
M  CHG  2  30  -1  31  -1
M  END
>  <filename_input>  (4) 
7PGX_FMN_docked.sdf

>  <pdb_id>  (4) 
7PGX_FMN

>  <pose_rank>  (4) 
3

>  <num_atoms_heavy>  (4) 
31

>  <num_torsions>  (4) 
7

>  <pose>  (4) 
[-17.38136141947912, 5.1116765649109155, -7.6583848536471635, -2.4521347888244285, 2.165918145905846, -0.8441123581224931, -21.47785810532397, -12.597078920036, -12.739448959786912, 12.9683503705736, 12.761771445541193, 6.84168284491566, -1.0378261517398295]

>  <energy>  (4) 
-801.9572867526692

>  <inter_energy>  (4) 
-820.8967175158309

>  <intra_energy>  (4) 
16.47754398288929

>  <rmsd>  (4) 
4.56919

>  <sdf_rank>  (4) 
0

$$$$

     RDKit          3D

 50 52  0  0  0  0  0  0  0  0999 V2000
  -21.3957    5.5081   -8.2768 N   0  0  0  0  0  0  0  0  0  0  0  0
  -22.0243    6.4090   -9.0244 C   0  0  0  0  0  0  0  0  0  0  0  0
  -23.2882    6.5160   -9.0015 O   0  0  0  0  0  0  0  0  0  0  0  0
  -21.3145    7.2138   -9.8943 N   0  0  0  0  0  0  0  0  0  0  0  0
  -19.9561    7.2310  -10.0082 C   0  0  0  0  0  0  0  0  0  0  0  0
  -19.4117    7.9566  -10.8543 O   0  0  0  0  0  0  0  0  0  0  0  0
  -19.2496    6.3163   -9.1606 C   0  0  0  0  0  0  0  0  0  0  0  0
  -17.9147    6.2892   -9.1997 N   0  0  0  0  0  0  0  0  0  0  0  0
  -17.2847    5.3302   -8.4598 C   0  0  0  0  0  0  0  0  0  0  0  0
  -15.8822    5.2150   -8.5197 C   0  0  0  0  0  0  0  0  0  0  0  0
  -15.2049    4.2563   -7.8331 C   0  0  0  0  0  0  0  0  0  0  0  0
  -13.7113    4.1205   -8.0129 C   0  0  0  0  0  0  0  0  0  0  0  0
  -15.9152    3.4011   -6.9722 C   0  0  0  0  0  0  0  0  0  0  0  0
  -15.2072    2.3593   -6.1457 C   0  0  0  0  0  0  0  0  0  0  0  0
  -17.2900    3.5063   -6.8746 C   0  0  0  0  0  0  0  0  0  0  0  0
  -18.0052    4.4537   -7.6206 C   0  0  0  0  0  0  0  0  0  0  0  0
  -19.4036    4.5291   -7.5680 N   0  0  0  0  0  0  0  0  0  0  0  0
  -20.0608    5.4631   -8.3289 C   0  0  0  0  0  0  0  0  0  0  0  0
  -20.1845    3.5057   -6.8477 C   0  0  0  0  0  0  0  0  0  0  0  0
  -20.7831    2.3910   -7.6852 C   0  0  2  0  0  0  0  0  0  0  0  0
  -21.7825    2.9313   -8.5546 O   0  0  0  0  0  0  0  0  0  0  0  0
  -21.3664    1.3168   -6.7794 C   0  0  2  0  0  0  0  0  0  0  0  0
  -20.9736    1.5473   -5.4453 O   0  0  0  0  0  0  0  0  0  0  0  0
  -20.9752   -0.1081   -7.2052 C   0  0  2  0  0  0  0  0  0  0  0  0
  -21.6291   -1.0346   -6.3601 O   0  0  0  0  0  0  0  0  0  0  0  0
  -19.4836   -0.3203   -7.1864 C   0  0  0  0  0  0  0  0  0  0  0  0
  -19.0152   -1.1353   -6.0786 O   0  0  0  0  0  0  0  0  0  0  0  0
  -19.1775   -0.6015   -4.5711 P   0  0  2  0  0  0  0  0  0  0  0  0
  -20.5556   -0.9591   -4.1157 O   0  0  0  0  0  0  0  0  0  0  0  0
  -18.9778    0.9114   -4.7267 O   0  0  0  0  0  0  0  0  0  0  0  0
  -18.0928   -1.2792   -3.7361 O   0  0  0  0  0  0  0  0  0  0  0  0
  -21.8518    7.8482  -10.5024 H   0  0  0  0  0  0  0  0  0  0  0  0
  -15.3163    5.9237   -9.1421 H   0  0  0  0  0  0  0  0  0  0  0  0
  -13.2258    4.0763   -7.0269 H   0  0  0  0  0  0  0  0  0  0  0  0
  -13.4915    3.1986   -8.5715 H   0  0  0  0  0  0  0  0  0  0  0  0
  -13.3289    4.9875   -8.5715 H   0  0  0  0  0  0  0  0  0  0  0  0
  -15.3547    2.5764   -5.0775 H   0  0  0  0  0  0  0  0  0  0  0  0
  -15.6179    1.3657   -6.3781 H   0  0  0  0  0  0  0  0  0  0  0  0
  -14.1322    2.3753   -6.3781 H   0  0  0  0  0  0  0  0  0  0  0  0
  -17.8346    2.8322   -6.1971 H   0  0  0  0  0  0  0  0  0  0  0  0
  -19.5206    3.0431   -6.1026 H   0  0  0  0  0  0  0  0  0  0  0  0
  -21.0455    4.0439   -6.4246 H   0  0  0  0  0  0  0  0  0  0  0  0
  -19.9985    1.9272   -8.3011 H   0  0  0  0  0  0  0  0  0  0  0  0
  -22.5119    3.3258   -8.0139 H   0  0  0  0  0  0  0  0  0  0  0  0
  -22.4607    1.3849   -6.8679 H   0  0  0  0  0  0  0  0  0  0  0  0
  -21.6435    1.1542   -4.8315 H   0  0  0  0  0  0  0  0  0  0  0  0
  -21.2957   -0.2616   -8.2462 H   0  0  0  0  0  0  0  0  0  0  0  0
  -21.4600   -0.7951   -5.4145 H   0  0  0  0  0  0  0  0  0  0  0  0
  -19.1928   -0.8136   -8.1256 H   0  0  0  0  0  0  0  0  0  0  0  0
  -19.0232    0.6717   -7.0678 H   0  0  0  0  0  0  0  0  0  0  0  0
  1  2  1  0
  1 18  2  0
  2  3  2  0
  2  4  1  0
  4  5  1  0
  5  6  2  0
  5  7  1  0
  7  8  2  0
  7 18  1  0
  8  9  1  0
  9 10  1  0
  9 16  2  0
 10 11  2  0
 11 12  1  0
 11 13  1  0
 13 14  1  0
 13 15  2  0
 15 16  1  0
 16 17  1  0
 17 18  1  0
 17 19  1  0
 19 20  1  0
 20 21  1  0
 20 22  1  0
 22 23  1  0
 22 24  1  0
 24 25  1  0
 24 26  1  0
 26 27  1  0
 27 28  1  0
 28 29  2  0
 28 30  1  6
 28 31  1  0
  4 32  1  0
 10 33  1  0
 12 34  1  0
 12 35  1  0
 12 36  1  0
 14 37  1  0
 14 38  1  0
 14 39  1  0
 15 40  1  0
 19 41  1  0
 19 42  1  0
 20 43  1  6
 21 44  1  0
 22 45  1  1
 23 46  1  0
 24 47  1  6
 25 48  1  0
 26 49  1  0
 26 50  1  0
M  CHG  2  30  -1  31  -1
M  END
>  <filename_input>  (5) 
7PGX_FMN_docked.sdf

>  <pdb_id>  (5) 
7PGX_FMN

>  <pose_rank>  (5) 
4

>  <num_atoms_heavy>  (5) 
31

>  <num_torsions>  (5) 
7

>  <pose>  (5) 
[-21.39572104334023, 5.508134109555174, -8.276753528327825, -3.400421013320915, -0.41890820936199713, 0.4144158099098527, -3.2955841759646303, -0.4708043876340303, -1.1027686417931912, -1.9949918510675384, 1.0279612782228675, -2.7498553583835164, 2.5383208278060376]

>  <energy>  (5) 
-696.9384244403121

>  <inter_energy>  (5) 
-852.6219017588473

>  <intra_energy>  (5) 
167.83819407304387

>  <rmsd>  (5) 
6.64505

>  <sdf_rank>  (5) 
0

$$$$

     RDKit          3D

 50 52  0  0  0  0  0  0  0  0999 V2000
  -18.3112    0.6231   -6.0557 N   0  0  0  0  0  0  0  0  0  0  0  0
  -18.2680   -0.5462   -5.4260 C   0  0  0  0  0  0  0  0  0  0  0  0
  -17.2052   -1.2383   -5.3964 O   0  0  0  0  0  0  0  0  0  0  0  0
  -19.4045   -1.0658   -4.8373 N   0  0  0  0  0  0  0  0  0  0  0  0
  -20.6070   -0.4275   -4.7655 C   0  0  0  0  0  0  0  0  0  0  0  0
  -21.5845   -0.9971   -4.2570 O   0  0  0  0  0  0  0  0  0  0  0  0
  -20.6607    0.8676   -5.3771 C   0  0  0  0  0  0  0  0  0  0  0  0
  -21.7992    1.5645   -5.3297 N   0  0  0  0  0  0  0  0  0  0  0  0
  -21.8423    2.7433   -6.0173 C   0  0  0  0  0  0  0  0  0  0  0  0
  -23.0405    3.4827   -6.0560 C   0  0  0  0  0  0  0  0  0  0  0  0
  -23.1520    4.6441   -6.7543 C   0  0  0  0  0  0  0  0  0  0  0  0
  -24.4890    5.3418   -6.8388 C   0  0  0  0  0  0  0  0  0  0  0  0
  -22.0153    5.1691   -7.3941 C   0  0  0  0  0  0  0  0  0  0  0  0
  -22.0697    6.4806   -8.1334 C   0  0  0  0  0  0  0  0  0  0  0  0
  -20.8191    4.4776   -7.3533 C   0  0  0  0  0  0  0  0  0  0  0  0
  -20.7067    3.2508   -6.6839 C   0  0  0  0  0  0  0  0  0  0  0  0
  -19.5121    2.5181   -6.6852 N   0  0  0  0  0  0  0  0  0  0  0  0
  -19.4551    1.3141   -6.0290 C   0  0  0  0  0  0  0  0  0  0  0  0
  -18.3760    2.9351   -7.5284 C   0  0  0  0  0  0  0  0  0  0  0  0
  -17.2598    3.6977   -6.8391 C   0  0  2  0  0  0  0  0  0  0  0  0
  -17.8028    4.8440   -6.1776 O   0  0  0  0  0  0  0  0  0  0  0  0
  -16.2015    4.1005   -7.8552 C   0  0  2  0  0  0  0  0  0  0  0  0
  -14.9408    4.1827   -7.2298 O   0  0  0  0  0  0  0  0  0  0  0  0
  -16.5235    5.4246   -8.5679 C   0  0  2  0  0  0  0  0  0  0  0  0
  -16.3395    6.4913   -7.6577 O   0  0  0  0  0  0  0  0  0  0  0  0
  -17.9163    5.4397   -9.1422 C   0  0  0  0  0  0  0  0  0  0  0  0
  -18.0491    6.2311  -10.3533 O   0  0  0  0  0  0  0  0  0  0  0  0
  -19.3765    7.1054  -10.5934 P   0  0  2  0  0  0  0  0  0  0  0  0
  -19.2648    7.7254  -11.9490 O   0  0  0  0  0  0  0  0  0  0  0  0
  -19.3083    8.1380   -9.4611 O   0  0  0  0  0  0  0  0  0  0  0  0
  -20.5663    6.1540  -10.4832 O   0  0  0  0  0  0  0  0  0  0  0  0
  -19.3385   -2.0058   -4.4214 H   0  0  0  0  0  0  0  0  0  0  0  0
  -23.9147    3.1083   -5.5031 H   0  0  0  0  0  0  0  0  0  0  0  0
  -24.8650    5.5380   -5.8239 H   0  0  0  0  0  0  0  0  0  0  0  0
  -24.3724    6.2940   -7.3771 H   0  0  0  0  0  0  0  0  0  0  0  0
  -25.2034    4.7015   -7.3771 H   0  0  0  0  0  0  0  0  0  0  0  0
  -22.1041    7.3083   -7.4098 H   0  0  0  0  0  0  0  0  0  0  0  0
  -21.1751    6.5828   -8.7652 H   0  0  0  0  0  0  0  0  0  0  0  0
  -22.9698    6.5082   -8.7652 H   0  0  0  0  0  0  0  0  0  0  0  0
  -19.9365    4.8987   -7.8569 H   0  0  0  0  0  0  0  0  0  0  0  0
  -17.9372    2.0278   -7.9691 H   0  0  0  0  0  0  0  0  0  0  0  0
  -18.8008    3.6407   -8.2576 H   0  0  0  0  0  0  0  0  0  0  0  0
  -16.7809    3.0545   -6.0861 H   0  0  0  0  0  0  0  0  0  0  0  0
  -17.7433    4.7184   -5.1974 H   0  0  0  0  0  0  0  0  0  0  0  0
  -16.1888    3.3189   -8.6291 H   0  0  0  0  0  0  0  0  0  0  0  0
  -15.0589    4.1750   -6.2469 H   0  0  0  0  0  0  0  0  0  0  0  0
  -15.8370    5.5382   -9.4198 H   0  0  0  0  0  0  0  0  0  0  0  0
  -16.3987    6.1482   -6.7309 H   0  0  0  0  0  0  0  0  0  0  0  0
  -18.2064    4.4040   -9.3727 H   0  0  0  0  0  0  0  0  0  0  0  0
  -18.5665    5.9043   -8.3863 H   0  0  0  0  0  0  0  0  0  0  0  0
  1  2  1  0
  1 18  2  0
  2  3  2  0
  2  4  1  0
  4  5  1  0
  5  6  2  0
  5  7  1  0
  7  8  2  0
  7 18  1  0
  8  9  1  0
  9 10  1  0
  9 16  2  0
 10 11  2  0
 11 12  1  0
 11 13  1  0
 13 14  1  0
 13 15  2  0
 15 16  1  0
 16 17  1  0
 17 18  1  0
 17 19  1  0
 19 20  1  0
 20 21  1  0
 20 22  1  0
 22 23  1  0
 22 24  1  0
 24 25  1  0
 24 26  1  0
 26 27  1  0
 27 28  1  0
 28 29  2  0
 28 30  1  1
 28 31  1  0
  4 32  1  0
 10 33  1  0
 12 34  1  0
 12 35  1  0
 12 36  1  0
 14 37  1  0
 14 38  1  0
 14 39  1  0
 15 40  1  0
 19 41  1  0
 19 42  1  0
 20 43  1  1
 21 44  1  0
 22 45  1  6
 23 46  1  0
 24 47  1  6
 25 48  1  0
 26 49  1  0
 26 50  1  0
M  CHG  2  30  -1  31  -1
M  END
>  <filename_input>  (6) 
7PGX_FMN_docked.sdf

>  <pdb_id>  (6) 
7PGX_FMN

>  <pose_rank>  (6) 
5

>  <num_atoms_heavy>  (6) 
31

>  <num_torsions>  (6) 
7

>  <pose>  (6) 
[-18.31121292888815, 0.6230730967643925, -6.055674333208508, 0.24265504615878236, 3.046244665665503, -1.5220065001815266, 0.15937025776329386, -0.2785025581234757, 2.7287759366518918, 2.3422604939326255, 2.86622774303452, -4.094284400590788, -2.011498775335229]

>  <energy>  (6) 
-813.5093910437788

>  <inter_energy>  (6) 
-897.7527132900841

>  <intra_energy>  (6) 
78.69783751946903

>  <rmsd>  (6) 
5.32643

>  <sdf_rank>  (6) 
0

$$$$

     RDKit          3D

 50 52  0  0  0  0  0  0  0  0999 V2000
  -20.4722    0.9785   -6.1903 N   0  0  0  0  0  0  0  0  0  0  0  0
  -20.7808   -0.1545   -5.5684 C   0  0  0  0  0  0  0  0  0  0  0  0
  -21.9884   -0.5088   -5.4081 O   0  0  0  0  0  0  0  0  0  0  0  0
  -19.7882   -0.9471   -5.0255 N   0  0  0  0  0  0  0  0  0  0  0  0
  -18.4507   -0.7101   -5.1412 C   0  0  0  0  0  0  0  0  0  0  0  0
  -17.6355   -1.4556   -4.5769 O   0  0  0  0  0  0  0  0  0  0  0  0
  -18.0892    0.4705   -5.8689 C   0  0  0  0  0  0  0  0  0  0  0  0
  -16.7967    0.7594   -6.0428 N   0  0  0  0  0  0  0  0  0  0  0  0
  -16.4947    1.9471   -6.6446 C   0  0  0  0  0  0  0  0  0  0  0  0
  -15.1472    2.3304   -6.7901 C   0  0  0  0  0  0  0  0  0  0  0  0
  -14.7887    3.5174   -7.3485 C   0  0  0  0  0  0  0  0  0  0  0  0
  -13.3325    3.9165   -7.3889 C   0  0  0  0  0  0  0  0  0  0  0  0
  -15.7883    4.3567   -7.8714 C   0  0  0  0  0  0  0  0  0  0  0  0
  -15.4420    5.6558   -8.5510 C   0  0  0  0  0  0  0  0  0  0  0  0
  -17.1183    3.9956   -7.7646 C   0  0  0  0  0  0  0  0  0  0  0  0
  -17.5033    2.8007   -7.1404 C   0  0  0  0  0  0  0  0  0  0  0  0
  -18.8519    2.4552   -6.9798 N   0  0  0  0  0  0  0  0  0  0  0  0
  -19.1801    1.2821   -6.3477 C   0  0  0  0  0  0  0  0  0  0  0  0
  -19.9189    3.4155   -7.3187 C   0  0  0  0  0  0  0  0  0  0  0  0
  -21.3478    2.9405   -7.1313 C   0  0  2  0  0  0  0  0  0  0  0  0
  -22.0828    3.1500   -8.3406 O   0  0  0  0  0  0  0  0  0  0  0  0
  -21.9904    3.6753   -5.9644 C   0  0  2  0  0  0  0  0  0  0  0  0
  -20.9942    4.1450   -5.0844 O   0  0  0  0  0  0  0  0  0  0  0  0
  -23.0080    2.8146   -5.1971 C   0  0  2  0  0  0  0  0  0  0  0  0
  -24.2903    3.3970   -5.3263 O   0  0  0  0  0  0  0  0  0  0  0  0
  -22.6353    2.6468   -3.7470 C   0  0  0  0  0  0  0  0  0  0  0  0
  -23.6997    2.9871   -2.8187 O   0  0  0  0  0  0  0  0  0  0  0  0
  -23.5599    2.5949   -1.2661 P   0  0  2  0  0  0  0  0  0  0  0  0
  -23.4154    3.8670   -0.4945 O   0  0  0  0  0  0  0  0  0  0  0  0
  -22.2851    1.7420   -1.2483 O   0  0  0  0  0  0  0  0  0  0  0  0
  -24.8196    1.8205   -0.8838 O   0  0  0  0  0  0  0  0  0  0  0  0
  -20.0805   -1.7793   -4.4937 H   0  0  0  0  0  0  0  0  0  0  0  0
  -14.3591    1.6473   -6.4406 H   0  0  0  0  0  0  0  0  0  0  0  0
  -12.9522    4.0207   -6.3620 H   0  0  0  0  0  0  0  0  0  0  0  0
  -12.7549    3.1435   -7.9171 H   0  0  0  0  0  0  0  0  0  0  0  0
  -13.2297    4.8759   -7.9171 H   0  0  0  0  0  0  0  0  0  0  0  0
  -15.2373    6.4241   -7.7908 H   0  0  0  0  0  0  0  0  0  0  0  0
  -14.5501    5.5147   -9.1792 H   0  0  0  0  0  0  0  0  0  0  0  0
  -16.2858    5.9774   -9.1792 H   0  0  0  0  0  0  0  0  0  0  0  0
  -17.8913    4.6601   -8.1781 H   0  0  0  0  0  0  0  0  0  0  0  0
  -19.7783    4.3061   -6.6886 H   0  0  0  0  0  0  0  0  0  0  0  0
  -19.8134    3.5956   -8.3987 H   0  0  0  0  0  0  0  0  0  0  0  0
  -21.3542    1.8650   -6.9008 H   0  0  0  0  0  0  0  0  0  0  0  0
  -23.0111    3.4145   -8.1210 H   0  0  0  0  0  0  0  0  0  0  0  0
  -22.5485    4.5225   -6.3895 H   0  0  0  0  0  0  0  0  0  0  0  0
  -21.2880    4.0065   -4.1492 H   0  0  0  0  0  0  0  0  0  0  0  0
  -23.0108    1.8051   -5.6341 H   0  0  0  0  0  0  0  0  0  0  0  0
  -24.6671    3.5682   -4.4269 H   0  0  0  0  0  0  0  0  0  0  0  0
  -22.3552    1.5960   -3.5815 H   0  0  0  0  0  0  0  0  0  0  0  0
  -21.8069    3.3429   -3.5494 H   0  0  0  0  0  0  0  0  0  0  0  0
  1  2  1  0
  1 18  2  0
  2  3  2  0
  2  4  1  0
  4  5  1  0
  5  6  2  0
  5  7  1  0
  7  8  2  0
  7 18  1  0
  8  9  1  0
  9 10  1  0
  9 16  2  0
 10 11  2  0
 11 12  1  0
 11 13  1  0
 13 14  1  0
 13 15  2  0
 15 16  1  0
 16 17  1  0
 17 18  1  0
 17 19  1  0
 19 20  1  0
 20 21  1  0
 20 22  1  0
 22 23  1  0
 22 24  1  0
 24 25  1  0
 24 26  1  0
 26 27  1  0
 27 28  1  0
 28 29  2  0
 28 30  1  6
 28 31  1  0
  4 32  1  0
 10 33  1  0
 12 34  1  0
 12 35  1  0
 12 36  1  0
 14 37  1  0
 14 38  1  0
 14 39  1  0
 15 40  1  0
 19 41  1  0
 19 42  1  0
 20 43  1  1
 21 44  1  0
 22 45  1  6
 23 46  1  0
 24 47  1  6
 25 48  1  0
 26 49  1  0
 26 50  1  0
M  CHG  2  30  -1  31  -1
M  END
>  <filename_input>  (7) 
7PGX_FMN_docked.sdf

>  <pdb_id>  (7) 
7PGX_FMN

>  <pose_rank>  (7) 
6

>  <num_atoms_heavy>  (7) 
31

>  <num_torsions>  (7) 
7

>  <pose>  (7) 
[-20.472240055625576, 0.9784564335195527, -6.19032438313291, -0.10264008628306923, -0.057975538039018934, -0.05171547602633512, -23.595667206914882, -45.519416540319405, -39.03279430783308, -13.512499754347882, 20.254029858110055, -4.965851647335662, -3.265640936323629]

>  <energy>  (7) 
-819.491266645323

>  <inter_energy>  (7) 
-888.4221609858835

>  <intra_energy>  (7) 
75.54437430618988

>  <rmsd>  (7) 
4.10189

>  <sdf_rank>  (7) 
0

$$$$

     RDKit          3D

 50 52  0  0  0  0  0  0  0  0999 V2000
  -20.9321    4.2735   -7.7179 N   0  0  0  0  0  0  0  0  0  0  0  0
  -21.7427    5.1825   -8.2491 C   0  0  0  0  0  0  0  0  0  0  0  0
  -22.9991    5.0090   -8.2738 O   0  0  0  0  0  0  0  0  0  0  0  0
  -21.2264    6.3170   -8.8448 N   0  0  0  0  0  0  0  0  0  0  0  0
  -19.9051    6.6513   -8.8712 C   0  0  0  0  0  0  0  0  0  0  0  0
  -19.5328    7.6698   -9.4734 O   0  0  0  0  0  0  0  0  0  0  0  0
  -19.0155    5.7199   -8.2424 C   0  0  0  0  0  0  0  0  0  0  0  0
  -17.7074    5.9880   -8.2091 N   0  0  0  0  0  0  0  0  0  0  0  0
  -16.8826    5.0265   -7.7000 C   0  0  0  0  0  0  0  0  0  0  0  0
  -15.4891    5.2313   -7.7051 C   0  0  0  0  0  0  0  0  0  0  0  0
  -14.6182    4.2940   -7.2446 C   0  0  0  0  0  0  0  0  0  0  0  0
  -13.1311    4.5299   -7.3654 C   0  0  0  0  0  0  0  0  0  0  0  0
  -15.1238    3.1143   -6.6704 C   0  0  0  0  0  0  0  0  0  0  0  0
  -14.2048    2.0690   -6.0939 C   0  0  0  0  0  0  0  0  0  0  0  0
  -16.4881    2.8961   -6.6297 C   0  0  0  0  0  0  0  0  0  0  0  0
  -17.3935    3.8302   -7.1527 C   0  0  0  0  0  0  0  0  0  0  0  0
  -18.7741    3.5905   -7.1644 N   0  0  0  0  0  0  0  0  0  0  0  0
  -19.6200    4.5281   -7.7018 C   0  0  0  0  0  0  0  0  0  0  0  0
  -19.3114    2.2738   -6.7727 C   0  0  0  0  0  0  0  0  0  0  0  0
  -19.5213    1.2648   -7.8864 C   0  0  2  0  0  0  0  0  0  0  0  0
  -20.9196    1.0015   -8.0344 O   0  0  0  0  0  0  0  0  0  0  0  0
  -18.7517   -0.0118   -7.5824 C   0  0  2  0  0  0  0  0  0  0  0  0
  -19.5376   -1.1361   -7.9070 O   0  0  0  0  0  0  0  0  0  0  0  0
  -18.2844   -0.0999   -6.1199 C   0  0  2  0  0  0  0  0  0  0  0  0
  -16.8714   -0.0497   -6.0866 O   0  0  0  0  0  0  0  0  0  0  0  0
  -18.7966   -1.3379   -5.4307 C   0  0  0  0  0  0  0  0  0  0  0  0
  -17.7537   -2.2643   -5.0249 O   0  0  0  0  0  0  0  0  0  0  0  0
  -17.8325   -3.8038   -5.4810 P   0  0  2  0  0  0  0  0  0  0  0  0
  -17.1657   -4.6193   -4.4204 O   0  0  0  0  0  0  0  0  0  0  0  0
  -17.0567   -3.8025   -6.8042 O   0  0  0  0  0  0  0  0  0  0  0  0
  -19.3118   -4.1495   -5.6392 O   0  0  0  0  0  0  0  0  0  0  0  0
  -21.8895    6.9582   -9.3033 H   0  0  0  0  0  0  0  0  0  0  0  0
  -15.0924    6.1806   -8.0943 H   0  0  0  0  0  0  0  0  0  0  0  0
  -12.6882    4.6002   -6.3610 H   0  0  0  0  0  0  0  0  0  0  0  0
  -12.6704    3.6936   -7.9117 H   0  0  0  0  0  0  0  0  0  0  0  0
  -12.9518    5.4677   -7.9117 H   0  0  0  0  0  0  0  0  0  0  0  0
  -14.2432    2.1126   -4.9954 H   0  0  0  0  0  0  0  0  0  0  0  0
  -14.5247    1.0725   -6.4327 H   0  0  0  0  0  0  0  0  0  0  0  0
  -13.1756    2.2585   -6.4327 H   0  0  0  0  0  0  0  0  0  0  0  0
  -16.8717    1.9697   -6.1773 H   0  0  0  0  0  0  0  0  0  0  0  0
  -18.6120    1.8305   -6.0486 H   0  0  0  0  0  0  0  0  0  0  0  0
  -20.3163    2.4784   -6.3747 H   0  0  0  0  0  0  0  0  0  0  0  0
  -19.1410    1.6737   -8.8341 H   0  0  0  0  0  0  0  0  0  0  0  0
  -21.3371    0.9229   -7.1402 H   0  0  0  0  0  0  0  0  0  0  0  0
  -17.8446    0.0070   -8.2044 H   0  0  0  0  0  0  0  0  0  0  0  0
  -19.8447   -1.5755   -7.0747 H   0  0  0  0  0  0  0  0  0  0  0  0
  -18.7015    0.7555   -5.5683 H   0  0  0  0  0  0  0  0  0  0  0  0
  -16.5637   -0.0388   -5.1457 H   0  0  0  0  0  0  0  0  0  0  0  0
  -19.3526   -1.0288   -4.5333 H   0  0  0  0  0  0  0  0  0  0  0  0
  -19.4274   -1.8688   -6.1588 H   0  0  0  0  0  0  0  0  0  0  0  0
  1  2  1  0
  1 18  2  0
  2  3  2  0
  2  4  1  0
  4  5  1  0
  5  6  2  0
  5  7  1  0
  7  8  2  0
  7 18  1  0
  8  9  1  0
  9 10  1  0
  9 16  2  0
 10 11  2  0
 11 12  1  0
 11 13  1  0
 13 14  1  0
 13 15  2  0
 15 16  1  0
 16 17  1  0
 17 18  1  0
 17 19  1  0
 19 20  1  0
 20 21  1  0
 20 22  1  0
 22 23  1  0
 22 24  1  0
 24 25  1  0
 24 26  1  0
 26 27  1  0
 27 28  1  0
 28 29  2  0
 28 30  1  6
 28 31  1  0
  4 32  1  0
 10 33  1  0
 12 34  1  0
 12 35  1  0
 12 36  1  0
 14 37  1  0
 14 38  1  0
 14 39  1  0
 15 40  1  0
 19 41  1  0
 19 42  1  0
 20 43  1  6
 21 44  1  0
 22 45  1  6
 23 46  1  0
 24 47  1  1
 25 48  1  0
 26 49  1  0
 26 50  1  0
M  CHG  2  30  -1  31  -1
M  END
>  <filename_input>  (8) 
7PGX_FMN_docked.sdf

>  <pdb_id>  (8) 
7PGX_FMN

>  <pose_rank>  (8) 
7

>  <num_atoms_heavy>  (8) 
31

>  <num_torsions>  (8) 
7

>  <pose>  (8) 
[-20.93210256074184, 4.273525621598316, -7.717897914704019, 2.965045720996545, 0.7294486989754578, -0.213492476927201, 34.504508080425566, 55.24454421762765, 1.4941230437129511, 11.660193325695325, 1.192267533196802, 8.740192861748493, 4.727718805562072]

>  <energy>  (8) 
-671.2815259836768

>  <inter_energy>  (8) 
-682.05433109937

>  <intra_energy>  (8) 
20.255176449157318

>  <rmsd>  (8) 
7.31095

>  <sdf_rank>  (8) 
0

$$$$

     RDKit          3D

 50 52  0  0  0  0  0  0  0  0999 V2000
  -17.3161    5.2209   -7.9080 N   0  0  0  0  0  0  0  0  0  0  0  0
  -16.1455    5.8340   -8.0472 C   0  0  0  0  0  0  0  0  0  0  0  0
  -16.0688    7.0012   -8.5384 O   0  0  0  0  0  0  0  0  0  0  0  0
  -14.9724    5.1855   -7.7136 N   0  0  0  0  0  0  0  0  0  0  0  0
  -14.8995    3.9455   -7.1518 C   0  0  0  0  0  0  0  0  0  0  0  0
  -13.7949    3.4261   -6.9314 O   0  0  0  0  0  0  0  0  0  0  0  0
  -16.1542    3.2904   -6.9265 C   0  0  0  0  0  0  0  0  0  0  0  0
  -16.1661    2.0809   -6.3600 N   0  0  0  0  0  0  0  0  0  0  0  0
  -17.3704    1.4451   -6.2632 C   0  0  0  0  0  0  0  0  0  0  0  0
  -17.4278    0.1401   -5.7364 C   0  0  0  0  0  0  0  0  0  0  0  0
  -18.5935   -0.5547   -5.6497 C   0  0  0  0  0  0  0  0  0  0  0  0
  -18.5782   -1.9858   -5.1667 C   0  0  0  0  0  0  0  0  0  0  0  0
  -19.7943    0.0750   -6.0222 C   0  0  0  0  0  0  0  0  0  0  0  0
  -21.1196   -0.6293   -5.8926 C   0  0  0  0  0  0  0  0  0  0  0  0
  -19.7719    1.3642   -6.5204 C   0  0  0  0  0  0  0  0  0  0  0  0
  -18.5695    2.0701   -6.6673 C   0  0  0  0  0  0  0  0  0  0  0  0
  -18.5338    3.3562   -7.2228 N   0  0  0  0  0  0  0  0  0  0  0  0
  -17.3305    4.0014   -7.3612 C   0  0  0  0  0  0  0  0  0  0  0  0
  -19.7439    3.9492   -7.8225 C   0  0  0  0  0  0  0  0  0  0  0  0
  -20.9359    4.1413   -6.9033 C   0  0  2  0  0  0  0  0  0  0  0  0
  -21.0192    3.0403   -5.9937 O   0  0  0  0  0  0  0  0  0  0  0  0
  -22.2096    4.2719   -7.7250 C   0  0  2  0  0  0  0  0  0  0  0  0
  -22.0335    3.6650   -8.9851 O   0  0  0  0  0  0  0  0  0  0  0  0
  -22.6660    5.7298   -7.9014 C   0  0  2  0  0  0  0  0  0  0  0  0
  -23.8070    5.9532   -7.0962 O   0  0  0  0  0  0  0  0  0  0  0  0
  -22.9474    6.0695   -9.3420 C   0  0  0  0  0  0  0  0  0  0  0  0
  -23.0704    7.4936   -9.6016 O   0  0  0  0  0  0  0  0  0  0  0  0
  -21.8459    8.2911  -10.2715 P   0  0  2  0  0  0  0  0  0  0  0  0
  -20.5895    7.5646   -9.9134 O   0  0  0  0  0  0  0  0  0  0  0  0
  -21.9420    9.6718   -9.6103 O   0  0  0  0  0  0  0  0  0  0  0  0
  -22.0969    8.3151  -11.7779 O   0  0  0  0  0  0  0  0  0  0  0  0
  -14.0865    5.6754   -7.9034 H   0  0  0  0  0  0  0  0  0  0  0  0
  -16.4993   -0.3325   -5.3835 H   0  0  0  0  0  0  0  0  0  0  0  0
  -18.5780   -2.0017   -4.0668 H   0  0  0  0  0  0  0  0  0  0  0  0
  -19.4708   -2.5086   -5.5408 H   0  0  0  0  0  0  0  0  0  0  0  0
  -17.6746   -2.4894   -5.5408 H   0  0  0  0  0  0  0  0  0  0  0  0
  -21.3635   -0.7589   -4.8279 H   0  0  0  0  0  0  0  0  0  0  0  0
  -21.9031   -0.0286   -6.3777 H   0  0  0  0  0  0  0  0  0  0  0  0
  -21.0601   -1.6148   -6.3777 H   0  0  0  0  0  0  0  0  0  0  0  0
  -20.7177    1.8466   -6.8078 H   0  0  0  0  0  0  0  0  0  0  0  0
  -19.4685    4.9364   -8.2219 H   0  0  0  0  0  0  0  0  0  0  0  0
  -20.0766    3.2239   -8.5797 H   0  0  0  0  0  0  0  0  0  0  0  0
  -20.8103    5.0661   -6.3212 H   0  0  0  0  0  0  0  0  0  0  0  0
  -20.9936    3.3781   -5.0635 H   0  0  0  0  0  0  0  0  0  0  0  0
  -23.0041    3.7565   -7.1655 H   0  0  0  0  0  0  0  0  0  0  0  0
  -21.7597    2.7217   -8.8617 H   0  0  0  0  0  0  0  0  0  0  0  0
  -21.8481    6.3925   -7.5819 H   0  0  0  0  0  0  0  0  0  0  0  0
  -23.5518    5.9033   -6.1409 H   0  0  0  0  0  0  0  0  0  0  0  0
  -22.1247    5.6759   -9.9570 H   0  0  0  0  0  0  0  0  0  0  0  0
  -23.9182    5.6162   -9.5913 H   0  0  0  0  0  0  0  0  0  0  0  0
  1  2  1  0
  1 18  2  0
  2  3  2  0
  2  4  1  0
  4  5  1  0
  5  6  2  0
  5  7  1  0
  7  8  2  0
  7 18  1  0
  8  9  1  0
  9 10  1  0
  9 16  2  0
 10 11  2  0
 11 12  1  0
 11 13  1  0
 13 14  1  0
 13 15  2  0
 15 16  1  0
 16 17  1  0
 17 18  1  0
 17 19  1  0
 19 20  1  0
 20 21  1  0
 20 22  1  0
 22 23  1  0
 22 24  1  0
 24 25  1  0
 24 26  1  0
 26 27  1  0
 27 28  1  0
 28 29  2  0
 28 30  1  1
 28 31  1  0
  4 32  1  0
 10 33  1  0
 12 34  1  0
 12 35  1  0
 12 36  1  0
 14 37  1  0
 14 38  1  0
 14 39  1  0
 15 40  1  0
 19 41  1  0
 19 42  1  0
 20 43  1  1
 21 44  1  0
 22 45  1  1
 23 46  1  0
 24 47  1  1
 25 48  1  0
 26 49  1  0
 26 50  1  0
M  CHG  2  30  -1  31  -1
M  END
>  <filename_input>  (9) 
7PGX_FMN_docked.sdf

>  <pdb_id>  (9) 
7PGX_FMN

>  <pose_rank>  (9) 
8

>  <num_atoms_heavy>  (9) 
31

>  <num_torsions>  (9) 
7

>  <pose>  (9) 
[-17.316131832582585, 5.220938166618996, -7.90804337018407, 2.593903872911888, -1.670703412023925, 0.8482427357534188, 12.043165328545788, -6.248386326061526, -13.077457892789194, -7.068137016778019, 2.5571530880108493, 0.16286269439809617, 0.5943113143537231]

>  <energy>  (9) 
-732.8302022998438

>  <inter_energy>  (9) 
-814.137571766636

>  <intra_energy>  (9) 
108.9898355687969

>  <rmsd>  (9) 
4.94315

>  <sdf_rank>  (9) 
0

$$$$

     RDKit          3D

 50 52  0  0  0  0  0  0  0  0999 V2000
  -20.7536    0.6299   -5.8572 N   0  0  0  0  0  0  0  0  0  0  0  0
  -21.0316   -0.5744   -5.3694 C   0  0  0  0  0  0  0  0  0  0  0  0
  -22.2297   -0.9499   -5.1881 O   0  0  0  0  0  0  0  0  0  0  0  0
  -20.0134   -1.4272   -4.9895 N   0  0  0  0  0  0  0  0  0  0  0  0
  -18.6835   -1.1734   -5.1489 C   0  0  0  0  0  0  0  0  0  0  0  0
  -17.8411   -1.9827   -4.7317 O   0  0  0  0  0  0  0  0  0  0  0  0
  -18.3584    0.0920   -5.7383 C   0  0  0  0  0  0  0  0  0  0  0  0
  -17.0766    0.4046   -5.9462 N   0  0  0  0  0  0  0  0  0  0  0  0
  -16.8038    1.6606   -6.4068 C   0  0  0  0  0  0  0  0  0  0  0  0
  -15.4650    2.0634   -6.5776 C   0  0  0  0  0  0  0  0  0  0  0  0
  -15.1333    3.3133   -6.9983 C   0  0  0  0  0  0  0  0  0  0  0  0
  -13.6800    3.7186   -7.0691 C   0  0  0  0  0  0  0  0  0  0  0  0
  -16.1572    4.2098   -7.3522 C   0  0  0  0  0  0  0  0  0  0  0  0
  -15.8441    5.5864   -7.8778 C   0  0  0  0  0  0  0  0  0  0  0  0
  -17.4806    3.8341   -7.2178 C   0  0  0  0  0  0  0  0  0  0  0  0
  -17.8350    2.5678   -6.7313 C   0  0  0  0  0  0  0  0  0  0  0  0
  -19.1739    2.2005   -6.5407 N   0  0  0  0  0  0  0  0  0  0  0  0
  -19.4710    0.9550   -6.0468 C   0  0  0  0  0  0  0  0  0  0  0  0
  -20.2542    3.1932   -6.6930 C   0  0  0  0  0  0  0  0  0  0  0  0
  -20.0621    4.2502   -7.7647 C   0  0  2  0  0  0  0  0  0  0  0  0
  -19.6472    5.4766   -7.1563 O   0  0  0  0  0  0  0  0  0  0  0  0
  -21.3528    4.4355   -8.5485 C   0  0  2  0  0  0  0  0  0  0  0  0
  -21.2115    5.4987   -9.4634 O   0  0  0  0  0  0  0  0  0  0  0  0
  -22.5759    4.6746   -7.6475 C   0  0  2  0  0  0  0  0  0  0  0  0
  -23.5594    3.7021   -7.9427 O   0  0  0  0  0  0  0  0  0  0  0  0
  -23.1318    6.0669   -7.7974 C   0  0  0  0  0  0  0  0  0  0  0  0
  -24.5821    6.1344   -7.7441 O   0  0  0  0  0  0  0  0  0  0  0  0
  -25.4246    6.2789   -9.1055 P   0  0  2  0  0  0  0  0  0  0  0  0
  -24.5557    6.9840  -10.0967 O   0  0  0  0  0  0  0  0  0  0  0  0
  -26.6293    7.1212   -8.6675 O   0  0  0  0  0  0  0  0  0  0  0  0
  -25.7958    4.8672   -9.5552 O   0  0  0  0  0  0  0  0  0  0  0  0
  -20.2789   -2.3216   -4.5531 H   0  0  0  0  0  0  0  0  0  0  0  0
  -14.6614    1.3435   -6.3635 H   0  0  0  0  0  0  0  0  0  0  0  0
  -13.2804    3.8301   -6.0504 H   0  0  0  0  0  0  0  0  0  0  0  0
  -13.1093    2.9454   -7.6043 H   0  0  0  0  0  0  0  0  0  0  0  0
  -13.5919    4.6756   -7.6043 H   0  0  0  0  0  0  0  0  0  0  0  0
  -15.6876    6.2744   -7.0339 H   0  0  0  0  0  0  0  0  0  0  0  0
  -14.9322    5.5459   -8.4917 H   0  0  0  0  0  0  0  0  0  0  0  0
  -16.6838    5.9442   -8.4917 H   0  0  0  0  0  0  0  0  0  0  0  0
  -18.2727    4.5438   -7.4985 H   0  0  0  0  0  0  0  0  0  0  0  0
  -21.1793    2.6459   -6.9266 H   0  0  0  0  0  0  0  0  0  0  0  0
  -20.2750    3.7460   -5.7422 H   0  0  0  0  0  0  0  0  0  0  0  0
  -19.2804    3.9276   -8.4682 H   0  0  0  0  0  0  0  0  0  0  0  0
  -19.6787    5.3835   -6.1712 H   0  0  0  0  0  0  0  0  0  0  0  0
  -21.5358    3.4947   -9.0884 H   0  0  0  0  0  0  0  0  0  0  0  0
  -21.0987    6.3480   -8.9674 H   0  0  0  0  0  0  0  0  0  0  0  0
  -22.2600    4.5796   -6.5981 H   0  0  0  0  0  0  0  0  0  0  0  0
  -23.9274    3.3382   -7.0987 H   0  0  0  0  0  0  0  0  0  0  0  0
  -22.7267    6.6899   -6.9864 H   0  0  0  0  0  0  0  0  0  0  0  0
  -22.8338    6.4222   -8.7949 H   0  0  0  0  0  0  0  0  0  0  0  0
  1  2  1  0
  1 18  2  0
  2  3  2  0
  2  4  1  0
  4  5  1  0
  5  6  2  0
  5  7  1  0
  7  8  2  0
  7 18  1  0
  8  9  1  0
  9 10  1  0
  9 16  2  0
 10 11  2  0
 11 12  1  0
 11 13  1  0
 13 14  1  0
 13 15  2  0
 15 16  1  0
 16 17  1  0
 17 18  1  0
 17 19  1  0
 19 20  1  0
 20 21  1  0
 20 22  1  0
 22 23  1  0
 22 24  1  0
 24 25  1  0
 24 26  1  0
 26 27  1  0
 27 28  1  0
 28 29  2  0
 28 30  1  1
 28 31  1  0
  4 32  1  0
 10 33  1  0
 12 34  1  0
 12 35  1  0
 12 36  1  0
 14 37  1  0
 14 38  1  0
 14 39  1  0
 15 40  1  0
 19 41  1  0
 19 42  1  0
 20 43  1  6
 21 44  1  0
 22 45  1  6
 23 46  1  0
 24 47  1  1
 25 48  1  0
 26 49  1  0
 26 50  1  0
M  CHG  2  30  -1  31  -1
M  END
>  <filename_input>  (10) 
7PGX_FMN_docked.sdf

>  <pdb_id>  (10) 
7PGX_FMN

>  <pose_rank>  (10) 
9

>  <num_atoms_heavy>  (10) 
31

>  <num_torsions>  (10) 
7

>  <pose>  (10) 
[-20.753612588807577, 0.6298589567374606, -5.857230632289549, 2.6632871809155207, 0.20141672577435393, -5.751797864735703, -19.82301961258403, -32.504880955922125, -4.152758717490084, 11.484784580124217, 1.6566297398114689, -3.390475002319243, -5.709076713847014]

>  <energy>  (10) 
-1068.977572085216

>  <inter_energy>  (10) 
-1135.8293969197669

>  <intra_energy>  (10) 
72.22426665376437

>  <rmsd>  (10) 
0.810134

>  <sdf_rank>  (10) 
0

$$$$

     RDKit          3D

 50 52  0  0  0  0  0  0  0  0999 V2000
  -21.4929    3.4349   -7.7183 N   0  0  0  0  0  0  0  0  0  0  0  0
  -22.3634    4.2377   -8.3209 C   0  0  0  0  0  0  0  0  0  0  0  0
  -23.6045    3.9751   -8.3278 O   0  0  0  0  0  0  0  0  0  0  0  0
  -21.9260    5.3523   -9.0099 N   0  0  0  0  0  0  0  0  0  0  0  0
  -20.6312    5.7751   -9.0674 C   0  0  0  0  0  0  0  0  0  0  0  0
  -20.3293    6.7638   -9.7528 O   0  0  0  0  0  0  0  0  0  0  0  0
  -19.6807    4.9636   -8.3659 C   0  0  0  0  0  0  0  0  0  0  0  0
  -18.3947    5.3245   -8.3584 N   0  0  0  0  0  0  0  0  0  0  0  0
  -17.5062    4.4686   -7.7735 C   0  0  0  0  0  0  0  0  0  0  0  0
  -16.1304    4.7695   -7.7992 C   0  0  0  0  0  0  0  0  0  0  0  0
  -15.1974    3.9369   -7.2650 C   0  0  0  0  0  0  0  0  0  0  0  0
  -13.7302    4.2656   -7.4089 C   0  0  0  0  0  0  0  0  0  0  0  0
  -15.6209    2.7762   -6.5937 C   0  0  0  0  0  0  0  0  0  0  0  0
  -14.6329    1.8492   -5.9350 C   0  0  0  0  0  0  0  0  0  0  0  0
  -16.9668    2.4671   -6.5315 C   0  0  0  0  0  0  0  0  0  0  0  0
  -17.9337    3.2889   -7.1276 C   0  0  0  0  0  0  0  0  0  0  0  0
  -19.2941    2.9529   -7.1159 N   0  0  0  0  0  0  0  0  0  0  0  0
  -20.2019    3.7812   -7.7269 C   0  0  0  0  0  0  0  0  0  0  0  0
  -19.7391    1.6388   -6.6150 C   0  0  0  0  0  0  0  0  0  0  0  0
  -20.1782    1.5758   -5.1639 C   0  0  2  0  0  0  0  0  0  0  0  0
  -20.0686    2.8751   -4.5754 O   0  0  0  0  0  0  0  0  0  0  0  0
  -19.3346    0.5589   -4.4097 C   0  0  2  0  0  0  0  0  0  0  0  0
  -18.7965   -0.3824   -5.3106 O   0  0  0  0  0  0  0  0  0  0  0  0
  -20.1126   -0.1623   -3.2964 C   0  0  2  0  0  0  0  0  0  0  0  0
  -20.8370   -1.2357   -3.8651 O   0  0  0  0  0  0  0  0  0  0  0  0
  -21.0286    0.7685   -2.5450 C   0  0  0  0  0  0  0  0  0  0  0  0
  -20.3917    1.4596   -1.4371 O   0  0  0  0  0  0  0  0  0  0  0  0
  -21.0446    1.3863    0.0300 P   0  0  2  0  0  0  0  0  0  0  0  0
  -20.3110    2.3598    0.8953 O   0  0  0  0  0  0  0  0  0  0  0  0
  -20.7969   -0.0721    0.4357 O   0  0  0  0  0  0  0  0  0  0  0  0
  -22.5235    1.7373   -0.1192 O   0  0  0  0  0  0  0  0  0  0  0  0
  -22.6309    5.9053   -9.5181 H   0  0  0  0  0  0  0  0  0  0  0  0
  -15.7999    5.7087   -8.2668 H   0  0  0  0  0  0  0  0  0  0  0  0
  -13.2776    4.3670   -6.4114 H   0  0  0  0  0  0  0  0  0  0  0  0
  -13.2259    3.4582   -7.9600 H   0  0  0  0  0  0  0  0  0  0  0  0
  -13.6185    5.2110   -7.9600 H   0  0  0  0  0  0  0  0  0  0  0  0
  -14.7231    1.9338   -4.8420 H   0  0  0  0  0  0  0  0  0  0  0  0
  -14.8416    0.8135   -6.2411 H   0  0  0  0  0  0  0  0  0  0  0  0
  -13.6125    2.1235   -6.2411 H   0  0  0  0  0  0  0  0  0  0  0  0
  -17.2860    1.5568   -6.0029 H   0  0  0  0  0  0  0  0  0  0  0  0
  -20.5887    1.3161   -7.2347 H   0  0  0  0  0  0  0  0  0  0  0  0
  -18.8527    0.9904   -6.6772 H   0  0  0  0  0  0  0  0  0  0  0  0
  -21.2288    1.2547   -5.1077 H   0  0  0  0  0  0  0  0  0  0  0  0
  -20.0756    2.7922   -3.5889 H   0  0  0  0  0  0  0  0  0  0  0  0
  -18.5243    1.1180   -3.9192 H   0  0  0  0  0  0  0  0  0  0  0  0
  -18.3744   -1.1206   -4.8036 H   0  0  0  0  0  0  0  0  0  0  0  0
  -19.3917   -0.5471   -2.5600 H   0  0  0  0  0  0  0  0  0  0  0  0
  -21.2160   -1.7972   -3.1432 H   0  0  0  0  0  0  0  0  0  0  0  0
  -21.4090    1.5225   -3.2499 H   0  0  0  0  0  0  0  0  0  0  0  0
  -21.8285    0.1481   -2.1147 H   0  0  0  0  0  0  0  0  0  0  0  0
  1  2  1  0
  1 18  2  0
  2  3  2  0
  2  4  1  0
  4  5  1  0
  5  6  2  0
  5  7  1  0
  7  8  2  0
  7 18  1  0
  8  9  1  0
  9 10  1  0
  9 16  2  0
 10 11  2  0
 11 12  1  0
 11 13  1  0
 13 14  1  0
 13 15  2  0
 15 16  1  0
 16 17  1  0
 17 18  1  0
 17 19  1  0
 19 20  1  0
 20 21  1  0
 20 22  1  0
 22 23  1  0
 22 24  1  0
 24 25  1  0
 24 26  1  0
 26 27  1  0
 27 28  1  0
 28 29  2  0
 28 30  1  1
 28 31  1  0
  4 32  1  0
 10 33  1  0
 12 34  1  0
 12 35  1  0
 12 36  1  0
 14 37  1  0
 14 38  1  0
 14 39  1  0
 15 40  1  0
 19 41  1  0
 19 42  1  0
 20 43  1  6
 21 44  1  0
 22 45  1  1
 23 46  1  0
 24 47  1  1
 25 48  1  0
 26 49  1  0
 26 50  1  0
M  CHG  2  30  -1  31  -1
M  END
>  <filename_input>  (11) 
7PGX_FMN_docked.sdf

>  <pdb_id>  (11) 
7PGX_FMN

>  <pose_rank>  (11) 
10

>  <num_atoms_heavy>  (11) 
31

>  <num_torsions>  (11) 
7

>  <pose>  (11) 
[-21.492850932507828, 3.4348513819170594, -7.71833861087213, 2.8558500113856518, 0.8026909389370535, -0.23264303514895657, 0.07423480966909402, 0.6952392828415164, -1.330054719350852, -3.7482178396972596, -2.3410779810342914, -3.8263795369119085, -1.9183013072017006]

>  <energy>  (11) 
-770.5471268900452

>  <inter_energy>  (11) 
-779.2829870975947

>  <intra_energy>  (11) 
16.74519422561081

>  <rmsd>  (11) 
6.72166

>  <sdf_rank>  (11) 
0

$$$$

     RDKit          3D

 50 52  0  0  0  0  0  0  0  0999 V2000
  -17.6257    3.3273   -6.4835 N   0  0  0  0  0  0  0  0  0  0  0  0
  -16.3470    3.2842   -6.8422 C   0  0  0  0  0  0  0  0  0  0  0  0
  -15.4959    2.6304   -6.1658 O   0  0  0  0  0  0  0  0  0  0  0  0
  -15.9021    4.0051   -7.9334 N   0  0  0  0  0  0  0  0  0  0  0  0
  -16.7009    4.7286   -8.7682 C   0  0  0  0  0  0  0  0  0  0  0  0
  -16.2009    5.3827   -9.6960 O   0  0  0  0  0  0  0  0  0  0  0  0
  -18.0967    4.7341   -8.4429 C   0  0  0  0  0  0  0  0  0  0  0  0
  -18.9463    5.4039   -9.2262 N   0  0  0  0  0  0  0  0  0  0  0  0
  -20.2485    5.4760   -8.8222 C   0  0  0  0  0  0  0  0  0  0  0  0
  -21.1704    6.2277   -9.5764 C   0  0  0  0  0  0  0  0  0  0  0  0
  -22.4706    6.3644   -9.2025 C   0  0  0  0  0  0  0  0  0  0  0  0
  -23.3883    7.2623   -9.9982 C   0  0  0  0  0  0  0  0  0  0  0  0
  -22.9333    5.6697   -8.0710 C   0  0  0  0  0  0  0  0  0  0  0  0
  -24.3768    5.7410   -7.6457 C   0  0  0  0  0  0  0  0  0  0  0  0
  -22.0568    4.9048   -7.3244 C   0  0  0  0  0  0  0  0  0  0  0  0
  -20.7015    4.8018   -7.6681 C   0  0  0  0  0  0  0  0  0  0  0  0
  -19.7965    4.0731   -6.8846 N   0  0  0  0  0  0  0  0  0  0  0  0
  -18.4758    4.0144   -7.2528 C   0  0  0  0  0  0  0  0  0  0  0  0
  -20.2073    3.5210   -5.5799 C   0  0  0  0  0  0  0  0  0  0  0  0
  -21.2303    2.4006   -5.6058 C   0  0  2  0  0  0  0  0  0  0  0  0
  -21.1998    1.6977   -4.3602 O   0  0  0  0  0  0  0  0  0  0  0  0
  -20.9462    1.4647   -6.7711 C   0  0  2  0  0  0  0  0  0  0  0  0
  -21.5922    1.9334   -7.9330 O   0  0  0  0  0  0  0  0  0  0  0  0
  -21.3577    0.0099   -6.4898 C   0  0  2  0  0  0  0  0  0  0  0  0
  -21.8107   -0.0878   -5.1536 O   0  0  0  0  0  0  0  0  0  0  0  0
  -20.2360   -0.9613   -6.7515 C   0  0  0  0  0  0  0  0  0  0  0  0
  -19.6534   -1.5313   -5.5489 O   0  0  0  0  0  0  0  0  0  0  0  0
  -18.6309   -0.6590   -4.6670 P   0  0  2  0  0  0  0  0  0  0  0  0
  -17.4968   -1.5533   -4.2816 O   0  0  0  0  0  0  0  0  0  0  0  0
  -19.4920   -0.2423   -3.4680 O   0  0  0  0  0  0  0  0  0  0  0  0
  -18.1797    0.5149   -5.5338 O   0  0  0  0  0  0  0  0  0  0  0  0
  -14.8913    3.9951   -8.1311 H   0  0  0  0  0  0  0  0  0  0  0  0
  -20.8273    6.7203  -10.4982 H   0  0  0  0  0  0  0  0  0  0  0  0
  -24.0016    7.8623   -9.3098 H   0  0  0  0  0  0  0  0  0  0  0  0
  -22.7877    7.9312  -10.6321 H   0  0  0  0  0  0  0  0  0  0  0  0
  -24.0439    6.6472  -10.6321 H   0  0  0  0  0  0  0  0  0  0  0  0
  -24.4357    5.7439   -6.5472 H   0  0  0  0  0  0  0  0  0  0  0  0
  -24.8300    6.6626   -8.0396 H   0  0  0  0  0  0  0  0  0  0  0  0
  -24.9186    4.8685   -8.0396 H   0  0  0  0  0  0  0  0  0  0  0  0
  -22.4307    4.3653   -6.4417 H   0  0  0  0  0  0  0  0  0  0  0  0
  -19.3050    3.1371   -5.0814 H   0  0  0  0  0  0  0  0  0  0  0  0
  -20.7024    4.3526   -5.0571 H   0  0  0  0  0  0  0  0  0  0  0  0
  -22.2374    2.8207   -5.7448 H   0  0  0  0  0  0  0  0  0  0  0  0
  -21.2280    2.3476   -3.6138 H   0  0  0  0  0  0  0  0  0  0  0  0
  -19.8563    1.4628   -6.9199 H   0  0  0  0  0  0  0  0  0  0  0  0
  -22.3662    2.4949   -7.6766 H   0  0  0  0  0  0  0  0  0  0  0  0
  -22.1695   -0.2627   -7.1801 H   0  0  0  0  0  0  0  0  0  0  0  0
  -21.0543    0.0754   -4.5360 H   0  0  0  0  0  0  0  0  0  0  0  0
  -20.6275   -1.7832   -7.3689 H   0  0  0  0  0  0  0  0  0  0  0  0
  -19.4373   -0.3962   -7.2542 H   0  0  0  0  0  0  0  0  0  0  0  0
  1  2  1  0
  1 18  2  0
  2  3  2  0
  2  4  1  0
  4  5  1  0
  5  6  2  0
  5  7  1  0
  7  8  2  0
  7 18  1  0
  8  9  1  0
  9 10  1  0
  9 16  2  0
 10 11  2  0
 11 12  1  0
 11 13  1  0
 13 14  1  0
 13 15  2  0
 15 16  1  0
 16 17  1  0
 17 18  1  0
 17 19  1  0
 19 20  1  0
 20 21  1  0
 20 22  1  0
 22 23  1  0
 22 24  1  0
 24 25  1  0
 24 26  1  0
 26 27  1  0
 27 28  1  0
 28 29  2  0
 28 30  1  1
 28 31  1  0
  4 32  1  0
 10 33  1  0
 12 34  1  0
 12 35  1  0
 12 36  1  0
 14 37  1  0
 14 38  1  0
 14 39  1  0
 15 40  1  0
 19 41  1  0
 19 42  1  0
 20 43  1  6
 21 44  1  0
 22 45  1  6
 23 46  1  0
 24 47  1  6
 25 48  1  0
 26 49  1  0
 26 50  1  0
M  CHG  2  30  -1  31  -1
M  END
>  <filename_input>  (12) 
7PGX_FMN_docked.sdf

>  <pdb_id>  (12) 
7PGX_FMN

>  <pose_rank>  (12) 
11

>  <num_atoms_heavy>  (12) 
31

>  <num_torsions>  (12) 
7

>  <pose>  (12) 
[-17.6256500073603, 3.3273390548685415, -6.483479820589737, -0.19729907450815024, 1.3215451330938068, 1.41680851677363, -0.40340615537349783, -2.780161968130539, -2.446989083754309, 1.0066759368182179, 1.05839215519082, 3.315091250986968, -1.3242627266780087]

>  <energy>  (12) 
-645.074499081475

>  <inter_energy>  (12) 
-787.1560563174312

>  <intra_energy>  (12) 
148.36396567851207

>  <rmsd>  (12) 
7.03915

>  <sdf_rank>  (12) 
0

$$$$

     RDKit          3D

 50 52  0  0  0  0  0  0  0  0999 V2000
  -19.2470    2.8315   -7.1475 N   0  0  0  0  0  0  0  0  0  0  0  0
  -19.0508    1.8842   -6.2367 C   0  0  0  0  0  0  0  0  0  0  0  0
  -17.9413    1.2753   -6.1496 O   0  0  0  0  0  0  0  0  0  0  0  0
  -20.0780    1.4967   -5.3983 N   0  0  0  0  0  0  0  0  0  0  0  0
  -21.3116    2.0757   -5.3573 C   0  0  0  0  0  0  0  0  0  0  0  0
  -22.1856    1.6252   -4.6012 O   0  0  0  0  0  0  0  0  0  0  0  0
  -21.5258    3.1483   -6.2834 C   0  0  0  0  0  0  0  0  0  0  0  0
  -22.7029    3.7797   -6.2892 N   0  0  0  0  0  0  0  0  0  0  0  0
  -22.9057    4.7201   -7.2579 C   0  0  0  0  0  0  0  0  0  0  0  0
  -24.1540    5.3659   -7.3501 C   0  0  0  0  0  0  0  0  0  0  0  0
  -24.4244    6.2837   -8.3164 C   0  0  0  0  0  0  0  0  0  0  0  0
  -25.8120    6.8706   -8.4246 C   0  0  0  0  0  0  0  0  0  0  0  0
  -23.4026    6.6624   -9.2050 C   0  0  0  0  0  0  0  0  0  0  0  0
  -23.6320    7.7154  -10.2576 C   0  0  0  0  0  0  0  0  0  0  0  0
  -22.1597    6.0630   -9.1234 C   0  0  0  0  0  0  0  0  0  0  0  0
  -21.8864    5.0746   -8.1674 C   0  0  0  0  0  0  0  0  0  0  0  0
  -20.6463    4.4240   -8.1147 N   0  0  0  0  0  0  0  0  0  0  0  0
  -20.4310    3.4513   -7.1709 C   0  0  0  0  0  0  0  0  0  0  0  0
  -19.6379    4.6428   -9.1687 C   0  0  0  0  0  0  0  0  0  0  0  0
  -18.9044    5.9710   -9.1446 C   0  0  2  0  0  0  0  0  0  0  0  0
  -19.3866    6.8017  -10.2048 O   0  0  0  0  0  0  0  0  0  0  0  0
  -17.4058    5.7389   -9.2676 C   0  0  2  0  0  0  0  0  0  0  0  0
  -17.1607    4.5331   -9.9556 O   0  0  0  0  0  0  0  0  0  0  0  0
  -16.6845    5.7269   -7.9096 C   0  0  2  0  0  0  0  0  0  0  0  0
  -15.3015    5.9308   -8.1237 O   0  0  0  0  0  0  0  0  0  0  0  0
  -16.9297    4.4524   -7.1443 C   0  0  0  0  0  0  0  0  0  0  0  0
  -16.0215    3.3716   -7.4871 O   0  0  0  0  0  0  0  0  0  0  0  0
  -14.7754    3.0418   -6.5266 P   0  0  2  0  0  0  0  0  0  0  0  0
  -13.5275    3.3194   -7.3014 O   0  0  0  0  0  0  0  0  0  0  0  0
  -14.9679    1.5500   -6.2263 O   0  0  0  0  0  0  0  0  0  0  0  0
  -14.9089    3.9361   -5.2956 O   0  0  0  0  0  0  0  0  0  0  0  0
  -19.8985    0.7117   -4.7561 H   0  0  0  0  0  0  0  0  0  0  0  0
  -24.9358    5.1197   -6.6165 H   0  0  0  0  0  0  0  0  0  0  0  0
  -26.2173    7.0420   -7.4164 H   0  0  0  0  0  0  0  0  0  0  0  0
  -25.7648    7.8258   -8.9681 H   0  0  0  0  0  0  0  0  0  0  0  0
  -26.4645    6.1714   -8.9681 H   0  0  0  0  0  0  0  0  0  0  0  0
  -23.8421    8.6798   -9.7718 H   0  0  0  0  0  0  0  0  0  0  0  0
  -22.7332    7.8089  -10.8847 H   0  0  0  0  0  0  0  0  0  0  0  0
  -24.4883    7.4266  -10.8847 H   0  0  0  0  0  0  0  0  0  0  0  0
  -21.3681    6.3681   -9.8236 H   0  0  0  0  0  0  0  0  0  0  0  0
  -18.8857    3.8450   -9.0812 H   0  0  0  0  0  0  0  0  0  0  0  0
  -20.2017    4.6410  -10.1132 H   0  0  0  0  0  0  0  0  0  0  0  0
  -19.0921    6.4813   -8.1884 H   0  0  0  0  0  0  0  0  0  0  0  0
  -19.8452    7.5915   -9.8226 H   0  0  0  0  0  0  0  0  0  0  0  0
  -16.9974    6.5875   -9.8360 H   0  0  0  0  0  0  0  0  0  0  0  0
  -17.0126    3.8045   -9.3019 H   0  0  0  0  0  0  0  0  0  0  0  0
  -17.0906    6.5412   -7.2916 H   0  0  0  0  0  0  0  0  0  0  0  0
  -14.8390    5.9990   -7.2510 H   0  0  0  0  0  0  0  0  0  0  0  0
  -16.8214    4.6675   -6.0710 H   0  0  0  0  0  0  0  0  0  0  0  0
  -17.9419    4.1127   -7.4090 H   0  0  0  0  0  0  0  0  0  0  0  0
  1  2  1  0
  1 18  2  0
  2  3  2  0
  2  4  1  0
  4  5  1  0
  5  6  2  0
  5  7  1  0
  7  8  2  0
  7 18  1  0
  8  9  1  0
  9 10  1  0
  9 16  2  0
 10 11  2  0
 11 12  1  0
 11 13  1  0
 13 14  1  0
 13 15  2  0
 15 16  1  0
 16 17  1  0
 17 18  1  0
 17 19  1  0
 19 20  1  0
 20 21  1  0
 20 22  1  0
 22 23  1  0
 22 24  1  0
 24 25  1  0
 24 26  1  0
 26 27  1  0
 27 28  1  0
 28 29  2  0
 28 30  1  1
 28 31  1  0
  4 32  1  0
 10 33  1  0
 12 34  1  0
 12 35  1  0
 12 36  1  0
 14 37  1  0
 14 38  1  0
 14 39  1  0
 15 40  1  0
 19 41  1  0
 19 42  1  0
 20 43  1  1
 21 44  1  0
 22 45  1  6
 23 46  1  0
 24 47  1  1
 25 48  1  0
 26 49  1  0
 26 50  1  0
M  CHG  2  30  -1  31  -1
M  END
>  <filename_input>  (13) 
7PGX_FMN_docked.sdf

>  <pdb_id>  (13) 
7PGX_FMN

>  <pose_rank>  (13) 
12

>  <num_atoms_heavy>  (13) 
31

>  <num_torsions>  (13) 
7

>  <pose>  (13) 
[-19.24697469981352, 2.831517752287638, -7.1475321288599325, -0.10422363711775602, -2.3059119378537134, 1.6174518487124239, 5.993771317233388, -7.451094507598755, 12.11341428939733, -20.589482616856603, -24.463640107458275, 0.1407765942033511, -0.9536607996427727]

>  <energy>  (13) 
-669.2063327586839

>  <inter_energy>  (13) 
-743.4779357911926

>  <intra_energy>  (13) 
72.07883083998419

>  <rmsd>  (13) 
7.21427

>  <sdf_rank>  (13) 
0

$$$$

     RDKit          3D

 50 52  0  0  0  0  0  0  0  0999 V2000
  -18.4254    1.3566   -6.3006 N   0  0  0  0  0  0  0  0  0  0  0  0
  -18.4521    0.2858   -5.5143 C   0  0  0  0  0  0  0  0  0  0  0  0
  -17.4217   -0.4361   -5.3513 O   0  0  0  0  0  0  0  0  0  0  0  0
  -19.6272   -0.1020   -4.9005 N   0  0  0  0  0  0  0  0  0  0  0  0
  -20.8024    0.5863   -4.9607 C   0  0  0  0  0  0  0  0  0  0  0  0
  -21.8186    0.1316   -4.4137 O   0  0  0  0  0  0  0  0  0  0  0  0
  -20.7814    1.7845   -5.7469 C   0  0  0  0  0  0  0  0  0  0  0  0
  -21.8894    2.5249   -5.8371 N   0  0  0  0  0  0  0  0  0  0  0  0
  -21.8606    3.5970   -6.6820 C   0  0  0  0  0  0  0  0  0  0  0  0
  -23.0239    4.3697   -6.8653 C   0  0  0  0  0  0  0  0  0  0  0  0
  -23.0638    5.4258   -7.7210 C   0  0  0  0  0  0  0  0  0  0  0  0
  -24.3661    6.1563   -7.9489 C   0  0  0  0  0  0  0  0  0  0  0  0
  -21.8866    5.8119   -8.3860 C   0  0  0  0  0  0  0  0  0  0  0  0
  -21.8617    7.0085   -9.3010 C   0  0  0  0  0  0  0  0  0  0  0  0
  -20.7233    5.0868   -8.2073 C   0  0  0  0  0  0  0  0  0  0  0  0
  -20.6845    3.9621   -7.3712 C   0  0  0  0  0  0  0  0  0  0  0  0
  -19.5234    3.1905   -7.2285 N   0  0  0  0  0  0  0  0  0  0  0  0
  -19.5385    2.0885   -6.4107 C   0  0  0  0  0  0  0  0  0  0  0  0
  -18.3454    3.4413   -8.0800 C   0  0  0  0  0  0  0  0  0  0  0  0
  -18.5661    4.2971   -9.3135 C   0  0  2  0  0  0  0  0  0  0  0  0
  -18.3180    3.5165  -10.4864 O   0  0  0  0  0  0  0  0  0  0  0  0
  -17.6613    5.5193   -9.2663 C   0  0  2  0  0  0  0  0  0  0  0  0
  -16.5429    5.3223  -10.1015 O   0  0  0  0  0  0  0  0  0  0  0  0
  -17.2001    5.8729   -7.8426 C   0  0  2  0  0  0  0  0  0  0  0  0
  -16.2539    6.9216   -7.9148 O   0  0  0  0  0  0  0  0  0  0  0  0
  -16.6317    4.6826   -7.1145 C   0  0  0  0  0  0  0  0  0  0  0  0
  -15.4510    4.1135   -7.7411 O   0  0  0  0  0  0  0  0  0  0  0  0
  -14.1741    3.7351   -6.8410 P   0  0  2  0  0  0  0  0  0  0  0  0
  -13.9603    4.8552   -5.8744 O   0  0  0  0  0  0  0  0  0  0  0  0
  -13.0510    3.6253   -7.8799 O   0  0  0  0  0  0  0  0  0  0  0  0
  -14.4930    2.4147   -6.1426 O   0  0  0  0  0  0  0  0  0  0  0  0
  -19.6146   -0.9767   -4.3566 H   0  0  0  0  0  0  0  0  0  0  0  0
  -23.9298    4.1104   -6.2977 H   0  0  0  0  0  0  0  0  0  0  0  0
  -24.8187    6.4102   -6.9790 H   0  0  0  0  0  0  0  0  0  0  0  0
  -24.1746    7.0787   -8.5169 H   0  0  0  0  0  0  0  0  0  0  0  0
  -25.0533    5.5120   -8.5169 H   0  0  0  0  0  0  0  0  0  0  0  0
  -21.8426    7.9294   -8.6997 H   0  0  0  0  0  0  0  0  0  0  0  0
  -20.9643    6.9662   -9.9356 H   0  0  0  0  0  0  0  0  0  0  0  0
  -22.7602    7.0035   -9.9356 H   0  0  0  0  0  0  0  0  0  0  0  0
  -19.8085    5.3990   -8.7324 H   0  0  0  0  0  0  0  0  0  0  0  0
  -17.5860    3.9400   -7.4599 H   0  0  0  0  0  0  0  0  0  0  0  0
  -18.0495    2.4534   -8.4627 H   0  0  0  0  0  0  0  0  0  0  0  0
  -19.6087    4.6466   -9.3410 H   0  0  0  0  0  0  0  0  0  0  0  0
  -18.0291    2.6071  -10.2225 H   0  0  0  0  0  0  0  0  0  0  0  0
  -18.2567    6.3708   -9.6274 H   0  0  0  0  0  0  0  0  0  0  0  0
  -15.7364    5.1803   -9.5451 H   0  0  0  0  0  0  0  0  0  0  0  0
  -18.0761    6.1998   -7.2632 H   0  0  0  0  0  0  0  0  0  0  0  0
  -16.0012    7.2016   -6.9995 H   0  0  0  0  0  0  0  0  0  0  0  0
  -16.3644    4.9966   -6.0947 H   0  0  0  0  0  0  0  0  0  0  0  0
  -17.4064    3.9019   -7.1288 H   0  0  0  0  0  0  0  0  0  0  0  0
  1  2  1  0
  1 18  2  0
  2  3  2  0
  2  4  1  0
  4  5  1  0
  5  6  2  0
  5  7  1  0
  7  8  2  0
  7 18  1  0
  8  9  1  0
  9 10  1  0
  9 16  2  0
 10 11  2  0
 11 12  1  0
 11 13  1  0
 13 14  1  0
 13 15  2  0
 15 16  1  0
 16 17  1  0
 17 18  1  0
 17 19  1  0
 19 20  1  0
 20 21  1  0
 20 22  1  0
 22 23  1  0
 22 24  1  0
 24 25  1  0
 24 26  1  0
 26 27  1  0
 27 28  1  0
 28 29  2  0
 28 30  1  6
 28 31  1  0
  4 32  1  0
 10 33  1  0
 12 34  1  0
 12 35  1  0
 12 36  1  0
 14 37  1  0
 14 38  1  0
 14 39  1  0
 15 40  1  0
 19 41  1  0
 19 42  1  0
 20 43  1  6
 21 44  1  0
 22 45  1  6
 23 46  1  0
 24 47  1  1
 25 48  1  0
 26 49  1  0
 26 50  1  0
M  CHG  2  30  -1  31  -1
M  END
>  <filename_input>  (14) 
7PGX_FMN_docked.sdf

>  <pdb_id>  (14) 
7PGX_FMN

>  <pose_rank>  (14) 
13

>  <num_atoms_heavy>  (14) 
31

>  <num_torsions>  (14) 
7

>  <pose>  (14) 
[-18.42543529885802, 1.3566058179421914, -6.300602087539252, -0.30655712577833594, -2.4814716018324954, 1.4512064725012588, 4.431757385753319, -7.621487176200309, 13.411630376840366, -21.019879085972224, -24.881410620074607, 0.725939514060754, 0.3109975772577321]

>  <energy>  (14) 
-679.11293790987

>  <inter_energy>  (14) 
-810.4473614719102

>  <intra_energy>  (14) 
147.64504914334515

>  <rmsd>  (14) 
6.63849

>  <sdf_rank>  (14) 
0

$$$$

     RDKit          3D

 50 52  0  0  0  0  0  0  0  0999 V2000
  -17.7754    3.1595   -7.2987 N   0  0  0  0  0  0  0  0  0  0  0  0
  -16.4596    3.3368   -7.2483 C   0  0  0  0  0  0  0  0  0  0  0  0
  -15.7079    2.5135   -6.6428 O   0  0  0  0  0  0  0  0  0  0  0  0
  -15.8835    4.4615   -7.8064 N   0  0  0  0  0  0  0  0  0  0  0  0
  -16.5574    5.4154   -8.5095 C   0  0  0  0  0  0  0  0  0  0  0  0
  -15.9586    6.4160   -8.9324 O   0  0  0  0  0  0  0  0  0  0  0  0
  -17.9701    5.2108   -8.6383 C   0  0  0  0  0  0  0  0  0  0  0  0
  -18.6962    6.0920   -9.3314 N   0  0  0  0  0  0  0  0  0  0  0  0
  -20.0508    5.9215   -9.3383 C   0  0  0  0  0  0  0  0  0  0  0  0
  -20.8670    6.8616   -9.9970 C   0  0  0  0  0  0  0  0  0  0  0  0
  -22.2232    6.7623  -10.0057 C   0  0  0  0  0  0  0  0  0  0  0  0
  -23.0498    7.8529  -10.6451 C   0  0  0  0  0  0  0  0  0  0  0  0
  -22.8308    5.6441   -9.4077 C   0  0  0  0  0  0  0  0  0  0  0  0
  -24.3252    5.4564   -9.4384 C   0  0  0  0  0  0  0  0  0  0  0  0
  -22.0537    4.6925   -8.7743 C   0  0  0  0  0  0  0  0  0  0  0  0
  -20.6583    4.8134   -8.7099 C   0  0  0  0  0  0  0  0  0  0  0  0
  -19.8695    3.8815   -8.0222 N   0  0  0  0  0  0  0  0  0  0  0  0
  -18.5085    4.0508   -7.9732 C   0  0  0  0  0  0  0  0  0  0  0  0
  -20.4955    2.8262   -7.2035 C   0  0  0  0  0  0  0  0  0  0  0  0
  -19.7449    1.5118   -7.0960 C   0  0  2  0  0  0  0  0  0  0  0  0
  -20.3063    0.5657   -8.0104 O   0  0  0  0  0  0  0  0  0  0  0  0
  -19.8044    0.9952   -5.6663 C   0  0  2  0  0  0  0  0  0  0  0  0
  -19.4232    2.0146   -4.7703 O   0  0  0  0  0  0  0  0  0  0  0  0
  -18.9383   -0.2554   -5.4410 C   0  0  2  0  0  0  0  0  0  0  0  0
  -17.8115   -0.1919   -6.2933 O   0  0  0  0  0  0  0  0  0  0  0  0
  -19.7095   -1.5309   -5.6605 C   0  0  0  0  0  0  0  0  0  0  0  0
  -20.6194   -1.8666   -4.5788 O   0  0  0  0  0  0  0  0  0  0  0  0
  -20.0432   -2.5066   -3.2214 P   0  0  2  0  0  0  0  0  0  0  0  0
  -19.0749   -3.5779   -3.6077 O   0  0  0  0  0  0  0  0  0  0  0  0
  -21.3053   -3.0617   -2.5493 O   0  0  0  0  0  0  0  0  0  0  0  0
  -19.3800   -1.3754   -2.4383 O   0  0  0  0  0  0  0  0  0  0  0  0
  -14.8690    4.5889   -7.6820 H   0  0  0  0  0  0  0  0  0  0  0  0
  -20.3919    7.7036  -10.5215 H   0  0  0  0  0  0  0  0  0  0  0  0
  -23.5157    8.4675   -9.8608 H   0  0  0  0  0  0  0  0  0  0  0  0
  -22.4021    8.4852  -11.2701 H   0  0  0  0  0  0  0  0  0  0  0  0
  -23.8337    7.4001  -11.2701 H   0  0  0  0  0  0  0  0  0  0  0  0
  -24.7100    5.4081   -8.4090 H   0  0  0  0  0  0  0  0  0  0  0  0
  -24.7904    6.3032   -9.9643 H   0  0  0  0  0  0  0  0  0  0  0  0
  -24.5665    4.5209   -9.9643 H   0  0  0  0  0  0  0  0  0  0  0  0
  -22.5404    3.8218   -8.3108 H   0  0  0  0  0  0  0  0  0  0  0  0
  -20.6192    3.2236   -6.1852 H   0  0  0  0  0  0  0  0  0  0  0  0
  -21.4362    2.5807   -7.7182 H   0  0  0  0  0  0  0  0  0  0  0  0
  -18.6877    1.6657   -7.3583 H   0  0  0  0  0  0  0  0  0  0  0  0
  -20.7402   -0.1657   -7.5035 H   0  0  0  0  0  0  0  0  0  0  0  0
  -20.8464    0.6973   -5.4781 H   0  0  0  0  0  0  0  0  0  0  0  0
  -19.5418    1.6975   -3.8400 H   0  0  0  0  0  0  0  0  0  0  0  0
  -18.6116   -0.2690   -4.3907 H   0  0  0  0  0  0  0  0  0  0  0  0
  -16.9870   -0.1455   -5.7474 H   0  0  0  0  0  0  0  0  0  0  0  0
  -20.2960   -1.4255   -6.5852 H   0  0  0  0  0  0  0  0  0  0  0  0
  -18.9701   -2.3434   -5.7173 H   0  0  0  0  0  0  0  0  0  0  0  0
  1  2  1  0
  1 18  2  0
  2  3  2  0
  2  4  1  0
  4  5  1  0
  5  6  2  0
  5  7  1  0
  7  8  2  0
  7 18  1  0
  8  9  1  0
  9 10  1  0
  9 16  2  0
 10 11  2  0
 11 12  1  0
 11 13  1  0
 13 14  1  0
 13 15  2  0
 15 16  1  0
 16 17  1  0
 17 18  1  0
 17 19  1  0
 19 20  1  0
 20 21  1  0
 20 22  1  0
 22 23  1  0
 22 24  1  0
 24 25  1  0
 24 26  1  0
 26 27  1  0
 27 28  1  0
 28 29  2  0
 28 30  1  1
 28 31  1  0
  4 32  1  0
 10 33  1  0
 12 34  1  0
 12 35  1  0
 12 36  1  0
 14 37  1  0
 14 38  1  0
 14 39  1  0
 15 40  1  0
 19 41  1  0
 19 42  1  0
 20 43  1  6
 21 44  1  0
 22 45  1  1
 23 46  1  0
 24 47  1  1
 25 48  1  0
 26 49  1  0
 26 50  1  0
M  CHG  2  30  -1  31  -1
M  END
>  <filename_input>  (15) 
7PGX_FMN_docked.sdf

>  <pdb_id>  (15) 
7PGX_FMN

>  <pose_rank>  (15) 
14

>  <num_atoms_heavy>  (15) 
31

>  <num_torsions>  (15) 
7

>  <pose>  (15) 
[-17.775449643616078, 3.1595053070518397, -7.298734194016013, 0.4826739306343014, -1.882753199441166, -3.994523004814767, 1.0161093084600958, -1.0458184147049785, -1.798590435762996, 1.6379731770653372, -2.1456395805091346, 3.3122466205586263, 0.26999782277891055]

>  <energy>  (15) 
-554.8198037525538

>  <inter_energy>  (15) 
-617.3902075159596

>  <intra_energy>  (15) 
54.13079906749034

>  <rmsd>  (15) 
7.61988

>  <sdf_rank>  (15) 
0

$$$$

     RDKit          3D

 50 52  0  0  0  0  0  0  0  0999 V2000
  -16.4587    2.0084   -6.9145 N   0  0  0  0  0  0  0  0  0  0  0  0
  -15.2157    2.4608   -6.7879 C   0  0  0  0  0  0  0  0  0  0  0  0
  -14.2592    1.6814   -6.4928 O   0  0  0  0  0  0  0  0  0  0  0  0
  -14.9459    3.8095   -6.9162 N   0  0  0  0  0  0  0  0  0  0  0  0
  -15.8627    4.7592   -7.2568 C   0  0  0  0  0  0  0  0  0  0  0  0
  -15.5338    5.9543   -7.3007 O   0  0  0  0  0  0  0  0  0  0  0  0
  -17.1990    4.2857   -7.4677 C   0  0  0  0  0  0  0  0  0  0  0  0
  -18.1497    5.1535   -7.8246 N   0  0  0  0  0  0  0  0  0  0  0  0
  -19.4288    4.6835   -7.9085 C   0  0  0  0  0  0  0  0  0  0  0  0
  -20.4779    5.5722   -8.2140 C   0  0  0  0  0  0  0  0  0  0  0  0
  -21.7746    5.1674   -8.2751 C   0  0  0  0  0  0  0  0  0  0  0  0
  -22.8663    6.1844   -8.5109 C   0  0  0  0  0  0  0  0  0  0  0  0
  -22.0739    3.8038   -8.1075 C   0  0  0  0  0  0  0  0  0  0  0  0
  -23.4867    3.2935   -8.2216 C   0  0  0  0  0  0  0  0  0  0  0  0
  -21.0619    2.9040   -7.8302 C   0  0  0  0  0  0  0  0  0  0  0  0
  -19.7282    3.3188   -7.7089 C   0  0  0  0  0  0  0  0  0  0  0  0
  -18.7055    2.4213   -7.3736 N   0  0  0  0  0  0  0  0  0  0  0  0
  -17.4170    2.8774   -7.2506 C   0  0  0  0  0  0  0  0  0  0  0  0
  -19.0218    1.0361   -6.9774 C   0  0  0  0  0  0  0  0  0  0  0  0
  -17.9810    0.3113   -6.1442 C   0  0  2  0  0  0  0  0  0  0  0  0
  -17.1661   -0.4979   -6.9972 O   0  0  0  0  0  0  0  0  0  0  0  0
  -18.6645   -0.5312   -5.0777 C   0  0  2  0  0  0  0  0  0  0  0  0
  -19.5927   -1.4064   -5.6776 O   0  0  0  0  0  0  0  0  0  0  0  0
  -19.3592    0.3132   -3.9963 C   0  0  2  0  0  0  0  0  0  0  0  0
  -19.1271   -0.2792   -2.7332 O   0  0  0  0  0  0  0  0  0  0  0  0
  -20.8350    0.4704   -4.2555 C   0  0  0  0  0  0  0  0  0  0  0  0
  -21.4522    1.5619   -3.5218 O   0  0  0  0  0  0  0  0  0  0  0  0
  -23.0067    1.9001   -3.7529 P   0  0  2  0  0  0  0  0  0  0  0  0
  -23.6637    0.6581   -4.2632 O   0  0  0  0  0  0  0  0  0  0  0  0
  -22.9553    3.0180   -4.8018 O   0  0  0  0  0  0  0  0  0  0  0  0
  -23.5729    2.3490   -2.4073 O   0  0  0  0  0  0  0  0  0  0  0  0
  -13.9797    4.1208   -6.7416 H   0  0  0  0  0  0  0  0  0  0  0  0
  -20.2404    6.6283   -8.4097 H   0  0  0  0  0  0  0  0  0  0  0  0
  -23.2498    6.5416   -7.5438 H   0  0  0  0  0  0  0  0  0  0  0  0
  -22.4599    7.0332   -9.0803 H   0  0  0  0  0  0  0  0  0  0  0  0
  -23.6843    5.7189   -9.0803 H   0  0  0  0  0  0  0  0  0  0  0  0
  -23.9045    3.1426   -7.2153 H   0  0  0  0  0  0  0  0  0  0  0  0
  -24.0988    4.0273   -8.7665 H   0  0  0  0  0  0  0  0  0  0  0  0
  -23.4885    2.3379   -8.7665 H   0  0  0  0  0  0  0  0  0  0  0  0
  -21.3083    1.8397   -7.7019 H   0  0  0  0  0  0  0  0  0  0  0  0
  -19.9557    1.0605   -6.3967 H   0  0  0  0  0  0  0  0  0  0  0  0
  -19.0815    0.4722   -7.9199 H   0  0  0  0  0  0  0  0  0  0  0  0
  -17.3357    1.0437   -5.6372 H   0  0  0  0  0  0  0  0  0  0  0  0
  -16.5832   -1.0767   -6.4447 H   0  0  0  0  0  0  0  0  0  0  0  0
  -17.8753   -1.1069   -4.5719 H   0  0  0  0  0  0  0  0  0  0  0  0
  -20.0990   -1.8837   -4.9734 H   0  0  0  0  0  0  0  0  0  0  0  0
  -18.9323    1.3267   -4.0174 H   0  0  0  0  0  0  0  0  0  0  0  0
  -19.3771    0.3588   -2.0186 H   0  0  0  0  0  0  0  0  0  0  0  0
  -20.9798    0.6513   -5.3308 H   0  0  0  0  0  0  0  0  0  0  0  0
  -21.3183   -0.4563   -3.9122 H   0  0  0  0  0  0  0  0  0  0  0  0
  1  2  1  0
  1 18  2  0
  2  3  2  0
  2  4  1  0
  4  5  1  0
  5  6  2  0
  5  7  1  0
  7  8  2  0
  7 18  1  0
  8  9  1  0
  9 10  1  0
  9 16  2  0
 10 11  2  0
 11 12  1  0
 11 13  1  0
 13 14  1  0
 13 15  2  0
 15 16  1  0
 16 17  1  0
 17 18  1  0
 17 19  1  0
 19 20  1  0
 20 21  1  0
 20 22  1  0
 22 23  1  0
 22 24  1  0
 24 25  1  0
 24 26  1  0
 26 27  1  0
 27 28  1  0
 28 29  2  0
 28 30  1  6
 28 31  1  0
  4 32  1  0
 10 33  1  0
 12 34  1  0
 12 35  1  0
 12 36  1  0
 14 37  1  0
 14 38  1  0
 14 39  1  0
 15 40  1  0
 19 41  1  0
 19 42  1  0
 20 43  1  1
 21 44  1  0
 22 45  1  1
 23 46  1  0
 24 47  1  1
 25 48  1  0
 26 49  1  0
 26 50  1  0
M  CHG  2  30  -1  31  -1
M  END
>  <filename_input>  (16) 
7PGX_FMN_docked.sdf

>  <pdb_id>  (16) 
7PGX_FMN

>  <pose_rank>  (16) 
15

>  <num_atoms_heavy>  (16) 
31

>  <num_torsions>  (16) 
7

>  <pose>  (16) 
[-16.458662163518607, 2.008419887822602, -6.914461524156807, 0.04163566686203006, -1.0048608460873967, -4.110378558581329, 1.9506412858988609, -1.0025673764338299, 0.04191384172447662, -1.3442087199735715, -3.659015239160965, -4.814271906015342, 1.477203592720236]

>  <energy>  (16) 
-648.2776136697549

>  <inter_energy>  (16) 
-732.2970169285446

>  <intra_energy>  (16) 
84.94536774675878

>  <rmsd>  (16) 
6.42123

>  <sdf_rank>  (16) 
0

$$$$

     RDKit          3D

 50 52  0  0  0  0  0  0  0  0999 V2000
  -19.6411    5.6764   -9.1248 N   0  0  0  0  0  0  0  0  0  0  0  0
  -20.2903    6.7185   -9.6328 C   0  0  0  0  0  0  0  0  0  0  0  0
  -19.7016    7.5613  -10.3761 O   0  0  0  0  0  0  0  0  0  0  0  0
  -21.6151    6.9417   -9.3113 N   0  0  0  0  0  0  0  0  0  0  0  0
  -22.3832    6.1117   -8.5499 C   0  0  0  0  0  0  0  0  0  0  0  0
  -23.5524    6.4226   -8.2762 O   0  0  0  0  0  0  0  0  0  0  0  0
  -21.7243    4.9425   -8.0467 C   0  0  0  0  0  0  0  0  0  0  0  0
  -22.4167    4.0700   -7.3096 N   0  0  0  0  0  0  0  0  0  0  0  0
  -21.7276    3.0282   -6.7585 C   0  0  0  0  0  0  0  0  0  0  0  0
  -22.3973    2.1186   -5.9171 C   0  0  0  0  0  0  0  0  0  0  0  0
  -21.7544    1.0841   -5.3123 C   0  0  0  0  0  0  0  0  0  0  0  0
  -22.5042    0.1997   -4.3441 C   0  0  0  0  0  0  0  0  0  0  0  0
  -20.3950    0.8640   -5.5962 C   0  0  0  0  0  0  0  0  0  0  0  0
  -19.6496   -0.3003   -4.9977 C   0  0  0  0  0  0  0  0  0  0  0  0
  -19.7171    1.7264   -6.4373 C   0  0  0  0  0  0  0  0  0  0  0  0
  -20.3555    2.8293   -7.0220 C   0  0  0  0  0  0  0  0  0  0  0  0
  -19.6608    3.7383   -7.8313 N   0  0  0  0  0  0  0  0  0  0  0  0
  -20.3253    4.8121   -8.3687 C   0  0  0  0  0  0  0  0  0  0  0  0
  -18.1941    3.6563   -7.9652 C   0  0  0  0  0  0  0  0  0  0  0  0
  -17.4290    4.9646   -7.8909 C   0  0  2  0  0  0  0  0  0  0  0  0
  -17.1911    5.4541   -9.2139 O   0  0  0  0  0  0  0  0  0  0  0  0
  -16.1227    4.7602   -7.1383 C   0  0  2  0  0  0  0  0  0  0  0  0
  -15.2108    5.7824   -7.4711 O   0  0  0  0  0  0  0  0  0  0  0  0
  -15.4880    3.3833   -7.3959 C   0  0  2  0  0  0  0  0  0  0  0  0
  -15.8182    2.9645   -8.7058 O   0  0  0  0  0  0  0  0  0  0  0  0
  -15.9155    2.3582   -6.3779 C   0  0  0  0  0  0  0  0  0  0  0  0
  -16.6218    1.2213   -6.9429 O   0  0  0  0  0  0  0  0  0  0  0  0
  -15.9808   -0.2491   -6.8366 P   0  0  2  0  0  0  0  0  0  0  0  0
  -16.6353   -0.9403   -5.6840 O   0  0  0  0  0  0  0  0  0  0  0  0
  -14.4972    0.0483   -6.5855 O   0  0  0  0  0  0  0  0  0  0  0  0
  -16.2475   -0.9518   -8.1662 O   0  0  0  0  0  0  0  0  0  0  0  0
  -22.0555    7.7992   -9.6739 H   0  0  0  0  0  0  0  0  0  0  0  0
  -23.4756    2.2493   -5.7435 H   0  0  0  0  0  0  0  0  0  0  0  0
  -22.2563    0.4921   -3.3131 H   0  0  0  0  0  0  0  0  0  0  0  0
  -23.5862    0.3124   -4.5071 H   0  0  0  0  0  0  0  0  0  0  0  0
  -22.2161   -0.8493   -4.5071 H   0  0  0  0  0  0  0  0  0  0  0  0
  -19.6903   -0.2367   -3.9003 H   0  0  0  0  0  0  0  0  0  0  0  0
  -20.1135   -1.2415   -5.3279 H   0  0  0  0  0  0  0  0  0  0  0  0
  -18.6007   -0.2730   -5.3279 H   0  0  0  0  0  0  0  0  0  0  0  0
  -18.6540    1.5435   -6.6525 H   0  0  0  0  0  0  0  0  0  0  0  0
  -17.8217    3.0061   -7.1600 H   0  0  0  0  0  0  0  0  0  0  0  0
  -18.0175    3.2755   -8.9820 H   0  0  0  0  0  0  0  0  0  0  0  0
  -18.0232    5.7115   -7.3441 H   0  0  0  0  0  0  0  0  0  0  0  0
  -16.7589    6.3433   -9.1641 H   0  0  0  0  0  0  0  0  0  0  0  0
  -16.3627    4.8029   -6.0657 H   0  0  0  0  0  0  0  0  0  0  0  0
  -14.8506    6.1861   -6.6420 H   0  0  0  0  0  0  0  0  0  0  0  0
  -14.3965    3.4786   -7.2986 H   0  0  0  0  0  0  0  0  0  0  0  0
  -16.4306    2.1880   -8.6595 H   0  0  0  0  0  0  0  0  0  0  0  0
  -15.0171    1.9863   -5.8637 H   0  0  0  0  0  0  0  0  0  0  0  0
  -16.6171    2.8611   -5.6962 H   0  0  0  0  0  0  0  0  0  0  0  0
  1  2  1  0
  1 18  2  0
  2  3  2  0
  2  4  1  0
  4  5  1  0
  5  6  2  0
  5  7  1  0
  7  8  2  0
  7 18  1  0
  8  9  1  0
  9 10  1  0
  9 16  2  0
 10 11  2  0
 11 12  1  0
 11 13  1  0
 13 14  1  0
 13 15  2  0
 15 16  1  0
 16 17  1  0
 17 18  1  0
 17 19  1  0
 19 20  1  0
 20 21  1  0
 20 22  1  0
 22 23  1  0
 22 24  1  0
 24 25  1  0
 24 26  1  0
 26 27  1  0
 27 28  1  0
 28 29  2  0
 28 30  1  1
 28 31  1  0
  4 32  1  0
 10 33  1  0
 12 34  1  0
 12 35  1  0
 12 36  1  0
 14 37  1  0
 14 38  1  0
 14 39  1  0
 15 40  1  0
 19 41  1  0
 19 42  1  0
 20 43  1  1
 21 44  1  0
 22 45  1  1
 23 46  1  0
 24 47  1  6
 25 48  1  0
 26 49  1  0
 26 50  1  0
M  CHG  2  30  -1  31  -1
M  END
>  <filename_input>  (17) 
7PGX_FMN_docked.sdf

>  <pdb_id>  (17) 
7PGX_FMN

>  <pose_rank>  (17) 
16

>  <num_atoms_heavy>  (17) 
31

>  <num_torsions>  (17) 
7

>  <pose>  (17) 
[-19.64113759855872, 5.676398524211465, -9.124755630284278, 0.5862849692568921, 1.651597932960017, 3.372186113295338, -3.960127418601684, 5.302767242099977, 1.8501054930105558, 14.190910829049347, -11.314245627671786, -24.72105356505649, -3.4958705970263644]

>  <energy>  (17) 
-599.7895083268093

>  <inter_energy>  (17) 
-750.4920149325766

>  <intra_energy>  (17) 
145.57503367913603

>  <rmsd>  (17) 
7.85133

>  <sdf_rank>  (17) 
0

$$$$

     RDKit          3D

 50 52  0  0  0  0  0  0  0  0999 V2000
  -20.7820    6.4550   -8.9534 N   0  0  0  0  0  0  0  0  0  0  0  0
  -21.6177    7.2788   -9.5767 C   0  0  0  0  0  0  0  0  0  0  0  0
  -21.1882    8.2095  -10.3243 O   0  0  0  0  0  0  0  0  0  0  0  0
  -22.9805    7.1769   -9.3751 N   0  0  0  0  0  0  0  0  0  0  0  0
  -23.5879    6.2145   -8.6245 C   0  0  0  0  0  0  0  0  0  0  0  0
  -24.8177    6.2344   -8.4639 O   0  0  0  0  0  0  0  0  0  0  0  0
  -22.7112    5.2701   -7.9971 C   0  0  0  0  0  0  0  0  0  0  0  0
  -23.2329    4.2844   -7.2619 N   0  0  0  0  0  0  0  0  0  0  0  0
  -22.3627    3.4728   -6.5926 C   0  0  0  0  0  0  0  0  0  0  0  0
  -22.8629    2.4614   -5.7495 C   0  0  0  0  0  0  0  0  0  0  0  0
  -22.0441    1.6476   -5.0309 C   0  0  0  0  0  0  0  0  0  0  0  0
  -22.6395    0.6460   -4.0696 C   0  0  0  0  0  0  0  0  0  0  0  0
  -20.6521    1.7627   -5.1926 C   0  0  0  0  0  0  0  0  0  0  0  0
  -19.7019    0.8486   -4.4639 C   0  0  0  0  0  0  0  0  0  0  0  0
  -20.1324    2.7305   -6.0317 C   0  0  0  0  0  0  0  0  0  0  0  0
  -20.9655    3.6124   -6.7344 C   0  0  0  0  0  0  0  0  0  0  0  0
  -20.4440    4.6309   -7.5434 N   0  0  0  0  0  0  0  0  0  0  0  0
  -21.2995    5.4802   -8.1993 C   0  0  0  0  0  0  0  0  0  0  0  0
  -18.9962    4.9129   -7.5564 C   0  0  0  0  0  0  0  0  0  0  0  0
  -18.1041    3.9305   -6.8204 C   0  0  2  0  0  0  0  0  0  0  0  0
  -18.0898    4.2511   -5.4263 O   0  0  0  0  0  0  0  0  0  0  0  0
  -16.7003    3.9647   -7.4057 C   0  0  2  0  0  0  0  0  0  0  0  0
  -16.7219    4.5847   -8.6716 O   0  0  0  0  0  0  0  0  0  0  0  0
  -16.0578    2.5716   -7.5122 C   0  0  2  0  0  0  0  0  0  0  0  0
  -17.0741    1.5912   -7.4340 O   0  0  0  0  0  0  0  0  0  0  0  0
  -15.0074    2.3452   -6.4561 C   0  0  0  0  0  0  0  0  0  0  0  0
  -15.0446    3.3071   -5.3680 O   0  0  0  0  0  0  0  0  0  0  0  0
  -13.9570    4.4895   -5.3110 P   0  0  2  0  0  0  0  0  0  0  0  0
  -14.2005    5.3784   -6.4879 O   0  0  0  0  0  0  0  0  0  0  0  0
  -12.6283    3.7291   -5.4065 O   0  0  0  0  0  0  0  0  0  0  0  0
  -14.1526    5.2152   -3.9813 O   0  0  0  0  0  0  0  0  0  0  0  0
  -23.5828    7.8807   -9.8255 H   0  0  0  0  0  0  0  0  0  0  0  0
  -23.9516    2.3254   -5.6698 H   0  0  0  0  0  0  0  0  0  0  0  0
  -22.4468    0.9702   -3.0363 H   0  0  0  0  0  0  0  0  0  0  0  0
  -23.7247    0.5782   -4.2363 H   0  0  0  0  0  0  0  0  0  0  0  0
  -22.1807   -0.3397   -4.2363 H   0  0  0  0  0  0  0  0  0  0  0  0
  -19.8322    0.9740   -3.3788 H   0  0  0  0  0  0  0  0  0  0  0  0
  -19.9125   -0.1950   -4.7403 H   0  0  0  0  0  0  0  0  0  0  0  0
  -18.6672    1.0995   -4.7403 H   0  0  0  0  0  0  0  0  0  0  0  0
  -19.0418    2.8104   -6.1506 H   0  0  0  0  0  0  0  0  0  0  0  0
  -18.6706    4.9364   -8.6069 H   0  0  0  0  0  0  0  0  0  0  0  0
  -18.8824    5.8657   -7.0187 H   0  0  0  0  0  0  0  0  0  0  0  0
  -18.4977    2.9103   -6.9399 H   0  0  0  0  0  0  0  0  0  0  0  0
  -18.1270    3.4163   -4.8953 H   0  0  0  0  0  0  0  0  0  0  0  0
  -16.0790    4.5480   -6.7103 H   0  0  0  0  0  0  0  0  0  0  0  0
  -16.7562    5.5675   -8.5571 H   0  0  0  0  0  0  0  0  0  0  0  0
  -15.5422    2.4983   -8.4812 H   0  0  0  0  0  0  0  0  0  0  0  0
  -17.2741    1.3983   -6.4838 H   0  0  0  0  0  0  0  0  0  0  0  0
  -15.1529    1.3399   -6.0338 H   0  0  0  0  0  0  0  0  0  0  0  0
  -14.0310    2.4611   -6.9493 H   0  0  0  0  0  0  0  0  0  0  0  0
  1  2  1  0
  1 18  2  0
  2  3  2  0
  2  4  1  0
  4  5  1  0
  5  6  2  0
  5  7  1  0
  7  8  2  0
  7 18  1  0
  8  9  1  0
  9 10  1  0
  9 16  2  0
 10 11  2  0
 11 12  1  0
 11 13  1  0
 13 14  1  0
 13 15  2  0
 15 16  1  0
 16 17  1  0
 17 18  1  0
 17 19  1  0
 19 20  1  0
 20 21  1  0
 20 22  1  0
 22 23  1  0
 22 24  1  0
 24 25  1  0
 24 26  1  0
 26 27  1  0
 27 28  1  0
 28 29  2  0
 28 30  1  6
 28 31  1  0
  4 32  1  0
 10 33  1  0
 12 34  1  0
 12 35  1  0
 12 36  1  0
 14 37  1  0
 14 38  1  0
 14 39  1  0
 15 40  1  0
 19 41  1  0
 19 42  1  0
 20 43  1  1
 21 44  1  0
 22 45  1  1
 23 46  1  0
 24 47  1  6
 25 48  1  0
 26 49  1  0
 26 50  1  0
M  CHG  2  30  -1  31  -1
M  END
>  <filename_input>  (18) 
7PGX_FMN_docked.sdf

>  <pdb_id>  (18) 
7PGX_FMN

>  <pose_rank>  (18) 
17

>  <num_atoms_heavy>  (18) 
31

>  <num_torsions>  (18) 
7

>  <pose>  (18) 
[-20.78204069230669, 6.455025982764212, -8.953359472670313, 0.28599508323120953, 2.0079776772755653, 3.4165331076448497, -1.4388495119677058, -0.7588201549522641, 5.069515600258387, 1.4004951867367197, -0.5669395960782827, 2.8600616539562647, 2.210842366879653]

>  <energy>  (18) 
-498.9108595194035

>  <inter_energy>  (18) 
-588.377000762336

>  <intra_energy>  (18) 
105.66003408873385

>  <rmsd>  (18) 
8.14545

>  <sdf_rank>  (18) 
0

$$$$

     RDKit          3D

 50 52  0  0  0  0  0  0  0  0999 V2000
  -22.3762    6.1788   -9.8699 N   0  0  0  0  0  0  0  0  0  0  0  0
  -23.4761    6.8751  -10.1364 C   0  0  0  0  0  0  0  0  0  0  0  0
  -23.5381    7.6475  -11.1409 O   0  0  0  0  0  0  0  0  0  0  0  0
  -24.5627    6.8190   -9.2853 N   0  0  0  0  0  0  0  0  0  0  0  0
  -24.6520    6.0169   -8.1866 C   0  0  0  0  0  0  0  0  0  0  0  0
  -25.6524    6.0721   -7.4554 O   0  0  0  0  0  0  0  0  0  0  0  0
  -23.5038    5.2026   -7.9165 C   0  0  0  0  0  0  0  0  0  0  0  0
  -23.5235    4.3743   -6.8688 N   0  0  0  0  0  0  0  0  0  0  0  0
  -22.3726    3.6984   -6.5817 C   0  0  0  0  0  0  0  0  0  0  0  0
  -22.3198    2.8650   -5.4474 C   0  0  0  0  0  0  0  0  0  0  0  0
  -21.1901    2.1963   -5.0926 C   0  0  0  0  0  0  0  0  0  0  0  0
  -21.1650    1.3951   -3.8123 C   0  0  0  0  0  0  0  0  0  0  0  0
  -20.0600    2.2728   -5.9257 C   0  0  0  0  0  0  0  0  0  0  0  0
  -18.8019    1.5070   -5.6094 C   0  0  0  0  0  0  0  0  0  0  0  0
  -20.0901    3.0641   -7.0588 C   0  0  0  0  0  0  0  0  0  0  0  0
  -21.2306    3.8027   -7.4043 C   0  0  0  0  0  0  0  0  0  0  0  0
  -21.2492    4.6493   -8.5208 N   0  0  0  0  0  0  0  0  0  0  0  0
  -22.3841    5.3648   -8.8098 C   0  0  0  0  0  0  0  0  0  0  0  0
  -20.0139    4.9173   -9.2810 C   0  0  0  0  0  0  0  0  0  0  0  0
  -19.3027    6.2250   -8.9864 C   0  0  2  0  0  0  0  0  0  0  0  0
  -19.0528    6.9188  -10.2122 O   0  0  0  0  0  0  0  0  0  0  0  0
  -18.0077    5.9540   -8.2353 C   0  0  2  0  0  0  0  0  0  0  0  0
  -17.2519    7.1399   -8.1363 O   0  0  0  0  0  0  0  0  0  0  0  0
  -17.1610    4.8415   -8.8759 C   0  0  2  0  0  0  0  0  0  0  0  0
  -17.4951    4.7433  -10.2466 O   0  0  0  0  0  0  0  0  0  0  0  0
  -17.3394    3.5166   -8.1810 C   0  0  0  0  0  0  0  0  0  0  0  0
  -16.0936    2.8286   -7.8887 O   0  0  0  0  0  0  0  0  0  0  0  0
  -15.3052    3.1508   -6.5254 P   0  0  2  0  0  0  0  0  0  0  0  0
  -14.1345    4.0107   -6.8780 O   0  0  0  0  0  0  0  0  0  0  0  0
  -14.8919    1.7563   -6.0384 O   0  0  0  0  0  0  0  0  0  0  0  0
  -16.2888    3.8574   -5.5947 O   0  0  0  0  0  0  0  0  0  0  0  0
  -25.3655    7.4288   -9.4966 H   0  0  0  0  0  0  0  0  0  0  0  0
  -23.2219    2.7513   -4.8283 H   0  0  0  0  0  0  0  0  0  0  0  0
  -21.1865    2.0792   -2.9512 H   0  0  0  0  0  0  0  0  0  0  0  0
  -22.0428    0.7331   -3.7767 H   0  0  0  0  0  0  0  0  0  0  0  0
  -20.2474    0.7895   -3.7767 H   0  0  0  0  0  0  0  0  0  0  0  0
  -18.6817    1.4338   -4.5184 H   0  0  0  0  0  0  0  0  0  0  0  0
  -18.8697    0.4968   -6.0394 H   0  0  0  0  0  0  0  0  0  0  0  0
  -17.9357    2.0311   -6.0394 H   0  0  0  0  0  0  0  0  0  0  0  0
  -19.2001    3.1153   -7.7032 H   0  0  0  0  0  0  0  0  0  0  0  0
  -19.3089    4.0996   -9.0704 H   0  0  0  0  0  0  0  0  0  0  0  0
  -20.3312    4.9911  -10.3316 H   0  0  0  0  0  0  0  0  0  0  0  0
  -19.9386    6.8582   -8.3503 H   0  0  0  0  0  0  0  0  0  0  0  0
  -18.7241    7.8314  -10.0138 H   0  0  0  0  0  0  0  0  0  0  0  0
  -18.2889    5.6007   -7.2323 H   0  0  0  0  0  0  0  0  0  0  0  0
  -17.1103    7.3622   -7.1820 H   0  0  0  0  0  0  0  0  0  0  0  0
  -16.0987    5.1059   -8.7685 H   0  0  0  0  0  0  0  0  0  0  0  0
  -18.4410    4.4654  -10.3367 H   0  0  0  0  0  0  0  0  0  0  0  0
  -17.8680    3.6923   -7.2324 H   0  0  0  0  0  0  0  0  0  0  0  0
  -17.9050    2.8709   -8.8687 H   0  0  0  0  0  0  0  0  0  0  0  0
  1  2  1  0
  1 18  2  0
  2  3  2  0
  2  4  1  0
  4  5  1  0
  5  6  2  0
  5  7  1  0
  7  8  2  0
  7 18  1  0
  8  9  1  0
  9 10  1  0
  9 16  2  0
 10 11  2  0
 11 12  1  0
 11 13  1  0
 13 14  1  0
 13 15  2  0
 15 16  1  0
 16 17  1  0
 17 18  1  0
 17 19  1  0
 19 20  1  0
 20 21  1  0
 20 22  1  0
 22 23  1  0
 22 24  1  0
 24 25  1  0
 24 26  1  0
 26 27  1  0
 27 28  1  0
 28 29  2  0
 28 30  1  1
 28 31  1  0
  4 32  1  0
 10 33  1  0
 12 34  1  0
 12 35  1  0
 12 36  1  0
 14 37  1  0
 14 38  1  0
 14 39  1  0
 15 40  1  0
 19 41  1  0
 19 42  1  0
 20 43  1  1
 21 44  1  0
 22 45  1  1
 23 46  1  0
 24 47  1  6
 25 48  1  0
 26 49  1  0
 26 50  1  0
M  CHG  2  30  -1  31  -1
M  END
>  <filename_input>  (19) 
7PGX_FMN_docked.sdf

>  <pdb_id>  (19) 
7PGX_FMN

>  <pose_rank>  (19) 
18

>  <num_atoms_heavy>  (19) 
31

>  <num_torsions>  (19) 
7

>  <pose>  (19) 
[-22.376207998995596, 6.178833984045163, -9.869902743856617, -0.6892866069858584, -1.0045254203918095, -1.6592440090854537, 2.953019514559725, -1.5594712355403502, 2.069556549330615, 1.5046531985090787, -3.1476417640771706, -0.10507931447657587, -0.7552074773702524]

>  <energy>  (19) 
-624.8949073950231

>  <inter_energy>  (19) 
-692.2716716841011

>  <intra_energy>  (19) 
79.45162493195438

>  <rmsd>  (19) 
7.60631

>  <sdf_rank>  (19) 
0

$$$$

     RDKit          3D

 50 52  0  0  0  0  0  0  0  0999 V2000
  -21.1493    7.4108   -9.6535 N   0  0  0  0  0  0  0  0  0  0  0  0
  -20.3383    8.2487  -10.2904 C   0  0  0  0  0  0  0  0  0  0  0  0
  -19.0779    8.1550  -10.1805 O   0  0  0  0  0  0  0  0  0  0  0  0
  -20.8547    9.2852  -11.0435 N   0  0  0  0  0  0  0  0  0  0  0  0
  -22.1817    9.4953  -11.2745 C   0  0  0  0  0  0  0  0  0  0  0  0
  -22.5510   10.4838  -11.9264 O   0  0  0  0  0  0  0  0  0  0  0  0
  -23.0759    8.5622  -10.6548 C   0  0  0  0  0  0  0  0  0  0  0  0
  -24.3909    8.6898  -10.8516 N   0  0  0  0  0  0  0  0  0  0  0  0
  -25.2136    7.8502  -10.1572 C   0  0  0  0  0  0  0  0  0  0  0  0
  -26.6102    7.9887  -10.2766 C   0  0  0  0  0  0  0  0  0  0  0  0
  -27.4773    7.2050   -9.5815 C   0  0  0  0  0  0  0  0  0  0  0  0
  -28.9623    7.4646   -9.6761 C   0  0  0  0  0  0  0  0  0  0  0  0
  -26.9691    6.1691   -8.7779 C   0  0  0  0  0  0  0  0  0  0  0  0
  -27.8869    5.2364   -8.0315 C   0  0  0  0  0  0  0  0  0  0  0  0
  -25.6030    5.9938   -8.6600 C   0  0  0  0  0  0  0  0  0  0  0  0
  -24.6984    6.8315   -9.3274 C   0  0  0  0  0  0  0  0  0  0  0  0
  -23.3129    6.6940   -9.1688 N   0  0  0  0  0  0  0  0  0  0  0  0
  -22.4670    7.5484   -9.8306 C   0  0  0  0  0  0  0  0  0  0  0  0
  -22.7602    5.7644   -8.1657 C   0  0  0  0  0  0  0  0  0  0  0  0
  -22.3700    4.3834   -8.6586 C   0  0  2  0  0  0  0  0  0  0  0  0
  -23.5057    3.5158   -8.5956 O   0  0  0  0  0  0  0  0  0  0  0  0
  -21.2182    3.8410   -7.8258 C   0  0  2  0  0  0  0  0  0  0  0  0
  -21.2389    4.4207   -6.5410 O   0  0  0  0  0  0  0  0  0  0  0  0
  -19.8446    4.0612   -8.4813 C   0  0  2  0  0  0  0  0  0  0  0  0
  -19.8124    3.3768   -9.7185 O   0  0  0  0  0  0  0  0  0  0  0  0
  -18.7107    3.6217   -7.5919 C   0  0  0  0  0  0  0  0  0  0  0  0
  -17.7055    4.6457   -7.3641 O   0  0  0  0  0  0  0  0  0  0  0  0
  -16.3094    4.5838   -8.1584 P   0  0  2  0  0  0  0  0  0  0  0  0
  -16.5106    3.7023   -9.3488 O   0  0  0  0  0  0  0  0  0  0  0  0
  -15.3592    3.9725   -7.1211 O   0  0  0  0  0  0  0  0  0  0  0  0
  -15.9508    6.0166   -8.5474 O   0  0  0  0  0  0  0  0  0  0  0  0
  -20.1873    9.9489  -11.4617 H   0  0  0  0  0  0  0  0  0  0  0  0
  -27.0127    8.7559  -10.9544 H   0  0  0  0  0  0  0  0  0  0  0  0
  -29.3867    7.5388   -8.6639 H   0  0  0  0  0  0  0  0  0  0  0  0
  -29.1361    8.4068  -10.2165 H   0  0  0  0  0  0  0  0  0  0  0  0
  -29.4455    6.6373  -10.2165 H   0  0  0  0  0  0  0  0  0  0  0  0
  -27.7499    5.3756   -6.9490 H   0  0  0  0  0  0  0  0  0  0  0  0
  -28.9307    5.4562   -8.3003 H   0  0  0  0  0  0  0  0  0  0  0  0
  -27.6503    4.1963   -8.3003 H   0  0  0  0  0  0  0  0  0  0  0  0
  -25.2174    5.1795   -8.0289 H   0  0  0  0  0  0  0  0  0  0  0  0
  -21.8612    6.2319   -7.7377 H   0  0  0  0  0  0  0  0  0  0  0  0
  -23.5762    5.5953   -7.4477 H   0  0  0  0  0  0  0  0  0  0  0  0
  -22.0346    4.4437   -9.7045 H   0  0  0  0  0  0  0  0  0  0  0  0
  -23.7350    3.3406   -7.6486 H   0  0  0  0  0  0  0  0  0  0  0  0
  -21.3632    2.7531   -7.7514 H   0  0  0  0  0  0  0  0  0  0  0  0
  -21.2134    3.7063   -5.8561 H   0  0  0  0  0  0  0  0  0  0  0  0
  -19.7064    5.1398   -8.6476 H   0  0  0  0  0  0  0  0  0  0  0  0
  -19.7666    2.4015   -9.5549 H   0  0  0  0  0  0  0  0  0  0  0  0
  -19.1294    3.3258   -6.6187 H   0  0  0  0  0  0  0  0  0  0  0  0
  -18.2065    2.7909   -8.1073 H   0  0  0  0  0  0  0  0  0  0  0  0
  1  2  1  0
  1 18  2  0
  2  3  2  0
  2  4  1  0
  4  5  1  0
  5  6  2  0
  5  7  1  0
  7  8  2  0
  7 18  1  0
  8  9  1  0
  9 10  1  0
  9 16  2  0
 10 11  2  0
 11 12  1  0
 11 13  1  0
 13 14  1  0
 13 15  2  0
 15 16  1  0
 16 17  1  0
 17 18  1  0
 17 19  1  0
 19 20  1  0
 20 21  1  0
 20 22  1  0
 22 23  1  0
 22 24  1  0
 24 25  1  0
 24 26  1  0
 26 27  1  0
 27 28  1  0
 28 29  2  0
 28 30  1  1
 28 31  1  0
  4 32  1  0
 10 33  1  0
 12 34  1  0
 12 35  1  0
 12 36  1  0
 14 37  1  0
 14 38  1  0
 14 39  1  0
 15 40  1  0
 19 41  1  0
 19 42  1  0
 20 43  1  6
 21 44  1  0
 22 45  1  1
 23 46  1  0
 24 47  1  6
 25 48  1  0
 26 49  1  0
 26 50  1  0
M  CHG  2  30  -1  31  -1
M  END
>  <filename_input>  (20) 
7PGX_FMN_docked.sdf

>  <pdb_id>  (20) 
7PGX_FMN

>  <pose_rank>  (20) 
19

>  <num_atoms_heavy>  (20) 
31

>  <num_torsions>  (20) 
7

>  <pose>  (20) 
[-21.149325970501625, 7.410791916915261, -9.653463156555567, 0.1558970434036445, -1.8421181542171248, -3.1226100398469385, 0.0844481640737389, -0.8430394585503913, -0.45747534349389385, 0.01024049259402049, 9.539769323905432, 2.876601497969002, 1.398886723159178]

>  <energy>  (20) 
-559.1500225407378

>  <inter_energy>  (20) 
-566.5843626394997

>  <intra_energy>  (20) 
7.9488285297038415

>  <rmsd>  (20) 
9.48449

>  <sdf_rank>  (20) 
0

$$$$

     RDKit          3D

 50 52  0  0  0  0  0  0  0  0999 V2000
  -20.7659    0.4498   -6.1548 N   0  0  0  0  0  0  0  0  0  0  0  0
  -20.7253   -0.7120   -5.5112 C   0  0  0  0  0  0  0  0  0  0  0  0
  -21.7834   -1.3723   -5.2788 O   0  0  0  0  0  0  0  0  0  0  0  0
  -19.5284   -1.2004   -5.0243 N   0  0  0  0  0  0  0  0  0  0  0  0
  -18.3114   -0.6176   -5.2192 C   0  0  0  0  0  0  0  0  0  0  0  0
  -17.2967   -1.1075   -4.7007 O   0  0  0  0  0  0  0  0  0  0  0  0
  -18.3198    0.6021   -5.9718 C   0  0  0  0  0  0  0  0  0  0  0  0
  -17.1633    1.2217   -6.2225 N   0  0  0  0  0  0  0  0  0  0  0  0
  -17.2237    2.4349   -6.8459 C   0  0  0  0  0  0  0  0  0  0  0  0
  -16.0380    3.1607   -7.0718 C   0  0  0  0  0  0  0  0  0  0  0  0
  -16.0414    4.3891   -7.6551 C   0  0  0  0  0  0  0  0  0  0  0  0
  -14.7495    5.1612   -7.7826 C   0  0  0  0  0  0  0  0  0  0  0  0
  -17.2564    4.9210   -8.1219 C   0  0  0  0  0  0  0  0  0  0  0  0
  -17.3084    6.2519   -8.8259 C   0  0  0  0  0  0  0  0  0  0  0  0
  -18.4334    4.2205   -7.9356 C   0  0  0  0  0  0  0  0  0  0  0  0
  -18.4497    2.9787   -7.2850 C   0  0  0  0  0  0  0  0  0  0  0  0
  -19.6457    2.2893   -7.0441 N   0  0  0  0  0  0  0  0  0  0  0  0
  -19.6127    1.0838   -6.3890 C   0  0  0  0  0  0  0  0  0  0  0  0
  -20.9478    2.9235   -7.3237 C   0  0  0  0  0  0  0  0  0  0  0  0
  -21.2693    4.1890   -6.5506 C   0  0  2  0  0  0  0  0  0  0  0  0
  -22.2706    3.9068   -5.5687 O   0  0  0  0  0  0  0  0  0  0  0  0
  -21.7302    5.2788   -7.5069 C   0  0  2  0  0  0  0  0  0  0  0  0
  -22.3564    6.3168   -6.7875 O   0  0  0  0  0  0  0  0  0  0  0  0
  -22.6709    4.7575   -8.6061 C   0  0  2  0  0  0  0  0  0  0  0  0
  -22.3699    5.4201   -9.8188 O   0  0  0  0  0  0  0  0  0  0  0  0
  -24.1231    4.9295   -8.2435 C   0  0  0  0  0  0  0  0  0  0  0  0
  -25.0474    4.4714   -9.2665 O   0  0  0  0  0  0  0  0  0  0  0  0
  -26.2763    5.4085   -9.7087 P   0  0  2  0  0  0  0  0  0  0  0  0
  -25.7140    6.5293  -10.5226 O   0  0  0  0  0  0  0  0  0  0  0  0
  -26.8422    5.8784   -8.3627 O   0  0  0  0  0  0  0  0  0  0  0  0
  -27.2419    4.5350  -10.5071 O   0  0  0  0  0  0  0  0  0  0  0  0
  -19.5575   -2.0698   -4.4728 H   0  0  0  0  0  0  0  0  0  0  0  0
  -15.0777    2.7195   -6.7664 H   0  0  0  0  0  0  0  0  0  0  0  0
  -14.3607    5.3936   -6.7802 H   0  0  0  0  0  0  0  0  0  0  0  0
  -14.0127    4.5553   -8.3302 H   0  0  0  0  0  0  0  0  0  0  0  0
  -14.9342    6.0972   -8.3302 H   0  0  0  0  0  0  0  0  0  0  0  0
  -17.3399    7.0601   -8.0804 H   0  0  0  0  0  0  0  0  0  0  0  0
  -16.4141    6.3687   -9.4557 H   0  0  0  0  0  0  0  0  0  0  0  0
  -18.2090    6.2986   -9.4557 H   0  0  0  0  0  0  0  0  0  0  0  0
  -19.3776    4.6466   -8.3058 H   0  0  0  0  0  0  0  0  0  0  0  0
  -20.9745    3.1715   -8.3951 H   0  0  0  0  0  0  0  0  0  0  0  0
  -21.7017    2.1894   -7.0032 H   0  0  0  0  0  0  0  0  0  0  0  0
  -20.3665    4.5485   -6.0351 H   0  0  0  0  0  0  0  0  0  0  0  0
  -21.8849    4.0155   -4.6634 H   0  0  0  0  0  0  0  0  0  0  0  0
  -20.8311    5.6596   -8.0135 H   0  0  0  0  0  0  0  0  0  0  0  0
  -22.2569    6.1519   -5.8164 H   0  0  0  0  0  0  0  0  0  0  0  0
  -22.5074    3.6758   -8.7212 H   0  0  0  0  0  0  0  0  0  0  0  0
  -21.9687    6.3033   -9.6215 H   0  0  0  0  0  0  0  0  0  0  0  0
  -24.3187    4.3619   -7.3217 H   0  0  0  0  0  0  0  0  0  0  0  0
  -24.2942    6.0092   -8.1213 H   0  0  0  0  0  0  0  0  0  0  0  0
  1  2  1  0
  1 18  2  0
  2  3  2  0
  2  4  1  0
  4  5  1  0
  5  6  2  0
  5  7  1  0
  7  8  2  0
  7 18  1  0
  8  9  1  0
  9 10  1  0
  9 16  2  0
 10 11  2  0
 11 12  1  0
 11 13  1  0
 13 14  1  0
 13 15  2  0
 15 16  1  0
 16 17  1  0
 17 18  1  0
 17 19  1  0
 19 20  1  0
 20 21  1  0
 20 22  1  0
 22 23  1  0
 22 24  1  0
 24 25  1  0
 24 26  1  0
 26 27  1  0
 27 28  1  0
 28 29  2  0
 28 30  1  1
 28 31  1  0
  4 32  1  0
 10 33  1  0
 12 34  1  0
 12 35  1  0
 12 36  1  0
 14 37  1  0
 14 38  1  0
 14 39  1  0
 15 40  1  0
 19 41  1  0
 19 42  1  0
 20 43  1  1
 21 44  1  0
 22 45  1  6
 23 46  1  0
 24 47  1  6
 25 48  1  0
 26 49  1  0
 26 50  1  0
M  CHG  2  30  -1  31  -1
M  END
>  <filename_input>  (21) 
7PGX_FMN_docked.sdf

>  <pdb_id>  (21) 
7PGX_FMN

>  <pose_rank>  (21) 
20

>  <num_atoms_heavy>  (21) 
31

>  <num_torsions>  (21) 
7

>  <pose>  (21) 
[-20.76588722715174, 0.4497521564365579, -6.154789468091837, 2.6293258953022804, 0.34272187396522835, -5.422832220675378, -21.505662700049104, -32.60583310630169, -4.330708963472235, 11.175817860166333, 2.2970081630065264, -3.9298560501887807, -3.9440579688554087]

>  <energy>  (21) 
-926.116498600953

>  <inter_energy>  (21) 
-935.4030971190252

>  <intra_energy>  (21) 
16.416114897084757

>  <rmsd>  (21) 
1.45851

>  <sdf_rank>  (21) 
0

$$$$

     RDKit          3D

 50 52  0  0  0  0  0  0  0  0999 V2000
  -24.2875    5.3652   -8.4810 N   0  0  0  0  0  0  0  0  0  0  0  0
  -25.3741    4.6621   -8.7819 C   0  0  0  0  0  0  0  0  0  0  0  0
  -25.6850    3.6202   -8.1284 O   0  0  0  0  0  0  0  0  0  0  0  0
  -26.1617    5.0187   -9.8593 N   0  0  0  0  0  0  0  0  0  0  0  0
  -25.9690    6.1237  -10.6342 C   0  0  0  0  0  0  0  0  0  0  0  0
  -26.7033    6.3343  -11.6114 O   0  0  0  0  0  0  0  0  0  0  0  0
  -24.8422    6.9382  -10.2860 C   0  0  0  0  0  0  0  0  0  0  0  0
  -24.5998    8.0497  -10.9860 N   0  0  0  0  0  0  0  0  0  0  0  0
  -23.4572    8.7380  -10.6947 C   0  0  0  0  0  0  0  0  0  0  0  0
  -23.1204    9.8783  -11.4496 C   0  0  0  0  0  0  0  0  0  0  0  0
  -21.9776   10.5814  -11.2281 C   0  0  0  0  0  0  0  0  0  0  0  0
  -21.6221   11.7372  -12.1331 C   0  0  0  0  0  0  0  0  0  0  0  0
  -21.1421   10.2093  -10.1601 C   0  0  0  0  0  0  0  0  0  0  0  0
  -19.8940   10.9880   -9.8357 C   0  0  0  0  0  0  0  0  0  0  0  0
  -21.4594    9.1085   -9.3866 C   0  0  0  0  0  0  0  0  0  0  0  0
  -22.6056    8.3423   -9.6412 C   0  0  0  0  0  0  0  0  0  0  0  0
  -22.9038    7.1935   -8.8961 N   0  0  0  0  0  0  0  0  0  0  0  0
  -24.0294    6.4666   -9.1930 C   0  0  0  0  0  0  0  0  0  0  0  0
  -21.9351    6.6581   -7.9211 C   0  0  0  0  0  0  0  0  0  0  0  0
  -21.3522    5.2896   -8.2210 C   0  0  2  0  0  0  0  0  0  0  0  0
  -21.4970    4.4474   -7.0737 O   0  0  0  0  0  0  0  0  0  0  0  0
  -19.8908    5.4242   -8.6219 C   0  0  2  0  0  0  0  0  0  0  0  0
  -19.7827    6.2040   -9.7913 O   0  0  0  0  0  0  0  0  0  0  0  0
  -19.1947    4.0683   -8.8265 C   0  0  2  0  0  0  0  0  0  0  0  0
  -20.1804    3.0633   -8.9630 O   0  0  0  0  0  0  0  0  0  0  0  0
  -18.2420    3.7409   -7.7061 C   0  0  0  0  0  0  0  0  0  0  0  0
  -16.9164    4.3123   -7.8699 O   0  0  0  0  0  0  0  0  0  0  0  0
  -15.6469    3.5866   -7.2022 P   0  0  2  0  0  0  0  0  0  0  0  0
  -14.6461    4.6476   -6.8748 O   0  0  0  0  0  0  0  0  0  0  0  0
  -15.1719    2.6467   -8.3174 O   0  0  0  0  0  0  0  0  0  0  0  0
  -16.1504    2.8559   -5.9591 O   0  0  0  0  0  0  0  0  0  0  0  0
  -26.9538    4.4038  -10.0948 H   0  0  0  0  0  0  0  0  0  0  0  0
  -23.8041   10.2112  -12.2445 H   0  0  0  0  0  0  0  0  0  0  0  0
  -21.3530   12.6117  -11.5225 H   0  0  0  0  0  0  0  0  0  0  0  0
  -20.7687   11.4568  -12.7680 H   0  0  0  0  0  0  0  0  0  0  0  0
  -22.4855   11.9849  -12.7680 H   0  0  0  0  0  0  0  0  0  0  0  0
  -19.7797   11.0593   -8.7439 H   0  0  0  0  0  0  0  0  0  0  0  0
  -19.0200   10.4746  -10.2631 H   0  0  0  0  0  0  0  0  0  0  0  0
  -19.9709   11.9986  -10.2631 H   0  0  0  0  0  0  0  0  0  0  0  0
  -20.7984    8.8276   -8.5534 H   0  0  0  0  0  0  0  0  0  0  0  0
  -21.0989    7.3698   -7.8567 H   0  0  0  0  0  0  0  0  0  0  0  0
  -22.5038    6.5319   -6.9880 H   0  0  0  0  0  0  0  0  0  0  0  0
  -21.8945    4.8312   -9.0611 H   0  0  0  0  0  0  0  0  0  0  0  0
  -21.4035    4.9909   -6.2515 H   0  0  0  0  0  0  0  0  0  0  0  0
  -19.3758    5.9222   -7.7872 H   0  0  0  0  0  0  0  0  0  0  0  0
  -19.6511    7.1535   -9.5438 H   0  0  0  0  0  0  0  0  0  0  0  0
  -18.5876    4.1225   -9.7422 H   0  0  0  0  0  0  0  0  0  0  0  0
  -20.4735    2.7646   -8.0658 H   0  0  0  0  0  0  0  0  0  0  0  0
  -18.6691    4.1222   -6.7668 H   0  0  0  0  0  0  0  0  0  0  0  0
  -18.1186    2.6479   -7.7034 H   0  0  0  0  0  0  0  0  0  0  0  0
  1  2  1  0
  1 18  2  0
  2  3  2  0
  2  4  1  0
  4  5  1  0
  5  6  2  0
  5  7  1  0
  7  8  2  0
  7 18  1  0
  8  9  1  0
  9 10  1  0
  9 16  2  0
 10 11  2  0
 11 12  1  0
 11 13  1  0
 13 14  1  0
 13 15  2  0
 15 16  1  0
 16 17  1  0
 17 18  1  0
 17 19  1  0
 19 20  1  0
 20 21  1  0
 20 22  1  0
 22 23  1  0
 22 24  1  0
 24 25  1  0
 24 26  1  0
 26 27  1  0
 27 28  1  0
 28 29  2  0
 28 30  1  6
 28 31  1  0
  4 32  1  0
 10 33  1  0
 12 34  1  0
 12 35  1  0
 12 36  1  0
 14 37  1  0
 14 38  1  0
 14 39  1  0
 15 40  1  0
 19 41  1  0
 19 42  1  0
 20 43  1  6
 21 44  1  0
 22 45  1  1
 23 46  1  0
 24 47  1  6
 25 48  1  0
 26 49  1  0
 26 50  1  0
M  CHG  2  30  -1  31  -1
M  END
>  <filename_input>  (22) 
7PGX_FMN_docked.sdf

>  <pdb_id>  (22) 
7PGX_FMN

>  <pose_rank>  (22) 
21

>  <num_atoms_heavy>  (22) 
31

>  <num_torsions>  (22) 
7

>  <pose>  (22) 
[-24.287529342920223, 5.365208024413419, -8.481003544627992, -2.4046956097878422, -2.7637161549752367, 0.8665035862520576, 8.972894699641207, -14.127810402644133, -14.559555480112927, 1.3736831644844363, 10.256119840003752, -4.282394789866313, -1.5532832961357357]

>  <energy>  (22) 
-564.6881677375247

>  <inter_energy>  (22) 
-590.4406615425186

>  <intra_energy>  (22) 
37.227422509690115

>  <rmsd>  (22) 
8.52091

>  <sdf_rank>  (22) 
0

$$$$

     RDKit          3D

 50 52  0  0  0  0  0  0  0  0999 V2000
  -21.4380    7.8986   -9.7908 N   0  0  0  0  0  0  0  0  0  0  0  0
  -20.6505    8.6770  -10.5253 C   0  0  0  0  0  0  0  0  0  0  0  0
  -19.3880    8.6309  -10.4101 O   0  0  0  0  0  0  0  0  0  0  0  0
  -21.1956    9.6031  -11.3933 N   0  0  0  0  0  0  0  0  0  0  0  0
  -22.5280    9.7487  -11.6422 C   0  0  0  0  0  0  0  0  0  0  0  0
  -22.9246   10.6431  -12.4047 O   0  0  0  0  0  0  0  0  0  0  0  0
  -23.3960    8.8715  -10.9132 C   0  0  0  0  0  0  0  0  0  0  0  0
  -24.7141    8.9395  -11.1185 N   0  0  0  0  0  0  0  0  0  0  0  0
  -25.5131    8.1659  -10.3266 C   0  0  0  0  0  0  0  0  0  0  0  0
  -26.9130    8.2516  -10.4560 C   0  0  0  0  0  0  0  0  0  0  0  0
  -27.7579    7.5323   -9.6699 C   0  0  0  0  0  0  0  0  0  0  0  0
  -29.2495    7.7389   -9.7884 C   0  0  0  0  0  0  0  0  0  0  0  0
  -27.2211    6.6125   -8.7517 C   0  0  0  0  0  0  0  0  0  0  0  0
  -28.1126    5.7500   -7.8969 C   0  0  0  0  0  0  0  0  0  0  0  0
  -25.8507    6.4892   -8.6194 C   0  0  0  0  0  0  0  0  0  0  0  0
  -24.9697    7.2664   -9.3846 C   0  0  0  0  0  0  0  0  0  0  0  0
  -23.5808    7.1860   -9.2164 N   0  0  0  0  0  0  0  0  0  0  0  0
  -22.7591    7.9787   -9.9777 C   0  0  0  0  0  0  0  0  0  0  0  0
  -23.0023    6.3964   -8.1129 C   0  0  0  0  0  0  0  0  0  0  0  0
  -22.3517    5.0775   -8.4869 C   0  0  2  0  0  0  0  0  0  0  0  0
  -23.0469    4.5001   -9.5957 O   0  0  0  0  0  0  0  0  0  0  0  0
  -22.3537    4.1395   -7.2891 C   0  0  2  0  0  0  0  0  0  0  0  0
  -23.2102    4.6400   -6.2876 O   0  0  0  0  0  0  0  0  0  0  0  0
  -20.9496    3.8989   -6.7098 C   0  0  2  0  0  0  0  0  0  0  0  0
  -20.0119    4.6519   -7.4540 O   0  0  0  0  0  0  0  0  0  0  0  0
  -20.5801    2.4384   -6.6968 C   0  0  0  0  0  0  0  0  0  0  0  0
  -20.9231    1.7515   -5.4634 O   0  0  0  0  0  0  0  0  0  0  0  0
  -20.1513    0.3999   -5.0617 P   0  0  2  0  0  0  0  0  0  0  0  0
  -20.7694   -0.7166   -5.8402 O   0  0  0  0  0  0  0  0  0  0  0  0
  -20.4211    0.2936   -3.5555 O   0  0  0  0  0  0  0  0  0  0  0  0
  -18.6776    0.6056   -5.4064 O   0  0  0  0  0  0  0  0  0  0  0  0
  -20.5468   10.2306  -11.8895 H   0  0  0  0  0  0  0  0  0  0  0  0
  -27.3368    8.9224  -11.2179 H   0  0  0  0  0  0  0  0  0  0  0  0
  -29.6922    7.8002   -8.7833 H   0  0  0  0  0  0  0  0  0  0  0  0
  -29.4481    8.6731  -10.3341 H   0  0  0  0  0  0  0  0  0  0  0  0
  -29.6945    6.8938  -10.3341 H   0  0  0  0  0  0  0  0  0  0  0  0
  -27.9067    5.9492   -6.8349 H   0  0  0  0  0  0  0  0  0  0  0  0
  -29.1656    5.9809   -8.1159 H   0  0  0  0  0  0  0  0  0  0  0  0
  -27.9165    4.6900   -8.1159 H   0  0  0  0  0  0  0  0  0  0  0  0
  -25.4426    5.7657   -7.8983 H   0  0  0  0  0  0  0  0  0  0  0  0
  -22.2382    7.0180   -7.6232 H   0  0  0  0  0  0  0  0  0  0  0  0
  -23.8549    6.1268   -7.4723 H   0  0  0  0  0  0  0  0  0  0  0  0
  -21.3061    5.2500   -8.7820 H   0  0  0  0  0  0  0  0  0  0  0  0
  -23.7639    3.9046   -9.2618 H   0  0  0  0  0  0  0  0  0  0  0  0
  -22.7200    3.1660   -7.6472 H   0  0  0  0  0  0  0  0  0  0  0  0
  -22.8382    4.4226   -5.3963 H   0  0  0  0  0  0  0  0  0  0  0  0
  -20.9441    4.2282   -5.6603 H   0  0  0  0  0  0  0  0  0  0  0  0
  -19.4101    5.1351   -6.8339 H   0  0  0  0  0  0  0  0  0  0  0  0
  -21.1046    1.9417   -7.5264 H   0  0  0  0  0  0  0  0  0  0  0  0
  -19.4857    2.3868   -6.7952 H   0  0  0  0  0  0  0  0  0  0  0  0
  1  2  1  0
  1 18  2  0
  2  3  2  0
  2  4  1  0
  4  5  1  0
  5  6  2  0
  5  7  1  0
  7  8  2  0
  7 18  1  0
  8  9  1  0
  9 10  1  0
  9 16  2  0
 10 11  2  0
 11 12  1  0
 11 13  1  0
 13 14  1  0
 13 15  2  0
 15 16  1  0
 16 17  1  0
 17 18  1  0
 17 19  1  0
 19 20  1  0
 20 21  1  0
 20 22  1  0
 22 23  1  0
 22 24  1  0
 24 25  1  0
 24 26  1  0
 26 27  1  0
 27 28  1  0
 28 29  2  0
 28 30  1  1
 28 31  1  0
  4 32  1  0
 10 33  1  0
 12 34  1  0
 12 35  1  0
 12 36  1  0
 14 37  1  0
 14 38  1  0
 14 39  1  0
 15 40  1  0
 19 41  1  0
 19 42  1  0
 20 43  1  6
 21 44  1  0
 22 45  1  6
 23 46  1  0
 24 47  1  1
 25 48  1  0
 26 49  1  0
 26 50  1  0
M  CHG  2  30  -1  31  -1
M  END
>  <filename_input>  (23) 
7PGX_FMN_docked.sdf

>  <pdb_id>  (23) 
7PGX_FMN

>  <pose_rank>  (23) 
22

>  <num_atoms_heavy>  (23) 
31

>  <num_torsions>  (23) 
7

>  <pose>  (23) 
[-21.43798251879129, 7.8985553533607336, -9.79079454934709, 0.22738681203702196, -1.9978486998893887, -2.984111666986801, 6.551422830718517, -6.177909791836753, -0.6922179194332324, 1.0991615956679504, -8.708220075507795, -4.3684609604081075, -0.33770154844096134]

>  <energy>  (23) 
-532.583948366607

>  <inter_energy>  (23) 
-531.1298755627853

>  <intra_energy>  (23) 
8.324675272424209

>  <rmsd>  (23) 
9.72985

>  <sdf_rank>  (23) 
0

$$$$

     RDKit          3D

 50 52  0  0  0  0  0  0  0  0999 V2000
  -26.0301    6.5066   -9.6187 N   0  0  0  0  0  0  0  0  0  0  0  0
  -27.2065    6.1759  -10.1405 C   0  0  0  0  0  0  0  0  0  0  0  0
  -28.0451    5.4844   -9.4863 O   0  0  0  0  0  0  0  0  0  0  0  0
  -27.5198    6.5291  -11.4387 N   0  0  0  0  0  0  0  0  0  0  0  0
  -26.7337    7.2914  -12.2508 C   0  0  0  0  0  0  0  0  0  0  0  0
  -27.0804    7.5161  -13.4203 O   0  0  0  0  0  0  0  0  0  0  0  0
  -25.4882    7.7203  -11.6859 C   0  0  0  0  0  0  0  0  0  0  0  0
  -24.6723    8.4883  -12.4130 N   0  0  0  0  0  0  0  0  0  0  0  0
  -23.4499    8.7839  -11.8818 C   0  0  0  0  0  0  0  0  0  0  0  0
  -22.5261    9.5329  -12.6364 C   0  0  0  0  0  0  0  0  0  0  0  0
  -21.2817    9.8260  -12.1729 C   0  0  0  0  0  0  0  0  0  0  0  0
  -20.3009   10.5485  -13.0660 C   0  0  0  0  0  0  0  0  0  0  0  0
  -20.9297    9.4399  -10.8675 C   0  0  0  0  0  0  0  0  0  0  0  0
  -19.5851    9.7886  -10.2846 C   0  0  0  0  0  0  0  0  0  0  0  0
  -21.8247    8.7243  -10.0944 C   0  0  0  0  0  0  0  0  0  0  0  0
  -23.0896    8.3674  -10.5824 C   0  0  0  0  0  0  0  0  0  0  0  0
  -23.9802    7.5951   -9.8245 N   0  0  0  0  0  0  0  0  0  0  0  0
  -25.2016    7.2572  -10.3513 C   0  0  0  0  0  0  0  0  0  0  0  0
  -23.5533    6.9931   -8.5474 C   0  0  0  0  0  0  0  0  0  0  0  0
  -22.6300    5.7921   -8.6352 C   0  0  2  0  0  0  0  0  0  0  0  0
  -22.6678    5.2572   -9.9614 O   0  0  0  0  0  0  0  0  0  0  0  0
  -23.0398    4.7459   -7.6096 C   0  0  2  0  0  0  0  0  0  0  0  0
  -24.0950    5.2386   -6.8151 O   0  0  0  0  0  0  0  0  0  0  0  0
  -21.8749    4.2904   -6.7149 C   0  0  2  0  0  0  0  0  0  0  0  0
  -21.9668    4.9545   -5.4697 O   0  0  0  0  0  0  0  0  0  0  0  0
  -20.5337    4.5317   -7.3573 C   0  0  0  0  0  0  0  0  0  0  0  0
  -19.4255    4.5692   -6.4186 O   0  0  0  0  0  0  0  0  0  0  0  0
  -18.0894    3.7305   -6.7276 P   0  0  2  0  0  0  0  0  0  0  0  0
  -18.4923    2.5160   -7.5004 O   0  0  0  0  0  0  0  0  0  0  0  0
  -17.5706    3.3954   -5.3236 O   0  0  0  0  0  0  0  0  0  0  0  0
  -17.1591    4.6453   -7.5217 O   0  0  0  0  0  0  0  0  0  0  0  0
  -28.4143    6.1913  -11.8218 H   0  0  0  0  0  0  0  0  0  0  0  0
  -22.8209    9.8926  -13.6332 H   0  0  0  0  0  0  0  0  0  0  0  0
  -19.5691   11.0875  -12.4463 H   0  0  0  0  0  0  0  0  0  0  0  0
  -19.7769    9.8189  -13.7010 H   0  0  0  0  0  0  0  0  0  0  0  0
  -20.8423   11.2651  -13.7010 H   0  0  0  0  0  0  0  0  0  0  0  0
  -19.6462    9.7727   -9.1864 H   0  0  0  0  0  0  0  0  0  0  0  0
  -18.8381    9.0544  -10.6209 H   0  0  0  0  0  0  0  0  0  0  0  0
  -19.2890   10.7932  -10.6209 H   0  0  0  0  0  0  0  0  0  0  0  0
  -21.5382    8.4285   -9.0743 H   0  0  0  0  0  0  0  0  0  0  0  0
  -23.0339    7.7714   -7.9691 H   0  0  0  0  0  0  0  0  0  0  0  0
  -24.4762    6.6149   -8.0833 H   0  0  0  0  0  0  0  0  0  0  0  0
  -21.5978    6.1005   -8.4126 H   0  0  0  0  0  0  0  0  0  0  0  0
  -22.7375    4.2706   -9.9175 H   0  0  0  0  0  0  0  0  0  0  0  0
  -23.3723    3.8610   -8.1722 H   0  0  0  0  0  0  0  0  0  0  0  0
  -23.8654    5.1314   -5.8581 H   0  0  0  0  0  0  0  0  0  0  0  0
  -21.9545    3.2035   -6.5651 H   0  0  0  0  0  0  0  0  0  0  0  0
  -21.8756    4.2954   -4.7366 H   0  0  0  0  0  0  0  0  0  0  0  0
  -20.3466    3.7244   -8.0807 H   0  0  0  0  0  0  0  0  0  0  0  0
  -20.5822    5.5232   -7.8312 H   0  0  0  0  0  0  0  0  0  0  0  0
  1  2  1  0
  1 18  2  0
  2  3  2  0
  2  4  1  0
  4  5  1  0
  5  6  2  0
  5  7  1  0
  7  8  2  0
  7 18  1  0
  8  9  1  0
  9 10  1  0
  9 16  2  0
 10 11  2  0
 11 12  1  0
 11 13  1  0
 13 14  1  0
 13 15  2  0
 15 16  1  0
 16 17  1  0
 17 18  1  0
 17 19  1  0
 19 20  1  0
 20 21  1  0
 20 22  1  0
 22 23  1  0
 22 24  1  0
 24 25  1  0
 24 26  1  0
 26 27  1  0
 27 28  1  0
 28 29  2  0
 28 30  1  1
 28 31  1  0
  4 32  1  0
 10 33  1  0
 12 34  1  0
 12 35  1  0
 12 36  1  0
 14 37  1  0
 14 38  1  0
 14 39  1  0
 15 40  1  0
 19 41  1  0
 19 42  1  0
 20 43  1  1
 21 44  1  0
 22 45  1  6
 23 46  1  0
 24 47  1  1
 25 48  1  0
 26 49  1  0
 26 50  1  0
M  CHG  2  30  -1  31  -1
M  END
>  <filename_input>  (24) 
7PGX_FMN_docked.sdf

>  <pdb_id>  (24) 
7PGX_FMN

>  <pose_rank>  (24) 
23

>  <num_atoms_heavy>  (24) 
31

>  <num_torsions>  (24) 
7

>  <pose>  (24) 
[-26.030144351166697, 6.506589132927367, -9.618682831402795, 1.8297048900033428, 1.2573229600071647, -0.6350486685666414, -2.8815932172340903, 0.3972970709626973, -0.9936224625510978, 2.83980834460816, 1.9577997558503695, 0.6947648435725626, 0.5202466447314356]

>  <energy>  (24) 
-460.4602026850797

>  <inter_energy>  (24) 
-468.9414798252444

>  <intra_energy>  (24) 
14.923525730544725

>  <rmsd>  (24) 
8.83104

>  <sdf_rank>  (24) 
0

$$$$

     RDKit          3D

 50 52  0  0  0  0  0  0  0  0999 V2000
  -18.0434    1.9269   -7.0137 N   0  0  0  0  0  0  0  0  0  0  0  0
  -16.8559    1.6361   -6.4933 C   0  0  0  0  0  0  0  0  0  0  0  0
  -16.6496    0.5331   -5.9014 O   0  0  0  0  0  0  0  0  0  0  0  0
  -15.8298    2.5602   -6.5326 N   0  0  0  0  0  0  0  0  0  0  0  0
  -15.8945    3.7712   -7.1553 C   0  0  0  0  0  0  0  0  0  0  0  0
  -14.9343    4.5541   -7.0949 O   0  0  0  0  0  0  0  0  0  0  0  0
  -17.1441    4.0800   -7.7856 C   0  0  0  0  0  0  0  0  0  0  0  0
  -17.2783    5.2398   -8.4344 N   0  0  0  0  0  0  0  0  0  0  0  0
  -18.5151    5.5444   -8.9261 C   0  0  0  0  0  0  0  0  0  0  0  0
  -18.7263    6.7852   -9.5583 C   0  0  0  0  0  0  0  0  0  0  0  0
  -19.9446    7.1568  -10.0343 C   0  0  0  0  0  0  0  0  0  0  0  0
  -20.1322    8.5386  -10.6148 C   0  0  0  0  0  0  0  0  0  0  0  0
  -21.0123    6.2443   -9.9674 C   0  0  0  0  0  0  0  0  0  0  0  0
  -22.3676    6.5837  -10.5307 C   0  0  0  0  0  0  0  0  0  0  0  0
  -20.8288    5.0095   -9.3738 C   0  0  0  0  0  0  0  0  0  0  0  0
  -19.5918    4.6372   -8.8289 C   0  0  0  0  0  0  0  0  0  0  0  0
  -19.4139    3.4094   -8.1771 N   0  0  0  0  0  0  0  0  0  0  0  0
  -18.1881    3.0960   -7.6453 C   0  0  0  0  0  0  0  0  0  0  0  0
  -20.5669    2.5324   -7.8992 C   0  0  0  0  0  0  0  0  0  0  0  0
  -21.9269    3.2004   -7.8173 C   0  0  2  0  0  0  0  0  0  0  0  0
  -22.3446    3.5945   -9.1275 O   0  0  0  0  0  0  0  0  0  0  0  0
  -21.8624    4.3963   -6.8790 C   0  0  2  0  0  0  0  0  0  0  0  0
  -21.7836    3.9553   -5.5424 O   0  0  0  0  0  0  0  0  0  0  0  0
  -23.0498    5.3589   -7.0472 C   0  0  2  0  0  0  0  0  0  0  0  0
  -23.3999    5.8803   -5.7800 O   0  0  0  0  0  0  0  0  0  0  0  0
  -24.2331    4.6964   -7.7037 C   0  0  0  0  0  0  0  0  0  0  0  0
  -25.0623    5.6011   -8.4813 O   0  0  0  0  0  0  0  0  0  0  0  0
  -26.3690    5.0401   -9.2309 P   0  0  2  0  0  0  0  0  0  0  0  0
  -27.5390    5.2832   -8.3329 O   0  0  0  0  0  0  0  0  0  0  0  0
  -26.0477    3.5494   -9.3964 O   0  0  0  0  0  0  0  0  0  0  0  0
  -26.4838    5.7921  -10.5553 O   0  0  0  0  0  0  0  0  0  0  0  0
  -14.9501    2.3160   -6.0558 H   0  0  0  0  0  0  0  0  0  0  0  0
  -17.8778    7.4762   -9.6706 H   0  0  0  0  0  0  0  0  0  0  0  0
  -20.2314    9.2690   -9.7982 H   0  0  0  0  0  0  0  0  0  0  0  0
  -19.2610    8.7974  -11.2344 H   0  0  0  0  0  0  0  0  0  0  0  0
  -21.0409    8.5558  -11.2344 H   0  0  0  0  0  0  0  0  0  0  0  0
  -23.0737    6.7605   -9.7060 H   0  0  0  0  0  0  0  0  0  0  0  0
  -22.2912    7.4904  -11.1488 H   0  0  0  0  0  0  0  0  0  0  0  0
  -22.7276    5.7479  -11.1488 H   0  0  0  0  0  0  0  0  0  0  0  0
  -21.6713    4.3037   -9.3281 H   0  0  0  0  0  0  0  0  0  0  0  0
  -20.6132    1.7791   -8.6994 H   0  0  0  0  0  0  0  0  0  0  0  0
  -20.3841    2.1244   -6.8942 H   0  0  0  0  0  0  0  0  0  0  0  0
  -22.6649    2.4914   -7.4142 H   0  0  0  0  0  0  0  0  0  0  0  0
  -23.0628    4.2720   -9.0551 H   0  0  0  0  0  0  0  0  0  0  0  0
  -20.9564    4.9610   -7.1442 H   0  0  0  0  0  0  0  0  0  0  0  0
  -21.9208    4.7233   -4.9329 H   0  0  0  0  0  0  0  0  0  0  0  0
  -22.7437    6.1770   -7.7159 H   0  0  0  0  0  0  0  0  0  0  0  0
  -23.0153    5.3076   -5.0699 H   0  0  0  0  0  0  0  0  0  0  0  0
  -23.8600    3.9077   -8.3735 H   0  0  0  0  0  0  0  0  0  0  0  0
  -24.8655    4.3021   -6.8946 H   0  0  0  0  0  0  0  0  0  0  0  0
  1  2  1  0
  1 18  2  0
  2  3  2  0
  2  4  1  0
  4  5  1  0
  5  6  2  0
  5  7  1  0
  7  8  2  0
  7 18  1  0
  8  9  1  0
  9 10  1  0
  9 16  2  0
 10 11  2  0
 11 12  1  0
 11 13  1  0
 13 14  1  0
 13 15  2  0
 15 16  1  0
 16 17  1  0
 17 18  1  0
 17 19  1  0
 19 20  1  0
 20 21  1  0
 20 22  1  0
 22 23  1  0
 22 24  1  0
 24 25  1  0
 24 26  1  0
 26 27  1  0
 27 28  1  0
 28 29  2  0
 28 30  1  6
 28 31  1  0
  4 32  1  0
 10 33  1  0
 12 34  1  0
 12 35  1  0
 12 36  1  0
 14 37  1  0
 14 38  1  0
 14 39  1  0
 15 40  1  0
 19 41  1  0
 19 42  1  0
 20 43  1  1
 21 44  1  0
 22 45  1  6
 23 46  1  0
 24 47  1  6
 25 48  1  0
 26 49  1  0
 26 50  1  0
M  CHG  2  30  -1  31  -1
M  END
>  <filename_input>  (25) 
7PGX_FMN_docked.sdf

>  <pdb_id>  (25) 
7PGX_FMN

>  <pose_rank>  (25) 
24

>  <num_atoms_heavy>  (25) 
31

>  <num_torsions>  (25) 
7

>  <pose>  (25) 
[-18.043356029903666, 1.9269451028652624, -7.013682735754809, -0.22355724616589875, 0.33800654100035793, 1.3289679905231213, -2.0052054522814644, 1.9458926142272475, -14.766923324867152, -8.968944863585909, 9.115642915180166, -4.751512083167529, 2.7284216298191732]

>  <energy>  (25) 
-489.8000520672638

>  <inter_energy>  (25) 
-702.8392208536088

>  <intra_energy>  (25) 
223.89161597317272

>  <rmsd>  (25) 
4.25252

>  <sdf_rank>  (25) 
0

$$$$

     RDKit          3D

 50 52  0  0  0  0  0  0  0  0999 V2000
  -20.7040    0.7710   -5.9310 N   0  0  0  0  0  0  0  0  0  0  0  0
  -20.9190   -0.4340   -5.4140 C   0  0  0  0  0  0  0  0  0  0  0  0
  -22.0960   -0.8680   -5.2250 O   0  0  0  0  0  0  0  0  0  0  0  0
  -19.8580   -1.2220   -5.0120 N   0  0  0  0  0  0  0  0  0  0  0  0
  -18.5430   -0.9020   -5.1760 C   0  0  0  0  0  0  0  0  0  0  0  0
  -17.6600   -1.6550   -4.7380 O   0  0  0  0  0  0  0  0  0  0  0  0
  -18.2840    0.3640   -5.7960 C   0  0  0  0  0  0  0  0  0  0  0  0
  -17.0200    0.7390   -6.0100 N   0  0  0  0  0  0  0  0  0  0  0  0
  -16.8130    1.9960   -6.5010 C   0  0  0  0  0  0  0  0  0  0  0  0
  -15.4970    2.4650   -6.6800 C   0  0  0  0  0  0  0  0  0  0  0  0
  -15.2310    3.7200   -7.1310 C   0  0  0  0  0  0  0  0  0  0  0  0
  -13.8010    4.2000   -7.2100 C   0  0  0  0  0  0  0  0  0  0  0  0
  -16.3000    4.5520   -7.5080 C   0  0  0  0  0  0  0  0  0  0  0  0
  -16.0590    5.9300   -8.0670 C   0  0  0  0  0  0  0  0  0  0  0  0
  -17.6020    4.1100   -7.3660 C   0  0  0  0  0  0  0  0  0  0  0  0
  -17.8900    2.8390   -6.8490 C   0  0  0  0  0  0  0  0  0  0  0  0
  -19.2080    2.4060   -6.6510 N   0  0  0  0  0  0  0  0  0  0  0  0
  -19.4400    1.1590   -6.1270 C   0  0  0  0  0  0  0  0  0  0  0  0
  -20.3390    3.3360   -6.8290 C   0  0  0  0  0  0  0  0  0  0  0  0
  -20.9580    3.3990   -8.2130 C   0  0  2  0  0  0  0  0  0  0  0  0
  -19.9260    3.3260   -9.2010 O   0  0  0  0  0  0  0  0  0  0  0  0
  -21.7700    4.6770   -8.3610 C   0  0  2  0  0  0  0  0  0  0  0  0
  -20.9790    5.7920   -8.0170 O   0  0  0  0  0  0  0  0  0  0  0  0
  -23.0620    4.6700   -7.5270 C   0  0  2  0  0  0  0  0  0  0  0  0
  -23.8920    3.6170   -7.9770 O   0  0  0  0  0  0  0  0  0  0  0  0
  -23.7860    5.9900   -7.5850 C   0  0  0  0  0  0  0  0  0  0  0  0
  -23.9320    6.5270   -8.9270 O   0  0  0  0  0  0  0  0  0  0  0  0
  -25.2580    6.2030   -9.7760 P   0  0  2  0  0  0  0  0  0  0  0  0
  -25.3260    4.7200   -9.9510 O   0  0  0  0  0  0  0  0  0  0  0  0
  -25.0030    6.9450  -11.0940 O   0  0  0  0  0  0  0  0  0  0  0  0
  -26.4430    6.7520   -8.9840 O   0  0  0  0  0  0  0  0  0  0  0  0
  -20.0768   -2.1183   -4.5541 H   0  0  0  0  0  0  0  0  0  0  0  0
  -14.6569    1.7941   -6.4474 H   0  0  0  0  0  0  0  0  0  0  0  0
  -13.4025    4.3338   -6.1935 H   0  0  0  0  0  0  0  0  0  0  0  0
  -13.1938    3.4564   -7.7470 H   0  0  0  0  0  0  0  0  0  0  0  0
  -13.7654    5.1594   -7.7470 H   0  0  0  0  0  0  0  0  0  0  0  0
  -15.9341    6.6445   -7.2400 H   0  0  0  0  0  0  0  0  0  0  0  0
  -15.1488    5.9211   -8.6846 H   0  0  0  0  0  0  0  0  0  0  0  0
  -16.9182    6.2306   -8.6846 H   0  0  0  0  0  0  0  0  0  0  0  0
  -18.4299    4.7696   -7.6650 H   0  0  0  0  0  0  0  0  0  0  0  0
  -21.1291    3.0388   -6.1237 H   0  0  0  0  0  0  0  0  0  0  0  0
  -19.9199    4.3378   -6.6538 H   0  0  0  0  0  0  0  0  0  0  0  0
  -21.6378    2.5459   -8.3547 H   0  0  0  0  0  0  0  0  0  0  0  0
  -19.0449    3.2637   -8.7539 H   0  0  0  0  0  0  0  0  0  0  0  0
  -22.0741    4.7411   -9.4162 H   0  0  0  0  0  0  0  0  0  0  0  0
  -20.9256    5.8672   -7.0313 H   0  0  0  0  0  0  0  0  0  0  0  0
  -22.7953    4.5102   -6.4719 H   0  0  0  0  0  0  0  0  0  0  0  0
  -24.2695    3.1381   -7.1971 H   0  0  0  0  0  0  0  0  0  0  0  0
  -24.7898    5.8527   -7.1566 H   0  0  0  0  0  0  0  0  0  0  0  0
  -23.1779    6.7109   -7.0189 H   0  0  0  0  0  0  0  0  0  0  0  0
  1  2  1  0
  1 18  2  0
  2  3  2  0
  2  4  1  0
  4  5  1  0
  5  6  2  0
  5  7  1  0
  7  8  2  0
  7 18  1  0
  8  9  1  0
  9 10  1  0
  9 16  2  0
 10 11  2  0
 11 12  1  0
 11 13  1  0
 13 14  1  0
 13 15  2  0
 15 16  1  0
 16 17  1  0
 17 18  1  0
 17 19  1  0
 19 20  1  0
 20 21  1  0
 20 22  1  0
 22 23  1  0
 22 24  1  0
 24 25  1  0
 24 26  1  0
 26 27  1  0
 27 28  1  0
 28 29  2  0
 28 30  1  6
 28 31  1  0
  4 32  1  0
 10 33  1  0
 12 34  1  0
 12 35  1  0
 12 36  1  0
 14 37  1  0
 14 38  1  0
 14 39  1  0
 15 40  1  0
 19 41  1  0
 19 42  1  0
 20 43  1  6
 21 44  1  0
 22 45  1  6
 23 46  1  0
 24 47  1  1
 25 48  1  0
 26 49  1  0
 26 50  1  0
M  CHG  2  30  -1  31  -1
M  END
>  <filename_input>  (26) 
7PGX_FMN_docked.sdf

>  <pdb_id>  (26) 
7PGX_FMN

>  <pose_rank>  (26) 
25

>  <num_atoms_heavy>  (26) 
31

>  <num_torsions>  (26) 
7

>  <pose>  (26) 
[-20.704, 0.771, -5.931, 1e-06, 1e-06, 1e-06, 0.0, 0.0, 0.0, 0.0, 0.0, 0.0, 0.0]

>  <energy>  (26) 
-1058.7238612610074

>  <inter_energy>  (26) 
-1112.7540485881061

>  <intra_energy>  (26) 
41.79581993732117

>  <rmsd>  (26) 
0.0

>  <sdf_rank>  (26) 
0

$$$$
