
     RDKit          3D

 47 50  0  0  0  0  0  0  0  0999 V2000
   17.3462  -27.0016  -23.8595 O   0  0  0  0  0  0  0  0  0  0  0  0
   16.9195  -25.8504  -24.2240 C   0  0  0  0  0  0  0  0  0  0  0  0
   17.3822  -24.7590  -23.6159 N   0  0  0  0  0  0  0  0  0  0  0  0
   16.9091  -23.5603  -24.0297 C   0  0  0  0  0  0  0  0  0  0  0  0
   15.9607  -23.4074  -25.0034 C   0  0  0  0  0  0  0  0  0  0  0  0
   15.4476  -24.5586  -25.6509 C   0  0  0  0  0  0  0  0  0  0  0  0
   15.9586  -25.8308  -25.2784 C   0  0  0  0  0  0  0  0  0  0  0  0
   15.4598  -26.9764  -25.9429 C   0  0  0  0  0  0  0  0  0  0  0  0
   14.4971  -26.8742  -26.8989 C   0  0  0  0  0  0  0  0  0  0  0  0
   14.4380  -24.4945  -26.6407 C   0  0  0  0  0  0  0  0  0  0  0  0
   13.9538  -25.6384  -27.2542 C   0  0  0  0  0  0  0  0  0  0  0  0
   12.8508  -25.5633  -28.2380 C   0  0  0  0  0  0  0  0  0  0  0  0
   12.0802  -26.6882  -28.5367 C   0  0  0  0  0  0  0  0  0  0  0  0
   11.0537  -26.6143  -29.4629 C   0  0  0  0  0  0  0  0  0  0  0  0
   10.7748  -25.4128  -30.0890 C   0  0  0  0  0  0  0  0  0  0  0  0
   12.5585  -24.3697  -28.8887 C   0  0  0  0  0  0  0  0  0  0  0  0
   11.5037  -24.2732  -29.7849 C   0  0  0  0  0  0  0  0  0  0  0  0
   11.0292  -22.9133  -30.2188 C   0  0  0  0  0  0  0  0  0  0  0  0
    9.5640  -22.8134  -30.1243 N   0  0  2  0  0  0  0  0  0  0  0  0
    8.9779  -22.0100  -31.2046 C   0  0  0  0  0  0  0  0  0  0  0  0
    7.6052  -21.6099  -30.7110 C   0  0  0  0  0  0  0  0  0  0  0  0
    9.1013  -22.1774  -28.8856 C   0  0  0  0  0  0  0  0  0  0  0  0
    7.8436  -21.3773  -29.2213 C   0  0  2  0  0  0  0  0  0  0  0  0
    6.7231  -21.9414  -28.4715 N   0  0  0  0  0  0  0  0  0  0  0  0
   17.0085  -27.8186  -24.3052 H   0  0  0  0  0  0  0  0  0  0  0  0
   17.3119  -22.6539  -23.5541 H   0  0  0  0  0  0  0  0  0  0  0  0
   15.6014  -22.4052  -25.2797 H   0  0  0  0  0  0  0  0  0  0  0  0
   15.8578  -27.9680  -25.6816 H   0  0  0  0  0  0  0  0  0  0  0  0
   14.1394  -27.7845  -27.4023 H   0  0  0  0  0  0  0  0  0  0  0  0
   14.0289  -23.5150  -26.9292 H   0  0  0  0  0  0  0  0  0  0  0  0
   12.2905  -27.6425  -28.0316 H   0  0  0  0  0  0  0  0  0  0  0  0
   10.4607  -27.5098  -29.7005 H   0  0  0  0  0  0  0  0  0  0  0  0
    9.9677  -25.3610  -30.8346 H   0  0  0  0  0  0  0  0  0  0  0  0
   13.1771  -23.4825  -28.6884 H   0  0  0  0  0  0  0  0  0  0  0  0
   11.4847  -22.1495  -29.5714 H   0  0  0  0  0  0  0  0  0  0  0  0
   11.3253  -22.7556  -31.2664 H   0  0  0  0  0  0  0  0  0  0  0  0
    9.2611  -23.7967  -30.1721 H   0  0  0  0  0  0  0  0  0  0  0  0
    9.5923  -21.1182  -31.3973 H   0  0  0  0  0  0  0  0  0  0  0  0
    8.9245  -22.5722  -32.1486 H   0  0  0  0  0  0  0  0  0  0  0  0
    7.2571  -20.6913  -31.2060 H   0  0  0  0  0  0  0  0  0  0  0  0
    6.8288  -22.3610  -30.9184 H   0  0  0  0  0  0  0  0  0  0  0  0
    8.8681  -22.9456  -28.1336 H   0  0  0  0  0  0  0  0  0  0  0  0
    9.8806  -21.5191  -28.4739 H   0  0  0  0  0  0  0  0  0  0  0  0
    7.9439  -20.3095  -28.9769 H   0  0  0  0  0  0  0  0  0  0  0  0
    6.9048  -21.8499  -27.4618 H   0  0  0  0  0  0  0  0  0  0  0  0
    5.8592  -21.4348  -28.7121 H   0  0  0  0  0  0  0  0  0  0  0  0
    6.6156  -22.9371  -28.7121 H   0  0  0  0  0  0  0  0  0  0  0  0
  1  2  1  0
  2  3  2  0
  2  7  1  0
  3  4  1  0
  4  5  2  0
  5  6  1  0
  6  7  2  0
  6 10  1  0
  7  8  1  0
  8  9  2  0
  9 11  1  0
 10 11  2  0
 11 12  1  0
 12 13  2  0
 12 16  1  0
 13 14  1  0
 14 15  2  0
 15 17  1  0
 16 17  2  0
 17 18  1  0
 19 18  1  0
 19 20  1  0
 19 22  1  0
 20 21  1  0
 21 23  1  0
 22 23  1  0
 23 24  1  0
  1 25  1  0
  4 26  1  0
  5 27  1  0
  8 28  1  0
  9 29  1  0
 10 30  1  0
 13 31  1  0
 14 32  1  0
 15 33  1  0
 16 34  1  0
 18 35  1  0
 18 36  1  0
 19 37  1  1
 20 38  1  0
 20 39  1  0
 21 40  1  0
 21 41  1  0
 22 42  1  0
 22 43  1  0
 23 44  1  6
 24 45  1  0
 24 46  1  0
 24 47  1  0
M  CHG  2  19   1  24   1
M  END
>  <filename_input>  (1) 
7PIH_7QW_docked.sdf

>  <pdb_id>  (1) 
7PIH_7QW

>  <pose_rank>  (1) 
0

>  <num_atoms_heavy>  (1) 
24

>  <num_torsions>  (1) 
3

>  <pose>  (1) 
[12.8507893160447, -25.563280756405906, -28.237986102198263, -5.846143035658876, -0.533798506848677, 2.0113207838261347, 12.505854364009851, 5.511357581469163, 4.835588975146322]

>  <energy>  (1) 
-1489.8242695606723

>  <inter_energy>  (1) 
-1511.4540179628736

>  <intra_energy>  (1) 
0.0

>  <rmsd>  (1) 
0.895082

>  <sdf_rank>  (1) 
0

$$$$

     RDKit          3D

 47 50  0  0  0  0  0  0  0  0999 V2000
   17.1532  -26.9285  -23.5416 O   0  0  0  0  0  0  0  0  0  0  0  0
   16.8410  -25.7783  -24.0104 C   0  0  0  0  0  0  0  0  0  0  0  0
   17.3762  -24.6847  -23.4695 N   0  0  0  0  0  0  0  0  0  0  0  0
   17.0235  -23.4873  -23.9930 C   0  0  0  0  0  0  0  0  0  0  0  0
   16.1254  -23.3334  -25.0131 C   0  0  0  0  0  0  0  0  0  0  0  0
   15.5362  -24.4854  -25.5906 C   0  0  0  0  0  0  0  0  0  0  0  0
   15.9216  -25.7622  -25.1012 C   0  0  0  0  0  0  0  0  0  0  0  0
   15.3476  -26.9112  -25.6955 C   0  0  0  0  0  0  0  0  0  0  0  0
   14.4303  -26.8051  -26.6947 C   0  0  0  0  0  0  0  0  0  0  0  0
   14.5700  -24.4158  -26.6225 C   0  0  0  0  0  0  0  0  0  0  0  0
   14.0090  -25.5603  -27.1655 C   0  0  0  0  0  0  0  0  0  0  0  0
   12.9506  -25.4715  -28.1960 C   0  0  0  0  0  0  0  0  0  0  0  0
   12.5133  -26.6112  -28.8731 C   0  0  0  0  0  0  0  0  0  0  0  0
   11.5274  -26.5217  -29.8411 C   0  0  0  0  0  0  0  0  0  0  0  0
   10.9560  -25.2962  -30.1325 C   0  0  0  0  0  0  0  0  0  0  0  0
   12.3690  -24.2493  -28.5144 C   0  0  0  0  0  0  0  0  0  0  0  0
   11.3492  -24.1547  -29.4505 C   0  0  0  0  0  0  0  0  0  0  0  0
   10.5425  -22.8879  -29.5340 C   0  0  0  0  0  0  0  0  0  0  0  0
   11.2283  -21.8818  -30.3605 N   0  0  2  0  0  0  0  0  0  0  0  0
   11.9079  -20.8555  -29.5599 C   0  0  0  0  0  0  0  0  0  0  0  0
   12.1249  -19.6894  -30.4987 C   0  0  0  0  0  0  0  0  0  0  0  0
   10.3232  -21.1363  -31.2426 C   0  0  0  0  0  0  0  0  0  0  0  0
   10.8576  -19.7088  -31.3494 C   0  0  2  0  0  0  0  0  0  0  0  0
   11.2216  -19.4546  -32.7419 N   0  0  0  0  0  0  0  0  0  0  0  0
   16.7609  -27.7472  -23.9366 H   0  0  0  0  0  0  0  0  0  0  0  0
   17.4874  -22.5829  -23.5725 H   0  0  0  0  0  0  0  0  0  0  0  0
   15.8643  -22.3298  -25.3799 H   0  0  0  0  0  0  0  0  0  0  0  0
   15.6487  -27.9087  -25.3429 H   0  0  0  0  0  0  0  0  0  0  0  0
   14.0119  -27.7193  -27.1409 H   0  0  0  0  0  0  0  0  0  0  0  0
   14.2577  -23.4316  -27.0016 H   0  0  0  0  0  0  0  0  0  0  0  0
   12.9561  -27.5897  -28.6353 H   0  0  0  0  0  0  0  0  0  0  0  0
   11.1990  -27.4240  -30.3778 H   0  0  0  0  0  0  0  0  0  0  0  0
   10.1831  -25.2265  -30.9120 H   0  0  0  0  0  0  0  0  0  0  0  0
   12.7253  -23.3373  -28.0131 H   0  0  0  0  0  0  0  0  0  0  0  0
    9.5628  -23.1136  -29.9805 H   0  0  0  0  0  0  0  0  0  0  0  0
   10.4180  -22.4830  -28.5188 H   0  0  0  0  0  0  0  0  0  0  0  0
   11.8962  -22.4457  -30.9052 H   0  0  0  0  0  0  0  0  0  0  0  0
   11.2794  -20.5527  -28.7094 H   0  0  0  0  0  0  0  0  0  0  0  0
   12.8559  -21.2252  -29.1421 H   0  0  0  0  0  0  0  0  0  0  0  0
   12.2165  -18.7442  -29.9436 H   0  0  0  0  0  0  0  0  0  0  0  0
   13.0500  -19.7681  -31.0886 H   0  0  0  0  0  0  0  0  0  0  0  0
   10.2996  -21.6038  -32.2380 H   0  0  0  0  0  0  0  0  0  0  0  0
    9.3003  -21.1375  -30.8380 H   0  0  0  0  0  0  0  0  0  0  0  0
   10.1242  -18.9571  -31.0222 H   0  0  0  0  0  0  0  0  0  0  0  0
   12.0656  -18.8651  -32.7741 H   0  0  0  0  0  0  0  0  0  0  0  0
   11.4094  -20.3492  -33.2165 H   0  0  0  0  0  0  0  0  0  0  0  0
   10.4463  -18.9702  -33.2165 H   0  0  0  0  0  0  0  0  0  0  0  0
  1  2  1  0
  2  3  2  0
  2  7  1  0
  3  4  1  0
  4  5  2  0
  5  6  1  0
  6  7  2  0
  6 10  1  0
  7  8  1  0
  8  9  2  0
  9 11  1  0
 10 11  2  0
 11 12  1  0
 12 13  2  0
 12 16  1  0
 13 14  1  0
 14 15  2  0
 15 17  1  0
 16 17  2  0
 17 18  1  0
 19 18  1  0
 19 20  1  0
 19 22  1  0
 20 21  1  0
 21 23  1  0
 22 23  1  0
 23 24  1  0
  1 25  1  0
  4 26  1  0
  5 27  1  0
  8 28  1  0
  9 29  1  0
 10 30  1  0
 13 31  1  0
 14 32  1  0
 15 33  1  0
 16 34  1  0
 18 35  1  0
 18 36  1  0
 19 37  1  6
 20 38  1  0
 20 39  1  0
 21 40  1  0
 21 41  1  0
 22 42  1  0
 22 43  1  0
 23 44  1  1
 24 45  1  0
 24 46  1  0
 24 47  1  0
M  CHG  2  19   1  24   1
M  END
>  <filename_input>  (2) 
7PIH_7QW_docked.sdf

>  <pdb_id>  (2) 
7PIH_7QW

>  <pose_rank>  (2) 
1

>  <num_atoms_heavy>  (2) 
24

>  <num_torsions>  (2) 
3

>  <pose>  (2) 
[12.950568596671392, -25.47149759165538, -28.196019454031884, 0.36741127791575523, -0.04513455333183639, 0.24103222144262712, -0.5718403634287784, 9.273881463331117, 5.572792509494904]

>  <energy>  (2) 
-1465.359001822091

>  <inter_energy>  (2) 
-1447.0379446464897

>  <intra_energy>  (2) 
1.4390804967429205

>  <rmsd>  (2) 
2.00814

>  <sdf_rank>  (2) 
0

$$$$

     RDKit          3D

 47 50  0  0  0  0  0  0  0  0999 V2000
   17.1829  -26.9782  -24.0219 O   0  0  0  0  0  0  0  0  0  0  0  0
   16.8430  -25.7657  -24.2554 C   0  0  0  0  0  0  0  0  0  0  0  0
   17.3727  -24.7859  -23.5242 N   0  0  0  0  0  0  0  0  0  0  0  0
   16.9906  -23.5175  -23.8016 C   0  0  0  0  0  0  0  0  0  0  0  0
   16.0687  -23.1882  -24.7569 C   0  0  0  0  0  0  0  0  0  0  0  0
   15.4852  -24.2191  -25.5343 C   0  0  0  0  0  0  0  0  0  0  0  0
   15.9005  -25.5585  -25.3062 C   0  0  0  0  0  0  0  0  0  0  0  0
   15.3318  -26.5830  -26.0997 C   0  0  0  0  0  0  0  0  0  0  0  0
   14.3920  -26.3049  -27.0433 C   0  0  0  0  0  0  0  0  0  0  0  0
   14.4964  -23.9716  -26.5161 C   0  0  0  0  0  0  0  0  0  0  0  0
   13.9416  -25.0013  -27.2587 C   0  0  0  0  0  0  0  0  0  0  0  0
   12.8603  -24.7369  -28.2339 C   0  0  0  0  0  0  0  0  0  0  0  0
   12.7059  -23.4732  -28.8063 C   0  0  0  0  0  0  0  0  0  0  0  0
   11.6885  -23.2292  -29.7132 C   0  0  0  0  0  0  0  0  0  0  0  0
   10.8241  -24.2482  -30.0707 C   0  0  0  0  0  0  0  0  0  0  0  0
   11.9722  -25.7420  -28.6006 C   0  0  0  0  0  0  0  0  0  0  0  0
   10.9771  -25.5209  -29.5419 C   0  0  0  0  0  0  0  0  0  0  0  0
   10.2522  -26.6972  -30.1363 C   0  0  0  0  0  0  0  0  0  0  0  0
    9.1396  -26.2518  -30.9903 N   0  0  2  0  0  0  0  0  0  0  0  0
    8.0397  -25.6519  -30.2245 C   0  0  0  0  0  0  0  0  0  0  0  0
    6.8362  -25.7025  -31.1394 C   0  0  0  0  0  0  0  0  0  0  0  0
    8.5193  -27.3399  -31.7548 C   0  0  0  0  0  0  0  0  0  0  0  0
    7.0265  -27.0325  -31.8639 C   0  0  2  0  0  0  0  0  0  0  0  0
    6.6940  -26.8514  -33.2756 N   0  0  0  0  0  0  0  0  0  0  0  0
   16.7949  -27.7133  -24.5596 H   0  0  0  0  0  0  0  0  0  0  0  0
   17.4493  -22.7017  -23.2236 H   0  0  0  0  0  0  0  0  0  0  0  0
   15.7844  -22.1380  -24.9194 H   0  0  0  0  0  0  0  0  0  0  0  0
   15.6557  -27.6237  -25.9507 H   0  0  0  0  0  0  0  0  0  0  0  0
   13.9784  -27.1245  -27.6492 H   0  0  0  0  0  0  0  0  0  0  0  0
   14.1610  -22.9391  -26.6936 H   0  0  0  0  0  0  0  0  0  0  0  0
   13.3990  -22.6635  -28.5343 H   0  0  0  0  0  0  0  0  0  0  0  0
   11.5677  -22.2264  -30.1487 H   0  0  0  0  0  0  0  0  0  0  0  0
   10.0084  -24.0472  -30.7807 H   0  0  0  0  0  0  0  0  0  0  0  0
   12.0605  -26.7343  -28.1342 H   0  0  0  0  0  0  0  0  0  0  0  0
   10.9571  -27.2863  -30.7414 H   0  0  0  0  0  0  0  0  0  0  0  0
    9.8441  -27.3085  -29.3179 H   0  0  0  0  0  0  0  0  0  0  0  0
    9.5874  -25.5671  -31.6160 H   0  0  0  0  0  0  0  0  0  0  0  0
    7.8501  -26.2290  -29.3074 H   0  0  0  0  0  0  0  0  0  0  0  0
    8.2728  -24.6230  -29.9131 H   0  0  0  0  0  0  0  0  0  0  0  0
    5.8988  -25.6942  -30.5637 H   0  0  0  0  0  0  0  0  0  0  0  0
    6.7652  -24.8399  -31.8183 H   0  0  0  0  0  0  0  0  0  0  0  0
    8.9656  -27.3952  -32.7587 H   0  0  0  0  0  0  0  0  0  0  0  0
    8.6801  -28.3058  -31.2537 H   0  0  0  0  0  0  0  0  0  0  0  0
    6.3985  -27.8309  -31.4419 H   0  0  0  0  0  0  0  0  0  0  0  0
    5.7922  -26.3602  -33.3555 H   0  0  0  0  0  0  0  0  0  0  0  0
    7.4299  -26.2946  -33.7330 H   0  0  0  0  0  0  0  0  0  0  0  0
    6.6254  -27.7717  -33.7330 H   0  0  0  0  0  0  0  0  0  0  0  0
  1  2  1  0
  2  3  2  0
  2  7  1  0
  3  4  1  0
  4  5  2  0
  5  6  1  0
  6  7  2  0
  6 10  1  0
  7  8  1  0
  8  9  2  0
  9 11  1  0
 10 11  2  0
 11 12  1  0
 12 13  2  0
 12 16  1  0
 13 14  1  0
 14 15  2  0
 15 17  1  0
 16 17  2  0
 17 18  1  0
 19 18  1  0
 19 20  1  0
 19 22  1  0
 20 21  1  0
 21 23  1  0
 22 23  1  0
 23 24  1  0
  1 25  1  0
  4 26  1  0
  5 27  1  0
  8 28  1  0
  9 29  1  0
 10 30  1  0
 13 31  1  0
 14 32  1  0
 15 33  1  0
 16 34  1  0
 18 35  1  0
 18 36  1  0
 19 37  1  6
 20 38  1  0
 20 39  1  0
 21 40  1  0
 21 41  1  0
 22 42  1  0
 22 43  1  0
 23 44  1  1
 24 45  1  0
 24 46  1  0
 24 47  1  0
M  CHG  2  19   1  24   1
M  END
>  <filename_input>  (3) 
7PIH_7QW_docked.sdf

>  <pdb_id>  (3) 
7PIH_7QW

>  <pose_rank>  (3) 
2

>  <num_atoms_heavy>  (3) 
24

>  <num_torsions>  (3) 
3

>  <pose>  (3) 
[12.860348502929517, -24.73693650881797, -28.233921832217852, -2.3147458663848117, 0.25452529492166326, -2.093606020603179, 3.146031106922594, -1.7219808523846742, -0.14999431540954153]

>  <energy>  (3) 
-1351.174494807291

>  <inter_energy>  (3) 
-1348.2741770891978

>  <intra_energy>  (3) 
13.790177869437102

>  <rmsd>  (3) 
3.10294

>  <sdf_rank>  (3) 
0

$$$$

     RDKit          3D

 47 50  0  0  0  0  0  0  0  0999 V2000
   17.2925  -26.9178  -23.9010 O   0  0  0  0  0  0  0  0  0  0  0  0
   16.8424  -25.7879  -24.3019 C   0  0  0  0  0  0  0  0  0  0  0  0
   17.2581  -24.6703  -23.7075 N   0  0  0  0  0  0  0  0  0  0  0  0
   16.7615  -23.4953  -24.1600 C   0  0  0  0  0  0  0  0  0  0  0  0
   15.8340  -23.3916  -25.1599 C   0  0  0  0  0  0  0  0  0  0  0  0
   15.3706  -24.5711  -25.7936 C   0  0  0  0  0  0  0  0  0  0  0  0
   15.9082  -25.8194  -25.3798 C   0  0  0  0  0  0  0  0  0  0  0  0
   15.4593  -26.9934  -26.0302 C   0  0  0  0  0  0  0  0  0  0  0  0
   14.5186  -26.9403  -27.0117 C   0  0  0  0  0  0  0  0  0  0  0  0
   14.3849  -24.5582  -26.8091 C   0  0  0  0  0  0  0  0  0  0  0  0
   13.9493  -25.7290  -27.4082 C   0  0  0  0  0  0  0  0  0  0  0  0
   12.8698  -25.7077  -28.4203 C   0  0  0  0  0  0  0  0  0  0  0  0
   12.1847  -26.8753  -28.7608 C   0  0  0  0  0  0  0  0  0  0  0  0
   11.1800  -26.8512  -29.7133 C   0  0  0  0  0  0  0  0  0  0  0  0
   10.8374  -25.6586  -30.3245 C   0  0  0  0  0  0  0  0  0  0  0  0
   12.5150  -24.5234  -29.0566 C   0  0  0  0  0  0  0  0  0  0  0  0
   11.4799  -24.4793  -29.9795 C   0  0  0  0  0  0  0  0  0  0  0  0
   10.9264  -23.1456  -30.4010 C   0  0  0  0  0  0  0  0  0  0  0  0
   10.8908  -22.2093  -29.2663 N   0  0  2  0  0  0  0  0  0  0  0  0
   12.2296  -21.7941  -28.8292 C   0  0  0  0  0  0  0  0  0  0  0  0
   12.0491  -21.2628  -27.4245 C   0  0  0  0  0  0  0  0  0  0  0  0
   10.2577  -22.7698  -28.0671 C   0  0  0  0  0  0  0  0  0  0  0  0
   10.9844  -22.1951  -26.8520 C   0  0  2  0  0  0  0  0  0  0  0  0
   10.0324  -21.4024  -26.0764 N   0  0  0  0  0  0  0  0  0  0  0  0
   16.9897  -27.7539  -24.3362 H   0  0  0  0  0  0  0  0  0  0  0  0
   17.1261  -22.5673  -23.6953 H   0  0  0  0  0  0  0  0  0  0  0  0
   15.4533  -22.4065  -25.4677 H   0  0  0  0  0  0  0  0  0  0  0  0
   15.8788  -27.9670  -25.7368 H   0  0  0  0  0  0  0  0  0  0  0  0
   14.1999  -27.8715  -27.5030 H   0  0  0  0  0  0  0  0  0  0  0  0
   13.9554  -23.5977  -27.1297 H   0  0  0  0  0  0  0  0  0  0  0  0
   12.4454  -27.8235  -28.2679 H   0  0  0  0  0  0  0  0  0  0  0  0
   10.6550  -27.7793  -29.9836 H   0  0  0  0  0  0  0  0  0  0  0  0
   10.0484  -25.6457  -31.0909 H   0  0  0  0  0  0  0  0  0  0  0  0
   13.0671  -23.6011  -28.8231 H   0  0  0  0  0  0  0  0  0  0  0  0
   11.5627  -22.7261  -31.1942 H   0  0  0  0  0  0  0  0  0  0  0  0
    9.9000  -23.2915  -30.7686 H   0  0  0  0  0  0  0  0  0  0  0  0
   10.3471  -21.4168  -29.6368 H   0  0  0  0  0  0  0  0  0  0  0  0
   12.9177  -22.6524  -28.8302 H   0  0  0  0  0  0  0  0  0  0  0  0
   12.6615  -21.0367  -29.4998 H   0  0  0  0  0  0  0  0  0  0  0  0
   12.9854  -21.3294  -26.8510 H   0  0  0  0  0  0  0  0  0  0  0  0
   11.7652  -20.2006  -27.3909 H   0  0  0  0  0  0  0  0  0  0  0  0
    9.1949  -22.4879  -28.0370 H   0  0  0  0  0  0  0  0  0  0  0  0
   10.3218  -23.8679  -28.0729 H   0  0  0  0  0  0  0  0  0  0  0  0
   11.4162  -22.9762  -26.2091 H   0  0  0  0  0  0  0  0  0  0  0  0
   10.2048  -21.5460  -25.0712 H   0  0  0  0  0  0  0  0  0  0  0  0
   10.1489  -20.4051  -26.3058 H   0  0  0  0  0  0  0  0  0  0  0  0
    9.0727  -21.6976  -26.3058 H   0  0  0  0  0  0  0  0  0  0  0  0
  1  2  1  0
  2  3  2  0
  2  7  1  0
  3  4  1  0
  4  5  2  0
  5  6  1  0
  6  7  2  0
  6 10  1  0
  7  8  1  0
  8  9  2  0
  9 11  1  0
 10 11  2  0
 11 12  1  0
 12 13  2  0
 12 16  1  0
 13 14  1  0
 14 15  2  0
 15 17  1  0
 16 17  2  0
 17 18  1  0
 19 18  1  0
 19 20  1  0
 19 22  1  0
 20 21  1  0
 21 23  1  0
 22 23  1  0
 23 24  1  0
  1 25  1  0
  4 26  1  0
  5 27  1  0
  8 28  1  0
  9 29  1  0
 10 30  1  0
 13 31  1  0
 14 32  1  0
 15 33  1  0
 16 34  1  0
 18 35  1  0
 18 36  1  0
 19 37  1  6
 20 38  1  0
 20 39  1  0
 21 40  1  0
 21 41  1  0
 22 42  1  0
 22 43  1  0
 23 44  1  1
 24 45  1  0
 24 46  1  0
 24 47  1  0
M  CHG  2  19   1  24   1
M  END
>  <filename_input>  (4) 
7PIH_7QW_docked.sdf

>  <pdb_id>  (4) 
7PIH_7QW

>  <pose_rank>  (4) 
3

>  <num_atoms_heavy>  (4) 
24

>  <num_torsions>  (4) 
3

>  <pose>  (4) 
[12.869789305484007, -25.707738679426242, -28.420339285186994, -5.528936562974288, 1.0373635077923924, -2.557741393069749, 12.4492850588967, -5.399477710637808, 8.55135992357661]

>  <energy>  (4) 
-1320.484377851283

>  <inter_energy>  (4) 
-1362.4301825078592

>  <intra_energy>  (4) 
53.40673293064135

>  <rmsd>  (4) 
1.74709

>  <sdf_rank>  (4) 
0

$$$$

     RDKit          3D

 47 50  0  0  0  0  0  0  0  0999 V2000
   17.4111  -27.0855  -23.8879 O   0  0  0  0  0  0  0  0  0  0  0  0
   17.0127  -25.9250  -24.2547 C   0  0  0  0  0  0  0  0  0  0  0  0
   17.5395  -24.8424  -23.6842 N   0  0  0  0  0  0  0  0  0  0  0  0
   17.0946  -23.6334  -24.0994 C   0  0  0  0  0  0  0  0  0  0  0  0
   16.1138  -23.4602  -25.0370 C   0  0  0  0  0  0  0  0  0  0  0  0
   15.5329  -24.6013  -25.6438 C   0  0  0  0  0  0  0  0  0  0  0  0
   16.0113  -25.8858  -25.2702 C   0  0  0  0  0  0  0  0  0  0  0  0
   15.4441  -27.0221  -25.8946 C   0  0  0  0  0  0  0  0  0  0  0  0
   14.4480  -26.8988  -26.8131 C   0  0  0  0  0  0  0  0  0  0  0  0
   14.4872  -24.5148  -26.5935 C   0  0  0  0  0  0  0  0  0  0  0  0
   13.9367  -25.6492  -27.1676 C   0  0  0  0  0  0  0  0  0  0  0  0
   12.7983  -25.5481  -28.1078 C   0  0  0  0  0  0  0  0  0  0  0  0
   11.8572  -26.5744  -28.2054 C   0  0  0  0  0  0  0  0  0  0  0  0
   10.7977  -26.4778  -29.0915 C   0  0  0  0  0  0  0  0  0  0  0  0
   10.6571  -25.3489  -29.8782 C   0  0  0  0  0  0  0  0  0  0  0  0
   12.6419  -24.4283  -28.9171 C   0  0  0  0  0  0  0  0  0  0  0  0
   11.5596  -24.3011  -29.7759 C   0  0  0  0  0  0  0  0  0  0  0  0
   11.2602  -22.9604  -30.3886 C   0  0  0  0  0  0  0  0  0  0  0  0
   12.4856  -22.1555  -30.5158 N   0  0  2  0  0  0  0  0  0  0  0  0
   12.2643  -20.7331  -30.2265 C   0  0  0  0  0  0  0  0  0  0  0  0
   13.4344  -20.0070  -30.8523 C   0  0  0  0  0  0  0  0  0  0  0  0
   13.0638  -22.1822  -31.8641 C   0  0  0  0  0  0  0  0  0  0  0  0
   13.6767  -20.8078  -32.1291 C   0  0  2  0  0  0  0  0  0  0  0  0
   15.1170  -20.9723  -32.3155 N   0  0  0  0  0  0  0  0  0  0  0  0
   17.0258  -27.8961  -24.3057 H   0  0  0  0  0  0  0  0  0  0  0  0
   17.5494  -22.7354  -23.6558 H   0  0  0  0  0  0  0  0  0  0  0  0
   15.7808  -22.4496  -25.3159 H   0  0  0  0  0  0  0  0  0  0  0  0
   15.8156  -28.0238  -25.6324 H   0  0  0  0  0  0  0  0  0  0  0  0
   14.0370  -27.8027  -27.2863 H   0  0  0  0  0  0  0  0  0  0  0  0
   14.1031  -23.5252  -26.8822 H   0  0  0  0  0  0  0  0  0  0  0  0
   11.9583  -27.4683  -27.5723 H   0  0  0  0  0  0  0  0  0  0  0  0
   10.0687  -27.2979  -29.1698 H   0  0  0  0  0  0  0  0  0  0  0  0
    9.8221  -25.2816  -30.5912 H   0  0  0  0  0  0  0  0  0  0  0  0
   13.3928  -23.6255  -28.8755 H   0  0  0  0  0  0  0  0  0  0  0  0
   10.8226  -23.1102  -31.3866 H   0  0  0  0  0  0  0  0  0  0  0  0
   10.5546  -22.4255  -29.7359 H   0  0  0  0  0  0  0  0  0  0  0  0
   13.1205  -22.5902  -29.8312 H   0  0  0  0  0  0  0  0  0  0  0  0
   11.3178  -20.3928  -30.6719 H   0  0  0  0  0  0  0  0  0  0  0  0
   12.1963  -20.5421  -29.1453 H   0  0  0  0  0  0  0  0  0  0  0  0
   13.1774  -18.9622  -31.0813 H   0  0  0  0  0  0  0  0  0  0  0  0
   14.3160  -19.9499  -30.1969 H   0  0  0  0  0  0  0  0  0  0  0  0
   13.8414  -22.9579  -31.9238 H   0  0  0  0  0  0  0  0  0  0  0  0
   12.2909  -22.4122  -32.6123 H   0  0  0  0  0  0  0  0  0  0  0  0
   13.2488  -20.3179  -33.0161 H   0  0  0  0  0  0  0  0  0  0  0  0
   15.5783  -21.0249  -31.3961 H   0  0  0  0  0  0  0  0  0  0  0  0
   15.2984  -21.8394  -32.8408 H   0  0  0  0  0  0  0  0  0  0  0  0
   15.4892  -20.1683  -32.8408 H   0  0  0  0  0  0  0  0  0  0  0  0
  1  2  1  0
  2  3  2  0
  2  7  1  0
  3  4  1  0
  4  5  2  0
  5  6  1  0
  6  7  2  0
  6 10  1  0
  7  8  1  0
  8  9  2  0
  9 11  1  0
 10 11  2  0
 11 12  1  0
 12 13  2  0
 12 16  1  0
 13 14  1  0
 14 15  2  0
 15 17  1  0
 16 17  2  0
 17 18  1  0
 19 18  1  0
 19 20  1  0
 19 22  1  0
 20 21  1  0
 21 23  1  0
 22 23  1  0
 23 24  1  0
  1 25  1  0
  4 26  1  0
  5 27  1  0
  8 28  1  0
  9 29  1  0
 10 30  1  0
 13 31  1  0
 14 32  1  0
 15 33  1  0
 16 34  1  0
 18 35  1  0
 18 36  1  0
 19 37  1  1
 20 38  1  0
 20 39  1  0
 21 40  1  0
 21 41  1  0
 22 42  1  0
 22 43  1  0
 23 44  1  6
 24 45  1  0
 24 46  1  0
 24 47  1  0
M  CHG  2  19   1  24   1
M  END
>  <filename_input>  (5) 
7PIH_7QW_docked.sdf

>  <pdb_id>  (5) 
7PIH_7QW

>  <pose_rank>  (5) 
4

>  <num_atoms_heavy>  (5) 
24

>  <num_torsions>  (5) 
3

>  <pose>  (5) 
[12.79834955315098, -25.54809359599022, -28.107814207790224, 2.2683620598823775, -1.5308861655738966, 5.436233477846495, 6.394201553953783, -4.2648341799389735, -1.4101183778345527]

>  <energy>  (5) 
-1330.1714604159968

>  <inter_energy>  (5) 
-1327.8285026045867

>  <intra_energy>  (5) 
0.14996370140551657

>  <rmsd>  (5) 
2.8308

>  <sdf_rank>  (5) 
0

$$$$

     RDKit          3D

 47 50  0  0  0  0  0  0  0  0999 V2000
   17.2282  -26.5402  -23.5803 O   0  0  0  0  0  0  0  0  0  0  0  0
   16.9101  -25.4617  -24.1933 C   0  0  0  0  0  0  0  0  0  0  0  0
   17.4828  -24.3132  -23.8356 N   0  0  0  0  0  0  0  0  0  0  0  0
   17.1224  -23.1949  -24.5076 C   0  0  0  0  0  0  0  0  0  0  0  0
   16.1817  -23.1690  -25.5003 C   0  0  0  0  0  0  0  0  0  0  0  0
   15.5526  -24.3794  -25.8837 C   0  0  0  0  0  0  0  0  0  0  0  0
   15.9432  -25.5818  -25.2355 C   0  0  0  0  0  0  0  0  0  0  0  0
   15.3286  -26.7918  -25.6366 C   0  0  0  0  0  0  0  0  0  0  0  0
   14.3691  -26.8100  -26.6010 C   0  0  0  0  0  0  0  0  0  0  0  0
   14.5424  -24.4374  -26.8731 C   0  0  0  0  0  0  0  0  0  0  0  0
   13.9431  -25.6360  -27.2247 C   0  0  0  0  0  0  0  0  0  0  0  0
   12.8410  -25.6730  -28.2117 C   0  0  0  0  0  0  0  0  0  0  0  0
   12.0929  -26.8354  -28.4060 C   0  0  0  0  0  0  0  0  0  0  0  0
   11.0671  -26.8667  -29.3354 C   0  0  0  0  0  0  0  0  0  0  0  0
   10.7665  -25.7335  -30.0695 C   0  0  0  0  0  0  0  0  0  0  0  0
   12.5272  -24.5502  -28.9694 C   0  0  0  0  0  0  0  0  0  0  0  0
   11.4727  -24.5569  -29.8712 C   0  0  0  0  0  0  0  0  0  0  0  0
   10.9731  -23.2521  -30.4284 C   0  0  0  0  0  0  0  0  0  0  0  0
    9.5031  -23.2383  -30.4960 N   0  0  2  0  0  0  0  0  0  0  0  0
    8.9658  -21.9423  -30.9294 C   0  0  0  0  0  0  0  0  0  0  0  0
    7.5185  -21.9378  -30.4896 C   0  0  0  0  0  0  0  0  0  0  0  0
    8.8573  -23.5035  -29.2054 C   0  0  0  0  0  0  0  0  0  0  0  0
    7.5763  -22.6722  -29.1526 C   0  0  2  0  0  0  0  0  0  0  0  0
    6.4371  -23.5837  -29.0666 N   0  0  0  0  0  0  0  0  0  0  0  0
   16.8083  -27.3987  -23.8387 H   0  0  0  0  0  0  0  0  0  0  0  0
   17.6161  -22.2493  -24.2391 H   0  0  0  0  0  0  0  0  0  0  0  0
   15.9173  -22.2222  -25.9938 H   0  0  0  0  0  0  0  0  0  0  0  0
   15.6324  -27.7354  -25.1597 H   0  0  0  0  0  0  0  0  0  0  0  0
   13.9196  -27.7698  -26.8953 H   0  0  0  0  0  0  0  0  0  0  0  0
   14.2261  -23.5105  -27.3740 H   0  0  0  0  0  0  0  0  0  0  0  0
   12.3204  -27.7349  -27.8151 H   0  0  0  0  0  0  0  0  0  0  0  0
   10.4919  -27.7916  -29.4899 H   0  0  0  0  0  0  0  0  0  0  0  0
    9.9601  -25.7661  -30.8170 H   0  0  0  0  0  0  0  0  0  0  0  0
   13.1283  -23.6365  -28.8514 H   0  0  0  0  0  0  0  0  0  0  0  0
   11.3115  -22.4304  -29.7801 H   0  0  0  0  0  0  0  0  0  0  0  0
   11.3727  -23.1285  -31.4458 H   0  0  0  0  0  0  0  0  0  0  0  0
    9.2953  -23.9843  -31.1751 H   0  0  0  0  0  0  0  0  0  0  0  0
    9.5157  -21.1186  -30.4506 H   0  0  0  0  0  0  0  0  0  0  0  0
    9.0627  -21.8030  -32.0162 H   0  0  0  0  0  0  0  0  0  0  0  0
    7.1448  -20.9110  -30.3632 H   0  0  0  0  0  0  0  0  0  0  0  0
    6.8381  -22.4048  -31.2169 H   0  0  0  0  0  0  0  0  0  0  0  0
    8.6147  -24.5730  -29.1197 H   0  0  0  0  0  0  0  0  0  0  0  0
    9.5272  -23.2356  -28.3750 H   0  0  0  0  0  0  0  0  0  0  0  0
    7.5551  -21.9819  -28.2964 H   0  0  0  0  0  0  0  0  0  0  0  0
    6.2141  -23.7622  -28.0770 H   0  0  0  0  0  0  0  0  0  0  0  0
    5.6217  -23.1591  -29.5311 H   0  0  0  0  0  0  0  0  0  0  0  0
    6.6726  -24.4724  -29.5311 H   0  0  0  0  0  0  0  0  0  0  0  0
  1  2  1  0
  2  3  2  0
  2  7  1  0
  3  4  1  0
  4  5  2  0
  5  6  1  0
  6  7  2  0
  6 10  1  0
  7  8  1  0
  8  9  2  0
  9 11  1  0
 10 11  2  0
 11 12  1  0
 12 13  2  0
 12 16  1  0
 13 14  1  0
 14 15  2  0
 15 17  1  0
 16 17  2  0
 17 18  1  0
 19 18  1  0
 19 20  1  0
 19 22  1  0
 20 21  1  0
 21 23  1  0
 22 23  1  0
 23 24  1  0
  1 25  1  0
  4 26  1  0
  5 27  1  0
  8 28  1  0
  9 29  1  0
 10 30  1  0
 13 31  1  0
 14 32  1  0
 15 33  1  0
 16 34  1  0
 18 35  1  0
 18 36  1  0
 19 37  1  6
 20 38  1  0
 20 39  1  0
 21 40  1  0
 21 41  1  0
 22 42  1  0
 22 43  1  0
 23 44  1  1
 24 45  1  0
 24 46  1  0
 24 47  1  0
M  CHG  2  19   1  24   1
M  END
>  <filename_input>  (6) 
7PIH_7QW_docked.sdf

>  <pdb_id>  (6) 
7PIH_7QW

>  <pose_rank>  (6) 
5

>  <num_atoms_heavy>  (6) 
24

>  <num_torsions>  (6) 
3

>  <pose>  (6) 
[12.841017528194778, -25.67301136319393, -28.211655750290063, -5.817519528742677, 1.5261044137293351, -1.8877789704044765, -6.518319451408768, -0.8923787122149281, -2.163559823700679]

>  <energy>  (6) 
-1261.6559576162638

>  <inter_energy>  (6) 
-1280.2895830383225

>  <intra_energy>  (6) 
16.420017334229563

>  <rmsd>  (6) 
1.18164

>  <sdf_rank>  (6) 
0

$$$$

     RDKit          3D

 47 50  0  0  0  0  0  0  0  0999 V2000
   17.2023  -23.8605  -23.7826 O   0  0  0  0  0  0  0  0  0  0  0  0
   16.9648  -25.0179  -24.2767 C   0  0  0  0  0  0  0  0  0  0  0  0
   17.7300  -26.0495  -23.9226 N   0  0  0  0  0  0  0  0  0  0  0  0
   17.4472  -27.2572  -24.4643 C   0  0  0  0  0  0  0  0  0  0  0  0
   16.4522  -27.4713  -25.3782 C   0  0  0  0  0  0  0  0  0  0  0  0
   15.6378  -26.3823  -25.7763 C   0  0  0  0  0  0  0  0  0  0  0  0
   15.8723  -25.1098  -25.1896 C   0  0  0  0  0  0  0  0  0  0  0  0
   15.0425  -24.0295  -25.5732 C   0  0  0  0  0  0  0  0  0  0  0  0
   14.0578  -24.1902  -26.4982 C   0  0  0  0  0  0  0  0  0  0  0  0
   14.6123  -26.5066  -26.7438 C   0  0  0  0  0  0  0  0  0  0  0  0
   13.8340  -25.4222  -27.1152 C   0  0  0  0  0  0  0  0  0  0  0  0
   12.8109  -25.5503  -28.1768 C   0  0  0  0  0  0  0  0  0  0  0  0
   12.1449  -26.7589  -28.3870 C   0  0  0  0  0  0  0  0  0  0  0  0
   11.1933  -26.8753  -29.3860 C   0  0  0  0  0  0  0  0  0  0  0  0
   10.8846  -25.7822  -30.1754 C   0  0  0  0  0  0  0  0  0  0  0  0
   12.4914  -24.4690  -28.9904 C   0  0  0  0  0  0  0  0  0  0  0  0
   11.5078  -24.5616  -29.9647 C   0  0  0  0  0  0  0  0  0  0  0  0
   10.9784  -23.3039  -30.5975 C   0  0  0  0  0  0  0  0  0  0  0  0
   10.1300  -22.5582  -29.6543 N   0  0  2  0  0  0  0  0  0  0  0  0
    9.6995  -23.3721  -28.5106 C   0  0  0  0  0  0  0  0  0  0  0  0
    8.4997  -22.6544  -27.9330 C   0  0  0  0  0  0  0  0  0  0  0  0
    8.8868  -22.0616  -30.2550 C   0  0  0  0  0  0  0  0  0  0  0  0
    7.8018  -22.1191  -29.1807 C   0  0  2  0  0  0  0  0  0  0  0  0
    7.3418  -20.7575  -28.9150 N   0  0  0  0  0  0  0  0  0  0  0  0
   16.6395  -23.0877  -24.0394 H   0  0  0  0  0  0  0  0  0  0  0  0
   18.0545  -28.1190  -24.1506 H   0  0  0  0  0  0  0  0  0  0  0  0
   16.2867  -28.4745  -25.7980 H   0  0  0  0  0  0  0  0  0  0  0  0
   15.1965  -23.0415  -25.1149 H   0  0  0  0  0  0  0  0  0  0  0  0
   13.4248  -23.3312  -26.7655 H   0  0  0  0  0  0  0  0  0  0  0  0
   14.4293  -27.4854  -27.2110 H   0  0  0  0  0  0  0  0  0  0  0  0
   12.3783  -27.6270  -27.7531 H   0  0  0  0  0  0  0  0  0  0  0  0
   10.6835  -27.8359  -29.5517 H   0  0  0  0  0  0  0  0  0  0  0  0
   10.1383  -25.8822  -30.9773 H   0  0  0  0  0  0  0  0  0  0  0  0
   13.0303  -23.5191  -28.8589 H   0  0  0  0  0  0  0  0  0  0  0  0
   11.8244  -22.6693  -30.9001 H   0  0  0  0  0  0  0  0  0  0  0  0
   10.3722  -23.5794  -31.4731 H   0  0  0  0  0  0  0  0  0  0  0  0
   10.7375  -21.7795  -29.3618 H   0  0  0  0  0  0  0  0  0  0  0  0
    9.4200  -24.3832  -28.8417 H   0  0  0  0  0  0  0  0  0  0  0  0
   10.5020  -23.4889  -27.7674 H   0  0  0  0  0  0  0  0  0  0  0  0
    7.8492  -23.3486  -27.3808 H   0  0  0  0  0  0  0  0  0  0  0  0
    8.7650  -21.8701  -27.2088 H   0  0  0  0  0  0  0  0  0  0  0  0
    9.0227  -21.0247  -30.5963 H   0  0  0  0  0  0  0  0  0  0  0  0
    8.6045  -22.6749  -31.1235 H   0  0  0  0  0  0  0  0  0  0  0  0
    6.9446  -22.7410  -29.4782 H   0  0  0  0  0  0  0  0  0  0  0  0
    7.2902  -20.6048  -27.8977 H   0  0  0  0  0  0  0  0  0  0  0  0
    8.0022  -20.0849  -29.3301 H   0  0  0  0  0  0  0  0  0  0  0  0
    6.4087  -20.6232  -29.3301 H   0  0  0  0  0  0  0  0  0  0  0  0
  1  2  1  0
  2  3  2  0
  2  7  1  0
  3  4  1  0
  4  5  2  0
  5  6  1  0
  6  7  2  0
  6 10  1  0
  7  8  1  0
  8  9  2  0
  9 11  1  0
 10 11  2  0
 11 12  1  0
 12 13  2  0
 12 16  1  0
 13 14  1  0
 14 15  2  0
 15 17  1  0
 16 17  2  0
 17 18  1  0
 19 18  1  0
 19 20  1  0
 19 22  1  0
 20 21  1  0
 21 23  1  0
 22 23  1  0
 23 24  1  0
  1 25  1  0
  4 26  1  0
  5 27  1  0
  8 28  1  0
  9 29  1  0
 10 30  1  0
 13 31  1  0
 14 32  1  0
 15 33  1  0
 16 34  1  0
 18 35  1  0
 18 36  1  0
 19 37  1  1
 20 38  1  0
 20 39  1  0
 21 40  1  0
 21 41  1  0
 22 42  1  0
 22 43  1  0
 23 44  1  6
 24 45  1  0
 24 46  1  0
 24 47  1  0
M  CHG  2  19   1  24   1
M  END
>  <filename_input>  (7) 
7PIH_7QW_docked.sdf

>  <pdb_id>  (7) 
7PIH_7QW

>  <pose_rank>  (7) 
6

>  <num_atoms_heavy>  (7) 
24

>  <num_torsions>  (7) 
3

>  <pose>  (7) 
[12.810925681949449, -25.550269229218642, -28.176782825594245, 3.084162979455746, 4.323946687019954, -3.170748523642856, -3.0211908570116854, 0.27336501399584406, 0.7757215038468962]

>  <energy>  (7) 
-922.9362478186864

>  <inter_energy>  (7) 
-944.1526467071398

>  <intra_energy>  (7) 
29.720351169913577

>  <rmsd>  (7) 
1.7801

>  <sdf_rank>  (7) 
0

$$$$

     RDKit          3D

 47 50  0  0  0  0  0  0  0  0999 V2000
   17.0748  -25.2002  -23.3814 O   0  0  0  0  0  0  0  0  0  0  0  0
   16.6733  -26.0630  -24.2384 C   0  0  0  0  0  0  0  0  0  0  0  0
   17.1966  -27.2882  -24.2269 N   0  0  0  0  0  0  0  0  0  0  0  0
   16.7459  -28.1729  -25.1468 C   0  0  0  0  0  0  0  0  0  0  0  0
   15.8185  -27.8727  -26.1063 C   0  0  0  0  0  0  0  0  0  0  0  0
   15.2619  -26.5701  -26.1416 C   0  0  0  0  0  0  0  0  0  0  0  0
   15.6732  -25.6299  -25.1591 C   0  0  0  0  0  0  0  0  0  0  0  0
   15.0987  -24.3369  -25.1840 C   0  0  0  0  0  0  0  0  0  0  0  0
   14.1923  -23.9858  -26.1360 C   0  0  0  0  0  0  0  0  0  0  0  0
   14.3265  -26.1634  -27.1227 C   0  0  0  0  0  0  0  0  0  0  0  0
   13.8019  -24.8811  -27.1333 C   0  0  0  0  0  0  0  0  0  0  0  0
   12.8769  -24.4482  -28.2043 C   0  0  0  0  0  0  0  0  0  0  0  0
   12.9293  -25.0281  -29.4730 C   0  0  0  0  0  0  0  0  0  0  0  0
   12.0660  -24.6148  -30.4736 C   0  0  0  0  0  0  0  0  0  0  0  0
   11.1305  -23.6296  -30.2140 C   0  0  0  0  0  0  0  0  0  0  0  0
   11.9354  -23.4519  -27.9710 C   0  0  0  0  0  0  0  0  0  0  0  0
   11.0359  -23.0616  -28.9526 C   0  0  0  0  0  0  0  0  0  0  0  0
    9.8477  -22.2224  -28.5699 C   0  0  0  0  0  0  0  0  0  0  0  0
    8.7734  -22.3466  -29.5679 N   0  0  2  0  0  0  0  0  0  0  0  0
    8.3362  -21.0488  -30.0975 C   0  0  0  0  0  0  0  0  0  0  0  0
    6.9705  -21.2974  -30.6986 C   0  0  0  0  0  0  0  0  0  0  0  0
    7.5548  -22.9696  -29.0387 C   0  0  0  0  0  0  0  0  0  0  0  0
    6.3631  -22.3115  -29.7327 C   0  0  2  0  0  0  0  0  0  0  0  0
    5.6564  -23.3318  -30.5045 N   0  0  0  0  0  0  0  0  0  0  0  0
   16.6922  -24.2871  -23.3817 H   0  0  0  0  0  0  0  0  0  0  0  0
   17.1500  -29.1957  -25.1211 H   0  0  0  0  0  0  0  0  0  0  0  0
   15.5092  -28.6316  -26.8401 H   0  0  0  0  0  0  0  0  0  0  0  0
   15.3903  -23.6019  -24.4193 H   0  0  0  0  0  0  0  0  0  0  0  0
   13.7581  -22.9753  -26.1196 H   0  0  0  0  0  0  0  0  0  0  0  0
   14.0090  -26.8810  -27.8936 H   0  0  0  0  0  0  0  0  0  0  0  0
   13.6633  -25.8208  -29.6798 H   0  0  0  0  0  0  0  0  0  0  0  0
   12.1241  -25.0694  -31.4736 H   0  0  0  0  0  0  0  0  0  0  0  0
   10.4557  -23.2938  -31.0152 H   0  0  0  0  0  0  0  0  0  0  0  0
   11.9031  -22.9625  -26.9864 H   0  0  0  0  0  0  0  0  0  0  0  0
    9.4710  -22.5564  -27.5918 H   0  0  0  0  0  0  0  0  0  0  0  0
   10.1622  -21.1694  -28.5214 H   0  0  0  0  0  0  0  0  0  0  0  0
    9.2023  -22.9325  -30.2984 H   0  0  0  0  0  0  0  0  0  0  0  0
    8.2711  -20.3058  -29.2891 H   0  0  0  0  0  0  0  0  0  0  0  0
    9.0433  -20.6521  -30.8409 H   0  0  0  0  0  0  0  0  0  0  0  0
    6.3757  -20.3726  -30.7296 H   0  0  0  0  0  0  0  0  0  0  0  0
    7.0076  -21.6514  -31.7394 H   0  0  0  0  0  0  0  0  0  0  0  0
    7.5629  -24.0491  -29.2498 H   0  0  0  0  0  0  0  0  0  0  0  0
    7.4920  -22.8331  -27.9490 H   0  0  0  0  0  0  0  0  0  0  0  0
    5.6651  -21.8444  -29.0223 H   0  0  0  0  0  0  0  0  0  0  0  0
    5.1985  -23.9930  -29.8611 H   0  0  0  0  0  0  0  0  0  0  0  0
    4.9450  -22.8819  -31.0981 H   0  0  0  0  0  0  0  0  0  0  0  0
    6.3278  -23.8396  -31.0981 H   0  0  0  0  0  0  0  0  0  0  0  0
  1  2  1  0
  2  3  2  0
  2  7  1  0
  3  4  1  0
  4  5  2  0
  5  6  1  0
  6  7  2  0
  6 10  1  0
  7  8  1  0
  8  9  2  0
  9 11  1  0
 10 11  2  0
 11 12  1  0
 12 13  2  0
 12 16  1  0
 13 14  1  0
 14 15  2  0
 15 17  1  0
 16 17  2  0
 17 18  1  0
 19 18  1  0
 19 20  1  0
 19 22  1  0
 20 21  1  0
 21 23  1  0
 22 23  1  0
 23 24  1  0
  1 25  1  0
  4 26  1  0
  5 27  1  0
  8 28  1  0
  9 29  1  0
 10 30  1  0
 13 31  1  0
 14 32  1  0
 15 33  1  0
 16 34  1  0
 18 35  1  0
 18 36  1  0
 19 37  1  6
 20 38  1  0
 20 39  1  0
 21 40  1  0
 21 41  1  0
 22 42  1  0
 22 43  1  0
 23 44  1  1
 24 45  1  0
 24 46  1  0
 24 47  1  0
M  CHG  2  19   1  24   1
M  END
>  <filename_input>  (8) 
7PIH_7QW_docked.sdf

>  <pdb_id>  (8) 
7PIH_7QW

>  <pose_rank>  (8) 
7

>  <num_atoms_heavy>  (8) 
24

>  <num_torsions>  (8) 
3

>  <pose>  (8) 
[12.876877822359335, -24.44822332728728, -28.204338790510832, 0.9629066965259769, -0.2626287718187521, 0.5815268546608294, 2.2455561537219486, 5.060434294113151, -1.1264221406170474]

>  <energy>  (8) 
-887.2533951798396

>  <inter_energy>  (8) 
-885.9255378643098

>  <intra_energy>  (8) 
0.0

>  <rmsd>  (8) 
2.57399

>  <sdf_rank>  (8) 
0

$$$$

     RDKit          3D

 47 50  0  0  0  0  0  0  0  0999 V2000
   17.3383  -24.6136  -23.6980 O   0  0  0  0  0  0  0  0  0  0  0  0
   17.0163  -25.6968  -24.3004 C   0  0  0  0  0  0  0  0  0  0  0  0
   17.7029  -26.8114  -24.0530 N   0  0  0  0  0  0  0  0  0  0  0  0
   17.3320  -27.9367  -24.7074 C   0  0  0  0  0  0  0  0  0  0  0  0
   16.3246  -27.9871  -25.6313 C   0  0  0  0  0  0  0  0  0  0  0  0
   15.5931  -26.8076  -25.9167 C   0  0  0  0  0  0  0  0  0  0  0  0
   15.9206  -25.6189  -25.2109 C   0  0  0  0  0  0  0  0  0  0  0  0
   15.1732  -24.4483  -25.4826 C   0  0  0  0  0  0  0  0  0  0  0  0
   14.1800  -24.4454  -26.4124 C   0  0  0  0  0  0  0  0  0  0  0  0
   14.5620  -26.7615  -26.8850 C   0  0  0  0  0  0  0  0  0  0  0  0
   13.8662  -25.5918  -27.1445 C   0  0  0  0  0  0  0  0  0  0  0  0
   12.8373  -25.5404  -28.2069 C   0  0  0  0  0  0  0  0  0  0  0  0
   12.2266  -26.7075  -28.6690 C   0  0  0  0  0  0  0  0  0  0  0  0
   11.2693  -26.6547  -29.6679 C   0  0  0  0  0  0  0  0  0  0  0  0
   10.8995  -25.4348  -30.2051 C   0  0  0  0  0  0  0  0  0  0  0  0
   12.4570  -24.3274  -28.7703 C   0  0  0  0  0  0  0  0  0  0  0  0
   11.4668  -24.2582  -29.7398 C   0  0  0  0  0  0  0  0  0  0  0  0
   10.8707  -22.9219  -30.0885 C   0  0  0  0  0  0  0  0  0  0  0  0
   11.9215  -21.9052  -30.2547 N   0  0  2  0  0  0  0  0  0  0  0  0
   11.3836  -20.5428  -30.3571 C   0  0  0  0  0  0  0  0  0  0  0  0
   12.4844  -19.7206  -30.9899 C   0  0  0  0  0  0  0  0  0  0  0  0
   12.7232  -22.0881  -31.4700 C   0  0  0  0  0  0  0  0  0  0  0  0
   13.0978  -20.7000  -31.9872 C   0  0  2  0  0  0  0  0  0  0  0  0
   14.5526  -20.5674  -31.9431 N   0  0  0  0  0  0  0  0  0  0  0  0
   16.8343  -23.7801  -23.8750 H   0  0  0  0  0  0  0  0  0  0  0  0
   17.8737  -28.8673  -24.4826 H   0  0  0  0  0  0  0  0  0  0  0  0
   16.0857  -28.9298  -26.1453 H   0  0  0  0  0  0  0  0  0  0  0  0
   15.3995  -23.5235  -24.9317 H   0  0  0  0  0  0  0  0  0  0  0  0
   13.6124  -23.5203  -26.5911 H   0  0  0  0  0  0  0  0  0  0  0  0
   14.3075  -27.6741  -27.4438 H   0  0  0  0  0  0  0  0  0  0  0  0
   12.5087  -27.6784  -28.2355 H   0  0  0  0  0  0  0  0  0  0  0  0
   10.8034  -27.5815  -30.0338 H   0  0  0  0  0  0  0  0  0  0  0  0
   10.1488  -25.3979  -31.0083 H   0  0  0  0  0  0  0  0  0  0  0  0
   12.9520  -23.4023  -28.4400 H   0  0  0  0  0  0  0  0  0  0  0  0
   10.3064  -23.0135  -31.0282 H   0  0  0  0  0  0  0  0  0  0  0  0
   10.2058  -22.6094  -29.2698 H   0  0  0  0  0  0  0  0  0  0  0  0
   12.4969  -22.0261  -29.4090 H   0  0  0  0  0  0  0  0  0  0  0  0
   10.4834  -20.5313  -30.9891 H   0  0  0  0  0  0  0  0  0  0  0  0
   11.0902  -20.1448  -29.3745 H   0  0  0  0  0  0  0  0  0  0  0  0
   12.0761  -18.8363  -31.5011 H   0  0  0  0  0  0  0  0  0  0  0  0
   13.2086  -19.3245  -30.2628 H   0  0  0  0  0  0  0  0  0  0  0  0
   13.6334  -22.6601  -31.2368 H   0  0  0  0  0  0  0  0  0  0  0  0
   12.1535  -22.6436  -32.2296 H   0  0  0  0  0  0  0  0  0  0  0  0
   12.7474  -20.5229  -33.0148 H   0  0  0  0  0  0  0  0  0  0  0  0
   14.8652  -20.5390  -30.9621 H   0  0  0  0  0  0  0  0  0  0  0  0
   14.9853  -21.3725  -32.4181 H   0  0  0  0  0  0  0  0  0  0  0  0
   14.8327  -19.6975  -32.4181 H   0  0  0  0  0  0  0  0  0  0  0  0
  1  2  1  0
  2  3  2  0
  2  7  1  0
  3  4  1  0
  4  5  2  0
  5  6  1  0
  6  7  2  0
  6 10  1  0
  7  8  1  0
  8  9  2  0
  9 11  1  0
 10 11  2  0
 11 12  1  0
 12 13  2  0
 12 16  1  0
 13 14  1  0
 14 15  2  0
 15 17  1  0
 16 17  2  0
 17 18  1  0
 19 18  1  0
 19 20  1  0
 19 22  1  0
 20 21  1  0
 21 23  1  0
 22 23  1  0
 23 24  1  0
  1 25  1  0
  4 26  1  0
  5 27  1  0
  8 28  1  0
  9 29  1  0
 10 30  1  0
 13 31  1  0
 14 32  1  0
 15 33  1  0
 16 34  1  0
 18 35  1  0
 18 36  1  0
 19 37  1  1
 20 38  1  0
 20 39  1  0
 21 40  1  0
 21 41  1  0
 22 42  1  0
 22 43  1  0
 23 44  1  6
 24 45  1  0
 24 46  1  0
 24 47  1  0
M  CHG  2  19   1  24   1
M  END
>  <filename_input>  (9) 
7PIH_7QW_docked.sdf

>  <pdb_id>  (9) 
7PIH_7QW

>  <pose_rank>  (9) 
8

>  <num_atoms_heavy>  (9) 
24

>  <num_torsions>  (9) 
3

>  <pose>  (9) 
[12.837292235919794, -25.54042191752513, -28.206900419393406, -5.045876771855464, 2.014864160339788, -2.729867463720594, 3.0921930242558977, 21.17685165118858, 4.382330144002738]

>  <energy>  (9) 
-928.8531105300391

>  <inter_energy>  (9) 
-908.4055683106617

>  <intra_energy>  (9) 
2.3917046555783577

>  <rmsd>  (9) 
3.13041

>  <sdf_rank>  (9) 
0

$$$$

     RDKit          3D

 47 50  0  0  0  0  0  0  0  0999 V2000
   17.4123  -25.2224  -23.6097 O   0  0  0  0  0  0  0  0  0  0  0  0
   16.7175  -25.8969  -24.4478 C   0  0  0  0  0  0  0  0  0  0  0  0
   16.8929  -27.2150  -24.5315 N   0  0  0  0  0  0  0  0  0  0  0  0
   16.1393  -27.8939  -25.4276 C   0  0  0  0  0  0  0  0  0  0  0  0
   15.2415  -27.3041  -26.2744 C   0  0  0  0  0  0  0  0  0  0  0  0
   15.0525  -25.9014  -26.2084 C   0  0  0  0  0  0  0  0  0  0  0  0
   15.7890  -25.1624  -25.2440 C   0  0  0  0  0  0  0  0  0  0  0  0
   15.5813  -23.7647  -25.1661 C   0  0  0  0  0  0  0  0  0  0  0  0
   14.7179  -23.1319  -26.0059 C   0  0  0  0  0  0  0  0  0  0  0  0
   14.1735  -25.2056  -27.0722 C   0  0  0  0  0  0  0  0  0  0  0  0
   14.0121  -23.8323  -26.9857 C   0  0  0  0  0  0  0  0  0  0  0  0
   13.1418  -23.1087  -27.9391 C   0  0  0  0  0  0  0  0  0  0  0  0
   13.6895  -22.3650  -28.9858 C   0  0  0  0  0  0  0  0  0  0  0  0
   12.8710  -21.6844  -29.8711 C   0  0  0  0  0  0  0  0  0  0  0  0
   11.4966  -21.7518  -29.7311 C   0  0  0  0  0  0  0  0  0  0  0  0
   11.7578  -23.1521  -27.8123 C   0  0  0  0  0  0  0  0  0  0  0  0
   10.9271  -22.5109  -28.7201 C   0  0  0  0  0  0  0  0  0  0  0  0
    9.4592  -22.8394  -28.7333 C   0  0  0  0  0  0  0  0  0  0  0  0
    9.1544  -23.8414  -29.7670 N   0  0  2  0  0  0  0  0  0  0  0  0
    7.7644  -24.3111  -29.7115 C   0  0  0  0  0  0  0  0  0  0  0  0
    7.7507  -25.6219  -30.4663 C   0  0  0  0  0  0  0  0  0  0  0  0
    9.9695  -25.0567  -29.6598 C   0  0  0  0  0  0  0  0  0  0  0  0
    9.0968  -26.2352  -30.0895 C   0  0  2  0  0  0  0  0  0  0  0  0
    9.6894  -26.8385  -31.2815 N   0  0  0  0  0  0  0  0  0  0  0  0
   17.2893  -24.2425  -23.5400 H   0  0  0  0  0  0  0  0  0  0  0  0
   16.2559  -28.9865  -25.4780 H   0  0  0  0  0  0  0  0  0  0  0  0
   14.6743  -27.9101  -26.9962 H   0  0  0  0  0  0  0  0  0  0  0  0
   16.1280  -23.1790  -24.4124 H   0  0  0  0  0  0  0  0  0  0  0  0
   14.5731  -22.0456  -25.9109 H   0  0  0  0  0  0  0  0  0  0  0  0
   13.6061  -25.7674  -27.8287 H   0  0  0  0  0  0  0  0  0  0  0  0
   14.7817  -22.3192  -29.1083 H   0  0  0  0  0  0  0  0  0  0  0  0
   13.3132  -21.0908  -30.6849 H   0  0  0  0  0  0  0  0  0  0  0  0
   10.8497  -21.1985  -30.4278 H   0  0  0  0  0  0  0  0  0  0  0  0
   11.3117  -23.7070  -26.9739 H   0  0  0  0  0  0  0  0  0  0  0  0
    9.1705  -23.2377  -27.7494 H   0  0  0  0  0  0  0  0  0  0  0  0
    8.8958  -21.9214  -28.9567 H   0  0  0  0  0  0  0  0  0  0  0  0
    9.3527  -23.3378  -30.6434 H   0  0  0  0  0  0  0  0  0  0  0  0
    7.4519  -24.4650  -28.6681 H   0  0  0  0  0  0  0  0  0  0  0  0
    7.0687  -23.5804  -30.1497 H   0  0  0  0  0  0  0  0  0  0  0  0
    6.9173  -26.2606  -30.1384 H   0  0  0  0  0  0  0  0  0  0  0  0
    7.6122  -25.5015  -31.5509 H   0  0  0  0  0  0  0  0  0  0  0  0
   10.8471  -24.9796  -30.3184 H   0  0  0  0  0  0  0  0  0  0  0  0
   10.3253  -25.1944  -28.6281 H   0  0  0  0  0  0  0  0  0  0  0  0
    9.0017  -26.9994  -29.3041 H   0  0  0  0  0  0  0  0  0  0  0  0
   10.3836  -27.5453  -30.9997 H   0  0  0  0  0  0  0  0  0  0  0  0
    8.9511  -27.2870  -31.8425 H   0  0  0  0  0  0  0  0  0  0  0  0
   10.1511  -26.1084  -31.8425 H   0  0  0  0  0  0  0  0  0  0  0  0
  1  2  1  0
  2  3  2  0
  2  7  1  0
  3  4  1  0
  4  5  2  0
  5  6  1  0
  6  7  2  0
  6 10  1  0
  7  8  1  0
  8  9  2  0
  9 11  1  0
 10 11  2  0
 11 12  1  0
 12 13  2  0
 12 16  1  0
 13 14  1  0
 14 15  2  0
 15 17  1  0
 16 17  2  0
 17 18  1  0
 19 18  1  0
 19 20  1  0
 19 22  1  0
 20 21  1  0
 21 23  1  0
 22 23  1  0
 23 24  1  0
  1 25  1  0
  4 26  1  0
  5 27  1  0
  8 28  1  0
  9 29  1  0
 10 30  1  0
 13 31  1  0
 14 32  1  0
 15 33  1  0
 16 34  1  0
 18 35  1  0
 18 36  1  0
 19 37  1  6
 20 38  1  0
 20 39  1  0
 21 40  1  0
 21 41  1  0
 22 42  1  0
 22 43  1  0
 23 44  1  1
 24 45  1  0
 24 46  1  0
 24 47  1  0
M  CHG  2  19   1  24   1
M  END
>  <filename_input>  (10) 
7PIH_7QW_docked.sdf

>  <pdb_id>  (10) 
7PIH_7QW

>  <pose_rank>  (10) 
9

>  <num_atoms_heavy>  (10) 
24

>  <num_torsions>  (10) 
3

>  <pose>  (10) 
[13.141777580391532, -23.108699336426, -27.93914685700075, -3.053504245810813, 1.0482038788487882, -2.3390293275332783, -5.367857913780406, -0.15429015858031445, -2.199719000850502]

>  <energy>  (10) 
-799.9034411149007

>  <inter_energy>  (10) 
-794.7217629281714

>  <intra_energy>  (10) 
11.561918348987541

>  <rmsd>  (10) 
3.4471

>  <sdf_rank>  (10) 
0

$$$$

     RDKit          3D

 47 50  0  0  0  0  0  0  0  0999 V2000
   17.6263  -22.7646  -24.2037 O   0  0  0  0  0  0  0  0  0  0  0  0
   17.3161  -24.0023  -24.3129 C   0  0  0  0  0  0  0  0  0  0  0  0
   18.0430  -24.9174  -23.6731 N   0  0  0  0  0  0  0  0  0  0  0  0
   17.6835  -26.2150  -23.8112 C   0  0  0  0  0  0  0  0  0  0  0  0
   16.6475  -26.6421  -24.5957 C   0  0  0  0  0  0  0  0  0  0  0  0
   15.8726  -25.6832  -25.2941 C   0  0  0  0  0  0  0  0  0  0  0  0
   16.1887  -24.3076  -25.1322 C   0  0  0  0  0  0  0  0  0  0  0  0
   15.3986  -23.3516  -25.8139 C   0  0  0  0  0  0  0  0  0  0  0  0
   14.3751  -23.7320  -26.6256 C   0  0  0  0  0  0  0  0  0  0  0  0
   14.8087  -26.0396  -26.1566 C   0  0  0  0  0  0  0  0  0  0  0  0
   14.0706  -25.0790  -26.8289 C   0  0  0  0  0  0  0  0  0  0  0  0
   13.0055  -25.4681  -27.7799 C   0  0  0  0  0  0  0  0  0  0  0  0
   12.5651  -26.7903  -27.8597 C   0  0  0  0  0  0  0  0  0  0  0  0
   11.5730  -27.1503  -28.7558 C   0  0  0  0  0  0  0  0  0  0  0  0
   10.9984  -26.1916  -29.5707 C   0  0  0  0  0  0  0  0  0  0  0  0
   12.4206  -24.5246  -28.6172 C   0  0  0  0  0  0  0  0  0  0  0  0
   11.3947  -24.8655  -29.4870 C   0  0  0  0  0  0  0  0  0  0  0  0
   10.5861  -23.7747  -30.1342 C   0  0  0  0  0  0  0  0  0  0  0  0
    9.1637  -23.8919  -29.7755 N   0  0  2  0  0  0  0  0  0  0  0  0
    8.9445  -24.7172  -28.5810 C   0  0  0  0  0  0  0  0  0  0  0  0
    7.4897  -25.1279  -28.6355 C   0  0  0  0  0  0  0  0  0  0  0  0
    8.3476  -24.5169  -30.8226 C   0  0  0  0  0  0  0  0  0  0  0  0
    7.2604  -25.3374  -30.1301 C   0  0  2  0  0  0  0  0  0  0  0  0
    5.9592  -24.7773  -30.4897 N   0  0  0  0  0  0  0  0  0  0  0  0
   17.0923  -22.0770  -24.6752 H   0  0  0  0  0  0  0  0  0  0  0  0
   18.2595  -26.9721  -23.2590 H   0  0  0  0  0  0  0  0  0  0  0  0
   16.4193  -27.7146  -24.6831 H   0  0  0  0  0  0  0  0  0  0  0  0
   15.6160  -22.2810  -25.6850 H   0  0  0  0  0  0  0  0  0  0  0  0
   13.7749  -22.9618  -27.1322 H   0  0  0  0  0  0  0  0  0  0  0  0
   14.5624  -27.1026  -26.2963 H   0  0  0  0  0  0  0  0  0  0  0  0
   13.0105  -27.5533  -27.2044 H   0  0  0  0  0  0  0  0  0  0  0  0
   11.2421  -28.1974  -28.8196 H   0  0  0  0  0  0  0  0  0  0  0  0
   10.2204  -26.4838  -30.2913 H   0  0  0  0  0  0  0  0  0  0  0  0
   12.7791  -23.4850  -28.5895 H   0  0  0  0  0  0  0  0  0  0  0  0
   10.9633  -22.7981  -29.7966 H   0  0  0  0  0  0  0  0  0  0  0  0
   10.6818  -23.8671  -31.2262 H   0  0  0  0  0  0  0  0  0  0  0  0
    8.8824  -22.9133  -29.6206 H   0  0  0  0  0  0  0  0  0  0  0  0
    9.5954  -25.6037  -28.6015 H   0  0  0  0  0  0  0  0  0  0  0  0
    9.1794  -24.1685  -27.6570 H   0  0  0  0  0  0  0  0  0  0  0  0
    7.3179  -26.0575  -28.0731 H   0  0  0  0  0  0  0  0  0  0  0  0
    6.8088  -24.3896  -28.1870 H   0  0  0  0  0  0  0  0  0  0  0  0
    7.8884  -23.7417  -31.4536 H   0  0  0  0  0  0  0  0  0  0  0  0
    8.9677  -25.1596  -31.4648 H   0  0  0  0  0  0  0  0  0  0  0  0
    7.2891  -26.4004  -30.4114 H   0  0  0  0  0  0  0  0  0  0  0  0
    5.4340  -24.5513  -29.6330 H   0  0  0  0  0  0  0  0  0  0  0  0
    6.0957  -23.9205  -31.0448 H   0  0  0  0  0  0  0  0  0  0  0  0
    5.4308  -25.4655  -31.0448 H   0  0  0  0  0  0  0  0  0  0  0  0
  1  2  1  0
  2  3  2  0
  2  7  1  0
  3  4  1  0
  4  5  2  0
  5  6  1  0
  6  7  2  0
  6 10  1  0
  7  8  1  0
  8  9  2  0
  9 11  1  0
 10 11  2  0
 11 12  1  0
 12 13  2  0
 12 16  1  0
 13 14  1  0
 14 15  2  0
 15 17  1  0
 16 17  2  0
 17 18  1  0
 19 18  1  0
 19 20  1  0
 19 22  1  0
 20 21  1  0
 21 23  1  0
 22 23  1  0
 23 24  1  0
  1 25  1  0
  4 26  1  0
  5 27  1  0
  8 28  1  0
  9 29  1  0
 10 30  1  0
 13 31  1  0
 14 32  1  0
 15 33  1  0
 16 34  1  0
 18 35  1  0
 18 36  1  0
 19 37  1  1
 20 38  1  0
 20 39  1  0
 21 40  1  0
 21 41  1  0
 22 42  1  0
 22 43  1  0
 23 44  1  1
 24 45  1  0
 24 46  1  0
 24 47  1  0
M  CHG  2  19   1  24   1
M  END
>  <filename_input>  (11) 
7PIH_7QW_docked.sdf

>  <pdb_id>  (11) 
7PIH_7QW

>  <pose_rank>  (11) 
10

>  <num_atoms_heavy>  (11) 
24

>  <num_torsions>  (11) 
3

>  <pose>  (11) 
[13.005536785968083, -25.468066702073255, -27.779889732018106, -2.5620665816677746, 0.46912396565453285, 6.006514009695599, -9.655846728500348, -6.844212617285233, -4.89521634109959]

>  <energy>  (11) 
-821.9903164558278

>  <inter_energy>  (11) 
-834.4682851776523

>  <intra_energy>  (11) 
45.11528889643562

>  <rmsd>  (11) 
2.41366

>  <sdf_rank>  (11) 
0

$$$$

     RDKit          3D

 47 50  0  0  0  0  0  0  0  0999 V2000
   17.5777  -22.3599  -24.1431 O   0  0  0  0  0  0  0  0  0  0  0  0
   17.1315  -23.4911  -24.5449 C   0  0  0  0  0  0  0  0  0  0  0  0
   17.7480  -24.6094  -24.1650 N   0  0  0  0  0  0  0  0  0  0  0  0
   17.2462  -25.7857  -24.6083 C   0  0  0  0  0  0  0  0  0  0  0  0
   16.1731  -25.8906  -25.4500 C   0  0  0  0  0  0  0  0  0  0  0  0
   15.5142  -24.7104  -25.8751 C   0  0  0  0  0  0  0  0  0  0  0  0
   15.9814  -23.4600  -25.3885 C   0  0  0  0  0  0  0  0  0  0  0  0
   15.3069  -22.2850  -25.7977 C   0  0  0  0  0  0  0  0  0  0  0  0
   14.2516  -22.3395  -26.6547 C   0  0  0  0  0  0  0  0  0  0  0  0
   14.4216  -24.7249  -26.7745 C   0  0  0  0  0  0  0  0  0  0  0  0
   13.7993  -23.5535  -27.1746 C   0  0  0  0  0  0  0  0  0  0  0  0
   12.7024  -23.5776  -28.1678 C   0  0  0  0  0  0  0  0  0  0  0  0
   11.9619  -24.7401  -28.3883 C   0  0  0  0  0  0  0  0  0  0  0  0
   10.9410  -24.7593  -29.3234 C   0  0  0  0  0  0  0  0  0  0  0  0
   10.6376  -23.6139  -30.0370 C   0  0  0  0  0  0  0  0  0  0  0  0
   12.3861  -22.4422  -28.9054 C   0  0  0  0  0  0  0  0  0  0  0  0
   11.3362  -22.4373  -29.8125 C   0  0  0  0  0  0  0  0  0  0  0  0
   10.8319  -21.1248  -30.3471 C   0  0  0  0  0  0  0  0  0  0  0  0
    9.3926  -20.9683  -30.0832 N   0  0  2  0  0  0  0  0  0  0  0  0
    8.9590  -21.6627  -28.8643 C   0  0  0  0  0  0  0  0  0  0  0  0
    7.4602  -21.8160  -28.9985 C   0  0  0  0  0  0  0  0  0  0  0  0
    8.5420  -21.5085  -31.1498 C   0  0  0  0  0  0  0  0  0  0  0  0
    7.2866  -22.0796  -30.4920 C   0  0  2  0  0  0  0  0  0  0  0  0
    6.1299  -21.3258  -30.9717 N   0  0  0  0  0  0  0  0  0  0  0  0
   17.1266  -21.5233  -24.4199 H   0  0  0  0  0  0  0  0  0  0  0  0
   17.7309  -26.7139  -24.2713 H   0  0  0  0  0  0  0  0  0  0  0  0
   15.8267  -26.8770  -25.7921 H   0  0  0  0  0  0  0  0  0  0  0  0
   15.6421  -21.3095  -25.4157 H   0  0  0  0  0  0  0  0  0  0  0  0
   13.7441  -21.4074  -26.9439 H   0  0  0  0  0  0  0  0  0  0  0  0
   14.0586  -25.6873  -27.1645 H   0  0  0  0  0  0  0  0  0  0  0  0
   12.1915  -25.6496  -27.8137 H   0  0  0  0  0  0  0  0  0  0  0  0
   10.3719  -25.6842  -29.4986 H   0  0  0  0  0  0  0  0  0  0  0  0
    9.8353  -23.6365  -30.7892 H   0  0  0  0  0  0  0  0  0  0  0  0
   12.9813  -21.5276  -28.7667 H   0  0  0  0  0  0  0  0  0  0  0  0
   11.3786  -20.3038  -29.8603 H   0  0  0  0  0  0  0  0  0  0  0  0
   10.9942  -21.1029  -31.4348 H   0  0  0  0  0  0  0  0  0  0  0  0
    9.2817  -19.9476  -30.0014 H   0  0  0  0  0  0  0  0  0  0  0  0
    9.4413  -22.6486  -28.7912 H   0  0  0  0  0  0  0  0  0  0  0  0
    9.2327  -21.1042  -27.9570 H   0  0  0  0  0  0  0  0  0  0  0  0
    7.0921  -22.6625  -28.4002 H   0  0  0  0  0  0  0  0  0  0  0  0
    6.8964  -20.9423  -28.6393 H   0  0  0  0  0  0  0  0  0  0  0  0
    8.2668  -20.7080  -31.8523 H   0  0  0  0  0  0  0  0  0  0  0  0
    9.0746  -22.2902  -31.7113 H   0  0  0  0  0  0  0  0  0  0  0  0
    7.1419  -23.1474  -30.7129 H   0  0  0  0  0  0  0  0  0  0  0  0
    5.5911  -20.9748  -30.1671 H   0  0  0  0  0  0  0  0  0  0  0  0
    6.4508  -20.5312  -31.5431 H   0  0  0  0  0  0  0  0  0  0  0  0
    5.5325  -21.9404  -31.5431 H   0  0  0  0  0  0  0  0  0  0  0  0
  1  2  1  0
  2  3  2  0
  2  7  1  0
  3  4  1  0
  4  5  2  0
  5  6  1  0
  6  7  2  0
  6 10  1  0
  7  8  1  0
  8  9  2  0
  9 11  1  0
 10 11  2  0
 11 12  1  0
 12 13  2  0
 12 16  1  0
 13 14  1  0
 14 15  2  0
 15 17  1  0
 16 17  2  0
 17 18  1  0
 19 18  1  0
 19 20  1  0
 19 22  1  0
 20 21  1  0
 21 23  1  0
 22 23  1  0
 23 24  1  0
  1 25  1  0
  4 26  1  0
  5 27  1  0
  8 28  1  0
  9 29  1  0
 10 30  1  0
 13 31  1  0
 14 32  1  0
 15 33  1  0
 16 34  1  0
 18 35  1  0
 18 36  1  0
 19 37  1  1
 20 38  1  0
 20 39  1  0
 21 40  1  0
 21 41  1  0
 22 42  1  0
 22 43  1  0
 23 44  1  1
 24 45  1  0
 24 46  1  0
 24 47  1  0
M  CHG  2  19   1  24   1
M  END
>  <filename_input>  (12) 
7PIH_7QW_docked.sdf

>  <pdb_id>  (12) 
7PIH_7QW

>  <pose_rank>  (12) 
11

>  <num_atoms_heavy>  (12) 
24

>  <num_torsions>  (12) 
3

>  <pose>  (12) 
[12.702426743748493, -23.57759535925097, -28.167757265659233, -3.7753880300536666, 1.2634967094943428, 4.860089435366667, -9.459780178438757, -6.904494149654656, -4.700859971319927]

>  <energy>  (12) 
-747.1420566684906

>  <inter_energy>  (12) 
-799.9041794572794

>  <intra_energy>  (12) 
43.075480284382564

>  <rmsd>  (12) 
2.44583

>  <sdf_rank>  (12) 
0

$$$$

     RDKit          3D

 47 50  0  0  0  0  0  0  0  0999 V2000
   17.8280  -26.3117  -23.9755 O   0  0  0  0  0  0  0  0  0  0  0  0
   17.0838  -25.2880  -24.1710 C   0  0  0  0  0  0  0  0  0  0  0  0
   17.2303  -24.2154  -23.3943 N   0  0  0  0  0  0  0  0  0  0  0  0
   16.4269  -23.1523  -23.6324 C   0  0  0  0  0  0  0  0  0  0  0  0
   15.4531  -23.1297  -24.5927 C   0  0  0  0  0  0  0  0  0  0  0  0
   15.2745  -24.2672  -25.4184 C   0  0  0  0  0  0  0  0  0  0  0  0
   16.1342  -25.3828  -25.2315 C   0  0  0  0  0  0  0  0  0  0  0  0
   15.9673  -26.5085  -26.0728 C   0  0  0  0  0  0  0  0  0  0  0  0
   14.9946  -26.5405  -27.0236 C   0  0  0  0  0  0  0  0  0  0  0  0
   14.2670  -24.3436  -26.4094 C   0  0  0  0  0  0  0  0  0  0  0  0
   14.1147  -25.4713  -27.1998 C   0  0  0  0  0  0  0  0  0  0  0  0
   13.0147  -25.5646  -28.1853 C   0  0  0  0  0  0  0  0  0  0  0  0
   12.3269  -26.7638  -28.3789 C   0  0  0  0  0  0  0  0  0  0  0  0
   11.3029  -26.8477  -29.3070 C   0  0  0  0  0  0  0  0  0  0  0  0
   10.9436  -25.7314  -30.0404 C   0  0  0  0  0  0  0  0  0  0  0  0
   12.6427  -24.4593  -28.9425 C   0  0  0  0  0  0  0  0  0  0  0  0
   11.5888  -24.5200  -29.8429 C   0  0  0  0  0  0  0  0  0  0  0  0
   11.0221  -23.2425  -30.3993 C   0  0  0  0  0  0  0  0  0  0  0  0
    9.7700  -22.8816  -29.7155 N   0  0  2  0  0  0  0  0  0  0  0  0
    9.7617  -23.2725  -28.3002 C   0  0  0  0  0  0  0  0  0  0  0  0
    8.3049  -23.2849  -27.8933 C   0  0  0  0  0  0  0  0  0  0  0  0
    8.5839  -23.5242  -30.2928 C   0  0  0  0  0  0  0  0  0  0  0  0
    7.6152  -23.8153  -29.1476 C   0  0  2  0  0  0  0  0  0  0  0  0
    6.3911  -23.0487  -29.3715 N   0  0  0  0  0  0  0  0  0  0  0  0
   17.7270  -27.1136  -24.5472 H   0  0  0  0  0  0  0  0  0  0  0  0
   16.5656  -22.2518  -23.0161 H   0  0  0  0  0  0  0  0  0  0  0  0
   14.8177  -22.2411  -24.7220 H   0  0  0  0  0  0  0  0  0  0  0  0
   16.6364  -27.3737  -25.9558 H   0  0  0  0  0  0  0  0  0  0  0  0
   14.8996  -27.4277  -27.6670 H   0  0  0  0  0  0  0  0  0  0  0  0
   13.5901  -23.4889  -26.5553 H   0  0  0  0  0  0  0  0  0  0  0  0
   12.6011  -27.6506  -27.7885 H   0  0  0  0  0  0  0  0  0  0  0  0
   10.7758  -27.8008  -29.4609 H   0  0  0  0  0  0  0  0  0  0  0  0
   10.1390  -25.8052  -30.7869 H   0  0  0  0  0  0  0  0  0  0  0  0
   13.1962  -23.5160  -28.8251 H   0  0  0  0  0  0  0  0  0  0  0  0
   11.7542  -22.4334  -30.2607 H   0  0  0  0  0  0  0  0  0  0  0  0
   10.8089  -23.3890  -31.4684 H   0  0  0  0  0  0  0  0  0  0  0  0
    9.7302  -21.8587  -29.8295 H   0  0  0  0  0  0  0  0  0  0  0  0
   10.2046  -24.2716  -28.1746 H   0  0  0  0  0  0  0  0  0  0  0  0
   10.3524  -22.5804  -27.6821 H   0  0  0  0  0  0  0  0  0  0  0  0
    8.1376  -23.9527  -27.0353 H   0  0  0  0  0  0  0  0  0  0  0  0
    7.9317  -22.3018  -27.5705 H   0  0  0  0  0  0  0  0  0  0  0  0
    8.1105  -22.8516  -31.0232 H   0  0  0  0  0  0  0  0  0  0  0  0
    8.8610  -24.4540  -30.8112 H   0  0  0  0  0  0  0  0  0  0  0  0
    7.3655  -24.8835  -29.0661 H   0  0  0  0  0  0  0  0  0  0  0  0
    5.9775  -22.7896  -28.4645 H   0  0  0  0  0  0  0  0  0  0  0  0
    6.6130  -22.1953  -29.9039 H   0  0  0  0  0  0  0  0  0  0  0  0
    5.7202  -23.6208  -29.9039 H   0  0  0  0  0  0  0  0  0  0  0  0
  1  2  1  0
  2  3  2  0
  2  7  1  0
  3  4  1  0
  4  5  2  0
  5  6  1  0
  6  7  2  0
  6 10  1  0
  7  8  1  0
  8  9  2  0
  9 11  1  0
 10 11  2  0
 11 12  1  0
 12 13  2  0
 12 16  1  0
 13 14  1  0
 14 15  2  0
 15 17  1  0
 16 17  2  0
 17 18  1  0
 19 18  1  0
 19 20  1  0
 19 22  1  0
 20 21  1  0
 21 23  1  0
 22 23  1  0
 23 24  1  0
  1 25  1  0
  4 26  1  0
  5 27  1  0
  8 28  1  0
  9 29  1  0
 10 30  1  0
 13 31  1  0
 14 32  1  0
 15 33  1  0
 16 34  1  0
 18 35  1  0
 18 36  1  0
 19 37  1  1
 20 38  1  0
 20 39  1  0
 21 40  1  0
 21 41  1  0
 22 42  1  0
 22 43  1  0
 23 44  1  1
 24 45  1  0
 24 46  1  0
 24 47  1  0
M  CHG  2  19   1  24   1
M  END
>  <filename_input>  (13) 
7PIH_7QW_docked.sdf

>  <pdb_id>  (13) 
7PIH_7QW

>  <pose_rank>  (13) 
12

>  <num_atoms_heavy>  (13) 
24

>  <num_torsions>  (13) 
3

>  <pose>  (13) 
[13.014692731061249, -25.564639783532048, -28.185302926047438, -2.42491558309262, 0.7401230910159883, 5.802836309946275, -12.297744663646247, -6.518389919947851, -4.638571115272321]

>  <energy>  (13) 
-1110.2672936714

>  <inter_energy>  (13) 
-1167.53744169506

>  <intra_energy>  (13) 
30.40435487010511

>  <rmsd>  (13) 
1.09575

>  <sdf_rank>  (13) 
0

$$$$

     RDKit          3D

 47 50  0  0  0  0  0  0  0  0999 V2000
   16.3922  -22.8098  -25.3270 O   0  0  0  0  0  0  0  0  0  0  0  0
   15.9524  -23.9917  -25.5501 C   0  0  0  0  0  0  0  0  0  0  0  0
   16.5662  -25.0339  -24.9914 N   0  0  0  0  0  0  0  0  0  0  0  0
   16.0713  -26.2671  -25.2491 C   0  0  0  0  0  0  0  0  0  0  0  0
   15.0083  -26.5071  -26.0756 C   0  0  0  0  0  0  0  0  0  0  0  0
   14.3525  -25.4111  -26.6891 C   0  0  0  0  0  0  0  0  0  0  0  0
   14.8121  -24.0980  -26.4009 C   0  0  0  0  0  0  0  0  0  0  0  0
   14.1406  -23.0046  -26.9980 C   0  0  0  0  0  0  0  0  0  0  0  0
   13.0954  -23.1973  -27.8474 C   0  0  0  0  0  0  0  0  0  0  0  0
   13.2704  -25.5711  -27.5871 C   0  0  0  0  0  0  0  0  0  0  0  0
   12.6510  -24.4796  -28.1741 C   0  0  0  0  0  0  0  0  0  0  0  0
   11.5657  -24.6639  -29.1632 C   0  0  0  0  0  0  0  0  0  0  0  0
   10.9441  -25.9037  -29.3212 C   0  0  0  0  0  0  0  0  0  0  0  0
    9.9337  -26.0725  -30.2527 C   0  0  0  0  0  0  0  0  0  0  0  0
    9.5219  -25.0017  -31.0254 C   0  0  0  0  0  0  0  0  0  0  0  0
   11.1421  -23.6055  -29.9593 C   0  0  0  0  0  0  0  0  0  0  0  0
   10.1004  -23.7519  -30.8641 C   0  0  0  0  0  0  0  0  0  0  0  0
    9.4715  -22.5254  -31.4666 C   0  0  0  0  0  0  0  0  0  0  0  0
    8.5800  -21.8638  -30.5007 N   0  0  2  0  0  0  0  0  0  0  0  0
    8.0821  -22.7795  -29.4665 C   0  0  0  0  0  0  0  0  0  0  0  0
    6.8591  -22.1054  -28.8852 C   0  0  0  0  0  0  0  0  0  0  0  0
    7.3749  -21.2944  -31.1144 C   0  0  0  0  0  0  0  0  0  0  0  0
    6.2334  -21.4417  -30.1093 C   0  0  2  0  0  0  0  0  0  0  0  0
    5.7711  -20.1064  -29.7360 N   0  0  0  0  0  0  0  0  0  0  0  0
   15.9431  -22.0288  -25.7375 H   0  0  0  0  0  0  0  0  0  0  0  0
   16.5535  -27.1288  -24.7642 H   0  0  0  0  0  0  0  0  0  0  0  0
   14.6673  -27.5363  -26.2615 H   0  0  0  0  0  0  0  0  0  0  0  0
   14.4699  -21.9799  -26.7711 H   0  0  0  0  0  0  0  0  0  0  0  0
   12.5899  -22.3242  -28.2858 H   0  0  0  0  0  0  0  0  0  0  0  0
   12.9134  -26.5842  -27.8243 H   0  0  0  0  0  0  0  0  0  0  0  0
   11.2599  -26.7546  -28.6997 H   0  0  0  0  0  0  0  0  0  0  0  0
    9.4591  -27.0569  -30.3781 H   0  0  0  0  0  0  0  0  0  0  0  0
    8.7287  -25.1428  -31.7743 H   0  0  0  0  0  0  0  0  0  0  0  0
   11.6439  -22.6307  -29.8699 H   0  0  0  0  0  0  0  0  0  0  0  0
   10.2644  -21.8234  -31.7643 H   0  0  0  0  0  0  0  0  0  0  0  0
    8.8782  -22.8287  -32.3418 H   0  0  0  0  0  0  0  0  0  0  0  0
    9.1774  -21.1256  -30.1018 H   0  0  0  0  0  0  0  0  0  0  0  0
    7.8125  -23.7496  -29.9094 H   0  0  0  0  0  0  0  0  0  0  0  0
    8.8427  -22.9789  -28.6973 H   0  0  0  0  0  0  0  0  0  0  0  0
    6.1742  -22.8413  -28.4386 H   0  0  0  0  0  0  0  0  0  0  0  0
    7.0917  -21.3990  -28.0747 H   0  0  0  0  0  0  0  0  0  0  0  0
    7.5374  -20.2311  -31.3447 H   0  0  0  0  0  0  0  0  0  0  0  0
    7.1346  -21.8163  -32.0524 H   0  0  0  0  0  0  0  0  0  0  0  0
    5.3884  -22.0201  -30.5110 H   0  0  0  0  0  0  0  0  0  0  0  0
    5.7436  -20.0271  -28.7095 H   0  0  0  0  0  0  0  0  0  0  0  0
    6.4166  -19.4004  -30.1178 H   0  0  0  0  0  0  0  0  0  0  0  0
    4.8272  -19.9507  -30.1178 H   0  0  0  0  0  0  0  0  0  0  0  0
  1  2  1  0
  2  3  2  0
  2  7  1  0
  3  4  1  0
  4  5  2  0
  5  6  1  0
  6  7  2  0
  6 10  1  0
  7  8  1  0
  8  9  2  0
  9 11  1  0
 10 11  2  0
 11 12  1  0
 12 13  2  0
 12 16  1  0
 13 14  1  0
 14 15  2  0
 15 17  1  0
 16 17  2  0
 17 18  1  0
 19 18  1  0
 19 20  1  0
 19 22  1  0
 20 21  1  0
 21 23  1  0
 22 23  1  0
 23 24  1  0
  1 25  1  0
  4 26  1  0
  5 27  1  0
  8 28  1  0
  9 29  1  0
 10 30  1  0
 13 31  1  0
 14 32  1  0
 15 33  1  0
 16 34  1  0
 18 35  1  0
 18 36  1  0
 19 37  1  1
 20 38  1  0
 20 39  1  0
 21 40  1  0
 21 41  1  0
 22 42  1  0
 22 43  1  0
 23 44  1  6
 24 45  1  0
 24 46  1  0
 24 47  1  0
M  CHG  2  19   1  24   1
M  END
>  <filename_input>  (14) 
7PIH_7QW_docked.sdf

>  <pdb_id>  (14) 
7PIH_7QW

>  <pose_rank>  (14) 
13

>  <num_atoms_heavy>  (14) 
24

>  <num_torsions>  (14) 
3

>  <pose>  (14) 
[11.565741653601231, -24.663870403892375, -29.163224798323945, -3.0129367322093157, -0.08417061442914353, 5.6395592523381035, -9.60303254846786, -6.079498866074571, -5.639699791665465]

>  <energy>  (14) 
-613.0369069972809

>  <inter_energy>  (14) 
-611.8748668545649

>  <intra_energy>  (14) 
26.396379389111807

>  <rmsd>  (14) 
2.54753

>  <sdf_rank>  (14) 
0

$$$$

     RDKit          3D

 47 50  0  0  0  0  0  0  0  0999 V2000
    8.2226  -15.1669  -33.6775 O   0  0  0  0  0  0  0  0  0  0  0  0
    8.8972  -16.2299  -33.9120 C   0  0  0  0  0  0  0  0  0  0  0  0
    9.8257  -16.2175  -34.8674 N   0  0  0  0  0  0  0  0  0  0  0  0
   10.5193  -17.3593  -35.0848 C   0  0  0  0  0  0  0  0  0  0  0  0
   10.2971  -18.5290  -34.4115 C   0  0  0  0  0  0  0  0  0  0  0  0
    9.3037  -18.5635  -33.4017 C   0  0  0  0  0  0  0  0  0  0  0  0
    8.5909  -17.3696  -33.1103 C   0  0  0  0  0  0  0  0  0  0  0  0
    7.6150  -17.4024  -32.0860 C   0  0  0  0  0  0  0  0  0  0  0  0
    7.3420  -18.5500  -31.4081 C   0  0  0  0  0  0  0  0  0  0  0  0
    8.9825  -19.7399  -32.6835 C   0  0  0  0  0  0  0  0  0  0  0  0
    8.0033  -19.7434  -31.7032 C   0  0  0  0  0  0  0  0  0  0  0  0
    7.6301  -20.9951  -31.0075 C   0  0  0  0  0  0  0  0  0  0  0  0
    6.4797  -21.6987  -31.3680 C   0  0  0  0  0  0  0  0  0  0  0  0
    6.1314  -22.8658  -30.7095 C   0  0  0  0  0  0  0  0  0  0  0  0
    6.9361  -23.3518  -29.6949 C   0  0  0  0  0  0  0  0  0  0  0  0
    8.4169  -21.4976  -29.9771 C   0  0  0  0  0  0  0  0  0  0  0  0
    8.1017  -22.6896  -29.3406 C   0  0  0  0  0  0  0  0  0  0  0  0
    9.1308  -23.3506  -28.4651 C   0  0  0  0  0  0  0  0  0  0  0  0
   10.4914  -23.0729  -28.9522 N   0  0  2  0  0  0  0  0  0  0  0  0
   11.2251  -24.2917  -29.3159 C   0  0  0  0  0  0  0  0  0  0  0  0
   12.6856  -23.8980  -29.3187 C   0  0  0  0  0  0  0  0  0  0  0  0
   11.3401  -22.4015  -27.9613 C   0  0  0  0  0  0  0  0  0  0  0  0
   12.7661  -22.9156  -28.1531 C   0  0  2  0  0  0  0  0  0  0  0  0
   13.6143  -21.7910  -28.5431 N   0  0  0  0  0  0  0  0  0  0  0  0
    7.5305  -15.1659  -32.9697 H   0  0  0  0  0  0  0  0  0  0  0  0
   11.3098  -17.3457  -35.8496 H   0  0  0  0  0  0  0  0  0  0  0  0
   10.8812  -19.4299  -34.6505 H   0  0  0  0  0  0  0  0  0  0  0  0
    7.0669  -16.4828  -31.8330 H   0  0  0  0  0  0  0  0  0  0  0  0
    6.5843  -18.5372  -30.6108 H   0  0  0  0  0  0  0  0  0  0  0  0
    9.5219  -20.6718  -32.9084 H   0  0  0  0  0  0  0  0  0  0  0  0
    5.8438  -21.3225  -32.1829 H   0  0  0  0  0  0  0  0  0  0  0  0
    5.2159  -23.4058  -30.9928 H   0  0  0  0  0  0  0  0  0  0  0  0
    6.6489  -24.2717  -29.1644 H   0  0  0  0  0  0  0  0  0  0  0  0
    9.3089  -20.9378  -29.6594 H   0  0  0  0  0  0  0  0  0  0  0  0
    9.0305  -22.9672  -27.4390 H   0  0  0  0  0  0  0  0  0  0  0  0
    8.9648  -24.4378  -28.4872 H   0  0  0  0  0  0  0  0  0  0  0  0
   10.3261  -22.4684  -29.7696 H   0  0  0  0  0  0  0  0  0  0  0  0
   11.0423  -25.0856  -28.5767 H   0  0  0  0  0  0  0  0  0  0  0  0
   10.9061  -24.6841  -30.2928 H   0  0  0  0  0  0  0  0  0  0  0  0
   13.3328  -24.7710  -29.1481 H   0  0  0  0  0  0  0  0  0  0  0  0
   13.0227  -23.4718  -30.2751 H   0  0  0  0  0  0  0  0  0  0  0  0
   11.3093  -21.3130  -28.1166 H   0  0  0  0  0  0  0  0  0  0  0  0
   10.9861  -22.6132  -26.9415 H   0  0  0  0  0  0  0  0  0  0  0  0
   13.1740  -23.3805  -27.2434 H   0  0  0  0  0  0  0  0  0  0  0  0
   13.9695  -21.3200  -27.6988 H   0  0  0  0  0  0  0  0  0  0  0  0
   14.4070  -22.1367  -29.1027 H   0  0  0  0  0  0  0  0  0  0  0  0
   13.0641  -21.1239  -29.1027 H   0  0  0  0  0  0  0  0  0  0  0  0
  1  2  1  0
  2  3  2  0
  2  7  1  0
  3  4  1  0
  4  5  2  0
  5  6  1  0
  6  7  2  0
  6 10  1  0
  7  8  1  0
  8  9  2  0
  9 11  1  0
 10 11  2  0
 11 12  1  0
 12 13  2  0
 12 16  1  0
 13 14  1  0
 14 15  2  0
 15 17  1  0
 16 17  2  0
 17 18  1  0
 19 18  1  0
 19 20  1  0
 19 22  1  0
 20 21  1  0
 21 23  1  0
 22 23  1  0
 23 24  1  0
  1 25  1  0
  4 26  1  0
  5 27  1  0
  8 28  1  0
  9 29  1  0
 10 30  1  0
 13 31  1  0
 14 32  1  0
 15 33  1  0
 16 34  1  0
 18 35  1  0
 18 36  1  0
 19 37  1  6
 20 38  1  0
 20 39  1  0
 21 40  1  0
 21 41  1  0
 22 42  1  0
 22 43  1  0
 23 44  1  1
 24 45  1  0
 24 46  1  0
 24 47  1  0
M  CHG  2  19   1  24   1
M  END
>  <filename_input>  (15) 
7PIH_7QW_docked.sdf

>  <pdb_id>  (15) 
7PIH_7QW

>  <pose_rank>  (15) 
14

>  <num_atoms_heavy>  (15) 
24

>  <num_torsions>  (15) 
3

>  <pose>  (15) 
[7.630120014441411, -20.99514320403362, -31.007529929795943, 2.1038192104329303, 2.062057430717318, 0.5962350556912569, 13.529738389198103, 0.9919468868926145, -7.307719704707453]

>  <energy>  (15) 
-454.2483299459219

>  <inter_energy>  (15) 
-423.5509066224891

>  <intra_energy>  (15) 
0.554460524327509

>  <rmsd>  (15) 
9.9153

>  <sdf_rank>  (15) 
0

$$$$

     RDKit          3D

 47 50  0  0  0  0  0  0  0  0999 V2000
   16.2210  -25.3096  -24.9194 O   0  0  0  0  0  0  0  0  0  0  0  0
   15.5581  -26.1711  -25.5966 C   0  0  0  0  0  0  0  0  0  0  0  0
   15.8960  -27.4580  -25.5265 N   0  0  0  0  0  0  0  0  0  0  0  0
   15.1711  -28.3388  -26.2550 C   0  0  0  0  0  0  0  0  0  0  0  0
   14.1431  -27.9824  -27.0839 C   0  0  0  0  0  0  0  0  0  0  0  0
   13.7796  -26.6163  -27.1809 C   0  0  0  0  0  0  0  0  0  0  0  0
   14.4848  -25.6690  -26.3912 C   0  0  0  0  0  0  0  0  0  0  0  0
   14.1043  -24.3084  -26.4741 C   0  0  0  0  0  0  0  0  0  0  0  0
   13.1053  -23.9047  -27.3048 C   0  0  0  0  0  0  0  0  0  0  0  0
   12.7551  -26.1558  -28.0419 C   0  0  0  0  0  0  0  0  0  0  0  0
   12.4242  -24.8125  -28.1175 C   0  0  0  0  0  0  0  0  0  0  0  0
   11.3979  -24.3361  -29.0714 C   0  0  0  0  0  0  0  0  0  0  0  0
   10.3581  -25.1725  -29.4810 C   0  0  0  0  0  0  0  0  0  0  0  0
    9.4043  -24.7240  -30.3788 C   0  0  0  0  0  0  0  0  0  0  0  0
    9.4687  -23.4307  -30.8651 C   0  0  0  0  0  0  0  0  0  0  0  0
   11.4477  -23.0440  -29.5827 C   0  0  0  0  0  0  0  0  0  0  0  0
   10.4723  -22.5696  -30.4479 C   0  0  0  0  0  0  0  0  0  0  0  0
   10.3878  -21.0932  -30.7229 C   0  0  0  0  0  0  0  0  0  0  0  0
    9.0173  -20.5981  -30.5176 N   0  0  2  0  0  0  0  0  0  0  0  0
    8.7818  -20.1280  -29.1466 C   0  0  0  0  0  0  0  0  0  0  0  0
    7.2790  -20.1222  -28.9744 C   0  0  0  0  0  0  0  0  0  0  0  0
    7.9879  -21.6174  -30.7505 C   0  0  0  0  0  0  0  0  0  0  0  0
    6.8503  -21.3560  -29.7644 C   0  0  2  0  0  0  0  0  0  0  0  0
    5.6447  -21.0325  -30.5248 N   0  0  0  0  0  0  0  0  0  0  0  0
   15.9778  -24.3510  -24.9647 H   0  0  0  0  0  0  0  0  0  0  0  0
   15.4242  -29.4064  -26.1756 H   0  0  0  0  0  0  0  0  0  0  0  0
   13.6063  -28.7453  -27.6668 H   0  0  0  0  0  0  0  0  0  0  0  0
   14.6259  -23.5634  -25.8553 H   0  0  0  0  0  0  0  0  0  0  0  0
   12.8286  -22.8405  -27.3367 H   0  0  0  0  0  0  0  0  0  0  0  0
   12.2097  -26.8801  -28.6647 H   0  0  0  0  0  0  0  0  0  0  0  0
   10.2960  -26.1976  -29.0869 H   0  0  0  0  0  0  0  0  0  0  0  0
    8.5962  -25.3954  -30.7050 H   0  0  0  0  0  0  0  0  0  0  0  0
    8.7173  -23.0823  -31.5890 H   0  0  0  0  0  0  0  0  0  0  0  0
   12.2789  -22.3834  -29.2949 H   0  0  0  0  0  0  0  0  0  0  0  0
   11.0688  -20.5607  -30.0427 H   0  0  0  0  0  0  0  0  0  0  0  0
   10.6729  -20.9140  -31.7701 H   0  0  0  0  0  0  0  0  0  0  0  0
    8.9426  -19.8322  -31.2022 H   0  0  0  0  0  0  0  0  0  0  0  0
    9.2494  -20.8096  -28.4208 H   0  0  0  0  0  0  0  0  0  0  0  0
    9.2161  -19.1318  -28.9764 H   0  0  0  0  0  0  0  0  0  0  0  0
    7.0002  -20.2126  -27.9141 H   0  0  0  0  0  0  0  0  0  0  0  0
    6.8020  -19.1931  -29.3197 H   0  0  0  0  0  0  0  0  0  0  0  0
    7.6143  -21.5447  -31.7826 H   0  0  0  0  0  0  0  0  0  0  0  0
    8.4019  -22.6261  -30.6053 H   0  0  0  0  0  0  0  0  0  0  0  0
    6.6487  -22.2190  -29.1129 H   0  0  0  0  0  0  0  0  0  0  0  0
    4.8736  -20.8256  -29.8741 H   0  0  0  0  0  0  0  0  0  0  0  0
    5.8235  -20.2097  -31.1181 H   0  0  0  0  0  0  0  0  0  0  0  0
    5.3876  -21.8342  -31.1181 H   0  0  0  0  0  0  0  0  0  0  0  0
  1  2  1  0
  2  3  2  0
  2  7  1  0
  3  4  1  0
  4  5  2  0
  5  6  1  0
  6  7  2  0
  6 10  1  0
  7  8  1  0
  8  9  2  0
  9 11  1  0
 10 11  2  0
 11 12  1  0
 12 13  2  0
 12 16  1  0
 13 14  1  0
 14 15  2  0
 15 17  1  0
 16 17  2  0
 17 18  1  0
 19 18  1  0
 19 20  1  0
 19 22  1  0
 20 21  1  0
 21 23  1  0
 22 23  1  0
 23 24  1  0
  1 25  1  0
  4 26  1  0
  5 27  1  0
  8 28  1  0
  9 29  1  0
 10 30  1  0
 13 31  1  0
 14 32  1  0
 15 33  1  0
 16 34  1  0
 18 35  1  0
 18 36  1  0
 19 37  1  6
 20 38  1  0
 20 39  1  0
 21 40  1  0
 21 41  1  0
 22 42  1  0
 22 43  1  0
 23 44  1  1
 24 45  1  0
 24 46  1  0
 24 47  1  0
M  CHG  2  19   1  24   1
M  END
>  <filename_input>  (16) 
7PIH_7QW_docked.sdf

>  <pdb_id>  (16) 
7PIH_7QW

>  <pose_rank>  (16) 
15

>  <num_atoms_heavy>  (16) 
24

>  <num_torsions>  (16) 
3

>  <pose>  (16) 
[11.397905132233692, -24.33607670184222, -29.07137004020024, 3.5038526263141296, -0.0549760661419654, -5.632685312020524, -9.353236329959886, -6.994850318733193, -3.634519706976646]

>  <energy>  (16) 
-475.45028410332293

>  <inter_energy>  (16) 
-540.7647327709658

>  <intra_energy>  (16) 
70.01100058963985

>  <rmsd>  (16) 
3.04378

>  <sdf_rank>  (16) 
0

$$$$

     RDKit          3D

 47 50  0  0  0  0  0  0  0  0999 V2000
   17.1982  -26.8604  -23.8920 O   0  0  0  0  0  0  0  0  0  0  0  0
   16.8062  -25.6540  -24.0683 C   0  0  0  0  0  0  0  0  0  0  0  0
   17.2639  -24.6940  -23.2657 N   0  0  0  0  0  0  0  0  0  0  0  0
   16.8283  -23.4312  -23.4841 C   0  0  0  0  0  0  0  0  0  0  0  0
   15.9213  -23.0915  -24.4499 C   0  0  0  0  0  0  0  0  0  0  0  0
   15.4138  -24.1024  -25.3033 C   0  0  0  0  0  0  0  0  0  0  0  0
   15.8875  -25.4314  -25.1369 C   0  0  0  0  0  0  0  0  0  0  0  0
   15.3950  -26.4343  -26.0055 C   0  0  0  0  0  0  0  0  0  0  0  0
   14.4722  -26.1472  -26.9631 C   0  0  0  0  0  0  0  0  0  0  0  0
   14.4448  -23.8459  -26.3024 C   0  0  0  0  0  0  0  0  0  0  0  0
   13.9648  -24.8562  -27.1199 C   0  0  0  0  0  0  0  0  0  0  0  0
   12.9025  -24.5876  -28.1146 C   0  0  0  0  0  0  0  0  0  0  0  0
   12.0035  -25.5876  -28.4894 C   0  0  0  0  0  0  0  0  0  0  0  0
   11.0155  -25.3330  -29.4254 C   0  0  0  0  0  0  0  0  0  0  0  0
   10.9040  -24.0733  -29.9855 C   0  0  0  0  0  0  0  0  0  0  0  0
   12.7773  -23.3326  -28.6999 C   0  0  0  0  0  0  0  0  0  0  0  0
   11.7635  -23.0538  -29.6052 C   0  0  0  0  0  0  0  0  0  0  0  0
   11.4736  -21.6229  -29.9674 C   0  0  0  0  0  0  0  0  0  0  0  0
   10.0419  -21.3209  -29.8101 N   0  0  2  0  0  0  0  0  0  0  0  0
    9.5100  -21.7480  -28.5099 C   0  0  0  0  0  0  0  0  0  0  0  0
    8.0099  -21.8187  -28.6909 C   0  0  0  0  0  0  0  0  0  0  0  0
    9.1927  -21.9870  -30.8041 C   0  0  0  0  0  0  0  0  0  0  0  0
    7.8728  -22.3390  -30.1194 C   0  0  2  0  0  0  0  0  0  0  0  0
    6.7971  -21.6074  -30.7856 N   0  0  0  0  0  0  0  0  0  0  0  0
   16.8638  -27.5808  -24.4830 H   0  0  0  0  0  0  0  0  0  0  0  0
   17.2281  -22.6293  -22.8460 H   0  0  0  0  0  0  0  0  0  0  0  0
   15.5907  -22.0484  -24.5626 H   0  0  0  0  0  0  0  0  0  0  0  0
   15.7651  -27.4652  -25.9044 H   0  0  0  0  0  0  0  0  0  0  0  0
   14.1185  -26.9491  -27.6277 H   0  0  0  0  0  0  0  0  0  0  0  0
   14.0644  -22.8220  -26.4327 H   0  0  0  0  0  0  0  0  0  0  0  0
   12.0807  -26.5872  -28.0368 H   0  0  0  0  0  0  0  0  0  0  0  0
   10.3201  -26.1316  -29.7232 H   0  0  0  0  0  0  0  0  0  0  0  0
   10.1269  -23.8785  -30.7392 H   0  0  0  0  0  0  0  0  0  0  0  0
   13.4980  -22.5434  -28.4395 H   0  0  0  0  0  0  0  0  0  0  0  0
   12.0558  -20.9601  -29.3102 H   0  0  0  0  0  0  0  0  0  0  0  0
   11.7529  -21.4631  -31.0192 H   0  0  0  0  0  0  0  0  0  0  0  0
   10.0077  -20.2972  -29.9192 H   0  0  0  0  0  0  0  0  0  0  0  0
    9.9112  -22.7349  -28.2358 H   0  0  0  0  0  0  0  0  0  0  0  0
    9.7919  -21.0530  -27.7052 H   0  0  0  0  0  0  0  0  0  0  0  0
    7.5549  -22.5134  -27.9696 H   0  0  0  0  0  0  0  0  0  0  0  0
    7.5027  -20.8570  -28.5243 H   0  0  0  0  0  0  0  0  0  0  0  0
    9.0072  -21.3117  -31.6524 H   0  0  0  0  0  0  0  0  0  0  0  0
    9.6837  -22.8935  -31.1876 H   0  0  0  0  0  0  0  0  0  0  0  0
    7.6540  -23.4165  -30.1515 H   0  0  0  0  0  0  0  0  0  0  0  0
    6.1784  -21.1866  -30.0778 H   0  0  0  0  0  0  0  0  0  0  0  0
    7.2003  -20.8646  -31.3743 H   0  0  0  0  0  0  0  0  0  0  0  0
    6.2544  -22.2554  -31.3743 H   0  0  0  0  0  0  0  0  0  0  0  0
  1  2  1  0
  2  3  2  0
  2  7  1  0
  3  4  1  0
  4  5  2  0
  5  6  1  0
  6  7  2  0
  6 10  1  0
  7  8  1  0
  8  9  2  0
  9 11  1  0
 10 11  2  0
 11 12  1  0
 12 13  2  0
 12 16  1  0
 13 14  1  0
 14 15  2  0
 15 17  1  0
 16 17  2  0
 17 18  1  0
 19 18  1  0
 19 20  1  0
 19 22  1  0
 20 21  1  0
 21 23  1  0
 22 23  1  0
 23 24  1  0
  1 25  1  0
  4 26  1  0
  5 27  1  0
  8 28  1  0
  9 29  1  0
 10 30  1  0
 13 31  1  0
 14 32  1  0
 15 33  1  0
 16 34  1  0
 18 35  1  0
 18 36  1  0
 19 37  1  1
 20 38  1  0
 20 39  1  0
 21 40  1  0
 21 41  1  0
 22 42  1  0
 22 43  1  0
 23 44  1  1
 24 45  1  0
 24 46  1  0
 24 47  1  0
M  CHG  2  19   1  24   1
M  END
>  <filename_input>  (17) 
7PIH_7QW_docked.sdf

>  <pdb_id>  (17) 
7PIH_7QW

>  <pose_rank>  (17) 
16

>  <num_atoms_heavy>  (17) 
24

>  <num_torsions>  (17) 
3

>  <pose>  (17) 
[12.90247661934048, -24.58764395843385, -28.114598732844236, -3.961560266862196, 0.49352488437487296, 4.589758716529208, -6.185900451117228, -6.994250345220207, -4.356552121672967]

>  <energy>  (17) 
-1266.2693306327026

>  <inter_energy>  (17) 
-1316.7657252760166

>  <intra_energy>  (17) 
47.68856070814966

>  <rmsd>  (17) 
1.20884

>  <sdf_rank>  (17) 
0

$$$$

     RDKit          3D

 47 50  0  0  0  0  0  0  0  0999 V2000
   13.4623  -24.2235  -26.8243 O   0  0  0  0  0  0  0  0  0  0  0  0
   12.7212  -24.6911  -27.7583 C   0  0  0  0  0  0  0  0  0  0  0  0
   12.5612  -26.0092  -27.8679 N   0  0  0  0  0  0  0  0  0  0  0  0
   11.7693  -26.4656  -28.8662 C   0  0  0  0  0  0  0  0  0  0  0  0
   11.1588  -25.6593  -29.7872 C   0  0  0  0  0  0  0  0  0  0  0  0
   11.3297  -24.2559  -29.6937 C   0  0  0  0  0  0  0  0  0  0  0  0
   12.1124  -23.7374  -28.6274 C   0  0  0  0  0  0  0  0  0  0  0  0
   12.2626  -22.3340  -28.5244 C   0  0  0  0  0  0  0  0  0  0  0  0
   11.6954  -21.4952  -29.4331 C   0  0  0  0  0  0  0  0  0  0  0  0
   10.7664  -23.3521  -30.6258 C   0  0  0  0  0  0  0  0  0  0  0  0
   10.9537  -21.9842  -30.5099 C   0  0  0  0  0  0  0  0  0  0  0  0
   10.4164  -21.0554  -31.5290 C   0  0  0  0  0  0  0  0  0  0  0  0
    9.2493  -21.3607  -32.2314 C   0  0  0  0  0  0  0  0  0  0  0  0
    8.7545  -20.4913  -33.1887 C   0  0  0  0  0  0  0  0  0  0  0  0
    9.4102  -19.3005  -33.4439 C   0  0  0  0  0  0  0  0  0  0  0  0
   11.0638  -19.8577  -31.8113 C   0  0  0  0  0  0  0  0  0  0  0  0
   10.5525  -18.9586  -32.7362 C   0  0  0  0  0  0  0  0  0  0  0  0
   11.0992  -17.5580  -32.7806 C   0  0  0  0  0  0  0  0  0  0  0  0
   10.0149  -16.5676  -32.6857 N   0  0  2  0  0  0  0  0  0  0  0  0
    9.3760  -16.5486  -31.3638 C   0  0  0  0  0  0  0  0  0  0  0  0
    8.0371  -15.8763  -31.5722 C   0  0  0  0  0  0  0  0  0  0  0  0
    8.9200  -16.8089  -33.6322 C   0  0  0  0  0  0  0  0  0  0  0  0
    7.6198  -16.3885  -32.9484 C   0  0  2  0  0  0  0  0  0  0  0  0
    7.0362  -15.2827  -33.7052 N   0  0  0  0  0  0  0  0  0  0  0  0
   13.5875  -23.2456  -26.7345 H   0  0  0  0  0  0  0  0  0  0  0  0
   11.6068  -27.5509  -28.9415 H   0  0  0  0  0  0  0  0  0  0  0  0
   10.5440  -26.0943  -30.5890 H   0  0  0  0  0  0  0  0  0  0  0  0
   12.8488  -21.9134  -27.6940 H   0  0  0  0  0  0  0  0  0  0  0  0
   11.8239  -20.4089  -29.3169 H   0  0  0  0  0  0  0  0  0  0  0  0
   10.1668  -23.7442  -31.4605 H   0  0  0  0  0  0  0  0  0  0  0  0
    8.7178  -22.3008  -32.0224 H   0  0  0  0  0  0  0  0  0  0  0  0
    7.8410  -20.7474  -33.7456 H   0  0  0  0  0  0  0  0  0  0  0  0
    9.0221  -18.6187  -34.2150 H   0  0  0  0  0  0  0  0  0  0  0  0
   12.0021  -19.6176  -31.2897 H   0  0  0  0  0  0  0  0  0  0  0  0
   11.7922  -17.4151  -31.9383 H   0  0  0  0  0  0  0  0  0  0  0  0
   11.6227  -17.4153  -33.7374 H   0  0  0  0  0  0  0  0  0  0  0  0
   10.4939  -15.6792  -32.8912 H   0  0  0  0  0  0  0  0  0  0  0  0
    9.2374  -17.5735  -30.9890 H   0  0  0  0  0  0  0  0  0  0  0  0
    9.9890  -16.0163  -30.6217 H   0  0  0  0  0  0  0  0  0  0  0  0
    7.3154  -16.1800  -30.7996 H   0  0  0  0  0  0  0  0  0  0  0  0
    8.0831  -14.7791  -31.5085 H   0  0  0  0  0  0  0  0  0  0  0  0
    9.0740  -16.2136  -34.5442 H   0  0  0  0  0  0  0  0  0  0  0  0
    8.8817  -17.8707  -33.9173 H   0  0  0  0  0  0  0  0  0  0  0  0
    6.8910  -17.2099  -32.8842 H   0  0  0  0  0  0  0  0  0  0  0  0
    6.6644  -14.5782  -33.0522 H   0  0  0  0  0  0  0  0  0  0  0  0
    7.7602  -14.8528  -34.2983 H   0  0  0  0  0  0  0  0  0  0  0  0
    6.2727  -15.6378  -34.2983 H   0  0  0  0  0  0  0  0  0  0  0  0
  1  2  1  0
  2  3  2  0
  2  7  1  0
  3  4  1  0
  4  5  2  0
  5  6  1  0
  6  7  2  0
  6 10  1  0
  7  8  1  0
  8  9  2  0
  9 11  1  0
 10 11  2  0
 11 12  1  0
 12 13  2  0
 12 16  1  0
 13 14  1  0
 14 15  2  0
 15 17  1  0
 16 17  2  0
 17 18  1  0
 19 18  1  0
 19 20  1  0
 19 22  1  0
 20 21  1  0
 21 23  1  0
 22 23  1  0
 23 24  1  0
  1 25  1  0
  4 26  1  0
  5 27  1  0
  8 28  1  0
  9 29  1  0
 10 30  1  0
 13 31  1  0
 14 32  1  0
 15 33  1  0
 16 34  1  0
 18 35  1  0
 18 36  1  0
 19 37  1  6
 20 38  1  0
 20 39  1  0
 21 40  1  0
 21 41  1  0
 22 42  1  0
 22 43  1  0
 23 44  1  1
 24 45  1  0
 24 46  1  0
 24 47  1  0
M  CHG  2  19   1  24   1
M  END
>  <filename_input>  (18) 
7PIH_7QW_docked.sdf

>  <pdb_id>  (18) 
7PIH_7QW

>  <pose_rank>  (18) 
17

>  <num_atoms_heavy>  (18) 
24

>  <num_torsions>  (18) 
3

>  <pose>  (18) 
[10.41637967781425, -21.05538332916792, -31.529040994606785, -2.3343343768376874, 1.499632325161385, 4.733097803307542, -9.309121878084705, -6.96672951183099, -4.020536585117216]

>  <energy>  (18) 
-353.32598424324595

>  <inter_energy>  (18) 
-416.99769438373534

>  <intra_energy>  (18) 
54.75677515013411

>  <rmsd>  (18) 
6.5803

>  <sdf_rank>  (18) 
0

$$$$

     RDKit          3D

 47 50  0  0  0  0  0  0  0  0999 V2000
   14.8338  -21.2299  -27.1905 O   0  0  0  0  0  0  0  0  0  0  0  0
   13.9398  -22.1468  -27.2014 C   0  0  0  0  0  0  0  0  0  0  0  0
   14.0627  -23.1894  -26.3810 N   0  0  0  0  0  0  0  0  0  0  0  0
   13.0972  -24.1372  -26.4199 C   0  0  0  0  0  0  0  0  0  0  0  0
   12.0297  -24.1067  -27.2746 C   0  0  0  0  0  0  0  0  0  0  0  0
   11.8911  -23.0120  -28.1635 C   0  0  0  0  0  0  0  0  0  0  0  0
   12.8580  -21.9722  -28.1150 C   0  0  0  0  0  0  0  0  0  0  0  0
   12.7041  -20.8698  -28.9889 C   0  0  0  0  0  0  0  0  0  0  0  0
   11.6726  -20.8099  -29.8740 C   0  0  0  0  0  0  0  0  0  0  0  0
   10.8398  -22.9195  -29.1064 C   0  0  0  0  0  0  0  0  0  0  0  0
   10.7323  -21.8376  -29.9652 C   0  0  0  0  0  0  0  0  0  0  0  0
    9.6677  -21.7861  -30.9918 C   0  0  0  0  0  0  0  0  0  0  0  0
    8.8719  -22.9025  -31.2544 C   0  0  0  0  0  0  0  0  0  0  0  0
    7.8816  -22.8512  -32.2207 C   0  0  0  0  0  0  0  0  0  0  0  0
    7.6642  -21.6802  -32.9241 C   0  0  0  0  0  0  0  0  0  0  0  0
    9.4375  -20.6240  -31.7198 C   0  0  0  0  0  0  0  0  0  0  0  0
    8.4187  -20.5475  -32.6585 C   0  0  0  0  0  0  0  0  0  0  0  0
    8.0042  -19.2014  -33.1864 C   0  0  0  0  0  0  0  0  0  0  0  0
    8.1180  -18.1701  -32.1427 N   0  0  2  0  0  0  0  0  0  0  0  0
    6.9134  -17.3379  -32.0317 C   0  0  0  0  0  0  0  0  0  0  0  0
    7.3536  -16.0849  -31.3077 C   0  0  0  0  0  0  0  0  0  0  0  0
    9.2131  -17.2219  -32.3766 C   0  0  0  0  0  0  0  0  0  0  0  0
    8.7568  -15.8567  -31.8639 C   0  0  2  0  0  0  0  0  0  0  0  0
    9.6379  -15.4563  -30.7686 N   0  0  0  0  0  0  0  0  0  0  0  0
   14.7516  -20.4512  -27.7962 H   0  0  0  0  0  0  0  0  0  0  0  0
   13.1758  -24.9836  -25.7218 H   0  0  0  0  0  0  0  0  0  0  0  0
   11.2894  -24.9203  -27.2719 H   0  0  0  0  0  0  0  0  0  0  0  0
   13.4320  -20.0459  -28.9518 H   0  0  0  0  0  0  0  0  0  0  0  0
   11.5776  -19.9333  -30.5317 H   0  0  0  0  0  0  0  0  0  0  0  0
   10.0915  -23.7241  -29.1585 H   0  0  0  0  0  0  0  0  0  0  0  0
    9.0332  -23.8318  -30.6884 H   0  0  0  0  0  0  0  0  0  0  0  0
    7.2686  -23.7405  -32.4288 H   0  0  0  0  0  0  0  0  0  0  0  0
    6.8860  -21.6472  -33.7008 H   0  0  0  0  0  0  0  0  0  0  0  0
   10.0772  -19.7459  -31.5476 H   0  0  0  0  0  0  0  0  0  0  0  0
    8.6532  -18.9308  -34.0323 H   0  0  0  0  0  0  0  0  0  0  0  0
    6.9546  -19.2590  -33.5104 H   0  0  0  0  0  0  0  0  0  0  0  0
    8.2811  -18.7219  -31.2885 H   0  0  0  0  0  0  0  0  0  0  0  0
    6.5248  -17.0887  -33.0301 H   0  0  0  0  0  0  0  0  0  0  0  0
    6.1063  -17.8576  -31.4945 H   0  0  0  0  0  0  0  0  0  0  0  0
    6.6914  -15.2380  -31.5405 H   0  0  0  0  0  0  0  0  0  0  0  0
    7.3266  -16.1794  -30.2121 H   0  0  0  0  0  0  0  0  0  0  0  0
   10.1127  -17.5457  -31.8327 H   0  0  0  0  0  0  0  0  0  0  0  0
    9.4589  -17.1709  -33.4475 H   0  0  0  0  0  0  0  0  0  0  0  0
    8.7747  -15.0836  -32.6462 H   0  0  0  0  0  0  0  0  0  0  0  0
    9.1824  -15.6633  -29.8683 H   0  0  0  0  0  0  0  0  0  0  0  0
   10.5241  -15.9773  -30.8329 H   0  0  0  0  0  0  0  0  0  0  0  0
    9.8281  -14.4461  -30.8329 H   0  0  0  0  0  0  0  0  0  0  0  0
  1  2  1  0
  2  3  2  0
  2  7  1  0
  3  4  1  0
  4  5  2  0
  5  6  1  0
  6  7  2  0
  6 10  1  0
  7  8  1  0
  8  9  2  0
  9 11  1  0
 10 11  2  0
 11 12  1  0
 12 13  2  0
 12 16  1  0
 13 14  1  0
 14 15  2  0
 15 17  1  0
 16 17  2  0
 17 18  1  0
 19 18  1  0
 19 20  1  0
 19 22  1  0
 20 21  1  0
 21 23  1  0
 22 23  1  0
 23 24  1  0
  1 25  1  0
  4 26  1  0
  5 27  1  0
  8 28  1  0
  9 29  1  0
 10 30  1  0
 13 31  1  0
 14 32  1  0
 15 33  1  0
 16 34  1  0
 18 35  1  0
 18 36  1  0
 19 37  1  1
 20 38  1  0
 20 39  1  0
 21 40  1  0
 21 41  1  0
 22 42  1  0
 22 43  1  0
 23 44  1  6
 24 45  1  0
 24 46  1  0
 24 47  1  0
M  CHG  2  19   1  24   1
M  END
>  <filename_input>  (19) 
7PIH_7QW_docked.sdf

>  <pdb_id>  (19) 
7PIH_7QW

>  <pose_rank>  (19) 
18

>  <num_atoms_heavy>  (19) 
24

>  <num_torsions>  (19) 
3

>  <pose>  (19) 
[9.667704571342876, -21.786117329620865, -30.99184374868487, -1.534441159530717, 2.961256663917514, 5.247111926708903, -10.010477695040418, -5.350301102280002, -1.230434023484675]

>  <energy>  (19) 
-424.2009460580855

>  <inter_energy>  (19) 
-422.37046485171174

>  <intra_energy>  (19) 
3.2240348830830223

>  <rmsd>  (19) 
5.87901

>  <sdf_rank>  (19) 
0

$$$$

     RDKit          3D

 47 50  0  0  0  0  0  0  0  0999 V2000
   15.1610  -22.0015  -26.5258 O   0  0  0  0  0  0  0  0  0  0  0  0
   14.2437  -22.8258  -26.8712 C   0  0  0  0  0  0  0  0  0  0  0  0
   14.2468  -24.0577  -26.3637 N   0  0  0  0  0  0  0  0  0  0  0  0
   13.2604  -24.8997  -26.7511 C   0  0  0  0  0  0  0  0  0  0  0  0
   12.2890  -24.5740  -27.6572 C   0  0  0  0  0  0  0  0  0  0  0  0
   12.2790  -23.2724  -28.2173 C   0  0  0  0  0  0  0  0  0  0  0  0
   13.2688  -22.3448  -27.7952 C   0  0  0  0  0  0  0  0  0  0  0  0
   13.2422  -21.0390  -28.3401 C   0  0  0  0  0  0  0  0  0  0  0  0
   12.3107  -20.6790  -29.2641 C   0  0  0  0  0  0  0  0  0  0  0  0
   11.3347  -22.8642  -29.1892 C   0  0  0  0  0  0  0  0  0  0  0  0
   11.3521  -21.5850  -29.7211 C   0  0  0  0  0  0  0  0  0  0  0  0
   10.4021  -21.1926  -30.7857 C   0  0  0  0  0  0  0  0  0  0  0  0
    9.4129  -22.0750  -31.2233 C   0  0  0  0  0  0  0  0  0  0  0  0
    8.5307  -21.7053  -32.2244 C   0  0  0  0  0  0  0  0  0  0  0  0
    8.6161  -20.4452  -32.7884 C   0  0  0  0  0  0  0  0  0  0  0  0
   10.4750  -19.9356  -31.3758 C   0  0  0  0  0  0  0  0  0  0  0  0
    9.5682  -19.5385  -32.3480 C   0  0  0  0  0  0  0  0  0  0  0  0
    9.4848  -18.0850  -32.7263 C   0  0  0  0  0  0  0  0  0  0  0  0
    8.1090  -17.5828  -32.5824 N   0  0  2  0  0  0  0  0  0  0  0  0
    7.5047  -17.9414  -31.2932 C   0  0  0  0  0  0  0  0  0  0  0  0
    6.0123  -17.7951  -31.4923 C   0  0  0  0  0  0  0  0  0  0  0  0
    7.1863  -18.1115  -33.5933 C   0  0  0  0  0  0  0  0  0  0  0  0
    5.8209  -18.2774  -32.9279 C   0  0  2  0  0  0  0  0  0  0  0  0
    4.8695  -17.3934  -33.5985 N   0  0  0  0  0  0  0  0  0  0  0  0
   15.1674  -21.0839  -26.8973 H   0  0  0  0  0  0  0  0  0  0  0  0
   13.2386  -25.9073  -26.3102 H   0  0  0  0  0  0  0  0  0  0  0  0
   11.5264  -25.3119  -27.9471 H   0  0  0  0  0  0  0  0  0  0  0  0
   13.9887  -20.3013  -28.0105 H   0  0  0  0  0  0  0  0  0  0  0  0
   12.3130  -19.6524  -29.6592 H   0  0  0  0  0  0  0  0  0  0  0  0
   10.5703  -23.5781  -29.5297 H   0  0  0  0  0  0  0  0  0  0  0  0
    9.3335  -23.0734  -30.7684 H   0  0  0  0  0  0  0  0  0  0  0  0
    7.7630  -22.4129  -32.5707 H   0  0  0  0  0  0  0  0  0  0  0  0
    7.9226  -20.1600  -33.5932 H   0  0  0  0  0  0  0  0  0  0  0  0
   11.2691  -19.2408  -31.0650 H   0  0  0  0  0  0  0  0  0  0  0  0
   10.1507  -17.5037  -32.0716 H   0  0  0  0  0  0  0  0  0  0  0  0
    9.7898  -17.9776  -33.7777 H   0  0  0  0  0  0  0  0  0  0  0  0
    8.2228  -16.5638  -32.6807 H   0  0  0  0  0  0  0  0  0  0  0  0
    7.7570  -18.9780  -31.0252 H   0  0  0  0  0  0  0  0  0  0  0  0
    7.8724  -17.3012  -30.4777 H   0  0  0  0  0  0  0  0  0  0  0  0
    5.4534  -18.4242  -30.7839 H   0  0  0  0  0  0  0  0  0  0  0  0
    5.6456  -16.7723  -31.3210 H   0  0  0  0  0  0  0  0  0  0  0  0
    7.1103  -17.4090  -34.4363 H   0  0  0  0  0  0  0  0  0  0  0  0
    7.5477  -19.0754  -33.9810 H   0  0  0  0  0  0  0  0  0  0  0  0
    5.4508  -19.3122  -32.9743 H   0  0  0  0  0  0  0  0  0  0  0  0
    4.3196  -16.8825  -32.8932 H   0  0  0  0  0  0  0  0  0  0  0  0
    5.3817  -16.7213  -34.1874 H   0  0  0  0  0  0  0  0  0  0  0  0
    4.2368  -17.9535  -34.1874 H   0  0  0  0  0  0  0  0  0  0  0  0
  1  2  1  0
  2  3  2  0
  2  7  1  0
  3  4  1  0
  4  5  2  0
  5  6  1  0
  6  7  2  0
  6 10  1  0
  7  8  1  0
  8  9  2  0
  9 11  1  0
 10 11  2  0
 11 12  1  0
 12 13  2  0
 12 16  1  0
 13 14  1  0
 14 15  2  0
 15 17  1  0
 16 17  2  0
 17 18  1  0
 19 18  1  0
 19 20  1  0
 19 22  1  0
 20 21  1  0
 21 23  1  0
 22 23  1  0
 23 24  1  0
  1 25  1  0
  4 26  1  0
  5 27  1  0
  8 28  1  0
  9 29  1  0
 10 30  1  0
 13 31  1  0
 14 32  1  0
 15 33  1  0
 16 34  1  0
 18 35  1  0
 18 36  1  0
 19 37  1  1
 20 38  1  0
 20 39  1  0
 21 40  1  0
 21 41  1  0
 22 42  1  0
 22 43  1  0
 23 44  1  1
 24 45  1  0
 24 46  1  0
 24 47  1  0
M  CHG  2  19   1  24   1
M  END
>  <filename_input>  (20) 
7PIH_7QW_docked.sdf

>  <pdb_id>  (20) 
7PIH_7QW

>  <pose_rank>  (20) 
19

>  <num_atoms_heavy>  (20) 
24

>  <num_torsions>  (20) 
3

>  <pose>  (20) 
[10.402092887103063, -21.19257029370291, -30.785744405859067, -2.4953062574548914, 1.758730263542133, 5.127053464348264, -9.775671281836344, -6.929583147058954, -4.3779108777636395]

>  <energy>  (20) 
-419.179985726442

>  <inter_energy>  (20) 
-429.4326813870616

>  <intra_energy>  (20) 
44.247335357428156

>  <rmsd>  (20) 
5.70873

>  <sdf_rank>  (20) 
0

$$$$

     RDKit          3D

 47 50  0  0  0  0  0  0  0  0999 V2000
   21.3070  -16.0399  -34.9168 O   0  0  0  0  0  0  0  0  0  0  0  0
   21.6312  -17.0063  -34.1415 C   0  0  0  0  0  0  0  0  0  0  0  0
   22.1972  -18.0966  -34.6573 N   0  0  0  0  0  0  0  0  0  0  0  0
   22.5274  -19.0960  -33.8063 C   0  0  0  0  0  0  0  0  0  0  0  0
   22.2799  -19.0681  -32.4613 C   0  0  0  0  0  0  0  0  0  0  0  0
   21.6660  -17.9219  -31.8983 C   0  0  0  0  0  0  0  0  0  0  0  0
   21.3522  -16.8315  -32.7533 C   0  0  0  0  0  0  0  0  0  0  0  0
   20.7593  -15.6796  -32.1837 C   0  0  0  0  0  0  0  0  0  0  0  0
   20.4710  -15.6181  -30.8555 C   0  0  0  0  0  0  0  0  0  0  0  0
   21.3394  -17.8249  -30.5247 C   0  0  0  0  0  0  0  0  0  0  0  0
   20.7361  -16.6917  -30.0036 C   0  0  0  0  0  0  0  0  0  0  0  0
   20.3382  -16.6302  -28.5795 C   0  0  0  0  0  0  0  0  0  0  0  0
   21.2601  -16.8995  -27.5665 C   0  0  0  0  0  0  0  0  0  0  0  0
   20.8810  -16.8472  -26.2358 C   0  0  0  0  0  0  0  0  0  0  0  0
   19.5820  -16.5098  -25.9014 C   0  0  0  0  0  0  0  0  0  0  0  0
   19.0356  -16.3044  -28.2187 C   0  0  0  0  0  0  0  0  0  0  0  0
   18.6562  -16.2052  -26.8877 C   0  0  0  0  0  0  0  0  0  0  0  0
   17.3461  -15.5514  -26.5430 C   0  0  0  0  0  0  0  0  0  0  0  0
   17.0680  -15.6599  -25.1020 N   0  0  2  0  0  0  0  0  0  0  0  0
   16.0158  -16.6379  -24.7979 C   0  0  0  0  0  0  0  0  0  0  0  0
   15.5275  -16.2871  -23.4099 C   0  0  0  0  0  0  0  0  0  0  0  0
   16.6032  -14.4045  -24.5014 C   0  0  0  0  0  0  0  0  0  0  0  0
   15.5945  -14.7621  -23.4107 C   0  0  2  0  0  0  0  0  0  0  0  0
   16.1256  -14.3136  -22.1251 N   0  0  0  0  0  0  0  0  0  0  0  0
   20.8860  -15.2255  -34.5433 H   0  0  0  0  0  0  0  0  0  0  0  0
   23.0250  -19.9847  -34.2216 H   0  0  0  0  0  0  0  0  0  0  0  0
   22.5536  -19.9232  -31.8259 H   0  0  0  0  0  0  0  0  0  0  0  0
   20.5273  -14.8179  -32.8268 H   0  0  0  0  0  0  0  0  0  0  0  0
   20.0195  -14.7032  -30.4443 H   0  0  0  0  0  0  0  0  0  0  0  0
   21.5695  -18.6676  -29.8562 H   0  0  0  0  0  0  0  0  0  0  0  0
   22.2974  -17.1558  -27.8278 H   0  0  0  0  0  0  0  0  0  0  0  0
   21.6120  -17.0736  -25.4456 H   0  0  0  0  0  0  0  0  0  0  0  0
   19.2806  -16.4829  -24.8438 H   0  0  0  0  0  0  0  0  0  0  0  0
   18.2892  -16.1213  -29.0058 H   0  0  0  0  0  0  0  0  0  0  0  0
   17.3897  -14.4883  -26.8222 H   0  0  0  0  0  0  0  0  0  0  0  0
   16.5430  -16.0612  -27.0952 H   0  0  0  0  0  0  0  0  0  0  0  0
   17.9777  -15.9437  -24.7111 H   0  0  0  0  0  0  0  0  0  0  0  0
   15.1949  -16.5583  -25.5259 H   0  0  0  0  0  0  0  0  0  0  0  0
   16.3909  -17.6706  -24.8499 H   0  0  0  0  0  0  0  0  0  0  0  0
   14.4978  -16.6395  -23.2500 H   0  0  0  0  0  0  0  0  0  0  0  0
   16.1190  -16.7513  -22.6070 H   0  0  0  0  0  0  0  0  0  0  0  0
   17.4530  -13.8607  -24.0631 H   0  0  0  0  0  0  0  0  0  0  0  0
   16.1385  -13.7601  -25.2622 H   0  0  0  0  0  0  0  0  0  0  0  0
   14.6097  -14.3015  -23.5781 H   0  0  0  0  0  0  0  0  0  0  0  0
   15.5977  -14.7594  -21.3612 H   0  0  0  0  0  0  0  0  0  0  0  0
   17.1193  -14.5751  -22.0540 H   0  0  0  0  0  0  0  0  0  0  0  0
   16.0340  -13.2901  -22.0540 H   0  0  0  0  0  0  0  0  0  0  0  0
  1  2  1  0
  2  3  2  0
  2  7  1  0
  3  4  1  0
  4  5  2  0
  5  6  1  0
  6  7  2  0
  6 10  1  0
  7  8  1  0
  8  9  2  0
  9 11  1  0
 10 11  2  0
 11 12  1  0
 12 13  2  0
 12 16  1  0
 13 14  1  0
 14 15  2  0
 15 17  1  0
 16 17  2  0
 17 18  1  0
 19 18  1  0
 19 20  1  0
 19 22  1  0
 20 21  1  0
 21 23  1  0
 22 23  1  0
 23 24  1  0
  1 25  1  0
  4 26  1  0
  5 27  1  0
  8 28  1  0
  9 29  1  0
 10 30  1  0
 13 31  1  0
 14 32  1  0
 15 33  1  0
 16 34  1  0
 18 35  1  0
 18 36  1  0
 19 37  1  1
 20 38  1  0
 20 39  1  0
 21 40  1  0
 21 41  1  0
 22 42  1  0
 22 43  1  0
 23 44  1  6
 24 45  1  0
 24 46  1  0
 24 47  1  0
M  CHG  2  19   1  24   1
M  END
>  <filename_input>  (21) 
7PIH_7QW_docked.sdf

>  <pdb_id>  (21) 
7PIH_7QW

>  <pose_rank>  (21) 
20

>  <num_atoms_heavy>  (21) 
24

>  <num_torsions>  (21) 
3

>  <pose>  (21) 
[20.338246769681977, -16.630221323741683, -28.57950998332414, 2.206987392086462, -3.39051965332626, -0.5170605537896427, -2.621951978186472, -1.7041151069679499, -0.7965444713565092]

>  <energy>  (21) 
-224.63478458796396

>  <inter_energy>  (21) 
-179.9431358558548

>  <intra_energy>  (21) 
0.12600405037055765

>  <rmsd>  (21) 
12.2373

>  <sdf_rank>  (21) 
0

$$$$

     RDKit          3D

 47 50  0  0  0  0  0  0  0  0999 V2000
   19.1814  -18.4125  -35.6276 O   0  0  0  0  0  0  0  0  0  0  0  0
   20.3263  -17.9702  -35.2620 C   0  0  0  0  0  0  0  0  0  0  0  0
   21.3862  -18.1757  -36.0426 N   0  0  0  0  0  0  0  0  0  0  0  0
   22.5789  -17.6919  -35.6236 C   0  0  0  0  0  0  0  0  0  0  0  0
   22.7654  -17.0423  -34.4344 C   0  0  0  0  0  0  0  0  0  0  0  0
   21.6513  -16.8275  -33.5857 C   0  0  0  0  0  0  0  0  0  0  0  0
   20.3739  -17.2761  -34.0164 C   0  0  0  0  0  0  0  0  0  0  0  0
   19.2600  -17.0401  -33.1761 C   0  0  0  0  0  0  0  0  0  0  0  0
   19.4027  -16.4216  -31.9727 C   0  0  0  0  0  0  0  0  0  0  0  0
   21.7610  -16.1994  -32.3222 C   0  0  0  0  0  0  0  0  0  0  0  0
   20.6534  -16.0061  -31.5126 C   0  0  0  0  0  0  0  0  0  0  0  0
   20.7926  -15.4097  -30.1654 C   0  0  0  0  0  0  0  0  0  0  0  0
   22.0412  -15.0125  -29.6840 C   0  0  0  0  0  0  0  0  0  0  0  0
   22.1670  -14.4612  -28.4201 C   0  0  0  0  0  0  0  0  0  0  0  0
   21.0457  -14.2854  -27.6295 C   0  0  0  0  0  0  0  0  0  0  0  0
   19.6819  -15.2333  -29.3477 C   0  0  0  0  0  0  0  0  0  0  0  0
   19.7898  -14.6408  -28.0977 C   0  0  0  0  0  0  0  0  0  0  0  0
   18.5434  -14.1859  -27.3891 C   0  0  0  0  0  0  0  0  0  0  0  0
   18.5712  -14.5805  -25.9717 N   0  0  2  0  0  0  0  0  0  0  0  0
   18.6661  -16.0341  -25.7877 C   0  0  0  0  0  0  0  0  0  0  0  0
   18.2046  -16.2927  -24.3706 C   0  0  0  0  0  0  0  0  0  0  0  0
   17.3682  -14.1828  -25.2318 C   0  0  0  0  0  0  0  0  0  0  0  0
   17.0862  -15.2688  -24.1944 C   0  0  2  0  0  0  0  0  0  0  0  0
   17.1963  -14.6759  -22.8631 N   0  0  0  0  0  0  0  0  0  0  0  0
   18.3877  -18.2650  -35.0546 H   0  0  0  0  0  0  0  0  0  0  0  0
   23.4512  -17.8295  -36.2794 H   0  0  0  0  0  0  0  0  0  0  0  0
   23.7659  -16.6917  -34.1412 H   0  0  0  0  0  0  0  0  0  0  0  0
   18.2601  -17.3628  -33.5019 H   0  0  0  0  0  0  0  0  0  0  0  0
   18.5137  -16.2451  -31.3492 H   0  0  0  0  0  0  0  0  0  0  0  0
   22.7472  -15.8572  -31.9753 H   0  0  0  0  0  0  0  0  0  0  0  0
   22.9336  -15.1388  -30.3146 H   0  0  0  0  0  0  0  0  0  0  0  0
   23.1573  -14.1632  -28.0453 H   0  0  0  0  0  0  0  0  0  0  0  0
   21.1512  -13.8601  -26.6206 H   0  0  0  0  0  0  0  0  0  0  0  0
   18.6959  -15.5709  -29.6996 H   0  0  0  0  0  0  0  0  0  0  0  0
   18.4703  -13.0904  -27.4566 H   0  0  0  0  0  0  0  0  0  0  0  0
   17.6740  -14.6594  -27.8686 H   0  0  0  0  0  0  0  0  0  0  0  0
   19.4054  -14.0947  -25.6122 H   0  0  0  0  0  0  0  0  0  0  0  0
   18.0156  -16.5558  -26.5052 H   0  0  0  0  0  0  0  0  0  0  0  0
   19.6891  -16.4012  -25.9573 H   0  0  0  0  0  0  0  0  0  0  0  0
   17.8252  -17.3190  -24.2573 H   0  0  0  0  0  0  0  0  0  0  0  0
   19.0070  -16.1980  -23.6243 H   0  0  0  0  0  0  0  0  0  0  0  0
   17.5377  -13.2189  -24.7297 H   0  0  0  0  0  0  0  0  0  0  0  0
   16.5136  -14.0687  -25.9149 H   0  0  0  0  0  0  0  0  0  0  0  0
   16.0885  -15.7167  -24.3117 H   0  0  0  0  0  0  0  0  0  0  0  0
   17.0607  -15.4063  -22.1497 H   0  0  0  0  0  0  0  0  0  0  0  0
   18.1298  -14.2553  -22.7507 H   0  0  0  0  0  0  0  0  0  0  0  0
   16.4761  -13.9482  -22.7507 H   0  0  0  0  0  0  0  0  0  0  0  0
  1  2  1  0
  2  3  2  0
  2  7  1  0
  3  4  1  0
  4  5  2  0
  5  6  1  0
  6  7  2  0
  6 10  1  0
  7  8  1  0
  8  9  2  0
  9 11  1  0
 10 11  2  0
 11 12  1  0
 12 13  2  0
 12 16  1  0
 13 14  1  0
 14 15  2  0
 15 17  1  0
 16 17  2  0
 17 18  1  0
 19 18  1  0
 19 20  1  0
 19 22  1  0
 20 21  1  0
 21 23  1  0
 22 23  1  0
 23 24  1  0
  1 25  1  0
  4 26  1  0
  5 27  1  0
  8 28  1  0
  9 29  1  0
 10 30  1  0
 13 31  1  0
 14 32  1  0
 15 33  1  0
 16 34  1  0
 18 35  1  0
 18 36  1  0
 19 37  1  1
 20 38  1  0
 20 39  1  0
 21 40  1  0
 21 41  1  0
 22 42  1  0
 22 43  1  0
 23 44  1  6
 24 45  1  0
 24 46  1  0
 24 47  1  0
M  CHG  2  19   1  24   1
M  END
>  <filename_input>  (22) 
7PIH_7QW_docked.sdf

>  <pdb_id>  (22) 
7PIH_7QW

>  <pose_rank>  (22) 
21

>  <num_atoms_heavy>  (22) 
24

>  <num_torsions>  (22) 
3

>  <pose>  (22) 
[20.792598068528207, -15.409692794900087, -30.16541866845071, -1.819921762824999, 2.1433531163538477, 0.39221417842578826, -3.5470752122416753, 3.895709459733988, 0.01626723250063755]

>  <energy>  (22) 
-221.78053055691743

>  <inter_energy>  (22) 
-204.49757123219902

>  <intra_energy>  (22) 
3.070597133915843

>  <rmsd>  (22) 
13.2628

>  <sdf_rank>  (22) 
0

$$$$

     RDKit          3D

 47 50  0  0  0  0  0  0  0  0999 V2000
    4.5536  -21.1034  -17.9625 O   0  0  0  0  0  0  0  0  0  0  0  0
    5.7670  -21.4903  -18.0967 C   0  0  0  0  0  0  0  0  0  0  0  0
    6.7526  -20.6002  -17.9896 N   0  0  0  0  0  0  0  0  0  0  0  0
    8.0219  -21.0470  -18.1357 C   0  0  0  0  0  0  0  0  0  0  0  0
    8.3476  -22.3439  -18.4236 C   0  0  0  0  0  0  0  0  0  0  0  0
    7.3109  -23.3008  -18.5546 C   0  0  0  0  0  0  0  0  0  0  0  0
    5.9689  -22.8785  -18.3568 C   0  0  0  0  0  0  0  0  0  0  0  0
    4.9380  -23.8417  -18.4666 C   0  0  0  0  0  0  0  0  0  0  0  0
    5.2132  -25.1373  -18.7775 C   0  0  0  0  0  0  0  0  0  0  0  0
    7.5557  -24.6541  -18.8887 C   0  0  0  0  0  0  0  0  0  0  0  0
    6.5205  -25.5665  -19.0128 C   0  0  0  0  0  0  0  0  0  0  0  0
    6.7843  -26.9619  -19.4291 C   0  0  0  0  0  0  0  0  0  0  0  0
    7.9877  -27.5904  -19.1045 C   0  0  0  0  0  0  0  0  0  0  0  0
    8.2323  -28.8939  -19.5021 C   0  0  0  0  0  0  0  0  0  0  0  0
    7.2719  -29.5896  -20.2141 C   0  0  0  0  0  0  0  0  0  0  0  0
    5.8391  -27.6781  -20.1551 C   0  0  0  0  0  0  0  0  0  0  0  0
    6.0551  -28.9992  -20.5199 C   0  0  0  0  0  0  0  0  0  0  0  0
    4.8995  -29.8233  -21.0180 C   0  0  0  0  0  0  0  0  0  0  0  0
    4.7534  -31.0555  -20.2268 N   0  0  2  0  0  0  0  0  0  0  0  0
    3.7698  -31.9844  -20.7973 C   0  0  0  0  0  0  0  0  0  0  0  0
    3.3925  -32.9169  -19.6676 C   0  0  0  0  0  0  0  0  0  0  0  0
    4.2961  -30.8161  -18.8533 C   0  0  0  0  0  0  0  0  0  0  0  0
    3.4015  -31.9892  -18.4554 C   0  0  2  0  0  0  0  0  0  0  0  0
    4.0263  -32.6870  -17.3333 N   0  0  0  0  0  0  0  0  0  0  0  0
    3.8141  -21.7571  -18.0403 H   0  0  0  0  0  0  0  0  0  0  0  0
    8.8413  -20.3230  -18.0155 H   0  0  0  0  0  0  0  0  0  0  0  0
    9.3993  -22.6396  -18.5516 H   0  0  0  0  0  0  0  0  0  0  0  0
    3.8946  -23.5372  -18.2974 H   0  0  0  0  0  0  0  0  0  0  0  0
    4.3883  -25.8618  -18.8447 H   0  0  0  0  0  0  0  0  0  0  0  0
    8.5905  -24.9889  -19.0533 H   0  0  0  0  0  0  0  0  0  0  0  0
    8.7489  -27.0449  -18.5275 H   0  0  0  0  0  0  0  0  0  0  0  0
    9.1891  -29.3756  -19.2522 H   0  0  0  0  0  0  0  0  0  0  0  0
    7.4752  -30.6202  -20.5405 H   0  0  0  0  0  0  0  0  0  0  0  0
    4.8993  -27.1864  -20.4467 H   0  0  0  0  0  0  0  0  0  0  0  0
    3.9751  -29.2325  -20.9382 H   0  0  0  0  0  0  0  0  0  0  0  0
    5.0903  -30.0989  -22.0656 H   0  0  0  0  0  0  0  0  0  0  0  0
    5.7041  -31.4519  -20.2376 H   0  0  0  0  0  0  0  0  0  0  0  0
    2.8856  -31.4363  -21.1550 H   0  0  0  0  0  0  0  0  0  0  0  0
    4.1776  -32.5320  -21.6598 H   0  0  0  0  0  0  0  0  0  0  0  0
    2.3949  -33.3519  -19.8277 H   0  0  0  0  0  0  0  0  0  0  0  0
    4.0694  -33.7779  -19.5655 H   0  0  0  0  0  0  0  0  0  0  0  0
    5.1601  -30.7558  -18.1751 H   0  0  0  0  0  0  0  0  0  0  0  0
    3.7424  -29.8678  -18.7894 H   0  0  0  0  0  0  0  0  0  0  0  0
    2.3891  -31.6701  -18.1669 H   0  0  0  0  0  0  0  0  0  0  0  0
    3.6757  -32.2955  -16.4475 H   0  0  0  0  0  0  0  0  0  0  0  0
    3.7951  -33.6896  -17.3809 H   0  0  0  0  0  0  0  0  0  0  0  0
    5.0482  -32.5676  -17.3809 H   0  0  0  0  0  0  0  0  0  0  0  0
  1  2  1  0
  2  3  2  0
  2  7  1  0
  3  4  1  0
  4  5  2  0
  5  6  1  0
  6  7  2  0
  6 10  1  0
  7  8  1  0
  8  9  2  0
  9 11  1  0
 10 11  2  0
 11 12  1  0
 12 13  2  0
 12 16  1  0
 13 14  1  0
 14 15  2  0
 15 17  1  0
 16 17  2  0
 17 18  1  0
 19 18  1  0
 19 20  1  0
 19 22  1  0
 20 21  1  0
 21 23  1  0
 22 23  1  0
 23 24  1  0
  1 25  1  0
  4 26  1  0
  5 27  1  0
  8 28  1  0
  9 29  1  0
 10 30  1  0
 13 31  1  0
 14 32  1  0
 15 33  1  0
 16 34  1  0
 18 35  1  0
 18 36  1  0
 19 37  1  1
 20 38  1  0
 20 39  1  0
 21 40  1  0
 21 41  1  0
 22 42  1  0
 22 43  1  0
 23 44  1  1
 24 45  1  0
 24 46  1  0
 24 47  1  0
M  CHG  2  19   1  24   1
M  END
>  <filename_input>  (23) 
7PIH_7QW_docked.sdf

>  <pdb_id>  (23) 
7PIH_7QW

>  <pose_rank>  (23) 
22

>  <num_atoms_heavy>  (23) 
24

>  <num_torsions>  (23) 
3

>  <pose>  (23) 
[6.784266197225518, -26.96191882417814, -19.42909956461432, 1.354235290401681, -0.48777817667807866, -4.354209007864395, 3.2638364479409874, -0.6469586853593158, -1.9313124777533974]

>  <energy>  (23) 
-195.275599074014

>  <inter_energy>  (23) 
-187.2443932333289

>  <intra_energy>  (23) 
2.9425941648888165

>  <rmsd>  (23) 
12.7391

>  <sdf_rank>  (23) 
0

$$$$

     RDKit          3D

 47 50  0  0  0  0  0  0  0  0999 V2000
   11.4573  -17.8422  -32.9085 O   0  0  0  0  0  0  0  0  0  0  0  0
   12.0128  -16.7967  -33.3968 C   0  0  0  0  0  0  0  0  0  0  0  0
   11.2945  -15.6848  -33.5480 N   0  0  0  0  0  0  0  0  0  0  0  0
   11.9166  -14.5999  -34.0657 C   0  0  0  0  0  0  0  0  0  0  0  0
   13.2213  -14.5900  -34.4762 C   0  0  0  0  0  0  0  0  0  0  0  0
   13.9959  -15.7681  -34.3354 C   0  0  0  0  0  0  0  0  0  0  0  0
   13.3908  -16.9116  -33.7482 C   0  0  0  0  0  0  0  0  0  0  0  0
   14.1740  -18.0794  -33.5889 C   0  0  0  0  0  0  0  0  0  0  0  0
   15.4680  -18.1235  -34.0070 C   0  0  0  0  0  0  0  0  0  0  0  0
   15.3402  -15.8571  -34.7688 C   0  0  0  0  0  0  0  0  0  0  0  0
   16.0715  -17.0244  -34.6205 C   0  0  0  0  0  0  0  0  0  0  0  0
   17.4538  -17.1253  -35.1393 C   0  0  0  0  0  0  0  0  0  0  0  0
   17.7830  -16.6267  -36.4009 C   0  0  0  0  0  0  0  0  0  0  0  0
   19.0764  -16.7296  -36.8844 C   0  0  0  0  0  0  0  0  0  0  0  0
   20.0586  -17.3168  -36.1075 C   0  0  0  0  0  0  0  0  0  0  0  0
   18.4559  -17.7213  -34.3817 C   0  0  0  0  0  0  0  0  0  0  0  0
   19.7646  -17.7896  -34.8375 C   0  0  0  0  0  0  0  0  0  0  0  0
   20.8617  -18.1487  -33.8732 C   0  0  0  0  0  0  0  0  0  0  0  0
   21.0285  -17.1011  -32.8533 N   0  0  2  0  0  0  0  0  0  0  0  0
   22.3145  -16.4009  -32.9622 C   0  0  0  0  0  0  0  0  0  0  0  0
   22.5300  -15.7412  -31.6181 C   0  0  0  0  0  0  0  0  0  0  0  0
   20.9915  -17.6138  -31.4790 C   0  0  0  0  0  0  0  0  0  0  0  0
   21.9586  -16.7718  -30.6478 C   0  0  2  0  0  0  0  0  0  0  0  0
   21.1942  -16.0738  -29.6160 N   0  0  0  0  0  0  0  0  0  0  0  0
   11.9825  -18.6733  -32.7921 H   0  0  0  0  0  0  0  0  0  0  0  0
   11.3377  -13.6696  -34.1621 H   0  0  0  0  0  0  0  0  0  0  0  0
   13.6629  -13.6805  -34.9095 H   0  0  0  0  0  0  0  0  0  0  0  0
   13.7283  -18.9682  -33.1184 H   0  0  0  0  0  0  0  0  0  0  0  0
   16.0508  -19.0445  -33.8583 H   0  0  0  0  0  0  0  0  0  0  0  0
   15.8148  -14.9803  -35.2336 H   0  0  0  0  0  0  0  0  0  0  0  0
   17.0077  -16.1475  -37.0167 H   0  0  0  0  0  0  0  0  0  0  0  0
   19.3224  -16.3448  -37.8851 H   0  0  0  0  0  0  0  0  0  0  0  0
   21.0818  -17.4095  -36.5004 H   0  0  0  0  0  0  0  0  0  0  0  0
   18.2056  -18.1482  -33.3993 H   0  0  0  0  0  0  0  0  0  0  0  0
   20.6088  -19.0973  -33.3770 H   0  0  0  0  0  0  0  0  0  0  0  0
   21.8034  -18.2470  -34.4332 H   0  0  0  0  0  0  0  0  0  0  0  0
   20.2340  -16.4714  -33.0358 H   0  0  0  0  0  0  0  0  0  0  0  0
   23.1241  -17.1146  -33.1744 H   0  0  0  0  0  0  0  0  0  0  0  0
   22.3116  -15.6669  -33.7814 H   0  0  0  0  0  0  0  0  0  0  0  0
   23.5993  -15.5666  -31.4281 H   0  0  0  0  0  0  0  0  0  0  0  0
   22.0570  -14.7516  -31.5348 H   0  0  0  0  0  0  0  0  0  0  0  0
   19.9730  -17.5263  -31.0728 H   0  0  0  0  0  0  0  0  0  0  0  0
   21.2815  -18.6746  -31.4536 H   0  0  0  0  0  0  0  0  0  0  0  0
   22.7442  -17.3768  -30.1717 H   0  0  0  0  0  0  0  0  0  0  0  0
   21.5209  -16.3722  -28.6859 H   0  0  0  0  0  0  0  0  0  0  0  0
   21.3287  -15.0577  -29.7175 H   0  0  0  0  0  0  0  0  0  0  0  0
   20.1944  -16.2997  -29.7175 H   0  0  0  0  0  0  0  0  0  0  0  0
  1  2  1  0
  2  3  2  0
  2  7  1  0
  3  4  1  0
  4  5  2  0
  5  6  1  0
  6  7  2  0
  6 10  1  0
  7  8  1  0
  8  9  2  0
  9 11  1  0
 10 11  2  0
 11 12  1  0
 12 13  2  0
 12 16  1  0
 13 14  1  0
 14 15  2  0
 15 17  1  0
 16 17  2  0
 17 18  1  0
 19 18  1  0
 19 20  1  0
 19 22  1  0
 20 21  1  0
 21 23  1  0
 22 23  1  0
 23 24  1  0
  1 25  1  0
  4 26  1  0
  5 27  1  0
  8 28  1  0
  9 29  1  0
 10 30  1  0
 13 31  1  0
 14 32  1  0
 15 33  1  0
 16 34  1  0
 18 35  1  0
 18 36  1  0
 19 37  1  1
 20 38  1  0
 20 39  1  0
 21 40  1  0
 21 41  1  0
 22 42  1  0
 22 43  1  0
 23 44  1  1
 24 45  1  0
 24 46  1  0
 24 47  1  0
M  CHG  2  19   1  24   1
M  END
>  <filename_input>  (24) 
7PIH_7QW_docked.sdf

>  <pdb_id>  (24) 
7PIH_7QW

>  <pose_rank>  (24) 
23

>  <num_atoms_heavy>  (24) 
24

>  <num_torsions>  (24) 
3

>  <pose>  (24) 
[17.453816475968015, -17.12532313459708, -35.139315471227555, -0.5059737575125746, 2.2052097542611477, 2.9985518873068973, 1.9666083095971765, 0.37939461539655717, -0.9142611685622588]

>  <energy>  (24) 
-153.52169444607796

>  <inter_energy>  (24) 
-151.29954819640005

>  <intra_energy>  (24) 
0.0

>  <rmsd>  (24) 
13.2231

>  <sdf_rank>  (24) 
0

$$$$

     RDKit          3D

 47 50  0  0  0  0  0  0  0  0999 V2000
   23.1404  -31.3772  -17.4258 O   0  0  0  0  0  0  0  0  0  0  0  0
   22.5490  -32.3337  -18.0385 C   0  0  0  0  0  0  0  0  0  0  0  0
   22.2100  -33.4316  -17.3641 N   0  0  0  0  0  0  0  0  0  0  0  0
   21.5850  -34.4201  -18.0453 C   0  0  0  0  0  0  0  0  0  0  0  0
   21.3175  -34.3740  -19.3860 C   0  0  0  0  0  0  0  0  0  0  0  0
   21.6838  -33.2196  -20.1214 C   0  0  0  0  0  0  0  0  0  0  0  0
   22.2955  -32.1402  -19.4291 C   0  0  0  0  0  0  0  0  0  0  0  0
   22.6397  -30.9800  -20.1628 C   0  0  0  0  0  0  0  0  0  0  0  0
   22.4166  -30.9005  -21.5025 C   0  0  0  0  0  0  0  0  0  0  0  0
   21.4796  -33.1040  -21.5170 C   0  0  0  0  0  0  0  0  0  0  0  0
   21.8513  -31.9631  -22.2097 C   0  0  0  0  0  0  0  0  0  0  0  0
   21.6946  -31.8822  -23.6790 C   0  0  0  0  0  0  0  0  0  0  0  0
   21.7570  -33.0308  -24.4698 C   0  0  0  0  0  0  0  0  0  0  0  0
   21.6163  -32.9489  -25.8448 C   0  0  0  0  0  0  0  0  0  0  0  0
   21.3958  -31.7218  -26.4438 C   0  0  0  0  0  0  0  0  0  0  0  0
   21.4833  -30.6589  -24.3053 C   0  0  0  0  0  0  0  0  0  0  0  0
   21.2963  -30.5706  -25.6773 C   0  0  0  0  0  0  0  0  0  0  0  0
   20.7632  -29.2933  -26.2664 C   0  0  0  0  0  0  0  0  0  0  0  0
   19.5371  -28.8668  -25.5734 N   0  0  2  0  0  0  0  0  0  0  0  0
   18.3147  -29.3092  -26.2561 C   0  0  0  0  0  0  0  0  0  0  0  0
   17.2123  -28.4184  -25.7278 C   0  0  0  0  0  0  0  0  0  0  0  0
   19.4046  -27.4094  -25.4661 C   0  0  0  0  0  0  0  0  0  0  0  0
   17.9179  -27.0735  -25.5746 C   0  0  2  0  0  0  0  0  0  0  0  0
   17.4904  -26.4578  -24.3198 N   0  0  0  0  0  0  0  0  0  0  0  0
   23.3963  -30.5573  -17.9180 H   0  0  0  0  0  0  0  0  0  0  0  0
   21.2731  -35.3150  -17.4869 H   0  0  0  0  0  0  0  0  0  0  0  0
   20.8252  -35.2211  -19.8860 H   0  0  0  0  0  0  0  0  0  0  0  0
   23.0962  -30.1265  -19.6401 H   0  0  0  0  0  0  0  0  0  0  0  0
   22.6872  -29.9796  -22.0398 H   0  0  0  0  0  0  0  0  0  0  0  0
   21.0156  -33.9381  -22.0638 H   0  0  0  0  0  0  0  0  0  0  0  0
   21.9194  -34.0102  -23.9962 H   0  0  0  0  0  0  0  0  0  0  0  0
   21.6798  -33.8585  -26.4601 H   0  0  0  0  0  0  0  0  0  0  0  0
   21.2986  -31.6586  -27.5376 H   0  0  0  0  0  0  0  0  0  0  0  0
   21.4641  -29.7408  -23.6996 H   0  0  0  0  0  0  0  0  0  0  0  0
   21.5250  -28.5059  -26.1679 H   0  0  0  0  0  0  0  0  0  0  0  0
   20.5254  -29.4676  -27.3261 H   0  0  0  0  0  0  0  0  0  0  0  0
   19.6336  -29.2999  -24.6439 H   0  0  0  0  0  0  0  0  0  0  0  0
   18.4175  -29.1894  -27.3447 H   0  0  0  0  0  0  0  0  0  0  0  0
   18.1050  -30.3728  -26.0693 H   0  0  0  0  0  0  0  0  0  0  0  0
   16.3790  -28.3508  -26.4427 H   0  0  0  0  0  0  0  0  0  0  0  0
   16.7618  -28.7857  -24.7939 H   0  0  0  0  0  0  0  0  0  0  0  0
   19.7971  -27.0670  -24.4973 H   0  0  0  0  0  0  0  0  0  0  0  0
   19.9737  -26.9092  -26.2636 H   0  0  0  0  0  0  0  0  0  0  0  0
   17.6985  -26.3902  -26.4082 H   0  0  0  0  0  0  0  0  0  0  0  0
   17.8655  -26.9980  -23.5271 H   0  0  0  0  0  0  0  0  0  0  0  0
   17.8431  -25.4912  -24.2741 H   0  0  0  0  0  0  0  0  0  0  0  0
   16.4615  -26.4505  -24.2741 H   0  0  0  0  0  0  0  0  0  0  0  0
  1  2  1  0
  2  3  2  0
  2  7  1  0
  3  4  1  0
  4  5  2  0
  5  6  1  0
  6  7  2  0
  6 10  1  0
  7  8  1  0
  8  9  2  0
  9 11  1  0
 10 11  2  0
 11 12  1  0
 12 13  2  0
 12 16  1  0
 13 14  1  0
 14 15  2  0
 15 17  1  0
 16 17  2  0
 17 18  1  0
 19 18  1  0
 19 20  1  0
 19 22  1  0
 20 21  1  0
 21 23  1  0
 22 23  1  0
 23 24  1  0
  1 25  1  0
  4 26  1  0
  5 27  1  0
  8 28  1  0
  9 29  1  0
 10 30  1  0
 13 31  1  0
 14 32  1  0
 15 33  1  0
 16 34  1  0
 18 35  1  0
 18 36  1  0
 19 37  1  1
 20 38  1  0
 20 39  1  0
 21 40  1  0
 21 41  1  0
 22 42  1  0
 22 43  1  0
 23 44  1  6
 24 45  1  0
 24 46  1  0
 24 47  1  0
M  CHG  2  19   1  24   1
M  END
>  <filename_input>  (25) 
7PIH_7QW_docked.sdf

>  <pdb_id>  (25) 
7PIH_7QW

>  <pose_rank>  (25) 
24

>  <num_atoms_heavy>  (25) 
24

>  <num_torsions>  (25) 
3

>  <pose>  (25) 
[21.694572263786515, -31.882225435605495, -23.679025985569098, -1.6348134260171636, 4.71415740314176, -2.1790936877669758, 2.2185896222308994, 0.6372895536270696, -0.6059760231207726]

>  <energy>  (25) 
355.8084063582208

>  <inter_energy>  (25) 
389.6855917488269

>  <intra_energy>  (25) 
0.0

>  <rmsd>  (25) 
11.7502

>  <sdf_rank>  (25) 
0

$$$$

     RDKit          3D

 47 50  0  0  0  0  0  0  0  0999 V2000
   17.5660  -26.6900  -23.7090 O   0  0  0  0  0  0  0  0  0  0  0  0
   17.0680  -25.5800  -24.1090 C   0  0  0  0  0  0  0  0  0  0  0  0
   17.4530  -24.4440  -23.5290 N   0  0  0  0  0  0  0  0  0  0  0  0
   16.9060  -23.2910  -23.9800 C   0  0  0  0  0  0  0  0  0  0  0  0
   15.9580  -23.2280  -24.9640 C   0  0  0  0  0  0  0  0  0  0  0  0
   15.5270  -24.4280  -25.5820 C   0  0  0  0  0  0  0  0  0  0  0  0
   16.1170  -25.6530  -25.1700 C   0  0  0  0  0  0  0  0  0  0  0  0
   15.7000  -26.8470  -25.8050 C   0  0  0  0  0  0  0  0  0  0  0  0
   14.7410  -26.8350  -26.7700 C   0  0  0  0  0  0  0  0  0  0  0  0
   14.5240  -24.4580  -26.5800 C   0  0  0  0  0  0  0  0  0  0  0  0
   14.1210  -25.6480  -27.1640 C   0  0  0  0  0  0  0  0  0  0  0  0
   13.0240  -25.6730  -28.1570 C   0  0  0  0  0  0  0  0  0  0  0  0
   12.2840  -26.8360  -28.3770 C   0  0  0  0  0  0  0  0  0  0  0  0
   11.2630  -26.8560  -29.3120 C   0  0  0  0  0  0  0  0  0  0  0  0
   10.9590  -25.7110  -30.0260 C   0  0  0  0  0  0  0  0  0  0  0  0
   12.7070  -24.5380  -28.8950 C   0  0  0  0  0  0  0  0  0  0  0  0
   11.6570  -24.5340  -29.8020 C   0  0  0  0  0  0  0  0  0  0  0  0
   11.1520  -23.2220  -30.3370 C   0  0  0  0  0  0  0  0  0  0  0  0
   10.1150  -22.6600  -29.4570 N   0  0  2  0  0  0  0  0  0  0  0  0
    8.9420  -23.5340  -29.3300 C   0  0  0  0  0  0  0  0  0  0  0  0
    7.8270  -22.6430  -28.8290 C   0  0  0  0  0  0  0  0  0  0  0  0
    9.5820  -21.3770  -29.9290 C   0  0  0  0  0  0  0  0  0  0  0  0
    8.1010  -21.3290  -29.5560 C   0  0  2  0  0  0  0  0  0  0  0  0
    7.8950  -20.2230  -28.6230 N   0  0  0  0  0  0  0  0  0  0  0  0
   17.2864  -27.5395  -24.1335 H   0  0  0  0  0  0  0  0  0  0  0  0
   17.2444  -22.3472  -23.5277 H   0  0  0  0  0  0  0  0  0  0  0  0
   15.5363  -22.2596  -25.2712 H   0  0  0  0  0  0  0  0  0  0  0  0
   16.1598  -27.8026  -25.5129 H   0  0  0  0  0  0  0  0  0  0  0  0
   14.4481  -27.7805  -27.2498 H   0  0  0  0  0  0  0  0  0  0  0  0
   14.0541  -23.5160  -26.8990 H   0  0  0  0  0  0  0  0  0  0  0  0
   12.5142  -27.7451  -27.8021 H   0  0  0  0  0  0  0  0  0  0  0  0
   10.6944  -27.7813  -29.4868 H   0  0  0  0  0  0  0  0  0  0  0  0
   10.1566  -25.7343  -30.7780 H   0  0  0  0  0  0  0  0  0  0  0  0
   13.3018  -23.6231  -28.7567 H   0  0  0  0  0  0  0  0  0  0  0  0
   11.9907  -22.5134  -30.4034 H   0  0  0  0  0  0  0  0  0  0  0  0
   10.7139  -23.3933  -31.3314 H   0  0  0  0  0  0  0  0  0  0  0  0
   10.6078  -22.5493  -28.5594 H   0  0  0  0  0  0  0  0  0  0  0  0
    8.6784  -23.9680  -30.3058 H   0  0  0  0  0  0  0  0  0  0  0  0
    9.1313  -24.3746  -28.6462 H   0  0  0  0  0  0  0  0  0  0  0  0
    6.8414  -23.0492  -29.1003 H   0  0  0  0  0  0  0  0  0  0  0  0
    7.8056  -22.5417  -27.7339 H   0  0  0  0  0  0  0  0  0  0  0  0
   10.1180  -20.5470  -29.4454 H   0  0  0  0  0  0  0  0  0  0  0  0
    9.7104  -21.2812  -31.0173 H   0  0  0  0  0  0  0  0  0  0  0  0
    7.4487  -21.1928  -30.4312 H   0  0  0  0  0  0  0  0  0  0  0  0
    7.9601  -20.5726  -27.6563 H   0  0  0  0  0  0  0  0  0  0  0  0
    8.6166  -19.5045  -28.7776 H   0  0  0  0  0  0  0  0  0  0  0  0
    6.9631  -19.8125  -28.7776 H   0  0  0  0  0  0  0  0  0  0  0  0
  1  2  1  0
  2  3  2  0
  2  7  1  0
  3  4  1  0
  4  5  2  0
  5  6  1  0
  6  7  2  0
  6 10  1  0
  7  8  1  0
  8  9  2  0
  9 11  1  0
 10 11  2  0
 11 12  1  0
 12 13  2  0
 12 16  1  0
 13 14  1  0
 14 15  2  0
 15 17  1  0
 16 17  2  0
 17 18  1  0
 19 18  1  0
 19 20  1  0
 19 22  1  0
 20 21  1  0
 21 23  1  0
 22 23  1  0
 23 24  1  0
  1 25  1  0
  4 26  1  0
  5 27  1  0
  8 28  1  0
  9 29  1  0
 10 30  1  0
 13 31  1  0
 14 32  1  0
 15 33  1  0
 16 34  1  0
 18 35  1  0
 18 36  1  0
 19 37  1  1
 20 38  1  0
 20 39  1  0
 21 40  1  0
 21 41  1  0
 22 42  1  0
 22 43  1  0
 23 44  1  6
 24 45  1  0
 24 46  1  0
 24 47  1  0
M  CHG  2  19   1  24   1
M  END
>  <filename_input>  (26) 
7PIH_7QW_docked.sdf

>  <pdb_id>  (26) 
7PIH_7QW

>  <pose_rank>  (26) 
25

>  <num_atoms_heavy>  (26) 
24

>  <num_torsions>  (26) 
3

>  <pose>  (26) 
[13.024, -25.673, -28.157, 1e-06, 1e-06, 1e-06, 0.0, 0.0, 0.0]

>  <energy>  (26) 
-1437.0745463893682

>  <inter_energy>  (26) 
-1443.288293565401

>  <intra_energy>  (26) 
16.95231832689255

>  <rmsd>  (26) 
0.0

>  <sdf_rank>  (26) 
0

$$$$
