
     RDKit          3D

 18 18  0  0  0  0  0  0  0  0999 V2000
   11.1701   22.0351   -7.2192 C   0  0  0  0  0  0  0  0  0  0  0  0
   10.4913   24.1476   -6.0715 C   0  0  0  0  0  0  0  0  0  0  0  0
   11.1177   25.5071   -6.2635 C   0  0  0  0  0  0  0  0  0  0  0  0
   12.4331   25.7124   -5.8855 C   0  0  0  0  0  0  0  0  0  0  0  0
   12.3359   27.8963   -6.5603 C   0  0  0  0  0  0  0  0  0  0  0  0
   11.0160   27.7636   -6.9610 C   0  0  0  0  0  0  0  0  0  0  0  0
   10.3914   26.5402   -6.8137 C   0  0  0  0  0  0  0  0  0  0  0  0
   11.4085   23.0572   -6.2272 N   0  0  0  0  0  0  0  0  0  0  0  0
   13.0184   26.8908   -6.0365 N   0  0  0  0  0  0  0  0  0  0  0  0
    8.9322   23.9519   -5.7251 S   0  0  0  0  0  0  0  0  0  0  0  0
   10.9478   21.0818   -6.7173 H   0  0  0  0  0  0  0  0  0  0  0  0
   10.3158   22.3264   -7.8479 H   0  0  0  0  0  0  0  0  0  0  0  0
   12.0652   21.9185   -7.8479 H   0  0  0  0  0  0  0  0  0  0  0  0
   13.0046   24.8792   -5.4504 H   0  0  0  0  0  0  0  0  0  0  0  0
   12.8329   28.8701   -6.6818 H   0  0  0  0  0  0  0  0  0  0  0  0
   10.4738   28.6193   -7.3897 H   0  0  0  0  0  0  0  0  0  0  0  0
    9.3466   26.3956   -7.1260 H   0  0  0  0  0  0  0  0  0  0  0  0
   12.2438   23.0022   -5.6271 H   0  0  0  0  0  0  0  0  0  0  0  0
  1  8  1  0
  2  3  1  0
  2  8  1  0
  2 10  2  0
  3  4  2  0
  3  7  1  0
  4  9  1  0
  5  6  1  0
  5  9  2  0
  6  7  2  0
  1 11  1  0
  1 12  1  0
  1 13  1  0
  4 14  1  0
  5 15  1  0
  6 16  1  0
  7 17  1  0
  8 18  1  0
M  END
>  <filename_input>  (1) 
7PJQ_OWH_docked.sdf

>  <pdb_id>  (1) 
7PJQ_OWH

>  <pose_rank>  (1) 
0

>  <num_atoms_heavy>  (1) 
10

>  <num_torsions>  (1) 
2

>  <pose>  (1) 
[11.11768495098869, 25.507144650516224, -6.2634965458438066, 2.57230182953773, 5.2722449159357465, 1.318374793180683, -6.362872746405951, 1.061948151359742]

>  <energy>  (1) 
-526.7420732784118

>  <inter_energy>  (1) 
-503.5281542599983

>  <intra_energy>  (1) 
0.0

>  <rmsd>  (1) 
0.685331

>  <sdf_rank>  (1) 
0

$$$$

     RDKit          3D

 18 18  0  0  0  0  0  0  0  0999 V2000
   10.5669   28.5764   -7.3787 C   0  0  0  0  0  0  0  0  0  0  0  0
   11.2669   26.2957   -6.6380 C   0  0  0  0  0  0  0  0  0  0  0  0
   10.6491   24.9992   -6.1741 C   0  0  0  0  0  0  0  0  0  0  0  0
   11.4659   23.9743   -5.7295 C   0  0  0  0  0  0  0  0  0  0  0  0
    9.6517   22.6407   -5.3240 C   0  0  0  0  0  0  0  0  0  0  0  0
    8.7738   23.6222   -5.7557 C   0  0  0  0  0  0  0  0  0  0  0  0
    9.2819   24.8320   -6.1876 C   0  0  0  0  0  0  0  0  0  0  0  0
   10.3636   27.1469   -7.3548 N   0  0  0  0  0  0  0  0  0  0  0  0
   10.9626   22.8214   -5.3154 N   0  0  0  0  0  0  0  0  0  0  0  0
   12.8033   26.6766   -6.3494 S   0  0  0  0  0  0  0  0  0  0  0  0
   10.6209   28.9563   -6.3478 H   0  0  0  0  0  0  0  0  0  0  0  0
   11.5065   28.8045   -7.9032 H   0  0  0  0  0  0  0  0  0  0  0  0
    9.7281   29.0574   -7.9032 H   0  0  0  0  0  0  0  0  0  0  0  0
   12.5562   24.1203   -5.7198 H   0  0  0  0  0  0  0  0  0  0  0  0
    9.2453   21.6793   -4.9768 H   0  0  0  0  0  0  0  0  0  0  0  0
    7.6889   23.4407   -5.7545 H   0  0  0  0  0  0  0  0  0  0  0  0
    8.6154   25.6366   -6.5317 H   0  0  0  0  0  0  0  0  0  0  0  0
    9.5635   26.7359   -7.8567 H   0  0  0  0  0  0  0  0  0  0  0  0
  1  8  1  0
  2  3  1  0
  2  8  1  0
  2 10  2  0
  3  4  2  0
  3  7  1  0
  4  9  1  0
  5  6  1  0
  5  9  2  0
  6  7  2  0
  1 11  1  0
  1 12  1  0
  1 13  1  0
  4 14  1  0
  5 15  1  0
  6 16  1  0
  7 17  1  0
  8 18  1  0
M  END
>  <filename_input>  (2) 
7PJQ_OWH_docked.sdf

>  <pdb_id>  (2) 
7PJQ_OWH

>  <pose_rank>  (2) 
1

>  <num_atoms_heavy>  (2) 
10

>  <num_torsions>  (2) 
2

>  <pose>  (2) 
[10.6491305082531, 24.99923818368709, -6.174120302488362, 2.704859141834487, -1.0068842495174364, 0.47221472839843315, 15.965950267386303, -6.696186953235774]

>  <energy>  (2) 
-497.09113356716495

>  <inter_energy>  (2) 
-469.9095493400408

>  <intra_energy>  (2) 
0.0

>  <rmsd>  (2) 
4.35276

>  <sdf_rank>  (2) 
0

$$$$

     RDKit          3D

 18 18  0  0  0  0  0  0  0  0999 V2000
   10.9664   26.3943   -2.8310 C   0  0  0  0  0  0  0  0  0  0  0  0
   10.3831   25.7189   -5.1642 C   0  0  0  0  0  0  0  0  0  0  0  0
   11.1043   26.9886   -5.5453 C   0  0  0  0  0  0  0  0  0  0  0  0
   12.4548   26.9432   -5.8448 C   0  0  0  0  0  0  0  0  0  0  0  0
   12.4919   29.1969   -6.2371 C   0  0  0  0  0  0  0  0  0  0  0  0
   11.1415   29.3173   -5.9502 C   0  0  0  0  0  0  0  0  0  0  0  0
   10.4281   28.1875   -5.5997 C   0  0  0  0  0  0  0  0  0  0  0  0
   10.3390   25.4761   -3.7523 N   0  0  0  0  0  0  0  0  0  0  0  0
   13.1236   28.0353   -6.1825 N   0  0  0  0  0  0  0  0  0  0  0  0
    9.7277   24.7331   -6.2540 S   0  0  0  0  0  0  0  0  0  0  0  0
   10.7524   26.0812   -1.7985 H   0  0  0  0  0  0  0  0  0  0  0  0
   12.0539   26.3940   -2.9964 H   0  0  0  0  0  0  0  0  0  0  0  0
   10.5707   27.4073   -2.9964 H   0  0  0  0  0  0  0  0  0  0  0  0
   12.9837   25.9797   -5.8015 H   0  0  0  0  0  0  0  0  0  0  0  0
   13.0577   30.0969   -6.5198 H   0  0  0  0  0  0  0  0  0  0  0  0
   10.6452   30.2977   -6.0009 H   0  0  0  0  0  0  0  0  0  0  0  0
    9.3536   28.2434   -5.3711 H   0  0  0  0  0  0  0  0  0  0  0  0
    9.8564   24.6406   -3.3922 H   0  0  0  0  0  0  0  0  0  0  0  0
  1  8  1  0
  2  3  1  0
  2  8  1  0
  2 10  2  0
  3  4  2  0
  3  7  1  0
  4  9  1  0
  5  6  1  0
  5  9  2  0
  6  7  2  0
  1 11  1  0
  1 12  1  0
  1 13  1  0
  4 14  1  0
  5 15  1  0
  6 16  1  0
  7 17  1  0
  8 18  1  0
M  END
>  <filename_input>  (3) 
7PJQ_OWH_docked.sdf

>  <pdb_id>  (3) 
7PJQ_OWH

>  <pose_rank>  (3) 
2

>  <num_atoms_heavy>  (3) 
10

>  <num_torsions>  (3) 
2

>  <pose>  (3) 
[11.104326379306249, 26.98861123959548, -5.545332287245207, -0.0321623757424999, 0.2792097360035863, -0.21922661346968902, -29.300295358390628, -3.113828971319801]

>  <energy>  (3) 
-324.0553673482396

>  <inter_energy>  (3) 
-343.14267028632844

>  <intra_energy>  (3) 
10.947919840922404

>  <rmsd>  (3) 
2.25457

>  <sdf_rank>  (3) 
0

$$$$

     RDKit          3D

 18 18  0  0  0  0  0  0  0  0999 V2000
   11.1162   28.8815   -6.5712 C   0  0  0  0  0  0  0  0  0  0  0  0
   10.6595   26.7930   -5.2790 C   0  0  0  0  0  0  0  0  0  0  0  0
   10.5448   25.3179   -5.5765 C   0  0  0  0  0  0  0  0  0  0  0  0
   10.4296   24.8929   -6.8886 C   0  0  0  0  0  0  0  0  0  0  0  0
   10.3327   22.7065   -6.2217 C   0  0  0  0  0  0  0  0  0  0  0  0
   10.4446   23.0592   -4.8862 C   0  0  0  0  0  0  0  0  0  0  0  0
   10.5573   24.3953   -4.5537 C   0  0  0  0  0  0  0  0  0  0  0  0
   11.4495   27.5186   -6.2296 N   0  0  0  0  0  0  0  0  0  0  0  0
   10.3257   23.6077   -7.1908 N   0  0  0  0  0  0  0  0  0  0  0  0
    9.9550   27.4783   -4.0050 S   0  0  0  0  0  0  0  0  0  0  0  0
   10.9732   29.4659   -5.6503 H   0  0  0  0  0  0  0  0  0  0  0  0
   11.9331   29.3218   -7.1618 H   0  0  0  0  0  0  0  0  0  0  0  0
   10.1882   28.8950   -7.1618 H   0  0  0  0  0  0  0  0  0  0  0  0
   10.4242   25.6384   -7.6975 H   0  0  0  0  0  0  0  0  0  0  0  0
   10.2468   21.6420   -6.4850 H   0  0  0  0  0  0  0  0  0  0  0  0
   10.4436   22.2870   -4.1028 H   0  0  0  0  0  0  0  0  0  0  0  0
   10.6541   24.7125   -3.5049 H   0  0  0  0  0  0  0  0  0  0  0  0
   12.2611   27.0645   -6.6724 H   0  0  0  0  0  0  0  0  0  0  0  0
  1  8  1  0
  2  3  1  0
  2  8  1  0
  2 10  2  0
  3  4  2  0
  3  7  1  0
  4  9  1  0
  5  6  1  0
  5  9  2  0
  6  7  2  0
  1 11  1  0
  1 12  1  0
  1 13  1  0
  4 14  1  0
  5 15  1  0
  6 16  1  0
  7 17  1  0
  8 18  1  0
M  END
>  <filename_input>  (4) 
7PJQ_OWH_docked.sdf

>  <pdb_id>  (4) 
7PJQ_OWH

>  <pose_rank>  (4) 
3

>  <num_atoms_heavy>  (4) 
10

>  <num_torsions>  (4) 
2

>  <pose>  (4) 
[10.544811471763849, 25.317894718106306, -5.576532333272959, -2.207192485504032, 0.37205932321400675, 2.1424777587656383, -6.445885498536463, -0.5517914061896408]

>  <energy>  (4) 
-372.28842935829863

>  <inter_energy>  (4) 
-369.9213096465255

>  <intra_energy>  (4) 
0.0

>  <rmsd>  (4) 
4.33084

>  <sdf_rank>  (4) 
0

$$$$

     RDKit          3D

 18 18  0  0  0  0  0  0  0  0999 V2000
   11.4293   22.5672   -7.2535 C   0  0  0  0  0  0  0  0  0  0  0  0
    9.9780   23.9409   -5.7545 C   0  0  0  0  0  0  0  0  0  0  0  0
   10.4647   25.3368   -5.4505 C   0  0  0  0  0  0  0  0  0  0  0  0
   11.7215   25.7296   -5.8764 C   0  0  0  0  0  0  0  0  0  0  0  0
   11.4346   27.8066   -4.9610 C   0  0  0  0  0  0  0  0  0  0  0  0
   10.1671   27.4825   -4.5041 C   0  0  0  0  0  0  0  0  0  0  0  0
    9.6668   26.2199   -4.7570 C   0  0  0  0  0  0  0  0  0  0  0  0
   11.0299   22.9833   -5.9295 N   0  0  0  0  0  0  0  0  0  0  0  0
   12.1852   26.9451   -5.6286 N   0  0  0  0  0  0  0  0  0  0  0  0
    8.4159   23.5730   -5.8708 S   0  0  0  0  0  0  0  0  0  0  0  0
   12.1891   21.7757   -7.1755 H   0  0  0  0  0  0  0  0  0  0  0  0
   10.5535   22.1826   -7.7968 H   0  0  0  0  0  0  0  0  0  0  0  0
   11.8494   23.4265   -7.7968 H   0  0  0  0  0  0  0  0  0  0  0  0
   12.3486   25.0171   -6.4324 H   0  0  0  0  0  0  0  0  0  0  0  0
   11.8300   28.8136   -4.7621 H   0  0  0  0  0  0  0  0  0  0  0  0
    9.5684   28.2194   -3.9486 H   0  0  0  0  0  0  0  0  0  0  0  0
    8.6625   25.9289   -4.4153 H   0  0  0  0  0  0  0  0  0  0  0  0
   11.5046   22.5889   -5.1049 H   0  0  0  0  0  0  0  0  0  0  0  0
  1  8  1  0
  2  3  1  0
  2  8  1  0
  2 10  2  0
  3  4  2  0
  3  7  1  0
  4  9  1  0
  5  6  1  0
  5  9  2  0
  6  7  2  0
  1 11  1  0
  1 12  1  0
  1 13  1  0
  4 14  1  0
  5 15  1  0
  6 16  1  0
  7 17  1  0
  8 18  1  0
M  END
>  <filename_input>  (5) 
7PJQ_OWH_docked.sdf

>  <pdb_id>  (5) 
7PJQ_OWH

>  <pose_rank>  (5) 
4

>  <num_atoms_heavy>  (5) 
10

>  <num_torsions>  (5) 
2

>  <pose>  (5) 
[10.464651091838604, 25.336791522394787, -5.450542388552584, 0.49517959529090266, 0.49863850514452823, 0.0344424982780705, -5.332280971787304, 7.69748112150475]

>  <energy>  (5) 
-436.085026815119

>  <inter_energy>  (5) 
-431.23414681749495

>  <intra_energy>  (5) 
3.4368628321546737

>  <rmsd>  (5) 
1.43213

>  <sdf_rank>  (5) 
0

$$$$

     RDKit          3D

 18 18  0  0  0  0  0  0  0  0999 V2000
   10.0393   29.0264   -3.5172 C   0  0  0  0  0  0  0  0  0  0  0  0
   10.1120   27.5215   -5.5098 C   0  0  0  0  0  0  0  0  0  0  0  0
   10.0180   26.0456   -5.8109 C   0  0  0  0  0  0  0  0  0  0  0  0
   10.4062   25.5763   -7.0537 C   0  0  0  0  0  0  0  0  0  0  0  0
    9.8907   23.4288   -6.4562 C   0  0  0  0  0  0  0  0  0  0  0  0
    9.4848   23.8272   -5.1925 C   0  0  0  0  0  0  0  0  0  0  0  0
    9.5528   25.1659   -4.8584 C   0  0  0  0  0  0  0  0  0  0  0  0
    9.5249   27.8983   -4.2577 N   0  0  0  0  0  0  0  0  0  0  0  0
   10.3379   24.2889   -7.3570 N   0  0  0  0  0  0  0  0  0  0  0  0
   10.8094   28.5687   -6.5127 S   0  0  0  0  0  0  0  0  0  0  0  0
    9.9493   28.8290   -2.4388 H   0  0  0  0  0  0  0  0  0  0  0  0
   11.0974   29.1821   -3.7744 H   0  0  0  0  0  0  0  0  0  0  0  0
    9.4631   29.9274   -3.7744 H   0  0  0  0  0  0  0  0  0  0  0  0
   10.7794   26.2875   -7.8053 H   0  0  0  0  0  0  0  0  0  0  0  0
    9.8394   22.3620   -6.7193 H   0  0  0  0  0  0  0  0  0  0  0  0
    9.1141   23.0887   -4.4664 H   0  0  0  0  0  0  0  0  0  0  0  0
    9.2452   25.5184   -3.8629 H   0  0  0  0  0  0  0  0  0  0  0  0
    8.7303   27.3605   -3.8833 H   0  0  0  0  0  0  0  0  0  0  0  0
  1  8  1  0
  2  3  1  0
  2  8  1  0
  2 10  2  0
  3  4  2  0
  3  7  1  0
  4  9  1  0
  5  6  1  0
  5  9  2  0
  6  7  2  0
  1 11  1  0
  1 12  1  0
  1 13  1  0
  4 14  1  0
  5 15  1  0
  6 16  1  0
  7 17  1  0
  8 18  1  0
M  END
>  <filename_input>  (6) 
7PJQ_OWH_docked.sdf

>  <pdb_id>  (6) 
7PJQ_OWH

>  <pose_rank>  (6) 
5

>  <num_atoms_heavy>  (6) 
10

>  <num_torsions>  (6) 
2

>  <pose>  (6) 
[10.018018618727757, 26.04564558142993, -5.810917479892286, -2.5251538720709275, 0.4446053066386011, 1.5977490450740413, -9.057194838121099, -0.47971172137377627]

>  <energy>  (6) 
-365.44527957595017

>  <inter_energy>  (6) 
-351.9965824707302

>  <intra_energy>  (6) 
0.0

>  <rmsd>  (6) 
4.46257

>  <sdf_rank>  (6) 
0

$$$$

     RDKit          3D

 18 18  0  0  0  0  0  0  0  0999 V2000
   10.9093   26.7317   -3.6183 C   0  0  0  0  0  0  0  0  0  0  0  0
   10.6239   25.8224   -5.9275 C   0  0  0  0  0  0  0  0  0  0  0  0
   10.2194   24.3716   -5.8304 C   0  0  0  0  0  0  0  0  0  0  0  0
    8.8778   24.0405   -5.7539 C   0  0  0  0  0  0  0  0  0  0  0  0
    9.3850   21.8118   -5.6526 C   0  0  0  0  0  0  0  0  0  0  0  0
   10.7448   22.0692   -5.7255 C   0  0  0  0  0  0  0  0  0  0  0  0
   11.1742   23.3787   -5.8207 C   0  0  0  0  0  0  0  0  0  0  0  0
   11.4750   26.2617   -4.8612 N   0  0  0  0  0  0  0  0  0  0  0  0
    8.4824   22.7795   -5.6665 N   0  0  0  0  0  0  0  0  0  0  0  0
   10.1359   26.7807   -7.1243 S   0  0  0  0  0  0  0  0  0  0  0  0
   11.4522   26.2806   -2.7746 H   0  0  0  0  0  0  0  0  0  0  0  0
   10.9965   27.8270   -3.5669 H   0  0  0  0  0  0  0  0  0  0  0  0
    9.8485   26.4455   -3.5669 H   0  0  0  0  0  0  0  0  0  0  0  0
    8.1240   24.8415   -5.7660 H   0  0  0  0  0  0  0  0  0  0  0  0
    9.0446   20.7683   -5.5806 H   0  0  0  0  0  0  0  0  0  0  0  0
   11.4711   21.2433   -5.7080 H   0  0  0  0  0  0  0  0  0  0  0  0
   12.2451   23.6210   -5.8866 H   0  0  0  0  0  0  0  0  0  0  0  0
   12.4976   26.2420   -4.9822 H   0  0  0  0  0  0  0  0  0  0  0  0
  1  8  1  0
  2  3  1  0
  2  8  1  0
  2 10  2  0
  3  4  2  0
  3  7  1  0
  4  9  1  0
  5  6  1  0
  5  9  2  0
  6  7  2  0
  1 11  1  0
  1 12  1  0
  1 13  1  0
  4 14  1  0
  5 15  1  0
  6 16  1  0
  7 17  1  0
  8 18  1  0
M  END
>  <filename_input>  (7) 
7PJQ_OWH_docked.sdf

>  <pdb_id>  (7) 
7PJQ_OWH

>  <pose_rank>  (7) 
6

>  <num_atoms_heavy>  (7) 
10

>  <num_torsions>  (7) 
2

>  <pose>  (7) 
[10.219413014839255, 24.37164407466043, -5.830358637164656, -0.08055626035375626, 0.31738241421057245, 3.1906576586877287, -3.676145027725494, 7.964773030581591]

>  <energy>  (7) 
-362.0509466785572

>  <inter_energy>  (7) 
-355.3048001305774

>  <intra_energy>  (7) 
0.0

>  <rmsd>  (7) 
4.70422

>  <sdf_rank>  (7) 
0

$$$$

     RDKit          3D

 18 18  0  0  0  0  0  0  0  0999 V2000
   12.6388   28.2224   -6.1458 C   0  0  0  0  0  0  0  0  0  0  0  0
   11.6292   26.1643   -5.1532 C   0  0  0  0  0  0  0  0  0  0  0  0
   10.8456   24.9164   -5.4796 C   0  0  0  0  0  0  0  0  0  0  0  0
    9.6755   25.0169   -6.2117 C   0  0  0  0  0  0  0  0  0  0  0  0
    9.3665   22.7519   -6.1180 C   0  0  0  0  0  0  0  0  0  0  0  0
   10.5274   22.5760   -5.3818 C   0  0  0  0  0  0  0  0  0  0  0  0
   11.2884   23.6823   -5.0572 C   0  0  0  0  0  0  0  0  0  0  0  0
   11.8102   27.0460   -6.2686 N   0  0  0  0  0  0  0  0  0  0  0  0
    8.9590   23.9459   -6.5176 N   0  0  0  0  0  0  0  0  0  0  0  0
   12.2063   26.4662   -3.6818 S   0  0  0  0  0  0  0  0  0  0  0  0
   12.7984   28.4490   -5.0813 H   0  0  0  0  0  0  0  0  0  0  0  0
   13.6088   28.0399   -6.6313 H   0  0  0  0  0  0  0  0  0  0  0  0
   12.1403   29.0743   -6.6313 H   0  0  0  0  0  0  0  0  0  0  0  0
    9.3333   26.0072   -6.5467 H   0  0  0  0  0  0  0  0  0  0  0  0
    8.7637   21.8696   -6.3789 H   0  0  0  0  0  0  0  0  0  0  0  0
   10.8381   21.5708   -5.0609 H   0  0  0  0  0  0  0  0  0  0  0  0
   12.2190   23.5808   -4.4795 H   0  0  0  0  0  0  0  0  0  0  0  0
   11.3458   26.8391   -7.1644 H   0  0  0  0  0  0  0  0  0  0  0  0
  1  8  1  0
  2  3  1  0
  2  8  1  0
  2 10  2  0
  3  4  2  0
  3  7  1  0
  4  9  1  0
  5  6  1  0
  5  9  2  0
  6  7  2  0
  1 11  1  0
  1 12  1  0
  1 13  1  0
  4 14  1  0
  5 15  1  0
  6 16  1  0
  7 17  1  0
  8 18  1  0
M  END
>  <filename_input>  (8) 
7PJQ_OWH_docked.sdf

>  <pdb_id>  (8) 
7PJQ_OWH

>  <pose_rank>  (8) 
7

>  <num_atoms_heavy>  (8) 
10

>  <num_torsions>  (8) 
2

>  <pose>  (8) 
[10.84564259447155, 24.91643945269114, -5.479553487805783, -0.8822045083987227, 0.26362981055505535, 2.674184118332326, -6.592208359907644, 0.1393387493018405]

>  <energy>  (8) 
-402.6312204351864

>  <inter_energy>  (8) 
-402.4569918885659

>  <intra_energy>  (8) 
0.0

>  <rmsd>  (8) 
4.4971

>  <sdf_rank>  (8) 
0

$$$$

     RDKit          3D

 18 18  0  0  0  0  0  0  0  0999 V2000
   11.3902   23.8658   -5.8797 C   0  0  0  0  0  0  0  0  0  0  0  0
   10.2995   26.1129   -5.8402 C   0  0  0  0  0  0  0  0  0  0  0  0
   10.8776   27.5011   -5.9671 C   0  0  0  0  0  0  0  0  0  0  0  0
   12.2480   27.6797   -5.8917 C   0  0  0  0  0  0  0  0  0  0  0  0
   12.0173   29.9376   -6.1797 C   0  0  0  0  0  0  0  0  0  0  0  0
   10.6380   29.8341   -6.2646 C   0  0  0  0  0  0  0  0  0  0  0  0
   10.0525   28.5872   -6.1600 C   0  0  0  0  0  0  0  0  0  0  0  0
   11.0463   25.1059   -6.5350 N   0  0  0  0  0  0  0  0  0  0  0  0
   12.7939   28.8817   -5.9973 N   0  0  0  0  0  0  0  0  0  0  0  0
    8.9632   25.8033   -4.9991 S   0  0  0  0  0  0  0  0  0  0  0  0
   11.3517   24.0044   -4.7891 H   0  0  0  0  0  0  0  0  0  0  0  0
   10.6749   23.0842   -6.1754 H   0  0  0  0  0  0  0  0  0  0  0  0
   12.4059   23.5642   -6.1754 H   0  0  0  0  0  0  0  0  0  0  0  0
   12.8974   26.8047   -5.7410 H   0  0  0  0  0  0  0  0  0  0  0  0
   12.4822   30.9307   -6.2670 H   0  0  0  0  0  0  0  0  0  0  0  0
   10.0188   30.7310   -6.4129 H   0  0  0  0  0  0  0  0  0  0  0  0
    8.9614   28.4654   -6.2286 H   0  0  0  0  0  0  0  0  0  0  0  0
   11.3398   25.2680   -7.5088 H   0  0  0  0  0  0  0  0  0  0  0  0
  1  8  1  0
  2  3  1  0
  2  8  1  0
  2 10  2  0
  3  4  2  0
  3  7  1  0
  4  9  1  0
  5  6  1  0
  5  9  2  0
  6  7  2  0
  1 11  1  0
  1 12  1  0
  1 13  1  0
  4 14  1  0
  5 15  1  0
  6 16  1  0
  7 17  1  0
  8 18  1  0
M  END
>  <filename_input>  (9) 
7PJQ_OWH_docked.sdf

>  <pdb_id>  (9) 
7PJQ_OWH

>  <pose_rank>  (9) 
8

>  <num_atoms_heavy>  (9) 
10

>  <num_torsions>  (9) 
2

>  <pose>  (9) 
[10.877635622993195, 27.50114257152174, -5.967090842147144, -3.021580967956666, -1.2167950434353323, 5.295340206243555, -6.502426544668989, -0.7881506473891229]

>  <energy>  (9) 
-322.1284887007498

>  <inter_energy>  (9) 
-315.96917159727957

>  <intra_energy>  (9) 
0.0

>  <rmsd>  (9) 
1.49205

>  <sdf_rank>  (9) 
0

$$$$

     RDKit          3D

 18 18  0  0  0  0  0  0  0  0999 V2000
    8.5568   22.7973   -5.7030 C   0  0  0  0  0  0  0  0  0  0  0  0
   10.6186   24.1415   -6.1301 C   0  0  0  0  0  0  0  0  0  0  0  0
   11.0648   25.5636   -6.3675 C   0  0  0  0  0  0  0  0  0  0  0  0
   12.4131   25.8725   -6.3236 C   0  0  0  0  0  0  0  0  0  0  0  0
   11.9724   28.0716   -6.7757 C   0  0  0  0  0  0  0  0  0  0  0  0
   10.6081   27.8355   -6.8345 C   0  0  0  0  0  0  0  0  0  0  0  0
   10.1414   26.5515   -6.6298 C   0  0  0  0  0  0  0  0  0  0  0  0
    9.2997   24.0296   -5.5803 N   0  0  0  0  0  0  0  0  0  0  0  0
   12.8446   27.1083   -6.5254 N   0  0  0  0  0  0  0  0  0  0  0  0
   11.5494   22.8728   -6.4662 S   0  0  0  0  0  0  0  0  0  0  0  0
    8.3227   22.4090   -4.7008 H   0  0  0  0  0  0  0  0  0  0  0  0
    7.6217   22.9859   -6.2508 H   0  0  0  0  0  0  0  0  0  0  0  0
    9.1601   22.0585   -6.2508 H   0  0  0  0  0  0  0  0  0  0  0  0
   13.1418   25.0749   -6.1167 H   0  0  0  0  0  0  0  0  0  0  0  0
   12.3427   29.0938   -6.9427 H   0  0  0  0  0  0  0  0  0  0  0  0
    9.9075   28.6580   -7.0410 H   0  0  0  0  0  0  0  0  0  0  0  0
    9.0659   26.3251   -6.6748 H   0  0  0  0  0  0  0  0  0  0  0  0
    8.8786   24.8341   -5.0942 H   0  0  0  0  0  0  0  0  0  0  0  0
  1  8  1  0
  2  3  1  0
  2  8  1  0
  2 10  2  0
  3  4  2  0
  3  7  1  0
  4  9  1  0
  5  6  1  0
  5  9  2  0
  6  7  2  0
  1 11  1  0
  1 12  1  0
  1 13  1  0
  4 14  1  0
  5 15  1  0
  6 16  1  0
  7 17  1  0
  8 18  1  0
M  END
>  <filename_input>  (10) 
7PJQ_OWH_docked.sdf

>  <pdb_id>  (10) 
7PJQ_OWH

>  <pose_rank>  (10) 
9

>  <num_atoms_heavy>  (10) 
10

>  <num_torsions>  (10) 
2

>  <pose>  (10) 
[11.064781607523196, 25.5635604517052, -6.3674566521456315, -4.584991591355326, 2.303063360507415, 3.7303883442702617, -9.416578447235619, -0.31802512601730687]

>  <energy>  (10) 
-424.8514773107785

>  <inter_energy>  (10) 
-431.70496358290245

>  <intra_energy>  (10) 
0.0

>  <rmsd>  (10) 
1.56176

>  <sdf_rank>  (10) 
0

$$$$

     RDKit          3D

 18 18  0  0  0  0  0  0  0  0999 V2000
    8.4859   31.4807   -3.0844 C   0  0  0  0  0  0  0  0  0  0  0  0
    9.3742   30.3724   -5.1394 C   0  0  0  0  0  0  0  0  0  0  0  0
   10.2122   29.1192   -5.2088 C   0  0  0  0  0  0  0  0  0  0  0  0
   10.4375   28.5155   -6.4336 C   0  0  0  0  0  0  0  0  0  0  0  0
   11.6932   26.8765   -5.4480 C   0  0  0  0  0  0  0  0  0  0  0  0
   11.5093   27.4261   -4.1892 C   0  0  0  0  0  0  0  0  0  0  0  0
   10.7547   28.5766   -4.0648 C   0  0  0  0  0  0  0  0  0  0  0  0
    8.4556   30.3979   -4.0394 N   0  0  0  0  0  0  0  0  0  0  0  0
   11.1663   27.4144   -6.5362 N   0  0  0  0  0  0  0  0  0  0  0  0
    9.5075   31.5655   -6.2107 S   0  0  0  0  0  0  0  0  0  0  0  0
    8.4744   31.0700   -2.0640 H   0  0  0  0  0  0  0  0  0  0  0  0
    9.4009   32.0733   -3.2308 H   0  0  0  0  0  0  0  0  0  0  0  0
    7.6054   32.1235   -3.2308 H   0  0  0  0  0  0  0  0  0  0  0  0
   10.0022   28.9595   -7.3410 H   0  0  0  0  0  0  0  0  0  0  0  0
   12.2974   25.9625   -5.5458 H   0  0  0  0  0  0  0  0  0  0  0  0
   11.9572   26.9536   -3.3027 H   0  0  0  0  0  0  0  0  0  0  0  0
   10.5922   29.0448   -3.0828 H   0  0  0  0  0  0  0  0  0  0  0  0
    7.7688   29.6382   -3.9293 H   0  0  0  0  0  0  0  0  0  0  0  0
  1  8  1  0
  2  3  1  0
  2  8  1  0
  2 10  2  0
  3  4  2  0
  3  7  1  0
  4  9  1  0
  5  6  1  0
  5  9  2  0
  6  7  2  0
  1 11  1  0
  1 12  1  0
  1 13  1  0
  4 14  1  0
  5 15  1  0
  6 16  1  0
  7 17  1  0
  8 18  1  0
M  END
>  <filename_input>  (11) 
7PJQ_OWH_docked.sdf

>  <pdb_id>  (11) 
7PJQ_OWH

>  <pose_rank>  (11) 
10

>  <num_atoms_heavy>  (11) 
10

>  <num_torsions>  (11) 
2

>  <pose>  (11) 
[10.212192907373424, 29.119209963688807, -5.208801128779249, -2.6953422895196546, -0.2512569146290856, 2.492164549282555, -9.659470449991096, -0.942073534005763]

>  <energy>  (11) 
-235.86577496390595

>  <inter_energy>  (11) 
-233.5058671687605

>  <intra_energy>  (11) 
0.0

>  <rmsd>  (11) 
5.42169

>  <sdf_rank>  (11) 
0

$$$$

     RDKit          3D

 18 18  0  0  0  0  0  0  0  0999 V2000
    5.0230   18.1224  -11.7767 C   0  0  0  0  0  0  0  0  0  0  0  0
    6.1494   20.3222  -12.1410 C   0  0  0  0  0  0  0  0  0  0  0  0
    7.4805   20.5274  -12.8219 C   0  0  0  0  0  0  0  0  0  0  0  0
    7.7258   19.9174  -14.0397 C   0  0  0  0  0  0  0  0  0  0  0  0
    9.8242   20.8250  -14.1254 C   0  0  0  0  0  0  0  0  0  0  0  0
    9.6486   21.4656  -12.9092 C   0  0  0  0  0  0  0  0  0  0  0  0
    8.4481   21.3179  -12.2419 C   0  0  0  0  0  0  0  0  0  0  0  0
    6.0447   19.0823  -11.4297 N   0  0  0  0  0  0  0  0  0  0  0  0
    8.8812   20.0718  -14.6683 N   0  0  0  0  0  0  0  0  0  0  0  0
    4.9611   21.4046  -12.2153 S   0  0  0  0  0  0  0  0  0  0  0  0
    4.5820   17.7081  -10.8581 H   0  0  0  0  0  0  0  0  0  0  0  0
    4.2395   18.6186  -12.3681 H   0  0  0  0  0  0  0  0  0  0  0  0
    5.4694   17.3094  -12.3681 H   0  0  0  0  0  0  0  0  0  0  0  0
    6.9445   19.2911  -14.4952 H   0  0  0  0  0  0  0  0  0  0  0  0
   10.7793   20.9466  -14.6573 H   0  0  0  0  0  0  0  0  0  0  0  0
   10.4529   22.0822  -12.4817 H   0  0  0  0  0  0  0  0  0  0  0  0
    8.2703   21.8161  -11.2774 H   0  0  0  0  0  0  0  0  0  0  0  0
    6.7031   18.8742  -10.6654 H   0  0  0  0  0  0  0  0  0  0  0  0
  1  8  1  0
  2  3  1  0
  2  8  1  0
  2 10  2  0
  3  4  2  0
  3  7  1  0
  4  9  1  0
  5  6  1  0
  5  9  2  0
  6  7  2  0
  1 11  1  0
  1 12  1  0
  1 13  1  0
  4 14  1  0
  5 15  1  0
  6 16  1  0
  7 17  1  0
  8 18  1  0
M  END
>  <filename_input>  (12) 
7PJQ_OWH_docked.sdf

>  <pdb_id>  (12) 
7PJQ_OWH

>  <pose_rank>  (12) 
11

>  <num_atoms_heavy>  (12) 
10

>  <num_torsions>  (12) 
2

>  <pose>  (12) 
[7.480534413703891, 20.527359061711213, -12.821883467042147, -1.7676050742348732, -2.5940571812582385, 3.2341319679532274, 1.9019558189658006, 1.0808744322106987]

>  <energy>  (12) 
-172.6169922973965

>  <inter_energy>  (12) 
-149.09250553549154

>  <intra_energy>  (12) 
0.0

>  <rmsd>  (12) 
9.6956

>  <sdf_rank>  (12) 
0

$$$$

     RDKit          3D

 18 18  0  0  0  0  0  0  0  0999 V2000
    4.2817   21.1116  -12.7993 C   0  0  0  0  0  0  0  0  0  0  0  0
    6.6435   20.3987  -12.4072 C   0  0  0  0  0  0  0  0  0  0  0  0
    7.8851   20.0703  -13.1998 C   0  0  0  0  0  0  0  0  0  0  0  0
    8.9010   19.3414  -12.6065 C   0  0  0  0  0  0  0  0  0  0  0  0
   10.1473   19.4288  -14.5231 C   0  0  0  0  0  0  0  0  0  0  0  0
    9.1721   20.1615  -15.1806 C   0  0  0  0  0  0  0  0  0  0  0  0
    8.0113   20.4877  -14.5064 C   0  0  0  0  0  0  0  0  0  0  0  0
    5.4303   20.3169  -13.1660 N   0  0  0  0  0  0  0  0  0  0  0  0
   10.0065   19.0339  -13.2679 N   0  0  0  0  0  0  0  0  0  0  0  0
    6.6900   20.8046  -10.8509 S   0  0  0  0  0  0  0  0  0  0  0  0
    4.2066   21.1636  -11.7031 H   0  0  0  0  0  0  0  0  0  0  0  0
    4.3928   22.1269  -13.2078 H   0  0  0  0  0  0  0  0  0  0  0  0
    3.3707   20.6498  -13.2078 H   0  0  0  0  0  0  0  0  0  0  0  0
    8.7879   19.0104  -11.5636 H   0  0  0  0  0  0  0  0  0  0  0  0
   11.0694   19.1666  -15.0626 H   0  0  0  0  0  0  0  0  0  0  0  0
    9.3199   20.4785  -16.2235 H   0  0  0  0  0  0  0  0  0  0  0  0
    7.2126   21.0628  -14.9977 H   0  0  0  0  0  0  0  0  0  0  0  0
    5.3773   19.6865  -13.9788 H   0  0  0  0  0  0  0  0  0  0  0  0
  1  8  1  0
  2  3  1  0
  2  8  1  0
  2 10  2  0
  3  4  2  0
  3  7  1  0
  4  9  1  0
  5  6  1  0
  5  9  2  0
  6  7  2  0
  1 11  1  0
  1 12  1  0
  1 13  1  0
  4 14  1  0
  5 15  1  0
  6 16  1  0
  7 17  1  0
  8 18  1  0
M  END
>  <filename_input>  (13) 
7PJQ_OWH_docked.sdf

>  <pdb_id>  (13) 
7PJQ_OWH

>  <pose_rank>  (13) 
12

>  <num_atoms_heavy>  (13) 
10

>  <num_torsions>  (13) 
2

>  <pose>  (13) 
[7.885138757926974, 20.070348333943, -13.199757103245917, 3.57406726795358, 0.3842902389655179, 3.1509220199987626, 4.319878283195036, 0.5146177414885785]

>  <energy>  (13) 
-164.97467098088998

>  <inter_energy>  (13) 
-155.2638383388892

>  <intra_energy>  (13) 
0.0

>  <rmsd>  (13) 
10.1852

>  <sdf_rank>  (13) 
0

$$$$

     RDKit          3D

 18 18  0  0  0  0  0  0  0  0999 V2000
    8.7456   29.4048   -3.7113 C   0  0  0  0  0  0  0  0  0  0  0  0
   10.4694   29.9389   -5.4387 C   0  0  0  0  0  0  0  0  0  0  0  0
   10.7832   31.3392   -5.9060 C   0  0  0  0  0  0  0  0  0  0  0  0
   12.0878   31.7986   -5.8584 C   0  0  0  0  0  0  0  0  0  0  0  0
   11.4559   33.8240   -6.7144 C   0  0  0  0  0  0  0  0  0  0  0  0
   10.1290   33.4316   -6.7903 C   0  0  0  0  0  0  0  0  0  0  0  0
    9.7828   32.1585   -6.3807 C   0  0  0  0  0  0  0  0  0  0  0  0
   10.0698   29.8599   -4.0645 N   0  0  0  0  0  0  0  0  0  0  0  0
   12.4037   33.0210   -6.2581 N   0  0  0  0  0  0  0  0  0  0  0  0
   10.5786   28.6570   -6.4051 S   0  0  0  0  0  0  0  0  0  0  0  0
    8.6492   29.3717   -2.6161 H   0  0  0  0  0  0  0  0  0  0  0  0
    7.9975   30.0974   -4.1245 H   0  0  0  0  0  0  0  0  0  0  0  0
    8.5814   28.3986   -4.1245 H   0  0  0  0  0  0  0  0  0  0  0  0
   12.8791   31.1343   -5.4806 H   0  0  0  0  0  0  0  0  0  0  0  0
   11.7305   34.8367   -7.0445 H   0  0  0  0  0  0  0  0  0  0  0  0
    9.3631   34.1234   -7.1709 H   0  0  0  0  0  0  0  0  0  0  0  0
    8.7408   31.8100   -6.4321 H   0  0  0  0  0  0  0  0  0  0  0  0
   10.7322   30.1298   -3.3233 H   0  0  0  0  0  0  0  0  0  0  0  0
  1  8  1  0
  2  3  1  0
  2  8  1  0
  2 10  2  0
  3  4  2  0
  3  7  1  0
  4  9  1  0
  5  6  1  0
  5  9  2  0
  6  7  2  0
  1 11  1  0
  1 12  1  0
  1 13  1  0
  4 14  1  0
  5 15  1  0
  6 16  1  0
  7 17  1  0
  8 18  1  0
M  END
>  <filename_input>  (14) 
7PJQ_OWH_docked.sdf

>  <pdb_id>  (14) 
7PJQ_OWH

>  <pose_rank>  (14) 
13

>  <num_atoms_heavy>  (14) 
10

>  <num_torsions>  (14) 
2

>  <pose>  (14) 
[10.783188840720447, 31.339177682630375, -5.905958601269558, -5.511847627951394, -0.7745758146010029, 3.448304004633536, -10.437489967741941, -1.063355566304063]

>  <energy>  (14) 
-164.0319384389211

>  <inter_energy>  (14) 
-167.2526341888581

>  <intra_energy>  (14) 
0.0

>  <rmsd>  (14) 
5.72642

>  <sdf_rank>  (14) 
0

$$$$

     RDKit          3D

 18 18  0  0  0  0  0  0  0  0999 V2000
   19.8126   21.7353   -6.0958 C   0  0  0  0  0  0  0  0  0  0  0  0
   20.4094   21.8100   -8.5204 C   0  0  0  0  0  0  0  0  0  0  0  0
   20.3003   22.6414   -9.7752 C   0  0  0  0  0  0  0  0  0  0  0  0
   19.3453   23.6402   -9.8517 C   0  0  0  0  0  0  0  0  0  0  0  0
   20.0172   24.1858  -11.9696 C   0  0  0  0  0  0  0  0  0  0  0  0
   20.9953   23.2042  -11.9635 C   0  0  0  0  0  0  0  0  0  0  0  0
   21.1448   22.4149  -10.8397 C   0  0  0  0  0  0  0  0  0  0  0  0
   19.8581   22.4387   -7.3563 N   0  0  0  0  0  0  0  0  0  0  0  0
   19.2171   24.3905  -10.9355 N   0  0  0  0  0  0  0  0  0  0  0  0
   21.0873   20.3509   -8.5028 S   0  0  0  0  0  0  0  0  0  0  0  0
   19.8595   22.4600   -5.2696 H   0  0  0  0  0  0  0  0  0  0  0  0
   18.8756   21.1630   -6.0289 H   0  0  0  0  0  0  0  0  0  0  0  0
   20.6681   21.0471   -6.0289 H   0  0  0  0  0  0  0  0  0  0  0  0
   18.6786   23.8144   -8.9943 H   0  0  0  0  0  0  0  0  0  0  0  0
   19.9019   24.8159  -12.8638 H   0  0  0  0  0  0  0  0  0  0  0  0
   21.6428   23.0557  -12.8403 H   0  0  0  0  0  0  0  0  0  0  0  0
   21.9142   21.6300  -10.7961 H   0  0  0  0  0  0  0  0  0  0  0  0
   19.4917   23.3992   -7.4191 H   0  0  0  0  0  0  0  0  0  0  0  0
  1  8  1  0
  2  3  1  0
  2  8  1  0
  2 10  2  0
  3  4  2  0
  3  7  1  0
  4  9  1  0
  5  6  1  0
  5  9  2  0
  6  7  2  0
  1 11  1  0
  1 12  1  0
  1 13  1  0
  4 14  1  0
  5 15  1  0
  6 16  1  0
  7 17  1  0
  8 18  1  0
M  END
>  <filename_input>  (15) 
7PJQ_OWH_docked.sdf

>  <pdb_id>  (15) 
7PJQ_OWH

>  <pose_rank>  (15) 
14

>  <num_atoms_heavy>  (15) 
10

>  <num_torsions>  (15) 
2

>  <pose>  (15) 
[20.300320091756415, 22.641418917402397, -9.775230982102784, -0.7259066832886463, -1.9481151300250203, 1.4478421232798193, 0.1146930890344322, -0.024068856051007573]

>  <energy>  (15) 
-159.9131428578205

>  <inter_energy>  (15) 
-143.0594330417536

>  <intra_energy>  (15) 
0.0

>  <rmsd>  (15) 
10.5636

>  <sdf_rank>  (15) 
0

$$$$

     RDKit          3D

 18 18  0  0  0  0  0  0  0  0999 V2000
   20.9920   23.1934   -4.4480 C   0  0  0  0  0  0  0  0  0  0  0  0
   20.3111   21.5586   -6.2098 C   0  0  0  0  0  0  0  0  0  0  0  0
   20.1753   21.8314   -7.6879 C   0  0  0  0  0  0  0  0  0  0  0  0
   19.3136   22.8232   -8.1228 C   0  0  0  0  0  0  0  0  0  0  0  0
   19.8546   22.4019  -10.3056 C   0  0  0  0  0  0  0  0  0  0  0  0
   20.7350   21.3951   -9.9428 C   0  0  0  0  0  0  0  0  0  0  0  0
   20.9039   21.1039   -8.6030 C   0  0  0  0  0  0  0  0  0  0  0  0
   20.0113   22.6879   -5.3797 N   0  0  0  0  0  0  0  0  0  0  0  0
   19.1656   23.0923   -9.4111 N   0  0  0  0  0  0  0  0  0  0  0  0
   20.7549   20.1249   -5.6295 S   0  0  0  0  0  0  0  0  0  0  0  0
   20.6462   23.0152   -3.4191 H   0  0  0  0  0  0  0  0  0  0  0  0
   21.9499   22.6767   -4.6076 H   0  0  0  0  0  0  0  0  0  0  0  0
   21.1269   24.2734   -4.6076 H   0  0  0  0  0  0  0  0  0  0  0  0
   18.7394   23.4001   -7.3829 H   0  0  0  0  0  0  0  0  0  0  0  0
   19.7241   22.6350  -11.3726 H   0  0  0  0  0  0  0  0  0  0  0  0
   21.2909   20.8363  -10.7101 H   0  0  0  0  0  0  0  0  0  0  0  0
   21.5985   20.3157   -8.2771 H   0  0  0  0  0  0  0  0  0  0  0  0
   19.0895   23.1424   -5.4483 H   0  0  0  0  0  0  0  0  0  0  0  0
  1  8  1  0
  2  3  1  0
  2  8  1  0
  2 10  2  0
  3  4  2  0
  3  7  1  0
  4  9  1  0
  5  6  1  0
  5  9  2  0
  6  7  2  0
  1 11  1  0
  1 12  1  0
  1 13  1  0
  4 14  1  0
  5 15  1  0
  6 16  1  0
  7 17  1  0
  8 18  1  0
M  END
>  <filename_input>  (16) 
7PJQ_OWH_docked.sdf

>  <pdb_id>  (16) 
7PJQ_OWH

>  <pose_rank>  (16) 
15

>  <num_atoms_heavy>  (16) 
10

>  <num_torsions>  (16) 
2

>  <pose>  (16) 
[20.175319191578268, 21.83143570922261, -7.68789192295513, -0.9361408657077402, -1.5512862637058227, 1.8021150250422435, 0.040298327151199215, 1.045483660482563]

>  <energy>  (16) 
-118.23283153267066

>  <inter_energy>  (16) 
-107.47228714630316

>  <intra_energy>  (16) 
0.0

>  <rmsd>  (16) 
10.501

>  <sdf_rank>  (16) 
0

$$$$

     RDKit          3D

 18 18  0  0  0  0  0  0  0  0999 V2000
    5.3778   18.8478  -14.0432 C   0  0  0  0  0  0  0  0  0  0  0  0
    7.7038   19.6517  -13.6148 C   0  0  0  0  0  0  0  0  0  0  0  0
    9.1543   19.3285  -13.8779 C   0  0  0  0  0  0  0  0  0  0  0  0
    9.7941   19.8970  -14.9656 C   0  0  0  0  0  0  0  0  0  0  0  0
   11.7433   18.8194  -14.4422 C   0  0  0  0  0  0  0  0  0  0  0  0
   11.1677   18.2144  -13.3363 C   0  0  0  0  0  0  0  0  0  0  0  0
    9.8435   18.4767  -13.0431 C   0  0  0  0  0  0  0  0  0  0  0  0
    6.7837   18.8563  -14.3731 N   0  0  0  0  0  0  0  0  0  0  0  0
   11.0655   19.6377  -15.2310 N   0  0  0  0  0  0  0  0  0  0  0  0
    7.2436   20.7904  -12.5753 S   0  0  0  0  0  0  0  0  0  0  0  0
    5.2577   18.8471  -12.9498 H   0  0  0  0  0  0  0  0  0  0  0  0
    4.8970   19.7431  -14.4643 H   0  0  0  0  0  0  0  0  0  0  0  0
    4.9078   17.9468  -14.4643 H   0  0  0  0  0  0  0  0  0  0  0  0
    9.2349   20.5784  -15.6235 H   0  0  0  0  0  0  0  0  0  0  0  0
   12.7989   18.6124  -14.6722 H   0  0  0  0  0  0  0  0  0  0  0  0
   11.7563   17.5357  -12.7015 H   0  0  0  0  0  0  0  0  0  0  0  0
    9.3546   18.0196  -12.1701 H   0  0  0  0  0  0  0  0  0  0  0  0
    7.1278   18.2864  -15.1590 H   0  0  0  0  0  0  0  0  0  0  0  0
  1  8  1  0
  2  3  1  0
  2  8  1  0
  2 10  2  0
  3  4  2  0
  3  7  1  0
  4  9  1  0
  5  6  1  0
  5  9  2  0
  6  7  2  0
  1 11  1  0
  1 12  1  0
  1 13  1  0
  4 14  1  0
  5 15  1  0
  6 16  1  0
  7 17  1  0
  8 18  1  0
M  END
>  <filename_input>  (17) 
7PJQ_OWH_docked.sdf

>  <pdb_id>  (17) 
7PJQ_OWH

>  <pose_rank>  (17) 
16

>  <num_atoms_heavy>  (17) 
10

>  <num_torsions>  (17) 
2

>  <pose>  (17) 
[9.15434049144202, 19.32854563426299, -13.877944516338863, 2.1869387892313807, 1.252089341390755, -1.0052661543561547, 1.9535847607071024, -0.17858208264192146]

>  <energy>  (17) 
-149.926389741974

>  <inter_energy>  (17) 
-123.83514511803621

>  <intra_energy>  (17) 
0.0

>  <rmsd>  (17) 
10.8248

>  <sdf_rank>  (17) 
0

$$$$

     RDKit          3D

 18 18  0  0  0  0  0  0  0  0999 V2000
    8.3391   33.1278  -15.6261 C   0  0  0  0  0  0  0  0  0  0  0  0
    9.8215   33.4816  -13.6468 C   0  0  0  0  0  0  0  0  0  0  0  0
   11.2721   33.4945  -13.2306 C   0  0  0  0  0  0  0  0  0  0  0  0
   12.2303   32.9664  -14.0782 C   0  0  0  0  0  0  0  0  0  0  0  0
   13.8923   33.4648  -12.5868 C   0  0  0  0  0  0  0  0  0  0  0  0
   12.9884   34.0098  -11.6888 C   0  0  0  0  0  0  0  0  0  0  0  0
   11.6469   34.0297  -12.0180 C   0  0  0  0  0  0  0  0  0  0  0  0
    9.6235   33.4776  -15.0663 N   0  0  0  0  0  0  0  0  0  0  0  0
   13.5132   32.9579  -13.7490 N   0  0  0  0  0  0  0  0  0  0  0  0
    8.6140   33.4748  -12.5833 S   0  0  0  0  0  0  0  0  0  0  0  0
    7.6251   32.9333  -14.8121 H   0  0  0  0  0  0  0  0  0  0  0  0
    7.9708   33.9583  -16.2462 H   0  0  0  0  0  0  0  0  0  0  0  0
    8.4429   32.2252  -16.2462 H   0  0  0  0  0  0  0  0  0  0  0  0
   11.9199   32.5447  -15.0456 H   0  0  0  0  0  0  0  0  0  0  0  0
   14.9605   33.4531  -12.3249 H   0  0  0  0  0  0  0  0  0  0  0  0
   13.3339   34.4203  -10.7286 H   0  0  0  0  0  0  0  0  0  0  0  0
   10.9012   34.4597  -11.3330 H   0  0  0  0  0  0  0  0  0  0  0  0
   10.4031   33.7261  -15.6919 H   0  0  0  0  0  0  0  0  0  0  0  0
  1  8  1  0
  2  3  1  0
  2  8  1  0
  2 10  2  0
  3  4  2  0
  3  7  1  0
  4  9  1  0
  5  6  1  0
  5  9  2  0
  6  7  2  0
  1 11  1  0
  1 12  1  0
  1 13  1  0
  4 14  1  0
  5 15  1  0
  6 16  1  0
  7 17  1  0
  8 18  1  0
M  END
>  <filename_input>  (18) 
7PJQ_OWH_docked.sdf

>  <pdb_id>  (18) 
7PJQ_OWH

>  <pose_rank>  (18) 
17

>  <num_atoms_heavy>  (18) 
10

>  <num_torsions>  (18) 
2

>  <pose>  (18) 
[11.272131824349511, 33.49448161317862, -13.230626634518922, 1.2646223197859723, 0.46915532500330503, -0.9352780660647214, 0.03759382133966698, -0.2323146183067999]

>  <energy>  (18) 
-73.06148538298767

>  <inter_energy>  (18) 
-58.86617615800578

>  <intra_energy>  (18) 
0.0

>  <rmsd>  (18) 
10.7744

>  <sdf_rank>  (18) 
0

$$$$

     RDKit          3D

 18 18  0  0  0  0  0  0  0  0999 V2000
   20.6245   18.9673  -14.4274 C   0  0  0  0  0  0  0  0  0  0  0  0
   20.6703   19.6973  -12.0388 C   0  0  0  0  0  0  0  0  0  0  0  0
   20.4281   20.8935  -11.1512 C   0  0  0  0  0  0  0  0  0  0  0  0
   20.1231   20.7017   -9.8149 C   0  0  0  0  0  0  0  0  0  0  0  0
   19.9754   22.9594   -9.4756 C   0  0  0  0  0  0  0  0  0  0  0  0
   20.2755   23.2266  -10.8019 C   0  0  0  0  0  0  0  0  0  0  0  0
   20.5116   22.1706  -11.6607 C   0  0  0  0  0  0  0  0  0  0  0  0
   20.7298   20.0119  -13.4359 N   0  0  0  0  0  0  0  0  0  0  0  0
   19.9028   21.7252   -9.0038 N   0  0  0  0  0  0  0  0  0  0  0  0
   20.8431   18.2068  -11.4578 S   0  0  0  0  0  0  0  0  0  0  0  0
   20.5264   17.9936  -13.9252 H   0  0  0  0  0  0  0  0  0  0  0  0
   19.7398   19.1464  -15.0562 H   0  0  0  0  0  0  0  0  0  0  0  0
   21.5271   18.9663  -15.0562 H   0  0  0  0  0  0  0  0  0  0  0  0
   20.0625   19.6775   -9.4182 H   0  0  0  0  0  0  0  0  0  0  0  0
   19.7914   23.8015   -8.7922 H   0  0  0  0  0  0  0  0  0  0  0  0
   20.3250   24.2636  -11.1652 H   0  0  0  0  0  0  0  0  0  0  0  0
   20.7587   22.3442  -12.7185 H   0  0  0  0  0  0  0  0  0  0  0  0
   20.8485   20.9904  -13.7349 H   0  0  0  0  0  0  0  0  0  0  0  0
  1  8  1  0
  2  3  1  0
  2  8  1  0
  2 10  2  0
  3  4  2  0
  3  7  1  0
  4  9  1  0
  5  6  1  0
  5  9  2  0
  6  7  2  0
  1 11  1  0
  1 12  1  0
  1 13  1  0
  4 14  1  0
  5 15  1  0
  6 16  1  0
  7 17  1  0
  8 18  1  0
M  END
>  <filename_input>  (19) 
7PJQ_OWH_docked.sdf

>  <pdb_id>  (19) 
7PJQ_OWH

>  <pose_rank>  (19) 
18

>  <num_atoms_heavy>  (19) 
10

>  <num_torsions>  (19) 
2

>  <pose>  (19) 
[20.42810413937668, 20.8935269994399, -11.151176215442336, -1.0783007362666455, 4.393587598177507, 0.1474693825522162, 3.4480550640021517, 0.31017067701525947]

>  <energy>  (19) 
-79.76417000932139

>  <inter_energy>  (19) 
-77.50894437471604

>  <intra_energy>  (19) 
0.0

>  <rmsd>  (19) 
11.9185

>  <sdf_rank>  (19) 
0

$$$$

     RDKit          3D

 18 18  0  0  0  0  0  0  0  0999 V2000
   21.0469   24.9488   -7.8155 C   0  0  0  0  0  0  0  0  0  0  0  0
   20.3540   22.6573   -8.5294 C   0  0  0  0  0  0  0  0  0  0  0  0
   20.5509   21.3869   -7.7390 C   0  0  0  0  0  0  0  0  0  0  0  0
   20.9920   20.2438   -8.3825 C   0  0  0  0  0  0  0  0  0  0  0  0
   20.9354   19.0623   -6.4241 C   0  0  0  0  0  0  0  0  0  0  0  0
   20.4918   20.1671   -5.7149 C   0  0  0  0  0  0  0  0  0  0  0  0
   20.2981   21.3594   -6.3851 C   0  0  0  0  0  0  0  0  0  0  0  0
   20.1497   23.8214   -7.7184 N   0  0  0  0  0  0  0  0  0  0  0  0
   21.1760   19.1092   -7.7245 N   0  0  0  0  0  0  0  0  0  0  0  0
   20.3722   22.6898  -10.1380 S   0  0  0  0  0  0  0  0  0  0  0  0
   21.3182   25.2896   -6.8055 H   0  0  0  0  0  0  0  0  0  0  0  0
   21.9558   24.6485   -8.3576 H   0  0  0  0  0  0  0  0  0  0  0  0
   20.5503   25.7670   -8.3576 H   0  0  0  0  0  0  0  0  0  0  0  0
   21.1941   20.2783   -9.4632 H   0  0  0  0  0  0  0  0  0  0  0  0
   21.0928   18.1147   -5.8881 H   0  0  0  0  0  0  0  0  0  0  0  0
   20.2969   20.0958   -4.6346 H   0  0  0  0  0  0  0  0  0  0  0  0
   19.9527   22.2588   -5.8543 H   0  0  0  0  0  0  0  0  0  0  0  0
   19.3571   23.8540   -7.0615 H   0  0  0  0  0  0  0  0  0  0  0  0
  1  8  1  0
  2  3  1  0
  2  8  1  0
  2 10  2  0
  3  4  2  0
  3  7  1  0
  4  9  1  0
  5  6  1  0
  5  9  2  0
  6  7  2  0
  1 11  1  0
  1 12  1  0
  1 13  1  0
  4 14  1  0
  5 15  1  0
  6 16  1  0
  7 17  1  0
  8 18  1  0
M  END
>  <filename_input>  (20) 
7PJQ_OWH_docked.sdf

>  <pdb_id>  (20) 
7PJQ_OWH

>  <pose_rank>  (20) 
19

>  <num_atoms_heavy>  (20) 
10

>  <num_torsions>  (20) 
2

>  <pose>  (20) 
[20.55089849420523, 21.38686850939968, -7.738975740582896, -3.0834550401111613, 1.0258798804852407, 1.9008682768995977, 3.83986845305886, -0.9871500123043327]

>  <energy>  (20) 
-70.7352583001598

>  <inter_energy>  (20) 
-67.81419162403301

>  <intra_energy>  (20) 
0.0

>  <rmsd>  (20) 
11.3366

>  <sdf_rank>  (20) 
0

$$$$

     RDKit          3D

 18 18  0  0  0  0  0  0  0  0999 V2000
   12.4623   33.6769   -6.5140 C   0  0  0  0  0  0  0  0  0  0  0  0
   13.2274   34.9971   -8.4919 C   0  0  0  0  0  0  0  0  0  0  0  0
   13.0830   34.7323   -9.9707 C   0  0  0  0  0  0  0  0  0  0  0  0
   14.1328   34.1598  -10.6676 C   0  0  0  0  0  0  0  0  0  0  0  0
   12.9333   34.2167  -12.6150 C   0  0  0  0  0  0  0  0  0  0  0  0
   11.8427   34.7917  -11.9823 C   0  0  0  0  0  0  0  0  0  0  0  0
   11.9155   35.0530  -10.6277 C   0  0  0  0  0  0  0  0  0  0  0  0
   12.1672   34.4511   -7.6969 N   0  0  0  0  0  0  0  0  0  0  0  0
   14.0457   33.9127  -11.9658 N   0  0  0  0  0  0  0  0  0  0  0  0
   14.4641   35.8210   -7.8750 S   0  0  0  0  0  0  0  0  0  0  0  0
   12.2346   34.2741   -5.6187 H   0  0  0  0  0  0  0  0  0  0  0  0
   11.8492   32.7636   -6.5112 H   0  0  0  0  0  0  0  0  0  0  0  0
   13.5277   33.4034   -6.5112 H   0  0  0  0  0  0  0  0  0  0  0  0
   15.0591   33.9047  -10.1319 H   0  0  0  0  0  0  0  0  0  0  0  0
   12.8723   34.0059  -13.6928 H   0  0  0  0  0  0  0  0  0  0  0  0
   10.9329   35.0365  -12.5500 H   0  0  0  0  0  0  0  0  0  0  0  0
   11.0677   35.5030  -10.0905 H   0  0  0  0  0  0  0  0  0  0  0  0
   11.1875   34.6120   -7.9712 H   0  0  0  0  0  0  0  0  0  0  0  0
  1  8  1  0
  2  3  1  0
  2  8  1  0
  2 10  2  0
  3  4  2  0
  3  7  1  0
  4  9  1  0
  5  6  1  0
  5  9  2  0
  6  7  2  0
  1 11  1  0
  1 12  1  0
  1 13  1  0
  4 14  1  0
  5 15  1  0
  6 16  1  0
  7 17  1  0
  8 18  1  0
M  END
>  <filename_input>  (21) 
7PJQ_OWH_docked.sdf

>  <pdb_id>  (21) 
7PJQ_OWH

>  <pose_rank>  (21) 
20

>  <num_atoms_heavy>  (21) 
10

>  <num_torsions>  (21) 
2

>  <pose>  (21) 
[13.083024869944403, 34.73227849364778, -9.97068193293256, 4.184231527091067, -1.905504929832068, 0.37939066385121895, -1.7252768116930266, -0.8031738088172707]

>  <energy>  (21) 
-93.96534220338964

>  <inter_energy>  (21) 
-86.11476716793597

>  <intra_energy>  (21) 
0.0

>  <rmsd>  (21) 
10.0717

>  <sdf_rank>  (21) 
0

$$$$

     RDKit          3D

 18 18  0  0  0  0  0  0  0  0999 V2000
    7.9283   33.4041   -8.1361 C   0  0  0  0  0  0  0  0  0  0  0  0
    8.8222   32.8864   -5.8617 C   0  0  0  0  0  0  0  0  0  0  0  0
    9.3337   31.6168   -5.2259 C   0  0  0  0  0  0  0  0  0  0  0  0
   10.6785   31.3024   -5.3148 C   0  0  0  0  0  0  0  0  0  0  0  0
   10.3546   29.3735   -4.1278 C   0  0  0  0  0  0  0  0  0  0  0  0
    8.9977   29.6239   -3.9995 C   0  0  0  0  0  0  0  0  0  0  0  0
    8.4734   30.7738   -4.5575 C   0  0  0  0  0  0  0  0  0  0  0  0
    8.9957   32.9359   -7.2836 N   0  0  0  0  0  0  0  0  0  0  0  0
   11.1660   30.1974   -4.7713 N   0  0  0  0  0  0  0  0  0  0  0  0
    8.1462   34.0719   -5.0094 S   0  0  0  0  0  0  0  0  0  0  0  0
    7.0966   33.7689   -7.5155 H   0  0  0  0  0  0  0  0  0  0  0  0
    8.2984   34.2225   -8.7711 H   0  0  0  0  0  0  0  0  0  0  0  0
    7.5768   32.5775   -8.7711 H   0  0  0  0  0  0  0  0  0  0  0  0
   11.3569   31.9847   -5.8480 H   0  0  0  0  0  0  0  0  0  0  0  0
   10.7712   28.4594   -3.6797 H   0  0  0  0  0  0  0  0  0  0  0  0
    8.3480   28.9179   -3.4616 H   0  0  0  0  0  0  0  0  0  0  0  0
    7.4023   31.0089   -4.4707 H   0  0  0  0  0  0  0  0  0  0  0  0
    9.8883   32.6352   -7.7004 H   0  0  0  0  0  0  0  0  0  0  0  0
  1  8  1  0
  2  3  1  0
  2  8  1  0
  2 10  2  0
  3  4  2  0
  3  7  1  0
  4  9  1  0
  5  6  1  0
  5  9  2  0
  6  7  2  0
  1 11  1  0
  1 12  1  0
  1 13  1  0
  4 14  1  0
  5 15  1  0
  6 16  1  0
  7 17  1  0
  8 18  1  0
M  END
>  <filename_input>  (22) 
7PJQ_OWH_docked.sdf

>  <pdb_id>  (22) 
7PJQ_OWH

>  <pose_rank>  (22) 
21

>  <num_atoms_heavy>  (22) 
10

>  <num_torsions>  (22) 
2

>  <pose>  (22) 
[9.333651435873993, 31.616776801727987, -5.22592924382778, 9.039377744947243, -0.07682538581207447, -0.3754342305125457, -10.987119209987917, -0.7260294958306611]

>  <energy>  (22) 
-147.7804839498098

>  <inter_energy>  (22) 
-143.4209125034283

>  <intra_energy>  (22) 
0.0

>  <rmsd>  (22) 
7.16542

>  <sdf_rank>  (22) 
0

$$$$

     RDKit          3D

 18 18  0  0  0  0  0  0  0  0999 V2000
    9.7889   34.8251   -6.4068 C   0  0  0  0  0  0  0  0  0  0  0  0
    7.2964   34.7413   -6.2632 C   0  0  0  0  0  0  0  0  0  0  0  0
    6.3973   34.8457   -7.4708 C   0  0  0  0  0  0  0  0  0  0  0  0
    6.8119   34.3126   -8.6788 C   0  0  0  0  0  0  0  0  0  0  0  0
    4.8712   34.9772   -9.6921 C   0  0  0  0  0  0  0  0  0  0  0  0
    4.3918   35.5331   -8.5167 C   0  0  0  0  0  0  0  0  0  0  0  0
    5.1697   35.4635   -7.3772 C   0  0  0  0  0  0  0  0  0  0  0  0
    8.5486   34.0948   -6.5243 N   0  0  0  0  0  0  0  0  0  0  0  0
    6.0525   34.3847   -9.7615 N   0  0  0  0  0  0  0  0  0  0  0  0
    6.8756   35.3072   -4.8169 S   0  0  0  0  0  0  0  0  0  0  0  0
   10.0311   34.9677   -5.3433 H   0  0  0  0  0  0  0  0  0  0  0  0
   10.5959   34.2580   -6.8938 H   0  0  0  0  0  0  0  0  0  0  0  0
    9.6845   35.8059   -6.8938 H   0  0  0  0  0  0  0  0  0  0  0  0
    7.7927   33.8185   -8.7410 H   0  0  0  0  0  0  0  0  0  0  0  0
    4.2490   35.0301  -10.5977 H   0  0  0  0  0  0  0  0  0  0  0  0
    3.4070   36.0223   -8.4915 H   0  0  0  0  0  0  0  0  0  0  0  0
    4.8196   35.8881   -6.4248 H   0  0  0  0  0  0  0  0  0  0  0  0
    8.5640   33.1019   -6.7978 H   0  0  0  0  0  0  0  0  0  0  0  0
  1  8  1  0
  2  3  1  0
  2  8  1  0
  2 10  2  0
  3  4  2  0
  3  7  1  0
  4  9  1  0
  5  6  1  0
  5  9  2  0
  6  7  2  0
  1 11  1  0
  1 12  1  0
  1 13  1  0
  4 14  1  0
  5 15  1  0
  6 16  1  0
  7 17  1  0
  8 18  1  0
M  END
>  <filename_input>  (23) 
7PJQ_OWH_docked.sdf

>  <pdb_id>  (23) 
7PJQ_OWH

>  <pose_rank>  (23) 
22

>  <num_atoms_heavy>  (23) 
10

>  <num_torsions>  (23) 
2

>  <pose>  (23) 
[6.3973133224214855, 34.84572777222073, -7.470815322127558, 3.2208110203840024, -3.070184411812276, -0.46870395408991006, -12.046566421473841, -1.0874374039401487]

>  <energy>  (23) 
-125.33216493080488

>  <inter_energy>  (23) 
-111.77596717055604

>  <intra_energy>  (23) 
0.012109614090721936

>  <rmsd>  (23) 
10.5574

>  <sdf_rank>  (23) 
0

$$$$

     RDKit          3D

 18 18  0  0  0  0  0  0  0  0999 V2000
   20.9830   24.0581  -10.4510 C   0  0  0  0  0  0  0  0  0  0  0  0
   19.9393   22.6077   -8.7053 C   0  0  0  0  0  0  0  0  0  0  0  0
   20.2070   22.0172   -7.3425 C   0  0  0  0  0  0  0  0  0  0  0  0
   20.1633   20.6443   -7.1726 C   0  0  0  0  0  0  0  0  0  0  0  0
   20.6680   20.8556   -4.9511 C   0  0  0  0  0  0  0  0  0  0  0  0
   20.7284   22.2367   -5.0472 C   0  0  0  0  0  0  0  0  0  0  0  0
   20.4966   22.8335   -6.2713 C   0  0  0  0  0  0  0  0  0  0  0  0
   21.1071   23.1274   -9.3537 N   0  0  0  0  0  0  0  0  0  0  0  0
   20.3912   20.0877   -5.9927 N   0  0  0  0  0  0  0  0  0  0  0  0
   18.4703   22.6463   -9.3606 S   0  0  0  0  0  0  0  0  0  0  0  0
   20.8473   25.0755  -10.0553 H   0  0  0  0  0  0  0  0  0  0  0  0
   21.8938   24.0226  -11.0667 H   0  0  0  0  0  0  0  0  0  0  0  0
   20.1133   23.7851  -11.0667 H   0  0  0  0  0  0  0  0  0  0  0  0
   19.9344   20.0020   -8.0358 H   0  0  0  0  0  0  0  0  0  0  0  0
   20.8565   20.3818   -3.9764 H   0  0  0  0  0  0  0  0  0  0  0  0
   20.9573   22.8486   -4.1622 H   0  0  0  0  0  0  0  0  0  0  0  0
   20.5420   23.9264   -6.3872 H   0  0  0  0  0  0  0  0  0  0  0  0
   22.0418   22.8349   -9.0348 H   0  0  0  0  0  0  0  0  0  0  0  0
  1  8  1  0
  2  3  1  0
  2  8  1  0
  2 10  2  0
  3  4  2  0
  3  7  1  0
  4  9  1  0
  5  6  1  0
  5  9  2  0
  6  7  2  0
  1 11  1  0
  1 12  1  0
  1 13  1  0
  4 14  1  0
  5 15  1  0
  6 16  1  0
  7 17  1  0
  8 18  1  0
M  END
>  <filename_input>  (24) 
7PJQ_OWH_docked.sdf

>  <pdb_id>  (24) 
7PJQ_OWH

>  <pose_rank>  (24) 
23

>  <num_atoms_heavy>  (24) 
10

>  <num_torsions>  (24) 
2

>  <pose>  (24) 
[20.207005334741492, 22.01716140960138, -7.342466437067026, -2.4551053605504256, 2.240588489299303, 2.5647449669740556, 4.902671864986079, -5.920359261757354]

>  <energy>  (24) 
-135.56842373428276

>  <inter_energy>  (24) 
-121.70519773630517

>  <intra_energy>  (24) 
0.0

>  <rmsd>  (24) 
10.6503

>  <sdf_rank>  (24) 
0

$$$$

     RDKit          3D

 18 18  0  0  0  0  0  0  0  0999 V2000
   13.3539   35.6058   -8.9876 C   0  0  0  0  0  0  0  0  0  0  0  0
   14.4782   35.5160  -11.2165 C   0  0  0  0  0  0  0  0  0  0  0  0
   14.2572   34.6808  -12.4540 C   0  0  0  0  0  0  0  0  0  0  0  0
   15.2779   33.8727  -12.9236 C   0  0  0  0  0  0  0  0  0  0  0  0
   13.9712   33.1484  -14.6563 C   0  0  0  0  0  0  0  0  0  0  0  0
   12.9061   33.9333  -14.2440 C   0  0  0  0  0  0  0  0  0  0  0  0
   13.0489   34.7156  -13.1144 C   0  0  0  0  0  0  0  0  0  0  0  0
   13.2978   35.7096  -10.4269 N   0  0  0  0  0  0  0  0  0  0  0  0
   15.1238   33.1259  -14.0065 N   0  0  0  0  0  0  0  0  0  0  0  0
   15.9142   36.1301  -10.8295 S   0  0  0  0  0  0  0  0  0  0  0  0
   12.8770   36.4889   -8.5374 H   0  0  0  0  0  0  0  0  0  0  0  0
   12.8234   34.6979   -8.6645 H   0  0  0  0  0  0  0  0  0  0  0  0
   14.4040   35.5515   -8.6645 H   0  0  0  0  0  0  0  0  0  0  0  0
   16.2374   33.8503  -12.3862 H   0  0  0  0  0  0  0  0  0  0  0  0
   13.8546   32.5231  -15.5538 H   0  0  0  0  0  0  0  0  0  0  0  0
   11.9615   33.9333  -14.8075 H   0  0  0  0  0  0  0  0  0  0  0  0
   12.2233   35.3467  -12.7536 H   0  0  0  0  0  0  0  0  0  0  0  0
   12.4029   35.9244  -10.8894 H   0  0  0  0  0  0  0  0  0  0  0  0
  1  8  1  0
  2  3  1  0
  2  8  1  0
  2 10  2  0
  3  4  2  0
  3  7  1  0
  4  9  1  0
  5  6  1  0
  5  9  2  0
  6  7  2  0
  1 11  1  0
  1 12  1  0
  1 13  1  0
  4 14  1  0
  5 15  1  0
  6 16  1  0
  7 17  1  0
  8 18  1  0
M  END
>  <filename_input>  (25) 
7PJQ_OWH_docked.sdf

>  <pdb_id>  (25) 
7PJQ_OWH

>  <pose_rank>  (25) 
24

>  <num_atoms_heavy>  (25) 
10

>  <num_torsions>  (25) 
2

>  <pose>  (25) 
[14.257214354615964, 34.68083151901765, -12.453982326742604, 3.910162496100216, -1.4886188589953084, 0.48962185341899367, -2.0823386652614446, -0.7054293214758252]

>  <energy>  (25) 
-100.93420895707867

>  <inter_energy>  (25) 
-86.81353213534314

>  <intra_energy>  (25) 
0.0

>  <rmsd>  (25) 
11.6379

>  <sdf_rank>  (25) 
0

$$$$

     RDKit          3D

 18 18  0  0  0  0  0  0  0  0999 V2000
   11.1670   22.2550   -6.3220 C   0  0  0  0  0  0  0  0  0  0  0  0
   10.5360   24.6590   -6.0710 C   0  0  0  0  0  0  0  0  0  0  0  0
   11.0370   26.0730   -6.2360 C   0  0  0  0  0  0  0  0  0  0  0  0
   12.3940   26.3310   -6.1500 C   0  0  0  0  0  0  0  0  0  0  0  0
   12.0410   28.5620   -6.5140 C   0  0  0  0  0  0  0  0  0  0  0  0
   10.6710   28.3780   -6.6120 C   0  0  0  0  0  0  0  0  0  0  0  0
   10.1550   27.1040   -6.4740 C   0  0  0  0  0  0  0  0  0  0  0  0
   11.4800   23.6570   -6.4700 N   0  0  0  0  0  0  0  0  0  0  0  0
   12.8730   27.5580   -6.2880 N   0  0  0  0  0  0  0  0  0  0  0  0
    9.0710   24.3190   -5.4990 S   0  0  0  0  0  0  0  0  0  0  0  0
   11.1107   22.0028   -5.2528 H   0  0  0  0  0  0  0  0  0  0  0  0
   10.1994   22.0429   -6.8002 H   0  0  0  0  0  0  0  0  0  0  0  0
   11.9525   21.6515   -6.8002 H   0  0  0  0  0  0  0  0  0  0  0  0
   13.0894   25.4994   -5.9631 H   0  0  0  0  0  0  0  0  0  0  0  0
   12.4506   29.5765   -6.6279 H   0  0  0  0  0  0  0  0  0  0  0  0
   10.0045   29.2334   -6.7969 H   0  0  0  0  0  0  0  0  0  0  0  0
    9.0735   26.9186   -6.5517 H   0  0  0  0  0  0  0  0  0  0  0  0
   12.3884   23.9390   -6.8652 H   0  0  0  0  0  0  0  0  0  0  0  0
  1  8  1  0
  2  3  1  0
  2  8  1  0
  2 10  2  0
  3  4  2  0
  3  7  1  0
  4  9  1  0
  5  6  1  0
  5  9  2  0
  6  7  2  0
  1 11  1  0
  1 12  1  0
  1 13  1  0
  4 14  1  0
  5 15  1  0
  6 16  1  0
  7 17  1  0
  8 18  1  0
M  END
>  <filename_input>  (26) 
7PJQ_OWH_docked.sdf

>  <pdb_id>  (26) 
7PJQ_OWH

>  <pose_rank>  (26) 
25

>  <num_atoms_heavy>  (26) 
10

>  <num_torsions>  (26) 
2

>  <pose>  (26) 
[11.037, 26.073, -6.236, 1e-06, 1e-06, 1e-06, 0.0, 0.0]

>  <energy>  (26) 
-428.1287677399605

>  <inter_energy>  (26) 
-429.349129624404

>  <intra_energy>  (26) 
0.0

>  <rmsd>  (26) 
0.0

>  <sdf_rank>  (26) 
0

$$$$
