
     RDKit          3D

 92 95  0  0  0  0  0  0  0  0999 V2000
  -28.8753   31.0761  -12.8511 N   0  0  0  0  0  0  0  0  0  0  0  0
  -22.8640   27.8779  -18.6776 O   0  0  0  0  0  0  0  0  0  0  0  0
  -22.8887   26.4838  -19.2271 P   0  0  2  0  0  0  0  0  0  0  0  0
  -13.3507   26.1509  -13.8032 C   0  0  0  0  0  0  0  0  0  0  0  0
  -27.3197   27.3667  -16.0477 C   0  0  1  0  0  0  0  0  0  0  0  0
  -12.9207   25.6852  -15.4703 S   0  0  0  0  0  0  0  0  0  0  0  0
  -28.8997   29.7390  -12.7422 C   0  0  0  0  0  0  0  0  0  0  0  0
  -22.1556   25.4007  -18.4911 O   0  0  0  0  0  0  0  0  0  0  0  0
  -21.3253   25.4826  -21.4332 P   0  0  1  0  0  0  0  0  0  0  0  0
  -14.1230   25.1742  -13.0035 C   0  0  0  0  0  0  0  0  0  0  0  0
  -28.2698   26.7246  -17.0490 C   0  0  2  0  0  0  0  0  0  0  0  0
  -29.4721   26.3166  -16.4271 O   0  0  0  0  0  0  0  0  0  0  0  0
  -13.8996   26.8494  -16.4448 C   0  0  0  0  0  0  0  0  0  0  0  0
  -28.5105   28.8125  -13.6211 N   0  0  0  0  0  0  0  0  0  0  0  0
  -22.4625   26.3976  -20.7628 O   0  0  0  0  0  0  0  0  0  0  0  0
  -13.5387   23.9402  -12.7435 C   0  0  0  0  0  0  0  0  0  0  0  0
  -27.4129   25.5721  -17.5493 C   0  0  2  0  0  0  0  0  0  0  0  0
  -27.4684   24.5287  -16.5711 O   0  0  0  0  0  0  0  0  0  0  0  0
  -28.0831   23.1374  -17.1453 P   0  0  1  0  0  0  0  0  0  0  0  0
  -12.9588   27.7553  -17.1749 C   0  0  0  0  0  0  0  0  0  0  0  0
  -28.0344   29.4040  -14.7317 C   0  0  0  0  0  0  0  0  0  0  0  0
  -21.6488   24.0357  -21.2141 O   0  0  0  0  0  0  0  0  0  0  0  0
  -14.2397   22.9561  -12.0635 C   0  0  0  0  0  0  0  0  0  0  0  0
  -25.9937   26.1692  -17.5836 C   0  0  2  0  0  0  0  0  0  0  0  0
  -26.0122   27.2132  -16.5717 O   0  0  0  0  0  0  0  0  0  0  0  0
  -12.8809   27.4696  -18.5875 N   0  0  0  0  0  0  0  0  0  0  0  0
  -12.8992   27.1872  -13.3514 O   0  0  0  0  0  0  0  0  0  0  0  0
  -21.1147   25.9965  -22.8110 O   0  0  0  0  0  0  0  0  0  0  0  0
  -15.5384   23.1916  -11.6315 C   0  0  0  0  0  0  0  0  0  0  0  0
  -25.5394   26.7737  -18.9015 C   0  0  0  0  0  0  0  0  0  0  0  0
  -24.4111   26.0048  -19.3620 O   0  0  0  0  0  0  0  0  0  0  0  0
  -27.9639   30.7554  -14.9913 C   0  0  0  0  0  0  0  0  0  0  0  0
  -13.3364   28.2769  -19.5642 C   0  0  0  0  0  0  0  0  0  0  0  0
  -13.9714   29.2873  -19.3009 O   0  0  0  0  0  0  0  0  0  0  0  0
  -28.4276   31.6381  -14.0009 C   0  0  0  0  0  0  0  0  0  0  0  0
  -28.3508   32.9673  -14.0973 N   0  0  0  0  0  0  0  0  0  0  0  0
  -20.0391   25.7970  -20.5321 O   0  0  0  0  0  0  0  0  0  0  0  0
  -16.1045   24.4176  -11.8529 C   0  0  0  0  0  0  0  0  0  0  0  0
  -13.1803   27.8084  -21.0014 C   0  0  0  0  0  0  0  0  0  0  0  0
  -27.4081   30.9847  -16.2453 N   0  0  0  0  0  0  0  0  0  0  0  0
  -29.1018   22.5888  -16.0710 O   0  0  0  0  0  0  0  0  0  0  0  0
  -15.4144   25.4059  -12.5385 C   0  0  0  0  0  0  0  0  0  0  0  0
  -13.7316   26.3991  -21.2424 C   0  0  0  0  0  0  0  0  0  0  0  0
  -27.1529   29.7892  -16.6972 C   0  0  0  0  0  0  0  0  0  0  0  0
  -28.7828   23.4708  -18.4526 O   0  0  0  0  0  0  0  0  0  0  0  0
  -15.1661   26.3688  -21.5207 N   0  0  0  0  0  0  0  0  0  0  0  0
  -27.5291   28.7823  -15.8463 N   0  0  0  0  0  0  0  0  0  0  0  0
  -26.9672   22.1747  -17.3156 O   0  0  0  0  0  0  0  0  0  0  0  0
  -16.0924   26.0438  -20.6343 C   0  0  0  0  0  0  0  0  0  0  0  0
  -15.8198   25.7309  -19.4726 O   0  0  0  0  0  0  0  0  0  0  0  0
  -17.5393   26.1575  -21.0894 C   0  0  2  0  0  0  0  0  0  0  0  0
  -17.5770   26.0738  -22.5017 O   0  0  0  0  0  0  0  0  0  0  0  0
  -18.2733   27.4283  -20.6209 C   0  0  1  0  0  0  0  0  0  0  0  0
  -19.7123   27.1771  -20.1923 C   0  0  0  0  0  0  0  0  0  0  0  0
  -17.5111   28.0390  -19.4266 C   0  0  0  0  0  0  0  0  0  0  0  0
  -18.3153   28.4443  -21.7699 C   0  0  0  0  0  0  0  0  0  0  0  0
  -27.4877   26.8759  -15.0777 H   0  0  0  0  0  0  0  0  0  0  0  0
  -29.2973   29.3507  -11.7929 H   0  0  0  0  0  0  0  0  0  0  0  0
  -28.6242   27.3812  -17.8572 H   0  0  0  0  0  0  0  0  0  0  0  0
  -29.3639   26.3533  -15.4437 H   0  0  0  0  0  0  0  0  0  0  0  0
  -14.5223   26.2999  -17.1660 H   0  0  0  0  0  0  0  0  0  0  0  0
  -14.5578   27.4360  -15.7869 H   0  0  0  0  0  0  0  0  0  0  0  0
  -12.5105   23.7424  -13.0804 H   0  0  0  0  0  0  0  0  0  0  0  0
  -27.7263   25.1633  -18.5213 H   0  0  0  0  0  0  0  0  0  0  0  0
  -13.3005   28.7929  -17.0458 H   0  0  0  0  0  0  0  0  0  0  0  0
  -11.9557   27.5969  -16.7520 H   0  0  0  0  0  0  0  0  0  0  0  0
  -13.7649   21.9839  -11.8652 H   0  0  0  0  0  0  0  0  0  0  0  0
  -25.2790   25.3501  -17.4156 H   0  0  0  0  0  0  0  0  0  0  0  0
  -12.4438   26.5807  -18.8699 H   0  0  0  0  0  0  0  0  0  0  0  0
  -16.1055   22.4017  -11.1173 H   0  0  0  0  0  0  0  0  0  0  0  0
  -26.3543   26.7240  -19.6386 H   0  0  0  0  0  0  0  0  0  0  0  0
  -25.2616   27.8298  -18.7691 H   0  0  0  0  0  0  0  0  0  0  0  0
  -28.0117   33.4018  -14.9674 H   0  0  0  0  0  0  0  0  0  0  0  0
  -28.6305   33.5583  -13.3015 H   0  0  0  0  0  0  0  0  0  0  0  0
  -17.1198   24.6218  -11.4823 H   0  0  0  0  0  0  0  0  0  0  0  0
  -13.7162   28.5100  -21.6576 H   0  0  0  0  0  0  0  0  0  0  0  0
  -12.1025   27.7784  -21.2192 H   0  0  0  0  0  0  0  0  0  0  0  0
  -15.8914   26.3809  -12.7165 H   0  0  0  0  0  0  0  0  0  0  0  0
  -13.2020   25.9612  -22.1013 H   0  0  0  0  0  0  0  0  0  0  0  0
  -13.5721   25.8288  -20.3154 H   0  0  0  0  0  0  0  0  0  0  0  0
  -26.6787   29.6049  -17.6725 H   0  0  0  0  0  0  0  0  0  0  0  0
  -15.4765   26.6171  -22.4709 H   0  0  0  0  0  0  0  0  0  0  0  0
  -18.0792   25.3252  -20.6141 H   0  0  0  0  0  0  0  0  0  0  0  0
  -17.9680   25.2049  -22.7704 H   0  0  0  0  0  0  0  0  0  0  0  0
  -20.3873   27.8641  -20.7237 H   0  0  0  0  0  0  0  0  0  0  0  0
  -19.8288   27.3469  -19.1117 H   0  0  0  0  0  0  0  0  0  0  0  0
  -17.9565   27.6822  -18.4862 H   0  0  0  0  0  0  0  0  0  0  0  0
  -16.4551   27.7342  -19.4710 H   0  0  0  0  0  0  0  0  0  0  0  0
  -17.5783   29.1360  -19.4710 H   0  0  0  0  0  0  0  0  0  0  0  0
  -18.3574   29.4630  -21.3572 H   0  0  0  0  0  0  0  0  0  0  0  0
  -17.4119   28.3362  -22.3881 H   0  0  0  0  0  0  0  0  0  0  0  0
  -19.2067   28.2620  -22.3881 H   0  0  0  0  0  0  0  0  0  0  0  0
  1  7  2  0
  1 35  1  0
  2  3  2  0
  3  8  1  1
  3 15  1  0
  3 31  1  0
  4  6  1  0
  4 10  1  0
  4 27  2  0
  5 11  1  0
  5 25  1  0
  5 47  1  0
  6 13  1  0
  7 14  1  0
  9 15  1  0
  9 22  1  6
  9 28  2  0
  9 37  1  0
 10 16  2  0
 10 42  1  0
 11 12  1  0
 11 17  1  0
 13 20  1  0
 14 21  2  0
 16 23  1  0
 17 18  1  0
 17 24  1  0
 18 19  1  0
 19 41  1  1
 19 45  2  0
 19 48  1  0
 20 26  1  0
 21 32  1  0
 21 47  1  0
 23 29  2  0
 24 25  1  0
 24 30  1  0
 26 33  1  0
 29 38  1  0
 30 31  1  0
 32 35  2  0
 32 40  1  0
 33 34  2  0
 33 39  1  0
 35 36  1  0
 37 54  1  0
 38 42  2  0
 39 43  1  0
 40 44  2  0
 43 46  1  0
 44 47  1  0
 46 49  1  0
 49 50  2  0
 49 51  1  0
 51 52  1  0
 51 53  1  0
 53 54  1  1
 53 55  1  0
 53 56  1  0
  5 57  1  1
  7 58  1  0
 11 59  1  6
 12 60  1  0
 13 61  1  0
 13 62  1  0
 16 63  1  0
 17 64  1  6
 20 65  1  0
 20 66  1  0
 23 67  1  0
 24 68  1  1
 26 69  1  0
 29 70  1  0
 30 71  1  0
 30 72  1  0
 36 73  1  0
 36 74  1  0
 38 75  1  0
 39 76  1  0
 39 77  1  0
 42 78  1  0
 43 79  1  0
 43 80  1  0
 44 81  1  0
 46 82  1  0
 51 83  1  1
 52 84  1  0
 54 85  1  0
 54 86  1  0
 55 87  1  0
 55 88  1  0
 55 89  1  0
 56 90  1  0
 56 91  1  0
 56 92  1  0
M  CHG  4   8  -1  22  -1  41  -1  48  -1
M  END
>  <filename_input>  (1) 
7PK0_BYC_docked.sdf

>  <pdb_id>  (1) 
7PK0_BYC

>  <pose_rank>  (1) 
0

>  <num_atoms_heavy>  (1) 
56

>  <num_torsions>  (1) 
21

>  <pose>  (1) 
[-21.32526793992922, 25.482610975801496, -21.43323243803478, 4.489642068383083, 3.5189800540670855, 1.0965563446780378, 0.044813555404563735, 0.5224273486989226, -1.2842607538009516, 0.5027712781790286, -0.2349006882894858, -0.6350258248464242, 2.3776967222024386, -1.4361205139833733, 3.32555130493427, 4.875571143980549, 0.5568861649054733, -1.5400481964124166, -1.8474817931963619, 1.8743606965210582, 0.47736677868161864, -0.7084910256946386, 1.1979700371129953, 3.3611038417093737, -0.18887287764912047, -0.45849738716914085, 2.9024358492583566]

>  <energy>  (1) 
-1006.0698638634149

>  <inter_energy>  (1) 
-1018.5848880641563

>  <intra_energy>  (1) 
41.71860708463915

>  <rmsd>  (1) 
4.64499

>  <sdf_rank>  (1) 
0

$$$$

     RDKit          3D

 92 95  0  0  0  0  0  0  0  0999 V2000
  -25.6803   32.8912  -22.2075 N   0  0  0  0  0  0  0  0  0  0  0  0
  -24.9915   25.1894  -19.3554 O   0  0  0  0  0  0  0  0  0  0  0  0
  -23.9063   26.1532  -19.7288 P   0  0  2  0  0  0  0  0  0  0  0  0
  -13.1463   24.7825  -13.9848 C   0  0  0  0  0  0  0  0  0  0  0  0
  -25.5208   29.6755  -18.2036 C   0  0  1  0  0  0  0  0  0  0  0  0
  -13.5471   25.8120  -15.3849 S   0  0  0  0  0  0  0  0  0  0  0  0
  -26.6256   32.5067  -21.3364 C   0  0  0  0  0  0  0  0  0  0  0  0
  -24.1242   27.0765  -20.8916 O   0  0  0  0  0  0  0  0  0  0  0  0
  -21.8587   24.8105  -21.2514 P   0  0  1  0  0  0  0  0  0  0  0  0
  -14.2632   24.3627  -13.1093 C   0  0  0  0  0  0  0  0  0  0  0  0
  -26.4540   28.5236  -18.5503 C   0  0  2  0  0  0  0  0  0  0  0  0
  -27.7308   28.9948  -18.9332 O   0  0  0  0  0  0  0  0  0  0  0  0
  -12.1346   26.9370  -15.4344 C   0  0  0  0  0  0  0  0  0  0  0  0
  -26.5406   31.6376  -20.3266 N   0  0  0  0  0  0  0  0  0  0  0  0
  -22.4804   25.4624  -19.9215 O   0  0  0  0  0  0  0  0  0  0  0  0
  -14.0385   24.3330  -11.7380 C   0  0  0  0  0  0  0  0  0  0  0  0
  -26.4491   27.7542  -17.2386 C   0  0  2  0  0  0  0  0  0  0  0  0
  -27.3352   28.4233  -16.3354 O   0  0  0  0  0  0  0  0  0  0  0  0
  -28.5058   27.4603  -15.7473 P   0  0  1  0  0  0  0  0  0  0  0  0
  -11.5170   26.8531  -16.7947 C   0  0  0  0  0  0  0  0  0  0  0  0
  -25.2920   31.1426  -20.2501 C   0  0  0  0  0  0  0  0  0  0  0  0
  -20.9798   23.6541  -20.8821 O   0  0  0  0  0  0  0  0  0  0  0  0
  -15.0205   23.8787  -10.8711 C   0  0  0  0  0  0  0  0  0  0  0  0
  -24.9992   27.9037  -16.7408 C   0  0  2  0  0  0  0  0  0  0  0  0
  -24.5396   29.1534  -17.3247 O   0  0  0  0  0  0  0  0  0  0  0  0
  -12.4669   27.0634  -17.8608 N   0  0  0  0  0  0  0  0  0  0  0  0
  -12.0065   24.3714  -13.8693 O   0  0  0  0  0  0  0  0  0  0  0  0
  -22.9831   24.6152  -22.2023 O   0  0  0  0  0  0  0  0  0  0  0  0
  -16.2452   23.4467  -11.3632 C   0  0  0  0  0  0  0  0  0  0  0  0
  -24.0290   26.7990  -17.1241 C   0  0  0  0  0  0  0  0  0  0  0  0
  -23.5698   27.0738  -18.4620 O   0  0  0  0  0  0  0  0  0  0  0  0
  -24.2298   31.4288  -21.0800 C   0  0  0  0  0  0  0  0  0  0  0  0
  -12.2804   26.6984  -19.1434 C   0  0  0  0  0  0  0  0  0  0  0  0
  -11.2071   26.2530  -19.5216 O   0  0  0  0  0  0  0  0  0  0  0  0
  -24.4437   32.3410  -22.1275 C   0  0  0  0  0  0  0  0  0  0  0  0
  -23.4836   32.7567  -22.9565 N   0  0  0  0  0  0  0  0  0  0  0  0
  -20.8840   25.9619  -21.7895 O   0  0  0  0  0  0  0  0  0  0  0  0
  -16.4843   23.5087  -12.7091 C   0  0  0  0  0  0  0  0  0  0  0  0
  -13.3870   27.0105  -20.1371 C   0  0  0  0  0  0  0  0  0  0  0  0
  -23.0966   30.7262  -20.6847 N   0  0  0  0  0  0  0  0  0  0  0  0
  -29.4728   28.3610  -14.8834 O   0  0  0  0  0  0  0  0  0  0  0  0
  -15.5060   23.9545  -13.5851 C   0  0  0  0  0  0  0  0  0  0  0  0
  -14.7359   27.3001  -19.4704 C   0  0  0  0  0  0  0  0  0  0  0  0
  -23.4936   30.0551  -19.6404 C   0  0  0  0  0  0  0  0  0  0  0  0
  -29.2273   26.8623  -16.9438 O   0  0  0  0  0  0  0  0  0  0  0  0
  -15.7848   27.6898  -20.4106 N   0  0  0  0  0  0  0  0  0  0  0  0
  -24.8173   30.2374  -19.3340 N   0  0  0  0  0  0  0  0  0  0  0  0
  -27.8702   26.4352  -14.8834 O   0  0  0  0  0  0  0  0  0  0  0  0
  -16.3667   26.8645  -21.2648 C   0  0  0  0  0  0  0  0  0  0  0  0
  -16.0676   25.6703  -21.3438 O   0  0  0  0  0  0  0  0  0  0  0  0
  -17.5007   27.4385  -22.1005 C   0  0  2  0  0  0  0  0  0  0  0  0
  -17.2266   28.8028  -22.3581 O   0  0  0  0  0  0  0  0  0  0  0  0
  -18.9047   27.2944  -21.4829 C   0  0  1  0  0  0  0  0  0  0  0  0
  -19.4503   25.8742  -21.5365 C   0  0  0  0  0  0  0  0  0  0  0  0
  -18.8537   27.7390  -20.0065 C   0  0  0  0  0  0  0  0  0  0  0  0
  -19.8910   28.1862  -22.2483 C   0  0  0  0  0  0  0  0  0  0  0  0
  -26.1393   30.4795  -17.7781 H   0  0  0  0  0  0  0  0  0  0  0  0
  -27.6116   32.9745  -21.4740 H   0  0  0  0  0  0  0  0  0  0  0  0
  -26.1524   27.9097  -19.4118 H   0  0  0  0  0  0  0  0  0  0  0  0
  -28.2660   29.1923  -18.1241 H   0  0  0  0  0  0  0  0  0  0  0  0
  -12.4715   27.9662  -15.2413 H   0  0  0  0  0  0  0  0  0  0  0  0
  -11.3993   26.6575  -14.6655 H   0  0  0  0  0  0  0  0  0  0  0  0
  -13.0725   24.6732  -11.3368 H   0  0  0  0  0  0  0  0  0  0  0  0
  -26.7621   26.7035  -17.3285 H   0  0  0  0  0  0  0  0  0  0  0  0
  -10.7306   27.6185  -16.8702 H   0  0  0  0  0  0  0  0  0  0  0  0
  -11.1136   25.8362  -16.9101 H   0  0  0  0  0  0  0  0  0  0  0  0
  -14.8286   23.8602   -9.7882 H   0  0  0  0  0  0  0  0  0  0  0  0
  -25.0142   27.8638  -15.6417 H   0  0  0  0  0  0  0  0  0  0  0  0
  -13.3548   27.5278  -17.6224 H   0  0  0  0  0  0  0  0  0  0  0  0
  -17.0143   23.0593  -10.6788 H   0  0  0  0  0  0  0  0  0  0  0  0
  -23.1768   26.7890  -16.4287 H   0  0  0  0  0  0  0  0  0  0  0  0
  -24.5209   25.8162  -17.0766 H   0  0  0  0  0  0  0  0  0  0  0  0
  -22.5416   32.3436  -22.9019 H   0  0  0  0  0  0  0  0  0  0  0  0
  -23.6847   33.4905  -23.6507 H   0  0  0  0  0  0  0  0  0  0  0  0
  -17.4649   23.2009  -13.1012 H   0  0  0  0  0  0  0  0  0  0  0  0
  -13.0910   27.8926  -20.7239 H   0  0  0  0  0  0  0  0  0  0  0  0
  -13.5198   26.1190  -20.7677 H   0  0  0  0  0  0  0  0  0  0  0  0
  -15.7139   23.9858  -14.6648 H   0  0  0  0  0  0  0  0  0  0  0  0
  -15.0635   26.3930  -18.9412 H   0  0  0  0  0  0  0  0  0  0  0  0
  -14.5821   28.1506  -18.7900 H   0  0  0  0  0  0  0  0  0  0  0  0
  -22.8272   29.4019  -19.0579 H   0  0  0  0  0  0  0  0  0  0  0  0
  -16.0914   28.6731  -20.4079 H   0  0  0  0  0  0  0  0  0  0  0  0
  -17.5341   26.8445  -23.0257 H   0  0  0  0  0  0  0  0  0  0  0  0
  -17.1293   29.2875  -21.5004 H   0  0  0  0  0  0  0  0  0  0  0  0
  -19.2690   25.3663  -20.5778 H   0  0  0  0  0  0  0  0  0  0  0  0
  -18.9524   25.2988  -22.3308 H   0  0  0  0  0  0  0  0  0  0  0  0
  -18.9546   26.8586  -19.3548 H   0  0  0  0  0  0  0  0  0  0  0  0
  -17.8928   28.2354  -19.8060 H   0  0  0  0  0  0  0  0  0  0  0  0
  -19.6774   28.4399  -19.8060 H   0  0  0  0  0  0  0  0  0  0  0  0
  -20.5105   28.7463  -21.5324 H   0  0  0  0  0  0  0  0  0  0  0  0
  -19.3325   28.8920  -22.8807 H   0  0  0  0  0  0  0  0  0  0  0  0
  -20.5372   27.5596  -22.8807 H   0  0  0  0  0  0  0  0  0  0  0  0
  1  7  2  0
  1 35  1  0
  2  3  2  0
  3  8  1  6
  3 15  1  0
  3 31  1  0
  4  6  1  0
  4 10  1  0
  4 27  2  0
  5 11  1  0
  5 25  1  0
  5 47  1  0
  6 13  1  0
  7 14  1  0
  9 15  1  0
  9 22  1  1
  9 28  2  0
  9 37  1  0
 10 16  2  0
 10 42  1  0
 11 12  1  0
 11 17  1  0
 13 20  1  0
 14 21  2  0
 16 23  1  0
 17 18  1  0
 17 24  1  0
 18 19  1  0
 19 41  1  1
 19 45  2  0
 19 48  1  0
 20 26  1  0
 21 32  1  0
 21 47  1  0
 23 29  2  0
 24 25  1  0
 24 30  1  0
 26 33  1  0
 29 38  1  0
 30 31  1  0
 32 35  2  0
 32 40  1  0
 33 34  2  0
 33 39  1  0
 35 36  1  0
 37 54  1  0
 38 42  2  0
 39 43  1  0
 40 44  2  0
 43 46  1  0
 44 47  1  0
 46 49  1  0
 49 50  2  0
 49 51  1  0
 51 52  1  0
 51 53  1  0
 53 54  1  1
 53 55  1  0
 53 56  1  0
  5 57  1  1
  7 58  1  0
 11 59  1  6
 12 60  1  0
 13 61  1  0
 13 62  1  0
 16 63  1  0
 17 64  1  6
 20 65  1  0
 20 66  1  0
 23 67  1  0
 24 68  1  1
 26 69  1  0
 29 70  1  0
 30 71  1  0
 30 72  1  0
 36 73  1  0
 36 74  1  0
 38 75  1  0
 39 76  1  0
 39 77  1  0
 42 78  1  0
 43 79  1  0
 43 80  1  0
 44 81  1  0
 46 82  1  0
 51 83  1  6
 52 84  1  0
 54 85  1  0
 54 86  1  0
 55 87  1  0
 55 88  1  0
 55 89  1  0
 56 90  1  0
 56 91  1  0
 56 92  1  0
M  CHG  4   8  -1  22  -1  41  -1  48  -1
M  END
>  <filename_input>  (2) 
7PK0_BYC_docked.sdf

>  <pdb_id>  (2) 
7PK0_BYC

>  <pose_rank>  (2) 
1

>  <num_atoms_heavy>  (2) 
56

>  <num_torsions>  (2) 
21

>  <pose>  (2) 
[-21.85873900413702, 24.810530618121664, -21.251434342178243, -0.5644762370556047, 0.5260228693480378, 0.7179243450969004, 2.597809870158329, 6.356191899811467, -3.648350601535513, -4.626072398899961, 6.215125749277444, 2.3785980343356803, -2.315764522587313, 3.62178830156088, -1.439166053302163, -2.34209526139084, 0.7287237093569007, -1.0275802592526406, 0.9019227184026614, -1.7611086814241839, -0.1839594699424789, -0.39609409202023904, 0.9946938408678359, 0.5549983287602919, -0.6960363774738655, -0.3808831246090959, -4.067660040133621]

>  <energy>  (2) 
-974.1696946954639

>  <inter_energy>  (2) 
-1020.3108005304764

>  <intra_energy>  (2) 
43.98043497264344

>  <rmsd>  (2) 
1.74775

>  <sdf_rank>  (2) 
0

$$$$

     RDKit          3D

 92 95  0  0  0  0  0  0  0  0999 V2000
  -13.7725   24.0536  -13.3539 N   0  0  0  0  0  0  0  0  0  0  0  0
  -17.2771   26.9107  -21.8388 O   0  0  0  0  0  0  0  0  0  0  0  0
  -17.7781   26.0705  -20.7035 P   0  0  2  0  0  0  0  0  0  0  0  0
  -24.7650   31.9218  -22.9908 C   0  0  0  0  0  0  0  0  0  0  0  0
  -13.5277   27.7176  -16.9474 C   0  0  1  0  0  0  0  0  0  0  0  0
  -24.6719   30.8892  -21.5396 S   0  0  0  0  0  0  0  0  0  0  0  0
  -13.8873   23.9995  -14.6896 C   0  0  0  0  0  0  0  0  0  0  0  0
  -17.3904   24.6218  -20.6465 O   0  0  0  0  0  0  0  0  0  0  0  0
  -20.5216   25.6260  -21.4713 P   0  0  1  0  0  0  0  0  0  0  0  0
  -23.5069   32.5394  -23.4661 C   0  0  0  0  0  0  0  0  0  0  0  0
  -12.9712   26.6121  -17.8339 C   0  0  2  0  0  0  0  0  0  0  0  0
  -11.5644   26.7006  -17.9427 O   0  0  0  0  0  0  0  0  0  0  0  0
  -24.9073   32.0922  -20.2127 C   0  0  0  0  0  0  0  0  0  0  0  0
  -13.8482   24.9919  -15.5819 N   0  0  0  0  0  0  0  0  0  0  0  0
  -19.3586   26.1557  -20.4981 O   0  0  0  0  0  0  0  0  0  0  0  0
  -22.4554   31.6954  -23.8035 C   0  0  0  0  0  0  0  0  0  0  0  0
  -13.7088   26.8964  -19.1331 C   0  0  2  0  0  0  0  0  0  0  0  0
  -13.0451   27.9847  -19.7840 O   0  0  0  0  0  0  0  0  0  0  0  0
  -13.1283   27.9145  -21.4061 P   0  0  1  0  0  0  0  0  0  0  0  0
  -26.3729   32.1962  -19.9300 C   0  0  0  0  0  0  0  0  0  0  0  0
  -13.6528   26.1661  -14.9549 C   0  0  0  0  0  0  0  0  0  0  0  0
  -20.3090   26.1686  -22.8521 O   0  0  0  0  0  0  0  0  0  0  0  0
  -21.2276   32.2145  -24.1847 C   0  0  0  0  0  0  0  0  0  0  0  0
  -15.1023   27.3525  -18.6617 C   0  0  2  0  0  0  0  0  0  0  0  0
  -14.8750   27.9140  -17.3399 O   0  0  0  0  0  0  0  0  0  0  0  0
  -26.7674   31.5019  -18.7277 N   0  0  0  0  0  0  0  0  0  0  0  0
  -25.8190   31.9842  -23.5965 O   0  0  0  0  0  0  0  0  0  0  0  0
  -20.6286   24.1599  -21.2574 O   0  0  0  0  0  0  0  0  0  0  0  0
  -21.0322   33.5885  -24.2351 C   0  0  0  0  0  0  0  0  0  0  0  0
  -16.1731   26.2794  -18.5595 C   0  0  0  0  0  0  0  0  0  0  0  0
  -17.3097   26.7309  -19.3215 O   0  0  0  0  0  0  0  0  0  0  0  0
  -13.5352   26.3769  -13.5982 C   0  0  0  0  0  0  0  0  0  0  0  0
  -27.5021   30.3741  -18.6940 C   0  0  0  0  0  0  0  0  0  0  0  0
  -27.9965   29.9139  -19.7125 O   0  0  0  0  0  0  0  0  0  0  0  0
  -13.6180   25.2583  -12.7514 C   0  0  0  0  0  0  0  0  0  0  0  0
  -13.4504   25.3158  -11.4284 N   0  0  0  0  0  0  0  0  0  0  0  0
  -21.8259   26.3569  -20.8971 O   0  0  0  0  0  0  0  0  0  0  0  0
  -22.0753   34.4233  -23.9393 C   0  0  0  0  0  0  0  0  0  0  0  0
  -27.8342   29.7850  -17.3330 C   0  0  0  0  0  0  0  0  0  0  0  0
  -13.3373   27.7267  -13.3280 N   0  0  0  0  0  0  0  0  0  0  0  0
  -14.3952   28.7437  -21.8534 O   0  0  0  0  0  0  0  0  0  0  0  0
  -23.3049   33.9140  -23.5498 C   0  0  0  0  0  0  0  0  0  0  0  0
  -26.6991   28.9395  -16.7457 C   0  0  0  0  0  0  0  0  0  0  0  0
  -13.3303   28.2834  -14.5063 C   0  0  0  0  0  0  0  0  0  0  0  0
  -11.8459   28.5307  -21.9406 O   0  0  0  0  0  0  0  0  0  0  0  0
  -25.6338   28.6408  -17.7007 N   0  0  0  0  0  0  0  0  0  0  0  0
  -13.5415   27.4042  -15.5368 N   0  0  0  0  0  0  0  0  0  0  0  0
  -13.2948   26.4936  -21.7991 O   0  0  0  0  0  0  0  0  0  0  0  0
  -25.4160   27.4474  -18.2276 C   0  0  0  0  0  0  0  0  0  0  0  0
  -26.1067   26.4631  -17.9522 O   0  0  0  0  0  0  0  0  0  0  0  0
  -24.3138   27.3555  -19.2718 C   0  0  2  0  0  0  0  0  0  0  0  0
  -24.8656   26.8363  -20.4672 O   0  0  0  0  0  0  0  0  0  0  0  0
  -23.0879   26.5204  -18.8556 C   0  0  1  0  0  0  0  0  0  0  0  0
  -21.8024   26.9345  -19.5581 C   0  0  0  0  0  0  0  0  0  0  0  0
  -22.8759   26.6607  -17.3339 C   0  0  0  0  0  0  0  0  0  0  0  0
  -23.3360   25.0461  -19.2003 C   0  0  0  0  0  0  0  0  0  0  0  0
  -12.8780   28.5960  -17.0751 H   0  0  0  0  0  0  0  0  0  0  0  0
  -14.0346   22.9936  -15.1097 H   0  0  0  0  0  0  0  0  0  0  0  0
  -13.1232   25.5862  -17.4671 H   0  0  0  0  0  0  0  0  0  0  0  0
  -11.1644   26.7257  -17.0374 H   0  0  0  0  0  0  0  0  0  0  0  0
  -24.3766   31.7583  -19.3089 H   0  0  0  0  0  0  0  0  0  0  0  0
  -24.5079   33.0721  -20.5132 H   0  0  0  0  0  0  0  0  0  0  0  0
  -22.5987   30.6054  -23.7678 H   0  0  0  0  0  0  0  0  0  0  0  0
  -13.7519   26.0429  -19.8256 H   0  0  0  0  0  0  0  0  0  0  0  0
  -26.6343   33.2593  -19.8224 H   0  0  0  0  0  0  0  0  0  0  0  0
  -26.9037   31.7251  -20.7705 H   0  0  0  0  0  0  0  0  0  0  0  0
  -20.4042   31.5345  -24.4486 H   0  0  0  0  0  0  0  0  0  0  0  0
  -15.5031   28.0458  -19.4157 H   0  0  0  0  0  0  0  0  0  0  0  0
  -26.4639   31.8994  -17.8273 H   0  0  0  0  0  0  0  0  0  0  0  0
  -20.0501   34.0010  -24.5097 H   0  0  0  0  0  0  0  0  0  0  0  0
  -15.7963   25.3318  -18.9720 H   0  0  0  0  0  0  0  0  0  0  0  0
  -16.4526   26.1083  -17.5094 H   0  0  0  0  0  0  0  0  0  0  0  0
  -13.3324   26.2273  -10.9634 H   0  0  0  0  0  0  0  0  0  0  0  0
  -13.4390   24.4487  -10.8726 H   0  0  0  0  0  0  0  0  0  0  0  0
  -21.9367   35.5121  -24.0114 H   0  0  0  0  0  0  0  0  0  0  0  0
  -28.0503   30.6102  -16.6386 H   0  0  0  0  0  0  0  0  0  0  0  0
  -28.6998   29.1198  -17.4681 H   0  0  0  0  0  0  0  0  0  0  0  0
  -24.1275   34.6021  -23.3050 H   0  0  0  0  0  0  0  0  0  0  0  0
  -26.2617   29.4867  -15.8975 H   0  0  0  0  0  0  0  0  0  0  0  0
  -27.1385   27.9776  -16.4431 H   0  0  0  0  0  0  0  0  0  0  0  0
  -13.1695   29.3607  -14.6601 H   0  0  0  0  0  0  0  0  0  0  0  0
  -25.0110   29.4113  -17.9822 H   0  0  0  0  0  0  0  0  0  0  0  0
  -23.9298   28.3775  -19.4067 H   0  0  0  0  0  0  0  0  0  0  0  0
  -25.5684   26.1750  -20.2462 H   0  0  0  0  0  0  0  0  0  0  0  0
  -20.9323   26.5561  -19.0016 H   0  0  0  0  0  0  0  0  0  0  0  0
  -21.7272   28.0306  -19.6114 H   0  0  0  0  0  0  0  0  0  0  0  0
  -23.6787   26.1298  -16.8014 H   0  0  0  0  0  0  0  0  0  0  0  0
  -21.9035   26.2269  -17.0577 H   0  0  0  0  0  0  0  0  0  0  0  0
  -22.8943   27.7253  -17.0577 H   0  0  0  0  0  0  0  0  0  0  0  0
  -23.4340   24.4640  -18.2721 H   0  0  0  0  0  0  0  0  0  0  0  0
  -24.2616   24.9577  -19.7879 H   0  0  0  0  0  0  0  0  0  0  0  0
  -22.4903   24.6596  -19.7879 H   0  0  0  0  0  0  0  0  0  0  0  0
  1  7  2  0
  1 35  1  0
  2  3  2  0
  3  8  1  6
  3 15  1  0
  3 31  1  0
  4  6  1  0
  4 10  1  0
  4 27  2  0
  5 11  1  0
  5 25  1  0
  5 47  1  0
  6 13  1  0
  7 14  1  0
  9 15  1  0
  9 22  1  6
  9 28  2  0
  9 37  1  0
 10 16  2  0
 10 42  1  0
 11 12  1  0
 11 17  1  0
 13 20  1  0
 14 21  2  0
 16 23  1  0
 17 18  1  0
 17 24  1  0
 18 19  1  0
 19 41  1  6
 19 45  2  0
 19 48  1  0
 20 26  1  0
 21 32  1  0
 21 47  1  0
 23 29  2  0
 24 25  1  0
 24 30  1  0
 26 33  1  0
 29 38  1  0
 30 31  1  0
 32 35  2  0
 32 40  1  0
 33 34  2  0
 33 39  1  0
 35 36  1  0
 37 54  1  0
 38 42  2  0
 39 43  1  0
 40 44  2  0
 43 46  1  0
 44 47  1  0
 46 49  1  0
 49 50  2  0
 49 51  1  0
 51 52  1  0
 51 53  1  0
 53 54  1  6
 53 55  1  0
 53 56  1  0
  5 57  1  1
  7 58  1  0
 11 59  1  1
 12 60  1  0
 13 61  1  0
 13 62  1  0
 16 63  1  0
 17 64  1  6
 20 65  1  0
 20 66  1  0
 23 67  1  0
 24 68  1  6
 26 69  1  0
 29 70  1  0
 30 71  1  0
 30 72  1  0
 36 73  1  0
 36 74  1  0
 38 75  1  0
 39 76  1  0
 39 77  1  0
 42 78  1  0
 43 79  1  0
 43 80  1  0
 44 81  1  0
 46 82  1  0
 51 83  1  6
 52 84  1  0
 54 85  1  0
 54 86  1  0
 55 87  1  0
 55 88  1  0
 55 89  1  0
 56 90  1  0
 56 91  1  0
 56 92  1  0
M  CHG  4   8  -1  22  -1  41  -1  48  -1
M  END
>  <filename_input>  (3) 
7PK0_BYC_docked.sdf

>  <pdb_id>  (3) 
7PK0_BYC

>  <pose_rank>  (3) 
2

>  <num_atoms_heavy>  (3) 
56

>  <num_torsions>  (3) 
21

>  <pose>  (3) 
[-20.52156880703816, 25.62597775354672, -21.471262325768468, -0.30870748464526304, -1.5697204298086362, -2.8954944900228172, -665.4689731878303, -263.5229674260197, 242.51726796488498, 63.094210748454515, -9.069511924037885, -0.7645419309318863, 50.95942312093547, 27.645203506662792, 30.872515061062092, 4.8234356174165995, -12.438955883227587, 10.59555070637422, 4.384095193206805, -370.81991276068527, -597.4556074720305, -322.79907103280436, -686.251844407685, -160.17166056090343, -40.30554714161802, 18.903108582755394, -5.6871584788767935]

>  <energy>  (3) 
-872.3017792652047

>  <inter_energy>  (3) 
-903.9969487287458

>  <intra_energy>  (3) 
38.005693126366225

>  <rmsd>  (3) 
12.4855

>  <sdf_rank>  (3) 
0

$$$$

     RDKit          3D

 92 95  0  0  0  0  0  0  0  0999 V2000
  -28.5185   34.3295  -12.7117 N   0  0  0  0  0  0  0  0  0  0  0  0
  -23.1869   29.3652  -19.5008 O   0  0  0  0  0  0  0  0  0  0  0  0
  -23.6057   28.1308  -18.7613 P   0  0  2  0  0  0  0  0  0  0  0  0
  -13.3124   25.7066  -13.5511 C   0  0  0  0  0  0  0  0  0  0  0  0
  -27.9938   30.0067  -15.4384 C   0  0  1  0  0  0  0  0  0  0  0  0
  -12.4032   25.1157  -14.9671 S   0  0  0  0  0  0  0  0  0  0  0  0
  -28.2569   33.0677  -12.3382 C   0  0  0  0  0  0  0  0  0  0  0  0
  -23.0578   27.8881  -17.3854 O   0  0  0  0  0  0  0  0  0  0  0  0
  -22.4493   26.5314  -20.8633 P   0  0  1  0  0  0  0  0  0  0  0  0
  -14.2571   24.7650  -12.9100 C   0  0  0  0  0  0  0  0  0  0  0  0
  -28.8157   29.1538  -16.3949 C   0  0  2  0  0  0  0  0  0  0  0  0
  -30.0229   28.7279  -15.7948 O   0  0  0  0  0  0  0  0  0  0  0  0
  -13.3308   25.8459  -16.3345 C   0  0  0  0  0  0  0  0  0  0  0  0
  -28.1623   31.9670  -13.0878 N   0  0  0  0  0  0  0  0  0  0  0  0
  -23.4105   26.7884  -19.6023 O   0  0  0  0  0  0  0  0  0  0  0  0
  -15.2427   25.2940  -12.0850 C   0  0  0  0  0  0  0  0  0  0  0  0
  -27.8360   28.0254  -16.6769 C   0  0  2  0  0  0  0  0  0  0  0  0
  -27.8776   27.1221  -15.5673 O   0  0  0  0  0  0  0  0  0  0  0  0
  -28.1001   25.5721  -16.0045 P   0  0  1  0  0  0  0  0  0  0  0  0
  -12.5219   26.9701  -16.9010 C   0  0  0  0  0  0  0  0  0  0  0  0
  -28.3632   32.2740  -14.3822 C   0  0  0  0  0  0  0  0  0  0  0  0
  -22.9149   25.3201  -21.6131 O   0  0  0  0  0  0  0  0  0  0  0  0
  -16.1111   24.4598  -11.3977 C   0  0  0  0  0  0  0  0  0  0  0  0
  -26.4702   28.7363  -16.7097 C   0  0  2  0  0  0  0  0  0  0  0  0
  -26.6442   29.9010  -15.8569 O   0  0  0  0  0  0  0  0  0  0  0  0
  -12.6910   27.1262  -18.3258 N   0  0  0  0  0  0  0  0  0  0  0  0
  -13.0405   26.8035  -13.0986 O   0  0  0  0  0  0  0  0  0  0  0  0
  -22.3050   27.8312  -21.5677 O   0  0  0  0  0  0  0  0  0  0  0  0
  -16.0075   23.0809  -11.5258 C   0  0  0  0  0  0  0  0  0  0  0  0
  -25.9728   29.1961  -18.0697 C   0  0  0  0  0  0  0  0  0  0  0  0
  -25.2023   28.1172  -18.6341 O   0  0  0  0  0  0  0  0  0  0  0  0
  -28.6567   33.5130  -14.9090 C   0  0  0  0  0  0  0  0  0  0  0  0
  -13.8745   27.1151  -18.9680 C   0  0  0  0  0  0  0  0  0  0  0  0
  -14.9095   26.8471  -18.3761 O   0  0  0  0  0  0  0  0  0  0  0  0
  -28.7571   34.5964  -14.0194 C   0  0  0  0  0  0  0  0  0  0  0  0
  -28.9659   35.8567  -14.4064 N   0  0  0  0  0  0  0  0  0  0  0  0
  -21.0606   26.1276  -20.1751 O   0  0  0  0  0  0  0  0  0  0  0  0
  -15.0625   22.5566  -12.3653 C   0  0  0  0  0  0  0  0  0  0  0  0
  -13.8628   27.2828  -20.4784 C   0  0  0  0  0  0  0  0  0  0  0  0
  -28.7914   33.4379  -16.2911 N   0  0  0  0  0  0  0  0  0  0  0  0
  -28.2110   25.5336  -17.5790 O   0  0  0  0  0  0  0  0  0  0  0  0
  -14.1845   23.3822  -13.0512 C   0  0  0  0  0  0  0  0  0  0  0  0
  -14.6421   28.5122  -20.9574 C   0  0  0  0  0  0  0  0  0  0  0  0
  -28.5697   32.1818  -16.5588 C   0  0  0  0  0  0  0  0  0  0  0  0
  -26.8874   24.7976  -15.5155 O   0  0  0  0  0  0  0  0  0  0  0  0
  -16.0766   28.2766  -21.1087 N   0  0  0  0  0  0  0  0  0  0  0  0
  -28.3294   31.4122  -15.4500 N   0  0  0  0  0  0  0  0  0  0  0  0
  -29.3703   25.0995  -15.4008 O   0  0  0  0  0  0  0  0  0  0  0  0
  -16.6012   27.2184  -21.7039 C   0  0  0  0  0  0  0  0  0  0  0  0
  -15.9108   26.3210  -22.1936 O   0  0  0  0  0  0  0  0  0  0  0  0
  -18.1181   27.1084  -21.6833 C   0  0  2  0  0  0  0  0  0  0  0  0
  -18.6640   28.4078  -21.5547 O   0  0  0  0  0  0  0  0  0  0  0  0
  -18.6913   26.1894  -20.5877 C   0  0  1  0  0  0  0  0  0  0  0  0
  -20.0033   25.5228  -20.9773 C   0  0  0  0  0  0  0  0  0  0  0  0
  -17.6627   25.0852  -20.2673 C   0  0  0  0  0  0  0  0  0  0  0  0
  -18.9622   27.0140  -19.3225 C   0  0  0  0  0  0  0  0  0  0  0  0
  -28.1908   29.6377  -14.4211 H   0  0  0  0  0  0  0  0  0  0  0  0
  -28.0975   32.9187  -11.2600 H   0  0  0  0  0  0  0  0  0  0  0  0
  -29.1629   29.6618  -17.3067 H   0  0  0  0  0  0  0  0  0  0  0  0
  -29.9310   28.7603  -14.8096 H   0  0  0  0  0  0  0  0  0  0  0  0
  -13.5087   25.0872  -17.1108 H   0  0  0  0  0  0  0  0  0  0  0  0
  -14.3022   26.2190  -15.9780 H   0  0  0  0  0  0  0  0  0  0  0  0
  -15.3346   26.3847  -11.9762 H   0  0  0  0  0  0  0  0  0  0  0  0
  -28.0457   27.4634  -17.5990 H   0  0  0  0  0  0  0  0  0  0  0  0
  -12.8272   27.9046  -16.4075 H   0  0  0  0  0  0  0  0  0  0  0  0
  -11.4624   26.7363  -16.7197 H   0  0  0  0  0  0  0  0  0  0  0  0
  -16.8860   24.8924  -10.7479 H   0  0  0  0  0  0  0  0  0  0  0  0
  -25.7062   28.0139  -16.3864 H   0  0  0  0  0  0  0  0  0  0  0  0
  -11.8421   27.2560  -18.8945 H   0  0  0  0  0  0  0  0  0  0  0  0
  -16.6773   22.4176  -10.9588 H   0  0  0  0  0  0  0  0  0  0  0  0
  -26.8264   29.4303  -18.7228 H   0  0  0  0  0  0  0  0  0  0  0  0
  -25.3578   30.1029  -17.9721 H   0  0  0  0  0  0  0  0  0  0  0  0
  -29.1478   36.0676  -15.3981 H   0  0  0  0  0  0  0  0  0  0  0  0
  -28.9452   36.6184  -13.7134 H   0  0  0  0  0  0  0  0  0  0  0  0
  -14.9986   21.4665  -12.4978 H   0  0  0  0  0  0  0  0  0  0  0  0
  -12.8188   27.3797  -20.8109 H   0  0  0  0  0  0  0  0  0  0  0  0
  -14.3541   26.3975  -20.9084 H   0  0  0  0  0  0  0  0  0  0  0  0
  -13.4244   22.9406  -13.7125 H   0  0  0  0  0  0  0  0  0  0  0  0
  -14.4983   29.3210  -20.2259 H   0  0  0  0  0  0  0  0  0  0  0  0
  -14.2524   28.7719  -21.9527 H   0  0  0  0  0  0  0  0  0  0  0  0
  -28.5749   31.7761  -17.5812 H   0  0  0  0  0  0  0  0  0  0  0  0
  -16.7223   28.9821  -20.7262 H   0  0  0  0  0  0  0  0  0  0  0  0
  -18.4066   26.6339  -22.6328 H   0  0  0  0  0  0  0  0  0  0  0  0
  -18.7584   28.6326  -20.5952 H   0  0  0  0  0  0  0  0  0  0  0  0
  -19.9500   24.4429  -20.7749 H   0  0  0  0  0  0  0  0  0  0  0  0
  -20.2041   25.6627  -22.0498 H   0  0  0  0  0  0  0  0  0  0  0  0
  -17.5650   24.9803  -19.1766 H   0  0  0  0  0  0  0  0  0  0  0  0
  -18.0020   24.1317  -20.6983 H   0  0  0  0  0  0  0  0  0  0  0  0
  -16.6876   25.3561  -20.6983 H   0  0  0  0  0  0  0  0  0  0  0  0
  -18.7601   26.3986  -18.4334 H   0  0  0  0  0  0  0  0  0  0  0  0
  -18.3072   27.8976  -19.3135 H   0  0  0  0  0  0  0  0  0  0  0  0
  -20.0137   27.3369  -19.3135 H   0  0  0  0  0  0  0  0  0  0  0  0
  1  7  2  0
  1 35  1  0
  2  3  2  0
  3  8  1  1
  3 15  1  0
  3 31  1  0
  4  6  1  0
  4 10  1  0
  4 27  2  0
  5 11  1  0
  5 25  1  0
  5 47  1  0
  6 13  1  0
  7 14  1  0
  9 15  1  0
  9 22  1  6
  9 28  2  0
  9 37  1  0
 10 16  2  0
 10 42  1  0
 11 12  1  0
 11 17  1  0
 13 20  1  0
 14 21  2  0
 16 23  1  0
 17 18  1  0
 17 24  1  0
 18 19  1  0
 19 41  1  6
 19 45  2  0
 19 48  1  0
 20 26  1  0
 21 32  1  0
 21 47  1  0
 23 29  2  0
 24 25  1  0
 24 30  1  0
 26 33  1  0
 29 38  1  0
 30 31  1  0
 32 35  2  0
 32 40  1  0
 33 34  2  0
 33 39  1  0
 35 36  1  0
 37 54  1  0
 38 42  2  0
 39 43  1  0
 40 44  2  0
 43 46  1  0
 44 47  1  0
 46 49  1  0
 49 50  2  0
 49 51  1  0
 51 52  1  0
 51 53  1  0
 53 54  1  6
 53 55  1  0
 53 56  1  0
  5 57  1  1
  7 58  1  0
 11 59  1  6
 12 60  1  0
 13 61  1  0
 13 62  1  0
 16 63  1  0
 17 64  1  6
 20 65  1  0
 20 66  1  0
 23 67  1  0
 24 68  1  1
 26 69  1  0
 29 70  1  0
 30 71  1  0
 30 72  1  0
 36 73  1  0
 36 74  1  0
 38 75  1  0
 39 76  1  0
 39 77  1  0
 42 78  1  0
 43 79  1  0
 43 80  1  0
 44 81  1  0
 46 82  1  0
 51 83  1  6
 52 84  1  0
 54 85  1  0
 54 86  1  0
 55 87  1  0
 55 88  1  0
 55 89  1  0
 56 90  1  0
 56 91  1  0
 56 92  1  0
M  CHG  4   8  -1  22  -1  41  -1  48  -1
M  END
>  <filename_input>  (4) 
7PK0_BYC_docked.sdf

>  <pdb_id>  (4) 
7PK0_BYC

>  <pose_rank>  (4) 
3

>  <num_atoms_heavy>  (4) 
56

>  <num_torsions>  (4) 
21

>  <pose>  (4) 
[-22.44926720328334, 26.5313887499179, -20.86330116845336, 0.3438873033998153, -0.09962036114491937, -0.23631367941931652, 3.7478878595700715, 5.092806387980046, -3.0609409202141746, -5.9583934213791325, -0.19741342161542305, 0.33004342758626487, -0.5797140354385244, -4.4367749963990075, 2.175014761851215, -0.7102528246988284, 0.41624996653923857, -1.7528203735404975, 0.5427958796969131, -1.9995796404621686, -1.3559734029077224, -1.5698028259435917, 1.106808057738874, 3.829807962220116, 0.3895915879683757, -0.29581551726268646, -1.0194563657642945]

>  <energy>  (4) 
-889.8431822204342

>  <inter_energy>  (4) 
-960.4365586681297

>  <intra_energy>  (4) 
69.92338852881753

>  <rmsd>  (4) 
4.59013

>  <sdf_rank>  (4) 
0

$$$$

     RDKit          3D

 92 95  0  0  0  0  0  0  0  0999 V2000
  -28.4916   24.7701  -18.8531 N   0  0  0  0  0  0  0  0  0  0  0  0
  -21.8531   27.5707  -18.3922 O   0  0  0  0  0  0  0  0  0  0  0  0
  -22.5026   26.5451  -19.2709 P   0  0  2  0  0  0  0  0  0  0  0  0
  -14.3256   25.3373  -12.9352 C   0  0  0  0  0  0  0  0  0  0  0  0
  -26.0357   29.1648  -19.8793 C   0  0  1  0  0  0  0  0  0  0  0  0
  -12.5578   25.1203  -12.8418 S   0  0  0  0  0  0  0  0  0  0  0  0
  -28.3930   25.4928  -19.9793 C   0  0  0  0  0  0  0  0  0  0  0  0
  -23.5759   25.6695  -18.6934 O   0  0  0  0  0  0  0  0  0  0  0  0
  -21.3046   25.3382  -21.5995 P   0  0  1  0  0  0  0  0  0  0  0  0
  -15.1724   24.2371  -12.4226 C   0  0  0  0  0  0  0  0  0  0  0  0
  -25.1903   30.3169  -19.3544 C   0  0  2  0  0  0  0  0  0  0  0  0
  -26.0007   31.3652  -18.8613 O   0  0  0  0  0  0  0  0  0  0  0  0
  -12.1183   24.9046  -14.5807 C   0  0  0  0  0  0  0  0  0  0  0  0
  -27.7653   26.6527  -20.1867 N   0  0  0  0  0  0  0  0  0  0  0  0
  -21.4597   25.5986  -20.0220 O   0  0  0  0  0  0  0  0  0  0  0  0
  -16.1222   24.5443  -11.4556 C   0  0  0  0  0  0  0  0  0  0  0  0
  -24.4051   30.6810  -20.6048 C   0  0  2  0  0  0  0  0  0  0  0  0
  -25.2581   31.4665  -21.4440 O   0  0  0  0  0  0  0  0  0  0  0  0
  -24.5682   32.8475  -21.9540 P   0  0  1  0  0  0  0  0  0  0  0  0
  -11.8480   26.2550  -15.1660 C   0  0  0  0  0  0  0  0  0  0  0  0
  -27.1733   27.0642  -19.0508 C   0  0  0  0  0  0  0  0  0  0  0  0
  -22.0773   24.1136  -21.9863 O   0  0  0  0  0  0  0  0  0  0  0  0
  -16.8952   23.5461  -10.8826 C   0  0  0  0  0  0  0  0  0  0  0  0
  -24.1415   29.3182  -21.2721 C   0  0  2  0  0  0  0  0  0  0  0  0
  -25.2396   28.4753  -20.8274 O   0  0  0  0  0  0  0  0  0  0  0  0
  -12.8032   26.6331  -16.1797 N   0  0  0  0  0  0  0  0  0  0  0  0
  -14.7636   26.4126  -13.3008 O   0  0  0  0  0  0  0  0  0  0  0  0
  -21.5732   26.6316  -22.2787 O   0  0  0  0  0  0  0  0  0  0  0  0
  -16.7303   22.2225  -11.2693 C   0  0  0  0  0  0  0  0  0  0  0  0
  -22.8294   28.6330  -20.9292 C   0  0  0  0  0  0  0  0  0  0  0  0
  -23.1380   27.2789  -20.5450 O   0  0  0  0  0  0  0  0  0  0  0  0
  -27.2028   26.4406  -17.8224 C   0  0  0  0  0  0  0  0  0  0  0  0
  -12.5540   26.6605  -17.5027 C   0  0  0  0  0  0  0  0  0  0  0  0
  -11.4270   26.4702  -17.9352 O   0  0  0  0  0  0  0  0  0  0  0  0
  -27.9177   25.2353  -17.7162 C   0  0  0  0  0  0  0  0  0  0  0  0
  -27.9662   24.4973  -16.6050 N   0  0  0  0  0  0  0  0  0  0  0  0
  -19.7559   24.9572  -21.7461 O   0  0  0  0  0  0  0  0  0  0  0  0
  -15.8222   21.9199  -12.2472 C   0  0  0  0  0  0  0  0  0  0  0  0
  -13.6788   27.0967  -18.4269 C   0  0  0  0  0  0  0  0  0  0  0  0
  -26.4702   27.1648  -16.8880 N   0  0  0  0  0  0  0  0  0  0  0  0
  -24.1521   32.6418  -23.4630 O   0  0  0  0  0  0  0  0  0  0  0  0
  -15.0391   22.9101  -12.8211 C   0  0  0  0  0  0  0  0  0  0  0  0
  -15.0716   26.9110  -17.8155 C   0  0  0  0  0  0  0  0  0  0  0  0
  -26.0177   28.1816  -17.5661 C   0  0  0  0  0  0  0  0  0  0  0  0
  -25.6137   33.9413  -21.8118 O   0  0  0  0  0  0  0  0  0  0  0  0
  -16.0274   26.2681  -18.7150 N   0  0  0  0  0  0  0  0  0  0  0  0
  -26.4241   28.2008  -18.8752 N   0  0  0  0  0  0  0  0  0  0  0  0
  -23.3593   33.0920  -21.1294 O   0  0  0  0  0  0  0  0  0  0  0  0
  -17.1595   26.8193  -19.1199 C   0  0  0  0  0  0  0  0  0  0  0  0
  -17.5140   27.9464  -18.7652 O   0  0  0  0  0  0  0  0  0  0  0  0
  -17.9796   26.0279  -20.1273 C   0  0  2  0  0  0  0  0  0  0  0  0
  -17.4568   24.7150  -20.2040 O   0  0  0  0  0  0  0  0  0  0  0  0
  -18.0540   26.6446  -21.5371 C   0  0  1  0  0  0  0  0  0  0  0  0
  -18.8685   25.8168  -22.5213 C   0  0  0  0  0  0  0  0  0  0  0  0
  -18.6894   28.0471  -21.4407 C   0  0  0  0  0  0  0  0  0  0  0  0
  -16.6376   26.7671  -22.1141 C   0  0  0  0  0  0  0  0  0  0  0  0
  -26.9622   29.5982  -20.2841 H   0  0  0  0  0  0  0  0  0  0  0  0
  -28.9022   25.0689  -20.8574 H   0  0  0  0  0  0  0  0  0  0  0  0
  -24.5466   30.0812  -18.4941 H   0  0  0  0  0  0  0  0  0  0  0  0
  -25.9907   31.3523  -17.8714 H   0  0  0  0  0  0  0  0  0  0  0  0
  -11.2188   24.2767  -14.6623 H   0  0  0  0  0  0  0  0  0  0  0  0
  -12.9403   24.4136  -15.1222 H   0  0  0  0  0  0  0  0  0  0  0  0
  -16.2620   25.5893  -11.1419 H   0  0  0  0  0  0  0  0  0  0  0  0
  -23.4813   31.2460  -20.4111 H   0  0  0  0  0  0  0  0  0  0  0  0
  -11.8817   27.0002  -14.3576 H   0  0  0  0  0  0  0  0  0  0  0  0
  -10.8591   26.2130  -15.6459 H   0  0  0  0  0  0  0  0  0  0  0  0
  -17.6428   23.8038  -10.1180 H   0  0  0  0  0  0  0  0  0  0  0  0
  -24.0709   29.4822  -22.3575 H   0  0  0  0  0  0  0  0  0  0  0  0
  -13.7471   26.9025  -15.8675 H   0  0  0  0  0  0  0  0  0  0  0  0
  -17.3229   21.4264  -10.7948 H   0  0  0  0  0  0  0  0  0  0  0  0
  -22.1650   28.6329  -21.8059 H   0  0  0  0  0  0  0  0  0  0  0  0
  -22.3172   29.1616  -20.1118 H   0  0  0  0  0  0  0  0  0  0  0  0
  -27.5326   24.8438  -15.7374 H   0  0  0  0  0  0  0  0  0  0  0  0
  -28.4372   23.5813  -16.6152 H   0  0  0  0  0  0  0  0  0  0  0  0
  -15.7120   20.8780  -12.5824 H   0  0  0  0  0  0  0  0  0  0  0  0
  -13.5414   28.1617  -18.6657 H   0  0  0  0  0  0  0  0  0  0  0  0
  -13.6290   26.4613  -19.3234 H   0  0  0  0  0  0  0  0  0  0  0  0
  -14.3066   22.6446  -13.5976 H   0  0  0  0  0  0  0  0  0  0  0  0
  -14.9743   26.2914  -16.9119 H   0  0  0  0  0  0  0  0  0  0  0  0
  -15.4626   27.9155  -17.5959 H   0  0  0  0  0  0  0  0  0  0  0  0
  -25.3687   28.9542  -17.1278 H   0  0  0  0  0  0  0  0  0  0  0  0
  -15.8045   25.3223  -19.0566 H   0  0  0  0  0  0  0  0  0  0  0  0
  -19.0155   26.0365  -19.7575 H   0  0  0  0  0  0  0  0  0  0  0  0
  -17.3162   24.3619  -19.2899 H   0  0  0  0  0  0  0  0  0  0  0  0
  -18.1977   25.2027  -23.1401 H   0  0  0  0  0  0  0  0  0  0  0  0
  -19.4497   26.4709  -23.1880 H   0  0  0  0  0  0  0  0  0  0  0  0
  -18.8137   28.3214  -20.3827 H   0  0  0  0  0  0  0  0  0  0  0  0
  -18.0357   28.7806  -21.9353 H   0  0  0  0  0  0  0  0  0  0  0  0
  -19.6719   28.0393  -21.9353 H   0  0  0  0  0  0  0  0  0  0  0  0
  -15.9105   26.8300  -21.2910 H   0  0  0  0  0  0  0  0  0  0  0  0
  -16.4160   25.8848  -22.7325 H   0  0  0  0  0  0  0  0  0  0  0  0
  -16.5708   27.6744  -22.7325 H   0  0  0  0  0  0  0  0  0  0  0  0
  1  7  2  0
  1 35  1  0
  2  3  2  0
  3  8  1  1
  3 15  1  0
  3 31  1  0
  4  6  1  0
  4 10  1  0
  4 27  2  0
  5 11  1  0
  5 25  1  0
  5 47  1  0
  6 13  1  0
  7 14  1  0
  9 15  1  0
  9 22  1  6
  9 28  2  0
  9 37  1  0
 10 16  2  0
 10 42  1  0
 11 12  1  0
 11 17  1  0
 13 20  1  0
 14 21  2  0
 16 23  1  0
 17 18  1  0
 17 24  1  0
 18 19  1  0
 19 41  1  6
 19 45  2  0
 19 48  1  0
 20 26  1  0
 21 32  1  0
 21 47  1  0
 23 29  2  0
 24 25  1  0
 24 30  1  0
 26 33  1  0
 29 38  1  0
 30 31  1  0
 32 35  2  0
 32 40  1  0
 33 34  2  0
 33 39  1  0
 35 36  1  0
 37 54  1  0
 38 42  2  0
 39 43  1  0
 40 44  2  0
 43 46  1  0
 44 47  1  0
 46 49  1  0
 49 50  2  0
 49 51  1  0
 51 52  1  0
 51 53  1  0
 53 54  1  6
 53 55  1  0
 53 56  1  0
  5 57  1  6
  7 58  1  0
 11 59  1  1
 12 60  1  0
 13 61  1  0
 13 62  1  0
 16 63  1  0
 17 64  1  1
 20 65  1  0
 20 66  1  0
 23 67  1  0
 24 68  1  6
 26 69  1  0
 29 70  1  0
 30 71  1  0
 30 72  1  0
 36 73  1  0
 36 74  1  0
 38 75  1  0
 39 76  1  0
 39 77  1  0
 42 78  1  0
 43 79  1  0
 43 80  1  0
 44 81  1  0
 46 82  1  0
 51 83  1  1
 52 84  1  0
 54 85  1  0
 54 86  1  0
 55 87  1  0
 55 88  1  0
 55 89  1  0
 56 90  1  0
 56 91  1  0
 56 92  1  0
M  CHG  4   8  -1  22  -1  41  -1  48  -1
M  END
>  <filename_input>  (5) 
7PK0_BYC_docked.sdf

>  <pdb_id>  (5) 
7PK0_BYC

>  <pose_rank>  (5) 
4

>  <num_atoms_heavy>  (5) 
56

>  <num_torsions>  (5) 
21

>  <pose>  (5) 
[-21.304554699982617, 25.338181374158356, -21.599459253677274, 0.26097647472041186, 0.4492450715377466, -0.3102181560587505, -1.182176160186772, -1.7783158733245583, -0.7762920074387186, -0.2126889113333481, -0.4323450819620467, -0.965615289824366, -1.4263017352831173, 3.534667080097954, -0.48068418536302643, 1.0192582373534462, 0.11281520638466698, -1.6020156673341654, -0.7376475289096098, -0.8470080827755574, 2.402799035303298, -0.3677451340178691, 0.6170286024263038, 1.3848310369398578, 1.0460274182816351, -6.5623232555240465, 0.7992056782763781]

>  <energy>  (5) 
-844.1994518283065

>  <inter_energy>  (5) 
-937.5726819030622

>  <intra_energy>  (5) 
93.29648429628564

>  <rmsd>  (5) 
4.83119

>  <sdf_rank>  (5) 
0

$$$$

     RDKit          3D

 92 95  0  0  0  0  0  0  0  0999 V2000
  -14.2710   24.5327  -11.6974 N   0  0  0  0  0  0  0  0  0  0  0  0
  -16.6187   29.6166  -21.4934 O   0  0  0  0  0  0  0  0  0  0  0  0
  -16.6821   28.1389  -21.2516 P   0  0  2  0  0  0  0  0  0  0  0  0
  -19.0790   31.6273  -24.6655 C   0  0  0  0  0  0  0  0  0  0  0  0
  -13.5174   26.4169  -16.4175 C   0  0  1  0  0  0  0  0  0  0  0  0
  -20.5970   30.7106  -24.8567 S   0  0  0  0  0  0  0  0  0  0  0  0
  -13.5998   25.6116  -12.1286 C   0  0  0  0  0  0  0  0  0  0  0  0
  -16.6179   27.2078  -22.4268 O   0  0  0  0  0  0  0  0  0  0  0  0
  -19.0011   26.5392  -20.6375 P   0  0  1  0  0  0  0  0  0  0  0  0
  -18.5030   32.2469  -25.8798 C   0  0  0  0  0  0  0  0  0  0  0  0
  -12.9023   25.9740  -17.7378 C   0  0  2  0  0  0  0  0  0  0  0  0
  -11.5462   25.6089  -17.5754 O   0  0  0  0  0  0  0  0  0  0  0  0
  -21.5747   31.3178  -23.4643 C   0  0  0  0  0  0  0  0  0  0  0  0
  -13.4054   26.0423  -13.3772 N   0  0  0  0  0  0  0  0  0  0  0  0
  -17.9224   27.6944  -20.3507 O   0  0  0  0  0  0  0  0  0  0  0  0
  -19.3056   32.3276  -27.0116 C   0  0  0  0  0  0  0  0  0  0  0  0
  -13.1072   27.2259  -18.5766 C   0  0  2  0  0  0  0  0  0  0  0  0
  -12.0857   28.1632  -18.2206 O   0  0  0  0  0  0  0  0  0  0  0  0
  -11.5532   29.0462  -19.4776 P   0  0  1  0  0  0  0  0  0  0  0  0
  -22.0895   30.1366  -22.7036 C   0  0  0  0  0  0  0  0  0  0  0  0
  -14.0149   25.2176  -14.2480 C   0  0  0  0  0  0  0  0  0  0  0  0
  -19.4722   26.6310  -22.0573 O   0  0  0  0  0  0  0  0  0  0  0  0
  -18.8005   32.8296  -28.2012 C   0  0  0  0  0  0  0  0  0  0  0  0
  -14.4753   27.7532  -18.1051 C   0  0  2  0  0  0  0  0  0  0  0  0
  -14.6028   27.2688  -16.7402 O   0  0  0  0  0  0  0  0  0  0  0  0
  -23.5052   30.2120  -22.4327 N   0  0  0  0  0  0  0  0  0  0  0  0
  -18.6429   31.8075  -23.5435 O   0  0  0  0  0  0  0  0  0  0  0  0
  -18.4201   25.2705  -20.1279 O   0  0  0  0  0  0  0  0  0  0  0  0
  -17.4824   33.2601  -28.2773 C   0  0  0  0  0  0  0  0  0  0  0  0
  -15.6903   27.3036  -18.8990 C   0  0  0  0  0  0  0  0  0  0  0  0
  -15.4924   27.7220  -20.2636 O   0  0  0  0  0  0  0  0  0  0  0  0
  -14.7203   24.0706  -13.9554 C   0  0  0  0  0  0  0  0  0  0  0  0
  -24.0503   30.7282  -21.3149 C   0  0  0  0  0  0  0  0  0  0  0  0
  -23.3503   31.0735  -20.3745 O   0  0  0  0  0  0  0  0  0  0  0  0
  -14.8381   23.7001  -12.6048 C   0  0  0  0  0  0  0  0  0  0  0  0
  -15.5518   22.6542  -12.1824 N   0  0  0  0  0  0  0  0  0  0  0  0
  -20.2414   26.9763  -19.7233 O   0  0  0  0  0  0  0  0  0  0  0  0
  -16.6993   33.2167  -27.1559 C   0  0  0  0  0  0  0  0  0  0  0  0
  -25.5651   30.7148  -21.1937 C   0  0  0  0  0  0  0  0  0  0  0  0
  -15.2080   23.4856  -15.1190 N   0  0  0  0  0  0  0  0  0  0  0  0
  -12.2157   30.4752  -19.3693 O   0  0  0  0  0  0  0  0  0  0  0  0
  -17.1929   32.7095  -25.9634 C   0  0  0  0  0  0  0  0  0  0  0  0
  -26.1221   29.3721  -20.7089 C   0  0  0  0  0  0  0  0  0  0  0  0
  -14.8012   24.2849  -16.0647 C   0  0  0  0  0  0  0  0  0  0  0  0
  -10.0407   29.1257  -19.3513 O   0  0  0  0  0  0  0  0  0  0  0  0
  -25.0994   28.3451  -20.5203 N   0  0  0  0  0  0  0  0  0  0  0  0
  -14.0512   25.3405  -15.6146 N   0  0  0  0  0  0  0  0  0  0  0  0
  -11.9949   28.3823  -20.7287 O   0  0  0  0  0  0  0  0  0  0  0  0
  -25.0669   27.5012  -19.5024 C   0  0  0  0  0  0  0  0  0  0  0  0
  -25.9138   27.5090  -18.6054 O   0  0  0  0  0  0  0  0  0  0  0  0
  -23.9724   26.4453  -19.5285 C   0  0  2  0  0  0  0  0  0  0  0  0
  -24.3581   25.3734  -18.6888 O   0  0  0  0  0  0  0  0  0  0  0  0
  -22.5719   26.9464  -19.1273 C   0  0  1  0  0  0  0  0  0  0  0  0
  -21.5866   26.9923  -20.2868 C   0  0  0  0  0  0  0  0  0  0  0  0
  -22.6947   28.3671  -18.5385 C   0  0  0  0  0  0  0  0  0  0  0  0
  -21.9797   26.0071  -18.0685 C   0  0  0  0  0  0  0  0  0  0  0  0
  -12.7187   26.8915  -15.8286 H   0  0  0  0  0  0  0  0  0  0  0  0
  -13.1447   26.2295  -11.3405 H   0  0  0  0  0  0  0  0  0  0  0  0
  -13.3443   25.0742  -18.1905 H   0  0  0  0  0  0  0  0  0  0  0  0
  -11.3332   25.5516  -16.6103 H   0  0  0  0  0  0  0  0  0  0  0  0
  -20.9446   31.9369  -22.8088 H   0  0  0  0  0  0  0  0  0  0  0  0
  -22.4130   31.9305  -23.8274 H   0  0  0  0  0  0  0  0  0  0  0  0
  -20.3514   31.9901  -26.9631 H   0  0  0  0  0  0  0  0  0  0  0  0
  -13.0680   27.0550  -19.6625 H   0  0  0  0  0  0  0  0  0  0  0  0
  -21.8935   29.2283  -23.2923 H   0  0  0  0  0  0  0  0  0  0  0  0
  -21.5701   30.1185  -21.7341 H   0  0  0  0  0  0  0  0  0  0  0  0
  -19.4471   32.8871  -29.0892 H   0  0  0  0  0  0  0  0  0  0  0  0
  -14.4763   28.8462  -18.2291 H   0  0  0  0  0  0  0  0  0  0  0  0
  -24.1471   29.8430  -23.1487 H   0  0  0  0  0  0  0  0  0  0  0  0
  -17.0725   33.6318  -29.2280 H   0  0  0  0  0  0  0  0  0  0  0  0
  -15.7863   26.2088  -18.8516 H   0  0  0  0  0  0  0  0  0  0  0  0
  -16.6092   27.7459  -18.4865 H   0  0  0  0  0  0  0  0  0  0  0  0
  -15.9858   22.0171  -12.8655 H   0  0  0  0  0  0  0  0  0  0  0  0
  -15.6687   22.4843  -11.1732 H   0  0  0  0  0  0  0  0  0  0  0  0
  -15.6652   33.5889  -27.2011 H   0  0  0  0  0  0  0  0  0  0  0  0
  -25.8652   31.4957  -20.4795 H   0  0  0  0  0  0  0  0  0  0  0  0
  -25.9741   30.8935  -22.1990 H   0  0  0  0  0  0  0  0  0  0  0  0
  -16.5436   32.6725  -25.0762 H   0  0  0  0  0  0  0  0  0  0  0  0
  -26.6324   29.5345  -19.7480 H   0  0  0  0  0  0  0  0  0  0  0  0
  -26.8045   29.0063  -21.4902 H   0  0  0  0  0  0  0  0  0  0  0  0
  -15.0380   24.1269  -17.1272 H   0  0  0  0  0  0  0  0  0  0  0  0
  -24.3541   28.2737  -21.2276 H   0  0  0  0  0  0  0  0  0  0  0  0
  -23.8723   26.1297  -20.5775 H   0  0  0  0  0  0  0  0  0  0  0  0
  -24.2606   25.6445  -17.7417 H   0  0  0  0  0  0  0  0  0  0  0  0
  -21.7375   27.9120  -20.8711 H   0  0  0  0  0  0  0  0  0  0  0  0
  -21.7358   26.1313  -20.9548 H   0  0  0  0  0  0  0  0  0  0  0  0
  -22.6898   28.3104  -17.4400 H   0  0  0  0  0  0  0  0  0  0  0  0
  -21.8461   28.9792  -18.8779 H   0  0  0  0  0  0  0  0  0  0  0  0
  -23.6357   28.8246  -18.8779 H   0  0  0  0  0  0  0  0  0  0  0  0
  -22.2198   26.3880  -17.0649 H   0  0  0  0  0  0  0  0  0  0  0  0
  -22.4070   25.0009  -18.1907 H   0  0  0  0  0  0  0  0  0  0  0  0
  -20.8875   25.9589  -18.1907 H   0  0  0  0  0  0  0  0  0  0  0  0
  1  7  2  0
  1 35  1  0
  2  3  2  0
  3  8  1  6
  3 15  1  0
  3 31  1  0
  4  6  1  0
  4 10  1  0
  4 27  2  0
  5 11  1  0
  5 25  1  0
  5 47  1  0
  6 13  1  0
  7 14  1  0
  9 15  1  0
  9 22  1  6
  9 28  2  0
  9 37  1  0
 10 16  2  0
 10 42  1  0
 11 12  1  0
 11 17  1  0
 13 20  1  0
 14 21  2  0
 16 23  1  0
 17 18  1  0
 17 24  1  0
 18 19  1  0
 19 41  1  1
 19 45  2  0
 19 48  1  0
 20 26  1  0
 21 32  1  0
 21 47  1  0
 23 29  2  0
 24 25  1  0
 24 30  1  0
 26 33  1  0
 29 38  1  0
 30 31  1  0
 32 35  2  0
 32 40  1  0
 33 34  2  0
 33 39  1  0
 35 36  1  0
 37 54  1  0
 38 42  2  0
 39 43  1  0
 40 44  2  0
 43 46  1  0
 44 47  1  0
 46 49  1  0
 49 50  2  0
 49 51  1  0
 51 52  1  0
 51 53  1  0
 53 54  1  6
 53 55  1  0
 53 56  1  0
  5 57  1  1
  7 58  1  0
 11 59  1  6
 12 60  1  0
 13 61  1  0
 13 62  1  0
 16 63  1  0
 17 64  1  6
 20 65  1  0
 20 66  1  0
 23 67  1  0
 24 68  1  1
 26 69  1  0
 29 70  1  0
 30 71  1  0
 30 72  1  0
 36 73  1  0
 36 74  1  0
 38 75  1  0
 39 76  1  0
 39 77  1  0
 42 78  1  0
 43 79  1  0
 43 80  1  0
 44 81  1  0
 46 82  1  0
 51 83  1  6
 52 84  1  0
 54 85  1  0
 54 86  1  0
 55 87  1  0
 55 88  1  0
 55 89  1  0
 56 90  1  0
 56 91  1  0
 56 92  1  0
M  CHG  4   8  -1  22  -1  41  -1  48  -1
M  END
>  <filename_input>  (6) 
7PK0_BYC_docked.sdf

>  <pdb_id>  (6) 
7PK0_BYC

>  <pose_rank>  (6) 
5

>  <num_atoms_heavy>  (6) 
56

>  <num_torsions>  (6) 
21

>  <pose>  (6) 
[-19.001061810158802, 26.539198297296984, -20.63745130451618, -0.43711114642457416, -1.7196634149760555, -2.18350634318921, 9.440853130478619, -0.7735300135341528, 2.362963864973721, 7.298537083445369, 15.436334814105104, 9.8310632890887, -5.438979925086508, 5.373463041902921, -0.24166519388356844, 0.7340438555685146, -16.252127509675606, -5.857669127265161, -2.685723893080475, 0.0097038518926827, 13.109892378783666, 20.145515157135982, 12.957935529070925, -8.18198755860131, 0.3884931760347848, -0.028856764356392093, 0.7740172212833849]

>  <energy>  (6) 
-777.7417086605699

>  <inter_energy>  (6) 
-801.4939985552656

>  <intra_energy>  (6) 
31.1199723592191

>  <rmsd>  (6) 
12.3754

>  <sdf_rank>  (6) 
0

$$$$

     RDKit          3D

 92 95  0  0  0  0  0  0  0  0999 V2000
  -24.3837   25.8020  -19.0602 N   0  0  0  0  0  0  0  0  0  0  0  0
  -21.4740   30.4860  -25.2687 O   0  0  0  0  0  0  0  0  0  0  0  0
  -20.7074   30.5995  -23.9860 P   0  0  2  0  0  0  0  0  0  0  0  0
  -13.3492   25.0849  -12.0522 C   0  0  0  0  0  0  0  0  0  0  0  0
  -25.2349   30.5063  -20.9423 C   0  0  1  0  0  0  0  0  0  0  0  0
  -13.0490   26.1951  -13.4154 S   0  0  0  0  0  0  0  0  0  0  0  0
  -24.8625   26.2140  -20.2440 C   0  0  0  0  0  0  0  0  0  0  0  0
  -19.7285   31.7253  -23.8228 O   0  0  0  0  0  0  0  0  0  0  0  0
  -20.2780   28.2844  -22.3217 P   0  0  1  0  0  0  0  0  0  0  0  0
  -14.7084   24.5122  -11.9301 C   0  0  0  0  0  0  0  0  0  0  0  0
  -25.2818   32.0055  -20.6816 C   0  0  2  0  0  0  0  0  0  0  0  0
  -26.5368   32.3971  -20.1618 O   0  0  0  0  0  0  0  0  0  0  0  0
  -12.5468   25.0520  -14.7210 C   0  0  0  0  0  0  0  0  0  0  0  0
  -25.0968   27.4558  -20.6747 N   0  0  0  0  0  0  0  0  0  0  0  0
  -19.9654   29.2500  -23.5667 O   0  0  0  0  0  0  0  0  0  0  0  0
  -14.8276   23.2234  -11.4236 C   0  0  0  0  0  0  0  0  0  0  0  0
  -24.9978   32.5417  -22.0760 C   0  0  2  0  0  0  0  0  0  0  0  0
  -26.2117   32.4637  -22.8305 O   0  0  0  0  0  0  0  0  0  0  0  0
  -26.4038   33.6957  -23.8738 P   0  0  1  0  0  0  0  0  0  0  0  0
  -13.4768   25.2277  -15.8799 C   0  0  0  0  0  0  0  0  0  0  0  0
  -24.7646   28.3436  -19.7199 C   0  0  0  0  0  0  0  0  0  0  0  0
  -20.2330   29.0737  -21.0484 O   0  0  0  0  0  0  0  0  0  0  0  0
  -16.0660   22.6039  -11.3535 C   0  0  0  0  0  0  0  0  0  0  0  0
  -23.9749   31.5400  -22.6438 C   0  0  2  0  0  0  0  0  0  0  0  0
  -24.2510   30.2978  -21.9405 O   0  0  0  0  0  0  0  0  0  0  0  0
  -12.9776   26.1515  -16.8702 N   0  0  0  0  0  0  0  0  0  0  0  0
  -12.4103   24.7509  -11.3532 O   0  0  0  0  0  0  0  0  0  0  0  0
  -21.4952   27.5087  -22.6725 O   0  0  0  0  0  0  0  0  0  0  0  0
  -17.2067   23.2654  -11.7891 C   0  0  0  0  0  0  0  0  0  0  0  0
  -22.5069   31.8880  -22.4635 C   0  0  0  0  0  0  0  0  0  0  0  0
  -21.7430   30.7049  -22.7687 O   0  0  0  0  0  0  0  0  0  0  0  0
  -24.2812   28.0696  -18.4590 C   0  0  0  0  0  0  0  0  0  0  0  0
  -13.5735   27.3085  -17.2157 C   0  0  0  0  0  0  0  0  0  0  0  0
  -14.6756   27.6042  -16.7784 O   0  0  0  0  0  0  0  0  0  0  0  0
  -24.0983   26.7216  -18.1057 C   0  0  0  0  0  0  0  0  0  0  0  0
  -23.5723   26.3240  -16.9451 N   0  0  0  0  0  0  0  0  0  0  0  0
  -19.0032   27.3152  -22.2948 O   0  0  0  0  0  0  0  0  0  0  0  0
  -17.0992   24.5478  -12.2544 C   0  0  0  0  0  0  0  0  0  0  0  0
  -12.9100   28.1541  -18.2901 C   0  0  0  0  0  0  0  0  0  0  0  0
  -24.0498   29.2475  -17.7568 N   0  0  0  0  0  0  0  0  0  0  0  0
  -25.7490   34.9763  -23.2226 O   0  0  0  0  0  0  0  0  0  0  0  0
  -15.8642   25.1734  -12.3354 C   0  0  0  0  0  0  0  0  0  0  0  0
  -13.1334   27.6168  -19.7077 C   0  0  0  0  0  0  0  0  0  0  0  0
  -24.3832   30.1841  -18.5995 C   0  0  0  0  0  0  0  0  0  0  0  0
  -25.6921   33.3015  -25.1575 O   0  0  0  0  0  0  0  0  0  0  0  0
  -14.5031   27.7822  -20.1900 N   0  0  0  0  0  0  0  0  0  0  0  0
  -24.8496   29.7113  -19.7988 N   0  0  0  0  0  0  0  0  0  0  0  0
  -27.8583   33.9179  -24.0636 O   0  0  0  0  0  0  0  0  0  0  0  0
  -15.0544   27.0462  -21.1406 C   0  0  0  0  0  0  0  0  0  0  0  0
  -14.4473   26.1385  -21.7146 O   0  0  0  0  0  0  0  0  0  0  0  0
  -16.5213   27.3119  -21.4424 C   0  0  2  0  0  0  0  0  0  0  0  0
  -16.7651   28.7000  -21.3135 O   0  0  0  0  0  0  0  0  0  0  0  0
  -17.5199   26.5225  -20.5747 C   0  0  1  0  0  0  0  0  0  0  0  0
  -18.8741   26.3171  -21.2392 C   0  0  0  0  0  0  0  0  0  0  0  0
  -16.9224   25.1371  -20.2529 C   0  0  0  0  0  0  0  0  0  0  0  0
  -17.7700   27.2842  -19.2665 C   0  0  0  0  0  0  0  0  0  0  0  0
  -26.2508   30.1925  -21.2243 H   0  0  0  0  0  0  0  0  0  0  0  0
  -25.0954   25.4142  -20.9623 H   0  0  0  0  0  0  0  0  0  0  0  0
  -24.5770   32.3789  -19.9240 H   0  0  0  0  0  0  0  0  0  0  0  0
  -26.5022   32.3863  -19.1725 H   0  0  0  0  0  0  0  0  0  0  0  0
  -11.5159   25.2739  -15.0339 H   0  0  0  0  0  0  0  0  0  0  0  0
  -12.5879   24.0155  -14.3548 H   0  0  0  0  0  0  0  0  0  0  0  0
  -13.9310   22.6899  -11.0751 H   0  0  0  0  0  0  0  0  0  0  0  0
  -24.6341   33.5796  -22.0969 H   0  0  0  0  0  0  0  0  0  0  0  0
  -13.6285   24.2491  -16.3588 H   0  0  0  0  0  0  0  0  0  0  0  0
  -14.4163   25.6436  -15.4870 H   0  0  0  0  0  0  0  0  0  0  0  0
  -16.1453   21.5834  -10.9507 H   0  0  0  0  0  0  0  0  0  0  0  0
  -24.1010   31.5119  -23.7362 H   0  0  0  0  0  0  0  0  0  0  0  0
  -12.0989   25.9072  -17.3489 H   0  0  0  0  0  0  0  0  0  0  0  0
  -18.1855   22.7642  -11.7606 H   0  0  0  0  0  0  0  0  0  0  0  0
  -22.2269   32.7030  -23.1472 H   0  0  0  0  0  0  0  0  0  0  0  0
  -22.3105   32.2223  -21.4341 H   0  0  0  0  0  0  0  0  0  0  0  0
  -23.3528   27.0166  -16.2150 H   0  0  0  0  0  0  0  0  0  0  0  0
  -23.3859   25.3246  -16.7797 H   0  0  0  0  0  0  0  0  0  0  0  0
  -18.0039   25.0892  -12.5680 H   0  0  0  0  0  0  0  0  0  0  0  0
  -13.3195   29.1735  -18.2345 H   0  0  0  0  0  0  0  0  0  0  0  0
  -11.8268   28.1317  -18.0999 H   0  0  0  0  0  0  0  0  0  0  0  0
  -15.7976   26.2006  -12.7232 H   0  0  0  0  0  0  0  0  0  0  0  0
  -12.4575   28.1508  -20.3919 H   0  0  0  0  0  0  0  0  0  0  0  0
  -12.9318   26.5359  -19.6771 H   0  0  0  0  0  0  0  0  0  0  0  0
  -24.2982   31.2564  -18.3694 H   0  0  0  0  0  0  0  0  0  0  0  0
  -15.0776   28.5216  -19.7609 H   0  0  0  0  0  0  0  0  0  0  0  0
  -16.6947   26.9582  -22.4695 H   0  0  0  0  0  0  0  0  0  0  0  0
  -16.8073   28.9400  -20.3539 H   0  0  0  0  0  0  0  0  0  0  0  0
  -19.6782   26.4469  -20.5000 H   0  0  0  0  0  0  0  0  0  0  0  0
  -18.9498   25.3020  -21.6561 H   0  0  0  0  0  0  0  0  0  0  0  0
  -16.8661   25.0064  -19.1622 H   0  0  0  0  0  0  0  0  0  0  0  0
  -17.5623   24.3528  -20.6836 H   0  0  0  0  0  0  0  0  0  0  0  0
  -15.9129   25.0641  -20.6836 H   0  0  0  0  0  0  0  0  0  0  0  0
  -17.5539   26.6261  -18.4119 H   0  0  0  0  0  0  0  0  0  0  0  0
  -17.1143   28.1665  -19.2248 H   0  0  0  0  0  0  0  0  0  0  0  0
  -18.8210   27.6062  -19.2248 H   0  0  0  0  0  0  0  0  0  0  0  0
  1  7  2  0
  1 35  1  0
  2  3  2  0
  3  8  1  6
  3 15  1  0
  3 31  1  0
  4  6  1  0
  4 10  1  0
  4 27  2  0
  5 11  1  0
  5 25  1  0
  5 47  1  0
  6 13  1  0
  7 14  1  0
  9 15  1  0
  9 22  1  1
  9 28  2  0
  9 37  1  0
 10 16  2  0
 10 42  1  0
 11 12  1  0
 11 17  1  0
 13 20  1  0
 14 21  2  0
 16 23  1  0
 17 18  1  0
 17 24  1  0
 18 19  1  0
 19 41  1  1
 19 45  2  0
 19 48  1  0
 20 26  1  0
 21 32  1  0
 21 47  1  0
 23 29  2  0
 24 25  1  0
 24 30  1  0
 26 33  1  0
 29 38  1  0
 30 31  1  0
 32 35  2  0
 32 40  1  0
 33 34  2  0
 33 39  1  0
 35 36  1  0
 37 54  1  0
 38 42  2  0
 39 43  1  0
 40 44  2  0
 43 46  1  0
 44 47  1  0
 46 49  1  0
 49 50  2  0
 49 51  1  0
 51 52  1  0
 51 53  1  0
 53 54  1  6
 53 55  1  0
 53 56  1  0
  5 57  1  6
  7 58  1  0
 11 59  1  1
 12 60  1  0
 13 61  1  0
 13 62  1  0
 16 63  1  0
 17 64  1  1
 20 65  1  0
 20 66  1  0
 23 67  1  0
 24 68  1  6
 26 69  1  0
 29 70  1  0
 30 71  1  0
 30 72  1  0
 36 73  1  0
 36 74  1  0
 38 75  1  0
 39 76  1  0
 39 77  1  0
 42 78  1  0
 43 79  1  0
 43 80  1  0
 44 81  1  0
 46 82  1  0
 51 83  1  6
 52 84  1  0
 54 85  1  0
 54 86  1  0
 55 87  1  0
 55 88  1  0
 55 89  1  0
 56 90  1  0
 56 91  1  0
 56 92  1  0
M  CHG  4   8  -1  22  -1  41  -1  48  -1
M  END
>  <filename_input>  (7) 
7PK0_BYC_docked.sdf

>  <pdb_id>  (7) 
7PK0_BYC

>  <pose_rank>  (7) 
6

>  <num_atoms_heavy>  (7) 
56

>  <num_torsions>  (7) 
21

>  <pose>  (7) 
[-20.277960228271105, 28.284433065771843, -22.321723665464773, 3.4131637868762303, -1.3314920691392327, 1.43377743282814, -2.350440874860762, 0.5215194195762825, -1.49482001788201, 0.2385069464543916, -0.006431820883659962, -1.6044535345425894, 2.1358361070423406, -1.0014148110802576, -0.6793481158706911, -1.6221918967878415, 0.6926162283316859, 1.2276580132406967, -0.3651099959160603, -0.16474639504390087, -3.68084812979843, -1.919083092177726, -1.2744152976677594, 2.0304885773526378, 0.9976518376290301, -0.02064470712455782, -1.5949286376433338]

>  <energy>  (7) 
-838.7033505596593

>  <inter_energy>  (7) 
-882.9699909197063

>  <intra_energy>  (7) 
37.729592714066676

>  <rmsd>  (7) 
4.91287

>  <sdf_rank>  (7) 
0

$$$$

     RDKit          3D

 92 95  0  0  0  0  0  0  0  0999 V2000
  -14.5097   25.9032  -13.3490 N   0  0  0  0  0  0  0  0  0  0  0  0
  -16.0046   26.3128  -22.0929 O   0  0  0  0  0  0  0  0  0  0  0  0
  -15.6113   26.7473  -20.7135 P   0  0  2  0  0  0  0  0  0  0  0  0
  -28.7349   33.4189  -20.6900 C   0  0  0  0  0  0  0  0  0  0  0  0
  -12.5992   28.1000  -17.5824 C   0  0  1  0  0  0  0  0  0  0  0  0
  -28.3824   32.9143  -19.0161 S   0  0  0  0  0  0  0  0  0  0  0  0
  -14.4932   27.1806  -13.7590 C   0  0  0  0  0  0  0  0  0  0  0  0
  -16.2891   26.1158  -19.5329 O   0  0  0  0  0  0  0  0  0  0  0  0
  -16.7955   29.2101  -19.7936 P   0  0  1  0  0  0  0  0  0  0  0  0
  -27.7664   34.3277  -21.3430 C   0  0  0  0  0  0  0  0  0  0  0  0
  -11.2440   28.2686  -18.2551 C   0  0  2  0  0  0  0  0  0  0  0  0
  -10.3154   28.8915  -17.3900 O   0  0  0  0  0  0  0  0  0  0  0  0
  -27.9778   31.1671  -19.2329 C   0  0  0  0  0  0  0  0  0  0  0  0
  -13.9515   27.7078  -14.8595 N   0  0  0  0  0  0  0  0  0  0  0  0
  -15.6576   28.3293  -20.5075 O   0  0  0  0  0  0  0  0  0  0  0  0
  -26.9536   35.1061  -20.5274 C   0  0  0  0  0  0  0  0  0  0  0  0
  -11.6310   29.1162  -19.4570 C   0  0  2  0  0  0  0  0  0  0  0  0
  -11.7680   30.4697  -19.0121 O   0  0  0  0  0  0  0  0  0  0  0  0
  -11.2792   31.5633  -20.1113 P   0  0  1  0  0  0  0  0  0  0  0  0
  -26.7489   31.0733  -20.0816 C   0  0  0  0  0  0  0  0  0  0  0  0
  -13.3764   26.7407  -15.5971 C   0  0  0  0  0  0  0  0  0  0  0  0
  -17.1305   28.6147  -18.4596 O   0  0  0  0  0  0  0  0  0  0  0  0
  -26.0785   36.0300  -21.0778 C   0  0  0  0  0  0  0  0  0  0  0  0
  -13.0125   28.5640  -19.8551 C   0  0  2  0  0  0  0  0  0  0  0  0
  -13.5621   28.0294  -18.6196 O   0  0  0  0  0  0  0  0  0  0  0  0
  -25.6209   30.5064  -19.3821 N   0  0  0  0  0  0  0  0  0  0  0  0
  -29.6800   32.9124  -21.2661 O   0  0  0  0  0  0  0  0  0  0  0  0
  -16.3650   30.6287  -19.8871 O   0  0  0  0  0  0  0  0  0  0  0  0
  -26.0021   36.1896  -22.4552 C   0  0  0  0  0  0  0  0  0  0  0  0
  -13.0323   27.4721  -20.9116 C   0  0  0  0  0  0  0  0  0  0  0  0
  -14.0378   26.5156  -20.5240 O   0  0  0  0  0  0  0  0  0  0  0  0
  -13.2996   25.3981  -15.2969 C   0  0  0  0  0  0  0  0  0  0  0  0
  -25.2401   29.2167  -19.4497 C   0  0  0  0  0  0  0  0  0  0  0  0
  -25.9197   28.3895  -20.0391 O   0  0  0  0  0  0  0  0  0  0  0  0
  -13.8843   24.9604  -14.0962 C   0  0  0  0  0  0  0  0  0  0  0  0
  -13.9412   23.6802  -13.7226 N   0  0  0  0  0  0  0  0  0  0  0  0
  -18.0729   28.9656  -20.7283 O   0  0  0  0  0  0  0  0  0  0  0  0
  -26.7737   35.3996  -23.2634 C   0  0  0  0  0  0  0  0  0  0  0  0
  -24.0304   28.7912  -18.6341 C   0  0  0  0  0  0  0  0  0  0  0  0
  -12.6313   24.7089  -16.3032 N   0  0  0  0  0  0  0  0  0  0  0  0
  -11.2935   32.9789  -19.4123 O   0  0  0  0  0  0  0  0  0  0  0  0
  -27.6574   34.4780  -22.7225 C   0  0  0  0  0  0  0  0  0  0  0  0
  -23.5991   27.3450  -18.8997 C   0  0  0  0  0  0  0  0  0  0  0  0
  -12.3369   25.6339  -17.1728 C   0  0  0  0  0  0  0  0  0  0  0  0
   -9.8735   31.1675  -20.5321 O   0  0  0  0  0  0  0  0  0  0  0  0
  -22.7603   27.1902  -20.0866 N   0  0  0  0  0  0  0  0  0  0  0  0
  -12.7336   26.8922  -16.8004 N   0  0  0  0  0  0  0  0  0  0  0  0
  -12.2452   31.5504  -21.2372 O   0  0  0  0  0  0  0  0  0  0  0  0
  -21.5538   26.6485  -20.0832 C   0  0  0  0  0  0  0  0  0  0  0  0
  -21.0209   26.2191  -19.0568 O   0  0  0  0  0  0  0  0  0  0  0  0
  -20.8731   26.4948  -21.4348 C   0  0  2  0  0  0  0  0  0  0  0  0
  -20.4996   25.1399  -21.6014 O   0  0  0  0  0  0  0  0  0  0  0  0
  -19.6509   27.4057  -21.6578 C   0  0  1  0  0  0  0  0  0  0  0  0
  -19.0502   27.9450  -20.3672 C   0  0  0  0  0  0  0  0  0  0  0  0
  -18.5602   26.6112  -22.4056 C   0  0  0  0  0  0  0  0  0  0  0  0
  -20.0667   28.6169  -22.5029 C   0  0  0  0  0  0  0  0  0  0  0  0
  -12.7278   28.9461  -16.8914 H   0  0  0  0  0  0  0  0  0  0  0  0
  -14.9981   27.8959  -13.0931 H   0  0  0  0  0  0  0  0  0  0  0  0
  -10.7310   27.3358  -18.5322 H   0  0  0  0  0  0  0  0  0  0  0  0
  -10.5730   28.7187  -16.4498 H   0  0  0  0  0  0  0  0  0  0  0  0
  -27.7897   30.7042  -18.2530 H   0  0  0  0  0  0  0  0  0  0  0  0
  -28.8141   30.6407  -19.7160 H   0  0  0  0  0  0  0  0  0  0  0  0
  -27.0051   34.9881  -19.4350 H   0  0  0  0  0  0  0  0  0  0  0  0
  -10.9064   29.0870  -20.2841 H   0  0  0  0  0  0  0  0  0  0  0  0
  -26.9732   30.4422  -20.9541 H   0  0  0  0  0  0  0  0  0  0  0  0
  -26.4731   32.0971  -20.3744 H   0  0  0  0  0  0  0  0  0  0  0  0
  -25.4415   36.6397  -20.4201 H   0  0  0  0  0  0  0  0  0  0  0  0
  -13.5819   29.3826  -20.3196 H   0  0  0  0  0  0  0  0  0  0  0  0
  -25.0650   31.1362  -18.7861 H   0  0  0  0  0  0  0  0  0  0  0  0
  -25.3290   36.9423  -22.8915 H   0  0  0  0  0  0  0  0  0  0  0  0
  -13.2813   27.9028  -21.8927 H   0  0  0  0  0  0  0  0  0  0  0  0
  -12.0469   26.9896  -20.9899 H   0  0  0  0  0  0  0  0  0  0  0  0
  -13.4687   22.9581  -14.2850 H   0  0  0  0  0  0  0  0  0  0  0  0
  -14.4577   23.4144  -12.8720 H   0  0  0  0  0  0  0  0  0  0  0  0
  -26.6919   35.4970  -24.3560 H   0  0  0  0  0  0  0  0  0  0  0  0
  -23.1906   29.4571  -18.8816 H   0  0  0  0  0  0  0  0  0  0  0  0
  -24.3129   28.8575  -17.5731 H   0  0  0  0  0  0  0  0  0  0  0  0
  -28.2774   33.8605  -23.3891 H   0  0  0  0  0  0  0  0  0  0  0  0
  -23.0350   26.9850  -18.0266 H   0  0  0  0  0  0  0  0  0  0  0  0
  -24.5160   26.7634  -19.0761 H   0  0  0  0  0  0  0  0  0  0  0  0
  -11.8175   25.4241  -18.1195 H   0  0  0  0  0  0  0  0  0  0  0  0
  -23.1340   27.5255  -20.9860 H   0  0  0  0  0  0  0  0  0  0  0  0
  -21.6076   26.8139  -22.1889 H   0  0  0  0  0  0  0  0  0  0  0  0
  -20.3833   24.7181  -20.7133 H   0  0  0  0  0  0  0  0  0  0  0  0
  -18.5566   27.1319  -19.8147 H   0  0  0  0  0  0  0  0  0  0  0  0
  -19.8346   28.3715  -19.7247 H   0  0  0  0  0  0  0  0  0  0  0  0
  -17.8946   26.1265  -21.6762 H   0  0  0  0  0  0  0  0  0  0  0  0
  -19.0329   25.8444  -23.0369 H   0  0  0  0  0  0  0  0  0  0  0  0
  -17.9753   27.2964  -23.0369 H   0  0  0  0  0  0  0  0  0  0  0  0
  -20.3515   29.4466  -21.8393 H   0  0  0  0  0  0  0  0  0  0  0  0
  -19.2238   28.9278  -23.1377 H   0  0  0  0  0  0  0  0  0  0  0  0
  -20.9228   28.3446  -23.1377 H   0  0  0  0  0  0  0  0  0  0  0  0
  1  7  2  0
  1 35  1  0
  2  3  2  0
  3  8  1  1
  3 15  1  0
  3 31  1  0
  4  6  1  0
  4 10  1  0
  4 27  2  0
  5 11  1  0
  5 25  1  0
  5 47  1  0
  6 13  1  0
  7 14  1  0
  9 15  1  0
  9 22  1  1
  9 28  2  0
  9 37  1  0
 10 16  2  0
 10 42  1  0
 11 12  1  0
 11 17  1  0
 13 20  1  0
 14 21  2  0
 16 23  1  0
 17 18  1  0
 17 24  1  0
 18 19  1  0
 19 41  1  1
 19 45  2  0
 19 48  1  0
 20 26  1  0
 21 32  1  0
 21 47  1  0
 23 29  2  0
 24 25  1  0
 24 30  1  0
 26 33  1  0
 29 38  1  0
 30 31  1  0
 32 35  2  0
 32 40  1  0
 33 34  2  0
 33 39  1  0
 35 36  1  0
 37 54  1  0
 38 42  2  0
 39 43  1  0
 40 44  2  0
 43 46  1  0
 44 47  1  0
 46 49  1  0
 49 50  2  0
 49 51  1  0
 51 52  1  0
 51 53  1  0
 53 54  1  1
 53 55  1  0
 53 56  1  0
  5 57  1  1
  7 58  1  0
 11 59  1  6
 12 60  1  0
 13 61  1  0
 13 62  1  0
 16 63  1  0
 17 64  1  6
 20 65  1  0
 20 66  1  0
 23 67  1  0
 24 68  1  6
 26 69  1  0
 29 70  1  0
 30 71  1  0
 30 72  1  0
 36 73  1  0
 36 74  1  0
 38 75  1  0
 39 76  1  0
 39 77  1  0
 42 78  1  0
 43 79  1  0
 43 80  1  0
 44 81  1  0
 46 82  1  0
 51 83  1  6
 52 84  1  0
 54 85  1  0
 54 86  1  0
 55 87  1  0
 55 88  1  0
 55 89  1  0
 56 90  1  0
 56 91  1  0
 56 92  1  0
M  CHG  4   8  -1  22  -1  41  -1  48  -1
M  END
>  <filename_input>  (8) 
7PK0_BYC_docked.sdf

>  <pdb_id>  (8) 
7PK0_BYC

>  <pose_rank>  (8) 
7

>  <num_atoms_heavy>  (8) 
56

>  <num_torsions>  (8) 
21

>  <pose>  (8) 
[-16.79548482707964, 29.210077247163408, -19.793608787213902, 0.37346182878877265, 2.528763373757581, -1.3562022133039793, 2.5259391126126594, 0.10581398705404138, 2.16804585158466, 3.283229569345742, -2.828084009816342, 3.2829058686538737, 2.3357687362492503, -5.37951096959587, 3.073549253414937, -1.2535046652424104, -0.33508456267420106, 0.8475236343193457, 2.955631034878718, 1.6658920173140657, 0.03514921285614753, 0.8855527526107658, -1.9595443411691662, 1.5768492284002693, 0.36540079095843303, -0.022245141902499023, -4.019500713837999]

>  <energy>  (8) 
-625.2596512636883

>  <inter_energy>  (8) 
-738.8070762914899

>  <intra_energy>  (8) 
115.6585404925091

>  <rmsd>  (8) 
13.0062

>  <sdf_rank>  (8) 
0

$$$$

     RDKit          3D

 92 95  0  0  0  0  0  0  0  0999 V2000
  -25.8807   33.4286  -23.6423 N   0  0  0  0  0  0  0  0  0  0  0  0
  -21.2853   26.2962  -17.6591 O   0  0  0  0  0  0  0  0  0  0  0  0
  -22.3225   26.2584  -18.7402 P   0  0  2  0  0  0  0  0  0  0  0  0
  -10.5828   30.4143  -25.2281 C   0  0  0  0  0  0  0  0  0  0  0  0
  -26.8975   30.1126  -19.8519 C   0  0  1  0  0  0  0  0  0  0  0  0
  -10.9141   30.5516  -23.4810 S   0  0  0  0  0  0  0  0  0  0  0  0
  -25.6068   33.4662  -22.3294 C   0  0  0  0  0  0  0  0  0  0  0  0
  -23.0376   24.9680  -19.0150 O   0  0  0  0  0  0  0  0  0  0  0  0
  -20.9309   26.0860  -21.2596 P   0  0  1  0  0  0  0  0  0  0  0  0
  -11.2448   31.3895  -26.1230 C   0  0  0  0  0  0  0  0  0  0  0  0
  -27.4558   28.7527  -19.4559 C   0  0  2  0  0  0  0  0  0  0  0  0
  -28.8242   28.8401  -19.1117 O   0  0  0  0  0  0  0  0  0  0  0  0
   -9.2578   30.3987  -22.7764 C   0  0  0  0  0  0  0  0  0  0  0  0
  -25.9236   32.5883  -21.3748 N   0  0  0  0  0  0  0  0  0  0  0  0
  -21.8060   26.8312  -20.1376 O   0  0  0  0  0  0  0  0  0  0  0  0
  -12.3866   32.0297  -25.6557 C   0  0  0  0  0  0  0  0  0  0  0  0
  -26.5472   28.4063  -18.2866 C   0  0  2  0  0  0  0  0  0  0  0  0
  -27.0176   29.1222  -17.1398 O   0  0  0  0  0  0  0  0  0  0  0  0
  -27.1403   28.1984  -15.8076 P   0  0  1  0  0  0  0  0  0  0  0  0
   -9.2777   29.2914  -21.7702 C   0  0  0  0  0  0  0  0  0  0  0  0
  -26.6008   31.5549  -21.9073 C   0  0  0  0  0  0  0  0  0  0  0  0
  -21.2668   24.6254  -21.2728 O   0  0  0  0  0  0  0  0  0  0  0  0
  -13.0938   32.8982  -26.4729 C   0  0  0  0  0  0  0  0  0  0  0  0
  -25.1792   28.9677  -18.7171 C   0  0  2  0  0  0  0  0  0  0  0  0
  -25.5008   30.0624  -19.6183 O   0  0  0  0  0  0  0  0  0  0  0  0
  -10.4233   29.3445  -20.8938 N   0  0  0  0  0  0  0  0  0  0  0  0
   -9.7462   29.6135  -25.6028 O   0  0  0  0  0  0  0  0  0  0  0  0
  -21.0524   26.8875  -22.5043 O   0  0  0  0  0  0  0  0  0  0  0  0
  -12.6689   33.1408  -27.7726 C   0  0  0  0  0  0  0  0  0  0  0  0
  -24.2412   28.0076  -19.4293 C   0  0  0  0  0  0  0  0  0  0  0  0
  -23.4470   27.3533  -18.4206 O   0  0  0  0  0  0  0  0  0  0  0  0
  -26.9677   31.3894  -23.2251 C   0  0  0  0  0  0  0  0  0  0  0  0
  -10.5160   28.7165  -19.7064 C   0  0  0  0  0  0  0  0  0  0  0  0
   -9.6482   27.9401  -19.3352 O   0  0  0  0  0  0  0  0  0  0  0  0
  -26.6012   32.3928  -24.1385 C   0  0  0  0  0  0  0  0  0  0  0  0
  -26.8326   32.3211  -25.4511 N   0  0  0  0  0  0  0  0  0  0  0  0
  -19.4414   26.1992  -20.6819 O   0  0  0  0  0  0  0  0  0  0  0  0
  -11.5249   32.5413  -28.2248 C   0  0  0  0  0  0  0  0  0  0  0  0
  -11.8064   28.8752  -18.9195 C   0  0  0  0  0  0  0  0  0  0  0  0
  -27.6549   30.1924  -23.3954 N   0  0  0  0  0  0  0  0  0  0  0  0
  -28.1392   27.0208  -16.1363 O   0  0  0  0  0  0  0  0  0  0  0  0
  -10.8147   31.6654  -27.4177 C   0  0  0  0  0  0  0  0  0  0  0  0
  -12.7066   27.6364  -18.9763 C   0  0  0  0  0  0  0  0  0  0  0  0
  -27.6756   29.6715  -22.2009 C   0  0  0  0  0  0  0  0  0  0  0  0
  -25.7463   27.6740  -15.5047 O   0  0  0  0  0  0  0  0  0  0  0  0
  -13.9323   27.8353  -19.7472 N   0  0  0  0  0  0  0  0  0  0  0  0
  -27.0795   30.4523  -21.2446 N   0  0  0  0  0  0  0  0  0  0  0  0
  -27.6938   29.0350  -14.7146 O   0  0  0  0  0  0  0  0  0  0  0  0
  -15.1345   27.4518  -19.3510 C   0  0  0  0  0  0  0  0  0  0  0  0
  -15.3289   26.8807  -18.2750 O   0  0  0  0  0  0  0  0  0  0  0  0
  -16.3002   27.8278  -20.2529 C   0  0  2  0  0  0  0  0  0  0  0  0
  -17.1790   28.6686  -19.5290 O   0  0  0  0  0  0  0  0  0  0  0  0
  -17.0813   26.6373  -20.8411 C   0  0  1  0  0  0  0  0  0  0  0  0
  -18.4542   27.0160  -21.3787 C   0  0  0  0  0  0  0  0  0  0  0  0
  -16.2632   26.0178  -21.9930 C   0  0  0  0  0  0  0  0  0  0  0  0
  -17.2996   25.5825  -19.7484 C   0  0  0  0  0  0  0  0  0  0  0  0
  -27.4360   30.8701  -19.2634 H   0  0  0  0  0  0  0  0  0  0  0  0
  -25.0401   34.3462  -21.9911 H   0  0  0  0  0  0  0  0  0  0  0  0
  -27.4517   27.9882  -20.2467 H   0  0  0  0  0  0  0  0  0  0  0  0
  -28.9169   28.8460  -18.1261 H   0  0  0  0  0  0  0  0  0  0  0  0
   -8.5348   30.1658  -23.5720 H   0  0  0  0  0  0  0  0  0  0  0  0
   -8.9606   31.3428  -22.2964 H   0  0  0  0  0  0  0  0  0  0  0  0
  -12.7323   31.8456  -24.6278 H   0  0  0  0  0  0  0  0  0  0  0  0
  -26.5102   27.3340  -18.0440 H   0  0  0  0  0  0  0  0  0  0  0  0
   -9.2911   28.3310  -22.3064 H   0  0  0  0  0  0  0  0  0  0  0  0
   -8.3799   29.4004  -21.1440 H   0  0  0  0  0  0  0  0  0  0  0  0
  -13.9960   33.3975  -26.0899 H   0  0  0  0  0  0  0  0  0  0  0  0
  -24.6255   29.2415  -17.8069 H   0  0  0  0  0  0  0  0  0  0  0  0
  -11.2312   29.9053  -21.2000 H   0  0  0  0  0  0  0  0  0  0  0  0
  -13.2453   33.8074  -28.4310 H   0  0  0  0  0  0  0  0  0  0  0  0
  -24.8224   27.2624  -19.9923 H   0  0  0  0  0  0  0  0  0  0  0  0
  -23.5984   28.5480  -20.1398 H   0  0  0  0  0  0  0  0  0  0  0  0
  -27.3792   31.5373  -25.8357 H   0  0  0  0  0  0  0  0  0  0  0  0
  -26.4646   33.0495  -26.0795 H   0  0  0  0  0  0  0  0  0  0  0  0
  -11.1642   32.7569  -29.2413 H   0  0  0  0  0  0  0  0  0  0  0  0
  -11.5521   29.0741  -17.8680 H   0  0  0  0  0  0  0  0  0  0  0  0
  -12.3658   29.7057  -19.3748 H   0  0  0  0  0  0  0  0  0  0  0  0
   -9.9038   31.1846  -27.8039 H   0  0  0  0  0  0  0  0  0  0  0  0
  -12.1375   26.8144  -19.4349 H   0  0  0  0  0  0  0  0  0  0  0  0
  -13.0098   27.4119  -17.9430 H   0  0  0  0  0  0  0  0  0  0  0  0
  -28.1299   28.6943  -21.9802 H   0  0  0  0  0  0  0  0  0  0  0  0
  -13.8546   28.3056  -20.6602 H   0  0  0  0  0  0  0  0  0  0  0  0
  -15.8649   28.3408  -21.1231 H   0  0  0  0  0  0  0  0  0  0  0  0
  -17.0389   28.5346  -18.5582 H   0  0  0  0  0  0  0  0  0  0  0  0
  -18.5008   26.8196  -22.4600 H   0  0  0  0  0  0  0  0  0  0  0  0
  -18.6520   28.0854  -21.2140 H   0  0  0  0  0  0  0  0  0  0  0  0
  -15.4514   25.4031  -21.5770 H   0  0  0  0  0  0  0  0  0  0  0  0
  -16.9197   25.3883  -22.6117 H   0  0  0  0  0  0  0  0  0  0  0  0
  -15.8353   26.8203  -22.6117 H   0  0  0  0  0  0  0  0  0  0  0  0
  -17.2021   26.0536  -18.7592 H   0  0  0  0  0  0  0  0  0  0  0  0
  -18.3061   25.1508  -19.8513 H   0  0  0  0  0  0  0  0  0  0  0  0
  -16.5471   24.7868  -19.8513 H   0  0  0  0  0  0  0  0  0  0  0  0
  1  7  2  0
  1 35  1  0
  2  3  2  0
  3  8  1  6
  3 15  1  0
  3 31  1  0
  4  6  1  0
  4 10  1  0
  4 27  2  0
  5 11  1  0
  5 25  1  0
  5 47  1  0
  6 13  1  0
  7 14  1  0
  9 15  1  0
  9 22  1  6
  9 28  2  0
  9 37  1  0
 10 16  2  0
 10 42  1  0
 11 12  1  0
 11 17  1  0
 13 20  1  0
 14 21  2  0
 16 23  1  0
 17 18  1  0
 17 24  1  0
 18 19  1  0
 19 41  1  6
 19 45  2  0
 19 48  1  0
 20 26  1  0
 21 32  1  0
 21 47  1  0
 23 29  2  0
 24 25  1  0
 24 30  1  0
 26 33  1  0
 29 38  1  0
 30 31  1  0
 32 35  2  0
 32 40  1  0
 33 34  2  0
 33 39  1  0
 35 36  1  0
 37 54  1  0
 38 42  2  0
 39 43  1  0
 40 44  2  0
 43 46  1  0
 44 47  1  0
 46 49  1  0
 49 50  2  0
 49 51  1  0
 51 52  1  0
 51 53  1  0
 53 54  1  6
 53 55  1  0
 53 56  1  0
  5 57  1  1
  7 58  1  0
 11 59  1  6
 12 60  1  0
 13 61  1  0
 13 62  1  0
 16 63  1  0
 17 64  1  1
 20 65  1  0
 20 66  1  0
 23 67  1  0
 24 68  1  1
 26 69  1  0
 29 70  1  0
 30 71  1  0
 30 72  1  0
 36 73  1  0
 36 74  1  0
 38 75  1  0
 39 76  1  0
 39 77  1  0
 42 78  1  0
 43 79  1  0
 43 80  1  0
 44 81  1  0
 46 82  1  0
 51 83  1  6
 52 84  1  0
 54 85  1  0
 54 86  1  0
 55 87  1  0
 55 88  1  0
 55 89  1  0
 56 90  1  0
 56 91  1  0
 56 92  1  0
M  CHG  4   8  -1  22  -1  41  -1  48  -1
M  END
>  <filename_input>  (9) 
7PK0_BYC_docked.sdf

>  <pdb_id>  (9) 
7PK0_BYC

>  <pose_rank>  (9) 
8

>  <num_atoms_heavy>  (9) 
56

>  <num_torsions>  (9) 
21

>  <pose>  (9) 
[-20.930881801418916, 26.085958966409923, -21.259640419210545, 5.225734182706368, 0.3283702087972497, 3.1170080147844423, -1.1269318659752428, -0.15985135919925708, 2.992220142058702, -0.5025386634500751, 3.576389413066424, -1.2190759589432831, -1.0340501300811193, -0.5240834819706233, -1.442214380598284, 2.228482045630231, 2.651137153840828, 0.42645302707892735, 2.987661949129776, 7.653267672678666, -6.58873815984099, 14.603664488165869, 6.120014760416998, 10.1229296293477, -11.437691386054611, -0.2274830003342683, -2.0453697435452263]

>  <energy>  (9) 
-629.8097945646414

>  <inter_energy>  (9) 
-665.0409772692421

>  <intra_energy>  (9) 
34.082744279427956

>  <rmsd>  (9) 
6.91248

>  <sdf_rank>  (9) 
0

$$$$

     RDKit          3D

 92 95  0  0  0  0  0  0  0  0999 V2000
  -27.4512   29.3406  -16.4483 N   0  0  0  0  0  0  0  0  0  0  0  0
  -24.8419   31.5027  -19.4903 O   0  0  0  0  0  0  0  0  0  0  0  0
  -23.6403   31.6076  -20.3798 P   0  0  2  0  0  0  0  0  0  0  0  0
  -14.1977   25.0610  -14.9259 C   0  0  0  0  0  0  0  0  0  0  0  0
  -23.3841   26.5872  -17.9567 C   0  0  1  0  0  0  0  0  0  0  0  0
  -12.9820   26.2205  -15.5247 S   0  0  0  0  0  0  0  0  0  0  0  0
  -26.5930   29.5050  -17.4665 C   0  0  0  0  0  0  0  0  0  0  0  0
  -22.5835   32.6224  -20.0552 O   0  0  0  0  0  0  0  0  0  0  0  0
  -23.0370   31.6255  -23.1993 P   0  0  1  0  0  0  0  0  0  0  0  0
  -14.1789   24.7440  -13.4804 C   0  0  0  0  0  0  0  0  0  0  0  0
  -23.8472   25.8667  -19.2153 C   0  0  2  0  0  0  0  0  0  0  0  0
  -23.7662   24.4635  -19.0626 O   0  0  0  0  0  0  0  0  0  0  0  0
  -13.4960   26.4427  -17.2422 C   0  0  0  0  0  0  0  0  0  0  0  0
  -25.5258   28.7746  -17.7983 N   0  0  0  0  0  0  0  0  0  0  0  0
  -24.0050   31.7678  -21.9254 O   0  0  0  0  0  0  0  0  0  0  0  0
  -14.8023   23.5738  -13.0634 C   0  0  0  0  0  0  0  0  0  0  0  0
  -22.8732   26.4326  -20.2369 C   0  0  2  0  0  0  0  0  0  0  0  0
  -21.6316   25.7357  -20.0907 O   0  0  0  0  0  0  0  0  0  0  0  0
  -20.8641   25.4811  -21.5012 P   0  0  1  0  0  0  0  0  0  0  0  0
  -14.5488   27.5053  -17.2818 C   0  0  0  0  0  0  0  0  0  0  0  0
  -25.3840   27.7508  -16.9371 C   0  0  0  0  0  0  0  0  0  0  0  0
  -22.9628   30.1882  -23.6175 O   0  0  0  0  0  0  0  0  0  0  0  0
  -14.8830   23.2583  -11.7157 C   0  0  0  0  0  0  0  0  0  0  0  0
  -22.6964   27.8962  -19.7910 C   0  0  2  0  0  0  0  0  0  0  0  0
  -22.9554   27.8760  -18.3605 O   0  0  0  0  0  0  0  0  0  0  0  0
  -15.3113   27.5002  -18.5072 N   0  0  0  0  0  0  0  0  0  0  0  0
  -15.0593   24.6703  -15.6918 O   0  0  0  0  0  0  0  0  0  0  0  0
  -23.4549   32.6631  -24.1767 O   0  0  0  0  0  0  0  0  0  0  0  0
  -14.3399   24.1095  -10.7624 C   0  0  0  0  0  0  0  0  0  0  0  0
  -23.6109   28.9221  -20.4391 C   0  0  0  0  0  0  0  0  0  0  0  0
  -22.9121   30.1823  -20.4404 O   0  0  0  0  0  0  0  0  0  0  0  0
  -26.1713   27.4676  -15.8422 C   0  0  0  0  0  0  0  0  0  0  0  0
  -15.3743   28.5228  -19.3809 C   0  0  0  0  0  0  0  0  0  0  0  0
  -14.8624   29.6024  -19.1245 O   0  0  0  0  0  0  0  0  0  0  0  0
  -27.2543   28.3224  -15.5749 C   0  0  0  0  0  0  0  0  0  0  0  0
  -28.1329   28.1205  -14.5906 N   0  0  0  0  0  0  0  0  0  0  0  0
  -21.5995   31.9928  -22.5961 O   0  0  0  0  0  0  0  0  0  0  0  0
  -13.6930   25.2443  -11.1704 C   0  0  0  0  0  0  0  0  0  0  0  0
  -16.2393   28.3459  -20.6179 C   0  0  0  0  0  0  0  0  0  0  0  0
  -25.7156   26.3245  -15.1942 N   0  0  0  0  0  0  0  0  0  0  0  0
  -19.4661   24.8265  -21.1702 O   0  0  0  0  0  0  0  0  0  0  0  0
  -13.6134   25.5725  -12.5154 C   0  0  0  0  0  0  0  0  0  0  0  0
  -15.8277   29.2559  -21.7800 C   0  0  0  0  0  0  0  0  0  0  0  0
  -24.6912   25.9488  -15.9068 C   0  0  0  0  0  0  0  0  0  0  0  0
  -21.7375   24.5404  -22.3148 O   0  0  0  0  0  0  0  0  0  0  0  0
  -16.7888   30.3202  -22.0620 N   0  0  0  0  0  0  0  0  0  0  0  0
  -24.4152   26.7787  -16.9625 N   0  0  0  0  0  0  0  0  0  0  0  0
  -20.6594   26.7948  -22.1595 O   0  0  0  0  0  0  0  0  0  0  0  0
  -16.8856   30.9519  -23.2201 C   0  0  0  0  0  0  0  0  0  0  0  0
  -16.1574   30.6924  -24.1814 O   0  0  0  0  0  0  0  0  0  0  0  0
  -18.0089   31.9694  -23.3484 C   0  0  2  0  0  0  0  0  0  0  0  0
  -17.9243   32.8753  -22.2644 O   0  0  0  0  0  0  0  0  0  0  0  0
  -19.4267   31.3711  -23.4208 C   0  0  1  0  0  0  0  0  0  0  0  0
  -20.5274   32.4206  -23.4876 C   0  0  0  0  0  0  0  0  0  0  0  0
  -19.5328   30.4766  -24.6732 C   0  0  0  0  0  0  0  0  0  0  0  0
  -19.6860   30.5242  -22.1680 C   0  0  0  0  0  0  0  0  0  0  0  0
  -22.6030   25.9660  -17.4940 H   0  0  0  0  0  0  0  0  0  0  0  0
  -26.7980   30.3645  -18.1216 H   0  0  0  0  0  0  0  0  0  0  0  0
  -24.9006   26.0213  -19.4916 H   0  0  0  0  0  0  0  0  0  0  0  0
  -23.7531   24.2366  -18.0991 H   0  0  0  0  0  0  0  0  0  0  0  0
  -12.6337   26.7501  -17.8521 H   0  0  0  0  0  0  0  0  0  0  0  0
  -13.8932   25.4993  -17.6449 H   0  0  0  0  0  0  0  0  0  0  0  0
  -15.2357   22.8917  -13.8096 H   0  0  0  0  0  0  0  0  0  0  0  0
  -23.2087   26.3431  -21.2806 H   0  0  0  0  0  0  0  0  0  0  0  0
  -15.2383   27.3467  -16.4395 H   0  0  0  0  0  0  0  0  0  0  0  0
  -14.0373   28.4770  -17.2173 H   0  0  0  0  0  0  0  0  0  0  0  0
  -15.3798   22.3290  -11.4001 H   0  0  0  0  0  0  0  0  0  0  0  0
  -21.6897   28.2213  -20.0925 H   0  0  0  0  0  0  0  0  0  0  0  0
  -15.8480   26.6498  -18.7303 H   0  0  0  0  0  0  0  0  0  0  0  0
  -14.4286   23.8743   -9.6915 H   0  0  0  0  0  0  0  0  0  0  0  0
  -23.8433   28.6200  -21.4709 H   0  0  0  0  0  0  0  0  0  0  0  0
  -24.5576   29.0035  -19.8849 H   0  0  0  0  0  0  0  0  0  0  0  0
  -27.9903   27.3492  -13.9231 H   0  0  0  0  0  0  0  0  0  0  0  0
  -28.9536   28.7362  -14.4985 H   0  0  0  0  0  0  0  0  0  0  0  0
  -13.2304   25.9045  -10.4220 H   0  0  0  0  0  0  0  0  0  0  0  0
  -16.1641   27.2999  -20.9499 H   0  0  0  0  0  0  0  0  0  0  0  0
  -17.2675   28.6190  -20.3384 H   0  0  0  0  0  0  0  0  0  0  0  0
  -13.0991   26.4952  -12.8221 H   0  0  0  0  0  0  0  0  0  0  0  0
  -14.8604   29.7180  -21.5334 H   0  0  0  0  0  0  0  0  0  0  0  0
  -15.7744   28.6246  -22.6792 H   0  0  0  0  0  0  0  0  0  0  0  0
  -24.1017   25.0477  -15.6818 H   0  0  0  0  0  0  0  0  0  0  0  0
  -17.4341   30.5970  -21.3084 H   0  0  0  0  0  0  0  0  0  0  0  0
  -17.8619   32.4717  -24.3159 H   0  0  0  0  0  0  0  0  0  0  0  0
  -17.9710   32.3747  -21.4116 H   0  0  0  0  0  0  0  0  0  0  0  0
  -20.9060   32.5021  -24.5172 H   0  0  0  0  0  0  0  0  0  0  0  0
  -20.1418   33.4048  -23.1835 H   0  0  0  0  0  0  0  0  0  0  0  0
  -19.6571   29.4279  -24.3653 H   0  0  0  0  0  0  0  0  0  0  0  0
  -20.4003   30.7878  -25.2737 H   0  0  0  0  0  0  0  0  0  0  0  0
  -18.6165   30.5763  -25.2737 H   0  0  0  0  0  0  0  0  0  0  0  0
  -19.5001   31.1315  -21.2699 H   0  0  0  0  0  0  0  0  0  0  0  0
  -20.7307   30.1798  -22.1680 H   0  0  0  0  0  0  0  0  0  0  0  0
  -19.0131   29.6540  -22.1680 H   0  0  0  0  0  0  0  0  0  0  0  0
  1  7  2  0
  1 35  1  0
  2  3  2  0
  3  8  1  1
  3 15  1  0
  3 31  1  0
  4  6  1  0
  4 10  1  0
  4 27  2  0
  5 11  1  0
  5 25  1  0
  5 47  1  0
  6 13  1  0
  7 14  1  0
  9 15  1  0
  9 22  1  6
  9 28  2  0
  9 37  1  0
 10 16  2  0
 10 42  1  0
 11 12  1  0
 11 17  1  0
 13 20  1  0
 14 21  2  0
 16 23  1  0
 17 18  1  0
 17 24  1  0
 18 19  1  0
 19 41  1  1
 19 45  2  0
 19 48  1  0
 20 26  1  0
 21 32  1  0
 21 47  1  0
 23 29  2  0
 24 25  1  0
 24 30  1  0
 26 33  1  0
 29 38  1  0
 30 31  1  0
 32 35  2  0
 32 40  1  0
 33 34  2  0
 33 39  1  0
 35 36  1  0
 37 54  1  0
 38 42  2  0
 39 43  1  0
 40 44  2  0
 43 46  1  0
 44 47  1  0
 46 49  1  0
 49 50  2  0
 49 51  1  0
 51 52  1  0
 51 53  1  0
 53 54  1  6
 53 55  1  0
 53 56  1  0
  5 57  1  1
  7 58  1  0
 11 59  1  6
 12 60  1  0
 13 61  1  0
 13 62  1  0
 16 63  1  0
 17 64  1  6
 20 65  1  0
 20 66  1  0
 23 67  1  0
 24 68  1  1
 26 69  1  0
 29 70  1  0
 30 71  1  0
 30 72  1  0
 36 73  1  0
 36 74  1  0
 38 75  1  0
 39 76  1  0
 39 77  1  0
 42 78  1  0
 43 79  1  0
 43 80  1  0
 44 81  1  0
 46 82  1  0
 51 83  1  6
 52 84  1  0
 54 85  1  0
 54 86  1  0
 55 87  1  0
 55 88  1  0
 55 89  1  0
 56 90  1  0
 56 91  1  0
 56 92  1  0
M  CHG  4   8  -1  22  -1  41  -1  48  -1
M  END
>  <filename_input>  (10) 
7PK0_BYC_docked.sdf

>  <pdb_id>  (10) 
7PK0_BYC

>  <pose_rank>  (10) 
9

>  <num_atoms_heavy>  (10) 
56

>  <num_torsions>  (10) 
21

>  <pose>  (10) 
[-23.03697837798914, 31.625533566891693, -23.19927030905646, -3.206846341660618, -0.24107294348773087, -5.1396842365747455, -1.932446165955242, 0.6991710586063657, -3.5427159445273086, -0.24444009505509964, 0.28061608410772554, -1.6292372505781942, -1.0256660237486082, 1.2043318942920502, -0.7014237898482834, 0.17585384449691144, 0.05055541435538, -0.2602796869970445, 0.5623674011704614, 2.3136074208308632, 1.6454476335433927, 0.018233311789690402, 0.3441727174028127, 2.7523447103638303, -3.5103002967153705, -0.03371977400139614, 2.038185648381394]

>  <energy>  (10) 
-810.0825013453026

>  <inter_energy>  (10) 
-860.5149989233415

>  <intra_energy>  (10) 
69.38784625961398

>  <rmsd>  (10) 
5.77669

>  <sdf_rank>  (10) 
0

$$$$

     RDKit          3D

 92 95  0  0  0  0  0  0  0  0999 V2000
  -23.1896   33.4438  -22.7093 N   0  0  0  0  0  0  0  0  0  0  0  0
  -24.2428   29.3191  -16.4895 O   0  0  0  0  0  0  0  0  0  0  0  0
  -24.0221   27.9900  -17.1458 P   0  0  2  0  0  0  0  0  0  0  0  0
  -12.9798   24.2868  -13.0078 C   0  0  0  0  0  0  0  0  0  0  0  0
  -24.3281   28.5799  -21.5078 C   0  0  1  0  0  0  0  0  0  0  0  0
  -12.2705   25.1659  -14.3881 S   0  0  0  0  0  0  0  0  0  0  0  0
  -22.7301   32.2777  -23.1881 C   0  0  0  0  0  0  0  0  0  0  0  0
  -24.1731   26.7420  -16.3262 O   0  0  0  0  0  0  0  0  0  0  0  0
  -21.5003   26.7579  -17.8064 P   0  0  1  0  0  0  0  0  0  0  0  0
  -14.3867   24.5884  -12.6618 C   0  0  0  0  0  0  0  0  0  0  0  0
  -23.1012   27.9498  -20.8631 C   0  0  2  0  0  0  0  0  0  0  0  0
  -21.9490   28.1370  -21.6607 O   0  0  0  0  0  0  0  0  0  0  0  0
  -13.7364   25.5690  -15.3638 C   0  0  0  0  0  0  0  0  0  0  0  0
  -23.0364   31.0324  -22.8168 N   0  0  0  0  0  0  0  0  0  0  0  0
  -22.6342   27.8892  -17.9276 O   0  0  0  0  0  0  0  0  0  0  0  0
  -14.7086   25.9002  -12.3340 C   0  0  0  0  0  0  0  0  0  0  0  0
  -23.5511   26.5008  -20.7609 C   0  0  2  0  0  0  0  0  0  0  0  0
  -23.3909   25.9007  -22.0505 O   0  0  0  0  0  0  0  0  0  0  0  0
  -22.2949   24.7001  -22.0723 P   0  0  1  0  0  0  0  0  0  0  0  0
  -13.4400   26.7948  -16.1690 C   0  0  0  0  0  0  0  0  0  0  0  0
  -23.9472   31.0590  -21.8270 C   0  0  0  0  0  0  0  0  0  0  0  0
  -20.7988   26.8870  -16.4882 O   0  0  0  0  0  0  0  0  0  0  0  0
  -15.9925   26.2323  -11.9296 C   0  0  0  0  0  0  0  0  0  0  0  0
  -25.0510   26.6137  -20.4296 C   0  0  2  0  0  0  0  0  0  0  0  0
  -25.4553   27.8897  -20.9972 O   0  0  0  0  0  0  0  0  0  0  0  0
  -13.1904   26.5096  -17.5617 N   0  0  0  0  0  0  0  0  0  0  0  0
  -12.3307   23.4000  -12.4844 O   0  0  0  0  0  0  0  0  0  0  0  0
  -22.1337   25.4696  -18.1880 O   0  0  0  0  0  0  0  0  0  0  0  0
  -16.9766   25.2559  -11.8474 C   0  0  0  0  0  0  0  0  0  0  0  0
  -25.4282   26.5917  -18.9579 C   0  0  0  0  0  0  0  0  0  0  0  0
  -25.0213   27.8520  -18.3900 O   0  0  0  0  0  0  0  0  0  0  0  0
  -24.4931   32.1726  -21.2265 C   0  0  0  0  0  0  0  0  0  0  0  0
  -12.9976   27.4388  -18.5169 C   0  0  0  0  0  0  0  0  0  0  0  0
  -13.1415   28.6283  -18.2764 O   0  0  0  0  0  0  0  0  0  0  0  0
  -24.0757   33.4345  -21.6831 C   0  0  0  0  0  0  0  0  0  0  0  0
  -24.5774   34.5880  -21.2364 N   0  0  0  0  0  0  0  0  0  0  0  0
  -20.4403   27.1961  -18.9242 O   0  0  0  0  0  0  0  0  0  0  0  0
  -16.6738   23.9700  -12.2043 C   0  0  0  0  0  0  0  0  0  0  0  0
  -12.7586   26.9556  -19.9378 C   0  0  0  0  0  0  0  0  0  0  0  0
  -25.4043   31.8017  -20.2435 N   0  0  0  0  0  0  0  0  0  0  0  0
  -22.8569   23.5605  -23.0093 O   0  0  0  0  0  0  0  0  0  0  0  0
  -15.3908   23.6263  -12.6029 C   0  0  0  0  0  0  0  0  0  0  0  0
  -13.9503   27.2005  -20.8694 C   0  0  0  0  0  0  0  0  0  0  0  0
  -25.3926   30.4990  -20.2824 C   0  0  0  0  0  0  0  0  0  0  0  0
  -21.0076   25.2883  -22.6263 O   0  0  0  0  0  0  0  0  0  0  0  0
  -15.1985   26.6053  -20.3961 N   0  0  0  0  0  0  0  0  0  0  0  0
  -24.5153   29.9790  -21.1986 N   0  0  0  0  0  0  0  0  0  0  0  0
  -22.1468   24.1844  -20.6891 O   0  0  0  0  0  0  0  0  0  0  0  0
  -16.1701   27.2795  -19.8040 C   0  0  0  0  0  0  0  0  0  0  0  0
  -16.1050   28.4935  -19.5949 O   0  0  0  0  0  0  0  0  0  0  0  0
  -17.4303   26.4988  -19.4632 C   0  0  2  0  0  0  0  0  0  0  0  0
  -17.1088   25.1215  -19.4115 O   0  0  0  0  0  0  0  0  0  0  0  0
  -18.6165   26.7235  -20.4202 C   0  0  1  0  0  0  0  0  0  0  0  0
  -19.9426   26.2101  -19.8768 C   0  0  0  0  0  0  0  0  0  0  0  0
  -18.7591   28.2339  -20.6999 C   0  0  0  0  0  0  0  0  0  0  0  0
  -18.3529   25.9852  -21.7391 C   0  0  0  0  0  0  0  0  0  0  0  0
  -24.1978   28.5064  -22.5976 H   0  0  0  0  0  0  0  0  0  0  0  0
  -21.9960   32.3594  -24.0032 H   0  0  0  0  0  0  0  0  0  0  0  0
  -22.7998   28.3774  -19.8955 H   0  0  0  0  0  0  0  0  0  0  0  0
  -21.1603   28.2652  -21.0762 H   0  0  0  0  0  0  0  0  0  0  0  0
  -13.9785   24.7320  -16.0352 H   0  0  0  0  0  0  0  0  0  0  0  0
  -14.5960   25.7484  -14.7013 H   0  0  0  0  0  0  0  0  0  0  0  0
  -13.9375   26.6822  -12.3960 H   0  0  0  0  0  0  0  0  0  0  0  0
  -22.9955   25.9050  -20.0217 H   0  0  0  0  0  0  0  0  0  0  0  0
  -14.3009   27.4760  -16.0998 H   0  0  0  0  0  0  0  0  0  0  0  0
  -12.5249   27.2451  -15.7569 H   0  0  0  0  0  0  0  0  0  0  0  0
  -16.2329   27.2745  -11.6727 H   0  0  0  0  0  0  0  0  0  0  0  0
  -25.5544   25.7250  -20.8381 H   0  0  0  0  0  0  0  0  0  0  0  0
  -13.1572   25.5203  -17.8464 H   0  0  0  0  0  0  0  0  0  0  0  0
  -17.9878   25.5131  -11.4992 H   0  0  0  0  0  0  0  0  0  0  0  0
  -26.5155   26.4644  -18.8503 H   0  0  0  0  0  0  0  0  0  0  0  0
  -24.9331   25.7555  -18.4425 H   0  0  0  0  0  0  0  0  0  0  0  0
  -25.2510   34.5892  -20.4573 H   0  0  0  0  0  0  0  0  0  0  0  0
  -24.2908   35.4768  -21.6708 H   0  0  0  0  0  0  0  0  0  0  0  0
  -17.4580   23.1992  -12.1747 H   0  0  0  0  0  0  0  0  0  0  0  0
  -11.8835   27.4841  -20.3438 H   0  0  0  0  0  0  0  0  0  0  0  0
  -12.6003   25.8680  -19.8899 H   0  0  0  0  0  0  0  0  0  0  0  0
  -15.1648   22.5846  -12.8747 H   0  0  0  0  0  0  0  0  0  0  0  0
  -14.0981   28.2862  -20.9660 H   0  0  0  0  0  0  0  0  0  0  0  0
  -13.7104   26.7222  -21.8305 H   0  0  0  0  0  0  0  0  0  0  0  0
  -26.0288   29.8737  -19.6387 H   0  0  0  0  0  0  0  0  0  0  0  0
  -15.3302   25.5930  -20.5330 H   0  0  0  0  0  0  0  0  0  0  0  0
  -17.7744   26.8770  -18.4893 H   0  0  0  0  0  0  0  0  0  0  0  0
  -17.0415   24.8336  -18.4667 H   0  0  0  0  0  0  0  0  0  0  0  0
  -19.7927   25.2440  -19.3728 H   0  0  0  0  0  0  0  0  0  0  0  0
  -20.6643   26.0640  -20.6940 H   0  0  0  0  0  0  0  0  0  0  0  0
  -18.8106   28.7801  -19.7465 H   0  0  0  0  0  0  0  0  0  0  0  0
  -17.8899   28.5837  -21.2763 H   0  0  0  0  0  0  0  0  0  0  0  0
  -19.6783   28.4149  -21.2763 H   0  0  0  0  0  0  0  0  0  0  0  0
  -17.9902   24.9691  -21.5244 H   0  0  0  0  0  0  0  0  0  0  0  0
  -19.2856   25.9265  -22.3193 H   0  0  0  0  0  0  0  0  0  0  0  0
  -17.5939   26.5305  -22.3193 H   0  0  0  0  0  0  0  0  0  0  0  0
  1  7  2  0
  1 35  1  0
  2  3  2  0
  3  8  1  1
  3 15  1  0
  3 31  1  0
  4  6  1  0
  4 10  1  0
  4 27  2  0
  5 11  1  0
  5 25  1  0
  5 47  1  0
  6 13  1  0
  7 14  1  0
  9 15  1  0
  9 22  1  1
  9 28  2  0
  9 37  1  0
 10 16  2  0
 10 42  1  0
 11 12  1  0
 11 17  1  0
 13 20  1  0
 14 21  2  0
 16 23  1  0
 17 18  1  0
 17 24  1  0
 18 19  1  0
 19 41  1  6
 19 45  2  0
 19 48  1  0
 20 26  1  0
 21 32  1  0
 21 47  1  0
 23 29  2  0
 24 25  1  0
 24 30  1  0
 26 33  1  0
 29 38  1  0
 30 31  1  0
 32 35  2  0
 32 40  1  0
 33 34  2  0
 33 39  1  0
 35 36  1  0
 37 54  1  0
 38 42  2  0
 39 43  1  0
 40 44  2  0
 43 46  1  0
 44 47  1  0
 46 49  1  0
 49 50  2  0
 49 51  1  0
 51 52  1  0
 51 53  1  0
 53 54  1  1
 53 55  1  0
 53 56  1  0
  5 57  1  6
  7 58  1  0
 11 59  1  1
 12 60  1  0
 13 61  1  0
 13 62  1  0
 16 63  1  0
 17 64  1  1
 20 65  1  0
 20 66  1  0
 23 67  1  0
 24 68  1  6
 26 69  1  0
 29 70  1  0
 30 71  1  0
 30 72  1  0
 36 73  1  0
 36 74  1  0
 38 75  1  0
 39 76  1  0
 39 77  1  0
 42 78  1  0
 43 79  1  0
 43 80  1  0
 44 81  1  0
 46 82  1  0
 51 83  1  1
 52 84  1  0
 54 85  1  0
 54 86  1  0
 55 87  1  0
 55 88  1  0
 55 89  1  0
 56 90  1  0
 56 91  1  0
 56 92  1  0
M  CHG  4   8  -1  22  -1  41  -1  48  -1
M  END
>  <filename_input>  (11) 
7PK0_BYC_docked.sdf

>  <pdb_id>  (11) 
7PK0_BYC

>  <pose_rank>  (11) 
10

>  <num_atoms_heavy>  (11) 
56

>  <num_torsions>  (11) 
21

>  <pose>  (11) 
[-21.500280159341226, 26.757942194375023, -17.806365243976426, 4.059860812508556, -1.1166320102166076, -1.1865209008152147, -1.442277312272428, -0.0433931388206047, 0.2318065666373183, 0.04491453446519631, -0.2690459460523769, 2.904722610656866, -0.08852113189671149, -0.46586190637355906, -1.8567139872418421, -1.4484289363636527, 1.2447413321249923, 2.325084845185736, 2.3303281547525447, -0.43674834608819835, 0.5197573208240459, 2.9158652264510283, 0.8325990270557101, 0.380915529559091, -0.6248497945978952, -0.520998037895918, 1.4403259067682996]

>  <energy>  (11) 
-761.4787529774837

>  <inter_energy>  (11) 
-904.9842646182835

>  <intra_energy>  (11) 
141.87837249803053

>  <rmsd>  (11) 
3.8143

>  <sdf_rank>  (11) 
0

$$$$

     RDKit          3D

 92 95  0  0  0  0  0  0  0  0999 V2000
  -26.8773   29.6207  -15.8290 N   0  0  0  0  0  0  0  0  0  0  0  0
  -17.7045   29.4247  -20.6336 O   0  0  0  0  0  0  0  0  0  0  0  0
  -18.0731   27.9894  -20.4099 P   0  0  2  0  0  0  0  0  0  0  0  0
  -10.8812   31.9494  -21.4342 C   0  0  0  0  0  0  0  0  0  0  0  0
  -23.8205   28.5078  -19.8058 C   0  0  1  0  0  0  0  0  0  0  0  0
   -9.9631   33.0398  -20.3623 S   0  0  0  0  0  0  0  0  0  0  0  0
  -26.5254   30.3355  -16.9086 C   0  0  0  0  0  0  0  0  0  0  0  0
  -18.1293   27.4651  -19.0049 O   0  0  0  0  0  0  0  0  0  0  0  0
  -15.6120   26.9552  -21.4994 P   0  0  1  0  0  0  0  0  0  0  0  0
  -10.1205   31.2210  -22.4739 C   0  0  0  0  0  0  0  0  0  0  0  0
  -22.8659   29.6922  -19.7449 C   0  0  2  0  0  0  0  0  0  0  0  0
  -23.5670   30.9192  -19.7851 O   0  0  0  0  0  0  0  0  0  0  0  0
   -9.2918   31.8853  -19.1459 C   0  0  0  0  0  0  0  0  0  0  0  0
  -25.6965   30.0107  -17.9035 N   0  0  0  0  0  0  0  0  0  0  0  0
  -17.2021   26.9671  -21.2722 O   0  0  0  0  0  0  0  0  0  0  0  0
   -9.2653   30.2057  -22.0621 C   0  0  0  0  0  0  0  0  0  0  0  0
  -22.0135   29.4289  -20.9765 C   0  0  2  0  0  0  0  0  0  0  0  0
  -22.7522   29.8664  -22.1217 O   0  0  0  0  0  0  0  0  0  0  0  0
  -22.0562   31.1114  -22.9020 P   0  0  1  0  0  0  0  0  0  0  0  0
   -9.5242   32.4552  -17.7820 C   0  0  0  0  0  0  0  0  0  0  0  0
  -25.2071   28.7728  -17.7082 C   0  0  0  0  0  0  0  0  0  0  0  0
  -15.1625   25.5672  -21.8427 O   0  0  0  0  0  0  0  0  0  0  0  0
   -8.4705   29.5361  -22.9798 C   0  0  0  0  0  0  0  0  0  0  0  0
  -21.8861   27.8943  -21.0029 C   0  0  2  0  0  0  0  0  0  0  0  0
  -23.0821   27.4169  -20.3278 O   0  0  0  0  0  0  0  0  0  0  0  0
   -9.4199   31.4699  -16.7324 N   0  0  0  0  0  0  0  0  0  0  0  0
  -12.0599   31.7560  -21.1998 O   0  0  0  0  0  0  0  0  0  0  0  0
  -15.2981   28.0847  -22.4116 O   0  0  0  0  0  0  0  0  0  0  0  0
   -8.5193   29.8717  -24.3265 C   0  0  0  0  0  0  0  0  0  0  0  0
  -20.6675   27.2988  -20.3180 C   0  0  0  0  0  0  0  0  0  0  0  0
  -19.5076   27.7124  -21.0663 O   0  0  0  0  0  0  0  0  0  0  0  0
  -25.4626   27.9337  -16.6454 C   0  0  0  0  0  0  0  0  0  0  0  0
  -10.2335   31.3937  -15.6623 C   0  0  0  0  0  0  0  0  0  0  0  0
  -11.0714   32.2564  -15.4456 O   0  0  0  0  0  0  0  0  0  0  0  0
  -26.3329   28.3931  -15.6421 C   0  0  0  0  0  0  0  0  0  0  0  0
  -26.7176   27.6546  -14.5989 N   0  0  0  0  0  0  0  0  0  0  0  0
  -15.0414   27.2629  -20.0349 O   0  0  0  0  0  0  0  0  0  0  0  0
   -9.3865   30.8454  -24.7417 C   0  0  0  0  0  0  0  0  0  0  0  0
   -9.9682   30.2942  -14.6472 C   0  0  0  0  0  0  0  0  0  0  0  0
  -24.7780   26.7324  -16.7945 N   0  0  0  0  0  0  0  0  0  0  0  0
  -21.6733   32.1959  -21.8204 O   0  0  0  0  0  0  0  0  0  0  0  0
  -10.1802   31.5261  -23.8306 C   0  0  0  0  0  0  0  0  0  0  0  0
  -10.9677   29.1359  -14.7336 C   0  0  0  0  0  0  0  0  0  0  0  0
  -24.1474   26.8707  -17.9267 C   0  0  0  0  0  0  0  0  0  0  0  0
  -20.8212   30.5615  -23.5965 O   0  0  0  0  0  0  0  0  0  0  0  0
  -11.1603   28.6257  -16.0896 N   0  0  0  0  0  0  0  0  0  0  0  0
  -24.3391   28.0900  -18.5233 N   0  0  0  0  0  0  0  0  0  0  0  0
  -23.0489   31.6764  -23.8488 O   0  0  0  0  0  0  0  0  0  0  0  0
  -11.7362   27.4706  -16.3783 C   0  0  0  0  0  0  0  0  0  0  0  0
  -12.1685   26.7082  -15.5102 O   0  0  0  0  0  0  0  0  0  0  0  0
  -11.9252   27.1546  -17.8541 C   0  0  2  0  0  0  0  0  0  0  0  0
  -10.8468   27.7162  -18.5784 O   0  0  0  0  0  0  0  0  0  0  0  0
  -13.2622   27.6262  -18.4569 C   0  0  1  0  0  0  0  0  0  0  0  0
  -13.6996   26.8208  -19.6724 C   0  0  0  0  0  0  0  0  0  0  0  0
  -14.3644   27.5204  -17.3827 C   0  0  0  0  0  0  0  0  0  0  0  0
  -13.1301   29.0870  -18.9071 C   0  0  0  0  0  0  0  0  0  0  0  0
  -24.6824   28.8148  -20.4164 H   0  0  0  0  0  0  0  0  0  0  0  0
  -26.9857   31.3316  -16.9849 H   0  0  0  0  0  0  0  0  0  0  0  0
  -22.2745   29.7796  -18.8215 H   0  0  0  0  0  0  0  0  0  0  0  0
  -23.7438   31.2286  -18.8614 H   0  0  0  0  0  0  0  0  0  0  0  0
   -9.7996   30.9137  -19.2349 H   0  0  0  0  0  0  0  0  0  0  0  0
   -8.2154   31.7367  -19.3170 H   0  0  0  0  0  0  0  0  0  0  0  0
   -9.2186   29.9308  -20.9980 H   0  0  0  0  0  0  0  0  0  0  0  0
  -21.0379   29.9370  -20.9692 H   0  0  0  0  0  0  0  0  0  0  0  0
   -8.7776   33.2420  -17.5992 H   0  0  0  0  0  0  0  0  0  0  0  0
  -10.5509   32.8495  -17.7614 H   0  0  0  0  0  0  0  0  0  0  0  0
   -7.7979   28.7349  -22.6395 H   0  0  0  0  0  0  0  0  0  0  0  0
  -21.7700   27.5835  -22.0517 H   0  0  0  0  0  0  0  0  0  0  0  0
   -8.6659   30.7723  -16.8078 H   0  0  0  0  0  0  0  0  0  0  0  0
   -7.8683   29.3608  -25.0511 H   0  0  0  0  0  0  0  0  0  0  0  0
  -20.5993   27.6683  -19.2841 H   0  0  0  0  0  0  0  0  0  0  0  0
  -20.7377   26.2016  -20.2853 H   0  0  0  0  0  0  0  0  0  0  0  0
  -26.3087   26.7210  -14.4501 H   0  0  0  0  0  0  0  0  0  0  0  0
  -27.4234   28.0182  -13.9428 H   0  0  0  0  0  0  0  0  0  0  0  0
   -9.4550   31.0914  -25.8116 H   0  0  0  0  0  0  0  0  0  0  0  0
   -8.9571   29.8966  -14.8193 H   0  0  0  0  0  0  0  0  0  0  0  0
  -10.0730   30.7413  -13.6476 H   0  0  0  0  0  0  0  0  0  0  0  0
  -10.8625   32.3136  -24.1831 H   0  0  0  0  0  0  0  0  0  0  0  0
  -10.6013   28.3133  -14.1019 H   0  0  0  0  0  0  0  0  0  0  0  0
  -11.9396   29.5243  -14.3954 H   0  0  0  0  0  0  0  0  0  0  0  0
  -23.5186   26.0810  -18.3637 H   0  0  0  0  0  0  0  0  0  0  0  0
  -10.8250   29.2045  -16.8729 H   0  0  0  0  0  0  0  0  0  0  0  0
  -11.9473   26.0578  -17.9351 H   0  0  0  0  0  0  0  0  0  0  0  0
  -10.1716   28.0677  -17.9454 H   0  0  0  0  0  0  0  0  0  0  0  0
  -13.7115   25.7485  -19.4274 H   0  0  0  0  0  0  0  0  0  0  0  0
  -13.0027   26.9752  -20.5094 H   0  0  0  0  0  0  0  0  0  0  0  0
  -13.9075   27.5642  -16.3830 H   0  0  0  0  0  0  0  0  0  0  0  0
  -15.0716   28.3547  -17.4995 H   0  0  0  0  0  0  0  0  0  0  0  0
  -14.8999   26.5667  -17.4995 H   0  0  0  0  0  0  0  0  0  0  0  0
  -13.0711   29.7391  -18.0232 H   0  0  0  0  0  0  0  0  0  0  0  0
  -12.2177   29.2037  -19.5104 H   0  0  0  0  0  0  0  0  0  0  0  0
  -14.0067   29.3655  -19.5104 H   0  0  0  0  0  0  0  0  0  0  0  0
  1  7  2  0
  1 35  1  0
  2  3  2  0
  3  8  1  1
  3 15  1  0
  3 31  1  0
  4  6  1  0
  4 10  1  0
  4 27  2  0
  5 11  1  0
  5 25  1  0
  5 47  1  0
  6 13  1  0
  7 14  1  0
  9 15  1  0
  9 22  1  6
  9 28  2  0
  9 37  1  0
 10 16  2  0
 10 42  1  0
 11 12  1  0
 11 17  1  0
 13 20  1  0
 14 21  2  0
 16 23  1  0
 17 18  1  0
 17 24  1  0
 18 19  1  0
 19 41  1  1
 19 45  2  0
 19 48  1  0
 20 26  1  0
 21 32  1  0
 21 47  1  0
 23 29  2  0
 24 25  1  0
 24 30  1  0
 26 33  1  0
 29 38  1  0
 30 31  1  0
 32 35  2  0
 32 40  1  0
 33 34  2  0
 33 39  1  0
 35 36  1  0
 37 54  1  0
 38 42  2  0
 39 43  1  0
 40 44  2  0
 43 46  1  0
 44 47  1  0
 46 49  1  0
 49 50  2  0
 49 51  1  0
 51 52  1  0
 51 53  1  0
 53 54  1  6
 53 55  1  0
 53 56  1  0
  5 57  1  6
  7 58  1  0
 11 59  1  1
 12 60  1  0
 13 61  1  0
 13 62  1  0
 16 63  1  0
 17 64  1  1
 20 65  1  0
 20 66  1  0
 23 67  1  0
 24 68  1  6
 26 69  1  0
 29 70  1  0
 30 71  1  0
 30 72  1  0
 36 73  1  0
 36 74  1  0
 38 75  1  0
 39 76  1  0
 39 77  1  0
 42 78  1  0
 43 79  1  0
 43 80  1  0
 44 81  1  0
 46 82  1  0
 51 83  1  1
 52 84  1  0
 54 85  1  0
 54 86  1  0
 55 87  1  0
 55 88  1  0
 55 89  1  0
 56 90  1  0
 56 91  1  0
 56 92  1  0
M  CHG  4   8  -1  22  -1  41  -1  48  -1
M  END
>  <filename_input>  (12) 
7PK0_BYC_docked.sdf

>  <pdb_id>  (12) 
7PK0_BYC

>  <pose_rank>  (12) 
11

>  <num_atoms_heavy>  (12) 
56

>  <num_torsions>  (12) 
21

>  <pose>  (12) 
[-15.611966247201382, 26.955173579854545, -21.499424357267557, -0.863076107499741, 5.096805066158948, -1.7329392522921436, -2.728666738426345, -0.7502561451432566, 1.8744119570628914, 0.24018455660000596, -0.06254751114025714, -2.276325624082985, 1.7535019700768086, 2.1097051639119035, -1.057919715981296, -0.44267553699089, -3.7663506534768008, 1.3461064793501298, -1.6938290680647308, 3.520275119515228, -0.9326743481424151, -2.677986541944199, -0.7312001788018481, -2.0340281550920376, -0.9113597614439716, -0.5301734841939839, -1.8584657021127544]

>  <energy>  (12) 
-713.6519304120826

>  <inter_energy>  (12) 
-750.257559508442

>  <intra_energy>  (12) 
39.863818326786195

>  <rmsd>  (12) 
7.89043

>  <sdf_rank>  (12) 
0

$$$$

     RDKit          3D

 92 95  0  0  0  0  0  0  0  0999 V2000
  -15.1620   28.7582  -20.3832 N   0  0  0  0  0  0  0  0  0  0  0  0
  -20.3775   29.6542  -24.4577 O   0  0  0  0  0  0  0  0  0  0  0  0
  -19.9186   29.7885  -23.0373 P   0  0  2  0  0  0  0  0  0  0  0  0
  -13.6014   26.0149  -13.5430 C   0  0  0  0  0  0  0  0  0  0  0  0
  -19.2690   25.6757  -20.2169 C   0  0  1  0  0  0  0  0  0  0  0  0
  -12.7460   25.6730  -15.0702 S   0  0  0  0  0  0  0  0  0  0  0  0
  -16.4765   29.0239  -20.4221 C   0  0  0  0  0  0  0  0  0  0  0  0
  -20.5944   30.7908  -22.1480 O   0  0  0  0  0  0  0  0  0  0  0  0
  -17.4177   31.1069  -23.6040 P   0  0  1  0  0  0  0  0  0  0  0  0
  -14.2219   24.8689  -12.8415 C   0  0  0  0  0  0  0  0  0  0  0  0
  -19.9603   26.9241  -19.6866 C   0  0  2  0  0  0  0  0  0  0  0  0
  -20.0337   26.9097  -18.2748 O   0  0  0  0  0  0  0  0  0  0  0  0
  -13.0850   27.1669  -16.0276 C   0  0  0  0  0  0  0  0  0  0  0  0
  -17.5101   28.1789  -20.4085 N   0  0  0  0  0  0  0  0  0  0  0  0
  -18.3432   30.0019  -22.8952 O   0  0  0  0  0  0  0  0  0  0  0  0
  -15.3452   25.1154  -12.0610 C   0  0  0  0  0  0  0  0  0  0  0  0
  -21.3114   26.8105  -20.3751 C   0  0  2  0  0  0  0  0  0  0  0  0
  -22.0957   25.8608  -19.6460 O   0  0  0  0  0  0  0  0  0  0  0  0
  -23.3063   26.5384  -18.7982 P   0  0  1  0  0  0  0  0  0  0  0  0
  -11.9208   27.4161  -16.9339 C   0  0  0  0  0  0  0  0  0  0  0  0
  -17.0661   26.9111  -20.3339 C   0  0  0  0  0  0  0  0  0  0  0  0
  -15.9910   30.6477  -23.5986 O   0  0  0  0  0  0  0  0  0  0  0  0
  -15.9279   24.0982  -11.3208 C   0  0  0  0  0  0  0  0  0  0  0  0
  -20.9610   26.2327  -21.7591 C   0  0  2  0  0  0  0  0  0  0  0  0
  -19.7316   25.4871  -21.5429 O   0  0  0  0  0  0  0  0  0  0  0  0
  -12.1635   28.4706  -17.8890 N   0  0  0  0  0  0  0  0  0  0  0  0
  -13.5432   27.1390  -13.0799 O   0  0  0  0  0  0  0  0  0  0  0  0
  -18.0781   31.4651  -24.8855 O   0  0  0  0  0  0  0  0  0  0  0  0
  -15.3956   22.8159  -11.3504 C   0  0  0  0  0  0  0  0  0  0  0  0
  -20.7348   27.2341  -22.8792 C   0  0  0  0  0  0  0  0  0  0  0  0
  -20.0453   28.3656  -22.3130 O   0  0  0  0  0  0  0  0  0  0  0  0
  -15.7552   26.4876  -20.3049 C   0  0  0  0  0  0  0  0  0  0  0  0
  -11.2654   29.4068  -18.2494 C   0  0  0  0  0  0  0  0  0  0  0  0
  -10.1857   29.4944  -17.6837 O   0  0  0  0  0  0  0  0  0  0  0  0
  -14.7486   27.4674  -20.3503 C   0  0  0  0  0  0  0  0  0  0  0  0
  -13.4449   27.1960  -20.2583 N   0  0  0  0  0  0  0  0  0  0  0  0
  -17.4962   32.3417  -22.5870 O   0  0  0  0  0  0  0  0  0  0  0  0
  -14.3120   22.5601  -12.1459 C   0  0  0  0  0  0  0  0  0  0  0  0
  -11.6990   30.4515  -19.2644 C   0  0  0  0  0  0  0  0  0  0  0  0
  -15.6904   25.1009  -20.2216 N   0  0  0  0  0  0  0  0  0  0  0  0
  -23.0208   26.2742  -17.2681 O   0  0  0  0  0  0  0  0  0  0  0  0
  -13.7174   23.5723  -12.8842 C   0  0  0  0  0  0  0  0  0  0  0  0
  -13.0000   31.1647  -18.8812 C   0  0  0  0  0  0  0  0  0  0  0  0
  -16.9398   24.7311  -20.1925 C   0  0  0  0  0  0  0  0  0  0  0  0
  -23.2895   28.0244  -19.1163 O   0  0  0  0  0  0  0  0  0  0  0  0
  -13.4405   32.1524  -19.8645 N   0  0  0  0  0  0  0  0  0  0  0  0
  -17.8286   25.7709  -20.2830 N   0  0  0  0  0  0  0  0  0  0  0  0
  -24.5740   25.8766  -19.1933 O   0  0  0  0  0  0  0  0  0  0  0  0
  -14.4005   33.0378  -19.6555 C   0  0  0  0  0  0  0  0  0  0  0  0
  -15.0204   33.1072  -18.5912 O   0  0  0  0  0  0  0  0  0  0  0  0
  -14.6547   34.0416  -20.7696 C   0  0  2  0  0  0  0  0  0  0  0  0
  -14.5498   35.3475  -20.2342 O   0  0  0  0  0  0  0  0  0  0  0  0
  -16.0028   33.8815  -21.4979 C   0  0  1  0  0  0  0  0  0  0  0  0
  -16.5249   32.4516  -21.5045 C   0  0  0  0  0  0  0  0  0  0  0  0
  -17.0548   34.7788  -20.8136 C   0  0  0  0  0  0  0  0  0  0  0  0
  -15.8440   34.3109  -22.9623 C   0  0  0  0  0  0  0  0  0  0  0  0
  -19.5053   24.8535  -19.5254 H   0  0  0  0  0  0  0  0  0  0  0  0
  -16.7405   30.0906  -20.4724 H   0  0  0  0  0  0  0  0  0  0  0  0
  -19.4488   27.8756  -19.8942 H   0  0  0  0  0  0  0  0  0  0  0  0
  -19.1364   27.0864  -17.8958 H   0  0  0  0  0  0  0  0  0  0  0  0
  -13.9983   27.0273  -16.6245 H   0  0  0  0  0  0  0  0  0  0  0  0
  -13.2325   28.0242  -15.3543 H   0  0  0  0  0  0  0  0  0  0  0  0
  -15.7759   26.1271  -12.0302 H   0  0  0  0  0  0  0  0  0  0  0  0
  -21.8690   27.7567  -20.4376 H   0  0  0  0  0  0  0  0  0  0  0  0
  -11.0516   27.6933  -16.3194 H   0  0  0  0  0  0  0  0  0  0  0  0
  -11.7440   26.4916  -17.5032 H   0  0  0  0  0  0  0  0  0  0  0  0
  -16.8164   24.3079  -10.7071 H   0  0  0  0  0  0  0  0  0  0  0  0
  -21.8236   25.6461  -22.1079 H   0  0  0  0  0  0  0  0  0  0  0  0
  -13.0943   28.5099  -18.3283 H   0  0  0  0  0  0  0  0  0  0  0  0
  -15.8399   22.0149  -10.7412 H   0  0  0  0  0  0  0  0  0  0  0  0
  -20.1231   26.7794  -23.6723 H   0  0  0  0  0  0  0  0  0  0  0  0
  -21.6928   27.5448  -23.3217 H   0  0  0  0  0  0  0  0  0  0  0  0
  -13.1230   26.2179  -20.2328 H   0  0  0  0  0  0  0  0  0  0  0  0
  -12.7608   27.9646  -20.2129 H   0  0  0  0  0  0  0  0  0  0  0  0
  -13.9074   21.5387  -12.2005 H   0  0  0  0  0  0  0  0  0  0  0  0
  -10.9015   31.2038  -19.3536 H   0  0  0  0  0  0  0  0  0  0  0  0
  -11.8822   29.9272  -20.2139 H   0  0  0  0  0  0  0  0  0  0  0  0
  -12.8399   23.3487  -13.5087 H   0  0  0  0  0  0  0  0  0  0  0  0
  -13.7910   30.4084  -18.7705 H   0  0  0  0  0  0  0  0  0  0  0  0
  -12.8048   31.7083  -17.9451 H   0  0  0  0  0  0  0  0  0  0  0  0
  -17.2527   23.6803  -20.1034 H   0  0  0  0  0  0  0  0  0  0  0  0
  -12.9718   32.1593  -20.7816 H   0  0  0  0  0  0  0  0  0  0  0  0
  -13.8913   33.8504  -21.5382 H   0  0  0  0  0  0  0  0  0  0  0  0
  -14.5536   35.3000  -19.2453 H   0  0  0  0  0  0  0  0  0  0  0  0
  -17.0079   32.2242  -20.5427 H   0  0  0  0  0  0  0  0  0  0  0  0
  -15.6995   31.7396  -21.6523 H   0  0  0  0  0  0  0  0  0  0  0  0
  -16.9548   34.6936  -19.7215 H   0  0  0  0  0  0  0  0  0  0  0  0
  -16.8969   35.8247  -21.1157 H   0  0  0  0  0  0  0  0  0  0  0  0
  -18.0626   34.4580  -21.1157 H   0  0  0  0  0  0  0  0  0  0  0  0
  -15.4627   35.3419  -23.0028 H   0  0  0  0  0  0  0  0  0  0  0  0
  -15.1353   33.6378  -23.4670 H   0  0  0  0  0  0  0  0  0  0  0  0
  -16.8201   34.2609  -23.4670 H   0  0  0  0  0  0  0  0  0  0  0  0
  1  7  2  0
  1 35  1  0
  2  3  2  0
  3  8  1  1
  3 15  1  0
  3 31  1  0
  4  6  1  0
  4 10  1  0
  4 27  2  0
  5 11  1  0
  5 25  1  0
  5 47  1  0
  6 13  1  0
  7 14  1  0
  9 15  1  0
  9 22  1  6
  9 28  2  0
  9 37  1  0
 10 16  2  0
 10 42  1  0
 11 12  1  0
 11 17  1  0
 13 20  1  0
 14 21  2  0
 16 23  1  0
 17 18  1  0
 17 24  1  0
 18 19  1  0
 19 41  1  1
 19 45  2  0
 19 48  1  0
 20 26  1  0
 21 32  1  0
 21 47  1  0
 23 29  2  0
 24 25  1  0
 24 30  1  0
 26 33  1  0
 29 38  1  0
 30 31  1  0
 32 35  2  0
 32 40  1  0
 33 34  2  0
 33 39  1  0
 35 36  1  0
 37 54  1  0
 38 42  2  0
 39 43  1  0
 40 44  2  0
 43 46  1  0
 44 47  1  0
 46 49  1  0
 49 50  2  0
 49 51  1  0
 51 52  1  0
 51 53  1  0
 53 54  1  6
 53 55  1  0
 53 56  1  0
  5 57  1  1
  7 58  1  0
 11 59  1  1
 12 60  1  0
 13 61  1  0
 13 62  1  0
 16 63  1  0
 17 64  1  6
 20 65  1  0
 20 66  1  0
 23 67  1  0
 24 68  1  6
 26 69  1  0
 29 70  1  0
 30 71  1  0
 30 72  1  0
 36 73  1  0
 36 74  1  0
 38 75  1  0
 39 76  1  0
 39 77  1  0
 42 78  1  0
 43 79  1  0
 43 80  1  0
 44 81  1  0
 46 82  1  0
 51 83  1  6
 52 84  1  0
 54 85  1  0
 54 86  1  0
 55 87  1  0
 55 88  1  0
 55 89  1  0
 56 90  1  0
 56 91  1  0
 56 92  1  0
M  CHG  4   8  -1  22  -1  41  -1  48  -1
M  END
>  <filename_input>  (13) 
7PK0_BYC_docked.sdf

>  <pdb_id>  (13) 
7PK0_BYC

>  <pose_rank>  (13) 
12

>  <num_atoms_heavy>  (13) 
56

>  <num_torsions>  (13) 
21

>  <pose>  (13) 
[-17.41770002799521, 31.10693993137536, -23.60403197312324, 0.06556001663687003, -0.4444249167575365, 1.339224513105399, 2.4157726311564005, 5.030701855932639, -3.93950400138689, -3.841294489900841, -2.815188918577451, -1.8104849027481762, -2.226761999170798, -1.4267629088617158, -2.475769048559103, -0.27642784504789647, 1.1568878347457534, -0.9689605777755386, 0.7212400468125333, -1.9739325016119673, -0.7907845425914917, -0.8106207813922317, 0.10235453219366049, -0.21860988297965403, -2.484981700433953, -0.6556711731127768, -3.044297758442606]

>  <energy>  (13) 
-768.7956653149231

>  <inter_energy>  (13) 
-840.3417385241291

>  <intra_energy>  (13) 
77.75018045524948

>  <rmsd>  (13) 
6.25244

>  <sdf_rank>  (13) 
0

$$$$

     RDKit          3D

 92 95  0  0  0  0  0  0  0  0999 V2000
  -15.3250   27.8665  -18.5455 N   0  0  0  0  0  0  0  0  0  0  0  0
  -18.9564   29.2625  -23.2906 O   0  0  0  0  0  0  0  0  0  0  0  0
  -18.7679   28.6288  -21.9457 P   0  0  2  0  0  0  0  0  0  0  0  0
  -14.9558   26.7559  -12.7800 C   0  0  0  0  0  0  0  0  0  0  0  0
  -19.8208   25.4375  -19.0796 C   0  0  1  0  0  0  0  0  0  0  0  0
  -13.4854   27.1447  -13.7114 S   0  0  0  0  0  0  0  0  0  0  0  0
  -16.5895   28.2946  -18.4115 C   0  0  0  0  0  0  0  0  0  0  0  0
  -18.9254   29.4749  -20.7162 O   0  0  0  0  0  0  0  0  0  0  0  0
  -16.2726   27.5683  -22.9268 P   0  0  1  0  0  0  0  0  0  0  0  0
  -15.1553   25.3436  -12.3852 C   0  0  0  0  0  0  0  0  0  0  0  0
  -20.3274   26.6654  -18.3357 C   0  0  2  0  0  0  0  0  0  0  0  0
  -20.3527   26.4454  -16.9394 O   0  0  0  0  0  0  0  0  0  0  0  0
  -13.7964   26.2869  -15.2705 C   0  0  0  0  0  0  0  0  0  0  0  0
  -17.7313   27.6273  -18.5944 N   0  0  0  0  0  0  0  0  0  0  0  0
  -17.3950   27.8267  -21.8071 O   0  0  0  0  0  0  0  0  0  0  0  0
  -14.0356   24.6069  -12.0176 C   0  0  0  0  0  0  0  0  0  0  0  0
  -21.7052   26.8228  -18.9598 C   0  0  2  0  0  0  0  0  0  0  0  0
  -22.5788   25.8757  -18.3366 O   0  0  0  0  0  0  0  0  0  0  0  0
  -24.0847   26.4423  -18.1034 P   0  0  1  0  0  0  0  0  0  0  0  0
  -12.5189   26.2530  -16.0488 C   0  0  0  0  0  0  0  0  0  0  0  0
  -17.4689   26.3567  -18.9503 C   0  0  0  0  0  0  0  0  0  0  0  0
  -16.1406   26.0965  -23.1774 O   0  0  0  0  0  0  0  0  0  0  0  0
  -14.1465   23.2599  -11.7088 C   0  0  0  0  0  0  0  0  0  0  0  0
  -21.4803   26.4240  -20.4303 C   0  0  2  0  0  0  0  0  0  0  0  0
  -20.3498   25.5104  -20.3922 O   0  0  0  0  0  0  0  0  0  0  0  0
  -12.0071   27.5678  -16.3529 N   0  0  0  0  0  0  0  0  0  0  0  0
  -15.6691   27.6688  -12.4066 O   0  0  0  0  0  0  0  0  0  0  0  0
  -16.5670   28.4904  -24.0535 O   0  0  0  0  0  0  0  0  0  0  0  0
  -15.3818   22.6276  -11.7623 C   0  0  0  0  0  0  0  0  0  0  0  0
  -21.1670   27.5492  -21.4022 C   0  0  0  0  0  0  0  0  0  0  0  0
  -19.7897   27.4039  -21.8000 O   0  0  0  0  0  0  0  0  0  0  0  0
  -16.2306   25.7840  -19.1429 C   0  0  0  0  0  0  0  0  0  0  0  0
  -10.7583   27.9915  -16.0806 C   0  0  0  0  0  0  0  0  0  0  0  0
   -9.9868   27.3014  -15.4309 O   0  0  0  0  0  0  0  0  0  0  0  0
  -15.0972   26.5914  -18.9462 C   0  0  0  0  0  0  0  0  0  0  0  0
  -13.8430   26.1424  -19.0309 N   0  0  0  0  0  0  0  0  0  0  0  0
  -14.9246   28.0213  -22.1900 O   0  0  0  0  0  0  0  0  0  0  0  0
  -16.4927   23.3572  -12.0880 C   0  0  0  0  0  0  0  0  0  0  0  0
  -10.3945   29.4168  -16.4623 C   0  0  0  0  0  0  0  0  0  0  0  0
  -16.3602   24.4468  -19.5026 N   0  0  0  0  0  0  0  0  0  0  0  0
  -24.6187   25.8298  -16.7498 O   0  0  0  0  0  0  0  0  0  0  0  0
  -16.3911   24.7032  -12.4057 C   0  0  0  0  0  0  0  0  0  0  0  0
  -10.1302   29.5938  -17.9613 C   0  0  0  0  0  0  0  0  0  0  0  0
  -17.6482   24.2482  -19.5076 C   0  0  0  0  0  0  0  0  0  0  0  0
  -23.9785   27.9563  -18.0225 O   0  0  0  0  0  0  0  0  0  0  0  0
  -11.3271   29.9182  -18.7349 N   0  0  0  0  0  0  0  0  0  0  0  0
  -18.3833   25.3660  -19.2084 N   0  0  0  0  0  0  0  0  0  0  0  0
  -24.9316   25.9813  -19.2309 O   0  0  0  0  0  0  0  0  0  0  0  0
  -11.3418   30.1086  -20.0436 C   0  0  0  0  0  0  0  0  0  0  0  0
  -10.3256   30.0281  -20.7384 O   0  0  0  0  0  0  0  0  0  0  0  0
  -12.7017   30.3497  -20.6809 C   0  0  2  0  0  0  0  0  0  0  0  0
  -13.7002   30.1844  -19.6917 O   0  0  0  0  0  0  0  0  0  0  0  0
  -13.0192   29.4606  -21.8984 C   0  0  1  0  0  0  0  0  0  0  0  0
  -14.4998   29.4152  -22.2493 C   0  0  0  0  0  0  0  0  0  0  0  0
  -12.2461   29.9898  -23.1240 C   0  0  0  0  0  0  0  0  0  0  0  0
  -12.5806   28.0200  -21.6043 C   0  0  0  0  0  0  0  0  0  0  0  0
  -20.1362   24.5546  -18.5044 H   0  0  0  0  0  0  0  0  0  0  0  0
  -16.7015   29.3458  -18.1075 H   0  0  0  0  0  0  0  0  0  0  0  0
  -19.7058   27.5681  -18.4288 H   0  0  0  0  0  0  0  0  0  0  0  0
  -20.2532   27.3098  -16.4672 H   0  0  0  0  0  0  0  0  0  0  0  0
  -14.1371   25.2606  -15.0693 H   0  0  0  0  0  0  0  0  0  0  0  0
  -14.5762   26.8105  -15.8431 H   0  0  0  0  0  0  0  0  0  0  0  0
  -13.0520   25.0973  -11.9713 H   0  0  0  0  0  0  0  0  0  0  0  0
  -22.1388   27.8281  -18.8529 H   0  0  0  0  0  0  0  0  0  0  0  0
  -11.7643   25.7109  -15.4600 H   0  0  0  0  0  0  0  0  0  0  0  0
  -12.7305   25.7536  -17.0058 H   0  0  0  0  0  0  0  0  0  0  0  0
  -13.2516   22.6892  -11.4199 H   0  0  0  0  0  0  0  0  0  0  0  0
  -22.4227   26.0065  -20.8144 H   0  0  0  0  0  0  0  0  0  0  0  0
  -12.6455   28.2324  -16.8130 H   0  0  0  0  0  0  0  0  0  0  0  0
  -15.4663   21.5525  -11.5453 H   0  0  0  0  0  0  0  0  0  0  0  0
  -21.8222   27.4787  -22.2829 H   0  0  0  0  0  0  0  0  0  0  0  0
  -21.3334   28.5284  -20.9294 H   0  0  0  0  0  0  0  0  0  0  0  0
  -13.6618   25.1749  -19.3344 H   0  0  0  0  0  0  0  0  0  0  0  0
  -13.0565   26.7633  -18.7928 H   0  0  0  0  0  0  0  0  0  0  0  0
  -17.4788   22.8699  -12.0978 H   0  0  0  0  0  0  0  0  0  0  0  0
  -11.2245   30.0784  -16.1735 H   0  0  0  0  0  0  0  0  0  0  0  0
   -9.4622   29.6676  -15.9351 H   0  0  0  0  0  0  0  0  0  0  0  0
  -17.2945   25.2695  -12.6762 H   0  0  0  0  0  0  0  0  0  0  0  0
   -9.4014   30.4073  -18.0917 H   0  0  0  0  0  0  0  0  0  0  0  0
   -9.7558   28.6303  -18.3375 H   0  0  0  0  0  0  0  0  0  0  0  0
  -18.1040   23.2724  -19.7314 H   0  0  0  0  0  0  0  0  0  0  0  0
  -12.2189   30.0042  -18.2268 H   0  0  0  0  0  0  0  0  0  0  0  0
  -12.6806   31.3762  -21.0756 H   0  0  0  0  0  0  0  0  0  0  0  0
  -13.2894   30.2524  -18.7935 H   0  0  0  0  0  0  0  0  0  0  0  0
  -14.6573   29.8125  -23.2629 H   0  0  0  0  0  0  0  0  0  0  0  0
  -15.0826   30.0270  -21.5451 H   0  0  0  0  0  0  0  0  0  0  0  0
  -11.3825   30.5811  -22.7856 H   0  0  0  0  0  0  0  0  0  0  0  0
  -11.8950   29.1418  -23.7303 H   0  0  0  0  0  0  0  0  0  0  0  0
  -12.9097   30.6240  -23.7303 H   0  0  0  0  0  0  0  0  0  0  0  0
  -12.5337   27.8659  -20.5162 H   0  0  0  0  0  0  0  0  0  0  0  0
  -13.3061   27.3191  -22.0430 H   0  0  0  0  0  0  0  0  0  0  0  0
  -11.5876   27.8422  -22.0430 H   0  0  0  0  0  0  0  0  0  0  0  0
  1  7  2  0
  1 35  1  0
  2  3  2  0
  3  8  1  1
  3 15  1  0
  3 31  1  0
  4  6  1  0
  4 10  1  0
  4 27  2  0
  5 11  1  0
  5 25  1  0
  5 47  1  0
  6 13  1  0
  7 14  1  0
  9 15  1  0
  9 22  1  6
  9 28  2  0
  9 37  1  0
 10 16  2  0
 10 42  1  0
 11 12  1  0
 11 17  1  0
 13 20  1  0
 14 21  2  0
 16 23  1  0
 17 18  1  0
 17 24  1  0
 18 19  1  0
 19 41  1  1
 19 45  2  0
 19 48  1  0
 20 26  1  0
 21 32  1  0
 21 47  1  0
 23 29  2  0
 24 25  1  0
 24 30  1  0
 26 33  1  0
 29 38  1  0
 30 31  1  0
 32 35  2  0
 32 40  1  0
 33 34  2  0
 33 39  1  0
 35 36  1  0
 37 54  1  0
 38 42  2  0
 39 43  1  0
 40 44  2  0
 43 46  1  0
 44 47  1  0
 46 49  1  0
 49 50  2  0
 49 51  1  0
 51 52  1  0
 51 53  1  0
 53 54  1  6
 53 55  1  0
 53 56  1  0
  5 57  1  1
  7 58  1  0
 11 59  1  1
 12 60  1  0
 13 61  1  0
 13 62  1  0
 16 63  1  0
 17 64  1  6
 20 65  1  0
 20 66  1  0
 23 67  1  0
 24 68  1  6
 26 69  1  0
 29 70  1  0
 30 71  1  0
 30 72  1  0
 36 73  1  0
 36 74  1  0
 38 75  1  0
 39 76  1  0
 39 77  1  0
 42 78  1  0
 43 79  1  0
 43 80  1  0
 44 81  1  0
 46 82  1  0
 51 83  1  6
 52 84  1  0
 54 85  1  0
 54 86  1  0
 55 87  1  0
 55 88  1  0
 55 89  1  0
 56 90  1  0
 56 91  1  0
 56 92  1  0
M  CHG  4   8  -1  22  -1  41  -1  48  -1
M  END
>  <filename_input>  (14) 
7PK0_BYC_docked.sdf

>  <pdb_id>  (14) 
7PK0_BYC

>  <pose_rank>  (14) 
13

>  <num_atoms_heavy>  (14) 
56

>  <num_torsions>  (14) 
21

>  <pose>  (14) 
[-16.27261221630916, 27.568265214633605, -22.92676322130569, 0.030918187883408096, 2.8181796118783766, -5.357124666364444, 30.730710622595442, -37.79515956494937, -97.51973461653806, -13.0715191617215, 11.828165323813131, -2.00592653683426, -3.8347886107491176, -3.6841379766546174, -2.6899397478688347, -4.317667574240813, 1.924188171970408, -2.3436046624997067, -2.2730546862180727, 17.59646929646635, -33.19898887701898, -8.348699766791064, -24.565965771488248, 13.61100359462866, -2.3121154970171114, -0.05368914801584182, 2.7358431476124676]

>  <energy>  (14) 
-754.7631666721361

>  <inter_energy>  (14) 
-832.5666867591435

>  <intra_energy>  (14) 
93.18517492906958

>  <rmsd>  (14) 
5.85412

>  <sdf_rank>  (14) 
0

$$$$

     RDKit          3D

 92 95  0  0  0  0  0  0  0  0999 V2000
  -26.5162   32.3901  -23.8567 N   0  0  0  0  0  0  0  0  0  0  0  0
  -22.7797   27.2234  -18.2937 O   0  0  0  0  0  0  0  0  0  0  0  0
  -22.2353   26.0698  -19.0802 P   0  0  2  0  0  0  0  0  0  0  0  0
  -15.1907   32.2381  -22.2803 C   0  0  0  0  0  0  0  0  0  0  0  0
  -26.5085   28.9730  -20.0199 C   0  0  1  0  0  0  0  0  0  0  0  0
  -15.0802   30.8111  -21.2162 S   0  0  0  0  0  0  0  0  0  0  0  0
  -25.7484   32.2830  -22.7616 C   0  0  0  0  0  0  0  0  0  0  0  0
  -21.7413   24.8586  -18.3445 O   0  0  0  0  0  0  0  0  0  0  0  0
  -20.5177   25.6371  -21.3554 P   0  0  1  0  0  0  0  0  0  0  0  0
  -16.5266   32.5841  -22.8149 C   0  0  0  0  0  0  0  0  0  0  0  0
  -27.1044   27.6993  -19.4365 C   0  0  2  0  0  0  0  0  0  0  0  0
  -28.1830   27.9878  -18.5692 O   0  0  0  0  0  0  0  0  0  0  0  0
  -14.3158   31.5104  -19.7363 C   0  0  0  0  0  0  0  0  0  0  0  0
  -25.8085   31.3892  -21.7717 N   0  0  0  0  0  0  0  0  0  0  0  0
  -21.1083   26.4903  -20.1293 O   0  0  0  0  0  0  0  0  0  0  0  0
  -17.1687   31.6474  -23.6161 C   0  0  0  0  0  0  0  0  0  0  0  0
  -25.8878   27.1166  -18.7342 C   0  0  2  0  0  0  0  0  0  0  0  0
  -25.7248   27.8105  -17.4930 O   0  0  0  0  0  0  0  0  0  0  0  0
  -25.2362   26.8501  -16.2757 P   0  0  1  0  0  0  0  0  0  0  0  0
  -13.1390   30.6612  -19.3717 C   0  0  0  0  0  0  0  0  0  0  0  0
  -26.8027   30.5129  -22.0036 C   0  0  0  0  0  0  0  0  0  0  0  0
  -20.7682   24.1782  -21.1208 O   0  0  0  0  0  0  0  0  0  0  0  0
  -18.3882   31.9407  -24.2069 C   0  0  0  0  0  0  0  0  0  0  0  0
  -24.7243   27.4725  -19.6784 C   0  0  2  0  0  0  0  0  0  0  0  0
  -25.1688   28.6718  -20.3699 O   0  0  0  0  0  0  0  0  0  0  0  0
  -13.4797   29.5730  -18.4868 N   0  0  0  0  0  0  0  0  0  0  0  0
  -14.2027   32.9331  -22.4299 O   0  0  0  0  0  0  0  0  0  0  0  0
  -21.0012   26.2828  -22.6027 O   0  0  0  0  0  0  0  0  0  0  0  0
  -18.9860   33.1778  -24.0045 C   0  0  0  0  0  0  0  0  0  0  0  0
  -24.3395   26.4268  -20.7114 C   0  0  0  0  0  0  0  0  0  0  0  0
  -23.3567   25.5643  -20.1061 O   0  0  0  0  0  0  0  0  0  0  0  0
  -27.6779   30.5081  -23.0678 C   0  0  0  0  0  0  0  0  0  0  0  0
  -12.6083   28.6627  -18.0126 C   0  0  0  0  0  0  0  0  0  0  0  0
  -11.4524   28.6316  -18.4082 O   0  0  0  0  0  0  0  0  0  0  0  0
  -27.5357   31.5149  -24.0380 C   0  0  0  0  0  0  0  0  0  0  0  0
  -28.2707   31.5821  -25.1503 N   0  0  0  0  0  0  0  0  0  0  0  0
  -18.9372   25.8509  -21.2085 O   0  0  0  0  0  0  0  0  0  0  0  0
  -18.3754   34.0895  -23.1869 C   0  0  0  0  0  0  0  0  0  0  0  0
  -13.1470   27.5753  -17.0977 C   0  0  0  0  0  0  0  0  0  0  0  0
  -28.5668   29.4434  -22.9658 N   0  0  0  0  0  0  0  0  0  0  0  0
  -23.7327   27.2127  -15.9584 O   0  0  0  0  0  0  0  0  0  0  0  0
  -17.1521   33.8084  -22.5975 C   0  0  0  0  0  0  0  0  0  0  0  0
  -13.2185   26.1996  -17.7687 C   0  0  0  0  0  0  0  0  0  0  0  0
  -28.2054   28.8388  -21.8693 C   0  0  0  0  0  0  0  0  0  0  0  0
  -26.1396   27.1468  -15.0901 O   0  0  0  0  0  0  0  0  0  0  0  0
  -14.0555   26.1725  -18.9665 N   0  0  0  0  0  0  0  0  0  0  0  0
  -27.1612   29.4447  -21.2198 N   0  0  0  0  0  0  0  0  0  0  0  0
  -25.3264   25.4418  -16.7335 O   0  0  0  0  0  0  0  0  0  0  0  0
  -15.2530   25.6146  -19.0287 C   0  0  0  0  0  0  0  0  0  0  0  0
  -15.7772   25.0566  -18.0614 O   0  0  0  0  0  0  0  0  0  0  0  0
  -16.0077   25.7675  -20.3405 C   0  0  2  0  0  0  0  0  0  0  0  0
  -15.0683   25.8424  -21.3964 O   0  0  0  0  0  0  0  0  0  0  0  0
  -16.9658   26.9721  -20.4061 C   0  0  1  0  0  0  0  0  0  0  0  0
  -18.4112   26.6183  -20.0853 C   0  0  0  0  0  0  0  0  0  0  0  0
  -16.4950   28.0455  -19.4030 C   0  0  0  0  0  0  0  0  0  0  0  0
  -16.9486   27.5590  -21.8236 C   0  0  0  0  0  0  0  0  0  0  0  0
  -26.6202   29.7623  -19.2619 H   0  0  0  0  0  0  0  0  0  0  0  0
  -24.9559   33.0399  -22.6657 H   0  0  0  0  0  0  0  0  0  0  0  0
  -27.5549   27.0082  -20.1640 H   0  0  0  0  0  0  0  0  0  0  0  0
  -27.8816   27.9072  -17.6296 H   0  0  0  0  0  0  0  0  0  0  0  0
  -13.9838   32.5392  -19.9395 H   0  0  0  0  0  0  0  0  0  0  0  0
  -15.0400   31.5315  -18.9086 H   0  0  0  0  0  0  0  0  0  0  0  0
  -16.7050   30.6640  -23.7831 H   0  0  0  0  0  0  0  0  0  0  0  0
  -25.9560   26.0378  -18.5304 H   0  0  0  0  0  0  0  0  0  0  0  0
  -12.7106   30.2418  -20.2939 H   0  0  0  0  0  0  0  0  0  0  0  0
  -12.4220   31.3043  -18.8404 H   0  0  0  0  0  0  0  0  0  0  0  0
  -18.8848   31.1898  -24.8391 H   0  0  0  0  0  0  0  0  0  0  0  0
  -23.8152   27.5788  -19.0682 H   0  0  0  0  0  0  0  0  0  0  0  0
  -14.4640   29.4863  -18.1961 H   0  0  0  0  0  0  0  0  0  0  0  0
  -19.9394   33.4219  -24.4958 H   0  0  0  0  0  0  0  0  0  0  0  0
  -25.2247   25.8422  -21.0023 H   0  0  0  0  0  0  0  0  0  0  0  0
  -23.9331   26.9046  -21.6150 H   0  0  0  0  0  0  0  0  0  0  0  0
  -29.0469   30.9208  -25.2953 H   0  0  0  0  0  0  0  0  0  0  0  0
  -28.0616   32.2952  -25.8635 H   0  0  0  0  0  0  0  0  0  0  0  0
  -18.8611   35.0576  -22.9949 H   0  0  0  0  0  0  0  0  0  0  0  0
  -12.4900   27.5014  -16.2186 H   0  0  0  0  0  0  0  0  0  0  0  0
  -14.1742   27.8586  -16.8245 H   0  0  0  0  0  0  0  0  0  0  0  0
  -16.6720   34.5593  -21.9527 H   0  0  0  0  0  0  0  0  0  0  0  0
  -12.1991   25.8973  -18.0505 H   0  0  0  0  0  0  0  0  0  0  0  0
  -13.6749   25.5111  -17.0422 H   0  0  0  0  0  0  0  0  0  0  0  0
  -28.6938   27.9254  -21.4988 H   0  0  0  0  0  0  0  0  0  0  0  0
  -13.6881   26.6179  -19.8195 H   0  0  0  0  0  0  0  0  0  0  0  0
  -16.6556   24.8830  -20.4293 H   0  0  0  0  0  0  0  0  0  0  0  0
  -14.1551   25.9153  -21.0211 H   0  0  0  0  0  0  0  0  0  0  0  0
  -19.0010   27.5369  -19.9496 H   0  0  0  0  0  0  0  0  0  0  0  0
  -18.4684   26.0319  -19.1563 H   0  0  0  0  0  0  0  0  0  0  0  0
  -16.6540   27.6830  -18.3766 H   0  0  0  0  0  0  0  0  0  0  0  0
  -15.4252   28.2486  -19.5585 H   0  0  0  0  0  0  0  0  0  0  0  0
  -17.0703   28.9701  -19.5585 H   0  0  0  0  0  0  0  0  0  0  0  0
  -16.9165   28.6570  -21.7655 H   0  0  0  0  0  0  0  0  0  0  0  0
  -16.0608   27.1942  -22.3608 H   0  0  0  0  0  0  0  0  0  0  0  0
  -17.8563   27.2466  -22.3608 H   0  0  0  0  0  0  0  0  0  0  0  0
  1  7  2  0
  1 35  1  0
  2  3  2  0
  3  8  1  1
  3 15  1  0
  3 31  1  0
  4  6  1  0
  4 10  1  0
  4 27  2  0
  5 11  1  0
  5 25  1  0
  5 47  1  0
  6 13  1  0
  7 14  1  0
  9 15  1  0
  9 22  1  1
  9 28  2  0
  9 37  1  0
 10 16  2  0
 10 42  1  0
 11 12  1  0
 11 17  1  0
 13 20  1  0
 14 21  2  0
 16 23  1  0
 17 18  1  0
 17 24  1  0
 18 19  1  0
 19 41  1  1
 19 45  2  0
 19 48  1  0
 20 26  1  0
 21 32  1  0
 21 47  1  0
 23 29  2  0
 24 25  1  0
 24 30  1  0
 26 33  1  0
 29 38  1  0
 30 31  1  0
 32 35  2  0
 32 40  1  0
 33 34  2  0
 33 39  1  0
 35 36  1  0
 37 54  1  0
 38 42  2  0
 39 43  1  0
 40 44  2  0
 43 46  1  0
 44 47  1  0
 46 49  1  0
 49 50  2  0
 49 51  1  0
 51 52  1  0
 51 53  1  0
 53 54  1  1
 53 55  1  0
 53 56  1  0
  5 57  1  1
  7 58  1  0
 11 59  1  6
 12 60  1  0
 13 61  1  0
 13 62  1  0
 16 63  1  0
 17 64  1  1
 20 65  1  0
 20 66  1  0
 23 67  1  0
 24 68  1  1
 26 69  1  0
 29 70  1  0
 30 71  1  0
 30 72  1  0
 36 73  1  0
 36 74  1  0
 38 75  1  0
 39 76  1  0
 39 77  1  0
 42 78  1  0
 43 79  1  0
 43 80  1  0
 44 81  1  0
 46 82  1  0
 51 83  1  6
 52 84  1  0
 54 85  1  0
 54 86  1  0
 55 87  1  0
 55 88  1  0
 55 89  1  0
 56 90  1  0
 56 91  1  0
 56 92  1  0
M  CHG  4   8  -1  22  -1  41  -1  48  -1
M  END
>  <filename_input>  (15) 
7PK0_BYC_docked.sdf

>  <pdb_id>  (15) 
7PK0_BYC

>  <pose_rank>  (15) 
14

>  <num_atoms_heavy>  (15) 
56

>  <num_torsions>  (15) 
21

>  <pose>  (15) 
[-20.51768309646201, 25.637106312179764, -21.35539394866265, 4.465925707986057, -3.816424192510157, 0.5607474924204475, 0.9026984057605281, -0.16046874579688614, 3.8842481487656464, 1.2537266604909818, -0.11106739679689137, -0.7291254912293009, -0.13137079116653533, -0.4757536629576308, -1.770428445262725, 1.459184504783183, -3.6914437285061052, 0.5969899092014981, 2.295243081026163, 0.4290063885357719, 1.6724448510835253, -0.06729747449476572, 2.3510282877178357, 3.8503228638731906, 1.10809488220985, -0.060919026613315934, 0.8732769055841602]

>  <energy>  (15) 
-614.8905556783969

>  <inter_energy>  (15) 
-725.7803805009191

>  <intra_energy>  (15) 
117.05834815207106

>  <rmsd>  (15) 
6.13027

>  <sdf_rank>  (15) 
0

$$$$

     RDKit          3D

 92 95  0  0  0  0  0  0  0  0999 V2000
   -8.9187   30.4134  -24.1186 N   0  0  0  0  0  0  0  0  0  0  0  0
  -17.2445   26.4690  -22.4379 O   0  0  0  0  0  0  0  0  0  0  0  0
  -17.9425   26.8031  -21.1545 P   0  0  2  0  0  0  0  0  0  0  0  0
  -30.7254   33.3185  -13.0030 C   0  0  0  0  0  0  0  0  0  0  0  0
  -12.8676   28.6303  -21.3574 C   0  0  1  0  0  0  0  0  0  0  0  0
  -29.4917   32.1000  -13.4202 S   0  0  0  0  0  0  0  0  0  0  0  0
   -9.1057   29.2465  -23.4832 C   0  0  0  0  0  0  0  0  0  0  0  0
  -17.8226   25.8572  -19.9956 O   0  0  0  0  0  0  0  0  0  0  0  0
  -20.7646   26.3130  -20.8238 P   0  0  1  0  0  0  0  0  0  0  0  0
  -30.5486   34.6800  -13.5556 C   0  0  0  0  0  0  0  0  0  0  0  0
  -13.2153   28.9125  -19.9024 C   0  0  2  0  0  0  0  0  0  0  0  0
  -12.1024   28.6965  -19.0576 O   0  0  0  0  0  0  0  0  0  0  0  0
  -30.3877   31.0486  -14.5843 C   0  0  0  0  0  0  0  0  0  0  0  0
  -10.1437   28.8421  -22.7473 N   0  0  0  0  0  0  0  0  0  0  0  0
  -19.4907   27.1429  -21.3421 O   0  0  0  0  0  0  0  0  0  0  0  0
  -29.2514   35.1336  -13.7637 C   0  0  0  0  0  0  0  0  0  0  0  0
  -14.3519   27.9250  -19.6890 C   0  0  2  0  0  0  0  0  0  0  0  0
  -13.7746   26.6325  -19.4769 O   0  0  0  0  0  0  0  0  0  0  0  0
  -14.3259   25.8907  -18.1393 P   0  0  1  0  0  0  0  0  0  0  0  0
  -29.4633   29.9651  -15.0432 C   0  0  0  0  0  0  0  0  0  0  0  0
  -11.0819   29.8055  -22.7076 C   0  0  0  0  0  0  0  0  0  0  0  0
  -20.9186   25.0650  -21.6394 O   0  0  0  0  0  0  0  0  0  0  0  0
  -29.0180   36.4256  -14.2092 C   0  0  0  0  0  0  0  0  0  0  0  0
  -15.0973   27.9397  -21.0366 C   0  0  2  0  0  0  0  0  0  0  0  0
  -14.0832   28.3090  -22.0109 O   0  0  0  0  0  0  0  0  0  0  0  0
  -28.9691   30.1736  -16.3832 N   0  0  0  0  0  0  0  0  0  0  0  0
  -31.7137   32.9623  -12.3881 O   0  0  0  0  0  0  0  0  0  0  0  0
  -20.6498   26.2250  -19.3454 O   0  0  0  0  0  0  0  0  0  0  0  0
  -30.0805   37.2856  -14.4546 C   0  0  0  0  0  0  0  0  0  0  0  0
  -16.2665   28.9024  -21.1591 C   0  0  0  0  0  0  0  0  0  0  0  0
  -17.4324   28.2322  -20.6418 O   0  0  0  0  0  0  0  0  0  0  0  0
  -11.0218   31.0519  -23.2922 C   0  0  0  0  0  0  0  0  0  0  0  0
  -29.7344   30.4736  -17.4497 C   0  0  0  0  0  0  0  0  0  0  0  0
  -30.9538   30.4750  -17.3693 O   0  0  0  0  0  0  0  0  0  0  0  0
   -9.8666   31.3781  -24.0231 C   0  0  0  0  0  0  0  0  0  0  0  0
   -9.7123   32.5211  -24.6949 N   0  0  0  0  0  0  0  0  0  0  0  0
  -21.9922   27.2626  -21.2194 O   0  0  0  0  0  0  0  0  0  0  0  0
  -31.3604   36.8316  -14.2863 C   0  0  0  0  0  0  0  0  0  0  0  0
  -29.0429   30.6477  -18.7917 C   0  0  0  0  0  0  0  0  0  0  0  0
  -12.1847   31.7698  -23.0349 N   0  0  0  0  0  0  0  0  0  0  0  0
  -15.2696   26.9081  -17.3864 O   0  0  0  0  0  0  0  0  0  0  0  0
  -31.6041   35.5436  -13.8340 C   0  0  0  0  0  0  0  0  0  0  0  0
  -27.5223   30.7967  -18.6748 C   0  0  0  0  0  0  0  0  0  0  0  0
  -12.9070   30.9502  -22.3242 C   0  0  0  0  0  0  0  0  0  0  0  0
  -15.0921   24.6619  -18.6007 O   0  0  0  0  0  0  0  0  0  0  0  0
  -26.7738   29.8535  -19.5033 N   0  0  0  0  0  0  0  0  0  0  0  0
  -12.2933   29.7522  -22.0645 N   0  0  0  0  0  0  0  0  0  0  0  0
  -13.1616   25.5582  -17.2821 O   0  0  0  0  0  0  0  0  0  0  0  0
  -26.1543   28.7806  -19.0402 C   0  0  0  0  0  0  0  0  0  0  0  0
  -26.1541   28.4777  -17.8443 O   0  0  0  0  0  0  0  0  0  0  0  0
  -25.5036   27.8721  -20.0721 C   0  0  2  0  0  0  0  0  0  0  0  0
  -26.1199   26.5998  -20.0069 O   0  0  0  0  0  0  0  0  0  0  0  0
  -23.9763   27.7211  -19.9385 C   0  0  1  0  0  0  0  0  0  0  0  0
  -23.3602   26.8109  -20.9918 C   0  0  0  0  0  0  0  0  0  0  0  0
  -23.3202   29.1124  -20.0560 C   0  0  0  0  0  0  0  0  0  0  0  0
  -23.6429   27.1163  -18.5684 C   0  0  0  0  0  0  0  0  0  0  0  0
  -12.1154   27.8277  -21.3632 H   0  0  0  0  0  0  0  0  0  0  0  0
   -8.2867   28.5190  -23.5829 H   0  0  0  0  0  0  0  0  0  0  0  0
  -13.4971   29.9508  -19.6733 H   0  0  0  0  0  0  0  0  0  0  0  0
  -12.3902   28.7524  -18.1120 H   0  0  0  0  0  0  0  0  0  0  0  0
  -31.2634   30.6054  -14.0877 H   0  0  0  0  0  0  0  0  0  0  0  0
  -30.7335   31.6421  -15.4435 H   0  0  0  0  0  0  0  0  0  0  0  0
  -28.4019   34.4612  -13.5731 H   0  0  0  0  0  0  0  0  0  0  0  0
  -15.0062   28.1644  -18.8378 H   0  0  0  0  0  0  0  0  0  0  0  0
  -28.6053   29.9224  -14.3562 H   0  0  0  0  0  0  0  0  0  0  0  0
  -30.0349   29.0253  -15.0465 H   0  0  0  0  0  0  0  0  0  0  0  0
  -27.9860   36.7713  -14.3690 H   0  0  0  0  0  0  0  0  0  0  0  0
  -15.5608   26.9520  -21.1765 H   0  0  0  0  0  0  0  0  0  0  0  0
  -27.9542   30.0863  -16.5351 H   0  0  0  0  0  0  0  0  0  0  0  0
  -29.8953   38.3197  -14.7805 H   0  0  0  0  0  0  0  0  0  0  0  0
  -16.0663   29.8131  -20.5756 H   0  0  0  0  0  0  0  0  0  0  0  0
  -16.4202   29.1951  -22.2082 H   0  0  0  0  0  0  0  0  0  0  0  0
  -10.4280   33.2588  -24.6275 H   0  0  0  0  0  0  0  0  0  0  0  0
   -8.8775   32.6655  -25.2807 H   0  0  0  0  0  0  0  0  0  0  0  0
  -32.2066   37.4969  -14.5127 H   0  0  0  0  0  0  0  0  0  0  0  0
  -29.2607   29.7669  -19.4136 H   0  0  0  0  0  0  0  0  0  0  0  0
  -29.4279   31.5760  -19.2389 H   0  0  0  0  0  0  0  0  0  0  0  0
  -32.6402   35.2015  -13.6942 H   0  0  0  0  0  0  0  0  0  0  0  0
  -27.2491   31.8181  -18.9782 H   0  0  0  0  0  0  0  0  0  0  0  0
  -27.2582   30.5848  -17.6282 H   0  0  0  0  0  0  0  0  0  0  0  0
  -13.9171   31.1973  -21.9654 H   0  0  0  0  0  0  0  0  0  0  0  0
  -26.7254   30.0367  -20.5157 H   0  0  0  0  0  0  0  0  0  0  0  0
  -25.6579   28.3536  -21.0490 H   0  0  0  0  0  0  0  0  0  0  0  0
  -26.2449   26.3418  -19.0593 H   0  0  0  0  0  0  0  0  0  0  0  0
  -23.9367   26.8749  -21.9264 H   0  0  0  0  0  0  0  0  0  0  0  0
  -23.3701   25.7648  -20.6519 H   0  0  0  0  0  0  0  0  0  0  0  0
  -23.1306   29.5146  -19.0499 H   0  0  0  0  0  0  0  0  0  0  0  0
  -22.3688   29.0243  -20.6010 H   0  0  0  0  0  0  0  0  0  0  0  0
  -23.9935   29.7904  -20.6010 H   0  0  0  0  0  0  0  0  0  0  0  0
  -24.0102   27.7828  -17.7741 H   0  0  0  0  0  0  0  0  0  0  0  0
  -24.1262   26.1326  -18.4744 H   0  0  0  0  0  0  0  0  0  0  0  0
  -22.5531   26.9998  -18.4744 H   0  0  0  0  0  0  0  0  0  0  0  0
  1  7  2  0
  1 35  1  0
  2  3  2  0
  3  8  1  1
  3 15  1  0
  3 31  1  0
  4  6  1  0
  4 10  1  0
  4 27  2  0
  5 11  1  0
  5 25  1  0
  5 47  1  0
  6 13  1  0
  7 14  1  0
  9 15  1  0
  9 22  1  6
  9 28  2  0
  9 37  1  0
 10 16  2  0
 10 42  1  0
 11 12  1  0
 11 17  1  0
 13 20  1  0
 14 21  2  0
 16 23  1  0
 17 18  1  0
 17 24  1  0
 18 19  1  0
 19 41  1  1
 19 45  2  0
 19 48  1  0
 20 26  1  0
 21 32  1  0
 21 47  1  0
 23 29  2  0
 24 25  1  0
 24 30  1  0
 26 33  1  0
 29 38  1  0
 30 31  1  0
 32 35  2  0
 32 40  1  0
 33 34  2  0
 33 39  1  0
 35 36  1  0
 37 54  1  0
 38 42  2  0
 39 43  1  0
 40 44  2  0
 43 46  1  0
 44 47  1  0
 46 49  1  0
 49 50  2  0
 49 51  1  0
 51 52  1  0
 51 53  1  0
 53 54  1  6
 53 55  1  0
 53 56  1  0
  5 57  1  1
  7 58  1  0
 11 59  1  6
 12 60  1  0
 13 61  1  0
 13 62  1  0
 16 63  1  0
 17 64  1  1
 20 65  1  0
 20 66  1  0
 23 67  1  0
 24 68  1  6
 26 69  1  0
 29 70  1  0
 30 71  1  0
 30 72  1  0
 36 73  1  0
 36 74  1  0
 38 75  1  0
 39 76  1  0
 39 77  1  0
 42 78  1  0
 43 79  1  0
 43 80  1  0
 44 81  1  0
 46 82  1  0
 51 83  1  6
 52 84  1  0
 54 85  1  0
 54 86  1  0
 55 87  1  0
 55 88  1  0
 55 89  1  0
 56 90  1  0
 56 91  1  0
 56 92  1  0
M  CHG  4   8  -1  22  -1  41  -1  48  -1
M  END
>  <filename_input>  (16) 
7PK0_BYC_docked.sdf

>  <pdb_id>  (16) 
7PK0_BYC

>  <pose_rank>  (16) 
15

>  <num_atoms_heavy>  (16) 
56

>  <num_torsions>  (16) 
21

>  <pose>  (16) 
[-20.764623633826865, 26.313012926066254, -20.82384038993432, -0.4509598091078333, -3.0514536325106034, -1.2015724467914377, -2.3670460499724433, -1.5676413449818847, 1.489046832659251, -0.19543615656441798, -2.7016267511668626, -0.6893181693406065, 3.1027459864751914, -2.5950720114692363, 0.5178136343547483, 1.1887706671983842, 1.6910716435224793, 0.8963961262909008, 2.8154568254448518, -0.4589594846344808, 0.2514432907270139, -7.144750288837722, 2.0272707895533344, -8.661603017719235, 0.03844137498823557, -0.30161760541452953, -1.1039801011985915]

>  <energy>  (16) 
-575.3143751242288

>  <inter_energy>  (16) 
-630.8930021369689

>  <intra_energy>  (16) 
54.79051821585136

>  <rmsd>  (16) 
13.1552

>  <sdf_rank>  (16) 
0

$$$$

     RDKit          3D

 92 95  0  0  0  0  0  0  0  0999 V2000
  -13.1688   26.2825  -15.6676 N   0  0  0  0  0  0  0  0  0  0  0  0
  -17.6632   25.4159  -22.2002 O   0  0  0  0  0  0  0  0  0  0  0  0
  -18.3658   25.8271  -20.9419 P   0  0  2  0  0  0  0  0  0  0  0  0
  -28.1815   34.3413  -12.4618 C   0  0  0  0  0  0  0  0  0  0  0  0
  -13.9057   28.4888  -20.2488 C   0  0  1  0  0  0  0  0  0  0  0  0
  -27.9790   34.1304  -14.2212 S   0  0  0  0  0  0  0  0  0  0  0  0
  -14.1181   27.1217  -16.1091 C   0  0  0  0  0  0  0  0  0  0  0  0
  -18.0673   25.0890  -19.6698 O   0  0  0  0  0  0  0  0  0  0  0  0
  -21.0088   24.6941  -21.1530 P   0  0  1  0  0  0  0  0  0  0  0  0
  -29.4287   34.9867  -11.9948 C   0  0  0  0  0  0  0  0  0  0  0  0
  -14.4718   27.7731  -21.4673 C   0  0  2  0  0  0  0  0  0  0  0  0
  -13.5825   27.8451  -22.5641 O   0  0  0  0  0  0  0  0  0  0  0  0
  -28.7729   32.5313  -14.4968 C   0  0  0  0  0  0  0  0  0  0  0  0
  -14.2472   27.6960  -17.3074 N   0  0  0  0  0  0  0  0  0  0  0  0
  -19.9527   25.9030  -21.0951 O   0  0  0  0  0  0  0  0  0  0  0  0
  -30.3940   35.2991  -12.9447 C   0  0  0  0  0  0  0  0  0  0  0  0
  -15.7653   28.5463  -21.6710 C   0  0  2  0  0  0  0  0  0  0  0  0
  -15.4418   29.7742  -22.3317 O   0  0  0  0  0  0  0  0  0  0  0  0
  -16.7020   30.4361  -23.1173 P   0  0  1  0  0  0  0  0  0  0  0  0
  -27.9044   31.4688  -13.9003 C   0  0  0  0  0  0  0  0  0  0  0  0
  -13.2429   27.3074  -18.1138 C   0  0  0  0  0  0  0  0  0  0  0  0
  -21.3749   24.4130  -22.5789 O   0  0  0  0  0  0  0  0  0  0  0  0
  -31.5513   35.9706  -12.5811 C   0  0  0  0  0  0  0  0  0  0  0  0
  -16.2348   28.8441  -20.2347 C   0  0  2  0  0  0  0  0  0  0  0  0
  -15.0124   28.8652  -19.4479 O   0  0  0  0  0  0  0  0  0  0  0  0
  -27.3773   30.5521  -14.8826 N   0  0  0  0  0  0  0  0  0  0  0  0
  -27.3558   33.8483  -11.7157 O   0  0  0  0  0  0  0  0  0  0  0  0
  -20.4680   23.6075  -20.2967 O   0  0  0  0  0  0  0  0  0  0  0  0
  -31.7617   36.3403  -11.2591 C   0  0  0  0  0  0  0  0  0  0  0  0
  -17.1998   27.8491  -19.6122 C   0  0  0  0  0  0  0  0  0  0  0  0
  -18.0666   27.3754  -20.6614 O   0  0  0  0  0  0  0  0  0  0  0  0
  -12.1951   26.4708  -17.7961 C   0  0  0  0  0  0  0  0  0  0  0  0
  -28.1225   29.7664  -15.6827 C   0  0  0  0  0  0  0  0  0  0  0  0
  -29.3343   29.6933  -15.5421 O   0  0  0  0  0  0  0  0  0  0  0  0
  -12.1483   25.9445  -16.4938 C   0  0  0  0  0  0  0  0  0  0  0  0
  -11.2291   25.0694  -16.0802 N   0  0  0  0  0  0  0  0  0  0  0  0
  -22.3120   25.3278  -20.4710 O   0  0  0  0  0  0  0  0  0  0  0  0
  -30.8311   36.0025  -10.3144 C   0  0  0  0  0  0  0  0  0  0  0  0
  -27.3953   28.8509  -16.6537 C   0  0  0  0  0  0  0  0  0  0  0  0
  -11.3560   26.2992  -18.8918 N   0  0  0  0  0  0  0  0  0  0  0  0
  -17.1765   31.6898  -22.2832 O   0  0  0  0  0  0  0  0  0  0  0  0
  -29.6671   35.3375  -10.6691 C   0  0  0  0  0  0  0  0  0  0  0  0
  -26.5475   29.6085  -17.6810 C   0  0  0  0  0  0  0  0  0  0  0  0
  -11.9139   27.0146  -19.8275 C   0  0  0  0  0  0  0  0  0  0  0  0
  -16.1994   30.8437  -24.4925 O   0  0  0  0  0  0  0  0  0  0  0  0
  -25.6810   28.7443  -18.4800 N   0  0  0  0  0  0  0  0  0  0  0  0
  -13.0452   27.6741  -19.4217 N   0  0  0  0  0  0  0  0  0  0  0  0
  -17.7910   29.4303  -23.1742 O   0  0  0  0  0  0  0  0  0  0  0  0
  -24.4020   28.9831  -18.7178 C   0  0  0  0  0  0  0  0  0  0  0  0
  -23.8184   29.9767  -18.2775 O   0  0  0  0  0  0  0  0  0  0  0  0
  -23.6448   27.9193  -19.4980 C   0  0  2  0  0  0  0  0  0  0  0  0
  -24.2493   27.7749  -20.7694 O   0  0  0  0  0  0  0  0  0  0  0  0
  -23.5484   26.5464  -18.8056 C   0  0  1  0  0  0  0  0  0  0  0  0
  -22.2489   25.8084  -19.0955 C   0  0  0  0  0  0  0  0  0  0  0  0
  -23.6650   26.7423  -17.2798 C   0  0  0  0  0  0  0  0  0  0  0  0
  -24.6948   25.6500  -19.2917 C   0  0  0  0  0  0  0  0  0  0  0  0
  -13.2971   29.3278  -20.6169 H   0  0  0  0  0  0  0  0  0  0  0  0
  -14.9021   27.3723  -15.3794 H   0  0  0  0  0  0  0  0  0  0  0  0
  -14.6298   26.6905  -21.3525 H   0  0  0  0  0  0  0  0  0  0  0  0
  -12.6533   27.9205  -22.2310 H   0  0  0  0  0  0  0  0  0  0  0  0
  -29.7615   32.5184  -14.0145 H   0  0  0  0  0  0  0  0  0  0  0  0
  -28.9048   32.3534  -15.5743 H   0  0  0  0  0  0  0  0  0  0  0  0
  -30.2385   35.0108  -13.9948 H   0  0  0  0  0  0  0  0  0  0  0  0
  -16.5228   28.0137  -22.2647 H   0  0  0  0  0  0  0  0  0  0  0  0
  -27.0617   31.9534  -13.3855 H   0  0  0  0  0  0  0  0  0  0  0  0
  -28.5286   30.8849  -13.2078 H   0  0  0  0  0  0  0  0  0  0  0  0
  -32.3065   36.2118  -13.3436 H   0  0  0  0  0  0  0  0  0  0  0  0
  -16.8092   29.7820  -20.2553 H   0  0  0  0  0  0  0  0  0  0  0  0
  -26.3534   30.4947  -14.9788 H   0  0  0  0  0  0  0  0  0  0  0  0
  -32.6660   36.8982  -10.9747 H   0  0  0  0  0  0  0  0  0  0  0  0
  -16.6423   27.0071  -19.1762 H   0  0  0  0  0  0  0  0  0  0  0  0
  -17.7842   28.3243  -18.8106 H   0  0  0  0  0  0  0  0  0  0  0  0
  -10.4508   24.8076  -16.7020 H   0  0  0  0  0  0  0  0  0  0  0  0
  -11.2981   24.6560  -15.1394 H   0  0  0  0  0  0  0  0  0  0  0  0
  -31.0087   36.2617   -9.2602 H   0  0  0  0  0  0  0  0  0  0  0  0
  -26.7348   28.1856  -16.0783 H   0  0  0  0  0  0  0  0  0  0  0  0
  -28.1616   28.2927  -17.2115 H   0  0  0  0  0  0  0  0  0  0  0  0
  -28.9260   35.0852   -9.8964 H   0  0  0  0  0  0  0  0  0  0  0  0
  -27.2245   30.1459  -18.3613 H   0  0  0  0  0  0  0  0  0  0  0  0
  -25.8916   30.2885  -17.1176 H   0  0  0  0  0  0  0  0  0  0  0  0
  -11.5135   27.0830  -20.8497 H   0  0  0  0  0  0  0  0  0  0  0  0
  -26.0940   27.8921  -18.8851 H   0  0  0  0  0  0  0  0  0  0  0  0
  -22.6061   28.2730  -19.5749 H   0  0  0  0  0  0  0  0  0  0  0  0
  -25.2059   27.5465  -20.6560 H   0  0  0  0  0  0  0  0  0  0  0  0
  -22.1384   24.9585  -18.4059 H   0  0  0  0  0  0  0  0  0  0  0  0
  -21.3862   26.4771  -18.9591 H   0  0  0  0  0  0  0  0  0  0  0  0
  -23.1683   25.9074  -16.7639 H   0  0  0  0  0  0  0  0  0  0  0  0
  -23.1829   27.6888  -16.9938 H   0  0  0  0  0  0  0  0  0  0  0  0
  -24.7268   26.7706  -16.9938 H   0  0  0  0  0  0  0  0  0  0  0  0
  -25.2276   25.2333  -18.4243 H   0  0  0  0  0  0  0  0  0  0  0  0
  -25.3926   26.2445  -19.8998 H   0  0  0  0  0  0  0  0  0  0  0  0
  -24.2861   24.8295  -19.8998 H   0  0  0  0  0  0  0  0  0  0  0  0
  1  7  2  0
  1 35  1  0
  2  3  2  0
  3  8  1  1
  3 15  1  0
  3 31  1  0
  4  6  1  0
  4 10  1  0
  4 27  2  0
  5 11  1  0
  5 25  1  0
  5 47  1  0
  6 13  1  0
  7 14  1  0
  9 15  1  0
  9 22  1  6
  9 28  2  0
  9 37  1  0
 10 16  2  0
 10 42  1  0
 11 12  1  0
 11 17  1  0
 13 20  1  0
 14 21  2  0
 16 23  1  0
 17 18  1  0
 17 24  1  0
 18 19  1  0
 19 41  1  1
 19 45  2  0
 19 48  1  0
 20 26  1  0
 21 32  1  0
 21 47  1  0
 23 29  2  0
 24 25  1  0
 24 30  1  0
 26 33  1  0
 29 38  1  0
 30 31  1  0
 32 35  2  0
 32 40  1  0
 33 34  2  0
 33 39  1  0
 35 36  1  0
 37 54  1  0
 38 42  2  0
 39 43  1  0
 40 44  2  0
 43 46  1  0
 44 47  1  0
 46 49  1  0
 49 50  2  0
 49 51  1  0
 51 52  1  0
 51 53  1  0
 53 54  1  1
 53 55  1  0
 53 56  1  0
  5 57  1  6
  7 58  1  0
 11 59  1  1
 12 60  1  0
 13 61  1  0
 13 62  1  0
 16 63  1  0
 17 64  1  6
 20 65  1  0
 20 66  1  0
 23 67  1  0
 24 68  1  6
 26 69  1  0
 29 70  1  0
 30 71  1  0
 30 72  1  0
 36 73  1  0
 36 74  1  0
 38 75  1  0
 39 76  1  0
 39 77  1  0
 42 78  1  0
 43 79  1  0
 43 80  1  0
 44 81  1  0
 46 82  1  0
 51 83  1  6
 52 84  1  0
 54 85  1  0
 54 86  1  0
 55 87  1  0
 55 88  1  0
 55 89  1  0
 56 90  1  0
 56 91  1  0
 56 92  1  0
M  CHG  4   8  -1  22  -1  41  -1  48  -1
M  END
>  <filename_input>  (17) 
7PK0_BYC_docked.sdf

>  <pdb_id>  (17) 
7PK0_BYC

>  <pose_rank>  (17) 
16

>  <num_atoms_heavy>  (17) 
56

>  <num_torsions>  (17) 
21

>  <pose>  (17) 
[-21.0087966700264, 24.69411075153845, -21.15301507997823, -0.4159768748324688, -2.049272384808474, -2.0008999933711062, -0.2028547054059313, -0.5803922572797252, -2.424635697387747, 0.38424334186034215, 0.4207973141618612, -1.196224226989168, 3.8751663886645678, 2.855859036802241, 0.3137681527950918, 0.9917771683571658, -2.6748972426671194, 1.2347572076576336, -2.847440282925506, -0.9237141866672985, -0.40083156798606073, -2.496886013021481, -1.031189593423453, -1.500506767585956, 2.1332939078584388, 0.2117635182322184, 0.8436308808015288]

>  <energy>  (17) 
-723.5392133074105

>  <inter_energy>  (17) 
-777.7910440757068

>  <intra_energy>  (17) 
71.57505328587295

>  <rmsd>  (17) 
12.4889

>  <sdf_rank>  (17) 
0

$$$$

     RDKit          3D

 92 95  0  0  0  0  0  0  0  0999 V2000
  -28.9920   31.3965  -22.2467 N   0  0  0  0  0  0  0  0  0  0  0  0
  -20.2267   29.3918  -22.9457 O   0  0  0  0  0  0  0  0  0  0  0  0
  -21.1660   30.3548  -23.6062 P   0  0  2  0  0  0  0  0  0  0  0  0
  -13.7389   28.1999  -20.4577 C   0  0  0  0  0  0  0  0  0  0  0  0
  -25.3516   28.6496  -19.8804 C   0  0  1  0  0  0  0  0  0  0  0  0
  -13.1598   29.8264  -20.9049 S   0  0  0  0  0  0  0  0  0  0  0  0
  -27.7091   31.1607  -22.5612 C   0  0  0  0  0  0  0  0  0  0  0  0
  -21.8937   29.9240  -24.8460 O   0  0  0  0  0  0  0  0  0  0  0  0
  -19.0661   32.1066  -24.5202 P   0  0  1  0  0  0  0  0  0  0  0  0
  -13.3665   27.6913  -19.1188 C   0  0  0  0  0  0  0  0  0  0  0  0
  -25.1233   27.5998  -20.9591 C   0  0  2  0  0  0  0  0  0  0  0  0
  -25.4609   26.3071  -20.4970 O   0  0  0  0  0  0  0  0  0  0  0  0
  -14.4767   30.8799  -20.2572 C   0  0  0  0  0  0  0  0  0  0  0  0
  -26.7897   30.4619  -21.8914 N   0  0  0  0  0  0  0  0  0  0  0  0
  -20.5119   31.7805  -23.9011 O   0  0  0  0  0  0  0  0  0  0  0  0
  -14.1204   26.6528  -18.5851 C   0  0  0  0  0  0  0  0  0  0  0  0
  -23.6384   27.7905  -21.2262 C   0  0  2  0  0  0  0  0  0  0  0  0
  -22.9173   27.1226  -20.1857 O   0  0  0  0  0  0  0  0  0  0  0  0
  -21.9041   25.9762  -20.7355 P   0  0  1  0  0  0  0  0  0  0  0  0
  -14.0479   32.3063  -20.4005 C   0  0  0  0  0  0  0  0  0  0  0  0
  -27.3262   29.9575  -20.7655 C   0  0  0  0  0  0  0  0  0  0  0  0
  -18.4536   33.2622  -23.7883 O   0  0  0  0  0  0  0  0  0  0  0  0
  -13.8684   26.1823  -17.3055 C   0  0  0  0  0  0  0  0  0  0  0  0
  -23.4425   29.3122  -21.0919 C   0  0  2  0  0  0  0  0  0  0  0  0
  -24.4956   29.7372  -20.1839 O   0  0  0  0  0  0  0  0  0  0  0  0
  -14.7883   33.0201  -21.4131 N   0  0  0  0  0  0  0  0  0  0  0  0
  -14.5053   27.6257  -21.2091 O   0  0  0  0  0  0  0  0  0  0  0  0
  -18.3364   30.8161  -24.6148 O   0  0  0  0  0  0  0  0  0  0  0  0
  -12.8560   26.7438  -16.5385 C   0  0  0  0  0  0  0  0  0  0  0  0
  -23.5401   30.1281  -22.3699 C   0  0  0  0  0  0  0  0  0  0  0  0
  -22.2800   30.8043  -22.5468 O   0  0  0  0  0  0  0  0  0  0  0  0
  -28.6140   30.1292  -20.3064 C   0  0  0  0  0  0  0  0  0  0  0  0
  -14.4003   34.1782  -21.9800 C   0  0  0  0  0  0  0  0  0  0  0  0
  -13.4162   34.7790  -21.5748 O   0  0  0  0  0  0  0  0  0  0  0  0
  -29.4886   30.9077  -21.0837 C   0  0  0  0  0  0  0  0  0  0  0  0
  -30.7772   31.0930  -20.7889 N   0  0  0  0  0  0  0  0  0  0  0  0
  -19.4202   32.6410  -25.9879 O   0  0  0  0  0  0  0  0  0  0  0  0
  -12.0873   27.7415  -17.0734 C   0  0  0  0  0  0  0  0  0  0  0  0
  -15.3139   34.7968  -23.0251 C   0  0  0  0  0  0  0  0  0  0  0  0
  -28.8004   29.4516  -19.1063 N   0  0  0  0  0  0  0  0  0  0  0  0
  -21.5633   26.3237  -22.2374 O   0  0  0  0  0  0  0  0  0  0  0  0
  -12.3361   28.2241  -18.3494 C   0  0  0  0  0  0  0  0  0  0  0  0
  -14.8707   34.5092  -24.4635 C   0  0  0  0  0  0  0  0  0  0  0  0
  -27.6456   28.8907  -18.8817 C   0  0  0  0  0  0  0  0  0  0  0  0
  -20.6631   26.0277  -19.8597 O   0  0  0  0  0  0  0  0  0  0  0  0
  -15.9395   33.9920  -25.3157 N   0  0  0  0  0  0  0  0  0  0  0  0
  -26.6972   29.1740  -19.8302 N   0  0  0  0  0  0  0  0  0  0  0  0
  -22.6047   24.6701  -20.6696 O   0  0  0  0  0  0  0  0  0  0  0  0
  -15.9773   34.1262  -26.6309 C   0  0  0  0  0  0  0  0  0  0  0  0
  -15.0962   34.7124  -27.2647 O   0  0  0  0  0  0  0  0  0  0  0  0
  -17.1280   33.4409  -27.3520 C   0  0  2  0  0  0  0  0  0  0  0  0
  -16.6938   33.0713  -28.6473 O   0  0  0  0  0  0  0  0  0  0  0  0
  -18.4228   34.2697  -27.4508 C   0  0  1  0  0  0  0  0  0  0  0  0
  -19.3645   34.0706  -26.2714 C   0  0  0  0  0  0  0  0  0  0  0  0
  -18.0580   35.7664  -27.5329 C   0  0  0  0  0  0  0  0  0  0  0  0
  -19.1912   33.8639  -28.7154 C   0  0  0  0  0  0  0  0  0  0  0  0
  -25.1581   28.1679  -18.9106 H   0  0  0  0  0  0  0  0  0  0  0  0
  -27.3658   31.6070  -23.5062 H   0  0  0  0  0  0  0  0  0  0  0  0
  -25.7413   27.7045  -21.8631 H   0  0  0  0  0  0  0  0  0  0  0  0
  -25.4626   26.3005  -19.5070 H   0  0  0  0  0  0  0  0  0  0  0  0
  -15.4027   30.7106  -20.8263 H   0  0  0  0  0  0  0  0  0  0  0  0
  -14.6658   30.6445  -19.1995 H   0  0  0  0  0  0  0  0  0  0  0  0
  -14.9246   26.1999  -19.1835 H   0  0  0  0  0  0  0  0  0  0  0  0
  -23.2993   27.4017  -22.1977 H   0  0  0  0  0  0  0  0  0  0  0  0
  -14.1942   32.8145  -19.4360 H   0  0  0  0  0  0  0  0  0  0  0  0
  -12.9916   32.3025  -20.7074 H   0  0  0  0  0  0  0  0  0  0  0  0
  -14.4735   25.3601  -16.8957 H   0  0  0  0  0  0  0  0  0  0  0  0
  -22.4124   29.4907  -20.7500 H   0  0  0  0  0  0  0  0  0  0  0  0
  -15.6812   32.6128  -21.7258 H   0  0  0  0  0  0  0  0  0  0  0  0
  -12.6741   26.3906  -15.5127 H   0  0  0  0  0  0  0  0  0  0  0  0
  -23.7342   29.4647  -23.2256 H   0  0  0  0  0  0  0  0  0  0  0  0
  -24.3645   30.8536  -22.3056 H   0  0  0  0  0  0  0  0  0  0  0  0
  -31.1620   30.7247  -19.9073 H   0  0  0  0  0  0  0  0  0  0  0  0
  -31.3868   31.6044  -21.4430 H   0  0  0  0  0  0  0  0  0  0  0  0
  -11.2614   28.1661  -16.4837 H   0  0  0  0  0  0  0  0  0  0  0  0
  -16.3278   34.3939  -22.8850 H   0  0  0  0  0  0  0  0  0  0  0  0
  -15.2783   35.8872  -22.8848 H   0  0  0  0  0  0  0  0  0  0  0  0
  -11.7141   29.0347  -18.7569 H   0  0  0  0  0  0  0  0  0  0  0  0
  -14.4965   35.4447  -24.9051 H   0  0  0  0  0  0  0  0  0  0  0  0
  -14.0958   33.7302  -24.4113 H   0  0  0  0  0  0  0  0  0  0  0  0
  -27.4498   28.2484  -18.0104 H   0  0  0  0  0  0  0  0  0  0  0  0
  -16.7152   33.4892  -24.8615 H   0  0  0  0  0  0  0  0  0  0  0  0
  -17.3963   32.5648  -26.7433 H   0  0  0  0  0  0  0  0  0  0  0  0
  -15.9419   32.4315  -28.5733 H   0  0  0  0  0  0  0  0  0  0  0  0
  -20.3682   34.4419  -26.5259 H   0  0  0  0  0  0  0  0  0  0  0  0
  -19.0048   34.6250  -25.3921 H   0  0  0  0  0  0  0  0  0  0  0  0
  -17.9582   36.1757  -26.5168 H   0  0  0  0  0  0  0  0  0  0  0  0
  -17.1052   35.8826  -28.0703 H   0  0  0  0  0  0  0  0  0  0  0  0
  -18.8504   36.3080  -28.0703 H   0  0  0  0  0  0  0  0  0  0  0  0
  -20.1306   33.3678  -28.4303 H   0  0  0  0  0  0  0  0  0  0  0  0
  -19.4163   34.7607  -29.3113 H   0  0  0  0  0  0  0  0  0  0  0  0
  -18.5775   33.1723  -29.3113 H   0  0  0  0  0  0  0  0  0  0  0  0
  1  7  2  0
  1 35  1  0
  2  3  2  0
  3  8  1  6
  3 15  1  0
  3 31  1  0
  4  6  1  0
  4 10  1  0
  4 27  2  0
  5 11  1  0
  5 25  1  0
  5 47  1  0
  6 13  1  0
  7 14  1  0
  9 15  1  0
  9 22  1  1
  9 28  2  0
  9 37  1  0
 10 16  2  0
 10 42  1  0
 11 12  1  0
 11 17  1  0
 13 20  1  0
 14 21  2  0
 16 23  1  0
 17 18  1  0
 17 24  1  0
 18 19  1  0
 19 41  1  6
 19 45  2  0
 19 48  1  0
 20 26  1  0
 21 32  1  0
 21 47  1  0
 23 29  2  0
 24 25  1  0
 24 30  1  0
 26 33  1  0
 29 38  1  0
 30 31  1  0
 32 35  2  0
 32 40  1  0
 33 34  2  0
 33 39  1  0
 35 36  1  0
 37 54  1  0
 38 42  2  0
 39 43  1  0
 40 44  2  0
 43 46  1  0
 44 47  1  0
 46 49  1  0
 49 50  2  0
 49 51  1  0
 51 52  1  0
 51 53  1  0
 53 54  1  1
 53 55  1  0
 53 56  1  0
  5 57  1  1
  7 58  1  0
 11 59  1  6
 12 60  1  0
 13 61  1  0
 13 62  1  0
 16 63  1  0
 17 64  1  6
 20 65  1  0
 20 66  1  0
 23 67  1  0
 24 68  1  1
 26 69  1  0
 29 70  1  0
 30 71  1  0
 30 72  1  0
 36 73  1  0
 36 74  1  0
 38 75  1  0
 39 76  1  0
 39 77  1  0
 42 78  1  0
 43 79  1  0
 43 80  1  0
 44 81  1  0
 46 82  1  0
 51 83  1  1
 52 84  1  0
 54 85  1  0
 54 86  1  0
 55 87  1  0
 55 88  1  0
 55 89  1  0
 56 90  1  0
 56 91  1  0
 56 92  1  0
M  CHG  4   8  -1  22  -1  41  -1  48  -1
M  END
>  <filename_input>  (18) 
7PK0_BYC_docked.sdf

>  <pdb_id>  (18) 
7PK0_BYC

>  <pose_rank>  (18) 
17

>  <num_atoms_heavy>  (18) 
56

>  <num_torsions>  (18) 
21

>  <pose>  (18) 
[-19.06606895701362, 32.10655531101943, -24.520211026593692, 2.703199801047286, 0.06759595393241535, -2.4057474152802447, -3.628622781390323, -1.396569046592805, -1.9163257290831437, 1.3821669821513505, 3.0286070477061626, -2.4662262701298325, 3.1584162329235146, 2.2040411048750728, -1.4577902776552212, -1.3598432333615391, -4.70924172826593, 1.2398029655572045, -0.1264949577070758, -1.6209604665634585, -0.9453180606176186, -2.2028478504648477, -1.4881781308772197, 3.304444406858092, 2.9986914906021416, -0.4214623013248732, -0.6135057985980557]

>  <energy>  (18) 
-419.7868219071914

>  <inter_energy>  (18) 
-469.4499050916129

>  <intra_energy>  (18) 
43.138011977752335

>  <rmsd>  (18) 
7.17802

>  <sdf_rank>  (18) 
0

$$$$

     RDKit          3D

 92 95  0  0  0  0  0  0  0  0999 V2000
  -25.5092   34.8025  -21.6841 N   0  0  0  0  0  0  0  0  0  0  0  0
  -24.0554   32.1194  -24.7893 O   0  0  0  0  0  0  0  0  0  0  0  0
  -22.6741   31.7948  -24.3069 P   0  0  2  0  0  0  0  0  0  0  0  0
  -13.2976   25.8430  -14.9653 C   0  0  0  0  0  0  0  0  0  0  0  0
  -24.4630   30.0350  -20.0798 C   0  0  1  0  0  0  0  0  0  0  0  0
  -14.1332   26.7920  -16.2230 S   0  0  0  0  0  0  0  0  0  0  0  0
  -24.3486   34.1969  -21.3898 C   0  0  0  0  0  0  0  0  0  0  0  0
  -21.6815   32.9086  -24.1450 O   0  0  0  0  0  0  0  0  0  0  0  0
  -20.7772   30.7595  -26.2158 P   0  0  1  0  0  0  0  0  0  0  0  0
  -14.1075   25.3740  -13.8188 C   0  0  0  0  0  0  0  0  0  0  0  0
  -24.6638   28.6774  -20.7389 C   0  0  2  0  0  0  0  0  0  0  0  0
  -25.5022   27.8475  -19.9596 O   0  0  0  0  0  0  0  0  0  0  0  0
  -15.2752   25.5727  -16.9103 C   0  0  0  0  0  0  0  0  0  0  0  0
  -24.1319   32.9577  -20.9427 N   0  0  0  0  0  0  0  0  0  0  0  0
  -21.9651   30.6339  -25.1419 O   0  0  0  0  0  0  0  0  0  0  0  0
  -14.1451   24.0080  -13.5650 C   0  0  0  0  0  0  0  0  0  0  0  0
  -23.2252   28.1922  -20.8258 C   0  0  2  0  0  0  0  0  0  0  0  0
  -22.8507   27.6994  -19.5352 O   0  0  0  0  0  0  0  0  0  0  0  0
  -22.2995   26.1702  -19.5630 P   0  0  1  0  0  0  0  0  0  0  0  0
  -15.0869   25.5396  -18.3943 C   0  0  0  0  0  0  0  0  0  0  0  0
  -25.3012   32.3052  -20.8123 C   0  0  0  0  0  0  0  0  0  0  0  0
  -20.7603   29.5442  -27.0927 O   0  0  0  0  0  0  0  0  0  0  0  0
  -14.9436   23.4996  -12.5520 C   0  0  0  0  0  0  0  0  0  0  0  0
  -22.4322   29.4757  -21.1355 C   0  0  2  0  0  0  0  0  0  0  0  0
  -23.2359   30.5471  -20.5696 O   0  0  0  0  0  0  0  0  0  0  0  0
  -14.6950   26.8158  -18.9430 N   0  0  0  0  0  0  0  0  0  0  0  0
  -12.1389   25.5194  -15.1509 O   0  0  0  0  0  0  0  0  0  0  0  0
  -20.8846   32.1115  -26.8217 O   0  0  0  0  0  0  0  0  0  0  0  0
  -15.7179   24.3513  -11.7750 C   0  0  0  0  0  0  0  0  0  0  0  0
  -22.1733   29.7808  -22.6013 C   0  0  0  0  0  0  0  0  0  0  0  0
  -22.7784   31.0564  -22.8894 O   0  0  0  0  0  0  0  0  0  0  0  0
  -26.5635   32.7999  -21.0580 C   0  0  0  0  0  0  0  0  0  0  0  0
  -14.9640   27.2327  -20.1947 C   0  0  0  0  0  0  0  0  0  0  0  0
  -15.4761   26.4822  -21.0120 O   0  0  0  0  0  0  0  0  0  0  0  0
  -26.6717   34.1291  -21.5015 C   0  0  0  0  0  0  0  0  0  0  0  0
  -27.8266   34.7057  -21.8416 N   0  0  0  0  0  0  0  0  0  0  0  0
  -19.4633   30.6739  -25.3040 O   0  0  0  0  0  0  0  0  0  0  0  0
  -15.6559   25.7001  -11.9971 C   0  0  0  0  0  0  0  0  0  0  0  0
  -14.4624   28.6067  -20.6072 C   0  0  0  0  0  0  0  0  0  0  0  0
  -27.5268   31.8270  -20.8136 N   0  0  0  0  0  0  0  0  0  0  0  0
  -22.7925   25.4632  -18.2402 O   0  0  0  0  0  0  0  0  0  0  0  0
  -14.8662   26.2178  -13.0127 C   0  0  0  0  0  0  0  0  0  0  0  0
  -15.5619   29.6740  -20.6208 C   0  0  0  0  0  0  0  0  0  0  0  0
  -26.8336   30.7871  -20.4440 C   0  0  0  0  0  0  0  0  0  0  0  0
  -22.8916   25.5104  -20.7975 O   0  0  0  0  0  0  0  0  0  0  0  0
  -15.9974   30.0523  -21.9637 N   0  0  0  0  0  0  0  0  0  0  0  0
  -25.4818   31.0102  -20.3947 N   0  0  0  0  0  0  0  0  0  0  0  0
  -20.8167   26.2139  -19.5855 O   0  0  0  0  0  0  0  0  0  0  0  0
  -15.9897   31.2897  -22.4306 C   0  0  0  0  0  0  0  0  0  0  0  0
  -15.6073   32.2511  -21.7589 O   0  0  0  0  0  0  0  0  0  0  0  0
  -16.3969   31.4707  -23.8849 C   0  0  2  0  0  0  0  0  0  0  0  0
  -15.4796   32.3522  -24.5050 O   0  0  0  0  0  0  0  0  0  0  0  0
  -17.8361   31.9758  -24.1020 C   0  0  1  0  0  0  0  0  0  0  0  0
  -18.3941   31.6500  -25.4804 C   0  0  0  0  0  0  0  0  0  0  0  0
  -18.7588   31.3390  -23.0423 C   0  0  0  0  0  0  0  0  0  0  0  0
  -17.8675   33.5024  -23.9516 C   0  0  0  0  0  0  0  0  0  0  0  0
  -24.4946   29.8771  -18.9917 H   0  0  0  0  0  0  0  0  0  0  0  0
  -23.4468   34.8089  -21.5381 H   0  0  0  0  0  0  0  0  0  0  0  0
  -25.1738   28.6924  -21.7134 H   0  0  0  0  0  0  0  0  0  0  0  0
  -25.3322   28.0157  -18.9989 H   0  0  0  0  0  0  0  0  0  0  0  0
  -15.0607   24.5809  -16.4856 H   0  0  0  0  0  0  0  0  0  0  0  0
  -16.3127   25.8434  -16.6650 H   0  0  0  0  0  0  0  0  0  0  0  0
  -13.5357   23.3238  -14.1737 H   0  0  0  0  0  0  0  0  0  0  0  0
  -23.0588   27.3991  -21.5696 H   0  0  0  0  0  0  0  0  0  0  0  0
  -14.3066   24.8017  -18.6321 H   0  0  0  0  0  0  0  0  0  0  0  0
  -16.0555   25.2730  -18.8424 H   0  0  0  0  0  0  0  0  0  0  0  0
  -14.9639   22.4162  -12.3627 H   0  0  0  0  0  0  0  0  0  0  0  0
  -21.4228   29.3584  -20.7143 H   0  0  0  0  0  0  0  0  0  0  0  0
  -14.1698   27.4561  -18.3305 H   0  0  0  0  0  0  0  0  0  0  0  0
  -16.3734   23.9463  -10.9900 H   0  0  0  0  0  0  0  0  0  0  0  0
  -21.0906   29.8270  -22.7902 H   0  0  0  0  0  0  0  0  0  0  0  0
  -22.5992   28.9951  -23.2427 H   0  0  0  0  0  0  0  0  0  0  0  0
  -28.7140   34.2006  -21.7060 H   0  0  0  0  0  0  0  0  0  0  0  0
  -27.8304   35.6556  -22.2397 H   0  0  0  0  0  0  0  0  0  0  0  0
  -16.2400   26.3824  -11.3621 H   0  0  0  0  0  0  0  0  0  0  0  0
  -13.6805   28.9199  -19.8997 H   0  0  0  0  0  0  0  0  0  0  0  0
  -14.0803   28.5193  -21.6350 H   0  0  0  0  0  0  0  0  0  0  0  0
  -14.8391   27.3043  -13.1826 H   0  0  0  0  0  0  0  0  0  0  0  0
  -16.4312   29.2840  -20.0709 H   0  0  0  0  0  0  0  0  0  0  0  0
  -15.1399   30.5761  -20.1538 H   0  0  0  0  0  0  0  0  0  0  0  0
  -27.2914   29.8186  -20.1943 H   0  0  0  0  0  0  0  0  0  0  0  0
  -16.3328   29.3051  -22.5883 H   0  0  0  0  0  0  0  0  0  0  0  0
  -16.3750   30.4691  -24.3391 H   0  0  0  0  0  0  0  0  0  0  0  0
  -14.9708   32.8410  -23.8105 H   0  0  0  0  0  0  0  0  0  0  0  0
  -17.6016   31.2276  -26.1156 H   0  0  0  0  0  0  0  0  0  0  0  0
  -18.7774   32.5592  -25.9667 H   0  0  0  0  0  0  0  0  0  0  0  0
  -18.3918   31.5923  -22.0367 H   0  0  0  0  0  0  0  0  0  0  0  0
  -19.7814   31.7245  -23.1673 H   0  0  0  0  0  0  0  0  0  0  0  0
  -18.7611   30.2461  -23.1673 H   0  0  0  0  0  0  0  0  0  0  0  0
  -17.8729   33.7656  -22.8835 H   0  0  0  0  0  0  0  0  0  0  0  0
  -16.9781   33.9366  -24.4317 H   0  0  0  0  0  0  0  0  0  0  0  0
  -18.7740   33.8996  -24.4317 H   0  0  0  0  0  0  0  0  0  0  0  0
  1  7  2  0
  1 35  1  0
  2  3  2  0
  3  8  1  1
  3 15  1  0
  3 31  1  0
  4  6  1  0
  4 10  1  0
  4 27  2  0
  5 11  1  0
  5 25  1  0
  5 47  1  0
  6 13  1  0
  7 14  1  0
  9 15  1  0
  9 22  1  6
  9 28  2  0
  9 37  1  0
 10 16  2  0
 10 42  1  0
 11 12  1  0
 11 17  1  0
 13 20  1  0
 14 21  2  0
 16 23  1  0
 17 18  1  0
 17 24  1  0
 18 19  1  0
 19 41  1  1
 19 45  2  0
 19 48  1  0
 20 26  1  0
 21 32  1  0
 21 47  1  0
 23 29  2  0
 24 25  1  0
 24 30  1  0
 26 33  1  0
 29 38  1  0
 30 31  1  0
 32 35  2  0
 32 40  1  0
 33 34  2  0
 33 39  1  0
 35 36  1  0
 37 54  1  0
 38 42  2  0
 39 43  1  0
 40 44  2  0
 43 46  1  0
 44 47  1  0
 46 49  1  0
 49 50  2  0
 49 51  1  0
 51 52  1  0
 51 53  1  0
 53 54  1  6
 53 55  1  0
 53 56  1  0
  5 57  1  1
  7 58  1  0
 11 59  1  6
 12 60  1  0
 13 61  1  0
 13 62  1  0
 16 63  1  0
 17 64  1  6
 20 65  1  0
 20 66  1  0
 23 67  1  0
 24 68  1  1
 26 69  1  0
 29 70  1  0
 30 71  1  0
 30 72  1  0
 36 73  1  0
 36 74  1  0
 38 75  1  0
 39 76  1  0
 39 77  1  0
 42 78  1  0
 43 79  1  0
 43 80  1  0
 44 81  1  0
 46 82  1  0
 51 83  1  6
 52 84  1  0
 54 85  1  0
 54 86  1  0
 55 87  1  0
 55 88  1  0
 55 89  1  0
 56 90  1  0
 56 91  1  0
 56 92  1  0
M  CHG  4   8  -1  22  -1  41  -1  48  -1
M  END
>  <filename_input>  (19) 
7PK0_BYC_docked.sdf

>  <pdb_id>  (19) 
7PK0_BYC

>  <pose_rank>  (19) 
18

>  <num_atoms_heavy>  (19) 
56

>  <num_torsions>  (19) 
21

>  <pose>  (19) 
[-20.77718621667236, 30.759466003443862, -26.21575668510147, 0.4444253467735132, -0.21660157606208874, 0.06380372951200637, -1.454405874377076, -1.0831389722180889, 0.806311785566353, 0.18602670248767753, 3.28745892177695, -1.0361897736054548, -0.9488038974049307, 2.141215312335986, -1.2777488344634214, 2.4689987015016213, 2.6183635323950885, 1.625754357147286, -0.7818014785092613, -1.9814752891341803, 0.13157194460521077, 1.582538689186794, -0.22488017998536752, 1.2163818258245929, 1.8922931605208217, -0.3635613028749374, 2.7526377417057137]

>  <energy>  (19) 
-640.7464295905772

>  <inter_energy>  (19) 
-694.6045168808985

>  <intra_energy>  (19) 
53.19267563613114

>  <rmsd>  (19) 
4.88863

>  <sdf_rank>  (19) 
0

$$$$

     RDKit          3D

 92 95  0  0  0  0  0  0  0  0999 V2000
  -21.6048   33.6400  -25.7263 N   0  0  0  0  0  0  0  0  0  0  0  0
  -27.5081   29.2972  -16.2619 O   0  0  0  0  0  0  0  0  0  0  0  0
  -27.1268   29.1806  -17.7066 P   0  0  2  0  0  0  0  0  0  0  0  0
  -13.7671   27.3482  -18.5885 C   0  0  0  0  0  0  0  0  0  0  0  0
  -25.1643   32.5063  -22.1990 C   0  0  1  0  0  0  0  0  0  0  0  0
  -13.6846   27.2781  -20.3687 S   0  0  0  0  0  0  0  0  0  0  0  0
  -22.8232   34.1519  -25.4947 C   0  0  0  0  0  0  0  0  0  0  0  0
  -28.1408   28.6651  -18.6854 O   0  0  0  0  0  0  0  0  0  0  0  0
  -25.5161   26.7912  -17.8070 P   0  0  1  0  0  0  0  0  0  0  0  0
  -12.4921   27.2391  -17.8452 C   0  0  0  0  0  0  0  0  0  0  0  0
  -26.2673   31.4891  -22.4564 C   0  0  2  0  0  0  0  0  0  0  0  0
  -26.9197   31.7395  -23.6854 O   0  0  0  0  0  0  0  0  0  0  0  0
  -13.1079   28.9402  -20.7789 C   0  0  0  0  0  0  0  0  0  0  0  0
  -23.7285   33.7977  -24.5796 N   0  0  0  0  0  0  0  0  0  0  0  0
  -25.7719   28.3711  -17.9437 O   0  0  0  0  0  0  0  0  0  0  0  0
  -11.5656   26.2979  -18.2784 C   0  0  0  0  0  0  0  0  0  0  0  0
  -27.1458   31.7130  -21.2355 C   0  0  2  0  0  0  0  0  0  0  0  0
  -27.9360   32.8825  -21.4735 O   0  0  0  0  0  0  0  0  0  0  0  0
  -29.4820   32.7255  -20.9954 P   0  0  1  0  0  0  0  0  0  0  0  0
  -14.2839   29.8648  -20.7461 C   0  0  0  0  0  0  0  0  0  0  0  0
  -23.2530   32.7864  -23.8305 C   0  0  0  0  0  0  0  0  0  0  0  0
  -25.6486   26.3819  -16.3713 O   0  0  0  0  0  0  0  0  0  0  0  0
  -10.3846   26.0963  -17.5807 C   0  0  0  0  0  0  0  0  0  0  0  0
  -26.1320   31.9980  -20.1118 C   0  0  2  0  0  0  0  0  0  0  0  0
  -24.9762   32.5556  -20.7954 O   0  0  0  0  0  0  0  0  0  0  0  0
  -15.5325   29.1829  -20.5031 N   0  0  0  0  0  0  0  0  0  0  0  0
  -14.8361   27.5983  -18.0627 O   0  0  0  0  0  0  0  0  0  0  0  0
  -26.3433   26.1286  -18.8478 O   0  0  0  0  0  0  0  0  0  0  0  0
  -10.1110   26.8348  -16.4368 C   0  0  0  0  0  0  0  0  0  0  0  0
  -25.6816   30.8080  -19.2812 C   0  0  0  0  0  0  0  0  0  0  0  0
  -26.6572   30.6168  -18.2380 O   0  0  0  0  0  0  0  0  0  0  0  0
  -22.0370   32.1519  -23.9621 C   0  0  0  0  0  0  0  0  0  0  0  0
  -16.6787   29.4104  -21.1720 C   0  0  0  0  0  0  0  0  0  0  0  0
  -16.7660   30.3237  -21.9793 O   0  0  0  0  0  0  0  0  0  0  0  0
  -21.1738   32.5937  -24.9794 C   0  0  0  0  0  0  0  0  0  0  0  0
  -19.9429   32.1131  -25.1682 N   0  0  0  0  0  0  0  0  0  0  0  0
  -23.9634   26.6495  -18.1732 O   0  0  0  0  0  0  0  0  0  0  0  0
  -11.0032   27.7881  -16.0274 C   0  0  0  0  0  0  0  0  0  0  0  0
  -17.9040   28.6046  -20.7732 C   0  0  0  0  0  0  0  0  0  0  0  0
  -21.8985   31.1550  -23.0023 N   0  0  0  0  0  0  0  0  0  0  0  0
  -30.3741   33.5713  -21.9861 O   0  0  0  0  0  0  0  0  0  0  0  0
  -12.1906   27.9922  -16.7141 C   0  0  0  0  0  0  0  0  0  0  0  0
  -18.3447   27.6019  -21.8449 C   0  0  0  0  0  0  0  0  0  0  0  0
  -23.0087   31.2194  -22.3227 C   0  0  0  0  0  0  0  0  0  0  0  0
  -29.8192   31.2456  -21.0724 O   0  0  0  0  0  0  0  0  0  0  0  0
  -19.7017   27.0942  -21.6523 N   0  0  0  0  0  0  0  0  0  0  0  0
  -23.8872   32.1658  -22.7832 N   0  0  0  0  0  0  0  0  0  0  0  0
  -29.5990   33.2747  -19.6221 O   0  0  0  0  0  0  0  0  0  0  0  0
  -19.9959   25.9686  -21.0232 C   0  0  0  0  0  0  0  0  0  0  0  0
  -19.1326   25.2347  -20.5355 O   0  0  0  0  0  0  0  0  0  0  0  0
  -21.4735   25.6540  -20.8466 C   0  0  2  0  0  0  0  0  0  0  0  0
  -22.1112   25.7563  -22.1059 O   0  0  0  0  0  0  0  0  0  0  0  0
  -22.2090   26.5305  -19.8150 C   0  0  1  0  0  0  0  0  0  0  0  0
  -23.5682   25.9794  -19.4068 C   0  0  0  0  0  0  0  0  0  0  0  0
  -21.3370   26.6576  -18.5487 C   0  0  0  0  0  0  0  0  0  0  0  0
  -22.4473   27.9246  -20.4098 C   0  0  0  0  0  0  0  0  0  0  0  0
  -25.4831   33.4554  -22.6545 H   0  0  0  0  0  0  0  0  0  0  0  0
  -23.1184   34.9823  -26.1530 H   0  0  0  0  0  0  0  0  0  0  0  0
  -25.9364   30.4456  -22.5644 H   0  0  0  0  0  0  0  0  0  0  0  0
  -27.8296   32.0886  -23.5109 H   0  0  0  0  0  0  0  0  0  0  0  0
  -12.3576   29.2660  -20.0435 H   0  0  0  0  0  0  0  0  0  0  0  0
  -12.6474   28.9467  -21.7779 H   0  0  0  0  0  0  0  0  0  0  0  0
  -11.7713   25.7074  -19.1834 H   0  0  0  0  0  0  0  0  0  0  0  0
  -27.8172   30.8739  -21.0005 H   0  0  0  0  0  0  0  0  0  0  0  0
  -14.1267   30.6033  -19.9462 H   0  0  0  0  0  0  0  0  0  0  0  0
  -14.3562   30.3395  -21.7358 H   0  0  0  0  0  0  0  0  0  0  0  0
   -9.6607   25.3476  -17.9348 H   0  0  0  0  0  0  0  0  0  0  0  0
  -26.6191   32.6558  -19.3769 H   0  0  0  0  0  0  0  0  0  0  0  0
  -15.5480   28.4680  -19.7617 H   0  0  0  0  0  0  0  0  0  0  0  0
   -9.1877   26.6555  -15.8665 H   0  0  0  0  0  0  0  0  0  0  0  0
  -25.6249   29.9089  -19.9123 H   0  0  0  0  0  0  0  0  0  0  0  0
  -24.6849   30.9886  -18.8524 H   0  0  0  0  0  0  0  0  0  0  0  0
  -19.6083   31.3185  -24.6048 H   0  0  0  0  0  0  0  0  0  0  0  0
  -19.3278   32.5369  -25.8774 H   0  0  0  0  0  0  0  0  0  0  0  0
  -10.7757   28.4004  -15.1423 H   0  0  0  0  0  0  0  0  0  0  0  0
  -17.6730   28.0512  -19.8511 H   0  0  0  0  0  0  0  0  0  0  0  0
  -18.7308   29.3165  -20.6331 H   0  0  0  0  0  0  0  0  0  0  0  0
  -12.9000   28.7556  -16.3621 H   0  0  0  0  0  0  0  0  0  0  0  0
  -18.2955   28.0978  -22.8255 H   0  0  0  0  0  0  0  0  0  0  0  0
  -17.6660   26.7390  -21.7761 H   0  0  0  0  0  0  0  0  0  0  0  0
  -23.2215   30.5731  -21.4583 H   0  0  0  0  0  0  0  0  0  0  0  0
  -20.4811   27.6503  -22.0320 H   0  0  0  0  0  0  0  0  0  0  0  0
  -21.5259   24.6326  -20.4415 H   0  0  0  0  0  0  0  0  0  0  0  0
  -23.0799   25.9117  -21.9736 H   0  0  0  0  0  0  0  0  0  0  0  0
  -23.4979   24.8947  -19.2385 H   0  0  0  0  0  0  0  0  0  0  0  0
  -24.3109   26.1578  -20.1984 H   0  0  0  0  0  0  0  0  0  0  0  0
  -21.9721   26.5650  -17.6554 H   0  0  0  0  0  0  0  0  0  0  0  0
  -20.5791   25.8604  -18.5440 H   0  0  0  0  0  0  0  0  0  0  0  0
  -20.8381   27.6379  -18.5440 H   0  0  0  0  0  0  0  0  0  0  0  0
  -22.5720   28.6541  -19.5960 H   0  0  0  0  0  0  0  0  0  0  0  0
  -21.5851   28.2109  -21.0299 H   0  0  0  0  0  0  0  0  0  0  0  0
  -23.3557   27.9083  -21.0299 H   0  0  0  0  0  0  0  0  0  0  0  0
  1  7  2  0
  1 35  1  0
  2  3  2  0
  3  8  1  6
  3 15  1  0
  3 31  1  0
  4  6  1  0
  4 10  1  0
  4 27  2  0
  5 11  1  0
  5 25  1  0
  5 47  1  0
  6 13  1  0
  7 14  1  0
  9 15  1  0
  9 22  1  1
  9 28  2  0
  9 37  1  0
 10 16  2  0
 10 42  1  0
 11 12  1  0
 11 17  1  0
 13 20  1  0
 14 21  2  0
 16 23  1  0
 17 18  1  0
 17 24  1  0
 18 19  1  0
 19 41  1  6
 19 45  2  0
 19 48  1  0
 20 26  1  0
 21 32  1  0
 21 47  1  0
 23 29  2  0
 24 25  1  0
 24 30  1  0
 26 33  1  0
 29 38  1  0
 30 31  1  0
 32 35  2  0
 32 40  1  0
 33 34  2  0
 33 39  1  0
 35 36  1  0
 37 54  1  0
 38 42  2  0
 39 43  1  0
 40 44  2  0
 43 46  1  0
 44 47  1  0
 46 49  1  0
 49 50  2  0
 49 51  1  0
 51 52  1  0
 51 53  1  0
 53 54  1  1
 53 55  1  0
 53 56  1  0
  5 57  1  6
  7 58  1  0
 11 59  1  6
 12 60  1  0
 13 61  1  0
 13 62  1  0
 16 63  1  0
 17 64  1  1
 20 65  1  0
 20 66  1  0
 23 67  1  0
 24 68  1  1
 26 69  1  0
 29 70  1  0
 30 71  1  0
 30 72  1  0
 36 73  1  0
 36 74  1  0
 38 75  1  0
 39 76  1  0
 39 77  1  0
 42 78  1  0
 43 79  1  0
 43 80  1  0
 44 81  1  0
 46 82  1  0
 51 83  1  1
 52 84  1  0
 54 85  1  0
 54 86  1  0
 55 87  1  0
 55 88  1  0
 55 89  1  0
 56 90  1  0
 56 91  1  0
 56 92  1  0
M  CHG  4   8  -1  22  -1  41  -1  48  -1
M  END
>  <filename_input>  (20) 
7PK0_BYC_docked.sdf

>  <pdb_id>  (20) 
7PK0_BYC

>  <pose_rank>  (20) 
19

>  <num_atoms_heavy>  (20) 
56

>  <num_torsions>  (20) 
21

>  <pose>  (20) 
[-25.51609824459851, 26.791218397937257, -17.806962846443653, 4.442166927799368, -1.616413440561047, 0.8480069354692927, 5.181383027092227, 5.407230771428489, 1.6992457104551442, 6.335193584855737, 6.541034640457904, -0.5222125313377582, -1.9677185296402135, 1.9935315232745638, -0.9908115299125612, 2.9420039063303722, -2.853672327140519, 1.416970770683361, 2.625081487785011, -0.364852698889086, -0.4537236386637553, -4.285899644354226, -7.099621559774715, -8.643893448007866, -0.17058144945574766, -0.1347810410207731, -3.58307145210916]

>  <energy>  (20) 
-641.4506308548061

>  <inter_energy>  (20) 
-677.5109409311177

>  <intra_energy>  (20) 
32.34309994107628

>  <rmsd>  (20) 
5.30285

>  <sdf_rank>  (20) 
0

$$$$

     RDKit          3D

 92 95  0  0  0  0  0  0  0  0999 V2000
  -13.0318   26.4146  -16.7356 N   0  0  0  0  0  0  0  0  0  0  0  0
  -18.8279   31.2251  -23.5686 O   0  0  0  0  0  0  0  0  0  0  0  0
  -19.9903   30.2841  -23.4719 P   0  0  2  0  0  0  0  0  0  0  0  0
  -28.8822   33.7600  -12.3757 C   0  0  0  0  0  0  0  0  0  0  0  0
  -16.4886   26.3663  -20.5364 C   0  0  1  0  0  0  0  0  0  0  0  0
  -28.7774   32.8918  -13.9301 S   0  0  0  0  0  0  0  0  0  0  0  0
  -14.2217   25.8051  -16.8490 C   0  0  0  0  0  0  0  0  0  0  0  0
  -20.7902   29.9896  -24.7071 O   0  0  0  0  0  0  0  0  0  0  0  0
  -22.5998   30.9142  -22.4196 P   0  0  1  0  0  0  0  0  0  0  0  0
  -27.6813   34.5011  -11.9300 C   0  0  0  0  0  0  0  0  0  0  0  0
  -17.7299   26.8289  -19.7862 C   0  0  2  0  0  0  0  0  0  0  0  0
  -17.9855   26.0100  -18.6625 O   0  0  0  0  0  0  0  0  0  0  0  0
  -30.3388   31.9835  -13.9535 C   0  0  0  0  0  0  0  0  0  0  0  0
  -15.1025   25.8511  -17.8513 N   0  0  0  0  0  0  0  0  0  0  0  0
  -21.0177   30.6593  -22.3095 O   0  0  0  0  0  0  0  0  0  0  0  0
  -26.6114   34.5959  -12.8121 C   0  0  0  0  0  0  0  0  0  0  0  0
  -18.7782   26.7161  -20.8821 C   0  0  2  0  0  0  0  0  0  0  0  0
  -19.1507   25.3384  -20.9913 O   0  0  0  0  0  0  0  0  0  0  0  0
  -20.7191   25.1209  -21.3600 P   0  0  1  0  0  0  0  0  0  0  0  0
  -30.2244   30.8824  -14.9602 C   0  0  0  0  0  0  0  0  0  0  0  0
  -14.6337   26.6349  -18.8392 C   0  0  0  0  0  0  0  0  0  0  0  0
  -22.9470   32.2168  -21.7647 O   0  0  0  0  0  0  0  0  0  0  0  0
  -25.4310   35.2129  -12.4269 C   0  0  0  0  0  0  0  0  0  0  0  0
  -18.0178   27.1447  -22.1510 C   0  0  2  0  0  0  0  0  0  0  0  0
  -16.6286   26.8185  -21.8720 O   0  0  0  0  0  0  0  0  0  0  0  0
  -29.0051   30.1213  -14.8295 N   0  0  0  0  0  0  0  0  0  0  0  0
  -29.9566   33.8094  -11.8055 O   0  0  0  0  0  0  0  0  0  0  0  0
  -22.9786   30.6700  -23.8351 O   0  0  0  0  0  0  0  0  0  0  0  0
  -25.3024   35.7464  -11.1512 C   0  0  0  0  0  0  0  0  0  0  0  0
  -18.1074   28.6114  -22.5375 C   0  0  0  0  0  0  0  0  0  0  0  0
  -19.4748   28.8770  -22.9064 O   0  0  0  0  0  0  0  0  0  0  0  0
  -13.4465   27.3341  -18.8561 C   0  0  0  0  0  0  0  0  0  0  0  0
  -28.8632   28.8268  -15.1717 C   0  0  0  0  0  0  0  0  0  0  0  0
  -29.8252   28.1586  -15.5203 O   0  0  0  0  0  0  0  0  0  0  0  0
  -12.6088   27.2306  -17.7324 C   0  0  0  0  0  0  0  0  0  0  0  0
  -11.4037   27.7987  -17.6511 N   0  0  0  0  0  0  0  0  0  0  0  0
  -23.2107   29.7650  -21.4862 O   0  0  0  0  0  0  0  0  0  0  0  0
  -26.3658   35.6880  -10.2920 C   0  0  0  0  0  0  0  0  0  0  0  0
  -27.5051   28.1808  -14.9536 C   0  0  0  0  0  0  0  0  0  0  0  0
  -13.3055   28.0306  -20.0516 N   0  0  0  0  0  0  0  0  0  0  0  0
  -21.0538   23.5949  -21.1318 O   0  0  0  0  0  0  0  0  0  0  0  0
  -27.5479   35.0665  -10.6651 C   0  0  0  0  0  0  0  0  0  0  0  0
  -26.3527   28.9626  -15.5930 C   0  0  0  0  0  0  0  0  0  0  0  0
  -14.3856   27.7312  -20.7167 C   0  0  0  0  0  0  0  0  0  0  0  0
  -21.5199   26.0099  -20.4228 O   0  0  0  0  0  0  0  0  0  0  0  0
  -26.3318   28.8901  -17.0526 N   0  0  0  0  0  0  0  0  0  0  0  0
  -15.2478   26.9118  -20.0352 N   0  0  0  0  0  0  0  0  0  0  0  0
  -20.9100   25.4676  -22.7899 O   0  0  0  0  0  0  0  0  0  0  0  0
  -25.2624   28.5892  -17.7704 C   0  0  0  0  0  0  0  0  0  0  0  0
  -24.1677   28.3395  -17.2594 O   0  0  0  0  0  0  0  0  0  0  0  0
  -25.4618   28.4765  -19.2741 C   0  0  2  0  0  0  0  0  0  0  0  0
  -24.6669   27.4097  -19.7569 O   0  0  0  0  0  0  0  0  0  0  0  0
  -25.1563   29.7589  -20.0713 C   0  0  1  0  0  0  0  0  0  0  0  0
  -23.6727   30.0926  -20.1421 C   0  0  0  0  0  0  0  0  0  0  0  0
  -25.6860   29.5954  -21.5110 C   0  0  0  0  0  0  0  0  0  0  0  0
  -25.8558   30.9508  -19.4048 C   0  0  0  0  0  0  0  0  0  0  0  0
  -16.4279   25.2738  -20.4240 H   0  0  0  0  0  0  0  0  0  0  0  0
  -14.5133   25.1777  -15.9938 H   0  0  0  0  0  0  0  0  0  0  0  0
  -17.6724   27.8354  -19.3462 H   0  0  0  0  0  0  0  0  0  0  0  0
  -17.8241   26.5271  -17.8338 H   0  0  0  0  0  0  0  0  0  0  0  0
  -30.5375   31.5590  -12.9584 H   0  0  0  0  0  0  0  0  0  0  0  0
  -31.1662   32.6575  -14.2201 H   0  0  0  0  0  0  0  0  0  0  0  0
  -26.7019   34.1774  -13.8253 H   0  0  0  0  0  0  0  0  0  0  0  0
  -19.6840   27.3149  -20.7059 H   0  0  0  0  0  0  0  0  0  0  0  0
  -31.0782   30.2008  -14.8322 H   0  0  0  0  0  0  0  0  0  0  0  0
  -30.2156   31.3481  -15.9568 H   0  0  0  0  0  0  0  0  0  0  0  0
  -24.5923   35.2802  -13.1354 H   0  0  0  0  0  0  0  0  0  0  0  0
  -18.4708   26.6242  -23.0077 H   0  0  0  0  0  0  0  0  0  0  0  0
  -28.1809   30.6051  -14.4452 H   0  0  0  0  0  0  0  0  0  0  0  0
  -24.3566   36.2107  -10.8352 H   0  0  0  0  0  0  0  0  0  0  0  0
  -17.8186   29.2433  -21.6846 H   0  0  0  0  0  0  0  0  0  0  0  0
  -17.4290   28.8348  -23.3740 H   0  0  0  0  0  0  0  0  0  0  0  0
  -11.0752   28.4198  -18.4042 H   0  0  0  0  0  0  0  0  0  0  0  0
  -10.8022   27.6160  -16.8351 H   0  0  0  0  0  0  0  0  0  0  0  0
  -26.2818   36.1399   -9.2926 H   0  0  0  0  0  0  0  0  0  0  0  0
  -27.3214   28.1108  -13.8713 H   0  0  0  0  0  0  0  0  0  0  0  0
  -27.5338   27.1915  -15.4337 H   0  0  0  0  0  0  0  0  0  0  0  0
  -28.3872   35.0199   -9.9555 H   0  0  0  0  0  0  0  0  0  0  0  0
  -26.4444   30.0186  -15.2991 H   0  0  0  0  0  0  0  0  0  0  0  0
  -25.4177   28.5068  -15.2352 H   0  0  0  0  0  0  0  0  0  0  0  0
  -14.5869   28.1021  -21.7325 H   0  0  0  0  0  0  0  0  0  0  0  0
  -27.2086   29.0865  -17.5560 H   0  0  0  0  0  0  0  0  0  0  0  0
  -26.5349   28.2926  -19.4307 H   0  0  0  0  0  0  0  0  0  0  0  0
  -24.2914   26.9056  -18.9920 H   0  0  0  0  0  0  0  0  0  0  0  0
  -23.1188   29.4989  -19.4000 H   0  0  0  0  0  0  0  0  0  0  0  0
  -23.5056   31.1580  -19.9252 H   0  0  0  0  0  0  0  0  0  0  0  0
  -26.7367   29.2712  -21.4805 H   0  0  0  0  0  0  0  0  0  0  0  0
  -25.6143   30.5575  -22.0395 H   0  0  0  0  0  0  0  0  0  0  0  0
  -25.0846   28.8411  -22.0395 H   0  0  0  0  0  0  0  0  0  0  0  0
  -25.7949   30.8472  -18.3114 H   0  0  0  0  0  0  0  0  0  0  0  0
  -25.3623   31.8845  -19.7126 H   0  0  0  0  0  0  0  0  0  0  0  0
  -26.9115   30.9754  -19.7126 H   0  0  0  0  0  0  0  0  0  0  0  0
  1  7  2  0
  1 35  1  0
  2  3  2  0
  3  8  1  6
  3 15  1  0
  3 31  1  0
  4  6  1  0
  4 10  1  0
  4 27  2  0
  5 11  1  0
  5 25  1  0
  5 47  1  0
  6 13  1  0
  7 14  1  0
  9 15  1  0
  9 22  1  1
  9 28  2  0
  9 37  1  0
 10 16  2  0
 10 42  1  0
 11 12  1  0
 11 17  1  0
 13 20  1  0
 14 21  2  0
 16 23  1  0
 17 18  1  0
 17 24  1  0
 18 19  1  0
 19 41  1  6
 19 45  2  0
 19 48  1  0
 20 26  1  0
 21 32  1  0
 21 47  1  0
 23 29  2  0
 24 25  1  0
 24 30  1  0
 26 33  1  0
 29 38  1  0
 30 31  1  0
 32 35  2  0
 32 40  1  0
 33 34  2  0
 33 39  1  0
 35 36  1  0
 37 54  1  0
 38 42  2  0
 39 43  1  0
 40 44  2  0
 43 46  1  0
 44 47  1  0
 46 49  1  0
 49 50  2  0
 49 51  1  0
 51 52  1  0
 51 53  1  0
 53 54  1  6
 53 55  1  0
 53 56  1  0
  5 57  1  6
  7 58  1  0
 11 59  1  1
 12 60  1  0
 13 61  1  0
 13 62  1  0
 16 63  1  0
 17 64  1  1
 20 65  1  0
 20 66  1  0
 23 67  1  0
 24 68  1  6
 26 69  1  0
 29 70  1  0
 30 71  1  0
 30 72  1  0
 36 73  1  0
 36 74  1  0
 38 75  1  0
 39 76  1  0
 39 77  1  0
 42 78  1  0
 43 79  1  0
 43 80  1  0
 44 81  1  0
 46 82  1  0
 51 83  1  1
 52 84  1  0
 54 85  1  0
 54 86  1  0
 55 87  1  0
 55 88  1  0
 55 89  1  0
 56 90  1  0
 56 91  1  0
 56 92  1  0
M  CHG  4   8  -1  22  -1  41  -1  48  -1
M  END
>  <filename_input>  (21) 
7PK0_BYC_docked.sdf

>  <pdb_id>  (21) 
7PK0_BYC

>  <pose_rank>  (21) 
20

>  <num_atoms_heavy>  (21) 
56

>  <num_torsions>  (21) 
21

>  <pose>  (21) 
[-22.59978009119034, 30.91417651833403, -22.419628594426726, -0.8760621366518943, 0.7490536855631593, -2.4409791368208182, 2.6258143471608624, -1.4830550136127818, 0.6906752207967618, -2.099371441270856, 3.163653213197284, -1.1492536376665008, -0.35171843165526945, -3.268304658094152, -2.2660370001378056, -2.435158612531072, 2.011744491960571, -0.49590355704898303, -2.8015621427385287, -1.4432992172219394, 0.457950893885549, -0.5980836283252517, -0.09387798488227508, -2.039436105645699, -0.8950896434027942, -0.010986319540424198, 2.3407844327034413]

>  <energy>  (21) 
-672.3744473920307

>  <inter_energy>  (21) 
-726.5854556937245

>  <intra_energy>  (21) 
57.742581010139915

>  <rmsd>  (21) 
11.8242

>  <sdf_rank>  (21) 
0

$$$$

     RDKit          3D

 92 95  0  0  0  0  0  0  0  0999 V2000
  -20.4726   21.0446  -10.4616 N   0  0  0  0  0  0  0  0  0  0  0  0
  -13.9901   28.2011  -14.8729 O   0  0  0  0  0  0  0  0  0  0  0  0
  -14.1480   26.7230  -15.0630 P   0  0  2  0  0  0  0  0  0  0  0  0
  -23.8882   27.0078  -17.7962 C   0  0  0  0  0  0  0  0  0  0  0  0
  -16.4256   24.1972  -10.7454 C   0  0  1  0  0  0  0  0  0  0  0  0
  -23.8183   26.6649  -19.5450 S   0  0  0  0  0  0  0  0  0  0  0  0
  -19.1559   20.7982  -10.5381 C   0  0  0  0  0  0  0  0  0  0  0  0
  -12.9280   25.8505  -15.0136 O   0  0  0  0  0  0  0  0  0  0  0  0
  -14.4118   26.1031  -17.8666 P   0  0  1  0  0  0  0  0  0  0  0  0
  -25.1782   27.4841  -17.2492 C   0  0  0  0  0  0  0  0  0  0  0  0
  -15.7487   23.6095  -11.9758 C   0  0  2  0  0  0  0  0  0  0  0  0
  -15.4894   22.2297  -11.8091 O   0  0  0  0  0  0  0  0  0  0  0  0
  -22.0889   27.0240  -19.9244 C   0  0  0  0  0  0  0  0  0  0  0  0
  -18.1401   21.6582  -10.6435 N   0  0  0  0  0  0  0  0  0  0  0  0
  -14.9665   26.3344  -16.3770 O   0  0  0  0  0  0  0  0  0  0  0  0
  -26.2983   27.4120  -18.0690 C   0  0  0  0  0  0  0  0  0  0  0  0
  -14.4955   24.4682  -12.0436 C   0  0  2  0  0  0  0  0  0  0  0  0
  -13.5651   23.9615  -11.0810 O   0  0  0  0  0  0  0  0  0  0  0  0
  -12.0142   24.2739  -11.4555 P   0  0  1  0  0  0  0  0  0  0  0  0
  -21.3441   25.7276  -19.9841 C   0  0  0  0  0  0  0  0  0  0  0  0
  -18.6061   22.9203  -10.6561 C   0  0  0  0  0  0  0  0  0  0  0  0
  -13.3790   25.0171  -17.8565 O   0  0  0  0  0  0  0  0  0  0  0  0
  -27.5196   27.9098  -17.6415 C   0  0  0  0  0  0  0  0  0  0  0  0
  -14.9887   25.8579  -11.5991 C   0  0  2  0  0  0  0  0  0  0  0  0
  -16.1308   25.5832  -10.7422 O   0  0  0  0  0  0  0  0  0  0  0  0
  -19.9171   25.9010  -20.1139 N   0  0  0  0  0  0  0  0  0  0  0  0
  -22.9242   26.7292  -17.1073 O   0  0  0  0  0  0  0  0  0  0  0  0
  -15.5965   25.9936  -18.7559 O   0  0  0  0  0  0  0  0  0  0  0  0
  -27.6401   28.4881  -16.3847 C   0  0  0  0  0  0  0  0  0  0  0  0
  -15.4214   26.8124  -12.6993 C   0  0  0  0  0  0  0  0  0  0  0  0
  -15.1645   26.1623  -13.9594 O   0  0  0  0  0  0  0  0  0  0  0  0
  -19.9227   23.3231  -10.6030 C   0  0  0  0  0  0  0  0  0  0  0  0
  -19.2298   25.8027  -21.2676 C   0  0  0  0  0  0  0  0  0  0  0  0
  -19.7761   25.4332  -22.2964 O   0  0  0  0  0  0  0  0  0  0  0  0
  -20.9102   22.3266  -10.5191 C   0  0  0  0  0  0  0  0  0  0  0  0
  -22.2138   22.5833  -10.3907 N   0  0  0  0  0  0  0  0  0  0  0  0
  -13.6275   27.4663  -18.1694 O   0  0  0  0  0  0  0  0  0  0  0  0
  -26.5490   28.5282  -15.5599 C   0  0  0  0  0  0  0  0  0  0  0  0
  -17.7246   26.0051  -21.2152 C   0  0  0  0  0  0  0  0  0  0  0  0
  -20.0118   24.7106  -10.6345 N   0  0  0  0  0  0  0  0  0  0  0  0
  -11.1093   23.4663  -10.4447 O   0  0  0  0  0  0  0  0  0  0  0  0
  -25.3213   28.0397  -15.9810 C   0  0  0  0  0  0  0  0  0  0  0  0
  -17.1877   26.8585  -22.3692 C   0  0  0  0  0  0  0  0  0  0  0  0
  -18.7701   25.1020  -10.6942 C   0  0  0  0  0  0  0  0  0  0  0  0
  -11.8027   23.8042  -12.8854 O   0  0  0  0  0  0  0  0  0  0  0  0
  -16.1424   27.7982  -21.9685 N   0  0  0  0  0  0  0  0  0  0  0  0
  -17.8653   24.0730  -10.7370 N   0  0  0  0  0  0  0  0  0  0  0  0
  -11.7815   25.7291  -11.2843 O   0  0  0  0  0  0  0  0  0  0  0  0
  -14.8459   27.5447  -22.0311 C   0  0  0  0  0  0  0  0  0  0  0  0
  -14.3977   26.4708  -22.4406 O   0  0  0  0  0  0  0  0  0  0  0  0
  -13.9108   28.6831  -21.6526 C   0  0  2  0  0  0  0  0  0  0  0  0
  -12.9418   28.8307  -22.6734 O   0  0  0  0  0  0  0  0  0  0  0  0
  -13.2135   28.5290  -20.2876 C   0  0  1  0  0  0  0  0  0  0  0  0
  -14.1819   28.4259  -19.1175 C   0  0  0  0  0  0  0  0  0  0  0  0
  -12.3408   27.2569  -20.3084 C   0  0  0  0  0  0  0  0  0  0  0  0
  -12.3231   29.7518  -20.0303 C   0  0  0  0  0  0  0  0  0  0  0  0
  -16.0504   23.6446   -9.8715 H   0  0  0  0  0  0  0  0  0  0  0  0
  -18.8728   19.7356  -10.5100 H   0  0  0  0  0  0  0  0  0  0  0  0
  -16.3405   23.6359  -12.9027 H   0  0  0  0  0  0  0  0  0  0  0  0
  -15.4492   22.0158  -10.8434 H   0  0  0  0  0  0  0  0  0  0  0  0
  -22.0196   27.5382  -20.8943 H   0  0  0  0  0  0  0  0  0  0  0  0
  -21.6573   27.6746  -19.1496 H   0  0  0  0  0  0  0  0  0  0  0  0
  -26.2149   26.9556  -19.0664 H   0  0  0  0  0  0  0  0  0  0  0  0
  -14.0102   24.4843  -13.0306 H   0  0  0  0  0  0  0  0  0  0  0  0
  -21.5460   25.1647  -19.0609 H   0  0  0  0  0  0  0  0  0  0  0  0
  -21.6922   25.1897  -20.8783 H   0  0  0  0  0  0  0  0  0  0  0  0
  -28.3975   27.8465  -18.3012 H   0  0  0  0  0  0  0  0  0  0  0  0
  -14.1451   26.3788  -11.1229 H   0  0  0  0  0  0  0  0  0  0  0  0
  -19.3842   26.1163  -19.2592 H   0  0  0  0  0  0  0  0  0  0  0  0
  -28.6017   28.9092  -16.0559 H   0  0  0  0  0  0  0  0  0  0  0  0
  -16.4942   27.0354  -12.6032 H   0  0  0  0  0  0  0  0  0  0  0  0
  -14.8674   27.7602  -12.6313 H   0  0  0  0  0  0  0  0  0  0  0  0
  -22.5540   23.5546  -10.4332 H   0  0  0  0  0  0  0  0  0  0  0  0
  -22.8794   21.8102  -10.2491 H   0  0  0  0  0  0  0  0  0  0  0  0
  -26.6469   28.9533  -14.5501 H   0  0  0  0  0  0  0  0  0  0  0  0
  -17.4717   26.5016  -20.2668 H   0  0  0  0  0  0  0  0  0  0  0  0
  -17.2589   25.0121  -21.3001 H   0  0  0  0  0  0  0  0  0  0  0  0
  -24.4534   28.0916  -15.3071 H   0  0  0  0  0  0  0  0  0  0  0  0
  -16.7748   26.1860  -23.1355 H   0  0  0  0  0  0  0  0  0  0  0  0
  -18.0305   27.4567  -22.7456 H   0  0  0  0  0  0  0  0  0  0  0  0
  -18.4750   26.1616  -10.7088 H   0  0  0  0  0  0  0  0  0  0  0  0
  -16.4352   28.7198  -21.6136 H   0  0  0  0  0  0  0  0  0  0  0  0
  -14.5403   29.5795  -21.5512 H   0  0  0  0  0  0  0  0  0  0  0  0
  -12.0503   28.9665  -22.2650 H   0  0  0  0  0  0  0  0  0  0  0  0
  -15.1633   28.0783  -19.4724 H   0  0  0  0  0  0  0  0  0  0  0  0
  -14.3162   29.4076  -18.6397 H   0  0  0  0  0  0  0  0  0  0  0  0
  -12.1255   26.9430  -19.2764 H   0  0  0  0  0  0  0  0  0  0  0  0
  -12.8780   26.4523  -20.8319 H   0  0  0  0  0  0  0  0  0  0  0  0
  -11.3968   27.4684  -20.8319 H   0  0  0  0  0  0  0  0  0  0  0  0
  -12.2127   29.9034  -18.9464 H   0  0  0  0  0  0  0  0  0  0  0  0
  -11.3331   29.5856  -20.4800 H   0  0  0  0  0  0  0  0  0  0  0  0
  -12.7852   30.6429  -20.4800 H   0  0  0  0  0  0  0  0  0  0  0  0
  1  7  2  0
  1 35  1  0
  2  3  2  0
  3  8  1  6
  3 15  1  0
  3 31  1  0
  4  6  1  0
  4 10  1  0
  4 27  2  0
  5 11  1  0
  5 25  1  0
  5 47  1  0
  6 13  1  0
  7 14  1  0
  9 15  1  0
  9 22  1  1
  9 28  2  0
  9 37  1  0
 10 16  2  0
 10 42  1  0
 11 12  1  0
 11 17  1  0
 13 20  1  0
 14 21  2  0
 16 23  1  0
 17 18  1  0
 17 24  1  0
 18 19  1  0
 19 41  1  1
 19 45  2  0
 19 48  1  0
 20 26  1  0
 21 32  1  0
 21 47  1  0
 23 29  2  0
 24 25  1  0
 24 30  1  0
 26 33  1  0
 29 38  1  0
 30 31  1  0
 32 35  2  0
 32 40  1  0
 33 34  2  0
 33 39  1  0
 35 36  1  0
 37 54  1  0
 38 42  2  0
 39 43  1  0
 40 44  2  0
 43 46  1  0
 44 47  1  0
 46 49  1  0
 49 50  2  0
 49 51  1  0
 51 52  1  0
 51 53  1  0
 53 54  1  1
 53 55  1  0
 53 56  1  0
  5 57  1  1
  7 58  1  0
 11 59  1  6
 12 60  1  0
 13 61  1  0
 13 62  1  0
 16 63  1  0
 17 64  1  6
 20 65  1  0
 20 66  1  0
 23 67  1  0
 24 68  1  1
 26 69  1  0
 29 70  1  0
 30 71  1  0
 30 72  1  0
 36 73  1  0
 36 74  1  0
 38 75  1  0
 39 76  1  0
 39 77  1  0
 42 78  1  0
 43 79  1  0
 43 80  1  0
 44 81  1  0
 46 82  1  0
 51 83  1  1
 52 84  1  0
 54 85  1  0
 54 86  1  0
 55 87  1  0
 55 88  1  0
 55 89  1  0
 56 90  1  0
 56 91  1  0
 56 92  1  0
M  CHG  4   8  -1  22  -1  41  -1  48  -1
M  END
>  <filename_input>  (22) 
7PK0_BYC_docked.sdf

>  <pdb_id>  (22) 
7PK0_BYC

>  <pose_rank>  (22) 
21

>  <num_atoms_heavy>  (22) 
56

>  <num_torsions>  (22) 
21

>  <pose>  (22) 
[-14.41178317830304, 26.103144703889424, -17.866567336097738, 1.6296660696024061, -2.2892386488413345, -4.37551483987764, 5.239449095979255, 13.256139960345813, 1.338244117128378, -4.382650334827844, -2.906613452140264, 2.7600446459339754, 3.338037287617804, 1.5392396642302786, -0.36564356505925905, 0.0034563885156401503, 0.30357994214272527, -0.892743502686339, 3.5505720744775275, 8.100464482613356, 6.096082734673123, 5.2500535912998965, -11.648640135962944, 5.3381334810159204, -0.9451682881684756, 0.13878564256188552, 2.2809256637777064]

>  <energy>  (22) 
-699.7193371171683

>  <inter_energy>  (22) 
-741.973343476168

>  <intra_energy>  (22) 
54.12730479414365

>  <rmsd>  (22) 
11.5227

>  <sdf_rank>  (22) 
0

$$$$

     RDKit          3D

 92 95  0  0  0  0  0  0  0  0999 V2000
  -13.1665   26.1587  -16.9054 N   0  0  0  0  0  0  0  0  0  0  0  0
  -19.0440   31.3110  -23.4216 O   0  0  0  0  0  0  0  0  0  0  0  0
  -20.1861   30.3466  -23.5285 P   0  0  2  0  0  0  0  0  0  0  0  0
  -29.9548   30.9066  -12.8828 C   0  0  0  0  0  0  0  0  0  0  0  0
  -16.8050   26.3601  -20.5274 C   0  0  1  0  0  0  0  0  0  0  0  0
  -29.4339   30.0770  -14.3732 S   0  0  0  0  0  0  0  0  0  0  0  0
  -14.3669   25.5661  -16.9952 C   0  0  0  0  0  0  0  0  0  0  0  0
  -20.8445   30.1463  -24.8621 O   0  0  0  0  0  0  0  0  0  0  0  0
  -22.9245   30.6947  -22.6952 P   0  0  1  0  0  0  0  0  0  0  0  0
  -29.2493   32.1558  -12.5195 C   0  0  0  0  0  0  0  0  0  0  0  0
  -18.0143   26.8844  -19.7656 C   0  0  2  0  0  0  0  0  0  0  0  0
  -18.2820   26.0967  -18.6226 O   0  0  0  0  0  0  0  0  0  0  0  0
  -30.5427   28.6514  -14.4109 C   0  0  0  0  0  0  0  0  0  0  0  0
  -15.2950   25.6776  -17.9485 N   0  0  0  0  0  0  0  0  0  0  0  0
  -21.3388   30.6043  -22.4549 O   0  0  0  0  0  0  0  0  0  0  0  0
  -28.2989   32.6472  -13.4067 C   0  0  0  0  0  0  0  0  0  0  0  0
  -19.0849   26.7928  -20.8417 C   0  0  2  0  0  0  0  0  0  0  0  0
  -19.5124   25.4290  -20.9188 O   0  0  0  0  0  0  0  0  0  0  0  0
  -21.0595   25.2629  -21.3902 P   0  0  1  0  0  0  0  0  0  0  0  0
  -30.0417   27.6963  -15.4481 C   0  0  0  0  0  0  0  0  0  0  0  0
  -14.8668   26.5143  -18.9111 C   0  0  0  0  0  0  0  0  0  0  0  0
  -23.4712   31.9044  -21.9996 O   0  0  0  0  0  0  0  0  0  0  0  0
  -27.5520   33.7715  -13.0903 C   0  0  0  0  0  0  0  0  0  0  0  0
  -18.3304   27.1682  -22.1309 C   0  0  2  0  0  0  0  0  0  0  0  0
  -16.9504   26.7930  -21.8688 O   0  0  0  0  0  0  0  0  0  0  0  0
  -28.6400   27.3856  -15.3005 N   0  0  0  0  0  0  0  0  0  0  0  0
  -30.9334   30.4876  -12.2926 O   0  0  0  0  0  0  0  0  0  0  0  0
  -23.1514   30.5090  -24.1515 O   0  0  0  0  0  0  0  0  0  0  0  0
  -27.7448   34.4237  -11.8794 C   0  0  0  0  0  0  0  0  0  0  0  0
  -18.3698   28.6301  -22.5433 C   0  0  0  0  0  0  0  0  0  0  0  0
  -19.6977   28.9047  -23.0307 O   0  0  0  0  0  0  0  0  0  0  0  0
  -13.6745   27.2042  -18.9457 C   0  0  0  0  0  0  0  0  0  0  0  0
  -28.0721   26.2090  -15.6263 C   0  0  0  0  0  0  0  0  0  0  0  0
  -28.7534   25.2556  -15.9729 O   0  0  0  0  0  0  0  0  0  0  0  0
  -12.7840   27.0284  -17.8727 C   0  0  0  0  0  0  0  0  0  0  0  0
  -11.5704   27.5815  -17.8180 N   0  0  0  0  0  0  0  0  0  0  0  0
  -23.4787   29.4252  -21.8913 O   0  0  0  0  0  0  0  0  0  0  0  0
  -28.7049   33.9652  -11.0188 C   0  0  0  0  0  0  0  0  0  0  0  0
  -26.5786   26.0539  -15.3917 C   0  0  0  0  0  0  0  0  0  0  0  0
  -13.5846   27.9684  -20.1042 N   0  0  0  0  0  0  0  0  0  0  0  0
  -21.4928   23.7760  -21.0835 O   0  0  0  0  0  0  0  0  0  0  0  0
  -29.4520   32.8372  -11.3228 C   0  0  0  0  0  0  0  0  0  0  0  0
  -25.7539   27.2200  -15.9469 C   0  0  0  0  0  0  0  0  0  0  0  0
  -14.6989   27.7169  -20.7315 C   0  0  0  0  0  0  0  0  0  0  0  0
  -21.8763   26.2562  -20.5802 O   0  0  0  0  0  0  0  0  0  0  0  0
  -25.9440   27.4454  -17.3784 N   0  0  0  0  0  0  0  0  0  0  0  0
  -15.5355   26.8656  -20.0571 N   0  0  0  0  0  0  0  0  0  0  0  0
  -21.1269   25.5136  -22.8509 O   0  0  0  0  0  0  0  0  0  0  0  0
  -24.9612   27.5146  -18.2608 C   0  0  0  0  0  0  0  0  0  0  0  0
  -23.7749   27.3932  -17.9450 O   0  0  0  0  0  0  0  0  0  0  0  0
  -25.3656   27.6659  -19.7193 C   0  0  2  0  0  0  0  0  0  0  0  0
  -24.5949   26.7696  -20.4974 O   0  0  0  0  0  0  0  0  0  0  0  0
  -25.2402   29.0926  -20.2870 C   0  0  1  0  0  0  0  0  0  0  0  0
  -23.8000   29.5489  -20.4740 C   0  0  0  0  0  0  0  0  0  0  0  0
  -25.9503   29.1546  -21.6552 C   0  0  0  0  0  0  0  0  0  0  0  0
  -25.9063   30.0837  -19.3235 C   0  0  0  0  0  0  0  0  0  0  0  0
  -16.7848   25.2682  -20.3955 H   0  0  0  0  0  0  0  0  0  0  0  0
  -14.6231   24.8920  -16.1646 H   0  0  0  0  0  0  0  0  0  0  0  0
  -17.9101   27.8957  -19.3456 H   0  0  0  0  0  0  0  0  0  0  0  0
  -18.1017   26.6273  -17.8065 H   0  0  0  0  0  0  0  0  0  0  0  0
  -30.5520   28.1607  -13.4265 H   0  0  0  0  0  0  0  0  0  0  0  0
  -31.5664   28.9728  -14.6534 H   0  0  0  0  0  0  0  0  0  0  0  0
  -28.1378   32.1392  -14.3690 H   0  0  0  0  0  0  0  0  0  0  0  0
  -19.9636   27.4297  -20.6619 H   0  0  0  0  0  0  0  0  0  0  0  0
  -30.6175   26.7621  -15.3713 H   0  0  0  0  0  0  0  0  0  0  0  0
  -30.1697   28.1789  -16.4282 H   0  0  0  0  0  0  0  0  0  0  0  0
  -26.8029   34.1490  -13.8019 H   0  0  0  0  0  0  0  0  0  0  0  0
  -18.8180   26.6504  -22.9700 H   0  0  0  0  0  0  0  0  0  0  0  0
  -28.0277   28.1197  -14.9168 H   0  0  0  0  0  0  0  0  0  0  0  0
  -27.1329   35.2987  -11.6151 H   0  0  0  0  0  0  0  0  0  0  0  0
  -18.1470   29.2711  -21.6776 H   0  0  0  0  0  0  0  0  0  0  0  0
  -17.6202   28.8342  -23.3221 H   0  0  0  0  0  0  0  0  0  0  0  0
  -11.2725   28.2431  -18.5490 H   0  0  0  0  0  0  0  0  0  0  0  0
  -10.9318   27.3466  -17.0447 H   0  0  0  0  0  0  0  0  0  0  0  0
  -28.8863   34.4983  -10.0738 H   0  0  0  0  0  0  0  0  0  0  0  0
  -26.4005   25.9848  -14.3085 H   0  0  0  0  0  0  0  0  0  0  0  0
  -26.2578   25.1457  -15.9231 H   0  0  0  0  0  0  0  0  0  0  0  0
  -30.2110   32.4779  -10.6123 H   0  0  0  0  0  0  0  0  0  0  0  0
  -26.0422   28.1357  -15.4099 H   0  0  0  0  0  0  0  0  0  0  0  0
  -24.6945   26.9630  -15.8000 H   0  0  0  0  0  0  0  0  0  0  0  0
  -14.9456   28.1483  -21.7129 H   0  0  0  0  0  0  0  0  0  0  0  0
  -26.9081   27.5580  -17.7232 H   0  0  0  0  0  0  0  0  0  0  0  0
  -26.4396   27.4332  -19.7681 H   0  0  0  0  0  0  0  0  0  0  0  0
  -24.0805   26.1714  -19.8992 H   0  0  0  0  0  0  0  0  0  0  0  0
  -23.1255   28.9149  -19.8798 H   0  0  0  0  0  0  0  0  0  0  0  0
  -23.6780   30.5897  -20.1397 H   0  0  0  0  0  0  0  0  0  0  0  0
  -27.0353   29.2493  -21.5012 H   0  0  0  0  0  0  0  0  0  0  0  0
  -25.5828   30.0241  -22.2199 H   0  0  0  0  0  0  0  0  0  0  0  0
  -25.7390   28.2346  -22.2199 H   0  0  0  0  0  0  0  0  0  0  0  0
  -25.7022   29.7801  -18.2862 H   0  0  0  0  0  0  0  0  0  0  0  0
  -25.5016   31.0918  -19.4969 H   0  0  0  0  0  0  0  0  0  0  0  0
  -26.9925   30.0899  -19.4969 H   0  0  0  0  0  0  0  0  0  0  0  0
  1  7  2  0
  1 35  1  0
  2  3  2  0
  3  8  1  6
  3 15  1  0
  3 31  1  0
  4  6  1  0
  4 10  1  0
  4 27  2  0
  5 11  1  0
  5 25  1  0
  5 47  1  0
  6 13  1  0
  7 14  1  0
  9 15  1  0
  9 22  1  1
  9 28  2  0
  9 37  1  0
 10 16  2  0
 10 42  1  0
 11 12  1  0
 11 17  1  0
 13 20  1  0
 14 21  2  0
 16 23  1  0
 17 18  1  0
 17 24  1  0
 18 19  1  0
 19 41  1  6
 19 45  2  0
 19 48  1  0
 20 26  1  0
 21 32  1  0
 21 47  1  0
 23 29  2  0
 24 25  1  0
 24 30  1  0
 26 33  1  0
 29 38  1  0
 30 31  1  0
 32 35  2  0
 32 40  1  0
 33 34  2  0
 33 39  1  0
 35 36  1  0
 37 54  1  0
 38 42  2  0
 39 43  1  0
 40 44  2  0
 43 46  1  0
 44 47  1  0
 46 49  1  0
 49 50  2  0
 49 51  1  0
 51 52  1  0
 51 53  1  0
 53 54  1  6
 53 55  1  0
 53 56  1  0
  5 57  1  6
  7 58  1  0
 11 59  1  1
 12 60  1  0
 13 61  1  0
 13 62  1  0
 16 63  1  0
 17 64  1  1
 20 65  1  0
 20 66  1  0
 23 67  1  0
 24 68  1  6
 26 69  1  0
 29 70  1  0
 30 71  1  0
 30 72  1  0
 36 73  1  0
 36 74  1  0
 38 75  1  0
 39 76  1  0
 39 77  1  0
 42 78  1  0
 43 79  1  0
 43 80  1  0
 44 81  1  0
 46 82  1  0
 51 83  1  1
 52 84  1  0
 54 85  1  0
 54 86  1  0
 55 87  1  0
 55 88  1  0
 55 89  1  0
 56 90  1  0
 56 91  1  0
 56 92  1  0
M  CHG  4   8  -1  22  -1  41  -1  48  -1
M  END
>  <filename_input>  (23) 
7PK0_BYC_docked.sdf

>  <pdb_id>  (23) 
7PK0_BYC

>  <pose_rank>  (23) 
22

>  <num_atoms_heavy>  (23) 
56

>  <num_torsions>  (23) 
21

>  <pose>  (23) 
[-22.9244730243787, 30.69467158186839, -22.695229291642228, -0.7588967324274519, 0.7227879326897408, -2.329148998043644, 2.378962162577536, -1.3821681622488953, 0.6256517937358724, -2.1068356318413604, 3.292094377738008, -1.0863816787203209, -0.1068134442389492, -3.196738848361415, -2.318527049682861, -2.3781175999488506, 1.9073373206773794, -0.3689050819997797, -2.8461163223702504, -1.5043974339682646, 0.5767238297950197, -0.5996250908185734, -0.1989694915375178, -2.145206772104557, -0.8064991084713773, 0.08105767184935277, 2.368726164985367]

>  <energy>  (23) 
-749.1339324480201

>  <inter_energy>  (23) 
-813.5597432428306

>  <intra_energy>  (23) 
64.88554645415135

>  <rmsd>  (23) 
11.6089

>  <sdf_rank>  (23) 
0

$$$$

     RDKit          3D

 92 95  0  0  0  0  0  0  0  0999 V2000
  -28.9083   32.0318  -25.4362 N   0  0  0  0  0  0  0  0  0  0  0  0
  -23.5570   27.3519  -18.1029 O   0  0  0  0  0  0  0  0  0  0  0  0
  -24.3660   26.6778  -19.1693 P   0  0  2  0  0  0  0  0  0  0  0  0
  -14.9477   34.2974  -20.2501 C   0  0  0  0  0  0  0  0  0  0  0  0
  -28.2726   30.0700  -20.7304 C   0  0  1  0  0  0  0  0  0  0  0  0
  -15.3278   33.6626  -18.6273 S   0  0  0  0  0  0  0  0  0  0  0  0
  -28.6600   32.6162  -24.2542 C   0  0  0  0  0  0  0  0  0  0  0  0
  -25.1655   25.4591  -18.8122 O   0  0  0  0  0  0  0  0  0  0  0  0
  -22.4576   25.1601  -20.7083 P   0  0  1  0  0  0  0  0  0  0  0  0
  -15.9383   34.0554  -21.3227 C   0  0  0  0  0  0  0  0  0  0  0  0
  -28.3460   28.8461  -19.8280 C   0  0  2  0  0  0  0  0  0  0  0  0
  -29.6547   28.6540  -19.3290 O   0  0  0  0  0  0  0  0  0  0  0  0
  -15.4590   31.8890  -18.9443 C   0  0  0  0  0  0  0  0  0  0  0  0
  -28.5350   32.0606  -23.0467 N   0  0  0  0  0  0  0  0  0  0  0  0
  -23.5275   26.3370  -20.4840 O   0  0  0  0  0  0  0  0  0  0  0  0
  -17.2273   34.5414  -21.1387 C   0  0  0  0  0  0  0  0  0  0  0  0
  -27.3290   29.2223  -18.7618 C   0  0  2  0  0  0  0  0  0  0  0  0
  -27.9598   30.1360  -17.8584 O   0  0  0  0  0  0  0  0  0  0  0  0
  -27.8062   29.7096  -16.2970 P   0  0  1  0  0  0  0  0  0  0  0  0
  -14.1392   31.4068  -19.4588 C   0  0  0  0  0  0  0  0  0  0  0  0
  -28.6855   30.7267  -23.1369 C   0  0  0  0  0  0  0  0  0  0  0  0
  -22.4485   24.2534  -19.5150 O   0  0  0  0  0  0  0  0  0  0  0  0
  -18.2192   34.2839  -22.0725 C   0  0  0  0  0  0  0  0  0  0  0  0
  -26.2334   29.9586  -19.5553 C   0  0  2  0  0  0  0  0  0  0  0  0
  -26.9264   30.5117  -20.7076 O   0  0  0  0  0  0  0  0  0  0  0  0
  -14.0622   29.9690  -19.5576 N   0  0  0  0  0  0  0  0  0  0  0  0
  -13.9612   34.9971  -20.3873 O   0  0  0  0  0  0  0  0  0  0  0  0
  -22.7065   24.6031  -22.0627 O   0  0  0  0  0  0  0  0  0  0  0  0
  -17.9366   33.5352  -23.2075 C   0  0  0  0  0  0  0  0  0  0  0  0
  -25.0646   29.1198  -20.0440 C   0  0  0  0  0  0  0  0  0  0  0  0
  -25.3908   27.7387  -19.7936 O   0  0  0  0  0  0  0  0  0  0  0  0
  -28.9598   29.9938  -24.2710 C   0  0  0  0  0  0  0  0  0  0  0  0
  -13.3296   29.2962  -20.4652 C   0  0  0  0  0  0  0  0  0  0  0  0
  -12.7528   29.8830  -21.3688 O   0  0  0  0  0  0  0  0  0  0  0  0
  -29.0960   30.6899  -25.4843 C   0  0  0  0  0  0  0  0  0  0  0  0
  -29.2911   30.0945  -26.6629 N   0  0  0  0  0  0  0  0  0  0  0  0
  -21.0599   25.9420  -20.6892 O   0  0  0  0  0  0  0  0  0  0  0  0
  -16.6602   33.0858  -23.4110 C   0  0  0  0  0  0  0  0  0  0  0  0
  -13.3768   27.7776  -20.4291 C   0  0  0  0  0  0  0  0  0  0  0  0
  -29.0403   28.6383  -23.9703 N   0  0  0  0  0  0  0  0  0  0  0  0
  -28.0592   31.0010  -15.4246 O   0  0  0  0  0  0  0  0  0  0  0  0
  -15.6629   33.3318  -22.4794 C   0  0  0  0  0  0  0  0  0  0  0  0
  -14.4946   27.2274  -19.5370 C   0  0  0  0  0  0  0  0  0  0  0  0
  -28.8069   28.5882  -22.6891 C   0  0  0  0  0  0  0  0  0  0  0  0
  -28.8551   28.6437  -16.0258 O   0  0  0  0  0  0  0  0  0  0  0  0
  -15.8140   27.2524  -20.1651 N   0  0  0  0  0  0  0  0  0  0  0  0
  -28.6091   29.8161  -22.1126 N   0  0  0  0  0  0  0  0  0  0  0  0
  -26.4203   29.2246  -16.0846 O   0  0  0  0  0  0  0  0  0  0  0  0
  -16.1939   26.4406  -21.1378 C   0  0  0  0  0  0  0  0  0  0  0  0
  -15.4517   25.5752  -21.6090 O   0  0  0  0  0  0  0  0  0  0  0  0
  -17.6377   26.5620  -21.6005 C   0  0  2  0  0  0  0  0  0  0  0  0
  -17.9904   27.9324  -21.6267 O   0  0  0  0  0  0  0  0  0  0  0  0
  -18.6611   25.7744  -20.7605 C   0  0  1  0  0  0  0  0  0  0  0  0
  -19.9510   25.4638  -21.5070 C   0  0  0  0  0  0  0  0  0  0  0  0
  -18.0265   24.4412  -20.3134 C   0  0  0  0  0  0  0  0  0  0  0  0
  -19.0428   26.5960  -19.5222 C   0  0  0  0  0  0  0  0  0  0  0  0
  -29.0031   30.7994  -20.3506 H   0  0  0  0  0  0  0  0  0  0  0  0
  -28.5425   33.7095  -24.2844 H   0  0  0  0  0  0  0  0  0  0  0  0
  -28.1265   27.8835  -20.3131 H   0  0  0  0  0  0  0  0  0  0  0  0
  -29.6343   28.6570  -18.3392 H   0  0  0  0  0  0  0  0  0  0  0  0
  -15.7102   31.3618  -18.0121 H   0  0  0  0  0  0  0  0  0  0  0  0
  -16.2495   31.6927  -19.6835 H   0  0  0  0  0  0  0  0  0  0  0  0
  -17.4628   35.1361  -20.2437 H   0  0  0  0  0  0  0  0  0  0  0  0
  -26.9383   28.3694  -18.1874 H   0  0  0  0  0  0  0  0  0  0  0  0
  -13.9750   31.8359  -20.4583 H   0  0  0  0  0  0  0  0  0  0  0  0
  -13.3697   31.7285  -18.7416 H   0  0  0  0  0  0  0  0  0  0  0  0
  -19.2352   34.6745  -21.9136 H   0  0  0  0  0  0  0  0  0  0  0  0
  -25.7624   30.6894  -18.8815 H   0  0  0  0  0  0  0  0  0  0  0  0
  -14.6090   29.4155  -18.8826 H   0  0  0  0  0  0  0  0  0  0  0  0
  -18.7296   33.3061  -23.9345 H   0  0  0  0  0  0  0  0  0  0  0  0
  -24.9110   29.2804  -21.1214 H   0  0  0  0  0  0  0  0  0  0  0  0
  -24.1389   29.4013  -19.5207 H   0  0  0  0  0  0  0  0  0  0  0  0
  -29.4344   29.0755  -26.7077 H   0  0  0  0  0  0  0  0  0  0  0  0
  -29.2983   30.6541  -27.5276 H   0  0  0  0  0  0  0  0  0  0  0  0
  -16.4223   32.5222  -24.3252 H   0  0  0  0  0  0  0  0  0  0  0  0
  -13.5340   27.4087  -21.4534 H   0  0  0  0  0  0  0  0  0  0  0  0
  -12.4221   27.4318  -20.0061 H   0  0  0  0  0  0  0  0  0  0  0  0
  -14.6458   32.9519  -22.6560 H   0  0  0  0  0  0  0  0  0  0  0  0
  -14.2523   26.1858  -19.2794 H   0  0  0  0  0  0  0  0  0  0  0  0
  -14.5481   27.8774  -18.6512 H   0  0  0  0  0  0  0  0  0  0  0  0
  -28.7717   27.6463  -22.1220 H   0  0  0  0  0  0  0  0  0  0  0  0
  -16.4937   27.9489  -19.8276 H   0  0  0  0  0  0  0  0  0  0  0  0
  -17.6808   26.1078  -22.6014 H   0  0  0  0  0  0  0  0  0  0  0  0
  -18.0769   28.2686  -20.6995 H   0  0  0  0  0  0  0  0  0  0  0  0
  -20.0415   24.3788  -21.6642 H   0  0  0  0  0  0  0  0  0  0  0  0
  -19.9562   25.9560  -22.4907 H   0  0  0  0  0  0  0  0  0  0  0  0
  -18.0049   24.3958  -19.2145 H   0  0  0  0  0  0  0  0  0  0  0  0
  -18.6220   23.6026  -20.7034 H   0  0  0  0  0  0  0  0  0  0  0  0
  -17.0001   24.3747  -20.7034 H   0  0  0  0  0  0  0  0  0  0  0  0
  -18.7814   26.0333  -18.6140 H   0  0  0  0  0  0  0  0  0  0  0  0
  -18.4958   27.5503  -19.5325 H   0  0  0  0  0  0  0  0  0  0  0  0
  -20.1249   26.7935  -19.5325 H   0  0  0  0  0  0  0  0  0  0  0  0
  1  7  2  0
  1 35  1  0
  2  3  2  0
  3  8  1  1
  3 15  1  0
  3 31  1  0
  4  6  1  0
  4 10  1  0
  4 27  2  0
  5 11  1  0
  5 25  1  0
  5 47  1  0
  6 13  1  0
  7 14  1  0
  9 15  1  0
  9 22  1  1
  9 28  2  0
  9 37  1  0
 10 16  2  0
 10 42  1  0
 11 12  1  0
 11 17  1  0
 13 20  1  0
 14 21  2  0
 16 23  1  0
 17 18  1  0
 17 24  1  0
 18 19  1  0
 19 41  1  1
 19 45  2  0
 19 48  1  0
 20 26  1  0
 21 32  1  0
 21 47  1  0
 23 29  2  0
 24 25  1  0
 24 30  1  0
 26 33  1  0
 29 38  1  0
 30 31  1  0
 32 35  2  0
 32 40  1  0
 33 34  2  0
 33 39  1  0
 35 36  1  0
 37 54  1  0
 38 42  2  0
 39 43  1  0
 40 44  2  0
 43 46  1  0
 44 47  1  0
 46 49  1  0
 49 50  2  0
 49 51  1  0
 51 52  1  0
 51 53  1  0
 53 54  1  6
 53 55  1  0
 53 56  1  0
  5 57  1  1
  7 58  1  0
 11 59  1  6
 12 60  1  0
 13 61  1  0
 13 62  1  0
 16 63  1  0
 17 64  1  1
 20 65  1  0
 20 66  1  0
 23 67  1  0
 24 68  1  1
 26 69  1  0
 29 70  1  0
 30 71  1  0
 30 72  1  0
 36 73  1  0
 36 74  1  0
 38 75  1  0
 39 76  1  0
 39 77  1  0
 42 78  1  0
 43 79  1  0
 43 80  1  0
 44 81  1  0
 46 82  1  0
 51 83  1  6
 52 84  1  0
 54 85  1  0
 54 86  1  0
 55 87  1  0
 55 88  1  0
 55 89  1  0
 56 90  1  0
 56 91  1  0
 56 92  1  0
M  CHG  4   8  -1  22  -1  41  -1  48  -1
M  END
>  <filename_input>  (24) 
7PK0_BYC_docked.sdf

>  <pdb_id>  (24) 
7PK0_BYC

>  <pose_rank>  (24) 
23

>  <num_atoms_heavy>  (24) 
56

>  <num_torsions>  (24) 
21

>  <pose>  (24) 
[-22.457574956000215, 25.160074876538474, -20.70828647135179, 5.128395940117445, 0.02616115826292756, -0.7358206491873162, -1.72897036772507, 0.14895648435034273, -3.360186238542384, 0.18978132659070704, 0.051678156336781175, 2.3971987953491243, 2.2757203939844057, -2.1314424371390905, -2.3032133971805875, -0.278284228882882, -0.376366604432742, -2.459270056348843, -1.8992971168853992, 0.9288987135751684, -0.4038102921836029, 0.06188722210332494, 0.6101072460319545, -0.7293049018610634, 0.9870303212398845, -0.2922030977712073, -4.508884850731627]

>  <energy>  (24) 
-649.9481808419681

>  <inter_energy>  (24) 
-686.659193072935

>  <intra_energy>  (24) 
31.454696812726592

>  <rmsd>  (24) 
6.32615

>  <sdf_rank>  (24) 
0

$$$$

     RDKit          3D

 92 95  0  0  0  0  0  0  0  0999 V2000
  -21.6739   36.2781  -23.0957 N   0  0  0  0  0  0  0  0  0  0  0  0
  -25.6082   26.4893  -17.7579 O   0  0  0  0  0  0  0  0  0  0  0  0
  -24.7972   27.1129  -18.8531 P   0  0  2  0  0  0  0  0  0  0  0  0
  -11.0468   30.6848  -24.9617 C   0  0  0  0  0  0  0  0  0  0  0  0
  -24.6223   32.6435  -20.9758 C   0  0  1  0  0  0  0  0  0  0  0  0
  -10.6925   29.6506  -23.5525 S   0  0  0  0  0  0  0  0  0  0  0  0
  -22.6886   36.3531  -22.2211 C   0  0  0  0  0  0  0  0  0  0  0  0
  -25.2572   26.9608  -20.2735 O   0  0  0  0  0  0  0  0  0  0  0  0
  -22.2561   26.4207  -20.0269 P   0  0  1  0  0  0  0  0  0  0  0  0
  -10.7419   30.1343  -26.3012 C   0  0  0  0  0  0  0  0  0  0  0  0
  -25.6873   31.6848  -21.4898 C   0  0  2  0  0  0  0  0  0  0  0  0
  -26.7160   32.3767  -22.1693 O   0  0  0  0  0  0  0  0  0  0  0  0
  -12.3512   29.2582  -22.9541 C   0  0  0  0  0  0  0  0  0  0  0  0
  -23.4487   35.3750  -21.7230 N   0  0  0  0  0  0  0  0  0  0  0  0
  -23.2509   26.7208  -18.8019 O   0  0  0  0  0  0  0  0  0  0  0  0
  -11.8055   29.6960  -27.0813 C   0  0  0  0  0  0  0  0  0  0  0  0
  -26.1349   31.0387  -20.1879 C   0  0  2  0  0  0  0  0  0  0  0  0
  -27.0271   31.9464  -19.5330 O   0  0  0  0  0  0  0  0  0  0  0  0
  -28.1226   31.2055  -18.5874 P   0  0  1  0  0  0  0  0  0  0  0  0
  -12.5530   29.9539  -21.6448 C   0  0  0  0  0  0  0  0  0  0  0  0
  -23.0557   34.1887  -22.2213 C   0  0  0  0  0  0  0  0  0  0  0  0
  -22.3017   24.9618  -20.3670 O   0  0  0  0  0  0  0  0  0  0  0  0
  -11.5799   29.1030  -28.3140 C   0  0  0  0  0  0  0  0  0  0  0  0
  -24.8305   30.9255  -19.3769 C   0  0  2  0  0  0  0  0  0  0  0  0
  -23.9932   32.0027  -19.8796 O   0  0  0  0  0  0  0  0  0  0  0  0
  -12.8182   29.0441  -20.5562 N   0  0  0  0  0  0  0  0  0  0  0  0
  -11.6266   31.7396  -24.7810 O   0  0  0  0  0  0  0  0  0  0  0  0
  -22.5408   27.4367  -21.0725 O   0  0  0  0  0  0  0  0  0  0  0  0
  -10.2844   28.9393  -28.7869 C   0  0  0  0  0  0  0  0  0  0  0  0
  -24.0663   29.6174  -19.4929 C   0  0  0  0  0  0  0  0  0  0  0  0
  -24.6667   28.6846  -18.5733 O   0  0  0  0  0  0  0  0  0  0  0  0
  -22.0489   33.9605  -23.1340 C   0  0  0  0  0  0  0  0  0  0  0  0
  -14.0369   28.7885  -20.0439 C   0  0  0  0  0  0  0  0  0  0  0  0
  -15.0176   29.4213  -20.4062 O   0  0  0  0  0  0  0  0  0  0  0  0
  -21.3313   35.0712  -23.6097 C   0  0  0  0  0  0  0  0  0  0  0  0
  -20.2895   34.9810  -24.4394 N   0  0  0  0  0  0  0  0  0  0  0  0
  -20.8127   26.6879  -19.3863 O   0  0  0  0  0  0  0  0  0  0  0  0
   -9.2363   29.4023  -28.0389 C   0  0  0  0  0  0  0  0  0  0  0  0
  -14.1278   27.8072  -18.8870 C   0  0  0  0  0  0  0  0  0  0  0  0
  -21.9340   32.6015  -23.4065 N   0  0  0  0  0  0  0  0  0  0  0  0
  -29.3176   32.2131  -18.3654 O   0  0  0  0  0  0  0  0  0  0  0  0
   -9.4510   29.9902  -26.8014 C   0  0  0  0  0  0  0  0  0  0  0  0
  -14.4521   26.3767  -19.3303 C   0  0  0  0  0  0  0  0  0  0  0  0
  -22.8498   32.0543  -22.6578 C   0  0  0  0  0  0  0  0  0  0  0  0
  -28.5781   29.9613  -19.3319 O   0  0  0  0  0  0  0  0  0  0  0  0
  -15.4649   26.3022  -20.3813 N   0  0  0  0  0  0  0  0  0  0  0  0
  -23.5853   32.9557  -21.9326 N   0  0  0  0  0  0  0  0  0  0  0  0
  -27.4780   30.8979  -17.2871 O   0  0  0  0  0  0  0  0  0  0  0  0
  -16.7679   26.3858  -20.1704 C   0  0  0  0  0  0  0  0  0  0  0  0
  -17.2508   26.5359  -19.0452 O   0  0  0  0  0  0  0  0  0  0  0  0
  -17.6588   26.3760  -21.4033 C   0  0  2  0  0  0  0  0  0  0  0  0
  -17.1777   27.3445  -22.3163 O   0  0  0  0  0  0  0  0  0  0  0  0
  -19.1560   26.6138  -21.1290 C   0  0  1  0  0  0  0  0  0  0  0  0
  -19.6581   25.9348  -19.8624 C   0  0  0  0  0  0  0  0  0  0  0  0
  -19.4099   28.1300  -20.9997 C   0  0  0  0  0  0  0  0  0  0  0  0
  -19.9816   26.0581  -22.2968 C   0  0  0  0  0  0  0  0  0  0  0  0
  -25.1268   33.5893  -20.7287 H   0  0  0  0  0  0  0  0  0  0  0  0
  -22.9287   37.3652  -21.8634 H   0  0  0  0  0  0  0  0  0  0  0  0
  -25.3483   30.9547  -22.2395 H   0  0  0  0  0  0  0  0  0  0  0  0
  -27.3283   32.7886  -21.5094 H   0  0  0  0  0  0  0  0  0  0  0  0
  -13.1008   29.6061  -23.6801 H   0  0  0  0  0  0  0  0  0  0  0  0
  -12.4620   28.1711  -22.8276 H   0  0  0  0  0  0  0  0  0  0  0  0
  -12.8360   29.8209  -26.7172 H   0  0  0  0  0  0  0  0  0  0  0  0
  -26.6434   30.0714  -20.3136 H   0  0  0  0  0  0  0  0  0  0  0  0
  -11.6442   30.5270  -21.4089 H   0  0  0  0  0  0  0  0  0  0  0  0
  -13.4336   30.6045  -21.7510 H   0  0  0  0  0  0  0  0  0  0  0  0
  -12.4312   28.7604  -28.9205 H   0  0  0  0  0  0  0  0  0  0  0  0
  -25.0914   30.9780  -18.3096 H   0  0  0  0  0  0  0  0  0  0  0  0
  -12.0143   28.5531  -20.1397 H   0  0  0  0  0  0  0  0  0  0  0  0
  -10.1029   28.4431  -29.7517 H   0  0  0  0  0  0  0  0  0  0  0  0
  -24.1366   29.2307  -20.5203 H   0  0  0  0  0  0  0  0  0  0  0  0
  -23.0026   29.7667  -19.2556 H   0  0  0  0  0  0  0  0  0  0  0  0
  -20.0230   34.0677  -24.8340 H   0  0  0  0  0  0  0  0  0  0  0  0
  -19.7522   35.8247  -24.6851 H   0  0  0  0  0  0  0  0  0  0  0  0
   -8.2103   29.3071  -28.4241 H   0  0  0  0  0  0  0  0  0  0  0  0
  -13.1627   27.7991  -18.3594 H   0  0  0  0  0  0  0  0  0  0  0  0
  -14.9513   28.1423  -18.2393 H   0  0  0  0  0  0  0  0  0  0  0  0
   -8.5941   30.3455  -26.2103 H   0  0  0  0  0  0  0  0  0  0  0  0
  -13.5283   25.9114  -19.7046 H   0  0  0  0  0  0  0  0  0  0  0  0
  -14.8602   25.8532  -18.4531 H   0  0  0  0  0  0  0  0  0  0  0  0
  -23.0173   30.9681  -22.6119 H   0  0  0  0  0  0  0  0  0  0  0  0
  -15.1423   26.1762  -21.3514 H   0  0  0  0  0  0  0  0  0  0  0  0
  -17.6031   25.3583  -21.8170 H   0  0  0  0  0  0  0  0  0  0  0  0
  -16.7976   28.1096  -21.8160 H   0  0  0  0  0  0  0  0  0  0  0  0
  -18.8677   25.9365  -19.0973 H   0  0  0  0  0  0  0  0  0  0  0  0
  -19.9360   24.8906  -20.0682 H   0  0  0  0  0  0  0  0  0  0  0  0
  -19.4559   28.4047  -19.9356 H   0  0  0  0  0  0  0  0  0  0  0  0
  -18.5916   28.6816  -21.4857 H   0  0  0  0  0  0  0  0  0  0  0  0
  -20.3633   28.3849  -21.4857 H   0  0  0  0  0  0  0  0  0  0  0  0
  -20.8337   25.4846  -21.9031 H   0  0  0  0  0  0  0  0  0  0  0  0
  -20.3530   26.8908  -22.9122 H   0  0  0  0  0  0  0  0  0  0  0  0
  -19.3499   25.4006  -22.9122 H   0  0  0  0  0  0  0  0  0  0  0  0
  1  7  2  0
  1 35  1  0
  2  3  2  0
  3  8  1  6
  3 15  1  0
  3 31  1  0
  4  6  1  0
  4 10  1  0
  4 27  2  0
  5 11  1  0
  5 25  1  0
  5 47  1  0
  6 13  1  0
  7 14  1  0
  9 15  1  0
  9 22  1  6
  9 28  2  0
  9 37  1  0
 10 16  2  0
 10 42  1  0
 11 12  1  0
 11 17  1  0
 13 20  1  0
 14 21  2  0
 16 23  1  0
 17 18  1  0
 17 24  1  0
 18 19  1  0
 19 41  1  1
 19 45  2  0
 19 48  1  0
 20 26  1  0
 21 32  1  0
 21 47  1  0
 23 29  2  0
 24 25  1  0
 24 30  1  0
 26 33  1  0
 29 38  1  0
 30 31  1  0
 32 35  2  0
 32 40  1  0
 33 34  2  0
 33 39  1  0
 35 36  1  0
 37 54  1  0
 38 42  2  0
 39 43  1  0
 40 44  2  0
 43 46  1  0
 44 47  1  0
 46 49  1  0
 49 50  2  0
 49 51  1  0
 51 52  1  0
 51 53  1  0
 53 54  1  1
 53 55  1  0
 53 56  1  0
  5 57  1  1
  7 58  1  0
 11 59  1  6
 12 60  1  0
 13 61  1  0
 13 62  1  0
 16 63  1  0
 17 64  1  6
 20 65  1  0
 20 66  1  0
 23 67  1  0
 24 68  1  1
 26 69  1  0
 29 70  1  0
 30 71  1  0
 30 72  1  0
 36 73  1  0
 36 74  1  0
 38 75  1  0
 39 76  1  0
 39 77  1  0
 42 78  1  0
 43 79  1  0
 43 80  1  0
 44 81  1  0
 46 82  1  0
 51 83  1  6
 52 84  1  0
 54 85  1  0
 54 86  1  0
 55 87  1  0
 55 88  1  0
 55 89  1  0
 56 90  1  0
 56 91  1  0
 56 92  1  0
M  CHG  4   8  -1  22  -1  41  -1  48  -1
M  END
>  <filename_input>  (25) 
7PK0_BYC_docked.sdf

>  <pdb_id>  (25) 
7PK0_BYC

>  <pose_rank>  (25) 
24

>  <num_atoms_heavy>  (25) 
56

>  <num_torsions>  (25) 
21

>  <pose>  (25) 
[-22.256104230408987, 26.42071530807956, -20.026863833866305, -3.1552963119743125, 1.5366646267778754, -5.069922835071811, 3.448397640601013, 29.284966248514255, 39.24110534236152, 71.38048809847152, 4.758039713752695, 18.572816364556317, -37.52525401255729, 14.843008492175288, -0.386140367794667, 7.210325921583105, -9.659115585565527, 0.8305943402702929, -1.0978207505493758, -32.17251444836245, -18.093341306025685, -9.930156990024647, -7.055691687894281, 3.9546409761203125, -6.026000248516527, 0.10130332384650943, 2.4778034597350853]

>  <energy>  (25) 
-543.1300255391042

>  <inter_energy>  (25) 
-639.1995901486171

>  <intra_energy>  (25) 
99.76478963486818

>  <rmsd>  (25) 
6.86317

>  <sdf_rank>  (25) 
0

$$$$

     RDKit          3D

 92 95  0  0  0  0  0  0  0  0999 V2000
  -22.9750   33.8520  -22.2800 N   0  0  0  0  0  0  0  0  0  0  0  0
  -23.5350   24.3500  -18.9440 O   0  0  0  0  0  0  0  0  0  0  0  0
  -23.3300   25.4730  -19.9150 P   0  0  2  0  0  0  0  0  0  0  0  0
  -13.5160   25.1240  -14.1000 C   0  0  0  0  0  0  0  0  0  0  0  0
  -24.5790   30.1370  -19.1140 C   0  0  1  0  0  0  0  0  0  0  0  0
  -13.6150   26.8720  -14.4400 S   0  0  0  0  0  0  0  0  0  0  0  0
  -23.8150   33.8750  -21.2340 C   0  0  0  0  0  0  0  0  0  0  0  0
  -24.0230   25.4180  -21.2450 O   0  0  0  0  0  0  0  0  0  0  0  0
  -20.8710   25.3420  -21.4150 P   0  0  1  0  0  0  0  0  0  0  0  0
  -14.4300   24.5800  -13.0710 C   0  0  0  0  0  0  0  0  0  0  0  0
  -25.7070   29.1420  -19.3490 C   0  0  2  0  0  0  0  0  0  0  0  0
  -26.8940   29.7970  -19.7500 O   0  0  0  0  0  0  0  0  0  0  0  0
  -12.8840   26.9710  -16.0890 C   0  0  0  0  0  0  0  0  0  0  0  0
  -24.2270   32.8690  -20.4590 N   0  0  0  0  0  0  0  0  0  0  0  0
  -21.7930   25.8080  -20.1850 O   0  0  0  0  0  0  0  0  0  0  0  0
  -14.5570   23.1990  -12.9790 C   0  0  0  0  0  0  0  0  0  0  0  0
  -25.7960   28.4900  -17.9780 C   0  0  2  0  0  0  0  0  0  0  0  0
  -26.5260   29.3730  -17.1200 O   0  0  0  0  0  0  0  0  0  0  0  0
  -27.4460   28.5970  -16.0270 P   0  0  1  0  0  0  0  0  0  0  0  0
  -13.9420   26.6310  -17.0910 C   0  0  0  0  0  0  0  0  0  0  0  0
  -23.6560   31.7180  -20.8580 C   0  0  0  0  0  0  0  0  0  0  0  0
  -21.0660   23.8770  -21.6640 O   0  0  0  0  0  0  0  0  0  0  0  0
  -15.4520   22.6300  -12.0860 C   0  0  0  0  0  0  0  0  0  0  0  0
  -24.3280   28.4230  -17.5170 C   0  0  2  0  0  0  0  0  0  0  0  0
  -23.6770   29.5230  -18.2100 O   0  0  0  0  0  0  0  0  0  0  0  0
  -13.4310   26.5170  -18.4360 N   0  0  0  0  0  0  0  0  0  0  0  0
  -12.7970   24.4330  -14.7980 O   0  0  0  0  0  0  0  0  0  0  0  0
  -21.0910   26.3180  -22.5130 O   0  0  0  0  0  0  0  0  0  0  0  0
  -16.2350   23.4350  -11.2690 C   0  0  0  0  0  0  0  0  0  0  0  0
  -23.5750   27.1390  -17.8220 C   0  0  0  0  0  0  0  0  0  0  0  0
  -23.7680   26.8480  -19.2200 O   0  0  0  0  0  0  0  0  0  0  0  0
  -22.7940   31.5390  -21.9180 C   0  0  0  0  0  0  0  0  0  0  0  0
  -13.1470   27.5560  -19.2440 C   0  0  0  0  0  0  0  0  0  0  0  0
  -13.4230   28.7010  -18.9180 O   0  0  0  0  0  0  0  0  0  0  0  0
  -22.4500   32.6680  -22.6810 C   0  0  0  0  0  0  0  0  0  0  0  0
  -21.5730   32.6440  -23.6870 N   0  0  0  0  0  0  0  0  0  0  0  0
  -19.3890   25.5050  -20.8300 O   0  0  0  0  0  0  0  0  0  0  0  0
  -16.0870   24.7940  -11.3300 C   0  0  0  0  0  0  0  0  0  0  0  0
  -12.6260   27.2480  -20.6380 C   0  0  0  0  0  0  0  0  0  0  0  0
  -22.4100   30.2060  -22.0170 N   0  0  0  0  0  0  0  0  0  0  0  0
  -26.4910   27.6790  -15.1680 O   0  0  0  0  0  0  0  0  0  0  0  0
  -15.2000   25.3730  -12.2250 C   0  0  0  0  0  0  0  0  0  0  0  0
  -13.3060   28.0740  -21.7350 C   0  0  0  0  0  0  0  0  0  0  0  0
  -23.0300   29.6280  -21.0270 C   0  0  0  0  0  0  0  0  0  0  0  0
  -28.1070   29.6640  -15.1700 O   0  0  0  0  0  0  0  0  0  0  0  0
  -14.7660   28.0290  -21.6850 N   0  0  0  0  0  0  0  0  0  0  0  0
  -23.8230   30.4760  -20.2980 N   0  0  0  0  0  0  0  0  0  0  0  0
  -28.4240   27.7560  -16.7600 O   0  0  0  0  0  0  0  0  0  0  0  0
  -15.4870   26.9380  -21.8830 C   0  0  0  0  0  0  0  0  0  0  0  0
  -14.9790   25.8420  -22.1330 O   0  0  0  0  0  0  0  0  0  0  0  0
  -16.9910   27.0740  -21.7010 C   0  0  2  0  0  0  0  0  0  0  0  0
  -17.3910   28.3450  -22.1780 O   0  0  0  0  0  0  0  0  0  0  0  0
  -17.4950   26.8740  -20.2590 C   0  0  1  0  0  0  0  0  0  0  0  0
  -19.0080   26.7410  -20.1560 C   0  0  0  0  0  0  0  0  0  0  0  0
  -16.8550   25.5980  -19.6740 C   0  0  0  0  0  0  0  0  0  0  0  0
  -17.0890   28.0830  -19.4060 C   0  0  0  0  0  0  0  0  0  0  0  0
  -25.0363   31.0678  -18.7474 H   0  0  0  0  0  0  0  0  0  0  0  0
  -24.2225   34.8643  -20.9784 H   0  0  0  0  0  0  0  0  0  0  0  0
  -25.5418   28.4185  -20.1609 H   0  0  0  0  0  0  0  0  0  0  0  0
  -27.4029   30.0778  -18.9485 H   0  0  0  0  0  0  0  0  0  0  0  0
  -12.5126   27.9903  -16.2710 H   0  0  0  0  0  0  0  0  0  0  0  0
  -12.0412   26.2692  -16.1736 H   0  0  0  0  0  0  0  0  0  0  0  0
  -13.9416   22.5513  -13.6208 H   0  0  0  0  0  0  0  0  0  0  0  0
  -26.2884   27.5064  -17.9753 H   0  0  0  0  0  0  0  0  0  0  0  0
  -14.3979   25.6711  -16.8070 H   0  0  0  0  0  0  0  0  0  0  0  0
  -14.6745   27.4516  -17.0864 H   0  0  0  0  0  0  0  0  0  0  0  0
  -15.5423   21.5354  -12.0243 H   0  0  0  0  0  0  0  0  0  0  0  0
  -24.3169   28.4736  -16.4182 H   0  0  0  0  0  0  0  0  0  0  0  0
  -13.2715   25.5690  -18.8058 H   0  0  0  0  0  0  0  0  0  0  0  0
  -16.9658   22.9853  -10.5807 H   0  0  0  0  0  0  0  0  0  0  0  0
  -22.5038   27.2719  -17.6100 H   0  0  0  0  0  0  0  0  0  0  0  0
  -23.9473   26.3129  -17.1983 H   0  0  0  0  0  0  0  0  0  0  0  0
  -21.1697   31.7485  -23.9974 H   0  0  0  0  0  0  0  0  0  0  0  0
  -21.2995   33.5210  -24.1528 H   0  0  0  0  0  0  0  0  0  0  0  0
  -16.6791   25.4353  -10.6606 H   0  0  0  0  0  0  0  0  0  0  0  0
  -11.5464   27.4577  -20.6615 H   0  0  0  0  0  0  0  0  0  0  0  0
  -12.8471   26.1900  -20.8423 H   0  0  0  0  0  0  0  0  0  0  0  0
  -15.1041   26.4680  -12.2667 H   0  0  0  0  0  0  0  0  0  0  0  0
  -12.9871   29.1214  -21.6290 H   0  0  0  0  0  0  0  0  0  0  0  0
  -13.0039   27.6386  -22.6989 H   0  0  0  0  0  0  0  0  0  0  0  0
  -22.9264   28.5572  -20.7973 H   0  0  0  0  0  0  0  0  0  0  0  0
  -15.2670   28.9057  -21.4820 H   0  0  0  0  0  0  0  0  0  0  0  0
  -17.4475   26.2564  -22.2783 H   0  0  0  0  0  0  0  0  0  0  0  0
  -17.5787   28.9414  -21.4105 H   0  0  0  0  0  0  0  0  0  0  0  0
  -19.4940   27.5991  -20.6433 H   0  0  0  0  0  0  0  0  0  0  0  0
  -19.3230   26.7193  -19.1023 H   0  0  0  0  0  0  0  0  0  0  0  0
  -16.8792   25.6463  -18.5753 H   0  0  0  0  0  0  0  0  0  0  0  0
  -17.4175   24.7163  -20.0148 H   0  0  0  0  0  0  0  0  0  0  0  0
  -15.8119   25.5216  -20.0148 H   0  0  0  0  0  0  0  0  0  0  0  0
  -17.1755   27.8253  -18.3401 H   0  0  0  0  0  0  0  0  0  0  0  0
  -16.0488   28.3593  -19.6332 H   0  0  0  0  0  0  0  0  0  0  0  0
  -17.7516   28.9311  -19.6332 H   0  0  0  0  0  0  0  0  0  0  0  0
  1  7  2  0
  1 35  1  0
  2  3  2  0
  3  8  1  6
  3 15  1  0
  3 31  1  0
  4  6  1  0
  4 10  1  0
  4 27  2  0
  5 11  1  0
  5 25  1  0
  5 47  1  0
  6 13  1  0
  7 14  1  0
  9 15  1  0
  9 22  1  6
  9 28  2  0
  9 37  1  0
 10 16  2  0
 10 42  1  0
 11 12  1  0
 11 17  1  0
 13 20  1  0
 14 21  2  0
 16 23  1  0
 17 18  1  0
 17 24  1  0
 18 19  1  0
 19 41  1  1
 19 45  2  0
 19 48  1  0
 20 26  1  0
 21 32  1  0
 21 47  1  0
 23 29  2  0
 24 25  1  0
 24 30  1  0
 26 33  1  0
 29 38  1  0
 30 31  1  0
 32 35  2  0
 32 40  1  0
 33 34  2  0
 33 39  1  0
 35 36  1  0
 37 54  1  0
 38 42  2  0
 39 43  1  0
 40 44  2  0
 43 46  1  0
 44 47  1  0
 46 49  1  0
 49 50  2  0
 49 51  1  0
 51 52  1  0
 51 53  1  0
 53 54  1  6
 53 55  1  0
 53 56  1  0
  5 57  1  1
  7 58  1  0
 11 59  1  6
 12 60  1  0
 13 61  1  0
 13 62  1  0
 16 63  1  0
 17 64  1  6
 20 65  1  0
 20 66  1  0
 23 67  1  0
 24 68  1  1
 26 69  1  0
 29 70  1  0
 30 71  1  0
 30 72  1  0
 36 73  1  0
 36 74  1  0
 38 75  1  0
 39 76  1  0
 39 77  1  0
 42 78  1  0
 43 79  1  0
 43 80  1  0
 44 81  1  0
 46 82  1  0
 51 83  1  6
 52 84  1  0
 54 85  1  0
 54 86  1  0
 55 87  1  0
 55 88  1  0
 55 89  1  0
 56 90  1  0
 56 91  1  0
 56 92  1  0
M  CHG  4   8  -1  22  -1  41  -1  48  -1
M  END
>  <filename_input>  (26) 
7PK0_BYC_docked.sdf

>  <pdb_id>  (26) 
7PK0_BYC

>  <pose_rank>  (26) 
25

>  <num_atoms_heavy>  (26) 
56

>  <num_torsions>  (26) 
21

>  <pose>  (26) 
[-20.871, 25.342, -21.415, 1e-06, 1e-06, 1e-06, 0.0, 0.0, 0.0, 0.0, 0.0, 0.0, 0.0, 0.0, 0.0, 0.0, 0.0, 0.0, 0.0, 0.0, 0.0, 0.0, 0.0, 0.0, 0.0, 0.0, 0.0]

>  <energy>  (26) 
-1013.297165316991

>  <inter_energy>  (26) 
-1064.1276159268023

>  <intra_energy>  (26) 
45.09053064115198

>  <rmsd>  (26) 
0.0

>  <sdf_rank>  (26) 
0

$$$$
