
     RDKit          3D

 51 53  0  0  0  0  0  0  0  0999 V2000
   43.9056  -23.0731   -7.0041 N   0  0  0  0  0  0  0  0  0  0  0  0
   45.1939  -22.4433   -6.7058 C   0  0  2  0  0  0  0  0  0  0  0  0
   45.4307  -22.3755   -5.1964 C   0  0  0  0  0  0  0  0  0  0  0  0
   44.7734  -21.5906   -4.4594 O   0  0  0  0  0  0  0  0  0  0  0  0
   46.2894  -23.1322   -4.6706 O   0  0  0  0  0  0  0  0  0  0  0  0
   45.2711  -21.0346   -7.3130 C   0  0  0  0  0  0  0  0  0  0  0  0
   46.6970  -20.4781   -7.2196 C   0  0  0  0  0  0  0  0  0  0  0  0
   46.6830  -18.9760   -6.9329 C   0  0  2  0  0  0  0  0  0  0  0  0
   45.7035  -18.7056   -5.8798 N   0  0  0  0  0  0  0  0  0  0  0  0
   46.2485  -18.2119   -8.1854 C   0  0  0  0  0  0  0  0  0  0  0  0
   44.7706  -17.7365   -8.1246 C   0  0  1  0  0  0  0  0  0  0  0  0
   44.7279  -16.5117   -7.6260 O   0  0  0  0  0  0  0  0  0  0  0  0
   44.1266  -17.6617   -9.5295 C   0  0  1  0  0  0  0  0  0  0  0  0
   42.9684  -18.3950   -9.5611 O   0  0  0  0  0  0  0  0  0  0  0  0
   43.8725  -16.1529   -9.6932 C   0  0  1  0  0  0  0  0  0  0  0  0
   42.7293  -15.9156  -10.6141 O   0  0  0  0  0  0  0  0  0  0  0  0
   43.6344  -15.7170   -8.4685 C   0  0  2  0  0  0  0  0  0  0  0  0
   43.9161  -14.3096   -8.3060 N   0  0  0  0  0  0  0  0  0  0  0  0
   44.9365  -13.5646   -8.7699 C   0  0  0  0  0  0  0  0  0  0  0  0
   44.7695  -12.3058   -8.3578 N   0  0  0  0  0  0  0  0  0  0  0  0
   43.6388  -12.2736   -7.6258 C   0  0  0  0  0  0  0  0  0  0  0  0
   43.0147  -11.2330   -6.9813 C   0  0  0  0  0  0  0  0  0  0  0  0
   43.4363   -9.8533   -6.9226 N   0  0  0  0  0  0  0  0  0  0  0  0
   41.8823  -11.4340   -6.3212 N   0  0  0  0  0  0  0  0  0  0  0  0
   41.3525  -12.6816   -6.2712 C   0  0  0  0  0  0  0  0  0  0  0  0
   41.9589  -13.7123   -6.9072 N   0  0  0  0  0  0  0  0  0  0  0  0
   43.1105  -13.5022   -7.5878 C   0  0  0  0  0  0  0  0  0  0  0  0
   43.4260  -23.3076   -6.1232 H   0  0  0  0  0  0  0  0  0  0  0  0
   43.3232  -22.4217   -7.5493 H   0  0  0  0  0  0  0  0  0  0  0  0
   44.0619  -23.9328   -7.5493 H   0  0  0  0  0  0  0  0  0  0  0  0
   45.9812  -23.0639   -7.1586 H   0  0  0  0  0  0  0  0  0  0  0  0
   44.9707  -21.0808   -8.3701 H   0  0  0  0  0  0  0  0  0  0  0  0
   44.5967  -20.3715   -6.7515 H   0  0  0  0  0  0  0  0  0  0  0  0
   47.2317  -20.9939   -6.4084 H   0  0  0  0  0  0  0  0  0  0  0  0
   47.2017  -20.6457   -8.1825 H   0  0  0  0  0  0  0  0  0  0  0  0
   47.6907  -18.6578   -6.6272 H   0  0  0  0  0  0  0  0  0  0  0  0
   46.1473  -18.8281   -4.9584 H   0  0  0  0  0  0  0  0  0  0  0  0
   45.3606  -17.7385   -5.9699 H   0  0  0  0  0  0  0  0  0  0  0  0
   44.9131  -19.3599   -5.9699 H   0  0  0  0  0  0  0  0  0  0  0  0
   46.8959  -17.3300   -8.3001 H   0  0  0  0  0  0  0  0  0  0  0  0
   46.3377  -18.9007   -9.0384 H   0  0  0  0  0  0  0  0  0  0  0  0
   44.2241  -18.4626   -7.5048 H   0  0  0  0  0  0  0  0  0  0  0  0
   44.7445  -18.0753  -10.3401 H   0  0  0  0  0  0  0  0  0  0  0  0
   42.6715  -18.5829   -8.6355 H   0  0  0  0  0  0  0  0  0  0  0  0
   44.7234  -15.6197  -10.1423 H   0  0  0  0  0  0  0  0  0  0  0  0
   41.9096  -15.7454  -10.0856 H   0  0  0  0  0  0  0  0  0  0  0  0
   42.5812  -15.8613   -8.1855 H   0  0  0  0  0  0  0  0  0  0  0  0
   45.7700  -13.9321   -9.3865 H   0  0  0  0  0  0  0  0  0  0  0  0
   42.8747   -9.1649   -6.4015 H   0  0  0  0  0  0  0  0  0  0  0  0
   44.2987   -9.5574   -7.4019 H   0  0  0  0  0  0  0  0  0  0  0  0
   40.4232  -12.8577   -5.7097 H   0  0  0  0  0  0  0  0  0  0  0  0
  2  1  1  0
  2  3  1  0
  2  6  1  0
  3  4  2  0
  3  5  1  0
  6  7  1  0
  7  8  1  0
  8  9  1  0
  8 10  1  0
 11 10  1  0
 11 12  1  0
 11 13  1  0
 12 17  1  0
 13 14  1  0
 13 15  1  0
 15 16  1  0
 15 17  1  0
 17 18  1  0
 18 19  1  0
 18 27  1  0
 19 20  2  0
 20 21  1  0
 21 22  2  0
 21 27  1  0
 22 23  1  0
 22 24  1  0
 24 25  2  0
 25 26  1  0
 26 27  2  0
  1 28  1  0
  1 29  1  0
  1 30  1  0
  2 31  1  6
  6 32  1  0
  6 33  1  0
  7 34  1  0
  7 35  1  0
  8 36  1  1
  9 37  1  0
  9 38  1  0
  9 39  1  0
 10 40  1  0
 10 41  1  0
 11 42  1  1
 13 43  1  6
 14 44  1  0
 15 45  1  6
 16 46  1  0
 17 47  1  1
 19 48  1  0
 23 49  1  0
 23 50  1  0
 25 51  1  0
M  CHG  3   1   1   5  -1   9   1
M  END
>  <filename_input>  (1) 
7PL1_SFG_docked.sdf

>  <pdb_id>  (1) 
7PL1_SFG

>  <pose_rank>  (1) 
0

>  <num_atoms_heavy>  (1) 
27

>  <num_torsions>  (1) 
7

>  <pose>  (1) 
[44.7705674781565, -17.73650464857379, -8.12455952168236, -1.2031812226834855, -3.9982332015338096, 4.60912815852969, -0.07301613264235782, -1.3270412809169114, -3.0961291781011555, 3.4075786188206023, 0.7027653099566812, 2.2448792419267, -1.2352197438708896]

>  <energy>  (1) 
-1095.1878643895018

>  <inter_energy>  (1) 
-1105.8131290919414

>  <intra_energy>  (1) 
13.292200309826589

>  <rmsd>  (1) 
1.25153

>  <sdf_rank>  (1) 
0

$$$$

     RDKit          3D

 51 53  0  0  0  0  0  0  0  0999 V2000
   45.6099  -21.2921  -10.7462 N   0  0  0  0  0  0  0  0  0  0  0  0
   45.3660  -21.9939   -9.4841 C   0  0  2  0  0  0  0  0  0  0  0  0
   44.0990  -22.8462   -9.5706 C   0  0  0  0  0  0  0  0  0  0  0  0
   42.9531  -22.3440   -9.4101 O   0  0  0  0  0  0  0  0  0  0  0  0
   44.1972  -24.0758   -9.8253 O   0  0  0  0  0  0  0  0  0  0  0  0
   45.2529  -21.0025   -8.3164 C   0  0  0  0  0  0  0  0  0  0  0  0
   46.6414  -20.6176   -7.7916 C   0  0  0  0  0  0  0  0  0  0  0  0
   46.5958  -19.2854   -7.0420 C   0  0  2  0  0  0  0  0  0  0  0  0
   45.5215  -19.3387   -6.0498 N   0  0  0  0  0  0  0  0  0  0  0  0
   46.2774  -18.1507   -8.0180 C   0  0  0  0  0  0  0  0  0  0  0  0
   44.7939  -17.6932   -7.9543 C   0  0  1  0  0  0  0  0  0  0  0  0
   44.7406  -16.4526   -7.4977 O   0  0  0  0  0  0  0  0  0  0  0  0
   44.1313  -17.6757   -9.3525 C   0  0  1  0  0  0  0  0  0  0  0  0
   42.9830  -18.4250   -9.3436 O   0  0  0  0  0  0  0  0  0  0  0  0
   43.8544  -16.1770   -9.5647 C   0  0  1  0  0  0  0  0  0  0  0  0
   42.6965  -15.9870  -10.4783 O   0  0  0  0  0  0  0  0  0  0  0  0
   43.6257  -15.7022   -8.3527 C   0  0  2  0  0  0  0  0  0  0  0  0
   43.8900  -14.2863   -8.2425 N   0  0  0  0  0  0  0  0  0  0  0  0
   44.8882  -13.5426   -8.7540 C   0  0  0  0  0  0  0  0  0  0  0  0
   44.7119  -12.2734   -8.3791 N   0  0  0  0  0  0  0  0  0  0  0  0
   43.5980  -12.2334   -7.6222 C   0  0  0  0  0  0  0  0  0  0  0  0
   42.9733  -11.1812   -6.9973 C   0  0  0  0  0  0  0  0  0  0  0  0
   43.3755   -9.7945   -6.9932 N   0  0  0  0  0  0  0  0  0  0  0  0
   41.8595  -11.3766   -6.3047 N   0  0  0  0  0  0  0  0  0  0  0  0
   41.3497  -12.6293   -6.2020 C   0  0  0  0  0  0  0  0  0  0  0  0
   41.9566  -13.6715   -6.8184 N   0  0  0  0  0  0  0  0  0  0  0  0
   43.0890  -13.4675   -7.5321 C   0  0  0  0  0  0  0  0  0  0  0  0
   45.9418  -20.3371  -10.5494 H   0  0  0  0  0  0  0  0  0  0  0  0
   46.3241  -21.7989  -11.2884 H   0  0  0  0  0  0  0  0  0  0  0  0
   44.7353  -21.2467  -11.2884 H   0  0  0  0  0  0  0  0  0  0  0  0
   46.2245  -22.6563   -9.2996 H   0  0  0  0  0  0  0  0  0  0  0  0
   44.7341  -20.0962   -8.6620 H   0  0  0  0  0  0  0  0  0  0  0  0
   44.6884  -21.4803   -7.5021 H   0  0  0  0  0  0  0  0  0  0  0  0
   46.9976  -21.4025   -7.1082 H   0  0  0  0  0  0  0  0  0  0  0  0
   47.3228  -20.5135   -8.6488 H   0  0  0  0  0  0  0  0  0  0  0  0
   47.5695  -19.1082   -6.5619 H   0  0  0  0  0  0  0  0  0  0  0  0
   45.9271  -19.3185   -5.1033 H   0  0  0  0  0  0  0  0  0  0  0  0
   44.8989  -18.5275   -6.1739 H   0  0  0  0  0  0  0  0  0  0  0  0
   44.9823  -20.2075   -6.1739 H   0  0  0  0  0  0  0  0  0  0  0  0
   46.9199  -17.2908   -7.7774 H   0  0  0  0  0  0  0  0  0  0  0  0
   46.4615  -18.5294   -9.0342 H   0  0  0  0  0  0  0  0  0  0  0  0
   44.2653  -18.4047   -7.3028 H   0  0  0  0  0  0  0  0  0  0  0  0
   44.7446  -18.1089  -10.1564 H   0  0  0  0  0  0  0  0  0  0  0  0
   42.7117  -18.6021   -8.4081 H   0  0  0  0  0  0  0  0  0  0  0  0
   44.6922  -15.6484  -10.0429 H   0  0  0  0  0  0  0  0  0  0  0  0
   41.8737  -15.8520   -9.9445 H   0  0  0  0  0  0  0  0  0  0  0  0
   42.5783  -15.8507   -8.0512 H   0  0  0  0  0  0  0  0  0  0  0  0
   45.7128  -13.9181   -9.3777 H   0  0  0  0  0  0  0  0  0  0  0  0
   42.8157   -9.0974   -6.4816 H   0  0  0  0  0  0  0  0  0  0  0  0
   44.2221   -9.5023   -7.5019 H   0  0  0  0  0  0  0  0  0  0  0  0
   40.4362  -12.8001   -5.6135 H   0  0  0  0  0  0  0  0  0  0  0  0
  2  1  1  0
  2  3  1  0
  2  6  1  0
  3  4  2  0
  3  5  1  0
  6  7  1  0
  7  8  1  0
  8  9  1  0
  8 10  1  0
 11 10  1  0
 11 12  1  0
 11 13  1  0
 12 17  1  0
 13 14  1  0
 13 15  1  0
 15 16  1  0
 15 17  1  0
 17 18  1  0
 18 19  1  0
 18 27  1  0
 19 20  2  0
 20 21  1  0
 21 22  2  0
 21 27  1  0
 22 23  1  0
 22 24  1  0
 24 25  2  0
 25 26  1  0
 26 27  2  0
  1 28  1  0
  1 29  1  0
  1 30  1  0
  2 31  1  1
  6 32  1  0
  6 33  1  0
  7 34  1  0
  7 35  1  0
  8 36  1  1
  9 37  1  0
  9 38  1  0
  9 39  1  0
 10 40  1  0
 10 41  1  0
 11 42  1  1
 13 43  1  6
 14 44  1  0
 15 45  1  6
 16 46  1  0
 17 47  1  1
 19 48  1  0
 23 49  1  0
 23 50  1  0
 25 51  1  0
M  CHG  3   1   1   5  -1   9   1
M  END
>  <filename_input>  (2) 
7PL1_SFG_docked.sdf

>  <pdb_id>  (2) 
7PL1_SFG

>  <pose_rank>  (2) 
1

>  <num_atoms_heavy>  (2) 
27

>  <num_torsions>  (2) 
7

>  <pose>  (2) 
[44.79386877161531, -17.69324755747458, -7.9543024145115355, 2.0921919593524883, -4.904414978507535, 3.194417893886418, 6.220742803470856, 11.620501199943481, -9.392903316671372, -2.7690427362043852, 12.244940069212406, -2.5260638575458176, 11.147314874707957]

>  <energy>  (2) 
-960.3846090657745

>  <inter_energy>  (2) 
-963.3478614941247

>  <intra_energy>  (2) 
7.33505520013286

>  <rmsd>  (2) 
2.22109

>  <sdf_rank>  (2) 
0

$$$$

     RDKit          3D

 51 53  0  0  0  0  0  0  0  0999 V2000
   46.8014  -15.9967   -3.0584 N   0  0  0  0  0  0  0  0  0  0  0  0
   47.4670  -14.9326   -3.8133 C   0  0  2  0  0  0  0  0  0  0  0  0
   47.7226  -13.7132   -2.9264 C   0  0  0  0  0  0  0  0  0  0  0  0
   48.7008  -12.9430   -3.1285 O   0  0  0  0  0  0  0  0  0  0  0  0
   46.9296  -13.4590   -1.9813 O   0  0  0  0  0  0  0  0  0  0  0  0
   46.6357  -14.5252   -5.0389 C   0  0  0  0  0  0  0  0  0  0  0  0
   45.7413  -15.6822   -5.5002 C   0  0  0  0  0  0  0  0  0  0  0  0
   46.5670  -16.7824   -6.1686 C   0  0  2  0  0  0  0  0  0  0  0  0
   47.1405  -16.2554   -7.4075 N   0  0  0  0  0  0  0  0  0  0  0  0
   45.6626  -17.9612   -6.5344 C   0  0  0  0  0  0  0  0  0  0  0  0
   44.3402  -17.5218   -7.2215 C   0  0  1  0  0  0  0  0  0  0  0  0
   44.1216  -16.2422   -6.9655 O   0  0  0  0  0  0  0  0  0  0  0  0
   44.4137  -17.6555   -8.7613 C   0  0  1  0  0  0  0  0  0  0  0  0
   43.3708  -18.4171   -9.2224 O   0  0  0  0  0  0  0  0  0  0  0  0
   44.3211  -16.1903   -9.2219 C   0  0  1  0  0  0  0  0  0  0  0  0
   43.7360  -16.1108  -10.5867 O   0  0  0  0  0  0  0  0  0  0  0  0
   43.5662  -15.5987   -8.3126 C   0  0  2  0  0  0  0  0  0  0  0  0
   43.7966  -14.1753   -8.2277 N   0  0  0  0  0  0  0  0  0  0  0  0
   44.7516  -13.4108   -8.7889 C   0  0  0  0  0  0  0  0  0  0  0  0
   44.5572  -12.1428   -8.4191 N   0  0  0  0  0  0  0  0  0  0  0  0
   43.4760  -12.1242   -7.6154 C   0  0  0  0  0  0  0  0  0  0  0  0
   42.8504  -11.0822   -6.9744 C   0  0  0  0  0  0  0  0  0  0  0  0
   43.2147   -9.6853   -7.0011 N   0  0  0  0  0  0  0  0  0  0  0  0
   41.7729  -11.2997   -6.2326 N   0  0  0  0  0  0  0  0  0  0  0  0
   41.3020  -12.5643   -6.0959 C   0  0  0  0  0  0  0  0  0  0  0  0
   41.9100  -13.5966   -6.7277 N   0  0  0  0  0  0  0  0  0  0  0  0
   43.0049  -13.3703   -7.4915 C   0  0  0  0  0  0  0  0  0  0  0  0
   46.9108  -15.8217   -2.0492 H   0  0  0  0  0  0  0  0  0  0  0  0
   45.7997  -16.0123   -3.2975 H   0  0  0  0  0  0  0  0  0  0  0  0
   47.2256  -16.9043   -3.2975 H   0  0  0  0  0  0  0  0  0  0  0  0
   48.4342  -15.3250   -4.1605 H   0  0  0  0  0  0  0  0  0  0  0  0
   46.0040  -13.6639   -4.7759 H   0  0  0  0  0  0  0  0  0  0  0  0
   47.3213  -14.2617   -5.8578 H   0  0  0  0  0  0  0  0  0  0  0  0
   45.2203  -16.1036   -4.6279 H   0  0  0  0  0  0  0  0  0  0  0  0
   45.0176  -15.2945   -6.2322 H   0  0  0  0  0  0  0  0  0  0  0  0
   47.3557  -17.1123   -5.4764 H   0  0  0  0  0  0  0  0  0  0  0  0
   47.8804  -15.5755   -7.1812 H   0  0  0  0  0  0  0  0  0  0  0  0
   47.5415  -17.0291   -7.9566 H   0  0  0  0  0  0  0  0  0  0  0  0
   46.4034  -15.7906   -7.9566 H   0  0  0  0  0  0  0  0  0  0  0  0
   46.2107  -18.6237   -7.2205 H   0  0  0  0  0  0  0  0  0  0  0  0
   45.3930  -18.4719   -5.5982 H   0  0  0  0  0  0  0  0  0  0  0  0
   43.5431  -18.1714   -6.8308 H   0  0  0  0  0  0  0  0  0  0  0  0
   45.3175  -18.1587   -9.1355 H   0  0  0  0  0  0  0  0  0  0  0  0
   42.8663  -18.7854   -8.4543 H   0  0  0  0  0  0  0  0  0  0  0  0
   45.3032  -15.7004   -9.2974 H   0  0  0  0  0  0  0  0  0  0  0  0
   42.7573  -15.9779  -10.5189 H   0  0  0  0  0  0  0  0  0  0  0  0
   42.4956  -15.7315   -8.5274 H   0  0  0  0  0  0  0  0  0  0  0  0
   45.5586  -13.7710   -9.4438 H   0  0  0  0  0  0  0  0  0  0  0  0
   42.6587   -8.9979   -6.4726 H   0  0  0  0  0  0  0  0  0  0  0  0
   44.0306   -9.3763   -7.5485 H   0  0  0  0  0  0  0  0  0  0  0  0
   40.4195  -12.7530   -5.4670 H   0  0  0  0  0  0  0  0  0  0  0  0
  2  1  1  0
  2  3  1  0
  2  6  1  0
  3  4  2  0
  3  5  1  0
  6  7  1  0
  7  8  1  0
  8  9  1  0
  8 10  1  0
 11 10  1  0
 11 12  1  0
 11 13  1  0
 12 17  1  0
 13 14  1  0
 13 15  1  0
 15 16  1  0
 15 17  1  0
 17 18  1  0
 18 19  1  0
 18 27  1  0
 19 20  2  0
 20 21  1  0
 21 22  2  0
 21 27  1  0
 22 23  1  0
 22 24  1  0
 24 25  2  0
 25 26  1  0
 26 27  2  0
  1 28  1  0
  1 29  1  0
  1 30  1  0
  2 31  1  6
  6 32  1  0
  6 33  1  0
  7 34  1  0
  7 35  1  0
  8 36  1  1
  9 37  1  0
  9 38  1  0
  9 39  1  0
 10 40  1  0
 10 41  1  0
 11 42  1  1
 13 43  1  1
 14 44  1  0
 15 45  1  6
 16 46  1  0
 17 47  1  6
 19 48  1  0
 23 49  1  0
 23 50  1  0
 25 51  1  0
M  CHG  3   1   1   5  -1   9   1
M  END
>  <filename_input>  (3) 
7PL1_SFG_docked.sdf

>  <pdb_id>  (3) 
7PL1_SFG

>  <pose_rank>  (3) 
2

>  <num_atoms_heavy>  (3) 
27

>  <num_torsions>  (3) 
7

>  <pose>  (3) 
[44.34019621720345, -17.521761216086524, -7.221488868851817, -0.11610712415321404, -0.4394093681459348, -0.0525158753971128, -30.935274634010078, -28.401398796575574, -29.21251759078449, 1.4775721518019147, -23.196114954628918, -7.808199001946777, 2.629948417162789]

>  <energy>  (3) 
-816.0218868846667

>  <inter_energy>  (3) 
-887.0836885143951

>  <intra_energy>  (3) 
77.67119875681193

>  <rmsd>  (3) 
4.45207

>  <sdf_rank>  (3) 
0

$$$$

     RDKit          3D

 51 53  0  0  0  0  0  0  0  0999 V2000
   44.4631  -23.1460   -6.8670 N   0  0  0  0  0  0  0  0  0  0  0  0
   44.3595  -22.1671   -7.9514 C   0  0  2  0  0  0  0  0  0  0  0  0
   44.3619  -22.8612   -9.3142 C   0  0  0  0  0  0  0  0  0  0  0  0
   45.1604  -23.8023   -9.5745 O   0  0  0  0  0  0  0  0  0  0  0  0
   43.5366  -22.4989  -10.1940 O   0  0  0  0  0  0  0  0  0  0  0  0
   45.5039  -21.1451   -7.8810 C   0  0  0  0  0  0  0  0  0  0  0  0
   45.0860  -19.9137   -7.0683 C   0  0  0  0  0  0  0  0  0  0  0  0
   46.2337  -18.9083   -6.9642 C   0  0  2  0  0  0  0  0  0  0  0  0
   46.2874  -18.3934   -5.5955 N   0  0  0  0  0  0  0  0  0  0  0  0
   45.9755  -17.7261   -7.9006 C   0  0  0  0  0  0  0  0  0  0  0  0
   44.5218  -17.6910   -8.4478 C   0  0  1  0  0  0  0  0  0  0  0  0
   43.7866  -16.9045   -7.6788 O   0  0  0  0  0  0  0  0  0  0  0  0
   44.4530  -17.0984   -9.8756 C   0  0  1  0  0  0  0  0  0  0  0  0
   43.8139  -17.9685  -10.7209 O   0  0  0  0  0  0  0  0  0  0  0  0
   43.6559  -15.8011   -9.6534 C   0  0  1  0  0  0  0  0  0  0  0  0
   42.9307  -15.4183  -10.8940 O   0  0  0  0  0  0  0  0  0  0  0  0
   42.8369  -16.0764   -8.6534 C   0  0  2  0  0  0  0  0  0  0  0  0
   42.4129  -14.8994   -7.9313 N   0  0  0  0  0  0  0  0  0  0  0  0
   41.2936  -14.6675   -7.2209 C   0  0  0  0  0  0  0  0  0  0  0  0
   41.3447  -13.4252   -6.7347 N   0  0  0  0  0  0  0  0  0  0  0  0
   42.5035  -12.8811   -7.1548 C   0  0  0  0  0  0  0  0  0  0  0  0
   43.0448  -11.6378   -6.9337 C   0  0  0  0  0  0  0  0  0  0  0  0
   42.4793  -10.5548   -6.1643 N   0  0  0  0  0  0  0  0  0  0  0  0
   44.2268  -11.3194   -7.4437 N   0  0  0  0  0  0  0  0  0  0  0  0
   44.8913  -12.2261   -8.2027 C   0  0  0  0  0  0  0  0  0  0  0  0
   44.3670  -13.4555   -8.4220 N   0  0  0  0  0  0  0  0  0  0  0  0
   43.1639  -13.7808   -7.8928 C   0  0  0  0  0  0  0  0  0  0  0  0
   44.4117  -22.6604   -5.9600 H   0  0  0  0  0  0  0  0  0  0  0  0
   43.6889  -23.8215   -6.9391 H   0  0  0  0  0  0  0  0  0  0  0  0
   45.3615  -23.6445   -6.9391 H   0  0  0  0  0  0  0  0  0  0  0  0
   43.4053  -21.6337   -7.8291 H   0  0  0  0  0  0  0  0  0  0  0  0
   46.3767  -21.6135   -7.4026 H   0  0  0  0  0  0  0  0  0  0  0  0
   45.7534  -20.8245   -8.9032 H   0  0  0  0  0  0  0  0  0  0  0  0
   44.2293  -19.4313   -7.5616 H   0  0  0  0  0  0  0  0  0  0  0  0
   44.8138  -20.2401   -6.0537 H   0  0  0  0  0  0  0  0  0  0  0  0
   47.1757  -19.4069   -7.2366 H   0  0  0  0  0  0  0  0  0  0  0  0
   46.2059  -19.1760   -4.9308 H   0  0  0  0  0  0  0  0  0  0  0  0
   47.1835  -17.9080   -5.4462 H   0  0  0  0  0  0  0  0  0  0  0  0
   45.5106  -17.7337   -5.4462 H   0  0  0  0  0  0  0  0  0  0  0  0
   46.1647  -16.7937   -7.3484 H   0  0  0  0  0  0  0  0  0  0  0  0
   46.6491  -17.8364   -8.7632 H   0  0  0  0  0  0  0  0  0  0  0  0
   44.1571  -18.7287   -8.4595 H   0  0  0  0  0  0  0  0  0  0  0  0
   45.4313  -16.9169  -10.3446 H   0  0  0  0  0  0  0  0  0  0  0  0
   43.3193  -18.6416  -10.1894 H   0  0  0  0  0  0  0  0  0  0  0  0
   44.2955  -14.9393   -9.4126 H   0  0  0  0  0  0  0  0  0  0  0  0
   42.0812  -14.9697  -10.6546 H   0  0  0  0  0  0  0  0  0  0  0  0
   41.9221  -16.5756   -9.0055 H   0  0  0  0  0  0  0  0  0  0  0  0
   40.4725  -15.3831   -7.0664 H   0  0  0  0  0  0  0  0  0  0  0  0
   42.9902   -9.6649   -6.0748 H   0  0  0  0  0  0  0  0  0  0  0  0
   41.5649  -10.6721   -5.7049 H   0  0  0  0  0  0  0  0  0  0  0  0
   45.8636  -11.9610   -8.6434 H   0  0  0  0  0  0  0  0  0  0  0  0
  2  1  1  0
  2  3  1  0
  2  6  1  0
  3  4  2  0
  3  5  1  0
  6  7  1  0
  7  8  1  0
  8  9  1  0
  8 10  1  0
 11 10  1  0
 11 12  1  0
 11 13  1  0
 12 17  1  0
 13 14  1  0
 13 15  1  0
 15 16  1  0
 15 17  1  0
 17 18  1  0
 18 19  1  0
 18 27  1  0
 19 20  2  0
 20 21  1  0
 21 22  2  0
 21 27  1  0
 22 23  1  0
 22 24  1  0
 24 25  2  0
 25 26  1  0
 26 27  2  0
  1 28  1  0
  1 29  1  0
  1 30  1  0
  2 31  1  1
  6 32  1  0
  6 33  1  0
  7 34  1  0
  7 35  1  0
  8 36  1  6
  9 37  1  0
  9 38  1  0
  9 39  1  0
 10 40  1  0
 10 41  1  0
 11 42  1  6
 13 43  1  6
 14 44  1  0
 15 45  1  1
 16 46  1  0
 17 47  1  6
 19 48  1  0
 23 49  1  0
 23 50  1  0
 25 51  1  0
M  CHG  3   1   1   5  -1   9   1
M  END
>  <filename_input>  (4) 
7PL1_SFG_docked.sdf

>  <pdb_id>  (4) 
7PL1_SFG

>  <pose_rank>  (4) 
3

>  <num_atoms_heavy>  (4) 
27

>  <num_torsions>  (4) 
7

>  <pose>  (4) 
[44.521763233535815, -17.69100269204781, -8.44783484812408, -3.629809492333476, 3.3536325361592687, -2.6025926138445863, -2.9612185761938337, 4.995797938226847, -4.656737331315222, 6.508156329676642, 0.035110957779591404, 3.5966592304059173, -0.7546532444331666]

>  <energy>  (4) 
-636.9700013547168

>  <inter_energy>  (4) 
-669.4657056743624

>  <intra_energy>  (4) 
31.341874333709583

>  <rmsd>  (4) 
2.48034

>  <sdf_rank>  (4) 
0

$$$$

     RDKit          3D

 51 53  0  0  0  0  0  0  0  0999 V2000
   42.7408  -12.6535   -4.5219 N   0  0  0  0  0  0  0  0  0  0  0  0
   42.7768  -11.8509   -5.7465 C   0  0  2  0  0  0  0  0  0  0  0  0
   41.3695  -11.4073   -6.1487 C   0  0  0  0  0  0  0  0  0  0  0  0
   41.0817  -11.1280   -7.3447 O   0  0  0  0  0  0  0  0  0  0  0  0
   40.4695  -11.3347   -5.2706 O   0  0  0  0  0  0  0  0  0  0  0  0
   43.4299  -12.6315   -6.8968 C   0  0  0  0  0  0  0  0  0  0  0  0
   43.4375  -14.1358   -6.5995 C   0  0  0  0  0  0  0  0  0  0  0  0
   44.7185  -14.7918   -7.1170 C   0  0  2  0  0  0  0  0  0  0  0  0
   45.8702  -14.1071   -6.5286 N   0  0  0  0  0  0  0  0  0  0  0  0
   44.8053  -14.6351   -8.6366 C   0  0  0  0  0  0  0  0  0  0  0  0
   45.1197  -15.9695   -9.3678 C   0  0  1  0  0  0  0  0  0  0  0  0
   45.6476  -16.8235   -8.5061 O   0  0  0  0  0  0  0  0  0  0  0  0
   43.8419  -16.6410   -9.9252 C   0  0  1  0  0  0  0  0  0  0  0  0
   43.9838  -16.8933  -11.2655 O   0  0  0  0  0  0  0  0  0  0  0  0
   43.7584  -17.9302   -9.0893 C   0  0  1  0  0  0  0  0  0  0  0  0
   43.0439  -18.9935   -9.8445 O   0  0  0  0  0  0  0  0  0  0  0  0
   45.0156  -18.2483   -8.8348 C   0  0  2  0  0  0  0  0  0  0  0  0
   45.1631  -19.0600   -7.6491 N   0  0  0  0  0  0  0  0  0  0  0  0
   45.3038  -18.7030   -6.3590 C   0  0  0  0  0  0  0  0  0  0  0  0
   45.4075  -19.8085   -5.6178 N   0  0  0  0  0  0  0  0  0  0  0  0
   45.3377  -20.8591   -6.4585 C   0  0  0  0  0  0  0  0  0  0  0  0
   45.3862  -22.2103   -6.2143 C   0  0  0  0  0  0  0  0  0  0  0  0
   45.5341  -22.8703   -4.9386 N   0  0  0  0  0  0  0  0  0  0  0  0
   45.2819  -23.0774   -7.2122 N   0  0  0  0  0  0  0  0  0  0  0  0
   45.1449  -22.6194   -8.4815 C   0  0  0  0  0  0  0  0  0  0  0  0
   45.0919  -21.2892   -8.7307 N   0  0  0  0  0  0  0  0  0  0  0  0
   45.1900  -20.4062   -7.7088 C   0  0  0  0  0  0  0  0  0  0  0  0
   42.7687  -12.0305   -3.7021 H   0  0  0  0  0  0  0  0  0  0  0  0
   41.8741  -13.2096   -4.5012 H   0  0  0  0  0  0  0  0  0  0  0  0
   43.5544  -13.2849   -4.5012 H   0  0  0  0  0  0  0  0  0  0  0  0
   43.3832  -10.9564   -5.5412 H   0  0  0  0  0  0  0  0  0  0  0  0
   42.8643  -12.4498   -7.8226 H   0  0  0  0  0  0  0  0  0  0  0  0
   44.4692  -12.2893   -7.0093 H   0  0  0  0  0  0  0  0  0  0  0  0
   43.3699  -14.2877   -5.5121 H   0  0  0  0  0  0  0  0  0  0  0  0
   42.5782  -14.5973   -7.1081 H   0  0  0  0  0  0  0  0  0  0  0  0
   44.7119  -15.8582   -6.8472 H   0  0  0  0  0  0  0  0  0  0  0  0
   45.8048  -14.1460   -5.5014 H   0  0  0  0  0  0  0  0  0  0  0  0
   46.7380  -14.5696   -6.8352 H   0  0  0  0  0  0  0  0  0  0  0  0
   45.8785  -13.1238   -6.8352 H   0  0  0  0  0  0  0  0  0  0  0  0
   43.8422  -14.2520   -9.0050 H   0  0  0  0  0  0  0  0  0  0  0  0
   45.6318  -13.9410   -8.8490 H   0  0  0  0  0  0  0  0  0  0  0  0
   45.8034  -15.7297  -10.1954 H   0  0  0  0  0  0  0  0  0  0  0  0
   42.9311  -16.0290   -9.8482 H   0  0  0  0  0  0  0  0  0  0  0  0
   44.4652  -17.7492  -11.3910 H   0  0  0  0  0  0  0  0  0  0  0  0
   43.1883  -17.8022   -8.1573 H   0  0  0  0  0  0  0  0  0  0  0  0
   42.6210  -19.6229   -9.2080 H   0  0  0  0  0  0  0  0  0  0  0  0
   45.4645  -18.8168   -9.6626 H   0  0  0  0  0  0  0  0  0  0  0  0
   45.3291  -17.6712   -5.9785 H   0  0  0  0  0  0  0  0  0  0  0  0
   45.5562  -23.8990   -4.8905 H   0  0  0  0  0  0  0  0  0  0  0  0
   45.6175  -22.3125   -4.0768 H   0  0  0  0  0  0  0  0  0  0  0  0
   45.0764  -23.3339   -9.3150 H   0  0  0  0  0  0  0  0  0  0  0  0
  2  1  1  0
  2  3  1  0
  2  6  1  0
  3  4  2  0
  3  5  1  0
  6  7  1  0
  7  8  1  0
  8  9  1  0
  8 10  1  0
 11 10  1  0
 11 12  1  0
 11 13  1  0
 12 17  1  0
 13 14  1  0
 13 15  1  0
 15 16  1  0
 15 17  1  0
 17 18  1  0
 18 19  1  0
 18 27  1  0
 19 20  2  0
 20 21  1  0
 21 22  2  0
 21 27  1  0
 22 23  1  0
 22 24  1  0
 24 25  2  0
 25 26  1  0
 26 27  2  0
  1 28  1  0
  1 29  1  0
  1 30  1  0
  2 31  1  1
  6 32  1  0
  6 33  1  0
  7 34  1  0
  7 35  1  0
  8 36  1  6
  9 37  1  0
  9 38  1  0
  9 39  1  0
 10 40  1  0
 10 41  1  0
 11 42  1  6
 13 43  1  6
 14 44  1  0
 15 45  1  1
 16 46  1  0
 17 47  1  6
 19 48  1  0
 23 49  1  0
 23 50  1  0
 25 51  1  0
M  CHG  3   1   1   5  -1   9   1
M  END
>  <filename_input>  (5) 
7PL1_SFG_docked.sdf

>  <pdb_id>  (5) 
7PL1_SFG

>  <pose_rank>  (5) 
4

>  <num_atoms_heavy>  (5) 
27

>  <num_torsions>  (5) 
7

>  <pose>  (5) 
[45.119682905299804, -15.969495115512585, -9.367756313007675, -2.175296404206243, -1.1642921763988257, -2.6499084703942937, -0.8760545803902225, 3.002721756615128, -0.8784996517381524, -2.677876859496098, 0.7003272460180185, -0.7487393127370175, -2.701395478996405]

>  <energy>  (5) 
-628.3814174931935

>  <inter_energy>  (5) 
-631.6324604296252

>  <intra_energy>  (5) 
4.241598631046177

>  <rmsd>  (5) 
8.18315

>  <sdf_rank>  (5) 
0

$$$$

     RDKit          3D

 51 53  0  0  0  0  0  0  0  0999 V2000
   43.7993  -22.4138   -7.2016 N   0  0  0  0  0  0  0  0  0  0  0  0
   43.8069  -21.8551   -8.5555 C   0  0  2  0  0  0  0  0  0  0  0  0
   43.1882  -22.8355   -9.5530 C   0  0  0  0  0  0  0  0  0  0  0  0
   42.7284  -22.4475  -10.6616 O   0  0  0  0  0  0  0  0  0  0  0  0
   43.1510  -24.0627   -9.2717 O   0  0  0  0  0  0  0  0  0  0  0  0
   45.2339  -21.4922   -8.9926 C   0  0  0  0  0  0  0  0  0  0  0  0
   46.0536  -20.9759   -7.8039 C   0  0  0  0  0  0  0  0  0  0  0  0
   46.5608  -19.5563   -8.0612 C   0  0  2  0  0  0  0  0  0  0  0  0
   48.0218  -19.5546   -7.9771 N   0  0  0  0  0  0  0  0  0  0  0  0
   46.0276  -18.6105   -6.9830 C   0  0  0  0  0  0  0  0  0  0  0  0
   44.5686  -18.1473   -7.2491 C   0  0  1  0  0  0  0  0  0  0  0  0
   44.4615  -16.8604   -6.9608 O   0  0  0  0  0  0  0  0  0  0  0  0
   44.1738  -18.2984   -8.7376 C   0  0  1  0  0  0  0  0  0  0  0  0
   43.0262  -19.0400   -8.8519 O   0  0  0  0  0  0  0  0  0  0  0  0
   43.9754  -16.8361   -9.1736 C   0  0  1  0  0  0  0  0  0  0  0  0
   43.0092  -16.7568  -10.3013 O   0  0  0  0  0  0  0  0  0  0  0  0
   43.5398  -16.2179   -8.0898 C   0  0  2  0  0  0  0  0  0  0  0  0
   43.8123  -14.7994   -8.1016 N   0  0  0  0  0  0  0  0  0  0  0  0
   44.8857  -14.1207   -8.5473 C   0  0  0  0  0  0  0  0  0  0  0  0
   44.6824  -12.8169   -8.3442 N   0  0  0  0  0  0  0  0  0  0  0  0
   43.4748  -12.6888   -7.7606 C   0  0  0  0  0  0  0  0  0  0  0  0
   42.7889  -11.5712   -7.3505 C   0  0  0  0  0  0  0  0  0  0  0  0
   43.2121  -10.1940   -7.4440 N   0  0  0  0  0  0  0  0  0  0  0  0
   41.5859  -11.6843   -6.8038 N   0  0  0  0  0  0  0  0  0  0  0  0
   41.0437  -12.9161   -6.6352 C   0  0  0  0  0  0  0  0  0  0  0  0
   41.7112  -14.0227   -7.0405 N   0  0  0  0  0  0  0  0  0  0  0  0
   42.9356  -13.9035   -7.6063 C   0  0  0  0  0  0  0  0  0  0  0  0
   43.8097  -21.6472   -6.5138 H   0  0  0  0  0  0  0  0  0  0  0  0
   42.9504  -22.9821   -7.0695 H   0  0  0  0  0  0  0  0  0  0  0  0
   44.6323  -23.0051   -7.0695 H   0  0  0  0  0  0  0  0  0  0  0  0
   43.2007  -20.9374   -8.5409 H   0  0  0  0  0  0  0  0  0  0  0  0
   45.7227  -22.3866   -9.4063 H   0  0  0  0  0  0  0  0  0  0  0  0
   45.1784  -20.6994   -9.7532 H   0  0  0  0  0  0  0  0  0  0  0  0
   45.4203  -20.9738   -6.9045 H   0  0  0  0  0  0  0  0  0  0  0  0
   46.9212  -21.6373   -7.6637 H   0  0  0  0  0  0  0  0  0  0  0  0
   46.2213  -19.2264   -9.0542 H   0  0  0  0  0  0  0  0  0  0  0  0
   48.3087  -19.5543   -6.9878 H   0  0  0  0  0  0  0  0  0  0  0  0
   48.3934  -20.3952   -8.4421 H   0  0  0  0  0  0  0  0  0  0  0  0
   48.3915  -18.7132   -8.4421 H   0  0  0  0  0  0  0  0  0  0  0  0
   46.0591  -19.1303   -6.0141 H   0  0  0  0  0  0  0  0  0  0  0  0
   46.6638  -17.7132   -6.9887 H   0  0  0  0  0  0  0  0  0  0  0  0
   43.9132  -18.7741   -6.6266 H   0  0  0  0  0  0  0  0  0  0  0  0
   44.9138  -18.8262   -9.3572 H   0  0  0  0  0  0  0  0  0  0  0  0
   42.6847  -19.2607   -7.9493 H   0  0  0  0  0  0  0  0  0  0  0  0
   44.8987  -16.3700   -9.5483 H   0  0  0  0  0  0  0  0  0  0  0  0
   42.0894  -16.6814   -9.9430 H   0  0  0  0  0  0  0  0  0  0  0  0
   42.4517  -16.3278   -7.9714 H   0  0  0  0  0  0  0  0  0  0  0  0
   45.7821  -14.5664   -9.0032 H   0  0  0  0  0  0  0  0  0  0  0  0
   42.5996   -9.4422   -7.0968 H   0  0  0  0  0  0  0  0  0  0  0  0
   44.1266   -9.9632   -7.8580 H   0  0  0  0  0  0  0  0  0  0  0  0
   40.0541  -13.0170   -6.1656 H   0  0  0  0  0  0  0  0  0  0  0  0
  2  1  1  0
  2  3  1  0
  2  6  1  0
  3  4  2  0
  3  5  1  0
  6  7  1  0
  7  8  1  0
  8  9  1  0
  8 10  1  0
 11 10  1  0
 11 12  1  0
 11 13  1  0
 12 17  1  0
 13 14  1  0
 13 15  1  0
 15 16  1  0
 15 17  1  0
 17 18  1  0
 18 19  1  0
 18 27  1  0
 19 20  2  0
 20 21  1  0
 21 22  2  0
 21 27  1  0
 22 23  1  0
 22 24  1  0
 24 25  2  0
 25 26  1  0
 26 27  2  0
  1 28  1  0
  1 29  1  0
  1 30  1  0
  2 31  1  1
  6 32  1  0
  6 33  1  0
  7 34  1  0
  7 35  1  0
  8 36  1  6
  9 37  1  0
  9 38  1  0
  9 39  1  0
 10 40  1  0
 10 41  1  0
 11 42  1  1
 13 43  1  6
 14 44  1  0
 15 45  1  6
 16 46  1  0
 17 47  1  1
 19 48  1  0
 23 49  1  0
 23 50  1  0
 25 51  1  0
M  CHG  3   1   1   5  -1   9   1
M  END
>  <filename_input>  (6) 
7PL1_SFG_docked.sdf

>  <pdb_id>  (6) 
7PL1_SFG

>  <pose_rank>  (6) 
5

>  <num_atoms_heavy>  (6) 
27

>  <num_torsions>  (6) 
7

>  <pose>  (6) 
[44.56855999468505, -18.147266517413005, -7.249094409074205, -4.5179079759501946, -4.3355512283292486, -1.6826842682981002, -6.300122367503452, 7.205641842263132, -0.007637962413344648, 0.5045382659739035, 1.0925352362677851, -1.6893525291707943, 2.7737126298230277]

>  <energy>  (6) 
-758.2889112871223

>  <inter_energy>  (6) 
-778.6537556012479

>  <intra_energy>  (6) 
27.48698586035096

>  <rmsd>  (6) 
2.0109

>  <sdf_rank>  (6) 
0

$$$$

     RDKit          3D

 51 53  0  0  0  0  0  0  0  0999 V2000
   45.3415  -20.3101   -6.0498 N   0  0  0  0  0  0  0  0  0  0  0  0
   45.3776  -21.0311   -7.3241 C   0  0  2  0  0  0  0  0  0  0  0  0
   45.7543  -22.4978   -7.1099 C   0  0  0  0  0  0  0  0  0  0  0  0
   46.6441  -22.8370   -6.2827 O   0  0  0  0  0  0  0  0  0  0  0  0
   45.1516  -23.3922   -7.7604 O   0  0  0  0  0  0  0  0  0  0  0  0
   46.3640  -20.3731   -8.3005 C   0  0  0  0  0  0  0  0  0  0  0  0
   45.6521  -19.9468   -9.5900 C   0  0  0  0  0  0  0  0  0  0  0  0
   46.1587  -18.5873  -10.0739 C   0  0  2  0  0  0  0  0  0  0  0  0
   47.6038  -18.6714  -10.2885 N   0  0  0  0  0  0  0  0  0  0  0  0
   45.9046  -17.5262   -9.0011 C   0  0  0  0  0  0  0  0  0  0  0  0
   44.9046  -16.4283   -9.4578 C   0  0  1  0  0  0  0  0  0  0  0  0
   45.0508  -15.3605   -8.6903 O   0  0  0  0  0  0  0  0  0  0  0  0
   45.1734  -15.9659  -10.9098 C   0  0  1  0  0  0  0  0  0  0  0  0
   44.0332  -16.0779  -11.6630 O   0  0  0  0  0  0  0  0  0  0  0  0
   45.6069  -14.5027  -10.7123 C   0  0  1  0  0  0  0  0  0  0  0  0
   45.2951  -13.7004  -11.9250 O   0  0  0  0  0  0  0  0  0  0  0  0
   44.9367  -14.0937   -9.6492 C   0  0  2  0  0  0  0  0  0  0  0  0
   45.5753  -12.9904   -8.9699 N   0  0  0  0  0  0  0  0  0  0  0  0
   45.8130  -11.7315   -9.3825 C   0  0  0  0  0  0  0  0  0  0  0  0
   46.4345  -11.0702   -8.4032 N   0  0  0  0  0  0  0  0  0  0  0  0
   46.5892  -11.9308   -7.3781 C   0  0  0  0  0  0  0  0  0  0  0  0
   47.1564  -11.7592   -6.1385 C   0  0  0  0  0  0  0  0  0  0  0  0
   47.7581  -10.5608   -5.6032 N   0  0  0  0  0  0  0  0  0  0  0  0
   47.1858  -12.7600   -5.2689 N   0  0  0  0  0  0  0  0  0  0  0  0
   46.6669  -13.9630   -5.6195 C   0  0  0  0  0  0  0  0  0  0  0  0
   46.1020  -14.1396   -6.8378 N   0  0  0  0  0  0  0  0  0  0  0  0
   46.0656  -13.1135   -7.7205 C   0  0  0  0  0  0  0  0  0  0  0  0
   45.3753  -20.9849   -5.2724 H   0  0  0  0  0  0  0  0  0  0  0  0
   46.1518  -19.6770   -5.9903 H   0  0  0  0  0  0  0  0  0  0  0  0
   44.4719  -19.7612   -5.9903 H   0  0  0  0  0  0  0  0  0  0  0  0
   44.3692  -20.9862   -7.7613 H   0  0  0  0  0  0  0  0  0  0  0  0
   46.8066  -19.4865   -7.8230 H   0  0  0  0  0  0  0  0  0  0  0  0
   47.1471  -21.1025   -8.5550 H   0  0  0  0  0  0  0  0  0  0  0  0
   45.8405  -20.6990  -10.3702 H   0  0  0  0  0  0  0  0  0  0  0  0
   44.5745  -19.8654   -9.3842 H   0  0  0  0  0  0  0  0  0  0  0  0
   45.6357  -18.3174  -11.0031 H   0  0  0  0  0  0  0  0  0  0  0  0
   48.0850  -18.6994   -9.3782 H   0  0  0  0  0  0  0  0  0  0  0  0
   47.8229  -19.5266  -10.8191 H   0  0  0  0  0  0  0  0  0  0  0  0
   47.9206  -17.8474  -10.8191 H   0  0  0  0  0  0  0  0  0  0  0  0
   45.4970  -18.0217   -8.1076 H   0  0  0  0  0  0  0  0  0  0  0  0
   46.8648  -17.0310   -8.7942 H   0  0  0  0  0  0  0  0  0  0  0  0
   43.8961  -16.8621   -9.3879 H   0  0  0  0  0  0  0  0  0  0  0  0
   45.9268  -16.5595  -11.4483 H   0  0  0  0  0  0  0  0  0  0  0  0
   43.2485  -16.1550  -11.0643 H   0  0  0  0  0  0  0  0  0  0  0  0
   46.6908  -14.3920  -10.5610 H   0  0  0  0  0  0  0  0  0  0  0  0
   44.9502  -12.8129  -11.6538 H   0  0  0  0  0  0  0  0  0  0  0  0
   43.9242  -13.7556   -9.9148 H   0  0  0  0  0  0  0  0  0  0  0  0
   45.5404  -11.3163  -10.3639 H   0  0  0  0  0  0  0  0  0  0  0  0
   48.1512  -10.5630   -4.6511 H   0  0  0  0  0  0  0  0  0  0  0  0
   47.7942   -9.7038   -6.1733 H   0  0  0  0  0  0  0  0  0  0  0  0
   46.7050  -14.8018   -4.9089 H   0  0  0  0  0  0  0  0  0  0  0  0
  2  1  1  0
  2  3  1  0
  2  6  1  0
  3  4  2  0
  3  5  1  0
  6  7  1  0
  7  8  1  0
  8  9  1  0
  8 10  1  0
 11 10  1  0
 11 12  1  0
 11 13  1  0
 12 17  1  0
 13 14  1  0
 13 15  1  0
 15 16  1  0
 15 17  1  0
 17 18  1  0
 18 19  1  0
 18 27  1  0
 19 20  2  0
 20 21  1  0
 21 22  2  0
 21 27  1  0
 22 23  1  0
 22 24  1  0
 24 25  2  0
 25 26  1  0
 26 27  2  0
  1 28  1  0
  1 29  1  0
  1 30  1  0
  2 31  1  6
  6 32  1  0
  6 33  1  0
  7 34  1  0
  7 35  1  0
  8 36  1  6
  9 37  1  0
  9 38  1  0
  9 39  1  0
 10 40  1  0
 10 41  1  0
 11 42  1  6
 13 43  1  6
 14 44  1  0
 15 45  1  1
 16 46  1  0
 17 47  1  6
 19 48  1  0
 23 49  1  0
 23 50  1  0
 25 51  1  0
M  CHG  3   1   1   5  -1   9   1
M  END
>  <filename_input>  (7) 
7PL1_SFG_docked.sdf

>  <pdb_id>  (7) 
7PL1_SFG

>  <pose_rank>  (7) 
6

>  <num_atoms_heavy>  (7) 
27

>  <num_torsions>  (7) 
7

>  <pose>  (7) 
[44.90455280972915, -16.428265588646845, -9.457813519175174, -1.7925211773913345, 3.7153839850720423, 3.723636638552434, -4.506842615369295, 0.544134591026182, -0.6166597722426325, -2.642746009795072, -0.6397852809962878, -3.1948036726977715, -0.6980054377394587]

>  <energy>  (7) 
-385.33439563735

>  <inter_energy>  (7) 
-418.84972141279894

>  <intra_energy>  (7) 
36.300507287802176

>  <rmsd>  (7) 
3.0052

>  <sdf_rank>  (7) 
0

$$$$

     RDKit          3D

 51 53  0  0  0  0  0  0  0  0999 V2000
   49.2977  -17.4641  -13.1913 N   0  0  0  0  0  0  0  0  0  0  0  0
   48.2005  -18.4334  -13.2322 C   0  0  2  0  0  0  0  0  0  0  0  0
   47.6011  -18.5189  -14.6366 C   0  0  0  0  0  0  0  0  0  0  0  0
   47.4625  -19.6237  -15.2293 O   0  0  0  0  0  0  0  0  0  0  0  0
   47.2196  -17.4650  -15.2112 O   0  0  0  0  0  0  0  0  0  0  0  0
   47.1073  -18.0699  -12.2163 C   0  0  0  0  0  0  0  0  0  0  0  0
   47.4503  -18.6193  -10.8263 C   0  0  0  0  0  0  0  0  0  0  0  0
   47.3949  -17.5150   -9.7698 C   0  0  2  0  0  0  0  0  0  0  0  0
   48.7578  -17.0633   -9.4873 N   0  0  0  0  0  0  0  0  0  0  0  0
   46.8049  -18.0679   -8.4707 C   0  0  0  0  0  0  0  0  0  0  0  0
   45.3056  -17.7064   -8.2823 C   0  0  1  0  0  0  0  0  0  0  0  0
   45.2138  -16.5232   -7.6973 O   0  0  0  0  0  0  0  0  0  0  0  0
   44.5631  -17.5868   -9.6346 C   0  0  1  0  0  0  0  0  0  0  0  0
   43.4582  -18.3988   -9.6434 O   0  0  0  0  0  0  0  0  0  0  0  0
   44.1959  -16.0930   -9.6753 C   0  0  1  0  0  0  0  0  0  0  0  0
   42.9786  -15.8797  -10.5024 O   0  0  0  0  0  0  0  0  0  0  0  0
   44.0133  -15.7567   -8.4104 C   0  0  2  0  0  0  0  0  0  0  0  0
   44.2087  -14.3462   -8.1679 N   0  0  0  0  0  0  0  0  0  0  0  0
   45.2849  -13.5656   -8.3773 C   0  0  0  0  0  0  0  0  0  0  0  0
   44.9914  -12.3204   -7.9957 N   0  0  0  0  0  0  0  0  0  0  0  0
   43.7239  -12.3327   -7.5389 C   0  0  0  0  0  0  0  0  0  0  0  0
   42.9394  -11.3222   -7.0378 C   0  0  0  0  0  0  0  0  0  0  0  0
   43.2953   -9.9336   -6.8651 N   0  0  0  0  0  0  0  0  0  0  0  0
   41.6934  -11.5662   -6.6549 N   0  0  0  0  0  0  0  0  0  0  0  0
   41.2036  -12.8278   -6.7444 C   0  0  0  0  0  0  0  0  0  0  0  0
   41.9687  -13.8289   -7.2412 N   0  0  0  0  0  0  0  0  0  0  0  0
   43.2376  -13.5751   -7.6396 C   0  0  0  0  0  0  0  0  0  0  0  0
   49.5346  -17.2549  -12.2110 H   0  0  0  0  0  0  0  0  0  0  0  0
   50.1219  -17.8582  -13.6670 H   0  0  0  0  0  0  0  0  0  0  0  0
   49.0083  -16.5976  -13.6670 H   0  0  0  0  0  0  0  0  0  0  0  0
   48.6143  -19.4169  -12.9649 H   0  0  0  0  0  0  0  0  0  0  0  0
   47.0179  -16.9750  -12.1592 H   0  0  0  0  0  0  0  0  0  0  0  0
   46.1573  -18.5153  -12.5466 H   0  0  0  0  0  0  0  0  0  0  0  0
   46.7280  -19.4058  -10.5624 H   0  0  0  0  0  0  0  0  0  0  0  0
   48.4719  -19.0265  -10.8534 H   0  0  0  0  0  0  0  0  0  0  0  0
   46.7736  -16.6882  -10.1446 H   0  0  0  0  0  0  0  0  0  0  0  0
   48.8996  -17.0163   -8.4682 H   0  0  0  0  0  0  0  0  0  0  0  0
   49.4311  -17.7261   -9.8974 H   0  0  0  0  0  0  0  0  0  0  0  0
   48.9020  -16.1295   -9.8974 H   0  0  0  0  0  0  0  0  0  0  0  0
   46.9029  -19.1635   -8.4797 H   0  0  0  0  0  0  0  0  0  0  0  0
   47.3603  -17.6127   -7.6374 H   0  0  0  0  0  0  0  0  0  0  0  0
   44.8539  -18.5093   -7.6814 H   0  0  0  0  0  0  0  0  0  0  0  0
   45.1506  -17.9004  -10.5100 H   0  0  0  0  0  0  0  0  0  0  0  0
   43.1875  -18.5977   -8.7121 H   0  0  0  0  0  0  0  0  0  0  0  0
   44.9756  -15.4711  -10.1394 H   0  0  0  0  0  0  0  0  0  0  0  0
   42.1971  -15.7428   -9.9103 H   0  0  0  0  0  0  0  0  0  0  0  0
   42.9944  -15.9956   -8.0715 H   0  0  0  0  0  0  0  0  0  0  0  0
   46.2470  -13.8985   -8.7939 H   0  0  0  0  0  0  0  0  0  0  0  0
   42.6100   -9.2710   -6.4751 H   0  0  0  0  0  0  0  0  0  0  0  0
   44.2346   -9.6057   -7.1319 H   0  0  0  0  0  0  0  0  0  0  0  0
   40.1769  -13.0395   -6.4111 H   0  0  0  0  0  0  0  0  0  0  0  0
  2  1  1  0
  2  3  1  0
  2  6  1  0
  3  4  2  0
  3  5  1  0
  6  7  1  0
  7  8  1  0
  8  9  1  0
  8 10  1  0
 11 10  1  0
 11 12  1  0
 11 13  1  0
 12 17  1  0
 13 14  1  0
 13 15  1  0
 15 16  1  0
 15 17  1  0
 17 18  1  0
 18 19  1  0
 18 27  1  0
 19 20  2  0
 20 21  1  0
 21 22  2  0
 21 27  1  0
 22 23  1  0
 22 24  1  0
 24 25  2  0
 25 26  1  0
 26 27  2  0
  1 28  1  0
  1 29  1  0
  1 30  1  0
  2 31  1  1
  6 32  1  0
  6 33  1  0
  7 34  1  0
  7 35  1  0
  8 36  1  6
  9 37  1  0
  9 38  1  0
  9 39  1  0
 10 40  1  0
 10 41  1  0
 11 42  1  1
 13 43  1  6
 14 44  1  0
 15 45  1  6
 16 46  1  0
 17 47  1  1
 19 48  1  0
 23 49  1  0
 23 50  1  0
 25 51  1  0
M  CHG  3   1   1   5  -1   9   1
M  END
>  <filename_input>  (8) 
7PL1_SFG_docked.sdf

>  <pdb_id>  (8) 
7PL1_SFG

>  <pose_rank>  (8) 
7

>  <num_atoms_heavy>  (8) 
27

>  <num_torsions>  (8) 
7

>  <pose>  (8) 
[45.30564757198458, -17.706353373623188, -8.282346415489512, 3.6408031831269034, 5.16241111264511, 1.1419910423637674, -6.658523597997035, 8.11491199471517, -0.3473212059245001, 0.8773973544860522, -0.8630084823054613, -2.549545906331622, 2.2366417069407496]

>  <energy>  (8) 
-710.7409129911705

>  <inter_energy>  (8) 
-710.0422296121938

>  <intra_energy>  (8) 
11.087339461090085

>  <rmsd>  (8) 
4.72992

>  <sdf_rank>  (8) 
0

$$$$

     RDKit          3D

 51 53  0  0  0  0  0  0  0  0999 V2000
   42.6569  -14.1325   -6.9823 N   0  0  0  0  0  0  0  0  0  0  0  0
   43.8517  -13.3099   -6.7802 C   0  0  2  0  0  0  0  0  0  0  0  0
   43.5957  -11.8634   -7.2058 C   0  0  0  0  0  0  0  0  0  0  0  0
   42.5403  -11.5300   -7.8108 O   0  0  0  0  0  0  0  0  0  0  0  0
   44.4489  -10.9782   -6.9320 O   0  0  0  0  0  0  0  0  0  0  0  0
   45.0496  -13.8805   -7.5539 C   0  0  0  0  0  0  0  0  0  0  0  0
   44.6075  -15.0191   -8.4810 C   0  0  0  0  0  0  0  0  0  0  0  0
   45.3291  -16.3221   -8.1339 C   0  0  2  0  0  0  0  0  0  0  0  0
   45.9748  -16.1709   -6.8295 N   0  0  0  0  0  0  0  0  0  0  0  0
   46.4210  -16.6029   -9.1684 C   0  0  0  0  0  0  0  0  0  0  0  0
   45.9027  -17.3993  -10.3977 C   0  0  1  0  0  0  0  0  0  0  0  0
   46.2636  -18.6666  -10.2783 O   0  0  0  0  0  0  0  0  0  0  0  0
   44.3580  -17.3889  -10.4868 C   0  0  1  0  0  0  0  0  0  0  0  0
   43.9561  -16.9371  -11.7175 O   0  0  0  0  0  0  0  0  0  0  0  0
   44.0070  -18.8698  -10.2602 C   0  0  1  0  0  0  0  0  0  0  0  0
   42.7171  -19.2048  -10.9200 O   0  0  0  0  0  0  0  0  0  0  0  0
   45.0255  -19.5391  -10.7714 C   0  0  2  0  0  0  0  0  0  0  0  0
   45.1804  -20.8555  -10.1974 N   0  0  0  0  0  0  0  0  0  0  0  0
   44.9653  -22.0716  -10.7324 C   0  0  0  0  0  0  0  0  0  0  0  0
   45.2453  -22.9991   -9.8138 N   0  0  0  0  0  0  0  0  0  0  0  0
   45.6301  -22.3498   -8.6976 C   0  0  0  0  0  0  0  0  0  0  0  0
   46.0291  -22.8273   -7.4726 C   0  0  0  0  0  0  0  0  0  0  0  0
   46.1367  -24.2058   -7.0568 N   0  0  0  0  0  0  0  0  0  0  0  0
   46.3830  -21.9891   -6.5078 N   0  0  0  0  0  0  0  0  0  0  0  0
   46.3306  -20.6527   -6.7335 C   0  0  0  0  0  0  0  0  0  0  0  0
   45.9426  -20.1736   -7.9395 N   0  0  0  0  0  0  0  0  0  0  0  0
   45.5902  -21.0321   -8.9256 C   0  0  0  0  0  0  0  0  0  0  0  0
   42.2664  -14.4013   -6.0679 H   0  0  0  0  0  0  0  0  0  0  0  0
   41.9550  -13.5946   -7.5106 H   0  0  0  0  0  0  0  0  0  0  0  0
   42.9089  -14.9800   -7.5106 H   0  0  0  0  0  0  0  0  0  0  0  0
   44.0890  -13.3247   -5.7062 H   0  0  0  0  0  0  0  0  0  0  0  0
   45.5035  -13.0802   -8.1569 H   0  0  0  0  0  0  0  0  0  0  0  0
   45.7787  -14.2769   -6.8320 H   0  0  0  0  0  0  0  0  0  0  0  0
   43.5230  -15.1693   -8.3740 H   0  0  0  0  0  0  0  0  0  0  0  0
   44.8590  -14.7450   -9.5162 H   0  0  0  0  0  0  0  0  0  0  0  0
   44.6001  -17.1458   -8.1215 H   0  0  0  0  0  0  0  0  0  0  0  0
   45.2834  -16.3328   -6.0833 H   0  0  0  0  0  0  0  0  0  0  0  0
   46.7394  -16.8556   -6.7435 H   0  0  0  0  0  0  0  0  0  0  0  0
   46.3560  -15.2179   -6.7435 H   0  0  0  0  0  0  0  0  0  0  0  0
   46.8271  -15.6425   -9.5189 H   0  0  0  0  0  0  0  0  0  0  0  0
   47.1888  -17.2188   -8.6773 H   0  0  0  0  0  0  0  0  0  0  0  0
   46.3287  -16.9228  -11.2929 H   0  0  0  0  0  0  0  0  0  0  0  0
   43.8613  -16.7229   -9.7658 H   0  0  0  0  0  0  0  0  0  0  0  0
   43.3026  -16.2025  -11.6021 H   0  0  0  0  0  0  0  0  0  0  0  0
   43.8645  -19.1204   -9.1986 H   0  0  0  0  0  0  0  0  0  0  0  0
   42.0300  -19.3832  -10.2299 H   0  0  0  0  0  0  0  0  0  0  0  0
   44.9125  -19.6807  -11.8564 H   0  0  0  0  0  0  0  0  0  0  0  0
   44.6166  -22.2688  -11.7568 H   0  0  0  0  0  0  0  0  0  0  0  0
   46.4508  -24.4328   -6.1024 H   0  0  0  0  0  0  0  0  0  0  0  0
   45.8994  -24.9621   -7.7144 H   0  0  0  0  0  0  0  0  0  0  0  0
   46.6054  -19.9525   -5.9309 H   0  0  0  0  0  0  0  0  0  0  0  0
  2  1  1  0
  2  3  1  0
  2  6  1  0
  3  4  2  0
  3  5  1  0
  6  7  1  0
  7  8  1  0
  8  9  1  0
  8 10  1  0
 11 10  1  0
 11 12  1  0
 11 13  1  0
 12 17  1  0
 13 14  1  0
 13 15  1  0
 15 16  1  0
 15 17  1  0
 17 18  1  0
 18 19  1  0
 18 27  1  0
 19 20  2  0
 20 21  1  0
 21 22  2  0
 21 27  1  0
 22 23  1  0
 22 24  1  0
 24 25  2  0
 25 26  1  0
 26 27  2  0
  1 28  1  0
  1 29  1  0
  1 30  1  0
  2 31  1  1
  6 32  1  0
  6 33  1  0
  7 34  1  0
  7 35  1  0
  8 36  1  1
  9 37  1  0
  9 38  1  0
  9 39  1  0
 10 40  1  0
 10 41  1  0
 11 42  1  6
 13 43  1  1
 14 44  1  0
 15 45  1  1
 16 46  1  0
 17 47  1  6
 19 48  1  0
 23 49  1  0
 23 50  1  0
 25 51  1  0
M  CHG  3   1   1   5  -1   9   1
M  END
>  <filename_input>  (9) 
7PL1_SFG_docked.sdf

>  <pdb_id>  (9) 
7PL1_SFG

>  <pose_rank>  (9) 
8

>  <num_atoms_heavy>  (9) 
27

>  <num_torsions>  (9) 
7

>  <pose>  (9) 
[45.90270455781451, -17.399324421647684, -10.397655318162311, -2.7743730806905473, -0.2495263480250492, -1.9814110215064493, -3.722781736358963, 1.5651563874812606, -0.1303845452386579, -3.420083369816624, 1.099533614504182, -0.9248427290549194, -0.14785495857006992]

>  <energy>  (9) 
-499.74770450507987

>  <inter_energy>  (9) 
-534.4872363098824

>  <intra_energy>  (9) 
36.00117387143591

>  <rmsd>  (9) 
8.20608

>  <sdf_rank>  (9) 
0

$$$$

     RDKit          3D

 51 53  0  0  0  0  0  0  0  0999 V2000
   44.9734  -13.2354  -11.9291 N   0  0  0  0  0  0  0  0  0  0  0  0
   44.6656  -12.2511  -10.8891 C   0  0  2  0  0  0  0  0  0  0  0  0
   44.5284  -10.8506  -11.4879 C   0  0  0  0  0  0  0  0  0  0  0  0
   43.4017  -10.3030  -11.6358 O   0  0  0  0  0  0  0  0  0  0  0  0
   45.5641  -10.2188  -11.8265 O   0  0  0  0  0  0  0  0  0  0  0  0
   45.7440  -12.2510   -9.7955 C   0  0  0  0  0  0  0  0  0  0  0  0
   45.1503  -11.8346   -8.4443 C   0  0  0  0  0  0  0  0  0  0  0  0
   44.9920  -13.0413   -7.5182 C   0  0  2  0  0  0  0  0  0  0  0  0
   46.3205  -13.5472   -7.1710 N   0  0  0  0  0  0  0  0  0  0  0  0
   44.2394  -14.1584   -8.2443 C   0  0  0  0  0  0  0  0  0  0  0  0
   44.7152  -15.5788   -7.8319 C   0  0  1  0  0  0  0  0  0  0  0  0
   43.9792  -16.4827   -8.4579 O   0  0  0  0  0  0  0  0  0  0  0  0
   46.1823  -15.8429   -8.2468 C   0  0  1  0  0  0  0  0  0  0  0  0
   46.9193  -16.2390   -7.1605 O   0  0  0  0  0  0  0  0  0  0  0  0
   46.0302  -16.9602   -9.2939 C   0  0  1  0  0  0  0  0  0  0  0  0
   47.2611  -17.7929   -9.3473 O   0  0  0  0  0  0  0  0  0  0  0  0
   44.9714  -17.6470   -8.9018 C   0  0  2  0  0  0  0  0  0  0  0  0
   44.3302  -18.3603   -9.9819 N   0  0  0  0  0  0  0  0  0  0  0  0
   43.2945  -18.0087  -10.7662 C   0  0  0  0  0  0  0  0  0  0  0  0
   43.0552  -18.9992  -11.6289 N   0  0  0  0  0  0  0  0  0  0  0  0
   43.9468  -19.9757  -11.3704 C   0  0  0  0  0  0  0  0  0  0  0  0
   44.1380  -21.1988  -11.9664 C   0  0  0  0  0  0  0  0  0  0  0  0
   43.3952  -21.7691  -13.0654 N   0  0  0  0  0  0  0  0  0  0  0  0
   45.1037  -22.0060  -11.5487 N   0  0  0  0  0  0  0  0  0  0  0  0
   45.8920  -21.6222  -10.5138 C   0  0  0  0  0  0  0  0  0  0  0  0
   45.7132  -20.4165   -9.9234 N   0  0  0  0  0  0  0  0  0  0  0  0
   44.7319  -19.5907  -10.3578 C   0  0  0  0  0  0  0  0  0  0  0  0
   45.2513  -14.1243  -11.4891 H   0  0  0  0  0  0  0  0  0  0  0  0
   44.1400  -13.3881  -12.5148 H   0  0  0  0  0  0  0  0  0  0  0  0
   45.7453  -12.8861  -12.5148 H   0  0  0  0  0  0  0  0  0  0  0  0
   43.7053  -12.5358  -10.4344 H   0  0  0  0  0  0  0  0  0  0  0  0
   46.1677  -13.2623   -9.7068 H   0  0  0  0  0  0  0  0  0  0  0  0
   46.5273  -11.5304  -10.0732 H   0  0  0  0  0  0  0  0  0  0  0  0
   45.8185  -11.1017   -7.9686 H   0  0  0  0  0  0  0  0  0  0  0  0
   44.1571  -11.3952   -8.6192 H   0  0  0  0  0  0  0  0  0  0  0  0
   44.4375  -12.7354   -6.6188 H   0  0  0  0  0  0  0  0  0  0  0  0
   46.4168  -13.5839   -6.1462 H   0  0  0  0  0  0  0  0  0  0  0  0
   46.4405  -14.4929   -7.5612 H   0  0  0  0  0  0  0  0  0  0  0  0
   47.0391  -12.9210   -7.5612 H   0  0  0  0  0  0  0  0  0  0  0  0
   43.1679  -14.0668   -8.0133 H   0  0  0  0  0  0  0  0  0  0  0  0
   44.4389  -14.0441   -9.3200 H   0  0  0  0  0  0  0  0  0  0  0  0
   44.6220  -15.6445   -6.7378 H   0  0  0  0  0  0  0  0  0  0  0  0
   46.7126  -14.9640   -8.6422 H   0  0  0  0  0  0  0  0  0  0  0  0
   46.4454  -15.9843   -6.3295 H   0  0  0  0  0  0  0  0  0  0  0  0
   45.8942  -16.5762  -10.3157 H   0  0  0  0  0  0  0  0  0  0  0  0
   47.5620  -17.9965   -8.4264 H   0  0  0  0  0  0  0  0  0  0  0  0
   45.2350  -18.3978   -8.1423 H   0  0  0  0  0  0  0  0  0  0  0  0
   42.7375  -17.0621  -10.7064 H   0  0  0  0  0  0  0  0  0  0  0  0
   43.6403  -22.7035  -13.4229 H   0  0  0  0  0  0  0  0  0  0  0  0
   42.6201  -21.2416  -13.4919 H   0  0  0  0  0  0  0  0  0  0  0  0
   46.6827  -22.2955  -10.1513 H   0  0  0  0  0  0  0  0  0  0  0  0
  2  1  1  0
  2  3  1  0
  2  6  1  0
  3  4  2  0
  3  5  1  0
  6  7  1  0
  7  8  1  0
  8  9  1  0
  8 10  1  0
 11 10  1  0
 11 12  1  0
 11 13  1  0
 12 17  1  0
 13 14  1  0
 13 15  1  0
 15 16  1  0
 15 17  1  0
 17 18  1  0
 18 19  1  0
 18 27  1  0
 19 20  2  0
 20 21  1  0
 21 22  2  0
 21 27  1  0
 22 23  1  0
 22 24  1  0
 24 25  2  0
 25 26  1  0
 26 27  2  0
  1 28  1  0
  1 29  1  0
  1 30  1  0
  2 31  1  1
  6 32  1  0
  6 33  1  0
  7 34  1  0
  7 35  1  0
  8 36  1  1
  9 37  1  0
  9 38  1  0
  9 39  1  0
 10 40  1  0
 10 41  1  0
 11 42  1  1
 13 43  1  6
 14 44  1  0
 15 45  1  6
 16 46  1  0
 17 47  1  1
 19 48  1  0
 23 49  1  0
 23 50  1  0
 25 51  1  0
M  CHG  3   1   1   5  -1   9   1
M  END
>  <filename_input>  (10) 
7PL1_SFG_docked.sdf

>  <pdb_id>  (10) 
7PL1_SFG

>  <pose_rank>  (10) 
9

>  <num_atoms_heavy>  (10) 
27

>  <num_torsions>  (10) 
7

>  <pose>  (10) 
[44.715160015531765, -15.578837031018294, -7.831901714082737, 1.756464402682398, 1.163440354413949, -3.218123605299639, -1.0012703385288682, 0.15722760385109105, -2.332847146697062, 3.7873695971603656, -1.2425337627870987, 2.576144045024783, 1.842386872690507]

>  <energy>  (10) 
-353.4442590324578

>  <inter_energy>  (10) 
-429.6725882895006

>  <intra_energy>  (10) 
73.91037305557086

>  <rmsd>  (10) 
8.70844

>  <sdf_rank>  (10) 
0

$$$$

     RDKit          3D

 51 53  0  0  0  0  0  0  0  0999 V2000
   43.2513  -22.1092   -9.3797 N   0  0  0  0  0  0  0  0  0  0  0  0
   44.6089  -22.3284   -8.8756 C   0  0  2  0  0  0  0  0  0  0  0  0
   44.7775  -23.7618   -8.3697 C   0  0  0  0  0  0  0  0  0  0  0  0
   45.4404  -24.6171   -9.0178 O   0  0  0  0  0  0  0  0  0  0  0  0
   44.2581  -24.0950   -7.2716 O   0  0  0  0  0  0  0  0  0  0  0  0
   44.9469  -21.3333   -7.7554 C   0  0  0  0  0  0  0  0  0  0  0  0
   46.3638  -20.7741   -7.9322 C   0  0  0  0  0  0  0  0  0  0  0  0
   46.5887  -19.5541   -7.0378 C   0  0  2  0  0  0  0  0  0  0  0  0
   45.6408  -19.6043   -5.9240 N   0  0  0  0  0  0  0  0  0  0  0  0
   46.3164  -18.2728   -7.8285 C   0  0  0  0  0  0  0  0  0  0  0  0
   44.8153  -17.8719   -7.8370 C   0  0  1  0  0  0  0  0  0  0  0  0
   44.6904  -16.6441   -7.3601 O   0  0  0  0  0  0  0  0  0  0  0  0
   44.2287  -17.8490   -9.2687 C   0  0  1  0  0  0  0  0  0  0  0  0
   43.1109  -18.6403   -9.3369 O   0  0  0  0  0  0  0  0  0  0  0  0
   43.9068  -16.3574   -9.4666 C   0  0  1  0  0  0  0  0  0  0  0  0
   42.7933  -16.1908  -10.4382 O   0  0  0  0  0  0  0  0  0  0  0  0
   43.5953  -15.9173   -8.2600 C   0  0  2  0  0  0  0  0  0  0  0  0
   43.7992  -14.4954   -8.1083 N   0  0  0  0  0  0  0  0  0  0  0  0
   44.8141  -13.7109   -8.5158 C   0  0  0  0  0  0  0  0  0  0  0  0
   44.5603  -12.4543   -8.1431 N   0  0  0  0  0  0  0  0  0  0  0  0
   43.3805  -12.4632   -7.4923 C   0  0  0  0  0  0  0  0  0  0  0  0
   42.6650  -11.4421   -6.9150 C   0  0  0  0  0  0  0  0  0  0  0  0
   43.0169  -10.0430   -6.8564 N   0  0  0  0  0  0  0  0  0  0  0  0
   41.4994  -11.6852   -6.3311 N   0  0  0  0  0  0  0  0  0  0  0  0
   41.0259  -12.9556   -6.2916 C   0  0  0  0  0  0  0  0  0  0  0  0
   41.7227  -13.9673   -6.8619 N   0  0  0  0  0  0  0  0  0  0  0  0
   42.9084  -13.7147   -7.4651 C   0  0  0  0  0  0  0  0  0  0  0  0
   42.6031  -22.0046   -8.5861 H   0  0  0  0  0  0  0  0  0  0  0  0
   43.2321  -21.2542   -9.9538 H   0  0  0  0  0  0  0  0  0  0  0  0
   42.9641  -22.9147   -9.9538 H   0  0  0  0  0  0  0  0  0  0  0  0
   45.3053  -22.1652   -9.7112 H   0  0  0  0  0  0  0  0  0  0  0  0
   44.2259  -20.5030   -7.7811 H   0  0  0  0  0  0  0  0  0  0  0  0
   44.8931  -21.8579   -6.7901 H   0  0  0  0  0  0  0  0  0  0  0  0
   47.0935  -21.5535   -7.6672 H   0  0  0  0  0  0  0  0  0  0  0  0
   46.4904  -20.4671   -8.9808 H   0  0  0  0  0  0  0  0  0  0  0  0
   47.6270  -19.5599   -6.6743 H   0  0  0  0  0  0  0  0  0  0  0  0
   46.1565  -19.5770   -5.0328 H   0  0  0  0  0  0  0  0  0  0  0  0
   45.0050  -18.7958   -5.9777 H   0  0  0  0  0  0  0  0  0  0  0  0
   45.0939  -20.4754   -5.9777 H   0  0  0  0  0  0  0  0  0  0  0  0
   46.8954  -17.4532   -7.3780 H   0  0  0  0  0  0  0  0  0  0  0  0
   46.6127  -18.4604   -8.8711 H   0  0  0  0  0  0  0  0  0  0  0  0
   44.2799  -18.6162   -7.2292 H   0  0  0  0  0  0  0  0  0  0  0  0
   44.9004  -18.2420  -10.0461 H   0  0  0  0  0  0  0  0  0  0  0  0
   42.8040  -18.8575   -8.4211 H   0  0  0  0  0  0  0  0  0  0  0  0
   44.7483  -15.7881   -9.8882 H   0  0  0  0  0  0  0  0  0  0  0  0
   41.9431  -16.0636   -9.9472 H   0  0  0  0  0  0  0  0  0  0  0  0
   42.5396  -16.1108   -8.0190 H   0  0  0  0  0  0  0  0  0  0  0  0
   45.7052  -14.0492   -9.0649 H   0  0  0  0  0  0  0  0  0  0  0  0
   42.3886   -9.3730   -6.3903 H   0  0  0  0  0  0  0  0  0  0  0  0
   43.8962   -9.7150   -7.2807 H   0  0  0  0  0  0  0  0  0  0  0  0
   40.0685  -13.1659   -5.7925 H   0  0  0  0  0  0  0  0  0  0  0  0
  2  1  1  0
  2  3  1  0
  2  6  1  0
  3  4  2  0
  3  5  1  0
  6  7  1  0
  7  8  1  0
  8  9  1  0
  8 10  1  0
 11 10  1  0
 11 12  1  0
 11 13  1  0
 12 17  1  0
 13 14  1  0
 13 15  1  0
 15 16  1  0
 15 17  1  0
 17 18  1  0
 18 19  1  0
 18 27  1  0
 19 20  2  0
 20 21  1  0
 21 22  2  0
 21 27  1  0
 22 23  1  0
 22 24  1  0
 24 25  2  0
 25 26  1  0
 26 27  2  0
  1 28  1  0
  1 29  1  0
  1 30  1  0
  2 31  1  6
  6 32  1  0
  6 33  1  0
  7 34  1  0
  7 35  1  0
  8 36  1  1
  9 37  1  0
  9 38  1  0
  9 39  1  0
 10 40  1  0
 10 41  1  0
 11 42  1  1
 13 43  1  6
 14 44  1  0
 15 45  1  6
 16 46  1  0
 17 47  1  1
 19 48  1  0
 23 49  1  0
 23 50  1  0
 25 51  1  0
M  CHG  3   1   1   5  -1   9   1
M  END
>  <filename_input>  (11) 
7PL1_SFG_docked.sdf

>  <pdb_id>  (11) 
7PL1_SFG

>  <pose_rank>  (11) 
10

>  <num_atoms_heavy>  (11) 
27

>  <num_torsions>  (11) 
7

>  <pose>  (11) 
[44.81526174570276, -17.87193185519164, -7.837027045508521, -3.998286691620939, -1.7091746462926944, 4.5407909794771015, -0.10151266872437764, -0.7829209009331148, -3.393605306947147, 3.0236918844353093, -0.17606160846354862, 2.8235842485893397, 1.8626807025889647]

>  <energy>  (11) 
-921.1356915085842

>  <inter_energy>  (11) 
-916.4801033089302

>  <intra_energy>  (11) 
3.563257769319712

>  <rmsd>  (11) 
1.73555

>  <sdf_rank>  (11) 
0

$$$$

     RDKit          3D

 51 53  0  0  0  0  0  0  0  0999 V2000
   43.7865  -20.9289   -6.1774 N   0  0  0  0  0  0  0  0  0  0  0  0
   45.0725  -21.6288   -6.2171 C   0  0  2  0  0  0  0  0  0  0  0  0
   45.2755  -22.4676   -4.9545 C   0  0  0  0  0  0  0  0  0  0  0  0
   46.1936  -23.3289   -4.8744 O   0  0  0  0  0  0  0  0  0  0  0  0
   44.5210  -22.2845   -3.9627 O   0  0  0  0  0  0  0  0  0  0  0  0
   46.2337  -20.6369   -6.3807 C   0  0  0  0  0  0  0  0  0  0  0  0
   45.8227  -19.2347   -5.9154 C   0  0  0  0  0  0  0  0  0  0  0  0
   46.2516  -18.1719   -6.9280 C   0  0  2  0  0  0  0  0  0  0  0  0
   46.9955  -17.1249   -6.2266 N   0  0  0  0  0  0  0  0  0  0  0  0
   45.0160  -17.5270   -7.5594 C   0  0  0  0  0  0  0  0  0  0  0  0
   44.9031  -17.7964   -9.0854 C   0  0  1  0  0  0  0  0  0  0  0  0
   45.2428  -19.0512   -9.3317 O   0  0  0  0  0  0  0  0  0  0  0  0
   43.4539  -17.6244   -9.5996 C   0  0  1  0  0  0  0  0  0  0  0  0
   43.4228  -16.7386  -10.6457 O   0  0  0  0  0  0  0  0  0  0  0  0
   43.0871  -19.0557  -10.0294 C   0  0  1  0  0  0  0  0  0  0  0  0
   42.0581  -19.0282  -11.1026 O   0  0  0  0  0  0  0  0  0  0  0  0
   44.2269  -19.5878  -10.4350 C   0  0  2  0  0  0  0  0  0  0  0  0
   44.2367  -21.0299  -10.3532 N   0  0  0  0  0  0  0  0  0  0  0  0
   43.8805  -21.8493   -9.3467 C   0  0  0  0  0  0  0  0  0  0  0  0
   44.0654  -23.1126   -9.7372 N   0  0  0  0  0  0  0  0  0  0  0  0
   44.5478  -23.0735  -10.9947 C   0  0  0  0  0  0  0  0  0  0  0  0
   44.8995  -24.0861  -11.8541 C   0  0  0  0  0  0  0  0  0  0  0  0
   44.8403  -25.5082  -11.6113 N   0  0  0  0  0  0  0  0  0  0  0  0
   45.3455  -23.8091  -13.0719 N   0  0  0  0  0  0  0  0  0  0  0  0
   45.4697  -22.5147  -13.4577 C   0  0  0  0  0  0  0  0  0  0  0  0
   45.1212  -21.5104  -12.6183 N   0  0  0  0  0  0  0  0  0  0  0  0
   44.6579  -21.7966  -11.3786 C   0  0  0  0  0  0  0  0  0  0  0  0
   43.5082  -20.7774   -5.1974 H   0  0  0  0  0  0  0  0  0  0  0  0
   43.8756  -20.0199   -6.6535 H   0  0  0  0  0  0  0  0  0  0  0  0
   43.0715  -21.4972   -6.6535 H   0  0  0  0  0  0  0  0  0  0  0  0
   45.0599  -22.3004   -7.0883 H   0  0  0  0  0  0  0  0  0  0  0  0
   47.0884  -20.9802   -5.7793 H   0  0  0  0  0  0  0  0  0  0  0  0
   46.5086  -20.5886   -7.4447 H   0  0  0  0  0  0  0  0  0  0  0  0
   44.7293  -19.2005   -5.7998 H   0  0  0  0  0  0  0  0  0  0  0  0
   46.3191  -19.0249   -4.9565 H   0  0  0  0  0  0  0  0  0  0  0  0
   46.8702  -18.6436   -7.7057 H   0  0  0  0  0  0  0  0  0  0  0  0
   46.9005  -17.2587   -5.2098 H   0  0  0  0  0  0  0  0  0  0  0  0
   47.9904  -17.1767   -6.4882 H   0  0  0  0  0  0  0  0  0  0  0  0
   46.6193  -16.2025   -6.4882 H   0  0  0  0  0  0  0  0  0  0  0  0
   44.1194  -17.9294   -7.0652 H   0  0  0  0  0  0  0  0  0  0  0  0
   45.1068  -16.4392   -7.4232 H   0  0  0  0  0  0  0  0  0  0  0  0
   45.5631  -17.0749   -9.5893 H   0  0  0  0  0  0  0  0  0  0  0  0
   42.7506  -17.2130   -8.8606 H   0  0  0  0  0  0  0  0  0  0  0  0
   43.3904  -15.8137  -10.2941 H   0  0  0  0  0  0  0  0  0  0  0  0
   42.6434  -19.6485   -9.2160 H   0  0  0  0  0  0  0  0  0  0  0  0
   41.1564  -19.0040  -10.6946 H   0  0  0  0  0  0  0  0  0  0  0  0
   44.4429  -19.3310  -11.4825 H   0  0  0  0  0  0  0  0  0  0  0  0
   43.4999  -21.5310   -8.3650 H   0  0  0  0  0  0  0  0  0  0  0  0
   45.1356  -26.1686  -12.3445 H   0  0  0  0  0  0  0  0  0  0  0  0
   44.5028  -25.8623  -10.7049 H   0  0  0  0  0  0  0  0  0  0  0  0
   45.8564  -22.2787  -14.4600 H   0  0  0  0  0  0  0  0  0  0  0  0
  2  1  1  0
  2  3  1  0
  2  6  1  0
  3  4  2  0
  3  5  1  0
  6  7  1  0
  7  8  1  0
  8  9  1  0
  8 10  1  0
 11 10  1  0
 11 12  1  0
 11 13  1  0
 12 17  1  0
 13 14  1  0
 13 15  1  0
 15 16  1  0
 15 17  1  0
 17 18  1  0
 18 19  1  0
 18 27  1  0
 19 20  2  0
 20 21  1  0
 21 22  2  0
 21 27  1  0
 22 23  1  0
 22 24  1  0
 24 25  2  0
 25 26  1  0
 26 27  2  0
  1 28  1  0
  1 29  1  0
  1 30  1  0
  2 31  1  6
  6 32  1  0
  6 33  1  0
  7 34  1  0
  7 35  1  0
  8 36  1  6
  9 37  1  0
  9 38  1  0
  9 39  1  0
 10 40  1  0
 10 41  1  0
 11 42  1  6
 13 43  1  1
 14 44  1  0
 15 45  1  1
 16 46  1  0
 17 47  1  6
 19 48  1  0
 23 49  1  0
 23 50  1  0
 25 51  1  0
M  CHG  3   1   1   5  -1   9   1
M  END
>  <filename_input>  (12) 
7PL1_SFG_docked.sdf

>  <pdb_id>  (12) 
7PL1_SFG

>  <pose_rank>  (12) 
11

>  <num_atoms_heavy>  (12) 
27

>  <num_torsions>  (12) 
7

>  <pose>  (12) 
[44.90312974302981, -17.79637734446845, -9.085400617897507, -2.278324272448476, 0.21325672241725185, -2.1737453012737937, -6.479311743841791, 4.056686599334862, -0.6186193430201999, 0.3874517360708714, 0.8671866742686924, -0.6862745858239251, 2.9277797017071836]

>  <energy>  (12) 
-664.2011112549986

>  <inter_energy>  (12) 
-661.4119154652558

>  <intra_energy>  (12) 
11.518522704630866

>  <rmsd>  (12) 
7.44053

>  <sdf_rank>  (12) 
0

$$$$

     RDKit          3D

 51 53  0  0  0  0  0  0  0  0999 V2000
   45.0223  -23.2996   -7.4656 N   0  0  0  0  0  0  0  0  0  0  0  0
   45.8329  -22.6960   -6.4056 C   0  0  2  0  0  0  0  0  0  0  0  0
   44.9712  -22.3517   -5.1899 C   0  0  0  0  0  0  0  0  0  0  0  0
   43.7383  -22.6163   -5.1581 O   0  0  0  0  0  0  0  0  0  0  0  0
   45.5054  -21.8068   -4.1878 O   0  0  0  0  0  0  0  0  0  0  0  0
   46.5522  -21.4371   -6.9125 C   0  0  0  0  0  0  0  0  0  0  0  0
   45.7813  -20.7993   -8.0745 C   0  0  0  0  0  0  0  0  0  0  0  0
   46.5651  -19.6341   -8.6802 C   0  0  2  0  0  0  0  0  0  0  0  0
   47.9923  -19.8492   -8.4387 N   0  0  0  0  0  0  0  0  0  0  0  0
   46.1649  -18.3262   -7.9942 C   0  0  0  0  0  0  0  0  0  0  0  0
   44.6446  -18.0246   -8.1015 C   0  0  1  0  0  0  0  0  0  0  0  0
   44.4127  -16.7979   -7.6632 O   0  0  0  0  0  0  0  0  0  0  0  0
   44.1457  -18.0698   -9.5655 C   0  0  1  0  0  0  0  0  0  0  0  0
   43.0870  -18.9336   -9.6803 O   0  0  0  0  0  0  0  0  0  0  0  0
   43.7416  -16.6068   -9.8189 C   0  0  1  0  0  0  0  0  0  0  0  0
   42.6808  -16.5336  -10.8585 O   0  0  0  0  0  0  0  0  0  0  0  0
   43.3300  -16.1631   -8.6441 C   0  0  2  0  0  0  0  0  0  0  0  0
   43.4329  -14.7280   -8.5156 N   0  0  0  0  0  0  0  0  0  0  0  0
   42.4792  -13.7987   -8.3200 C   0  0  0  0  0  0  0  0  0  0  0  0
   43.0571  -12.5963   -8.2685 N   0  0  0  0  0  0  0  0  0  0  0  0
   44.3802  -12.7833   -8.4415 C   0  0  0  0  0  0  0  0  0  0  0  0
   45.4190  -11.8844   -8.4676 C   0  0  0  0  0  0  0  0  0  0  0  0
   45.3476  -10.4507   -8.3127 N   0  0  0  0  0  0  0  0  0  0  0  0
   46.6653  -12.3031   -8.6408 N   0  0  0  0  0  0  0  0  0  0  0  0
   46.9061  -13.6270   -8.8107 C   0  0  0  0  0  0  0  0  0  0  0  0
   45.8885  -14.5204   -8.7821 N   0  0  0  0  0  0  0  0  0  0  0  0
   44.6179  -14.0908   -8.5964 C   0  0  0  0  0  0  0  0  0  0  0  0
   44.2685  -23.8608   -7.0441 H   0  0  0  0  0  0  0  0  0  0  0  0
   44.6119  -22.5566   -8.0492 H   0  0  0  0  0  0  0  0  0  0  0  0
   45.6164  -23.9057   -8.0492 H   0  0  0  0  0  0  0  0  0  0  0  0
   46.5900  -23.4346   -6.1033 H   0  0  0  0  0  0  0  0  0  0  0  0
   46.6306  -20.7109   -6.0900 H   0  0  0  0  0  0  0  0  0  0  0  0
   47.5532  -21.7226   -7.2683 H   0  0  0  0  0  0  0  0  0  0  0  0
   45.6087  -21.5588   -8.8512 H   0  0  0  0  0  0  0  0  0  0  0  0
   44.8246  -20.4153   -7.6906 H   0  0  0  0  0  0  0  0  0  0  0  0
   46.3503  -19.5764   -9.7575 H   0  0  0  0  0  0  0  0  0  0  0  0
   48.1686  -19.8758   -7.4243 H   0  0  0  0  0  0  0  0  0  0  0  0
   48.2810  -20.7432   -8.8610 H   0  0  0  0  0  0  0  0  0  0  0  0
   48.5317  -19.0800   -8.8610 H   0  0  0  0  0  0  0  0  0  0  0  0
   46.4350  -18.3918   -6.9299 H   0  0  0  0  0  0  0  0  0  0  0  0
   46.6989  -17.5107   -8.5039 H   0  0  0  0  0  0  0  0  0  0  0  0
   44.1220  -18.7894   -7.5082 H   0  0  0  0  0  0  0  0  0  0  0  0
   44.8871  -18.4341  -10.2918 H   0  0  0  0  0  0  0  0  0  0  0  0
   42.7717  -19.1909   -8.7778 H   0  0  0  0  0  0  0  0  0  0  0  0
   44.5691  -15.9927  -10.2038 H   0  0  0  0  0  0  0  0  0  0  0  0
   41.7944  -16.4724  -10.4218 H   0  0  0  0  0  0  0  0  0  0  0  0
   42.2761  -16.4201   -8.4613 H   0  0  0  0  0  0  0  0  0  0  0  0
   41.4019  -13.9970   -8.2192 H   0  0  0  0  0  0  0  0  0  0  0  0
   46.2073   -9.8849   -8.3526 H   0  0  0  0  0  0  0  0  0  0  0  0
   44.4368   -9.9937   -8.1623 H   0  0  0  0  0  0  0  0  0  0  0  0
   47.9359  -13.9779   -8.9731 H   0  0  0  0  0  0  0  0  0  0  0  0
  2  1  1  0
  2  3  1  0
  2  6  1  0
  3  4  2  0
  3  5  1  0
  6  7  1  0
  7  8  1  0
  8  9  1  0
  8 10  1  0
 11 10  1  0
 11 12  1  0
 11 13  1  0
 12 17  1  0
 13 14  1  0
 13 15  1  0
 15 16  1  0
 15 17  1  0
 17 18  1  0
 18 19  1  0
 18 27  1  0
 19 20  2  0
 20 21  1  0
 21 22  2  0
 21 27  1  0
 22 23  1  0
 22 24  1  0
 24 25  2  0
 25 26  1  0
 26 27  2  0
  1 28  1  0
  1 29  1  0
  1 30  1  0
  2 31  1  1
  6 32  1  0
  6 33  1  0
  7 34  1  0
  7 35  1  0
  8 36  1  6
  9 37  1  0
  9 38  1  0
  9 39  1  0
 10 40  1  0
 10 41  1  0
 11 42  1  1
 13 43  1  6
 14 44  1  0
 15 45  1  6
 16 46  1  0
 17 47  1  1
 19 48  1  0
 23 49  1  0
 23 50  1  0
 25 51  1  0
M  CHG  3   1   1   5  -1   9   1
M  END
>  <filename_input>  (13) 
7PL1_SFG_docked.sdf

>  <pdb_id>  (13) 
7PL1_SFG

>  <pose_rank>  (13) 
12

>  <num_atoms_heavy>  (13) 
27

>  <num_torsions>  (13) 
7

>  <pose>  (13) 
[44.644552657627166, -18.024575351939454, -8.101475221403023, 1.6527346480196332, 4.004861001803544, -4.419267210728058, 21.555969034836057, -156.71655645908393, -351.46804502256725, -78.59702297804041, 69.28082764347488, 11.95056503659012, -6.245585856466955]

>  <energy>  (13) 
-579.7901074835017

>  <inter_energy>  (13) 
-601.7270799481223

>  <intra_energy>  (13) 
20.498563749535236

>  <rmsd>  (13) 
2.42335

>  <sdf_rank>  (13) 
0

$$$$

     RDKit          3D

 51 53  0  0  0  0  0  0  0  0999 V2000
   50.4360   -9.8445   -6.0577 N   0  0  0  0  0  0  0  0  0  0  0  0
   51.1517  -11.1217   -6.0968 C   0  0  2  0  0  0  0  0  0  0  0  0
   51.2224  -11.6632   -7.5253 C   0  0  0  0  0  0  0  0  0  0  0  0
   50.3565  -12.4645   -7.9715 O   0  0  0  0  0  0  0  0  0  0  0  0
   52.1564  -11.2886   -8.2829 O   0  0  0  0  0  0  0  0  0  0  0  0
   50.4843  -12.1546   -5.1765 C   0  0  0  0  0  0  0  0  0  0  0  0
   49.5917  -11.4637   -4.1385 C   0  0  0  0  0  0  0  0  0  0  0  0
   48.3165  -12.2696   -3.8868 C   0  0  2  0  0  0  0  0  0  0  0  0
   48.4799  -13.0382   -2.6523 N   0  0  0  0  0  0  0  0  0  0  0  0
   48.0939  -13.2610   -5.0309 C   0  0  0  0  0  0  0  0  0  0  0  0
   46.5932  -13.4532   -5.3846 C   0  0  1  0  0  0  0  0  0  0  0  0
   46.2017  -12.4639   -6.1710 O   0  0  0  0  0  0  0  0  0  0  0  0
   46.3451  -14.7633   -6.1698 C   0  0  1  0  0  0  0  0  0  0  0  0
   45.3872  -15.5184   -5.5436 O   0  0  0  0  0  0  0  0  0  0  0  0
   45.8795  -14.2403   -7.5400 C   0  0  1  0  0  0  0  0  0  0  0  0
   45.0004  -15.2383   -8.2054 O   0  0  0  0  0  0  0  0  0  0  0  0
   45.2494  -13.1099   -7.2724 C   0  0  2  0  0  0  0  0  0  0  0  0
   45.2222  -12.2002   -8.3941 N   0  0  0  0  0  0  0  0  0  0  0  0
   45.1914  -12.4464   -9.7169 C   0  0  0  0  0  0  0  0  0  0  0  0
   45.1770  -11.2815  -10.3690 N   0  0  0  0  0  0  0  0  0  0  0  0
   45.2067  -10.3056   -9.4405 C   0  0  0  0  0  0  0  0  0  0  0  0
   45.2015   -8.9381   -9.5736 C   0  0  0  0  0  0  0  0  0  0  0  0
   45.1648   -8.1721  -10.7970 N   0  0  0  0  0  0  0  0  0  0  0  0
   45.2209   -8.1587   -8.5009 N   0  0  0  0  0  0  0  0  0  0  0  0
   45.2647   -8.7227   -7.2681 C   0  0  0  0  0  0  0  0  0  0  0  0
   45.2658  -10.0698   -7.1277 N   0  0  0  0  0  0  0  0  0  0  0  0
   45.2370  -10.8631   -8.2246 C   0  0  0  0  0  0  0  0  0  0  0  0
   50.2809   -9.5677   -5.0777 H   0  0  0  0  0  0  0  0  0  0  0  0
   50.9955   -9.1227   -6.5339 H   0  0  0  0  0  0  0  0  0  0  0  0
   49.5282   -9.9449   -6.5339 H   0  0  0  0  0  0  0  0  0  0  0  0
   52.1754  -10.9414   -5.7369 H   0  0  0  0  0  0  0  0  0  0  0  0
   49.8701  -12.8353   -5.7842 H   0  0  0  0  0  0  0  0  0  0  0  0
   51.2696  -12.7154   -4.6484 H   0  0  0  0  0  0  0  0  0  0  0  0
   50.1475  -11.3663   -3.1943 H   0  0  0  0  0  0  0  0  0  0  0  0
   49.3090  -10.4731   -4.5242 H   0  0  0  0  0  0  0  0  0  0  0  0
   47.4626  -11.5799   -3.8135 H   0  0  0  0  0  0  0  0  0  0  0  0
   48.3479  -12.4172   -1.8412 H   0  0  0  0  0  0  0  0  0  0  0  0
   47.7808  -13.7941   -2.6234 H   0  0  0  0  0  0  0  0  0  0  0  0
   49.4260  -13.4442   -2.6234 H   0  0  0  0  0  0  0  0  0  0  0  0
   48.6196  -12.8902   -5.9232 H   0  0  0  0  0  0  0  0  0  0  0  0
   48.4817  -14.2361   -4.7012 H   0  0  0  0  0  0  0  0  0  0  0  0
   46.0395  -13.4803   -4.4345 H   0  0  0  0  0  0  0  0  0  0  0  0
   47.2205  -15.4250   -6.2465 H   0  0  0  0  0  0  0  0  0  0  0  0
   45.4914  -15.4363   -4.5625 H   0  0  0  0  0  0  0  0  0  0  0  0
   46.7104  -14.0715   -8.2408 H   0  0  0  0  0  0  0  0  0  0  0  0
   44.5293  -15.7731   -7.5183 H   0  0  0  0  0  0  0  0  0  0  0  0
   44.2021  -13.2885   -6.9872 H   0  0  0  0  0  0  0  0  0  0  0  0
   45.1801  -13.4425  -10.1834 H   0  0  0  0  0  0  0  0  0  0  0  0
   45.1649   -7.1428  -10.7603 H   0  0  0  0  0  0  0  0  0  0  0  0
   45.1385   -8.6550  -11.7064 H   0  0  0  0  0  0  0  0  0  0  0  0
   45.2995   -8.0809   -6.3754 H   0  0  0  0  0  0  0  0  0  0  0  0
  2  1  1  0
  2  3  1  0
  2  6  1  0
  3  4  2  0
  3  5  1  0
  6  7  1  0
  7  8  1  0
  8  9  1  0
  8 10  1  0
 11 10  1  0
 11 12  1  0
 11 13  1  0
 12 17  1  0
 13 14  1  0
 13 15  1  0
 15 16  1  0
 15 17  1  0
 17 18  1  0
 18 19  1  0
 18 27  1  0
 19 20  2  0
 20 21  1  0
 21 22  2  0
 21 27  1  0
 22 23  1  0
 22 24  1  0
 24 25  2  0
 25 26  1  0
 26 27  2  0
  1 28  1  0
  1 29  1  0
  1 30  1  0
  2 31  1  1
  6 32  1  0
  6 33  1  0
  7 34  1  0
  7 35  1  0
  8 36  1  1
  9 37  1  0
  9 38  1  0
  9 39  1  0
 10 40  1  0
 10 41  1  0
 11 42  1  1
 13 43  1  6
 14 44  1  0
 15 45  1  6
 16 46  1  0
 17 47  1  1
 19 48  1  0
 23 49  1  0
 23 50  1  0
 25 51  1  0
M  CHG  3   1   1   5  -1   9   1
M  END
>  <filename_input>  (14) 
7PL1_SFG_docked.sdf

>  <pdb_id>  (14) 
7PL1_SFG

>  <pose_rank>  (14) 
13

>  <num_atoms_heavy>  (14) 
27

>  <num_torsions>  (14) 
7

>  <pose>  (14) 
[46.593245702613785, -13.453243860998697, -5.384563840900075, 5.050483468607879, 0.6988878565791062, -1.2102220451653503, 1.196884224412286, -1.5115630956752149, -1.110841860553426, -1.911059369727051, -0.6022433296891646, -1.4141178340915814, -1.617820810719686]

>  <energy>  (14) 
-233.51888797951327

>  <inter_energy>  (14) 
-261.3348761048097

>  <intra_energy>  (14) 
22.479313083073656

>  <rmsd>  (14) 
7.5068

>  <sdf_rank>  (14) 
0

$$$$

     RDKit          3D

 51 53  0  0  0  0  0  0  0  0999 V2000
   46.8573  -23.3422   -4.9657 N   0  0  0  0  0  0  0  0  0  0  0  0
   45.6744  -22.6643   -5.5008 C   0  0  2  0  0  0  0  0  0  0  0  0
   44.6981  -22.3057   -4.3796 C   0  0  0  0  0  0  0  0  0  0  0  0
   44.9969  -21.4658   -3.4872 O   0  0  0  0  0  0  0  0  0  0  0  0
   43.5610  -22.8469   -4.3533 O   0  0  0  0  0  0  0  0  0  0  0  0
   44.9697  -23.5351   -6.5517 C   0  0  0  0  0  0  0  0  0  0  0  0
   45.1210  -22.9290   -7.9522 C   0  0  0  0  0  0  0  0  0  0  0  0
   44.0541  -23.4717   -8.9041 C   0  0  2  0  0  0  0  0  0  0  0  0
   43.6520  -24.8041   -8.4520 N   0  0  0  0  0  0  0  0  0  0  0  0
   44.6360  -23.6097  -10.3125 C   0  0  0  0  0  0  0  0  0  0  0  0
   44.7495  -22.2515  -11.0585 C   0  0  1  0  0  0  0  0  0  0  0  0
   44.4566  -21.2698  -10.2212 O   0  0  0  0  0  0  0  0  0  0  0  0
   46.1878  -21.9846  -11.5627 C   0  0  1  0  0  0  0  0  0  0  0  0
   46.1784  -21.7205  -12.9082 O   0  0  0  0  0  0  0  0  0  0  0  0
   46.6064  -20.7628  -10.7261 C   0  0  1  0  0  0  0  0  0  0  0  0
   47.6269  -19.9611  -11.4523 O   0  0  0  0  0  0  0  0  0  0  0  0
   45.4854  -20.0923  -10.5254 C   0  0  2  0  0  0  0  0  0  0  0  0
   45.5313  -19.2563   -9.3483 N   0  0  0  0  0  0  0  0  0  0  0  0
   46.1384  -19.4508   -8.1630 C   0  0  0  0  0  0  0  0  0  0  0  0
   45.8969  -18.3966   -7.3802 N   0  0  0  0  0  0  0  0  0  0  0  0
   45.1267  -17.5455   -8.0857 C   0  0  0  0  0  0  0  0  0  0  0  0
   44.6047  -16.3190   -7.7526 C   0  0  0  0  0  0  0  0  0  0  0  0
   44.7557  -15.6064   -6.5060 N   0  0  0  0  0  0  0  0  0  0  0  0
   43.8734  -15.6404   -8.6264 N   0  0  0  0  0  0  0  0  0  0  0  0
   43.6283  -16.1756   -9.8483 C   0  0  0  0  0  0  0  0  0  0  0  0
   44.1425  -17.3821  -10.1865 N   0  0  0  0  0  0  0  0  0  0  0  0
   44.8961  -18.0688   -9.2954 C   0  0  0  0  0  0  0  0  0  0  0  0
   46.8268  -23.3247   -3.9363 H   0  0  0  0  0  0  0  0  0  0  0  0
   46.8704  -24.3190   -5.2923 H   0  0  0  0  0  0  0  0  0  0  0  0
   47.7066  -22.8596   -5.2923 H   0  0  0  0  0  0  0  0  0  0  0  0
   46.0123  -21.7359   -5.9844 H   0  0  0  0  0  0  0  0  0  0  0  0
   45.4153  -24.5408   -6.5440 H   0  0  0  0  0  0  0  0  0  0  0  0
   43.8992  -23.5884   -6.3046 H   0  0  0  0  0  0  0  0  0  0  0  0
   45.0191  -21.8359   -7.8837 H   0  0  0  0  0  0  0  0  0  0  0  0
   46.1117  -23.2006   -8.3457 H   0  0  0  0  0  0  0  0  0  0  0  0
   43.1969  -22.7824   -8.9157 H   0  0  0  0  0  0  0  0  0  0  0  0
   43.6443  -24.8296   -7.4223 H   0  0  0  0  0  0  0  0  0  0  0  0
   42.7092  -25.0174   -8.8077 H   0  0  0  0  0  0  0  0  0  0  0  0
   44.3195  -25.5033   -8.8077 H   0  0  0  0  0  0  0  0  0  0  0  0
   45.6402  -24.0520  -10.2350 H   0  0  0  0  0  0  0  0  0  0  0  0
   43.9502  -24.2463  -10.8908 H   0  0  0  0  0  0  0  0  0  0  0  0
   44.0593  -22.2954  -11.9139 H   0  0  0  0  0  0  0  0  0  0  0  0
   46.8795  -22.8320  -11.4464 H   0  0  0  0  0  0  0  0  0  0  0  0
   46.1432  -20.7417  -13.0521 H   0  0  0  0  0  0  0  0  0  0  0  0
   47.0777  -21.0369   -9.7707 H   0  0  0  0  0  0  0  0  0  0  0  0
   48.2117  -19.5016  -10.7989 H   0  0  0  0  0  0  0  0  0  0  0  0
   45.2531  -19.4300  -11.3723 H   0  0  0  0  0  0  0  0  0  0  0  0
   46.7349  -20.3323   -7.8852 H   0  0  0  0  0  0  0  0  0  0  0  0
   44.3100  -14.6862   -6.3815 H   0  0  0  0  0  0  0  0  0  0  0  0
   45.3091  -16.0182   -5.7411 H   0  0  0  0  0  0  0  0  0  0  0  0
   43.0070  -15.6254  -10.5704 H   0  0  0  0  0  0  0  0  0  0  0  0
  2  1  1  0
  2  3  1  0
  2  6  1  0
  3  4  2  0
  3  5  1  0
  6  7  1  0
  7  8  1  0
  8  9  1  0
  8 10  1  0
 11 10  1  0
 11 12  1  0
 11 13  1  0
 12 17  1  0
 13 14  1  0
 13 15  1  0
 15 16  1  0
 15 17  1  0
 17 18  1  0
 18 19  1  0
 18 27  1  0
 19 20  2  0
 20 21  1  0
 21 22  2  0
 21 27  1  0
 22 23  1  0
 22 24  1  0
 24 25  2  0
 25 26  1  0
 26 27  2  0
  1 28  1  0
  1 29  1  0
  1 30  1  0
  2 31  1  6
  6 32  1  0
  6 33  1  0
  7 34  1  0
  7 35  1  0
  8 36  1  6
  9 37  1  0
  9 38  1  0
  9 39  1  0
 10 40  1  0
 10 41  1  0
 11 42  1  6
 13 43  1  6
 14 44  1  0
 15 45  1  1
 16 46  1  0
 17 47  1  6
 19 48  1  0
 23 49  1  0
 23 50  1  0
 25 51  1  0
M  CHG  3   1   1   5  -1   9   1
M  END
>  <filename_input>  (15) 
7PL1_SFG_docked.sdf

>  <pdb_id>  (15) 
7PL1_SFG

>  <pose_rank>  (15) 
14

>  <num_atoms_heavy>  (15) 
27

>  <num_torsions>  (15) 
7

>  <pose>  (15) 
[44.74949843249314, -22.251523620209124, -11.058482779374868, 0.511920647589843, -1.4460482029501482, -0.7464669968556653, 0.03980506240326229, 3.4753041021061497, 0.05875866344654495, -4.132859708739762, 0.4108144406309093, 3.2756133490770027, 1.150973015779908]

>  <energy>  (15) 
-571.198351071524

>  <inter_energy>  (15) 
-575.0352775214463

>  <intra_energy>  (15) 
16.05406861591697

>  <rmsd>  (15) 
5.04821

>  <sdf_rank>  (15) 
0

$$$$

     RDKit          3D

 51 53  0  0  0  0  0  0  0  0999 V2000
   43.8855  -24.1711   -6.2412 N   0  0  0  0  0  0  0  0  0  0  0  0
   45.2662  -23.7721   -6.5234 C   0  0  2  0  0  0  0  0  0  0  0  0
   45.7721  -22.7806   -5.4746 C   0  0  0  0  0  0  0  0  0  0  0  0
   47.0012  -22.6608   -5.2177 O   0  0  0  0  0  0  0  0  0  0  0  0
   44.9461  -22.0523   -4.8633 O   0  0  0  0  0  0  0  0  0  0  0  0
   45.3856  -23.1586   -7.9264 C   0  0  0  0  0  0  0  0  0  0  0  0
   44.0430  -23.2206   -8.6647 C   0  0  0  0  0  0  0  0  0  0  0  0
   43.8649  -22.0114   -9.5839 C   0  0  2  0  0  0  0  0  0  0  0  0
   43.7909  -22.4782  -10.9688 N   0  0  0  0  0  0  0  0  0  0  0  0
   45.0772  -21.0852   -9.4651 C   0  0  0  0  0  0  0  0  0  0  0  0
   45.1645  -20.0481  -10.6187 C   0  0  1  0  0  0  0  0  0  0  0  0
   44.3894  -19.0144  -10.3336 O   0  0  0  0  0  0  0  0  0  0  0  0
   46.5972  -19.4892  -10.7896 C   0  0  1  0  0  0  0  0  0  0  0  0
   47.0195  -19.6519  -12.0839 O   0  0  0  0  0  0  0  0  0  0  0  0
   46.4182  -18.0086  -10.4107 C   0  0  1  0  0  0  0  0  0  0  0  0
   47.4392  -17.1705  -11.0939 O   0  0  0  0  0  0  0  0  0  0  0  0
   45.1864  -17.7116  -10.7862 C   0  0  2  0  0  0  0  0  0  0  0  0
   44.6269  -16.5984  -10.0553 N   0  0  0  0  0  0  0  0  0  0  0  0
   43.5745  -15.8087  -10.3391 C   0  0  0  0  0  0  0  0  0  0  0  0
   43.4396  -14.9081   -9.3628 N   0  0  0  0  0  0  0  0  0  0  0  0
   44.4226  -15.1384   -8.4706 C   0  0  0  0  0  0  0  0  0  0  0  0
   44.7305  -14.5072   -7.2897 C   0  0  0  0  0  0  0  0  0  0  0  0
   44.0484  -13.3872   -6.6855 N   0  0  0  0  0  0  0  0  0  0  0  0
   45.7533  -14.9206   -6.5538 N   0  0  0  0  0  0  0  0  0  0  0  0
   46.5068  -15.9625   -6.9855 C   0  0  0  0  0  0  0  0  0  0  0  0
   46.2078  -16.5931   -8.1462 N   0  0  0  0  0  0  0  0  0  0  0  0
   45.1575  -16.1743   -8.8912 C   0  0  0  0  0  0  0  0  0  0  0  0
   43.7416  -24.2126   -5.2222 H   0  0  0  0  0  0  0  0  0  0  0  0
   43.2385  -23.4826   -6.6516 H   0  0  0  0  0  0  0  0  0  0  0  0
   43.7054  -25.0985   -6.6516 H   0  0  0  0  0  0  0  0  0  0  0  0
   45.8898  -24.6774   -6.4825 H   0  0  0  0  0  0  0  0  0  0  0  0
   45.6986  -22.1080   -7.8350 H   0  0  0  0  0  0  0  0  0  0  0  0
   46.1295  -23.7316   -8.4993 H   0  0  0  0  0  0  0  0  0  0  0  0
   44.0069  -24.1394   -9.2684 H   0  0  0  0  0  0  0  0  0  0  0  0
   43.2337  -23.2159   -7.9198 H   0  0  0  0  0  0  0  0  0  0  0  0
   42.9492  -21.4730   -9.2983 H   0  0  0  0  0  0  0  0  0  0  0  0
   43.6296  -23.4955  -10.9801 H   0  0  0  0  0  0  0  0  0  0  0  0
   43.0149  -22.0022  -11.4506 H   0  0  0  0  0  0  0  0  0  0  0  0
   44.6761  -22.2657  -11.4506 H   0  0  0  0  0  0  0  0  0  0  0  0
   45.0116  -20.5428   -8.5104 H   0  0  0  0  0  0  0  0  0  0  0  0
   45.9781  -21.7140   -9.5192 H   0  0  0  0  0  0  0  0  0  0  0  0
   44.8559  -20.5643  -11.5397 H   0  0  0  0  0  0  0  0  0  0  0  0
   47.3615  -19.9912  -10.1782 H   0  0  0  0  0  0  0  0  0  0  0  0
   47.9433  -20.0078  -12.0873 H   0  0  0  0  0  0  0  0  0  0  0  0
   46.5585  -17.8197   -9.3361 H   0  0  0  0  0  0  0  0  0  0  0  0
   47.9972  -16.7125  -10.4164 H   0  0  0  0  0  0  0  0  0  0  0  0
   45.1424  -17.4419  -11.8517 H   0  0  0  0  0  0  0  0  0  0  0  0
   42.9320  -15.8917  -11.2280 H   0  0  0  0  0  0  0  0  0  0  0  0
   44.3819  -13.0034   -5.7897 H   0  0  0  0  0  0  0  0  0  0  0  0
   43.2282  -12.9720   -7.1502 H   0  0  0  0  0  0  0  0  0  0  0  0
   47.3675  -16.2979   -6.3882 H   0  0  0  0  0  0  0  0  0  0  0  0
  2  1  1  0
  2  3  1  0
  2  6  1  0
  3  4  2  0
  3  5  1  0
  6  7  1  0
  7  8  1  0
  8  9  1  0
  8 10  1  0
 11 10  1  0
 11 12  1  0
 11 13  1  0
 12 17  1  0
 13 14  1  0
 13 15  1  0
 15 16  1  0
 15 17  1  0
 17 18  1  0
 18 19  1  0
 18 27  1  0
 19 20  2  0
 20 21  1  0
 21 22  2  0
 21 27  1  0
 22 23  1  0
 22 24  1  0
 24 25  2  0
 25 26  1  0
 26 27  2  0
  1 28  1  0
  1 29  1  0
  1 30  1  0
  2 31  1  6
  6 32  1  0
  6 33  1  0
  7 34  1  0
  7 35  1  0
  8 36  1  1
  9 37  1  0
  9 38  1  0
  9 39  1  0
 10 40  1  0
 10 41  1  0
 11 42  1  6
 13 43  1  1
 14 44  1  0
 15 45  1  1
 16 46  1  0
 17 47  1  6
 19 48  1  0
 23 49  1  0
 23 50  1  0
 25 51  1  0
M  CHG  3   1   1   5  -1   9   1
M  END
>  <filename_input>  (16) 
7PL1_SFG_docked.sdf

>  <pdb_id>  (16) 
7PL1_SFG

>  <pose_rank>  (16) 
15

>  <num_atoms_heavy>  (16) 
27

>  <num_torsions>  (16) 
7

>  <pose>  (16) 
[45.16447688421589, -20.0481093328972, -10.618686501449185, 0.5604918692380585, -1.7219894067056696, -0.17325171647038173, -2.8045803995508796, 11.080945834815914, 10.558814754811934, -7.902834961885173, -0.5224991050520774, -1.1370540708436963, 2.702111334404014]

>  <energy>  (16) 
-506.89242931464855

>  <inter_energy>  (16) 
-539.1582561980897

>  <intra_energy>  (16) 
35.507759865726385

>  <rmsd>  (16) 
3.79692

>  <sdf_rank>  (16) 
0

$$$$

     RDKit          3D

 51 53  0  0  0  0  0  0  0  0999 V2000
   44.2236  -11.8959   -8.1598 N   0  0  0  0  0  0  0  0  0  0  0  0
   42.9564  -12.2185   -7.5002 C   0  0  2  0  0  0  0  0  0  0  0  0
   42.2706  -10.9511   -6.9878 C   0  0  0  0  0  0  0  0  0  0  0  0
   42.5134   -9.8198   -7.4902 O   0  0  0  0  0  0  0  0  0  0  0  0
   41.4299  -11.0375   -6.0539 O   0  0  0  0  0  0  0  0  0  0  0  0
   43.1745  -13.2024   -6.3411 C   0  0  0  0  0  0  0  0  0  0  0  0
   44.5811  -13.8103   -6.3993 C   0  0  0  0  0  0  0  0  0  0  0  0
   44.5170  -15.3295   -6.5629 C   0  0  2  0  0  0  0  0  0  0  0  0
   44.5388  -15.9482   -5.2369 N   0  0  0  0  0  0  0  0  0  0  0  0
   45.7455  -15.8218   -7.3307 C   0  0  0  0  0  0  0  0  0  0  0  0
   45.4225  -16.2338   -8.7936 C   0  0  1  0  0  0  0  0  0  0  0  0
   45.9656  -17.4143   -9.0428 O   0  0  0  0  0  0  0  0  0  0  0  0
   43.9014  -16.3912   -9.0299 C   0  0  1  0  0  0  0  0  0  0  0  0
   43.5029  -15.6183  -10.0901 O   0  0  0  0  0  0  0  0  0  0  0  0
   43.7689  -17.8971   -9.3167 C   0  0  1  0  0  0  0  0  0  0  0  0
   42.5830  -18.1601  -10.1747 O   0  0  0  0  0  0  0  0  0  0  0  0
   44.9038  -18.2285   -9.9072 C   0  0  2  0  0  0  0  0  0  0  0  0
   45.2265  -19.6291   -9.7635 N   0  0  0  0  0  0  0  0  0  0  0  0
   45.6240  -20.5315  -10.6794 C   0  0  0  0  0  0  0  0  0  0  0  0
   45.8015  -21.7075  -10.0729 N   0  0  0  0  0  0  0  0  0  0  0  0
   45.5035  -21.5323   -8.7706 C   0  0  0  0  0  0  0  0  0  0  0  0
   45.5262  -22.4139   -7.7170 C   0  0  0  0  0  0  0  0  0  0  0  0
   45.8880  -23.8114   -7.7452 N   0  0  0  0  0  0  0  0  0  0  0  0
   45.2010  -22.0103   -6.4964 N   0  0  0  0  0  0  0  0  0  0  0  0
   44.8270  -20.7217   -6.2980 C   0  0  0  0  0  0  0  0  0  0  0  0
   44.8060  -19.8450   -7.3302 N   0  0  0  0  0  0  0  0  0  0  0  0
   45.1469  -20.2578   -8.5739 C   0  0  0  0  0  0  0  0  0  0  0  0
   44.9445  -11.7124   -7.4473 H   0  0  0  0  0  0  0  0  0  0  0  0
   44.5163  -12.6892   -8.7479 H   0  0  0  0  0  0  0  0  0  0  0  0
   44.1013  -11.0592   -8.7479 H   0  0  0  0  0  0  0  0  0  0  0  0
   42.3039  -12.6953   -8.2465 H   0  0  0  0  0  0  0  0  0  0  0  0
   43.0516  -12.6686   -5.3872 H   0  0  0  0  0  0  0  0  0  0  0  0
   42.4363  -14.0137   -6.4241 H   0  0  0  0  0  0  0  0  0  0  0  0
   45.1238  -13.3794   -7.2536 H   0  0  0  0  0  0  0  0  0  0  0  0
   45.1003  -13.5815   -5.4569 H   0  0  0  0  0  0  0  0  0  0  0  0
   43.5995  -15.5950   -7.1084 H   0  0  0  0  0  0  0  0  0  0  0  0
   44.5129  -15.2140   -4.5150 H   0  0  0  0  0  0  0  0  0  0  0  0
   43.7189  -16.5627   -5.1312 H   0  0  0  0  0  0  0  0  0  0  0  0
   45.3999  -16.5034   -5.1312 H   0  0  0  0  0  0  0  0  0  0  0  0
   46.4929  -15.0149   -7.3508 H   0  0  0  0  0  0  0  0  0  0  0  0
   46.1208  -16.7164   -6.8123 H   0  0  0  0  0  0  0  0  0  0  0  0
   45.8188  -15.4418   -9.4461 H   0  0  0  0  0  0  0  0  0  0  0  0
   43.2704  -16.0649   -8.1901 H   0  0  0  0  0  0  0  0  0  0  0  0
   43.0761  -14.7909   -9.7534 H   0  0  0  0  0  0  0  0  0  0  0  0
   43.6087  -18.4955   -8.4077 H   0  0  0  0  0  0  0  0  0  0  0  0
   41.7941  -18.3350   -9.6027 H   0  0  0  0  0  0  0  0  0  0  0  0
   44.8730  -18.0223  -10.9873 H   0  0  0  0  0  0  0  0  0  0  0  0
   45.7774  -20.3330  -11.7504 H   0  0  0  0  0  0  0  0  0  0  0  0
   45.8635  -24.3673   -6.8785 H   0  0  0  0  0  0  0  0  0  0  0  0
   46.1706  -24.2524   -8.6321 H   0  0  0  0  0  0  0  0  0  0  0  0
   44.5385  -20.3860   -5.2910 H   0  0  0  0  0  0  0  0  0  0  0  0
  2  1  1  0
  2  3  1  0
  2  6  1  0
  3  4  2  0
  3  5  1  0
  6  7  1  0
  7  8  1  0
  8  9  1  0
  8 10  1  0
 11 10  1  0
 11 12  1  0
 11 13  1  0
 12 17  1  0
 13 14  1  0
 13 15  1  0
 15 16  1  0
 15 17  1  0
 17 18  1  0
 18 19  1  0
 18 27  1  0
 19 20  2  0
 20 21  1  0
 21 22  2  0
 21 27  1  0
 22 23  1  0
 22 24  1  0
 24 25  2  0
 25 26  1  0
 26 27  2  0
  1 28  1  0
  1 29  1  0
  1 30  1  0
  2 31  1  6
  6 32  1  0
  6 33  1  0
  7 34  1  0
  7 35  1  0
  8 36  1  6
  9 37  1  0
  9 38  1  0
  9 39  1  0
 10 40  1  0
 10 41  1  0
 11 42  1  6
 13 43  1  1
 14 44  1  0
 15 45  1  1
 16 46  1  0
 17 47  1  6
 19 48  1  0
 23 49  1  0
 23 50  1  0
 25 51  1  0
M  CHG  3   1   1   5  -1   9   1
M  END
>  <filename_input>  (17) 
7PL1_SFG_docked.sdf

>  <pdb_id>  (17) 
7PL1_SFG

>  <pose_rank>  (17) 
16

>  <num_atoms_heavy>  (17) 
27

>  <num_torsions>  (17) 
7

>  <pose>  (17) 
[45.42250808862946, -16.23379946831744, -8.793592249532919, -2.415909072285934, -0.09055950914414283, -1.900982831428955, 2.9586267302138927, -5.242945255545011, -0.4494743492253346, 1.0207999016288272, 1.1265747049130097, -1.2986484063313075, 0.4156534570429439]

>  <energy>  (17) 
-654.1597694025908

>  <inter_energy>  (17) 
-657.8548483743085

>  <intra_energy>  (17) 
18.959750399538294

>  <rmsd>  (17) 
8.25212

>  <sdf_rank>  (17) 
0

$$$$

     RDKit          3D

 51 53  0  0  0  0  0  0  0  0999 V2000
   46.1080  -13.7475   -8.0841 N   0  0  0  0  0  0  0  0  0  0  0  0
   45.3780  -14.9142   -7.5832 C   0  0  2  0  0  0  0  0  0  0  0  0
   45.6615  -15.1377   -6.0971 C   0  0  0  0  0  0  0  0  0  0  0  0
   46.3219  -16.1336   -5.6932 O   0  0  0  0  0  0  0  0  0  0  0  0
   45.2422  -14.3001   -5.2549 O   0  0  0  0  0  0  0  0  0  0  0  0
   45.7411  -16.1748   -8.3821 C   0  0  0  0  0  0  0  0  0  0  0  0
   44.4997  -16.7672   -9.0599 C   0  0  0  0  0  0  0  0  0  0  0  0
   44.7513  -18.2088   -9.5043 C   0  0  2  0  0  0  0  0  0  0  0  0
   43.4647  -18.8937   -9.6350 N   0  0  0  0  0  0  0  0  0  0  0  0
   45.5690  -18.9451   -8.4410 C   0  0  0  0  0  0  0  0  0  0  0  0
   44.7304  -19.9761   -7.6360 C   0  0  1  0  0  0  0  0  0  0  0  0
   44.3251  -20.9372   -8.4500 O   0  0  0  0  0  0  0  0  0  0  0  0
   45.5629  -20.6618   -6.5265 C   0  0  1  0  0  0  0  0  0  0  0  0
   44.9392  -20.5272   -5.3128 O   0  0  0  0  0  0  0  0  0  0  0  0
   45.6073  -22.1231   -7.0065 C   0  0  1  0  0  0  0  0  0  0  0  0
   45.7674  -23.0449   -5.8506 O   0  0  0  0  0  0  0  0  0  0  0  0
   44.4629  -22.3033   -7.6425 C   0  0  2  0  0  0  0  0  0  0  0  0
   44.5212  -23.3671   -8.6180 N   0  0  0  0  0  0  0  0  0  0  0  0
   44.1090  -24.6460   -8.5402 C   0  0  0  0  0  0  0  0  0  0  0  0
   44.3766  -25.2532   -9.6987 N   0  0  0  0  0  0  0  0  0  0  0  0
   44.9666  -24.3429  -10.4978 C   0  0  0  0  0  0  0  0  0  0  0  0
   45.4320  -24.4457  -11.7865 C   0  0  0  0  0  0  0  0  0  0  0  0
   45.4065  -25.6083  -12.6423 N   0  0  0  0  0  0  0  0  0  0  0  0
   45.9732  -23.3967  -12.3909 N   0  0  0  0  0  0  0  0  0  0  0  0
   46.0809  -22.2231  -11.7197 C   0  0  0  0  0  0  0  0  0  0  0  0
   45.6209  -22.1118  -10.4507 N   0  0  0  0  0  0  0  0  0  0  0  0
   45.0609  -23.1822   -9.8391 C   0  0  0  0  0  0  0  0  0  0  0  0
   46.4552  -13.1924   -7.2889 H   0  0  0  0  0  0  0  0  0  0  0  0
   46.9040  -14.0608   -8.6578 H   0  0  0  0  0  0  0  0  0  0  0  0
   45.4781  -13.1687   -8.6578 H   0  0  0  0  0  0  0  0  0  0  0  0
   44.3036  -14.7156   -7.7112 H   0  0  0  0  0  0  0  0  0  0  0  0
   46.4817  -15.9127   -9.1521 H   0  0  0  0  0  0  0  0  0  0  0  0
   46.1557  -16.9229   -7.6905 H   0  0  0  0  0  0  0  0  0  0  0  0
   43.6602  -16.7515   -8.3492 H   0  0  0  0  0  0  0  0  0  0  0  0
   44.2646  -16.1632   -9.9486 H   0  0  0  0  0  0  0  0  0  0  0  0
   45.2948  -18.2017  -10.4606 H   0  0  0  0  0  0  0  0  0  0  0  0
   43.0863  -19.0952   -8.6985 H   0  0  0  0  0  0  0  0  0  0  0  0
   42.8060  -18.2916  -10.1493 H   0  0  0  0  0  0  0  0  0  0  0  0
   43.5964  -19.7763  -10.1493 H   0  0  0  0  0  0  0  0  0  0  0  0
   46.3937  -19.4763   -8.9387 H   0  0  0  0  0  0  0  0  0  0  0  0
   45.9364  -18.1919   -7.7285 H   0  0  0  0  0  0  0  0  0  0  0  0
   43.8920  -19.4261   -7.1837 H   0  0  0  0  0  0  0  0  0  0  0  0
   46.5663  -20.2367   -6.3768 H   0  0  0  0  0  0  0  0  0  0  0  0
   45.5968  -20.6691   -4.5864 H   0  0  0  0  0  0  0  0  0  0  0  0
   46.4618  -22.3330   -7.6667 H   0  0  0  0  0  0  0  0  0  0  0  0
   45.6788  -22.5346   -5.0069 H   0  0  0  0  0  0  0  0  0  0  0  0
   43.6497  -22.5588   -6.9471 H   0  0  0  0  0  0  0  0  0  0  0  0
   43.6310  -25.1135   -7.6668 H   0  0  0  0  0  0  0  0  0  0  0  0
   45.7910  -25.5541  -13.5963 H   0  0  0  0  0  0  0  0  0  0  0  0
   45.0039  -26.4920  -12.2988 H   0  0  0  0  0  0  0  0  0  0  0  0
   46.5456  -21.3548  -12.2098 H   0  0  0  0  0  0  0  0  0  0  0  0
  2  1  1  0
  2  3  1  0
  2  6  1  0
  3  4  2  0
  3  5  1  0
  6  7  1  0
  7  8  1  0
  8  9  1  0
  8 10  1  0
 11 10  1  0
 11 12  1  0
 11 13  1  0
 12 17  1  0
 13 14  1  0
 13 15  1  0
 15 16  1  0
 15 17  1  0
 17 18  1  0
 18 19  1  0
 18 27  1  0
 19 20  2  0
 20 21  1  0
 21 22  2  0
 21 27  1  0
 22 23  1  0
 22 24  1  0
 24 25  2  0
 25 26  1  0
 26 27  2  0
  1 28  1  0
  1 29  1  0
  1 30  1  0
  2 31  1  1
  6 32  1  0
  6 33  1  0
  7 34  1  0
  7 35  1  0
  8 36  1  6
  9 37  1  0
  9 38  1  0
  9 39  1  0
 10 40  1  0
 10 41  1  0
 11 42  1  1
 13 43  1  1
 14 44  1  0
 15 45  1  6
 16 46  1  0
 17 47  1  1
 19 48  1  0
 23 49  1  0
 23 50  1  0
 25 51  1  0
M  CHG  3   1   1   5  -1   9   1
M  END
>  <filename_input>  (18) 
7PL1_SFG_docked.sdf

>  <pdb_id>  (18) 
7PL1_SFG

>  <pose_rank>  (18) 
17

>  <num_atoms_heavy>  (18) 
27

>  <num_torsions>  (18) 
7

>  <pose>  (18) 
[44.730384631891376, -19.976053706220615, -7.63602978278746, 3.184275195380892, 0.5481175473027806, -1.626428300150549, 2.381548855844818, 4.4767521689258, 9.553286809875498, -0.9073627535327249, 6.633569570356745, 3.1193194557146, -1.9399755813839659]

>  <energy>  (18) 
-480.18536880528035

>  <inter_energy>  (18) 
-530.5622108480628

>  <intra_energy>  (18) 
52.62293176455895

>  <rmsd>  (18) 
9.03471

>  <sdf_rank>  (18) 
0

$$$$

     RDKit          3D

 51 53  0  0  0  0  0  0  0  0999 V2000
   45.2042  -27.1730  -13.9114 N   0  0  0  0  0  0  0  0  0  0  0  0
   44.6263  -25.9779  -14.5301 C   0  0  2  0  0  0  0  0  0  0  0  0
   43.7577  -26.3524  -15.7319 C   0  0  0  0  0  0  0  0  0  0  0  0
   44.0440  -27.3312  -16.4742 O   0  0  0  0  0  0  0  0  0  0  0  0
   42.7215  -25.6803  -15.9791 O   0  0  0  0  0  0  0  0  0  0  0  0
   45.7255  -24.9962  -14.9625 C   0  0  0  0  0  0  0  0  0  0  0  0
   45.4390  -23.5874  -14.4290 C   0  0  0  0  0  0  0  0  0  0  0  0
   45.7756  -23.4844  -12.9407 C   0  0  2  0  0  0  0  0  0  0  0  0
   44.5488  -23.1917  -12.1986 N   0  0  0  0  0  0  0  0  0  0  0  0
   46.7520  -22.3296  -12.7074 C   0  0  0  0  0  0  0  0  0  0  0  0
   46.0390  -20.9864  -12.3888 C   0  0  1  0  0  0  0  0  0  0  0  0
   45.5033  -21.0543  -11.1810 O   0  0  0  0  0  0  0  0  0  0  0  0
   47.0273  -19.7960  -12.3649 C   0  0  1  0  0  0  0  0  0  0  0  0
   46.6011  -18.8074  -13.2141 O   0  0  0  0  0  0  0  0  0  0  0  0
   46.9830  -19.3635  -10.8888 C   0  0  1  0  0  0  0  0  0  0  0  0
   47.3121  -17.9189  -10.7608 O   0  0  0  0  0  0  0  0  0  0  0  0
   45.7520  -19.6387  -10.4943 C   0  0  2  0  0  0  0  0  0  0  0  0
   45.6481  -19.8368   -9.0673 N   0  0  0  0  0  0  0  0  0  0  0  0
   45.6783  -18.9467   -8.0582 C   0  0  0  0  0  0  0  0  0  0  0  0
   45.5462  -19.6039   -6.9036 N   0  0  0  0  0  0  0  0  0  0  0  0
   45.4410  -20.9137   -7.2013 C   0  0  0  0  0  0  0  0  0  0  0  0
   45.2822  -22.0101   -6.3885 C   0  0  0  0  0  0  0  0  0  0  0  0
   45.1879  -22.0326   -4.9479 N   0  0  0  0  0  0  0  0  0  0  0  0
   45.1858  -23.2252   -6.9109 N   0  0  0  0  0  0  0  0  0  0  0  0
   45.2638  -23.3804   -8.2561 C   0  0  0  0  0  0  0  0  0  0  0  0
   45.4160  -22.3046   -9.0648 N   0  0  0  0  0  0  0  0  0  0  0  0
   45.5053  -21.0643   -8.5291 C   0  0  0  0  0  0  0  0  0  0  0  0
   45.1611  -27.0839  -12.8862 H   0  0  0  0  0  0  0  0  0  0  0  0
   44.6719  -28.0040  -14.2064 H   0  0  0  0  0  0  0  0  0  0  0  0
   46.1861  -27.2717  -14.2064 H   0  0  0  0  0  0  0  0  0  0  0  0
   43.9932  -25.4857  -13.7772 H   0  0  0  0  0  0  0  0  0  0  0  0
   46.6926  -25.3413  -14.5682 H   0  0  0  0  0  0  0  0  0  0  0  0
   45.7514  -24.9582  -16.0616 H   0  0  0  0  0  0  0  0  0  0  0  0
   46.0487  -22.8610  -14.9864 H   0  0  0  0  0  0  0  0  0  0  0  0
   44.3679  -23.3745  -14.5609 H   0  0  0  0  0  0  0  0  0  0  0  0
   46.2242  -24.4314  -12.6060 H   0  0  0  0  0  0  0  0  0  0  0  0
   44.7400  -23.2373  -11.1875 H   0  0  0  0  0  0  0  0  0  0  0  0
   44.2166  -22.2478  -12.4429 H   0  0  0  0  0  0  0  0  0  0  0  0
   43.8263  -23.8839  -12.4429 H   0  0  0  0  0  0  0  0  0  0  0  0
   47.4056  -22.5887  -11.8615 H   0  0  0  0  0  0  0  0  0  0  0  0
   47.3214  -22.1872  -13.6378 H   0  0  0  0  0  0  0  0  0  0  0  0
   45.2862  -20.8271  -13.1749 H   0  0  0  0  0  0  0  0  0  0  0  0
   48.0457  -20.0383  -12.7026 H   0  0  0  0  0  0  0  0  0  0  0  0
   46.2696  -18.0386  -12.6856 H   0  0  0  0  0  0  0  0  0  0  0  0
   47.7225  -19.8868  -10.2650 H   0  0  0  0  0  0  0  0  0  0  0  0
   47.3672  -17.6767   -9.8024 H   0  0  0  0  0  0  0  0  0  0  0  0
   45.0544  -18.8277  -10.7506 H   0  0  0  0  0  0  0  0  0  0  0  0
   45.7927  -17.8581   -8.1668 H   0  0  0  0  0  0  0  0  0  0  0  0
   45.0690  -22.9284   -4.4535 H   0  0  0  0  0  0  0  0  0  0  0  0
   45.2394  -21.1529   -4.4146 H   0  0  0  0  0  0  0  0  0  0  0  0
   45.2029  -24.3878   -8.6936 H   0  0  0  0  0  0  0  0  0  0  0  0
  2  1  1  0
  2  3  1  0
  2  6  1  0
  3  4  2  0
  3  5  1  0
  6  7  1  0
  7  8  1  0
  8  9  1  0
  8 10  1  0
 11 10  1  0
 11 12  1  0
 11 13  1  0
 12 17  1  0
 13 14  1  0
 13 15  1  0
 15 16  1  0
 15 17  1  0
 17 18  1  0
 18 19  1  0
 18 27  1  0
 19 20  2  0
 20 21  1  0
 21 22  2  0
 21 27  1  0
 22 23  1  0
 22 24  1  0
 24 25  2  0
 25 26  1  0
 26 27  2  0
  1 28  1  0
  1 29  1  0
  1 30  1  0
  2 31  1  1
  6 32  1  0
  6 33  1  0
  7 34  1  0
  7 35  1  0
  8 36  1  1
  9 37  1  0
  9 38  1  0
  9 39  1  0
 10 40  1  0
 10 41  1  0
 11 42  1  6
 13 43  1  6
 14 44  1  0
 15 45  1  1
 16 46  1  0
 17 47  1  6
 19 48  1  0
 23 49  1  0
 23 50  1  0
 25 51  1  0
M  CHG  3   1   1   5  -1   9   1
M  END
>  <filename_input>  (19) 
7PL1_SFG_docked.sdf

>  <pdb_id>  (19) 
7PL1_SFG

>  <pose_rank>  (19) 
18

>  <num_atoms_heavy>  (19) 
27

>  <num_torsions>  (19) 
7

>  <pose>  (19) 
[46.03902326551944, -20.9863738670319, -12.3888379117378, -3.3783267451372834, 2.1664219742029545, 1.929231323836425, -4.336202093250186, 4.580697211152786, 3.000883856152206, 0.5847640241503752, 4.54022803493632, 2.9577522528015283, -0.586755851267923]

>  <energy>  (19) 
-376.9010742379995

>  <inter_energy>  (19) 
-447.4753341308842

>  <intra_energy>  (19) 
63.61328528356342

>  <rmsd>  (19) 
8.50779

>  <sdf_rank>  (19) 
0

$$$$

     RDKit          3D

 51 53  0  0  0  0  0  0  0  0999 V2000
   51.8841  -19.1658  -14.0059 N   0  0  0  0  0  0  0  0  0  0  0  0
   50.6998  -18.5128  -14.5682 C   0  0  2  0  0  0  0  0  0  0  0  0
   50.8431  -18.3327  -16.0802 C   0  0  0  0  0  0  0  0  0  0  0  0
   50.1920  -19.0427  -16.8945 O   0  0  0  0  0  0  0  0  0  0  0  0
   51.6156  -17.4435  -16.5264 O   0  0  0  0  0  0  0  0  0  0  0  0
   50.4516  -17.1529  -13.8989 C   0  0  0  0  0  0  0  0  0  0  0  0
   48.9833  -16.7343  -14.0427 C   0  0  0  0  0  0  0  0  0  0  0  0
   48.1788  -17.1156  -12.7992 C   0  0  2  0  0  0  0  0  0  0  0  0
   49.1074  -17.5067  -11.7379 N   0  0  0  0  0  0  0  0  0  0  0  0
   47.2849  -18.3186  -13.1073 C   0  0  0  0  0  0  0  0  0  0  0  0
   45.8763  -18.2101  -12.4605 C   0  0  1  0  0  0  0  0  0  0  0  0
   45.7649  -19.1195  -11.5061 O   0  0  0  0  0  0  0  0  0  0  0  0
   45.6516  -16.8356  -11.7862 C   0  0  1  0  0  0  0  0  0  0  0  0
   44.5088  -16.2510  -12.2683 O   0  0  0  0  0  0  0  0  0  0  0  0
   45.5362  -17.2154  -10.2995 C   0  0  1  0  0  0  0  0  0  0  0  0
   44.7075  -16.2181   -9.5715 O   0  0  0  0  0  0  0  0  0  0  0  0
   44.9928  -18.4201  -10.3011 C   0  0  2  0  0  0  0  0  0  0  0  0
   45.2956  -19.1770   -9.1087 N   0  0  0  0  0  0  0  0  0  0  0  0
   45.7854  -18.7755   -7.9211 C   0  0  0  0  0  0  0  0  0  0  0  0
   45.8993  -19.8398   -7.1231 N   0  0  0  0  0  0  0  0  0  0  0  0
   45.4828  -20.9107   -7.8266 C   0  0  0  0  0  0  0  0  0  0  0  0
   45.3913  -22.2361   -7.4760 C   0  0  0  0  0  0  0  0  0  0  0  0
   45.7376  -22.8385   -6.2104 N   0  0  0  0  0  0  0  0  0  0  0  0
   44.9311  -23.1296   -8.3412 N   0  0  0  0  0  0  0  0  0  0  0  0
   44.5677  -22.7275   -9.5845 C   0  0  0  0  0  0  0  0  0  0  0  0
   44.6506  -21.4224   -9.9371 N   0  0  0  0  0  0  0  0  0  0  0  0
   45.1126  -20.5110   -9.0486 C   0  0  0  0  0  0  0  0  0  0  0  0
   51.8352  -19.1388  -12.9774 H   0  0  0  0  0  0  0  0  0  0  0  0
   51.9189  -20.1453  -14.3224 H   0  0  0  0  0  0  0  0  0  0  0  0
   52.7310  -18.6724  -14.3224 H   0  0  0  0  0  0  0  0  0  0  0  0
   49.8351  -19.1635  -14.3711 H   0  0  0  0  0  0  0  0  0  0  0  0
   50.7027  -17.2258  -12.8304 H   0  0  0  0  0  0  0  0  0  0  0  0
   51.0829  -16.3979  -14.3903 H   0  0  0  0  0  0  0  0  0  0  0  0
   48.9324  -15.6446  -14.1835 H   0  0  0  0  0  0  0  0  0  0  0  0
   48.5542  -17.2564  -14.9106 H   0  0  0  0  0  0  0  0  0  0  0  0
   47.5638  -16.2575  -12.4904 H   0  0  0  0  0  0  0  0  0  0  0  0
   48.6762  -17.3251  -10.8203 H   0  0  0  0  0  0  0  0  0  0  0  0
   49.3234  -18.5102  -11.8232 H   0  0  0  0  0  0  0  0  0  0  0  0
   49.9762  -16.9600  -11.8232 H   0  0  0  0  0  0  0  0  0  0  0  0
   47.1647  -18.3957  -14.1980 H   0  0  0  0  0  0  0  0  0  0  0  0
   47.7735  -19.2086  -12.6840 H   0  0  0  0  0  0  0  0  0  0  0  0
   45.1405  -18.3524  -13.2657 H   0  0  0  0  0  0  0  0  0  0  0  0
   46.4460  -16.0979  -11.9723 H   0  0  0  0  0  0  0  0  0  0  0  0
   43.9416  -15.9609  -11.5106 H   0  0  0  0  0  0  0  0  0  0  0  0
   46.5062  -17.2218   -9.7809 H   0  0  0  0  0  0  0  0  0  0  0  0
   44.8156  -16.3483   -8.5961 H   0  0  0  0  0  0  0  0  0  0  0  0
   43.8962  -18.3689  -10.3708 H   0  0  0  0  0  0  0  0  0  0  0  0
   46.0485  -17.7418   -7.6526 H   0  0  0  0  0  0  0  0  0  0  0  0
   45.6213  -23.8528   -6.0738 H   0  0  0  0  0  0  0  0  0  0  0  0
   46.1009  -22.2540   -5.4440 H   0  0  0  0  0  0  0  0  0  0  0  0
   44.2026  -23.4672  -10.3123 H   0  0  0  0  0  0  0  0  0  0  0  0
  2  1  1  0
  2  3  1  0
  2  6  1  0
  3  4  2  0
  3  5  1  0
  6  7  1  0
  7  8  1  0
  8  9  1  0
  8 10  1  0
 11 10  1  0
 11 12  1  0
 11 13  1  0
 12 17  1  0
 13 14  1  0
 13 15  1  0
 15 16  1  0
 15 17  1  0
 17 18  1  0
 18 19  1  0
 18 27  1  0
 19 20  2  0
 20 21  1  0
 21 22  2  0
 21 27  1  0
 22 23  1  0
 22 24  1  0
 24 25  2  0
 25 26  1  0
 26 27  2  0
  1 28  1  0
  1 29  1  0
  1 30  1  0
  2 31  1  6
  6 32  1  0
  6 33  1  0
  7 34  1  0
  7 35  1  0
  8 36  1  1
  9 37  1  0
  9 38  1  0
  9 39  1  0
 10 40  1  0
 10 41  1  0
 11 42  1  6
 13 43  1  1
 14 44  1  0
 15 45  1  1
 16 46  1  0
 17 47  1  6
 19 48  1  0
 23 49  1  0
 23 50  1  0
 25 51  1  0
M  CHG  3   1   1   5  -1   9   1
M  END
>  <filename_input>  (20) 
7PL1_SFG_docked.sdf

>  <pdb_id>  (20) 
7PL1_SFG

>  <pose_rank>  (20) 
19

>  <num_atoms_heavy>  (20) 
27

>  <num_torsions>  (20) 
7

>  <pose>  (20) 
[45.87633434133627, -18.210061115920443, -12.46053031224663, -4.238358597166508, 0.1255996243120926, 0.6509742926551186, -11.650430540426749, 1.4029430247171808, -1.0447239720554633, 2.8342344729552593, -1.4058380885836985, -3.817984571373099, 1.8660584128343862]

>  <energy>  (20) 
-372.2381801719712

>  <inter_energy>  (20) 
-385.24333327194057

>  <intra_energy>  (20) 
16.239457558295925

>  <rmsd>  (20) 
8.60503

>  <sdf_rank>  (20) 
0

$$$$

     RDKit          3D

 51 53  0  0  0  0  0  0  0  0999 V2000
   50.8918  -22.8538  -14.4510 N   0  0  0  0  0  0  0  0  0  0  0  0
   52.1535  -22.1954  -14.7969 C   0  0  2  0  0  0  0  0  0  0  0  0
   53.1988  -22.4109  -13.7014 C   0  0  0  0  0  0  0  0  0  0  0  0
   53.4452  -21.5231  -12.8400 O   0  0  0  0  0  0  0  0  0  0  0  0
   53.8177  -23.5064  -13.6444 O   0  0  0  0  0  0  0  0  0  0  0  0
   51.9430  -20.6924  -15.0330 C   0  0  0  0  0  0  0  0  0  0  0  0
   50.5159  -20.4115  -15.5189 C   0  0  0  0  0  0  0  0  0  0  0  0
   50.2479  -18.9079  -15.5972 C   0  0  2  0  0  0  0  0  0  0  0  0
   51.4720  -18.2323  -16.0291 N   0  0  0  0  0  0  0  0  0  0  0  0
   49.8804  -18.3727  -14.2116 C   0  0  0  0  0  0  0  0  0  0  0  0
   48.3746  -18.0134  -14.0791 C   0  0  1  0  0  0  0  0  0  0  0  0
   48.2599  -16.7420  -13.7315 O   0  0  0  0  0  0  0  0  0  0  0  0
   47.6198  -18.1720  -15.4205 C   0  0  1  0  0  0  0  0  0  0  0  0
   46.5338  -18.9937  -15.2604 O   0  0  0  0  0  0  0  0  0  0  0  0
   47.2182  -16.7222  -15.7436 C   0  0  1  0  0  0  0  0  0  0  0  0
   45.9904  -16.6978  -16.5822 O   0  0  0  0  0  0  0  0  0  0  0  0
   47.0369  -16.1526  -14.5648 C   0  0  2  0  0  0  0  0  0  0  0  0
   47.2017  -14.7180  -14.6004 N   0  0  0  0  0  0  0  0  0  0  0  0
   48.2962  -13.9709  -14.8357 C   0  0  0  0  0  0  0  0  0  0  0  0
   47.9584  -12.6814  -14.7612 N   0  0  0  0  0  0  0  0  0  0  0  0
   46.6440  -12.6308  -14.4695 C   0  0  0  0  0  0  0  0  0  0  0  0
   45.8040  -11.5585  -14.2897 C   0  0  0  0  0  0  0  0  0  0  0  0
   46.1367  -10.1557  -14.3688 N   0  0  0  0  0  0  0  0  0  0  0  0
   44.5199  -11.7491  -14.0186 N   0  0  0  0  0  0  0  0  0  0  0  0
   44.0441  -13.0139  -13.9016 C   0  0  0  0  0  0  0  0  0  0  0  0
   44.8643  -14.0766  -14.0815 N   0  0  0  0  0  0  0  0  0  0  0  0
   46.1731  -13.8789  -14.3668 C   0  0  0  0  0  0  0  0  0  0  0  0
   50.7993  -22.9020  -13.4263 H   0  0  0  0  0  0  0  0  0  0  0  0
   50.1053  -22.3156  -14.8417 H   0  0  0  0  0  0  0  0  0  0  0  0
   50.8833  -23.8068  -14.8417 H   0  0  0  0  0  0  0  0  0  0  0  0
   52.5214  -22.6486  -15.7293 H   0  0  0  0  0  0  0  0  0  0  0  0
   52.1160  -20.1517  -14.0909 H   0  0  0  0  0  0  0  0  0  0  0  0
   52.6506  -20.3545  -15.8044 H   0  0  0  0  0  0  0  0  0  0  0  0
   50.3828  -20.8528  -16.5176 H   0  0  0  0  0  0  0  0  0  0  0  0
   49.8088  -20.8560  -14.8030 H   0  0  0  0  0  0  0  0  0  0  0  0
   49.4246  -18.7246  -16.3032 H   0  0  0  0  0  0  0  0  0  0  0  0
   52.0102  -17.9352  -15.2026 H   0  0  0  0  0  0  0  0  0  0  0  0
   52.0402  -18.8793  -16.5943 H   0  0  0  0  0  0  0  0  0  0  0  0
   51.2274  -17.4067  -16.5943 H   0  0  0  0  0  0  0  0  0  0  0  0
   50.1246  -19.1408  -13.4630 H   0  0  0  0  0  0  0  0  0  0  0  0
   50.4544  -17.4478  -14.0533 H   0  0  0  0  0  0  0  0  0  0  0  0
   47.9457  -18.6951  -13.3299 H   0  0  0  0  0  0  0  0  0  0  0  0
   48.2081  -18.6358  -16.2260 H   0  0  0  0  0  0  0  0  0  0  0  0
   46.3594  -19.1257  -14.2949 H   0  0  0  0  0  0  0  0  0  0  0  0
   47.9800  -16.1849  -16.3274 H   0  0  0  0  0  0  0  0  0  0  0  0
   45.1916  -16.6820  -15.9976 H   0  0  0  0  0  0  0  0  0  0  0  0
   46.0263  -16.3432  -14.1747 H   0  0  0  0  0  0  0  0  0  0  0  0
   49.3023  -14.3585  -15.0535 H   0  0  0  0  0  0  0  0  0  0  0  0
   45.4087   -9.4441  -14.2120 H   0  0  0  0  0  0  0  0  0  0  0  0
   47.1020   -9.8666  -14.5819 H   0  0  0  0  0  0  0  0  0  0  0  0
   42.9839  -13.1778  -13.6587 H   0  0  0  0  0  0  0  0  0  0  0  0
  2  1  1  0
  2  3  1  0
  2  6  1  0
  3  4  2  0
  3  5  1  0
  6  7  1  0
  7  8  1  0
  8  9  1  0
  8 10  1  0
 11 10  1  0
 11 12  1  0
 11 13  1  0
 12 17  1  0
 13 14  1  0
 13 15  1  0
 15 16  1  0
 15 17  1  0
 17 18  1  0
 18 19  1  0
 18 27  1  0
 19 20  2  0
 20 21  1  0
 21 22  2  0
 21 27  1  0
 22 23  1  0
 22 24  1  0
 24 25  2  0
 25 26  1  0
 26 27  2  0
  1 28  1  0
  1 29  1  0
  1 30  1  0
  2 31  1  6
  6 32  1  0
  6 33  1  0
  7 34  1  0
  7 35  1  0
  8 36  1  6
  9 37  1  0
  9 38  1  0
  9 39  1  0
 10 40  1  0
 10 41  1  0
 11 42  1  1
 13 43  1  6
 14 44  1  0
 15 45  1  6
 16 46  1  0
 17 47  1  1
 19 48  1  0
 23 49  1  0
 23 50  1  0
 25 51  1  0
M  CHG  3   1   1   5  -1   9   1
M  END
>  <filename_input>  (21) 
7PL1_SFG_docked.sdf

>  <pdb_id>  (21) 
7PL1_SFG

>  <pose_rank>  (21) 
20

>  <num_atoms_heavy>  (21) 
27

>  <num_torsions>  (21) 
7

>  <pose>  (21) 
[48.37457883598733, -18.01341095884597, -14.079134832142127, -4.383842633498091, 4.551647377469462, 1.3197613373010277, -0.5099773369938354, 7.491753034574866, 5.809640517727913, 3.2517970720522644, -0.05659415716580447, 4.723658046441268, -1.7385277075313987]

>  <energy>  (21) 
-90.89790652672711

>  <inter_energy>  (21) 
-92.12782533617819

>  <intra_energy>  (21) 
0.6845295409668254

>  <rmsd>  (21) 
8.52491

>  <sdf_rank>  (21) 
0

$$$$

     RDKit          3D

 51 53  0  0  0  0  0  0  0  0999 V2000
   46.4671  -20.6653   -5.3442 N   0  0  0  0  0  0  0  0  0  0  0  0
   45.8452  -20.8841   -6.6521 C   0  0  2  0  0  0  0  0  0  0  0  0
   45.8966  -22.3627   -7.0394 C   0  0  0  0  0  0  0  0  0  0  0  0
   44.9452  -22.9179   -7.6539 O   0  0  0  0  0  0  0  0  0  0  0  0
   46.9191  -23.0411   -6.7550 O   0  0  0  0  0  0  0  0  0  0  0  0
   46.5271  -20.0341   -7.7345 C   0  0  0  0  0  0  0  0  0  0  0  0
   45.5560  -19.7309   -8.8819 C   0  0  0  0  0  0  0  0  0  0  0  0
   45.9222  -20.5254  -10.1363 C   0  0  2  0  0  0  0  0  0  0  0  0
   47.2346  -21.1416   -9.9382 N   0  0  0  0  0  0  0  0  0  0  0  0
   46.0227  -19.5829  -11.3375 C   0  0  0  0  0  0  0  0  0  0  0  0
   45.4515  -18.1672  -11.0480 C   0  0  1  0  0  0  0  0  0  0  0  0
   46.3932  -17.2647  -11.2699 O   0  0  0  0  0  0  0  0  0  0  0  0
   44.2737  -17.8133  -11.9870 C   0  0  1  0  0  0  0  0  0  0  0  0
   43.1754  -17.4448  -11.2535 O   0  0  0  0  0  0  0  0  0  0  0  0
   44.8500  -16.6476  -12.8098 C   0  0  1  0  0  0  0  0  0  0  0  0
   43.7577  -15.7574  -13.2851 O   0  0  0  0  0  0  0  0  0  0  0  0
   45.6812  -16.0331  -11.9864 C   0  0  2  0  0  0  0  0  0  0  0  0
   46.7116  -15.2911  -12.6751 N   0  0  0  0  0  0  0  0  0  0  0  0
   46.6187  -14.2481  -13.5206 C   0  0  0  0  0  0  0  0  0  0  0  0
   47.8482  -13.8990  -13.9064 N   0  0  0  0  0  0  0  0  0  0  0  0
   48.7091  -14.7391  -13.2994 C   0  0  0  0  0  0  0  0  0  0  0  0
   50.0803  -14.8110  -13.3488 C   0  0  0  0  0  0  0  0  0  0  0  0
   50.9803  -13.9681  -14.1001 N   0  0  0  0  0  0  0  0  0  0  0  0
   50.7307  -15.7275  -12.6448 N   0  0  0  0  0  0  0  0  0  0  0  0
   50.0296  -16.6077  -11.8877 C   0  0  0  0  0  0  0  0  0  0  0  0
   48.6780  -16.5413  -11.8299 N   0  0  0  0  0  0  0  0  0  0  0  0
   48.0171  -15.5988  -12.5431 C   0  0  0  0  0  0  0  0  0  0  0  0
   45.7949  -20.9018   -4.6005 H   0  0  0  0  0  0  0  0  0  0  0  0
   47.3010  -21.2634   -5.2562 H   0  0  0  0  0  0  0  0  0  0  0  0
   46.7428  -19.6768   -5.2562 H   0  0  0  0  0  0  0  0  0  0  0  0
   44.7920  -20.5759   -6.5762 H   0  0  0  0  0  0  0  0  0  0  0  0
   46.8657  -19.0870   -7.2890 H   0  0  0  0  0  0  0  0  0  0  0  0
   47.3830  -20.5960   -8.1365 H   0  0  0  0  0  0  0  0  0  0  0  0
   44.5361  -20.0009   -8.5704 H   0  0  0  0  0  0  0  0  0  0  0  0
   45.6166  -18.6581   -9.1172 H   0  0  0  0  0  0  0  0  0  0  0  0
   45.1505  -21.2879  -10.3183 H   0  0  0  0  0  0  0  0  0  0  0  0
   47.4236  -21.2303   -8.9296 H   0  0  0  0  0  0  0  0  0  0  0  0
   47.2447  -22.0753  -10.3729 H   0  0  0  0  0  0  0  0  0  0  0  0
   47.9594  -20.5528  -10.3729 H   0  0  0  0  0  0  0  0  0  0  0  0
   47.0818  -19.4831  -11.6170 H   0  0  0  0  0  0  0  0  0  0  0  0
   45.4229  -20.0198  -12.1495 H   0  0  0  0  0  0  0  0  0  0  0  0
   45.1058  -18.1669  -10.0038 H   0  0  0  0  0  0  0  0  0  0  0  0
   43.9253  -18.6435  -12.6190 H   0  0  0  0  0  0  0  0  0  0  0  0
   43.3845  -17.5149  -10.2884 H   0  0  0  0  0  0  0  0  0  0  0  0
   45.3712  -16.9800  -13.7197 H   0  0  0  0  0  0  0  0  0  0  0  0
   43.2841  -15.3714  -12.5062 H   0  0  0  0  0  0  0  0  0  0  0  0
   45.1541  -15.3144  -11.3417 H   0  0  0  0  0  0  0  0  0  0  0  0
   45.6846  -13.7635  -13.8407 H   0  0  0  0  0  0  0  0  0  0  0  0
   51.9967  -14.1274  -14.0510 H   0  0  0  0  0  0  0  0  0  0  0  0
   50.6058  -13.2076  -14.6851 H   0  0  0  0  0  0  0  0  0  0  0  0
   50.5628  -17.3817  -11.3161 H   0  0  0  0  0  0  0  0  0  0  0  0
  2  1  1  0
  2  3  1  0
  2  6  1  0
  3  4  2  0
  3  5  1  0
  6  7  1  0
  7  8  1  0
  8  9  1  0
  8 10  1  0
 11 10  1  0
 11 12  1  0
 11 13  1  0
 12 17  1  0
 13 14  1  0
 13 15  1  0
 15 16  1  0
 15 17  1  0
 17 18  1  0
 18 19  1  0
 18 27  1  0
 19 20  2  0
 20 21  1  0
 21 22  2  0
 21 27  1  0
 22 23  1  0
 22 24  1  0
 24 25  2  0
 25 26  1  0
 26 27  2  0
  1 28  1  0
  1 29  1  0
  1 30  1  0
  2 31  1  1
  6 32  1  0
  6 33  1  0
  7 34  1  0
  7 35  1  0
  8 36  1  6
  9 37  1  0
  9 38  1  0
  9 39  1  0
 10 40  1  0
 10 41  1  0
 11 42  1  1
 13 43  1  6
 14 44  1  0
 15 45  1  6
 16 46  1  0
 17 47  1  1
 19 48  1  0
 23 49  1  0
 23 50  1  0
 25 51  1  0
M  CHG  3   1   1   5  -1   9   1
M  END
>  <filename_input>  (22) 
7PL1_SFG_docked.sdf

>  <pdb_id>  (22) 
7PL1_SFG

>  <pose_rank>  (22) 
21

>  <num_atoms_heavy>  (22) 
27

>  <num_torsions>  (22) 
7

>  <pose>  (22) 
[45.45153102016702, -18.1672034271441, -11.048026742959868, -0.36973052344906604, 0.5821336857886676, -0.8289095890161289, -4.551063517676508, -0.7953684943581392, -5.089836251415097, 2.4424754633393, 1.3178753459246628, -3.7511903252721797, -3.7848422340821313]

>  <energy>  (22) 
-274.065257228616

>  <inter_energy>  (22) 
-310.2819873737597

>  <intra_energy>  (22) 
40.867451701960995

>  <rmsd>  (22) 
5.83869

>  <sdf_rank>  (22) 
0

$$$$

     RDKit          3D

 51 53  0  0  0  0  0  0  0  0999 V2000
   49.9289   -9.5423    2.2559 N   0  0  0  0  0  0  0  0  0  0  0  0
   49.3937   -9.3431    0.9072 C   0  0  2  0  0  0  0  0  0  0  0  0
   47.9178   -8.9458    0.9598 C   0  0  0  0  0  0  0  0  0  0  0  0
   47.0177   -9.6827    0.4720 O   0  0  0  0  0  0  0  0  0  0  0  0
   47.5877   -7.8662    1.5182 O   0  0  0  0  0  0  0  0  0  0  0  0
   49.5664  -10.6088    0.0543 C   0  0  0  0  0  0  0  0  0  0  0  0
   50.4367  -10.3230   -1.1755 C   0  0  0  0  0  0  0  0  0  0  0  0
   50.2910  -11.4295   -2.2211 C   0  0  2  0  0  0  0  0  0  0  0  0
   51.5316  -11.5164   -2.9923 N   0  0  0  0  0  0  0  0  0  0  0  0
   49.1591  -11.0825   -3.1905 C   0  0  0  0  0  0  0  0  0  0  0  0
   49.0592  -12.0700   -4.3859 C   0  0  1  0  0  0  0  0  0  0  0  0
   47.8379  -12.5769   -4.4303 O   0  0  0  0  0  0  0  0  0  0  0  0
   49.2915  -11.3639   -5.7431 C   0  0  1  0  0  0  0  0  0  0  0  0
   50.2870  -11.9956   -6.4431 O   0  0  0  0  0  0  0  0  0  0  0  0
   47.9173  -11.4996   -6.4220 C   0  0  1  0  0  0  0  0  0  0  0  0
   48.0660  -11.4921   -7.9016 O   0  0  0  0  0  0  0  0  0  0  0  0
   47.4291  -12.6410   -5.9685 C   0  0  2  0  0  0  0  0  0  0  0  0
   45.9867  -12.6978   -6.0207 N   0  0  0  0  0  0  0  0  0  0  0  0
   45.1297  -13.5984   -5.5051 C   0  0  0  0  0  0  0  0  0  0  0  0
   43.8843  -13.2307   -5.8154 N   0  0  0  0  0  0  0  0  0  0  0  0
   43.9727  -12.0958   -6.5362 C   0  0  0  0  0  0  0  0  0  0  0  0
   42.9956  -11.3063   -7.0929 C   0  0  0  0  0  0  0  0  0  0  0  0
   41.5666  -11.5075   -7.0446 N   0  0  0  0  0  0  0  0  0  0  0  0
   43.3194  -10.2072   -7.7604 N   0  0  0  0  0  0  0  0  0  0  0  0
   44.6268   -9.8767   -7.9060 C   0  0  0  0  0  0  0  0  0  0  0  0
   45.5961  -10.6469   -7.3568 N   0  0  0  0  0  0  0  0  0  0  0  0
   45.2621  -11.7640   -6.6683 C   0  0  0  0  0  0  0  0  0  0  0  0
   49.2163   -9.2770    2.9507 H   0  0  0  0  0  0  0  0  0  0  0  0
   50.1799  -10.5332    2.3827 H   0  0  0  0  0  0  0  0  0  0  0  0
   50.7668   -8.9569    2.3827 H   0  0  0  0  0  0  0  0  0  0  0  0
   49.9624   -8.5255    0.4402 H   0  0  0  0  0  0  0  0  0  0  0  0
   50.0464  -11.3901    0.6619 H   0  0  0  0  0  0  0  0  0  0  0  0
   48.5750  -10.9426   -0.2856 H   0  0  0  0  0  0  0  0  0  0  0  0
   50.1275   -9.3654   -1.6199 H   0  0  0  0  0  0  0  0  0  0  0  0
   51.4887  -10.2790   -0.8570 H   0  0  0  0  0  0  0  0  0  0  0  0
   50.0739  -12.3802   -1.7122 H   0  0  0  0  0  0  0  0  0  0  0  0
   52.3332  -11.5725   -2.3479 H   0  0  0  0  0  0  0  0  0  0  0  0
   51.5086  -12.3578   -3.5859 H   0  0  0  0  0  0  0  0  0  0  0  0
   51.6261  -10.6800   -3.5859 H   0  0  0  0  0  0  0  0  0  0  0  0
   48.2073  -11.1020   -2.6394 H   0  0  0  0  0  0  0  0  0  0  0  0
   49.3740  -10.0861   -3.6040 H   0  0  0  0  0  0  0  0  0  0  0  0
   49.8294  -12.8402   -4.2325 H   0  0  0  0  0  0  0  0  0  0  0  0
   49.6217  -10.3175   -5.6653 H   0  0  0  0  0  0  0  0  0  0  0  0
   50.9289  -12.4030   -5.8090 H   0  0  0  0  0  0  0  0  0  0  0  0
   47.2403  -10.6634   -6.1934 H   0  0  0  0  0  0  0  0  0  0  0  0
   49.0265  -11.4434   -8.1365 H   0  0  0  0  0  0  0  0  0  0  0  0
   47.7987  -13.4984   -6.5501 H   0  0  0  0  0  0  0  0  0  0  0  0
   45.4090  -14.4898   -4.9243 H   0  0  0  0  0  0  0  0  0  0  0  0
   40.9362  -10.8366   -7.5065 H   0  0  0  0  0  0  0  0  0  0  0  0
   41.1777  -12.3220   -6.5483 H   0  0  0  0  0  0  0  0  0  0  0  0
   44.9020   -8.9760   -8.4744 H   0  0  0  0  0  0  0  0  0  0  0  0
  2  1  1  0
  2  3  1  0
  2  6  1  0
  3  4  2  0
  3  5  1  0
  6  7  1  0
  7  8  1  0
  8  9  1  0
  8 10  1  0
 11 10  1  0
 11 12  1  0
 11 13  1  0
 12 17  1  0
 13 14  1  0
 13 15  1  0
 15 16  1  0
 15 17  1  0
 17 18  1  0
 18 19  1  0
 18 27  1  0
 19 20  2  0
 20 21  1  0
 21 22  2  0
 21 27  1  0
 22 23  1  0
 22 24  1  0
 24 25  2  0
 25 26  1  0
 26 27  2  0
  1 28  1  0
  1 29  1  0
  1 30  1  0
  2 31  1  6
  6 32  1  0
  6 33  1  0
  7 34  1  0
  7 35  1  0
  8 36  1  1
  9 37  1  0
  9 38  1  0
  9 39  1  0
 10 40  1  0
 10 41  1  0
 11 42  1  1
 13 43  1  1
 14 44  1  0
 15 45  1  6
 16 46  1  0
 17 47  1  6
 19 48  1  0
 23 49  1  0
 23 50  1  0
 25 51  1  0
M  CHG  3   1   1   5  -1   9   1
M  END
>  <filename_input>  (23) 
7PL1_SFG_docked.sdf

>  <pdb_id>  (23) 
7PL1_SFG

>  <pose_rank>  (23) 
22

>  <num_atoms_heavy>  (23) 
27

>  <num_torsions>  (23) 
7

>  <pose>  (23) 
[49.05923619297365, -12.069979765535795, -4.385938948484627, -1.2615537836529276, 1.9346402953540385, -3.750029920575004, -2.3290361392177865, -0.7697006462854378, -1.861944153634749, -0.018755607667198436, 0.3444207619490233, 3.1241067288366398, -2.0221177815505724]

>  <energy>  (23) 
-300.4778138813025

>  <inter_energy>  (23) 
-348.3740292918493

>  <intra_energy>  (23) 
63.23761022414545

>  <rmsd>  (23) 
9.33541

>  <sdf_rank>  (23) 
0

$$$$

     RDKit          3D

 51 53  0  0  0  0  0  0  0  0999 V2000
   43.5856   -9.8489   -8.5085 N   0  0  0  0  0  0  0  0  0  0  0  0
   44.5694   -9.8977   -7.4247 C   0  0  2  0  0  0  0  0  0  0  0  0
   45.4607   -8.6550   -7.4414 C   0  0  0  0  0  0  0  0  0  0  0  0
   45.2373   -7.6927   -8.2258 O   0  0  0  0  0  0  0  0  0  0  0  0
   46.4314   -8.5795   -6.6423 O   0  0  0  0  0  0  0  0  0  0  0  0
   45.4329  -11.1642   -7.5223 C   0  0  0  0  0  0  0  0  0  0  0  0
   46.0579  -11.2918   -8.9168 C   0  0  0  0  0  0  0  0  0  0  0  0
   45.8491  -12.6957   -9.4863 C   0  0  2  0  0  0  0  0  0  0  0  0
   46.7048  -12.8601  -10.6620 N   0  0  0  0  0  0  0  0  0  0  0  0
   44.3962  -12.8632   -9.9362 C   0  0  0  0  0  0  0  0  0  0  0  0
   43.6657  -14.0262   -9.2095 C   0  0  1  0  0  0  0  0  0  0  0  0
   43.9183  -15.1607   -9.8416 O   0  0  0  0  0  0  0  0  0  0  0  0
   44.1686  -14.2106   -7.7579 C   0  0  1  0  0  0  0  0  0  0  0  0
   43.1149  -14.1715   -6.8814 O   0  0  0  0  0  0  0  0  0  0  0  0
   44.8348  -15.5964   -7.8159 C   0  0  1  0  0  0  0  0  0  0  0  0
   44.8055  -16.2433   -6.4772 O   0  0  0  0  0  0  0  0  0  0  0  0
   44.1386  -16.2671   -8.7171 C   0  0  2  0  0  0  0  0  0  0  0  0
   44.8885  -17.3426   -9.3231 N   0  0  0  0  0  0  0  0  0  0  0  0
   46.1950  -17.6535   -9.2348 C   0  0  0  0  0  0  0  0  0  0  0  0
   46.4278  -18.7393   -9.9759 N   0  0  0  0  0  0  0  0  0  0  0  0
   45.2554  -19.0988  -10.5338 C   0  0  0  0  0  0  0  0  0  0  0  0
   44.9412  -20.1412  -11.3720 C   0  0  0  0  0  0  0  0  0  0  0  0
   45.8302  -21.1543  -11.8896 N   0  0  0  0  0  0  0  0  0  0  0  0
   43.6953  -20.3128  -11.7928 N   0  0  0  0  0  0  0  0  0  0  0  0
   42.7341  -19.4387  -11.4034 C   0  0  0  0  0  0  0  0  0  0  0  0
   43.0342  -18.4109  -10.5739 N   0  0  0  0  0  0  0  0  0  0  0  0
   44.3055  -18.2433  -10.1389 C   0  0  0  0  0  0  0  0  0  0  0  0
   42.6372   -9.8019   -8.1095 H   0  0  0  0  0  0  0  0  0  0  0  0
   43.7555   -9.0153   -9.0892 H   0  0  0  0  0  0  0  0  0  0  0  0
   43.6722  -10.6953   -9.0892 H   0  0  0  0  0  0  0  0  0  0  0  0
   44.0170   -9.9226   -6.4738 H   0  0  0  0  0  0  0  0  0  0  0  0
   46.2349  -11.1125   -6.7712 H   0  0  0  0  0  0  0  0  0  0  0  0
   44.7940  -12.0411   -7.3410 H   0  0  0  0  0  0  0  0  0  0  0  0
   45.5896  -10.5579   -9.5891 H   0  0  0  0  0  0  0  0  0  0  0  0
   47.1388  -11.1051   -8.8341 H   0  0  0  0  0  0  0  0  0  0  0  0
   46.0927  -13.4387   -8.7126 H   0  0  0  0  0  0  0  0  0  0  0  0
   47.6717  -13.0459  -10.3596 H   0  0  0  0  0  0  0  0  0  0  0  0
   46.3637  -13.6510  -11.2269 H   0  0  0  0  0  0  0  0  0  0  0  0
   46.6811  -11.9992  -11.2269 H   0  0  0  0  0  0  0  0  0  0  0  0
   43.8557  -11.9274   -9.7312 H   0  0  0  0  0  0  0  0  0  0  0  0
   44.4098  -13.1030  -11.0096 H   0  0  0  0  0  0  0  0  0  0  0  0
   42.5941  -13.7781   -9.2016 H   0  0  0  0  0  0  0  0  0  0  0  0
   44.8563  -13.4267   -7.4074 H   0  0  0  0  0  0  0  0  0  0  0  0
   43.4576  -14.1842   -5.9526 H   0  0  0  0  0  0  0  0  0  0  0  0
   45.8982  -15.5511   -8.0938 H   0  0  0  0  0  0  0  0  0  0  0  0
   44.8371  -15.5474   -5.7737 H   0  0  0  0  0  0  0  0  0  0  0  0
   43.2383  -16.7207   -8.2770 H   0  0  0  0  0  0  0  0  0  0  0  0
   46.9466  -17.1039   -8.6489 H   0  0  0  0  0  0  0  0  0  0  0  0
   45.4669  -21.8878  -12.5148 H   0  0  0  0  0  0  0  0  0  0  0  0
   46.8279  -21.1436  -11.6335 H   0  0  0  0  0  0  0  0  0  0  0  0
   41.7026  -19.5655  -11.7640 H   0  0  0  0  0  0  0  0  0  0  0  0
  2  1  1  0
  2  3  1  0
  2  6  1  0
  3  4  2  0
  3  5  1  0
  6  7  1  0
  7  8  1  0
  8  9  1  0
  8 10  1  0
 11 10  1  0
 11 12  1  0
 11 13  1  0
 12 17  1  0
 13 14  1  0
 13 15  1  0
 15 16  1  0
 15 17  1  0
 17 18  1  0
 18 19  1  0
 18 27  1  0
 19 20  2  0
 20 21  1  0
 21 22  2  0
 21 27  1  0
 22 23  1  0
 22 24  1  0
 24 25  2  0
 25 26  1  0
 26 27  2  0
  1 28  1  0
  1 29  1  0
  1 30  1  0
  2 31  1  1
  6 32  1  0
  6 33  1  0
  7 34  1  0
  7 35  1  0
  8 36  1  1
  9 37  1  0
  9 38  1  0
  9 39  1  0
 10 40  1  0
 10 41  1  0
 11 42  1  1
 13 43  1  1
 14 44  1  0
 15 45  1  6
 16 46  1  0
 17 47  1  1
 19 48  1  0
 23 49  1  0
 23 50  1  0
 25 51  1  0
M  CHG  3   1   1   5  -1   9   1
M  END
>  <filename_input>  (24) 
7PL1_SFG_docked.sdf

>  <pdb_id>  (24) 
7PL1_SFG

>  <pose_rank>  (24) 
23

>  <num_atoms_heavy>  (24) 
27

>  <num_torsions>  (24) 
7

>  <pose>  (24) 
[43.665704018490864, -14.026152991436977, -9.209521079407128, 2.903612018155299, 0.9440481457336679, -1.029296980994768, 0.4895874471717447, -4.421543766354524, -0.7074895625535506, -0.2966126677597271, 7.193199521914832, 6.136158550732489, 0.11780491653007712]

>  <energy>  (24) 
-419.7251923401643

>  <inter_energy>  (24) 
-430.0883341946082

>  <intra_energy>  (24) 
14.17907512540848

>  <rmsd>  (24) 
8.66275

>  <sdf_rank>  (24) 
0

$$$$

     RDKit          3D

 51 53  0  0  0  0  0  0  0  0999 V2000
   51.2194  -23.9246  -11.6509 N   0  0  0  0  0  0  0  0  0  0  0  0
   50.7986  -25.3062  -11.4076 C   0  0  2  0  0  0  0  0  0  0  0  0
   51.9539  -26.2785  -11.6503 C   0  0  0  0  0  0  0  0  0  0  0  0
   53.1335  -25.8702  -11.8316 O   0  0  0  0  0  0  0  0  0  0  0  0
   51.7290  -27.5178  -11.6524 O   0  0  0  0  0  0  0  0  0  0  0  0
   49.6021  -25.6811  -12.2948 C   0  0  0  0  0  0  0  0  0  0  0  0
   48.3214  -24.9981  -11.8001 C   0  0  0  0  0  0  0  0  0  0  0  0
   47.7027  -24.1298  -12.8965 C   0  0  2  0  0  0  0  0  0  0  0  0
   48.6785  -23.9646  -13.9745 N   0  0  0  0  0  0  0  0  0  0  0  0
   47.3790  -22.7419  -12.3397 C   0  0  0  0  0  0  0  0  0  0  0  0
   45.8658  -22.5414  -12.0501 C   0  0  1  0  0  0  0  0  0  0  0  0
   45.6778  -22.4806  -10.7418 O   0  0  0  0  0  0  0  0  0  0  0  0
   45.3346  -21.2100  -12.6327 C   0  0  1  0  0  0  0  0  0  0  0  0
   44.2500  -21.4431  -13.4385 O   0  0  0  0  0  0  0  0  0  0  0  0
   44.9664  -20.4213  -11.3638 C   0  0  1  0  0  0  0  0  0  0  0  0
   43.8860  -19.4420  -11.6561 O   0  0  0  0  0  0  0  0  0  0  0  0
   44.5926  -21.3416  -10.4921 C   0  0  2  0  0  0  0  0  0  0  0  0
   44.7384  -20.9119   -9.1208 N   0  0  0  0  0  0  0  0  0  0  0  0
   44.8862  -19.6780   -8.6039 C   0  0  0  0  0  0  0  0  0  0  0  0
   44.9846  -19.7790   -7.2763 N   0  0  0  0  0  0  0  0  0  0  0  0
   44.9043  -21.0885   -6.9700 C   0  0  0  0  0  0  0  0  0  0  0  0
   44.9440  -21.7317   -5.7565 C   0  0  0  0  0  0  0  0  0  0  0  0
   45.0917  -21.1376   -4.4489 N   0  0  0  0  0  0  0  0  0  0  0  0
   44.8299  -23.0513   -5.6916 N   0  0  0  0  0  0  0  0  0  0  0  0
   44.6917  -23.7654   -6.8365 C   0  0  0  0  0  0  0  0  0  0  0  0
   44.6474  -23.1391   -8.0366 N   0  0  0  0  0  0  0  0  0  0  0  0
   44.7554  -21.7908   -8.0991 C   0  0  0  0  0  0  0  0  0  0  0  0
   51.3650  -23.4465  -10.7503 H   0  0  0  0  0  0  0  0  0  0  0  0
   52.0990  -23.9229  -12.1867 H   0  0  0  0  0  0  0  0  0  0  0  0
   50.4900  -23.4328  -12.1867 H   0  0  0  0  0  0  0  0  0  0  0  0
   50.4906  -25.3805  -10.3542 H   0  0  0  0  0  0  0  0  0  0  0  0
   49.8051  -25.3616  -13.3277 H   0  0  0  0  0  0  0  0  0  0  0  0
   49.4594  -26.7709  -12.2518 H   0  0  0  0  0  0  0  0  0  0  0  0
   47.5961  -25.7687  -11.4997 H   0  0  0  0  0  0  0  0  0  0  0  0
   48.5762  -24.3538  -10.9457 H   0  0  0  0  0  0  0  0  0  0  0  0
   46.7851  -24.6125  -13.2640 H   0  0  0  0  0  0  0  0  0  0  0  0
   49.6127  -23.8064  -13.5706 H   0  0  0  0  0  0  0  0  0  0  0  0
   48.6952  -24.8147  -14.5558 H   0  0  0  0  0  0  0  0  0  0  0  0
   48.4144  -23.1564  -14.5558 H   0  0  0  0  0  0  0  0  0  0  0  0
   47.9369  -22.6016  -11.4021 H   0  0  0  0  0  0  0  0  0  0  0  0
   47.6681  -22.0053  -13.1038 H   0  0  0  0  0  0  0  0  0  0  0  0
   45.3348  -23.3863  -12.5129 H   0  0  0  0  0  0  0  0  0  0  0  0
   46.0499  -20.6709  -13.2713 H   0  0  0  0  0  0  0  0  0  0  0  0
   43.4527  -21.6144  -12.8773 H   0  0  0  0  0  0  0  0  0  0  0  0
   45.8023  -19.8237  -10.9712 H   0  0  0  0  0  0  0  0  0  0  0  0
   43.5104  -19.1015  -10.8058 H   0  0  0  0  0  0  0  0  0  0  0  0
   43.5361  -21.6182  -10.6241 H   0  0  0  0  0  0  0  0  0  0  0  0
   44.9203  -18.7415   -9.1800 H   0  0  0  0  0  0  0  0  0  0  0  0
   45.1066  -21.7354   -3.6103 H   0  0  0  0  0  0  0  0  0  0  0  0
   45.1821  -20.1159   -4.3547 H   0  0  0  0  0  0  0  0  0  0  0  0
   44.6151  -24.8617   -6.7899 H   0  0  0  0  0  0  0  0  0  0  0  0
  2  1  1  0
  2  3  1  0
  2  6  1  0
  3  4  2  0
  3  5  1  0
  6  7  1  0
  7  8  1  0
  8  9  1  0
  8 10  1  0
 11 10  1  0
 11 12  1  0
 11 13  1  0
 12 17  1  0
 13 14  1  0
 13 15  1  0
 15 16  1  0
 15 17  1  0
 17 18  1  0
 18 19  1  0
 18 27  1  0
 19 20  2  0
 20 21  1  0
 21 22  2  0
 21 27  1  0
 22 23  1  0
 22 24  1  0
 24 25  2  0
 25 26  1  0
 26 27  2  0
  1 28  1  0
  1 29  1  0
  1 30  1  0
  2 31  1  1
  6 32  1  0
  6 33  1  0
  7 34  1  0
  7 35  1  0
  8 36  1  6
  9 37  1  0
  9 38  1  0
  9 39  1  0
 10 40  1  0
 10 41  1  0
 11 42  1  6
 13 43  1  6
 14 44  1  0
 15 45  1  1
 16 46  1  0
 17 47  1  6
 19 48  1  0
 23 49  1  0
 23 50  1  0
 25 51  1  0
M  CHG  3   1   1   5  -1   9   1
M  END
>  <filename_input>  (25) 
7PL1_SFG_docked.sdf

>  <pdb_id>  (25) 
7PL1_SFG

>  <pose_rank>  (25) 
24

>  <num_atoms_heavy>  (25) 
27

>  <num_torsions>  (25) 
7

>  <pose>  (25) 
[45.865767801764555, -22.541416255442474, -12.050075937669906, 1.153818875486024, -0.057969023630943875, 0.01172715236737663, -5.3345821960892845, -7.29371385768218, 24.730118260576333, 33.81321785527441, 11.615717708556184, -8.632913956561497, 0.17656216661686425]

>  <energy>  (25) 
-490.52288091856235

>  <inter_energy>  (25) 
-484.98907696751445

>  <intra_energy>  (25) 
13.889266701566678

>  <rmsd>  (25) 
8.26081

>  <sdf_rank>  (25) 
0

$$$$

     RDKit          3D

 51 53  0  0  0  0  0  0  0  0999 V2000
   44.8790  -20.9340   -4.4640 N   0  0  0  0  0  0  0  0  0  0  0  0
   44.5920  -21.6870   -5.6870 C   0  0  2  0  0  0  0  0  0  0  0  0
   45.4620  -22.9420   -5.7710 C   0  0  0  0  0  0  0  0  0  0  0  0
   46.3000  -23.2260   -4.8720 O   0  0  0  0  0  0  0  0  0  0  0  0
   45.3290  -23.7220   -6.7510 O   0  0  0  0  0  0  0  0  0  0  0  0
   44.8070  -20.8150   -6.9330 C   0  0  0  0  0  0  0  0  0  0  0  0
   46.2660  -20.3530   -7.0300 C   0  0  0  0  0  0  0  0  0  0  0  0
   46.5060  -19.5560   -8.3130 C   0  0  2  0  0  0  0  0  0  0  0  0
   47.8970  -19.7390   -8.7290 N   0  0  0  0  0  0  0  0  0  0  0  0
   46.2880  -18.0650   -8.0470 C   0  0  0  0  0  0  0  0  0  0  0  0
   44.7880  -17.6600   -8.0530 C   0  0  1  0  0  0  0  0  0  0  0  0
   44.6670  -16.4330   -7.5730 O   0  0  0  0  0  0  0  0  0  0  0  0
   44.2000  -17.6320   -9.4840 C   0  0  1  0  0  0  0  0  0  0  0  0
   43.0800  -18.4200   -9.5530 O   0  0  0  0  0  0  0  0  0  0  0  0
   43.8820  -16.1390   -9.6780 C   0  0  1  0  0  0  0  0  0  0  0  0
   42.7680  -15.9670  -10.6480 O   0  0  0  0  0  0  0  0  0  0  0  0
   43.5730  -15.7010   -8.4700 C   0  0  2  0  0  0  0  0  0  0  0  0
   43.7810  -14.2800   -8.3150 N   0  0  0  0  0  0  0  0  0  0  0  0
   44.7440  -13.4800   -8.8090 C   0  0  0  0  0  0  0  0  0  0  0  0
   44.5200  -12.2320   -8.3910 N   0  0  0  0  0  0  0  0  0  0  0  0
   43.4120  -12.2620   -7.6250 C   0  0  0  0  0  0  0  0  0  0  0  0
   42.7510  -11.2570   -6.9610 C   0  0  0  0  0  0  0  0  0  0  0  0
   43.0970   -9.8560   -6.9140 N   0  0  0  0  0  0  0  0  0  0  0  0
   41.6520  -11.5200   -6.2670 N   0  0  0  0  0  0  0  0  0  0  0  0
   41.1940  -12.7950   -6.2020 C   0  0  0  0  0  0  0  0  0  0  0  0
   41.8370  -13.7910   -6.8570 N   0  0  0  0  0  0  0  0  0  0  0  0
   42.9540  -13.5180   -7.5720 C   0  0  0  0  0  0  0  0  0  0  0  0
   44.6575  -21.5152   -3.6430 H   0  0  0  0  0  0  0  0  0  0  0  0
   45.8765  -20.6781   -4.4445 H   0  0  0  0  0  0  0  0  0  0  0  0
   44.3048  -20.0791   -4.4445 H   0  0  0  0  0  0  0  0  0  0  0  0
   43.5358  -21.9920   -5.6507 H   0  0  0  0  0  0  0  0  0  0  0  0
   44.5534  -21.3991   -7.8299 H   0  0  0  0  0  0  0  0  0  0  0  0
   44.1608  -19.9280   -6.8580 H   0  0  0  0  0  0  0  0  0  0  0  0
   46.5002  -19.7177   -6.1631 H   0  0  0  0  0  0  0  0  0  0  0  0
   46.9141  -21.2417   -7.0439 H   0  0  0  0  0  0  0  0  0  0  0  0
   45.8111  -19.9063   -9.0904 H   0  0  0  0  0  0  0  0  0  0  0  0
   48.4971  -19.8179   -7.8956 H   0  0  0  0  0  0  0  0  0  0  0  0
   47.9768  -20.5977   -9.2921 H   0  0  0  0  0  0  0  0  0  0  0  0
   48.1962  -18.9301   -9.2921 H   0  0  0  0  0  0  0  0  0  0  0  0
   46.7136  -17.8186   -7.0631 H   0  0  0  0  0  0  0  0  0  0  0  0
   46.7817  -17.5104   -8.8586 H   0  0  0  0  0  0  0  0  0  0  0  0
   44.2512  -18.4042   -7.4464 H   0  0  0  0  0  0  0  0  0  0  0  0
   44.8698  -18.0249  -10.2631 H   0  0  0  0  0  0  0  0  0  0  0  0
   42.7720  -18.6367   -8.6374 H   0  0  0  0  0  0  0  0  0  0  0  0
   44.7247  -15.5710  -10.0990 H   0  0  0  0  0  0  0  0  0  0  0  0
   41.9191  -15.8359  -10.1558 H   0  0  0  0  0  0  0  0  0  0  0  0
   42.5170  -15.8922   -8.2284 H   0  0  0  0  0  0  0  0  0  0  0  0
   45.5776  -13.8012   -9.4508 H   0  0  0  0  0  0  0  0  0  0  0  0
   42.5141   -9.1994   -6.3755 H   0  0  0  0  0  0  0  0  0  0  0  0
   43.9267   -9.5132   -7.4190 H   0  0  0  0  0  0  0  0  0  0  0  0
   40.2933  -13.0219   -5.6127 H   0  0  0  0  0  0  0  0  0  0  0  0
  2  1  1  0
  2  3  1  0
  2  6  1  0
  3  4  2  0
  3  5  1  0
  6  7  1  0
  7  8  1  0
  8  9  1  0
  8 10  1  0
 11 10  1  0
 11 12  1  0
 11 13  1  0
 12 17  1  0
 13 14  1  0
 13 15  1  0
 15 16  1  0
 15 17  1  0
 17 18  1  0
 18 19  1  0
 18 27  1  0
 19 20  2  0
 20 21  1  0
 21 22  2  0
 21 27  1  0
 22 23  1  0
 22 24  1  0
 24 25  2  0
 25 26  1  0
 26 27  2  0
  1 28  1  0
  1 29  1  0
  1 30  1  0
  2 31  1  1
  6 32  1  0
  6 33  1  0
  7 34  1  0
  7 35  1  0
  8 36  1  6
  9 37  1  0
  9 38  1  0
  9 39  1  0
 10 40  1  0
 10 41  1  0
 11 42  1  1
 13 43  1  6
 14 44  1  0
 15 45  1  6
 16 46  1  0
 17 47  1  1
 19 48  1  0
 23 49  1  0
 23 50  1  0
 25 51  1  0
M  CHG  3   1   1   5  -1   9   1
M  END
>  <filename_input>  (26) 
7PL1_SFG_docked.sdf

>  <pdb_id>  (26) 
7PL1_SFG

>  <pose_rank>  (26) 
25

>  <num_atoms_heavy>  (26) 
27

>  <num_torsions>  (26) 
7

>  <pose>  (26) 
[44.788, -17.66, -8.053, 1e-06, 1e-06, 1e-06, 0.0, 0.0, 0.0, 0.0, 0.0, 0.0, 0.0]

>  <energy>  (26) 
-1043.111382514033

>  <inter_energy>  (26) 
-1061.1273862635273

>  <intra_energy>  (26) 
6.385723495286499

>  <rmsd>  (26) 
0.0

>  <sdf_rank>  (26) 
0

$$$$
