
     RDKit          3D

 40 41  0  0  0  0  0  0  0  0999 V2000
  -42.9622   19.0496  -64.6399 Cl  0  0  0  0  0  0  0  0  0  0  0  0
  -42.8639   20.0975  -63.1885 C   0  0  0  0  0  0  0  0  0  0  0  0
  -43.6587   21.3377  -63.1300 C   0  0  0  0  0  0  0  0  0  0  0  0
  -44.5312   21.6867  -64.2693 C   0  0  0  0  0  0  0  0  0  0  0  0
  -45.3970   22.8115  -64.1883 O   0  0  0  0  0  0  0  0  0  0  0  0
  -46.1445   23.2099  -65.3277 C   0  0  0  0  0  0  0  0  0  0  0  0
  -44.5550   21.0046  -65.2603 O   0  0  0  0  0  0  0  0  0  0  0  0
  -42.0469   19.7495  -62.1256 C   0  0  0  0  0  0  0  0  0  0  0  0
  -41.9732   20.5510  -61.0016 C   0  0  0  0  0  0  0  0  0  0  0  0
  -42.8016   21.8196  -60.9449 C   0  0  0  0  0  0  0  0  0  0  0  0
  -42.7600   22.8144  -59.6586 S   0  0  1  0  0  0  0  0  0  0  0  0
  -41.4202   23.2028  -59.3299 O   0  0  0  0  0  0  0  0  0  0  0  0
  -43.4710   24.2125  -60.0903 N   0  0  0  0  0  0  0  0  0  0  0  0
  -43.4865   22.2190  -58.5742 O   0  0  0  0  0  0  0  0  0  0  0  0
  -43.5988   22.1429  -62.0242 C   0  0  0  0  0  0  0  0  0  0  0  0
  -40.9655   20.1481  -59.6862 S   0  0  0  0  0  0  0  0  0  0  0  0
  -40.3920   18.4579  -59.6680 C   0  0  1  0  0  0  0  0  0  0  0  0
  -38.8726   18.1916  -59.5940 C   0  0  0  0  0  0  0  0  0  0  0  0
  -38.5487   16.7125  -59.8851 C   0  0  0  0  0  0  0  0  0  0  0  0
  -39.4801   15.7912  -59.0724 C   0  0  0  0  0  0  0  0  0  0  0  0
  -40.9575   16.2315  -58.8390 C   0  0  0  0  0  0  0  0  0  0  0  0
  -41.1119   17.7164  -58.5567 C   0  0  0  0  0  0  0  0  0  0  0  0
  -47.0720   23.7043  -65.0033 H   0  0  0  0  0  0  0  0  0  0  0  0
  -45.5478   23.9097  -65.9314 H   0  0  0  0  0  0  0  0  0  0  0  0
  -46.3927   22.3245  -65.9314 H   0  0  0  0  0  0  0  0  0  0  0  0
  -41.4510   18.8263  -62.1762 H   0  0  0  0  0  0  0  0  0  0  0  0
  -43.7379   24.7373  -59.2452 H   0  0  0  0  0  0  0  0  0  0  0  0
  -42.8130   24.7740  -60.6496 H   0  0  0  0  0  0  0  0  0  0  0  0
  -44.1975   23.0653  -61.9955 H   0  0  0  0  0  0  0  0  0  0  0  0
  -40.6377   18.0847  -60.6731 H   0  0  0  0  0  0  0  0  0  0  0  0
  -38.3615   18.8231  -60.3356 H   0  0  0  0  0  0  0  0  0  0  0  0
  -38.5274   18.4291  -58.5769 H   0  0  0  0  0  0  0  0  0  0  0  0
  -38.6886   16.5147  -60.9581 H   0  0  0  0  0  0  0  0  0  0  0  0
  -37.5062   16.5110  -59.5978 H   0  0  0  0  0  0  0  0  0  0  0  0
  -39.5100   14.8223  -59.5923 H   0  0  0  0  0  0  0  0  0  0  0  0
  -39.0404   15.7923  -58.0640 H   0  0  0  0  0  0  0  0  0  0  0  0
  -41.5399   15.9862  -59.7394 H   0  0  0  0  0  0  0  0  0  0  0  0
  -41.3175   15.6946  -57.9490 H   0  0  0  0  0  0  0  0  0  0  0  0
  -40.6620   17.9645  -57.5841 H   0  0  0  0  0  0  0  0  0  0  0  0
  -42.1741   18.0001  -58.5201 H   0  0  0  0  0  0  0  0  0  0  0  0
  1  2  1  0
  2  3  2  0
  2  8  1  0
  3  4  1  0
  3 15  1  0
  4  5  1  0
  4  7  2  0
  5  6  1  0
  8  9  2  0
  9 10  1  0
  9 16  1  0
 10 11  1  0
 10 15  2  0
 11 12  2  0
 11 13  1  6
 11 14  2  0
 17 16  1  0
 17 18  1  0
 17 22  1  0
 18 19  1  0
 19 20  1  0
 20 21  1  0
 21 22  1  0
  6 23  1  0
  6 24  1  0
  6 25  1  0
  8 26  1  0
 13 27  1  0
 13 28  1  0
 15 29  1  0
 17 30  1  6
 18 31  1  0
 18 32  1  0
 19 33  1  0
 19 34  1  0
 20 35  1  0
 20 36  1  0
 21 37  1  0
 21 38  1  0
 22 39  1  0
 22 40  1  0
M  END
>  <filename_input>  (1) 
7POM_7VZ_docked.sdf

>  <pdb_id>  (1) 
7POM_7VZ

>  <pose_rank>  (1) 
0

>  <num_atoms_heavy>  (1) 
22

>  <num_torsions>  (1) 
5

>  <pose>  (1) 
[-42.962226006680915, 19.04956474609285, -64.63994614577997, -5.277671382704916, -1.2848169709280293, -3.213458675489879, -6.328458070671499, 6.486127659270803, 6.558588309643622, 0.42762382513505254, 2.233774064802178]

>  <energy>  (1) 
-852.1975919822822

>  <inter_energy>  (1) 
-885.3679751196433

>  <intra_energy>  (1) 
36.87220361914826

>  <rmsd>  (1) 
0.599727

>  <sdf_rank>  (1) 
0

$$$$

     RDKit          3D

 40 41  0  0  0  0  0  0  0  0999 V2000
  -40.4383   16.8323  -61.5238 Cl  0  0  0  0  0  0  0  0  0  0  0  0
  -40.7874   18.4200  -60.7678 C   0  0  0  0  0  0  0  0  0  0  0  0
  -40.0824   18.8100  -59.5332 C   0  0  0  0  0  0  0  0  0  0  0  0
  -39.0912   17.8843  -58.9485 C   0  0  0  0  0  0  0  0  0  0  0  0
  -39.3102   16.4802  -58.9949 O   0  0  0  0  0  0  0  0  0  0  0  0
  -40.4072   15.9139  -58.2937 C   0  0  0  0  0  0  0  0  0  0  0  0
  -38.1110   18.3019  -58.3894 O   0  0  0  0  0  0  0  0  0  0  0  0
  -41.7137   19.2792  -61.3353 C   0  0  0  0  0  0  0  0  0  0  0  0
  -41.9810   20.5073  -60.7596 C   0  0  0  0  0  0  0  0  0  0  0  0
  -41.2443   20.9052  -59.4955 C   0  0  0  0  0  0  0  0  0  0  0  0
  -41.5124   22.3305  -58.7590 S   0  0  1  0  0  0  0  0  0  0  0  0
  -40.4129   22.7121  -57.9227 O   0  0  0  0  0  0  0  0  0  0  0  0
  -41.5416   23.4834  -59.9063 N   0  0  0  0  0  0  0  0  0  0  0  0
  -42.7794   22.2869  -58.0872 O   0  0  0  0  0  0  0  0  0  0  0  0
  -40.3339   20.0229  -58.9499 C   0  0  0  0  0  0  0  0  0  0  0  0
  -43.1258   21.5760  -61.4345 S   0  0  0  0  0  0  0  0  0  0  0  0
  -43.3883   21.3865  -63.1898 C   0  0  1  0  0  0  0  0  0  0  0  0
  -43.7414   19.9872  -63.7396 C   0  0  0  0  0  0  0  0  0  0  0  0
  -43.6395   19.9479  -65.2776 C   0  0  0  0  0  0  0  0  0  0  0  0
  -44.3601   21.1643  -65.8923 C   0  0  0  0  0  0  0  0  0  0  0  0
  -44.3006   22.5312  -65.1446 C   0  0  0  0  0  0  0  0  0  0  0  0
  -44.4221   22.4042  -63.6354 C   0  0  0  0  0  0  0  0  0  0  0  0
  -40.2354   16.0026  -57.2108 H   0  0  0  0  0  0  0  0  0  0  0  0
  -41.3301   16.4482  -58.5635 H   0  0  0  0  0  0  0  0  0  0  0  0
  -40.5061   14.8521  -58.5635 H   0  0  0  0  0  0  0  0  0  0  0  0
  -42.2418   18.9815  -62.2532 H   0  0  0  0  0  0  0  0  0  0  0  0
  -41.5650   24.4114  -59.4600 H   0  0  0  0  0  0  0  0  0  0  0  0
  -40.6983   23.4057  -60.4927 H   0  0  0  0  0  0  0  0  0  0  0  0
  -39.8002   20.2995  -58.0287 H   0  0  0  0  0  0  0  0  0  0  0  0
  -42.3925   21.5554  -63.6256 H   0  0  0  0  0  0  0  0  0  0  0  0
  -43.0448   19.2492  -63.3153 H   0  0  0  0  0  0  0  0  0  0  0  0
  -44.7775   19.7530  -63.4540 H   0  0  0  0  0  0  0  0  0  0  0  0
  -42.5797   19.9671  -65.5717 H   0  0  0  0  0  0  0  0  0  0  0  0
  -44.1156   19.0267  -65.6445 H   0  0  0  0  0  0  0  0  0  0  0  0
  -43.9292   21.3238  -66.8918 H   0  0  0  0  0  0  0  0  0  0  0  0
  -45.4243   20.8883  -65.8565 H   0  0  0  0  0  0  0  0  0  0  0  0
  -43.3396   23.0132  -65.3769 H   0  0  0  0  0  0  0  0  0  0  0  0
  -45.1603   23.1250  -65.4887 H   0  0  0  0  0  0  0  0  0  0  0  0
  -45.4314   22.0601  -63.3655 H   0  0  0  0  0  0  0  0  0  0  0  0
  -44.2534   23.3746  -63.1456 H   0  0  0  0  0  0  0  0  0  0  0  0
  1  2  1  0
  2  3  2  0
  2  8  1  0
  3  4  1  0
  3 15  1  0
  4  5  1  0
  4  7  2  0
  5  6  1  0
  8  9  2  0
  9 10  1  0
  9 16  1  0
 10 11  1  0
 10 15  2  0
 11 12  2  0
 11 13  1  6
 11 14  2  0
 17 16  1  0
 17 18  1  0
 17 22  1  0
 18 19  1  0
 19 20  1  0
 20 21  1  0
 21 22  1  0
  6 23  1  0
  6 24  1  0
  6 25  1  0
  8 26  1  0
 13 27  1  0
 13 28  1  0
 15 29  1  0
 17 30  1  6
 18 31  1  0
 18 32  1  0
 19 33  1  0
 19 34  1  0
 20 35  1  0
 20 36  1  0
 21 37  1  0
 21 38  1  0
 22 39  1  0
 22 40  1  0
M  END
>  <filename_input>  (2) 
7POM_7VZ_docked.sdf

>  <pdb_id>  (2) 
7POM_7VZ

>  <pose_rank>  (2) 
1

>  <num_atoms_heavy>  (2) 
22

>  <num_torsions>  (2) 
5

>  <pose>  (2) 
[-40.43825913057336, 16.832288885592018, -61.523820754446476, 0.2104196698899987, -2.34803313476129, -1.9995066071460523, -3.740400647895769, 2.805579202568197, 2.387746705405464, 6.537264679728097, 0.9812955940992558]

>  <energy>  (2) 
-602.0357624092886

>  <inter_energy>  (2) 
-645.2884223826303

>  <intra_energy>  (2) 
56.17694182527224

>  <rmsd>  (2) 
6.32704

>  <sdf_rank>  (2) 
0

$$$$

     RDKit          3D

 40 41  0  0  0  0  0  0  0  0999 V2000
  -43.7871   20.2156  -65.0435 Cl  0  0  0  0  0  0  0  0  0  0  0  0
  -43.3379   20.9452  -63.4686 C   0  0  0  0  0  0  0  0  0  0  0  0
  -44.0375   22.1553  -63.0002 C   0  0  0  0  0  0  0  0  0  0  0  0
  -45.1059   22.7374  -63.8374 C   0  0  0  0  0  0  0  0  0  0  0  0
  -44.9137   22.8891  -65.2379 O   0  0  0  0  0  0  0  0  0  0  0  0
  -45.2118   24.1298  -65.8605 C   0  0  0  0  0  0  0  0  0  0  0  0
  -46.1313   23.1297  -63.3452 O   0  0  0  0  0  0  0  0  0  0  0  0
  -42.3394   20.3802  -62.6926 C   0  0  0  0  0  0  0  0  0  0  0  0
  -41.9944   20.9355  -61.4745 C   0  0  0  0  0  0  0  0  0  0  0  0
  -42.7258   22.1742  -60.9951 C   0  0  0  0  0  0  0  0  0  0  0  0
  -42.3687   22.8861  -59.5767 S   0  0  1  0  0  0  0  0  0  0  0  0
  -43.2304   23.9994  -59.3087 O   0  0  0  0  0  0  0  0  0  0  0  0
  -42.7225   21.8312  -58.3899 N   0  0  0  0  0  0  0  0  0  0  0  0
  -40.9691   23.1993  -59.5418 O   0  0  0  0  0  0  0  0  0  0  0  0
  -43.7096   22.7182  -61.7958 C   0  0  0  0  0  0  0  0  0  0  0  0
  -40.7606   20.2636  -60.5080 S   0  0  0  0  0  0  0  0  0  0  0  0
  -40.6181   18.4867  -60.5980 C   0  0  1  0  0  0  0  0  0  0  0  0
  -41.9031   17.6481  -60.7731 C   0  0  0  0  0  0  0  0  0  0  0  0
  -41.6304   16.1494  -60.5343 C   0  0  0  0  0  0  0  0  0  0  0  0
  -40.3719   15.7054  -61.3061 C   0  0  0  0  0  0  0  0  0  0  0  0
  -39.1789   16.7008  -61.4367 C   0  0  0  0  0  0  0  0  0  0  0  0
  -39.6098   18.1378  -61.6773 C   0  0  0  0  0  0  0  0  0  0  0  0
  -45.3950   24.8924  -65.0893 H   0  0  0  0  0  0  0  0  0  0  0  0
  -44.3624   24.4389  -66.4874 H   0  0  0  0  0  0  0  0  0  0  0  0
  -46.1090   24.0194  -66.4874 H   0  0  0  0  0  0  0  0  0  0  0  0
  -41.8159   19.4808  -63.0489 H   0  0  0  0  0  0  0  0  0  0  0  0
  -42.5719   22.2802  -57.4753 H   0  0  0  0  0  0  0  0  0  0  0  0
  -43.7072   21.5402  -58.4716 H   0  0  0  0  0  0  0  0  0  0  0  0
  -44.2403   23.6212  -61.4600 H   0  0  0  0  0  0  0  0  0  0  0  0
  -40.2950   18.1960  -59.5875 H   0  0  0  0  0  0  0  0  0  0  0  0
  -42.6581   17.9944  -60.0519 H   0  0  0  0  0  0  0  0  0  0  0  0
  -42.2633   17.7756  -61.8046 H   0  0  0  0  0  0  0  0  0  0  0  0
  -41.4769   15.9753  -59.4590 H   0  0  0  0  0  0  0  0  0  0  0  0
  -42.4929   15.5673  -60.8908 H   0  0  0  0  0  0  0  0  0  0  0  0
  -39.9874   14.8043  -60.8060 H   0  0  0  0  0  0  0  0  0  0  0  0
  -40.7257   15.5782  -62.3399 H   0  0  0  0  0  0  0  0  0  0  0  0
  -38.5924   16.6646  -60.5069 H   0  0  0  0  0  0  0  0  0  0  0  0
  -38.5926   16.3887  -62.3135 H   0  0  0  0  0  0  0  0  0  0  0  0
  -40.0725   18.2319  -62.6708 H   0  0  0  0  0  0  0  0  0  0  0  0
  -38.7457   18.8175  -61.6409 H   0  0  0  0  0  0  0  0  0  0  0  0
  1  2  1  0
  2  3  2  0
  2  8  1  0
  3  4  1  0
  3 15  1  0
  4  5  1  0
  4  7  2  0
  5  6  1  0
  8  9  2  0
  9 10  1  0
  9 16  1  0
 10 11  1  0
 10 15  2  0
 11 12  2  0
 11 13  1  1
 11 14  2  0
 17 16  1  0
 17 18  1  0
 17 22  1  0
 18 19  1  0
 19 20  1  0
 20 21  1  0
 21 22  1  0
  6 23  1  0
  6 24  1  0
  6 25  1  0
  8 26  1  0
 13 27  1  0
 13 28  1  0
 15 29  1  0
 17 30  1  1
 18 31  1  0
 18 32  1  0
 19 33  1  0
 19 34  1  0
 20 35  1  0
 20 36  1  0
 21 37  1  0
 21 38  1  0
 22 39  1  0
 22 40  1  0
M  END
>  <filename_input>  (3) 
7POM_7VZ_docked.sdf

>  <pdb_id>  (3) 
7POM_7VZ

>  <pose_rank>  (3) 
2

>  <num_atoms_heavy>  (3) 
22

>  <num_torsions>  (3) 
5

>  <pose>  (3) 
[-43.78714393823991, 20.215555973531792, -65.04346390009346, -3.860746626039846, -4.501637879273383, 0.9501294390933754, 2.2128764885371557, 2.658258481469058, 1.222191420627128, -6.161722578571799, -0.5533608189871325]

>  <energy>  (3) 
-753.730139051591

>  <inter_energy>  (3) 
-782.8517314492465

>  <intra_energy>  (3) 
35.43853717082069

>  <rmsd>  (3) 
1.60595

>  <sdf_rank>  (3) 
0

$$$$

     RDKit          3D

 40 41  0  0  0  0  0  0  0  0999 V2000
  -43.4211   22.8433  -61.6361 Cl  0  0  0  0  0  0  0  0  0  0  0  0
  -43.1916   21.2630  -62.4512 C   0  0  0  0  0  0  0  0  0  0  0  0
  -43.5001   21.1320  -63.8868 C   0  0  0  0  0  0  0  0  0  0  0  0
  -43.9839   22.3137  -64.6288 C   0  0  0  0  0  0  0  0  0  0  0  0
  -45.3236   22.3610  -65.1024 O   0  0  0  0  0  0  0  0  0  0  0  0
  -45.8467   23.5757  -65.6192 C   0  0  0  0  0  0  0  0  0  0  0  0
  -43.2454   23.2298  -64.8802 O   0  0  0  0  0  0  0  0  0  0  0  0
  -42.7282   20.1678  -61.7412 C   0  0  0  0  0  0  0  0  0  0  0  0
  -42.5433   18.9491  -62.3671 C   0  0  0  0  0  0  0  0  0  0  0  0
  -42.8532   18.8252  -63.8462 C   0  0  0  0  0  0  0  0  0  0  0  0
  -42.6666   17.4217  -64.6470 S   0  0  1  0  0  0  0  0  0  0  0  0
  -43.4651   16.3755  -64.0797 O   0  0  0  0  0  0  0  0  0  0  0  0
  -43.2886   17.6153  -66.1377 N   0  0  0  0  0  0  0  0  0  0  0  0
  -41.2689   17.1128  -64.7443 O   0  0  0  0  0  0  0  0  0  0  0  0
  -43.3218   19.9329  -64.5232 C   0  0  0  0  0  0  0  0  0  0  0  0
  -41.9849   17.5845  -61.5102 S   0  0  0  0  0  0  0  0  0  0  0  0
  -41.1512   17.9498  -59.9748 C   0  0  1  0  0  0  0  0  0  0  0  0
  -40.8135   16.7843  -59.0194 C   0  0  0  0  0  0  0  0  0  0  0  0
  -40.3743   17.3041  -57.6358 C   0  0  0  0  0  0  0  0  0  0  0  0
  -39.3320   18.4290  -57.7935 C   0  0  0  0  0  0  0  0  0  0  0  0
  -39.4709   19.4216  -58.9878 C   0  0  0  0  0  0  0  0  0  0  0  0
  -39.9036   18.7567  -60.2836 C   0  0  0  0  0  0  0  0  0  0  0  0
  -46.1310   24.2360  -64.7867 H   0  0  0  0  0  0  0  0  0  0  0  0
  -45.0822   24.0712  -66.2357 H   0  0  0  0  0  0  0  0  0  0  0  0
  -46.7320   23.3607  -66.2357 H   0  0  0  0  0  0  0  0  0  0  0  0
  -42.5051   20.2686  -60.6688 H   0  0  0  0  0  0  0  0  0  0  0  0
  -44.2695   17.9206  -66.0634 H   0  0  0  0  0  0  0  0  0  0  0  0
  -42.7452   18.3270  -66.6467 H   0  0  0  0  0  0  0  0  0  0  0  0
  -43.5567   19.8507  -65.5947 H   0  0  0  0  0  0  0  0  0  0  0  0
  -41.9001   18.5080  -59.3938 H   0  0  0  0  0  0  0  0  0  0  0  0
  -41.7045   16.1508  -58.8980 H   0  0  0  0  0  0  0  0  0  0  0  0
  -39.9831   16.2085  -59.4538 H   0  0  0  0  0  0  0  0  0  0  0  0
  -41.2517   17.6948  -57.0996 H   0  0  0  0  0  0  0  0  0  0  0  0
  -39.9243   16.4760  -57.0686 H   0  0  0  0  0  0  0  0  0  0  0  0
  -39.3607   19.0276  -56.8710 H   0  0  0  0  0  0  0  0  0  0  0  0
  -38.3935   17.8940  -58.0008 H   0  0  0  0  0  0  0  0  0  0  0  0
  -40.2181   20.1837  -58.7216 H   0  0  0  0  0  0  0  0  0  0  0  0
  -38.4756   19.8555  -59.1643 H   0  0  0  0  0  0  0  0  0  0  0  0
  -39.1069   18.0938  -60.6521 H   0  0  0  0  0  0  0  0  0  0  0  0
  -40.1051   19.5079  -61.0615 H   0  0  0  0  0  0  0  0  0  0  0  0
  1  2  1  0
  2  3  2  0
  2  8  1  0
  3  4  1  0
  3 15  1  0
  4  5  1  0
  4  7  2  0
  5  6  1  0
  8  9  2  0
  9 10  1  0
  9 16  1  0
 10 11  1  0
 10 15  2  0
 11 12  2  0
 11 13  1  6
 11 14  2  0
 17 16  1  0
 17 18  1  0
 17 22  1  0
 18 19  1  0
 19 20  1  0
 20 21  1  0
 21 22  1  0
  6 23  1  0
  6 24  1  0
  6 25  1  0
  8 26  1  0
 13 27  1  0
 13 28  1  0
 15 29  1  0
 17 30  1  1
 18 31  1  0
 18 32  1  0
 19 33  1  0
 19 34  1  0
 20 35  1  0
 20 36  1  0
 21 37  1  0
 21 38  1  0
 22 39  1  0
 22 40  1  0
M  END
>  <filename_input>  (4) 
7POM_7VZ_docked.sdf

>  <pdb_id>  (4) 
7POM_7VZ

>  <pose_rank>  (4) 
3

>  <num_atoms_heavy>  (4) 
22

>  <num_torsions>  (4) 
5

>  <pose>  (4) 
[-43.42111171985148, 22.843336884718024, -61.636099280994166, 1.5369660039813986, -1.6960120593262977, 2.014340735178436, 0.05066578904214725, 1.501116578588551, 0.19365133363443957, -5.923210760750441, 3.0222757531708773]

>  <energy>  (4) 
-633.5985622572869

>  <inter_energy>  (4) 
-652.2232941929184

>  <intra_energy>  (4) 
15.872775039975464

>  <rmsd>  (4) 
4.11066

>  <sdf_rank>  (4) 
0

$$$$

     RDKit          3D

 40 41  0  0  0  0  0  0  0  0999 V2000
  -43.1481   21.6308  -62.2449 Cl  0  0  0  0  0  0  0  0  0  0  0  0
  -42.7860   20.0590  -63.0277 C   0  0  0  0  0  0  0  0  0  0  0  0
  -43.0459   19.8855  -64.4684 C   0  0  0  0  0  0  0  0  0  0  0  0
  -43.5918   21.0189  -65.2419 C   0  0  0  0  0  0  0  0  0  0  0  0
  -44.2108   22.1094  -64.5718 O   0  0  0  0  0  0  0  0  0  0  0  0
  -45.4406   22.6284  -65.0556 C   0  0  0  0  0  0  0  0  0  0  0  0
  -43.5607   21.0174  -66.4447 O   0  0  0  0  0  0  0  0  0  0  0  0
  -42.2658   19.0099  -62.2881 C   0  0  0  0  0  0  0  0  0  0  0  0
  -41.9787   17.7983  -62.8888 C   0  0  0  0  0  0  0  0  0  0  0  0
  -42.2393   17.6312  -64.3731 C   0  0  0  0  0  0  0  0  0  0  0  0
  -41.9328   16.2329  -65.1457 S   0  0  1  0  0  0  0  0  0  0  0  0
  -40.6676   15.6797  -64.7622 O   0  0  0  0  0  0  0  0  0  0  0  0
  -43.0091   15.1312  -64.6220 N   0  0  0  0  0  0  0  0  0  0  0  0
  -42.0900   16.4267  -66.5585 O   0  0  0  0  0  0  0  0  0  0  0  0
  -42.7666   18.6928  -65.0802 C   0  0  0  0  0  0  0  0  0  0  0  0
  -41.3486   16.4895  -61.9956 S   0  0  0  0  0  0  0  0  0  0  0  0
  -40.3248   16.9495  -60.6076 C   0  0  1  0  0  0  0  0  0  0  0  0
  -40.9952   17.5891  -59.3721 C   0  0  0  0  0  0  0  0  0  0  0  0
  -39.9464   18.1858  -58.4122 C   0  0  0  0  0  0  0  0  0  0  0  0
  -38.8077   17.1753  -58.1695 C   0  0  0  0  0  0  0  0  0  0  0  0
  -38.3519   16.2584  -59.3453 C   0  0  0  0  0  0  0  0  0  0  0  0
  -39.5011   15.7435  -60.1953 C   0  0  0  0  0  0  0  0  0  0  0  0
  -46.0838   22.8999  -64.2056 H   0  0  0  0  0  0  0  0  0  0  0  0
  -45.2462   23.5212  -65.6681 H   0  0  0  0  0  0  0  0  0  0  0  0
  -45.9446   21.8663  -65.6681 H   0  0  0  0  0  0  0  0  0  0  0  0
  -42.0791   19.1419  -61.2121 H   0  0  0  0  0  0  0  0  0  0  0  0
  -43.0178   15.1223  -63.5921 H   0  0  0  0  0  0  0  0  0  0  0  0
  -43.9471   15.3746  -64.9712 H   0  0  0  0  0  0  0  0  0  0  0  0
  -42.9663   18.5785  -66.1558 H   0  0  0  0  0  0  0  0  0  0  0  0
  -39.7180   17.7828  -60.9916 H   0  0  0  0  0  0  0  0  0  0  0  0
  -41.6722   18.3894  -59.7056 H   0  0  0  0  0  0  0  0  0  0  0  0
  -41.5523   16.8071  -58.8353 H   0  0  0  0  0  0  0  0  0  0  0  0
  -39.5297   19.1028  -58.8545 H   0  0  0  0  0  0  0  0  0  0  0  0
  -40.4305   18.4172  -57.4520 H   0  0  0  0  0  0  0  0  0  0  0  0
  -37.9272   17.7516  -57.8492 H   0  0  0  0  0  0  0  0  0  0  0  0
  -39.2278   16.4739  -57.4336 H   0  0  0  0  0  0  0  0  0  0  0  0
  -37.6719   16.8333  -59.9912 H   0  0  0  0  0  0  0  0  0  0  0  0
  -37.8621   15.3805  -58.8988 H   0  0  0  0  0  0  0  0  0  0  0  0
  -40.1194   15.0457  -59.6115 H   0  0  0  0  0  0  0  0  0  0  0  0
  -39.1254   15.2051  -61.0779 H   0  0  0  0  0  0  0  0  0  0  0  0
  1  2  1  0
  2  3  2  0
  2  8  1  0
  3  4  1  0
  3 15  1  0
  4  5  1  0
  4  7  2  0
  5  6  1  0
  8  9  2  0
  9 10  1  0
  9 16  1  0
 10 11  1  0
 10 15  2  0
 11 12  2  0
 11 13  1  1
 11 14  2  0
 17 16  1  0
 17 18  1  0
 17 22  1  0
 18 19  1  0
 19 20  1  0
 20 21  1  0
 21 22  1  0
  6 23  1  0
  6 24  1  0
  6 25  1  0
  8 26  1  0
 13 27  1  0
 13 28  1  0
 15 29  1  0
 17 30  1  6
 18 31  1  0
 18 32  1  0
 19 33  1  0
 19 34  1  0
 20 35  1  0
 20 36  1  0
 21 37  1  0
 21 38  1  0
 22 39  1  0
 22 40  1  0
M  END
>  <filename_input>  (5) 
7POM_7VZ_docked.sdf

>  <pdb_id>  (5) 
7POM_7VZ

>  <pose_rank>  (5) 
4

>  <num_atoms_heavy>  (5) 
22

>  <num_torsions>  (5) 
5

>  <pose>  (5) 
[-43.148132853984194, 21.63079809768775, -62.24490266045822, -1.634570971115325, 1.6952971726747719, -2.137906896577261, 23.387187663427227, -9.434617625279156, 1.1594567152968682, 56.719211442449144, 38.98653746481147]

>  <energy>  (5) 
-459.43422595583155

>  <inter_energy>  (5) 
-499.44906514435206

>  <intra_energy>  (5) 
48.52042119473564

>  <rmsd>  (5) 
4.69612

>  <sdf_rank>  (5) 
0

$$$$

     RDKit          3D

 40 41  0  0  0  0  0  0  0  0999 V2000
  -40.5063   21.3793  -59.8098 Cl  0  0  0  0  0  0  0  0  0  0  0  0
  -41.0350   19.9368  -60.7338 C   0  0  0  0  0  0  0  0  0  0  0  0
  -40.7549   18.5896  -60.2048 C   0  0  0  0  0  0  0  0  0  0  0  0
  -40.0505   18.4566  -58.9135 C   0  0  0  0  0  0  0  0  0  0  0  0
  -38.7042   18.0010  -58.8774 O   0  0  0  0  0  0  0  0  0  0  0  0
  -37.6499   18.9310  -58.6786 C   0  0  0  0  0  0  0  0  0  0  0  0
  -40.6141   18.6882  -57.8761 O   0  0  0  0  0  0  0  0  0  0  0  0
  -41.7026   20.0809  -61.9388 C   0  0  0  0  0  0  0  0  0  0  0  0
  -42.1181   18.9715  -62.6513 C   0  0  0  0  0  0  0  0  0  0  0  0
  -41.8351   17.5895  -62.0954 C   0  0  0  0  0  0  0  0  0  0  0  0
  -42.2877   16.2394  -62.8818 S   0  0  1  0  0  0  0  0  0  0  0  0
  -41.7619   16.1987  -64.2144 O   0  0  0  0  0  0  0  0  0  0  0  0
  -41.5737   14.9755  -62.1475 N   0  0  0  0  0  0  0  0  0  0  0  0
  -43.7134   16.0998  -62.8037 O   0  0  0  0  0  0  0  0  0  0  0  0
  -41.1601   17.4796  -60.8966 C   0  0  0  0  0  0  0  0  0  0  0  0
  -42.9312   19.1251  -64.1424 S   0  0  0  0  0  0  0  0  0  0  0  0
  -43.8341   20.6503  -64.3532 C   0  0  1  0  0  0  0  0  0  0  0  0
  -43.0581   21.9845  -64.2995 C   0  0  0  0  0  0  0  0  0  0  0  0
  -44.0182   23.1870  -64.2018 C   0  0  0  0  0  0  0  0  0  0  0  0
  -45.1484   23.0546  -65.2418 C   0  0  0  0  0  0  0  0  0  0  0  0
  -45.7099   21.6367  -65.5666 C   0  0  0  0  0  0  0  0  0  0  0  0
  -44.6398   20.5604  -65.6362 C   0  0  0  0  0  0  0  0  0  0  0  0
  -37.4865   19.0751  -57.6004 H   0  0  0  0  0  0  0  0  0  0  0  0
  -36.7290   18.5456  -59.1407 H   0  0  0  0  0  0  0  0  0  0  0  0
  -37.9173   19.8927  -59.1407 H   0  0  0  0  0  0  0  0  0  0  0  0
  -41.9041   21.0880  -62.3327 H   0  0  0  0  0  0  0  0  0  0  0  0
  -41.6386   15.0903  -61.1260 H   0  0  0  0  0  0  0  0  0  0  0  0
  -42.0475   14.1043  -62.4258 H   0  0  0  0  0  0  0  0  0  0  0  0
  -40.9434   16.4811  -60.4891 H   0  0  0  0  0  0  0  0  0  0  0  0
  -44.4575   20.7154  -63.4492 H   0  0  0  0  0  0  0  0  0  0  0  0
  -42.3984   21.9802  -63.4193 H   0  0  0  0  0  0  0  0  0  0  0  0
  -42.4714   22.0826  -65.2248 H   0  0  0  0  0  0  0  0  0  0  0  0
  -44.4555   23.2213  -63.1930 H   0  0  0  0  0  0  0  0  0  0  0  0
  -43.4557   24.1113  -64.4001 H   0  0  0  0  0  0  0  0  0  0  0  0
  -45.9921   23.6612  -64.8810 H   0  0  0  0  0  0  0  0  0  0  0  0
  -44.6812   23.3771  -66.1840 H   0  0  0  0  0  0  0  0  0  0  0  0
  -46.4308   21.3602  -64.7831 H   0  0  0  0  0  0  0  0  0  0  0  0
  -46.1752   21.6940  -66.5617 H   0  0  0  0  0  0  0  0  0  0  0  0
  -43.9870   20.7326  -66.5047 H   0  0  0  0  0  0  0  0  0  0  0  0
  -45.0925   19.5639  -65.7457 H   0  0  0  0  0  0  0  0  0  0  0  0
  1  2  1  0
  2  3  2  0
  2  8  1  0
  3  4  1  0
  3 15  1  0
  4  5  1  0
  4  7  2  0
  5  6  1  0
  8  9  2  0
  9 10  1  0
  9 16  1  0
 10 11  1  0
 10 15  2  0
 11 12  2  0
 11 13  1  1
 11 14  2  0
 17 16  1  0
 17 18  1  0
 17 22  1  0
 18 19  1  0
 19 20  1  0
 20 21  1  0
 21 22  1  0
  6 23  1  0
  6 24  1  0
  6 25  1  0
  8 26  1  0
 13 27  1  0
 13 28  1  0
 15 29  1  0
 17 30  1  1
 18 31  1  0
 18 32  1  0
 19 33  1  0
 19 34  1  0
 20 35  1  0
 20 36  1  0
 21 37  1  0
 21 38  1  0
 22 39  1  0
 22 40  1  0
M  END
>  <filename_input>  (6) 
7POM_7VZ_docked.sdf

>  <pdb_id>  (6) 
7POM_7VZ

>  <pose_rank>  (6) 
5

>  <num_atoms_heavy>  (6) 
22

>  <num_torsions>  (6) 
5

>  <pose>  (6) 
[-40.50628279142089, 21.379309215464605, -59.80977128640137, -2.769001449580229, -0.8971288050316598, 1.6354858793002005, -0.00033787232586467153, -4.730350168485712, -0.9730449934885202, 0.24642947078405242, 1.1034589143912257]

>  <energy>  (6) 
-540.2960915575915

>  <inter_energy>  (6) 
-555.3863379705296

>  <intra_energy>  (6) 
19.5946737176911

>  <rmsd>  (6) 
7.4346

>  <sdf_rank>  (6) 
0

$$$$

     RDKit          3D

 40 41  0  0  0  0  0  0  0  0999 V2000
  -40.4460   19.7342  -60.0521 Cl  0  0  0  0  0  0  0  0  0  0  0  0
  -41.5923   20.3922  -61.2635 C   0  0  0  0  0  0  0  0  0  0  0  0
  -42.4888   21.5016  -60.8910 C   0  0  0  0  0  0  0  0  0  0  0  0
  -42.4159   22.0568  -59.5244 C   0  0  0  0  0  0  0  0  0  0  0  0
  -41.3066   22.8570  -59.1363 O   0  0  0  0  0  0  0  0  0  0  0  0
  -41.4349   24.2705  -59.0998 C   0  0  0  0  0  0  0  0  0  0  0  0
  -43.2659   21.8070  -58.7103 O   0  0  0  0  0  0  0  0  0  0  0  0
  -41.6404   19.8648  -62.5433 C   0  0  0  0  0  0  0  0  0  0  0  0
  -42.5178   20.3735  -63.4826 C   0  0  0  0  0  0  0  0  0  0  0  0
  -43.4294   21.5213  -63.0947 C   0  0  0  0  0  0  0  0  0  0  0  0
  -44.4917   22.1656  -64.1446 S   0  0  1  0  0  0  0  0  0  0  0  0
  -45.2644   21.1560  -64.8063 O   0  0  0  0  0  0  0  0  0  0  0  0
  -45.5968   22.9946  -63.2855 N   0  0  0  0  0  0  0  0  0  0  0  0
  -43.8015   23.0581  -65.0309 O   0  0  0  0  0  0  0  0  0  0  0  0
  -43.3635   22.0185  -61.8089 C   0  0  0  0  0  0  0  0  0  0  0  0
  -42.6023   19.7321  -65.0605 S   0  0  0  0  0  0  0  0  0  0  0  0
  -42.6038   17.9494  -65.1487 C   0  0  1  0  0  0  0  0  0  0  0  0
  -43.5750   17.2568  -66.1296 C   0  0  0  0  0  0  0  0  0  0  0  0
  -43.6528   15.7401  -65.8630 C   0  0  0  0  0  0  0  0  0  0  0  0
  -42.2362   15.1495  -65.7172 C   0  0  0  0  0  0  0  0  0  0  0  0
  -41.1322   16.0045  -65.0235 C   0  0  0  0  0  0  0  0  0  0  0  0
  -41.1823   17.4774  -65.3929 C   0  0  0  0  0  0  0  0  0  0  0  0
  -41.4656   24.6090  -58.0536 H   0  0  0  0  0  0  0  0  0  0  0  0
  -40.5748   24.7301  -59.6087 H   0  0  0  0  0  0  0  0  0  0  0  0
  -42.3637   24.5677  -59.6087 H   0  0  0  0  0  0  0  0  0  0  0  0
  -40.9738   19.0330  -62.8150 H   0  0  0  0  0  0  0  0  0  0  0  0
  -45.4198   22.8618  -62.2796 H   0  0  0  0  0  0  0  0  0  0  0  0
  -45.5305   23.9962  -63.5165 H   0  0  0  0  0  0  0  0  0  0  0  0
  -44.0263   22.8460  -61.5158 H   0  0  0  0  0  0  0  0  0  0  0  0
  -43.0067   17.6369  -64.1740 H   0  0  0  0  0  0  0  0  0  0  0  0
  -44.5774   17.6936  -66.0098 H   0  0  0  0  0  0  0  0  0  0  0  0
  -43.2033   17.4109  -67.1534 H   0  0  0  0  0  0  0  0  0  0  0  0
  -44.2170   15.5631  -64.9354 H   0  0  0  0  0  0  0  0  0  0  0  0
  -44.1583   15.2532  -66.7099 H   0  0  0  0  0  0  0  0  0  0  0  0
  -42.3326   14.2174  -65.1411 H   0  0  0  0  0  0  0  0  0  0  0  0
  -41.8824   15.0499  -66.7540 H   0  0  0  0  0  0  0  0  0  0  0  0
  -41.2559   15.9147  -63.9342 H   0  0  0  0  0  0  0  0  0  0  0  0
  -40.1613   15.6184  -65.3674 H   0  0  0  0  0  0  0  0  0  0  0  0
  -40.9172   17.6102  -66.4522 H   0  0  0  0  0  0  0  0  0  0  0  0
  -40.4677   18.0572  -64.7902 H   0  0  0  0  0  0  0  0  0  0  0  0
  1  2  1  0
  2  3  2  0
  2  8  1  0
  3  4  1  0
  3 15  1  0
  4  5  1  0
  4  7  2  0
  5  6  1  0
  8  9  2  0
  9 10  1  0
  9 16  1  0
 10 11  1  0
 10 15  2  0
 11 12  2  0
 11 13  1  1
 11 14  2  0
 17 16  1  0
 17 18  1  0
 17 22  1  0
 18 19  1  0
 19 20  1  0
 20 21  1  0
 21 22  1  0
  6 23  1  0
  6 24  1  0
  6 25  1  0
  8 26  1  0
 13 27  1  0
 13 28  1  0
 15 29  1  0
 17 30  1  1
 18 31  1  0
 18 32  1  0
 19 33  1  0
 19 34  1  0
 20 35  1  0
 20 36  1  0
 21 37  1  0
 21 38  1  0
 22 39  1  0
 22 40  1  0
M  END
>  <filename_input>  (7) 
7POM_7VZ_docked.sdf

>  <pdb_id>  (7) 
7POM_7VZ

>  <pose_rank>  (7) 
6

>  <num_atoms_heavy>  (7) 
22

>  <num_torsions>  (7) 
5

>  <pose>  (7) 
[-40.44602034796432, 19.734166930812286, -60.052071033019196, 1.8730048126157846, -2.586186887117188, -0.5196327767718165, -0.12989781854290566, -1.574036877078764, -1.005701391795052, 1.482147976163191, 2.448666863341372]

>  <energy>  (7) 
-640.6702125111074

>  <inter_energy>  (7) 
-639.8838834483641

>  <intra_energy>  (7) 
14.91579688726089

>  <rmsd>  (7) 
5.34813

>  <sdf_rank>  (7) 
0

$$$$

     RDKit          3D

 40 41  0  0  0  0  0  0  0  0999 V2000
  -39.7248   16.8021  -61.3656 Cl  0  0  0  0  0  0  0  0  0  0  0  0
  -40.3346   18.3209  -60.6337 C   0  0  0  0  0  0  0  0  0  0  0  0
  -39.7976   18.7717  -59.3369 C   0  0  0  0  0  0  0  0  0  0  0  0
  -38.7563   17.9641  -58.6702 C   0  0  0  0  0  0  0  0  0  0  0  0
  -39.1044   17.0841  -57.6092 O   0  0  0  0  0  0  0  0  0  0  0  0
  -39.8416   15.9025  -57.8857 C   0  0  0  0  0  0  0  0  0  0  0  0
  -37.5991   18.0692  -58.9827 O   0  0  0  0  0  0  0  0  0  0  0  0
  -41.3051   19.0702  -61.2779 C   0  0  0  0  0  0  0  0  0  0  0  0
  -41.7734   20.2455  -60.7206 C   0  0  0  0  0  0  0  0  0  0  0  0
  -41.2086   20.7076  -59.3914 C   0  0  0  0  0  0  0  0  0  0  0  0
  -41.7166   22.0755  -58.6727 S   0  0  1  0  0  0  0  0  0  0  0  0
  -40.9298   22.3931  -57.5177 O   0  0  0  0  0  0  0  0  0  0  0  0
  -41.4212   23.3094  -59.6908 N   0  0  0  0  0  0  0  0  0  0  0  0
  -43.1263   21.9847  -58.4216 O   0  0  0  0  0  0  0  0  0  0  0  0
  -40.2490   19.9338  -58.7707 C   0  0  0  0  0  0  0  0  0  0  0  0
  -42.9760   21.1778  -61.4902 S   0  0  0  0  0  0  0  0  0  0  0  0
  -43.2309   20.8001  -63.2160 C   0  0  1  0  0  0  0  0  0  0  0  0
  -43.6597   19.3686  -63.6059 C   0  0  0  0  0  0  0  0  0  0  0  0
  -43.5444   19.1444  -65.1270 C   0  0  0  0  0  0  0  0  0  0  0  0
  -44.1860   20.3198  -65.8908 C   0  0  0  0  0  0  0  0  0  0  0  0
  -44.0543   21.7590  -65.3056 C   0  0  0  0  0  0  0  0  0  0  0  0
  -44.1986   21.8162  -63.7942 C   0  0  0  0  0  0  0  0  0  0  0  0
  -40.1389   15.4261  -56.9399 H   0  0  0  0  0  0  0  0  0  0  0  0
  -40.7405   16.1585  -58.4658 H   0  0  0  0  0  0  0  0  0  0  0  0
  -39.2165   15.2077  -58.4658 H   0  0  0  0  0  0  0  0  0  0  0  0
  -41.7073   18.7268  -62.2424 H   0  0  0  0  0  0  0  0  0  0  0  0
  -41.2173   24.1609  -59.1483 H   0  0  0  0  0  0  0  0  0  0  0  0
  -40.6117   23.0785  -60.2844 H   0  0  0  0  0  0  0  0  0  0  0  0
  -39.8390   20.2569  -57.8025 H   0  0  0  0  0  0  0  0  0  0  0  0
  -42.2225   20.8599  -63.6513 H   0  0  0  0  0  0  0  0  0  0  0  0
  -43.0120   18.6466  -63.0870 H   0  0  0  0  0  0  0  0  0  0  0  0
  -44.7107   19.2288  -63.3128 H   0  0  0  0  0  0  0  0  0  0  0  0
  -42.4823   19.0687  -65.4032 H   0  0  0  0  0  0  0  0  0  0  0  0
  -44.0698   18.2153  -65.3928 H   0  0  0  0  0  0  0  0  0  0  0  0
  -43.7362   20.3368  -66.8945 H   0  0  0  0  0  0  0  0  0  0  0  0
  -45.2649   20.1110  -65.8414 H   0  0  0  0  0  0  0  0  0  0  0  0
  -43.0643   22.1550  -65.5757 H   0  0  0  0  0  0  0  0  0  0  0  0
  -44.8740   22.3566  -65.7309 H   0  0  0  0  0  0  0  0  0  0  0  0
  -45.2291   21.5640  -63.5035 H   0  0  0  0  0  0  0  0  0  0  0  0
  -43.9784   22.8258  -63.4173 H   0  0  0  0  0  0  0  0  0  0  0  0
  1  2  1  0
  2  3  2  0
  2  8  1  0
  3  4  1  0
  3 15  1  0
  4  5  1  0
  4  7  2  0
  5  6  1  0
  8  9  2  0
  9 10  1  0
  9 16  1  0
 10 11  1  0
 10 15  2  0
 11 12  2  0
 11 13  1  6
 11 14  2  0
 17 16  1  0
 17 18  1  0
 17 22  1  0
 18 19  1  0
 19 20  1  0
 20 21  1  0
 21 22  1  0
  6 23  1  0
  6 24  1  0
  6 25  1  0
  8 26  1  0
 13 27  1  0
 13 28  1  0
 15 29  1  0
 17 30  1  6
 18 31  1  0
 18 32  1  0
 19 33  1  0
 19 34  1  0
 20 35  1  0
 20 36  1  0
 21 37  1  0
 21 38  1  0
 22 39  1  0
 22 40  1  0
M  END
>  <filename_input>  (8) 
7POM_7VZ_docked.sdf

>  <pdb_id>  (8) 
7POM_7VZ

>  <pose_rank>  (8) 
7

>  <num_atoms_heavy>  (8) 
22

>  <num_torsions>  (8) 
5

>  <pose>  (8) 
[-39.72477314910432, 16.8020556496346, -61.36561852898491, 0.44537280138069135, -2.312028249064088, -1.9881021161173538, 2.2909296769172527, 1.6948378835085502, -1.5365646811395888, 0.4173419986332329, 1.0964494307092538]

>  <energy>  (8) 
-603.8900707997489

>  <inter_energy>  (8) 
-635.2130679108581

>  <intra_energy>  (8) 
26.82151667544617

>  <rmsd>  (8) 
6.34458

>  <sdf_rank>  (8) 
0

$$$$

     RDKit          3D

 40 41  0  0  0  0  0  0  0  0999 V2000
  -41.5053   16.3641  -62.4762 Cl  0  0  0  0  0  0  0  0  0  0  0  0
  -42.2415   17.8703  -63.1117 C   0  0  0  0  0  0  0  0  0  0  0  0
  -42.7724   17.8981  -64.4867 C   0  0  0  0  0  0  0  0  0  0  0  0
  -42.6955   16.6755  -65.3117 C   0  0  0  0  0  0  0  0  0  0  0  0
  -43.5789   15.5894  -65.0641 O   0  0  0  0  0  0  0  0  0  0  0  0
  -43.4274   14.3776  -65.7882 C   0  0  0  0  0  0  0  0  0  0  0  0
  -41.8616   16.5625  -66.1717 O   0  0  0  0  0  0  0  0  0  0  0  0
  -42.3132   19.0047  -62.3202 C   0  0  0  0  0  0  0  0  0  0  0  0
  -42.8861   20.1663  -62.8037 C   0  0  0  0  0  0  0  0  0  0  0  0
  -43.4390   20.1836  -64.2155 C   0  0  0  0  0  0  0  0  0  0  0  0
  -44.1203   21.5157  -64.8536 S   0  0  1  0  0  0  0  0  0  0  0  0
  -44.2959   21.3963  -66.2709 O   0  0  0  0  0  0  0  0  0  0  0  0
  -45.6410   21.6157  -64.2844 N   0  0  0  0  0  0  0  0  0  0  0  0
  -43.3757   22.6720  -64.4450 O   0  0  0  0  0  0  0  0  0  0  0  0
  -43.3442   19.0395  -64.9816 C   0  0  0  0  0  0  0  0  0  0  0  0
  -42.9746   21.5780  -61.8512 S   0  0  0  0  0  0  0  0  0  0  0  0
  -42.0645   21.5087  -60.3173 C   0  0  1  0  0  0  0  0  0  0  0  0
  -40.7059   20.7746  -60.2941 C   0  0  0  0  0  0  0  0  0  0  0  0
  -40.2114   20.5576  -58.8499 C   0  0  0  0  0  0  0  0  0  0  0  0
  -40.3364   21.8636  -58.0402 C   0  0  0  0  0  0  0  0  0  0  0  0
  -41.5490   22.8049  -58.3129 C   0  0  0  0  0  0  0  0  0  0  0  0
  -41.9096   22.9211  -59.7842 C   0  0  0  0  0  0  0  0  0  0  0  0
  -43.3226   13.5398  -65.0832 H   0  0  0  0  0  0  0  0  0  0  0  0
  -44.3122   14.2156  -66.4213 H   0  0  0  0  0  0  0  0  0  0  0  0
  -42.5298   14.4385  -66.4213 H   0  0  0  0  0  0  0  0  0  0  0  0
  -41.9103   18.9812  -61.2970 H   0  0  0  0  0  0  0  0  0  0  0  0
  -45.6229   21.6145  -63.2545 H   0  0  0  0  0  0  0  0  0  0  0  0
  -46.0763   22.4871  -64.6191 H   0  0  0  0  0  0  0  0  0  0  0  0
  -43.7356   19.0448  -66.0096 H   0  0  0  0  0  0  0  0  0  0  0  0
  -42.6804   20.8636  -59.6735 H   0  0  0  0  0  0  0  0  0  0  0  0
  -40.8185   19.7967  -60.7851 H   0  0  0  0  0  0  0  0  0  0  0  0
  -39.9675   21.3935  -60.8249 H   0  0  0  0  0  0  0  0  0  0  0  0
  -40.8187   19.7748  -58.3720 H   0  0  0  0  0  0  0  0  0  0  0  0
  -39.1551   20.2519  -58.8753 H   0  0  0  0  0  0  0  0  0  0  0  0
  -40.3785   21.5821  -56.9777 H   0  0  0  0  0  0  0  0  0  0  0  0
  -39.4646   22.4557  -58.3555 H   0  0  0  0  0  0  0  0  0  0  0  0
  -42.4222   22.4132  -57.7706 H   0  0  0  0  0  0  0  0  0  0  0  0
  -41.2607   23.8099  -57.9709 H   0  0  0  0  0  0  0  0  0  0  0  0
  -41.1099   23.4445  -60.3287 H   0  0  0  0  0  0  0  0  0  0  0  0
  -42.8394   23.4939  -59.9159 H   0  0  0  0  0  0  0  0  0  0  0  0
  1  2  1  0
  2  3  2  0
  2  8  1  0
  3  4  1  0
  3 15  1  0
  4  5  1  0
  4  7  2  0
  5  6  1  0
  8  9  2  0
  9 10  1  0
  9 16  1  0
 10 11  1  0
 10 15  2  0
 11 12  2  0
 11 13  1  1
 11 14  2  0
 17 16  1  0
 17 18  1  0
 17 22  1  0
 18 19  1  0
 19 20  1  0
 20 21  1  0
 21 22  1  0
  6 23  1  0
  6 24  1  0
  6 25  1  0
  8 26  1  0
 13 27  1  0
 13 28  1  0
 15 29  1  0
 17 30  1  1
 18 31  1  0
 18 32  1  0
 19 33  1  0
 19 34  1  0
 20 35  1  0
 20 36  1  0
 21 37  1  0
 21 38  1  0
 22 39  1  0
 22 40  1  0
M  END
>  <filename_input>  (9) 
7POM_7VZ_docked.sdf

>  <pdb_id>  (9) 
7POM_7VZ

>  <pose_rank>  (9) 
8

>  <num_atoms_heavy>  (9) 
22

>  <num_torsions>  (9) 
5

>  <pose>  (9) 
[-41.505321140927876, 16.36412957325875, -62.47622256347048, -1.2104382377011, -0.6731509595534328, 0.31834807997692594, 1.9389591282883107, -1.5341330417311592, 0.46132041080179925, 0.8637060290247297, 0.7021702485703597]

>  <energy>  (9) 
-506.22500790025356

>  <inter_energy>  (9) 
-528.9534962130566

>  <intra_energy>  (9) 
36.675802801719996

>  <rmsd>  (9) 
5.18442

>  <sdf_rank>  (9) 
0

$$$$

     RDKit          3D

 40 41  0  0  0  0  0  0  0  0999 V2000
  -40.7901   19.6638  -59.3447 Cl  0  0  0  0  0  0  0  0  0  0  0  0
  -41.6462   19.9044  -60.9014 C   0  0  0  0  0  0  0  0  0  0  0  0
  -42.5950   21.0235  -61.0459 C   0  0  0  0  0  0  0  0  0  0  0  0
  -42.8132   21.9330  -59.9029 C   0  0  0  0  0  0  0  0  0  0  0  0
  -41.9146   21.9245  -58.8012 O   0  0  0  0  0  0  0  0  0  0  0  0
  -41.3906   23.1489  -58.3088 C   0  0  0  0  0  0  0  0  0  0  0  0
  -43.7717   22.6593  -59.8661 O   0  0  0  0  0  0  0  0  0  0  0  0
  -41.4223   19.0467  -61.9656 C   0  0  0  0  0  0  0  0  0  0  0  0
  -42.0751   19.2324  -63.1699 C   0  0  0  0  0  0  0  0  0  0  0  0
  -43.0416   20.3917  -63.3137 C   0  0  0  0  0  0  0  0  0  0  0  0
  -43.8504   20.6677  -64.6977 S   0  0  1  0  0  0  0  0  0  0  0  0
  -43.1125   20.2223  -65.8427 O   0  0  0  0  0  0  0  0  0  0  0  0
  -45.1711   19.7177  -64.6977 N   0  0  0  0  0  0  0  0  0  0  0  0
  -44.2477   22.0453  -64.7490 O   0  0  0  0  0  0  0  0  0  0  0  0
  -43.2496   21.2231  -62.2318 C   0  0  0  0  0  0  0  0  0  0  0  0
  -41.8234   18.1820  -64.4895 S   0  0  0  0  0  0  0  0  0  0  0  0
  -42.2692   16.4795  -64.1915 C   0  0  1  0  0  0  0  0  0  0  0  0
  -43.7501   16.1386  -63.9160 C   0  0  0  0  0  0  0  0  0  0  0  0
  -43.9046   14.6960  -63.3940 C   0  0  0  0  0  0  0  0  0  0  0  0
  -43.0937   13.7207  -64.2702 C   0  0  0  0  0  0  0  0  0  0  0  0
  -41.7279   14.1927  -64.8557 C   0  0  0  0  0  0  0  0  0  0  0  0
  -41.7376   15.6346  -65.3345 C   0  0  0  0  0  0  0  0  0  0  0  0
  -41.3968   23.1344  -57.2089 H   0  0  0  0  0  0  0  0  0  0  0  0
  -40.3589   23.2770  -58.6680 H   0  0  0  0  0  0  0  0  0  0  0  0
  -42.0103   23.9837  -58.6680 H   0  0  0  0  0  0  0  0  0  0  0  0
  -40.7180   18.2094  -61.8513 H   0  0  0  0  0  0  0  0  0  0  0  0
  -45.4498   19.5172  -63.7266 H   0  0  0  0  0  0  0  0  0  0  0  0
  -45.9409   20.1999  -65.1833 H   0  0  0  0  0  0  0  0  0  0  0  0
  -43.9549   22.0623  -62.3241 H   0  0  0  0  0  0  0  0  0  0  0  0
  -41.8009   16.2494  -63.2231 H   0  0  0  0  0  0  0  0  0  0  0  0
  -44.1444   16.8365  -63.1627 H   0  0  0  0  0  0  0  0  0  0  0  0
  -44.3086   16.2283  -64.8594 H   0  0  0  0  0  0  0  0  0  0  0  0
  -43.5382   14.6437  -62.3581 H   0  0  0  0  0  0  0  0  0  0  0  0
  -44.9669   14.4132  -63.4324 H   0  0  0  0  0  0  0  0  0  0  0  0
  -42.8921   12.8286  -63.6590 H   0  0  0  0  0  0  0  0  0  0  0  0
  -43.7261   13.5730  -65.1580 H   0  0  0  0  0  0  0  0  0  0  0  0
  -40.9606   14.0910  -64.0740 H   0  0  0  0  0  0  0  0  0  0  0  0
  -41.5176   13.5629  -65.7326 H   0  0  0  0  0  0  0  0  0  0  0  0
  -42.3902   15.7359  -66.2142 H   0  0  0  0  0  0  0  0  0  0  0  0
  -40.7270   15.9583  -65.6242 H   0  0  0  0  0  0  0  0  0  0  0  0
  1  2  1  0
  2  3  2  0
  2  8  1  0
  3  4  1  0
  3 15  1  0
  4  5  1  0
  4  7  2  0
  5  6  1  0
  8  9  2  0
  9 10  1  0
  9 16  1  0
 10 11  1  0
 10 15  2  0
 11 12  2  0
 11 13  1  1
 11 14  2  0
 17 16  1  0
 17 18  1  0
 17 22  1  0
 18 19  1  0
 19 20  1  0
 20 21  1  0
 21 22  1  0
  6 23  1  0
  6 24  1  0
  6 25  1  0
  8 26  1  0
 13 27  1  0
 13 28  1  0
 15 29  1  0
 17 30  1  1
 18 31  1  0
 18 32  1  0
 19 33  1  0
 19 34  1  0
 20 35  1  0
 20 36  1  0
 21 37  1  0
 21 38  1  0
 22 39  1  0
 22 40  1  0
M  END
>  <filename_input>  (10) 
7POM_7VZ_docked.sdf

>  <pdb_id>  (10) 
7POM_7VZ

>  <pose_rank>  (10) 
9

>  <num_atoms_heavy>  (10) 
22

>  <num_torsions>  (10) 
5

>  <pose>  (10) 
[-40.790124723339254, 19.663844282120312, -59.344654528032386, -1.8365196555544288, 2.4269327739348148, -0.04557468660880722, -1.493457504561613, -2.590957426339661, -0.4778793713933364, 1.7721314109101012, 1.1725567376119028]

>  <energy>  (10) 
-468.8197466784514

>  <inter_energy>  (10) 
-506.5262172428914

>  <intra_energy>  (10) 
51.741556950928555

>  <rmsd>  (10) 
5.33684

>  <sdf_rank>  (10) 
0

$$$$

     RDKit          3D

 40 41  0  0  0  0  0  0  0  0999 V2000
  -39.1284   19.2623  -58.1578 Cl  0  0  0  0  0  0  0  0  0  0  0  0
  -40.2762   19.1699  -59.5319 C   0  0  0  0  0  0  0  0  0  0  0  0
  -40.9435   20.3953  -60.0076 C   0  0  0  0  0  0  0  0  0  0  0  0
  -40.6429   21.6807  -59.3455 C   0  0  0  0  0  0  0  0  0  0  0  0
  -41.2669   22.8777  -59.7918 O   0  0  0  0  0  0  0  0  0  0  0  0
  -42.1116   22.8499  -60.9327 C   0  0  0  0  0  0  0  0  0  0  0  0
  -39.8383   21.7421  -58.4530 O   0  0  0  0  0  0  0  0  0  0  0  0
  -40.5390   17.9568  -60.1466 C   0  0  0  0  0  0  0  0  0  0  0  0
  -41.4181   17.8819  -61.2109 C   0  0  0  0  0  0  0  0  0  0  0  0
  -42.0926   19.1485  -61.7007 C   0  0  0  0  0  0  0  0  0  0  0  0
  -43.1434   19.1356  -62.9424 S   0  0  1  0  0  0  0  0  0  0  0  0
  -43.5692   20.4585  -63.2924 O   0  0  0  0  0  0  0  0  0  0  0  0
  -42.3426   18.6268  -64.2639 N   0  0  0  0  0  0  0  0  0  0  0  0
  -44.2146   18.2276  -62.6485 O   0  0  0  0  0  0  0  0  0  0  0  0
  -41.8163   20.3400  -61.0612 C   0  0  0  0  0  0  0  0  0  0  0  0
  -41.7655   16.3976  -61.9752 S   0  0  0  0  0  0  0  0  0  0  0  0
  -42.1946   15.0642  -60.8689 C   0  0  1  0  0  0  0  0  0  0  0  0
  -43.2435   14.0282  -61.3287 C   0  0  0  0  0  0  0  0  0  0  0  0
  -43.7033   13.1388  -60.1561 C   0  0  0  0  0  0  0  0  0  0  0  0
  -42.4841   12.6245  -59.3652 C   0  0  0  0  0  0  0  0  0  0  0  0
  -41.2497   13.5611  -59.1921 C   0  0  0  0  0  0  0  0  0  0  0  0
  -40.9181   14.3661  -60.4372 C   0  0  0  0  0  0  0  0  0  0  0  0
  -43.1626   22.8153  -60.6100 H   0  0  0  0  0  0  0  0  0  0  0  0
  -41.9428   23.7541  -61.5360 H   0  0  0  0  0  0  0  0  0  0  0  0
  -41.8837   21.9588  -61.5360 H   0  0  0  0  0  0  0  0  0  0  0  0
  -40.0434   17.0440  -59.7844 H   0  0  0  0  0  0  0  0  0  0  0  0
  -41.5078   18.0964  -63.9764 H   0  0  0  0  0  0  0  0  0  0  0  0
  -42.9575   18.0211  -64.8259 H   0  0  0  0  0  0  0  0  0  0  0  0
  -42.3068   21.2628  -61.4044 H   0  0  0  0  0  0  0  0  0  0  0  0
  -42.7197   15.5653  -60.0423 H   0  0  0  0  0  0  0  0  0  0  0  0
  -44.1152   14.5587  -61.7395 H   0  0  0  0  0  0  0  0  0  0  0  0
  -42.7841   13.3846  -62.0935 H   0  0  0  0  0  0  0  0  0  0  0  0
  -44.3489   13.7262  -59.4865 H   0  0  0  0  0  0  0  0  0  0  0  0
  -44.2595   12.2783  -60.5562 H   0  0  0  0  0  0  0  0  0  0  0  0
  -42.8387   12.3676  -58.3561 H   0  0  0  0  0  0  0  0  0  0  0  0
  -42.1028   11.7932  -59.9764 H   0  0  0  0  0  0  0  0  0  0  0  0
  -41.4574   14.2619  -58.3700 H   0  0  0  0  0  0  0  0  0  0  0  0
  -40.3827   12.9172  -58.9836 H   0  0  0  0  0  0  0  0  0  0  0  0
  -40.5649   13.6974  -61.2361 H   0  0  0  0  0  0  0  0  0  0  0  0
  -40.1221   15.0968  -60.2312 H   0  0  0  0  0  0  0  0  0  0  0  0
  1  2  1  0
  2  3  2  0
  2  8  1  0
  3  4  1  0
  3 15  1  0
  4  5  1  0
  4  7  2  0
  5  6  1  0
  8  9  2  0
  9 10  1  0
  9 16  1  0
 10 11  1  0
 10 15  2  0
 11 12  2  0
 11 13  1  6
 11 14  2  0
 17 16  1  0
 17 18  1  0
 17 22  1  0
 18 19  1  0
 19 20  1  0
 20 21  1  0
 21 22  1  0
  6 23  1  0
  6 24  1  0
  6 25  1  0
  8 26  1  0
 13 27  1  0
 13 28  1  0
 15 29  1  0
 17 30  1  1
 18 31  1  0
 18 32  1  0
 19 33  1  0
 19 34  1  0
 20 35  1  0
 20 36  1  0
 21 37  1  0
 21 38  1  0
 22 39  1  0
 22 40  1  0
M  END
>  <filename_input>  (11) 
7POM_7VZ_docked.sdf

>  <pdb_id>  (11) 
7POM_7VZ

>  <pose_rank>  (11) 
10

>  <num_atoms_heavy>  (11) 
22

>  <num_torsions>  (11) 
5

>  <pose>  (11) 
[-39.128399378341946, 19.262271997413638, -58.157757547384094, -1.6789451516608376, 3.001510598920177, -0.4360589351039258, 2.245654167532165, -5.98888640221893, -2.842889965447191, 1.5699765587727574, -3.6972490955763826]

>  <energy>  (11) 
-359.71860398117633

>  <inter_energy>  (11) 
-446.74266443797865

>  <intra_energy>  (11) 
92.72511339011274

>  <rmsd>  (11) 
4.96141

>  <sdf_rank>  (11) 
0

$$$$

     RDKit          3D

 40 41  0  0  0  0  0  0  0  0999 V2000
  -40.1367   20.2790  -58.7842 Cl  0  0  0  0  0  0  0  0  0  0  0  0
  -41.1480   20.6146  -60.2261 C   0  0  0  0  0  0  0  0  0  0  0  0
  -42.0944   21.7447  -60.2052 C   0  0  0  0  0  0  0  0  0  0  0  0
  -42.1820   22.5867  -58.9950 C   0  0  0  0  0  0  0  0  0  0  0  0
  -41.5683   23.8689  -58.9704 O   0  0  0  0  0  0  0  0  0  0  0  0
  -40.1714   23.9868  -59.1961 C   0  0  0  0  0  0  0  0  0  0  0  0
  -42.7328   22.1863  -58.0030 O   0  0  0  0  0  0  0  0  0  0  0  0
  -41.0458   19.8196  -61.3557 C   0  0  0  0  0  0  0  0  0  0  0  0
  -41.8188   20.0788  -62.4721 C   0  0  0  0  0  0  0  0  0  0  0  0
  -42.7823   21.2493  -62.4464 C   0  0  0  0  0  0  0  0  0  0  0  0
  -43.7282   21.6098  -63.7197 S   0  0  1  0  0  0  0  0  0  0  0  0
  -44.5952   22.7165  -63.4416 O   0  0  0  0  0  0  0  0  0  0  0  0
  -42.7672   22.1633  -64.9098 N   0  0  0  0  0  0  0  0  0  0  0  0
  -44.4052   20.4236  -64.1592 O   0  0  0  0  0  0  0  0  0  0  0  0
  -42.8671   22.0167  -61.3024 C   0  0  0  0  0  0  0  0  0  0  0  0
  -41.7178   19.1065  -63.8694 S   0  0  0  0  0  0  0  0  0  0  0  0
  -42.1719   17.3968  -63.6304 C   0  0  1  0  0  0  0  0  0  0  0  0
  -42.8698   16.9925  -62.3134 C   0  0  0  0  0  0  0  0  0  0  0  0
  -42.9175   15.4598  -62.1529 C   0  0  0  0  0  0  0  0  0  0  0  0
  -43.4074   14.8005  -63.4575 C   0  0  0  0  0  0  0  0  0  0  0  0
  -42.9840   15.4258  -64.8216 C   0  0  0  0  0  0  0  0  0  0  0  0
  -42.9943   16.9451  -64.8232 C   0  0  0  0  0  0  0  0  0  0  0  0
  -39.6465   24.0311  -58.2305 H   0  0  0  0  0  0  0  0  0  0  0  0
  -39.8173   23.1153  -59.7663 H   0  0  0  0  0  0  0  0  0  0  0  0
  -39.9684   24.9053  -59.7663 H   0  0  0  0  0  0  0  0  0  0  0  0
  -40.3427   18.9738  -61.3645 H   0  0  0  0  0  0  0  0  0  0  0  0
  -41.9487   22.6347  -64.4990 H   0  0  0  0  0  0  0  0  0  0  0  0
  -42.4524   21.3741  -65.4920 H   0  0  0  0  0  0  0  0  0  0  0  0
  -43.5689   22.8632  -61.2715 H   0  0  0  0  0  0  0  0  0  0  0  0
  -41.2065   16.8768  -63.5429 H   0  0  0  0  0  0  0  0  0  0  0  0
  -42.3159   17.4246  -61.4670 H   0  0  0  0  0  0  0  0  0  0  0  0
  -43.9022   17.3716  -62.3368 H   0  0  0  0  0  0  0  0  0  0  0  0
  -41.9099   15.0883  -61.9146 H   0  0  0  0  0  0  0  0  0  0  0  0
  -43.6142   15.2064  -61.3402 H   0  0  0  0  0  0  0  0  0  0  0  0
  -43.0436   13.7624  -63.4512 H   0  0  0  0  0  0  0  0  0  0  0  0
  -44.4985   14.9369  -63.4303 H   0  0  0  0  0  0  0  0  0  0  0  0
  -41.9657   15.0845  -65.0596 H   0  0  0  0  0  0  0  0  0  0  0  0
  -43.7206   15.0973  -65.5696 H   0  0  0  0  0  0  0  0  0  0  0  0
  -44.0259   17.3158  -64.7326 H   0  0  0  0  0  0  0  0  0  0  0  0
  -42.5745   17.3390  -65.7605 H   0  0  0  0  0  0  0  0  0  0  0  0
  1  2  1  0
  2  3  2  0
  2  8  1  0
  3  4  1  0
  3 15  1  0
  4  5  1  0
  4  7  2  0
  5  6  1  0
  8  9  2  0
  9 10  1  0
  9 16  1  0
 10 11  1  0
 10 15  2  0
 11 12  2  0
 11 13  1  6
 11 14  2  0
 17 16  1  0
 17 18  1  0
 17 22  1  0
 18 19  1  0
 19 20  1  0
 20 21  1  0
 21 22  1  0
  6 23  1  0
  6 24  1  0
  6 25  1  0
  8 26  1  0
 13 27  1  0
 13 28  1  0
 15 29  1  0
 17 30  1  6
 18 31  1  0
 18 32  1  0
 19 33  1  0
 19 34  1  0
 20 35  1  0
 20 36  1  0
 21 37  1  0
 21 38  1  0
 22 39  1  0
 22 40  1  0
M  END
>  <filename_input>  (12) 
7POM_7VZ_docked.sdf

>  <pdb_id>  (12) 
7POM_7VZ

>  <pose_rank>  (12) 
11

>  <num_atoms_heavy>  (12) 
22

>  <num_torsions>  (12) 
5

>  <pose>  (12) 
[-40.1366745882586, 20.2789819277027, -58.78423855888654, -1.8491506651360226, 2.4757181165758144, 0.12283803406224866, 2.1199974053392396, -1.0424257112021116, 2.491235150405571, 1.7871851178047624, 0.259810199475174]

>  <energy>  (12) 
-577.7892632130232

>  <inter_energy>  (12) 
-596.914922933537

>  <intra_energy>  (12) 
23.689020749461775

>  <rmsd>  (12) 
5.04248

>  <sdf_rank>  (12) 
0

$$$$

     RDKit          3D

 40 41  0  0  0  0  0  0  0  0999 V2000
  -43.4399   21.8331  -62.7671 Cl  0  0  0  0  0  0  0  0  0  0  0  0
  -42.4620   20.4752  -62.1237 C   0  0  0  0  0  0  0  0  0  0  0  0
  -41.9192   20.5524  -60.7552 C   0  0  0  0  0  0  0  0  0  0  0  0
  -42.2028   21.7480  -59.9359 C   0  0  0  0  0  0  0  0  0  0  0  0
  -41.1342   22.5380  -59.4304 O   0  0  0  0  0  0  0  0  0  0  0  0
  -41.3887   23.8561  -58.9682 C   0  0  0  0  0  0  0  0  0  0  0  0
  -43.3326   22.0459  -59.6488 O   0  0  0  0  0  0  0  0  0  0  0  0
  -42.2138   19.3577  -62.9034 C   0  0  0  0  0  0  0  0  0  0  0  0
  -41.4660   18.3054  -62.4090 C   0  0  0  0  0  0  0  0  0  0  0  0
  -40.9199   18.3881  -60.9970 C   0  0  0  0  0  0  0  0  0  0  0  0
  -40.0262   17.1920  -60.3514 S   0  0  1  0  0  0  0  0  0  0  0  0
  -40.3020   15.9289  -60.9700 O   0  0  0  0  0  0  0  0  0  0  0  0
  -38.4702   17.4753  -60.7320 N   0  0  0  0  0  0  0  0  0  0  0  0
  -40.1827   17.1991  -58.9253 O   0  0  0  0  0  0  0  0  0  0  0  0
  -41.1773   19.5190  -60.2488 C   0  0  0  0  0  0  0  0  0  0  0  0
  -41.1382   16.9250  -63.3552 S   0  0  0  0  0  0  0  0  0  0  0  0
  -42.4772   15.7492  -63.4594 C   0  0  1  0  0  0  0  0  0  0  0  0
  -43.0109   15.1165  -62.1556 C   0  0  0  0  0  0  0  0  0  0  0  0
  -43.9435   13.9250  -62.4526 C   0  0  0  0  0  0  0  0  0  0  0  0
  -44.9691   14.3066  -63.5384 C   0  0  0  0  0  0  0  0  0  0  0  0
  -44.5233   15.2513  -64.6959 C   0  0  0  0  0  0  0  0  0  0  0  0
  -43.6134   16.3805  -64.2427 C   0  0  0  0  0  0  0  0  0  0  0  0
  -41.3905   23.8651  -57.8682 H   0  0  0  0  0  0  0  0  0  0  0  0
  -40.6046   24.5326  -59.3392 H   0  0  0  0  0  0  0  0  0  0  0  0
  -42.3683   24.1920  -59.3392 H   0  0  0  0  0  0  0  0  0  0  0  0
  -42.6157   19.3071  -63.9261 H   0  0  0  0  0  0  0  0  0  0  0  0
  -37.9183   17.5758  -59.8681 H   0  0  0  0  0  0  0  0  0  0  0  0
  -38.1029   16.6873  -61.2844 H   0  0  0  0  0  0  0  0  0  0  0  0
  -40.7788   19.5915  -59.2261 H   0  0  0  0  0  0  0  0  0  0  0  0
  -42.0278   14.8812  -63.9639 H   0  0  0  0  0  0  0  0  0  0  0  0
  -42.1602   14.7645  -61.5536 H   0  0  0  0  0  0  0  0  0  0  0  0
  -43.5850   15.8792  -61.6090 H   0  0  0  0  0  0  0  0  0  0  0  0
  -43.3430   13.0729  -62.8039 H   0  0  0  0  0  0  0  0  0  0  0  0
  -44.4810   13.6530  -61.5322 H   0  0  0  0  0  0  0  0  0  0  0  0
  -45.3137   13.3698  -64.0007 H   0  0  0  0  0  0  0  0  0  0  0  0
  -45.7257   14.8915  -62.9950 H   0  0  0  0  0  0  0  0  0  0  0  0
  -43.9869   14.6525  -65.4467 H   0  0  0  0  0  0  0  0  0  0  0  0
  -45.4340   15.7145  -65.1034 H   0  0  0  0  0  0  0  0  0  0  0  0
  -44.1704   17.0802  -63.6022 H   0  0  0  0  0  0  0  0  0  0  0  0
  -43.2290   16.9445  -65.1053 H   0  0  0  0  0  0  0  0  0  0  0  0
  1  2  1  0
  2  3  2  0
  2  8  1  0
  3  4  1  0
  3 15  1  0
  4  5  1  0
  4  7  2  0
  5  6  1  0
  8  9  2  0
  9 10  1  0
  9 16  1  0
 10 11  1  0
 10 15  2  0
 11 12  2  0
 11 13  1  1
 11 14  2  0
 17 16  1  0
 17 18  1  0
 17 22  1  0
 18 19  1  0
 19 20  1  0
 20 21  1  0
 21 22  1  0
  6 23  1  0
  6 24  1  0
  6 25  1  0
  8 26  1  0
 13 27  1  0
 13 28  1  0
 15 29  1  0
 17 30  1  6
 18 31  1  0
 18 32  1  0
 19 33  1  0
 19 34  1  0
 20 35  1  0
 20 36  1  0
 21 37  1  0
 21 38  1  0
 22 39  1  0
 22 40  1  0
M  END
>  <filename_input>  (13) 
7POM_7VZ_docked.sdf

>  <pdb_id>  (13) 
7POM_7VZ

>  <pose_rank>  (13) 
12

>  <num_atoms_heavy>  (13) 
22

>  <num_torsions>  (13) 
5

>  <pose>  (13) 
[-43.439901209413605, 21.833146588422245, -62.76705810409287, 1.3189331221349068, 0.7471528915100112, -0.7268549061192767, -1.4127540602552071, -11.238579477152706, 6.355791333164199, 11.892383764398332, 5.2984067368816525]

>  <energy>  (13) 
-421.83790955796536

>  <inter_energy>  (13) 
-472.80832007346874

>  <intra_energy>  (13) 
46.07393488940522

>  <rmsd>  (13) 
5.38203

>  <sdf_rank>  (13) 
0

$$$$

     RDKit          3D

 40 41  0  0  0  0  0  0  0  0999 V2000
  -42.0563   14.3604  -59.3702 Cl  0  0  0  0  0  0  0  0  0  0  0  0
  -42.1799   15.2749  -60.9074 C   0  0  0  0  0  0  0  0  0  0  0  0
  -42.9314   14.7010  -62.0383 C   0  0  0  0  0  0  0  0  0  0  0  0
  -43.5784   13.3833  -61.8766 C   0  0  0  0  0  0  0  0  0  0  0  0
  -44.9150   13.2970  -61.3999 O   0  0  0  0  0  0  0  0  0  0  0  0
  -45.3323   12.1506  -60.6734 C   0  0  0  0  0  0  0  0  0  0  0  0
  -42.9747   12.3673  -62.1026 O   0  0  0  0  0  0  0  0  0  0  0  0
  -41.5741   16.5137  -61.0378 C   0  0  0  0  0  0  0  0  0  0  0  0
  -41.6724   17.2254  -62.2189 C   0  0  0  0  0  0  0  0  0  0  0  0
  -42.4558   16.6327  -63.3740 C   0  0  0  0  0  0  0  0  0  0  0  0
  -42.6079   17.4092  -64.7952 S   0  0  1  0  0  0  0  0  0  0  0  0
  -41.3655   17.9797  -65.2251 O   0  0  0  0  0  0  0  0  0  0  0  0
  -42.9352   16.2960  -65.9354 N   0  0  0  0  0  0  0  0  0  0  0  0
  -43.6914   18.3458  -64.7109 O   0  0  0  0  0  0  0  0  0  0  0  0
  -43.0400   15.3924  -63.2152 C   0  0  0  0  0  0  0  0  0  0  0  0
  -40.9251   18.7467  -62.4057 S   0  0  0  0  0  0  0  0  0  0  0  0
  -42.0419   20.1391  -62.4003 C   0  0  1  0  0  0  0  0  0  0  0  0
  -42.1325   21.0115  -61.1291 C   0  0  0  0  0  0  0  0  0  0  0  0
  -43.3400   21.9683  -61.1918 C   0  0  0  0  0  0  0  0  0  0  0  0
  -43.3864   22.6817  -62.5577 C   0  0  0  0  0  0  0  0  0  0  0  0
  -42.9509   21.8962  -63.8321 C   0  0  0  0  0  0  0  0  0  0  0  0
  -41.7421   21.0025  -63.6118 C   0  0  0  0  0  0  0  0  0  0  0  0
  -45.2585   12.3532  -59.5948 H   0  0  0  0  0  0  0  0  0  0  0  0
  -46.3747   11.9125  -60.9314 H   0  0  0  0  0  0  0  0  0  0  0  0
  -44.6868   11.2981  -60.9314 H   0  0  0  0  0  0  0  0  0  0  0  0
  -41.0092   16.9353  -60.1933 H   0  0  0  0  0  0  0  0  0  0  0  0
  -43.1963   15.4080  -65.4834 H   0  0  0  0  0  0  0  0  0  0  0  0
  -43.7152   16.6248  -66.5224 H   0  0  0  0  0  0  0  0  0  0  0  0
  -43.6038   14.9508  -64.0502 H   0  0  0  0  0  0  0  0  0  0  0  0
  -43.0399   19.6775  -62.4287 H   0  0  0  0  0  0  0  0  0  0  0  0
  -42.2394   20.3565  -60.2518 H   0  0  0  0  0  0  0  0  0  0  0  0
  -41.2152   21.6141  -61.0551 H   0  0  0  0  0  0  0  0  0  0  0  0
  -44.2668   21.3928  -61.0512 H   0  0  0  0  0  0  0  0  0  0  0  0
  -43.2408   22.7225  -60.3972 H   0  0  0  0  0  0  0  0  0  0  0  0
  -44.4253   23.0062  -62.7175 H   0  0  0  0  0  0  0  0  0  0  0  0
  -42.6333   23.4784  -62.4667 H   0  0  0  0  0  0  0  0  0  0  0  0
  -43.7930   21.2682  -64.1583 H   0  0  0  0  0  0  0  0  0  0  0  0
  -42.6673   22.6417  -64.5896 H   0  0  0  0  0  0  0  0  0  0  0  0
  -40.8479   21.6157  -63.4265 H   0  0  0  0  0  0  0  0  0  0  0  0
  -41.5478   20.3805  -64.4980 H   0  0  0  0  0  0  0  0  0  0  0  0
  1  2  1  0
  2  3  2  0
  2  8  1  0
  3  4  1  0
  3 15  1  0
  4  5  1  0
  4  7  2  0
  5  6  1  0
  8  9  2  0
  9 10  1  0
  9 16  1  0
 10 11  1  0
 10 15  2  0
 11 12  2  0
 11 13  1  6
 11 14  2  0
 17 16  1  0
 17 18  1  0
 17 22  1  0
 18 19  1  0
 19 20  1  0
 20 21  1  0
 21 22  1  0
  6 23  1  0
  6 24  1  0
  6 25  1  0
  8 26  1  0
 13 27  1  0
 13 28  1  0
 15 29  1  0
 17 30  1  6
 18 31  1  0
 18 32  1  0
 19 33  1  0
 19 34  1  0
 20 35  1  0
 20 36  1  0
 21 37  1  0
 21 38  1  0
 22 39  1  0
 22 40  1  0
M  END
>  <filename_input>  (14) 
7POM_7VZ_docked.sdf

>  <pdb_id>  (14) 
7POM_7VZ

>  <pose_rank>  (14) 
13

>  <num_atoms_heavy>  (14) 
22

>  <num_torsions>  (14) 
5

>  <pose>  (14) 
[-42.056330284246386, 14.36044702368799, -59.37024973064595, 4.249923447205139, 0.3572517629974597, -0.31600613439423253, -0.21380553948889097, -1.2679196383583844, 0.8803646907534983, -1.1558889760923137, 1.857868118765985]

>  <energy>  (14) 
-330.410041046056

>  <inter_energy>  (14) 
-353.5152342134957

>  <intra_energy>  (14) 
21.296620601278434

>  <rmsd>  (14) 
7.23944

>  <sdf_rank>  (14) 
0

$$$$

     RDKit          3D

 40 41  0  0  0  0  0  0  0  0999 V2000
  -43.5375   22.3152  -63.1098 Cl  0  0  0  0  0  0  0  0  0  0  0  0
  -42.6987   21.0038  -62.2203 C   0  0  0  0  0  0  0  0  0  0  0  0
  -42.2579   21.2311  -60.8320 C   0  0  0  0  0  0  0  0  0  0  0  0
  -42.5273   22.5370  -60.1971 C   0  0  0  0  0  0  0  0  0  0  0  0
  -41.4553   23.3163  -59.6825 O   0  0  0  0  0  0  0  0  0  0  0  0
  -41.1997   23.3294  -58.2859 C   0  0  0  0  0  0  0  0  0  0  0  0
  -43.6537   22.9396  -60.0670 O   0  0  0  0  0  0  0  0  0  0  0  0
  -42.4627   19.7823  -62.8290 C   0  0  0  0  0  0  0  0  0  0  0  0
  -41.8223   18.7660  -62.1448 C   0  0  0  0  0  0  0  0  0  0  0  0
  -41.3812   19.0043  -60.7138 C   0  0  0  0  0  0  0  0  0  0  0  0
  -40.6164   17.8578  -59.8498 S   0  0  1  0  0  0  0  0  0  0  0  0
  -40.3218   18.3024  -58.5195 O   0  0  0  0  0  0  0  0  0  0  0  0
  -41.6592   16.6300  -59.6231 N   0  0  0  0  0  0  0  0  0  0  0  0
  -39.4754   17.3919  -60.5842 O   0  0  0  0  0  0  0  0  0  0  0  0
  -41.6232   20.2355  -60.1388 C   0  0  0  0  0  0  0  0  0  0  0  0
  -41.5110   17.2582  -62.8781 S   0  0  0  0  0  0  0  0  0  0  0  0
  -42.7947   16.6746  -63.9724 C   0  0  1  0  0  0  0  0  0  0  0  0
  -42.5620   16.7549  -65.4970 C   0  0  0  0  0  0  0  0  0  0  0  0
  -43.8660   16.4926  -66.2768 C   0  0  0  0  0  0  0  0  0  0  0  0
  -44.5775   15.2420  -65.7235 C   0  0  0  0  0  0  0  0  0  0  0  0
  -44.5183   14.9586  -64.1914 C   0  0  0  0  0  0  0  0  0  0  0  0
  -43.1651   15.2591  -63.5695 C   0  0  0  0  0  0  0  0  0  0  0  0
  -42.1524   23.2805  -57.7383 H   0  0  0  0  0  0  0  0  0  0  0  0
  -40.5783   22.4619  -58.0187 H   0  0  0  0  0  0  0  0  0  0  0  0
  -40.6703   24.2559  -58.0187 H   0  0  0  0  0  0  0  0  0  0  0  0
  -42.7879   19.6192  -63.8671 H   0  0  0  0  0  0  0  0  0  0  0  0
  -41.7916   16.4740  -58.6136 H   0  0  0  0  0  0  0  0  0  0  0  0
  -42.5640   16.8636  -60.0560 H   0  0  0  0  0  0  0  0  0  0  0  0
  -41.3000   20.4203  -59.1038 H   0  0  0  0  0  0  0  0  0  0  0  0
  -43.6116   17.3974  -63.8305 H   0  0  0  0  0  0  0  0  0  0  0  0
  -42.1885   17.7581  -65.7502 H   0  0  0  0  0  0  0  0  0  0  0  0
  -41.8285   15.9846  -65.7775 H   0  0  0  0  0  0  0  0  0  0  0  0
  -44.5308   17.3631  -66.1755 H   0  0  0  0  0  0  0  0  0  0  0  0
  -43.6221   16.3264  -67.3365 H   0  0  0  0  0  0  0  0  0  0  0  0
  -45.6399   15.3280  -65.9953 H   0  0  0  0  0  0  0  0  0  0  0  0
  -44.0244   14.4026  -66.1702 H   0  0  0  0  0  0  0  0  0  0  0  0
  -45.2761   15.5809  -63.6930 H   0  0  0  0  0  0  0  0  0  0  0  0
  -44.7046   13.8831  -64.0547 H   0  0  0  0  0  0  0  0  0  0  0  0
  -42.4117   14.5506  -63.9441 H   0  0  0  0  0  0  0  0  0  0  0  0
  -43.2064   15.1613  -62.4746 H   0  0  0  0  0  0  0  0  0  0  0  0
  1  2  1  0
  2  3  2  0
  2  8  1  0
  3  4  1  0
  3 15  1  0
  4  5  1  0
  4  7  2  0
  5  6  1  0
  8  9  2  0
  9 10  1  0
  9 16  1  0
 10 11  1  0
 10 15  2  0
 11 12  2  0
 11 13  1  1
 11 14  2  0
 17 16  1  0
 17 18  1  0
 17 22  1  0
 18 19  1  0
 19 20  1  0
 20 21  1  0
 21 22  1  0
  6 23  1  0
  6 24  1  0
  6 25  1  0
  8 26  1  0
 13 27  1  0
 13 28  1  0
 15 29  1  0
 17 30  1  6
 18 31  1  0
 18 32  1  0
 19 33  1  0
 19 34  1  0
 20 35  1  0
 20 36  1  0
 21 37  1  0
 21 38  1  0
 22 39  1  0
 22 40  1  0
M  END
>  <filename_input>  (15) 
7POM_7VZ_docked.sdf

>  <pdb_id>  (15) 
7POM_7VZ

>  <pose_rank>  (15) 
14

>  <num_atoms_heavy>  (15) 
22

>  <num_torsions>  (15) 
5

>  <pose>  (15) 
[-43.537464509566846, 22.315190601026835, -63.10978646720928, 1.2486834457783247, 0.5900356913656019, -0.7517403961697374, -4.098386111475004, 1.3044860221134356, 1.7437394502855297, 0.05850366887107155, 1.8812096864591843]

>  <energy>  (15) 
-494.49047404031097

>  <inter_energy>  (15) 
-515.0833643165821

>  <intra_energy>  (15) 
24.33071529721925

>  <rmsd>  (15) 
5.39925

>  <sdf_rank>  (15) 
0

$$$$

     RDKit          3D

 40 41  0  0  0  0  0  0  0  0999 V2000
  -42.4623   20.9416  -62.1346 Cl  0  0  0  0  0  0  0  0  0  0  0  0
  -41.6618   19.7938  -61.0139 C   0  0  0  0  0  0  0  0  0  0  0  0
  -41.2495   20.2510  -59.6744 C   0  0  0  0  0  0  0  0  0  0  0  0
  -41.5154   21.6488  -59.2786 C   0  0  0  0  0  0  0  0  0  0  0  0
  -42.6745   22.3189  -59.7570 O   0  0  0  0  0  0  0  0  0  0  0  0
  -42.8377   23.7080  -59.5123 C   0  0  0  0  0  0  0  0  0  0  0  0
  -40.7391   22.2525  -58.5853 O   0  0  0  0  0  0  0  0  0  0  0  0
  -41.4287   18.4840  -61.3991 C   0  0  0  0  0  0  0  0  0  0  0  0
  -40.8178   17.5936  -60.5358 C   0  0  0  0  0  0  0  0  0  0  0  0
  -40.4060   18.0690  -59.1561 C   0  0  0  0  0  0  0  0  0  0  0  0
  -39.6765   17.0800  -58.0904 S   0  0  1  0  0  0  0  0  0  0  0  0
  -38.3797   16.6726  -58.5446 O   0  0  0  0  0  0  0  0  0  0  0  0
  -39.3605   17.9438  -56.7487 N   0  0  0  0  0  0  0  0  0  0  0  0
  -40.5585   15.9951  -57.7687 O   0  0  0  0  0  0  0  0  0  0  0  0
  -40.6442   19.3826  -58.8060 C   0  0  0  0  0  0  0  0  0  0  0  0
  -40.5105   15.9798  -60.9930 S   0  0  0  0  0  0  0  0  0  0  0  0
  -41.1884   15.5037  -62.5740 C   0  0  1  0  0  0  0  0  0  0  0  0
  -40.3264   15.7020  -63.8400 C   0  0  0  0  0  0  0  0  0  0  0  0
  -41.1643   15.5215  -65.1217 C   0  0  0  0  0  0  0  0  0  0  0  0
  -42.0175   14.2410  -65.0267 C   0  0  0  0  0  0  0  0  0  0  0  0
  -42.6148   13.8356  -63.6447 C   0  0  0  0  0  0  0  0  0  0  0  0
  -41.6655   14.0661  -62.4810 C   0  0  0  0  0  0  0  0  0  0  0  0
  -42.8590   23.8891  -58.4275 H   0  0  0  0  0  0  0  0  0  0  0  0
  -41.9982   24.2602  -59.9599 H   0  0  0  0  0  0  0  0  0  0  0  0
  -43.7823   24.0506  -59.9599 H   0  0  0  0  0  0  0  0  0  0  0  0
  -41.7325   18.1488  -62.4018 H   0  0  0  0  0  0  0  0  0  0  0  0
  -39.5690   17.3739  -55.9164 H   0  0  0  0  0  0  0  0  0  0  0  0
  -38.3664   18.2134  -56.7400 H   0  0  0  0  0  0  0  0  0  0  0  0
  -40.3419   19.7387  -57.8101 H   0  0  0  0  0  0  0  0  0  0  0  0
  -42.0025   16.2246  -62.7403 H   0  0  0  0  0  0  0  0  0  0  0  0
  -39.9019   16.7168  -63.8293 H   0  0  0  0  0  0  0  0  0  0  0  0
  -39.5272   14.9461  -63.8381 H   0  0  0  0  0  0  0  0  0  0  0  0
  -41.8268   16.3906  -65.2476 H   0  0  0  0  0  0  0  0  0  0  0  0
  -40.4863   15.4368  -65.9837 H   0  0  0  0  0  0  0  0  0  0  0  0
  -42.8625   14.3637  -65.7203 H   0  0  0  0  0  0  0  0  0  0  0  0
  -41.3086   13.4321  -65.2571 H   0  0  0  0  0  0  0  0  0  0  0  0
  -43.5261   14.4270  -63.4726 H   0  0  0  0  0  0  0  0  0  0  0  0
  -42.8188   12.7554  -63.6857 H   0  0  0  0  0  0  0  0  0  0  0  0
  -40.8094   13.3790  -62.5504 H   0  0  0  0  0  0  0  0  0  0  0  0
  -42.1701   13.8819  -61.5211 H   0  0  0  0  0  0  0  0  0  0  0  0
  1  2  1  0
  2  3  2  0
  2  8  1  0
  3  4  1  0
  3 15  1  0
  4  5  1  0
  4  7  2  0
  5  6  1  0
  8  9  2  0
  9 10  1  0
  9 16  1  0
 10 11  1  0
 10 15  2  0
 11 12  2  0
 11 13  1  1
 11 14  2  0
 17 16  1  0
 17 18  1  0
 17 22  1  0
 18 19  1  0
 19 20  1  0
 20 21  1  0
 21 22  1  0
  6 23  1  0
  6 24  1  0
  6 25  1  0
  8 26  1  0
 13 27  1  0
 13 28  1  0
 15 29  1  0
 17 30  1  6
 18 31  1  0
 18 32  1  0
 19 33  1  0
 19 34  1  0
 20 35  1  0
 20 36  1  0
 21 37  1  0
 21 38  1  0
 22 39  1  0
 22 40  1  0
M  END
>  <filename_input>  (16) 
7POM_7VZ_docked.sdf

>  <pdb_id>  (16) 
7POM_7VZ

>  <pose_rank>  (16) 
15

>  <num_atoms_heavy>  (16) 
22

>  <num_torsions>  (16) 
5

>  <pose>  (16) 
[-42.46234413860237, 20.94164770915563, -62.134587050143665, -3.720544695592396, -1.6502274405582582, 2.633153778915267, 0.16681193940697328, 4.021797332224867, 0.5105890799510494, -5.683910031832846, -4.665276884839917]

>  <energy>  (16) 
-404.50446184844384

>  <inter_energy>  (16) 
-423.346048766954

>  <intra_energy>  (16) 
27.748997720524674

>  <rmsd>  (16) 
5.41809

>  <sdf_rank>  (16) 
0

$$$$

     RDKit          3D

 40 41  0  0  0  0  0  0  0  0999 V2000
  -41.0232   16.1777  -58.0797 Cl  0  0  0  0  0  0  0  0  0  0  0  0
  -41.4781   16.8116  -59.6939 C   0  0  0  0  0  0  0  0  0  0  0  0
  -41.7085   15.8728  -60.8070 C   0  0  0  0  0  0  0  0  0  0  0  0
  -41.5691   14.4227  -60.5647 C   0  0  0  0  0  0  0  0  0  0  0  0
  -40.2840   13.8546  -60.3470 O   0  0  0  0  0  0  0  0  0  0  0  0
  -39.2971   13.9316  -61.3648 C   0  0  0  0  0  0  0  0  0  0  0  0
  -42.5288   13.6974  -60.5907 O   0  0  0  0  0  0  0  0  0  0  0  0
  -41.6131   18.1745  -59.9003 C   0  0  0  0  0  0  0  0  0  0  0  0
  -41.9703   18.6674  -61.1415 C   0  0  0  0  0  0  0  0  0  0  0  0
  -42.2154   17.6947  -62.2785 C   0  0  0  0  0  0  0  0  0  0  0  0
  -42.6313   18.2022  -63.7669 S   0  0  1  0  0  0  0  0  0  0  0  0
  -41.7989   19.2801  -64.2131 O   0  0  0  0  0  0  0  0  0  0  0  0
  -42.2977   17.0005  -64.8114 N   0  0  0  0  0  0  0  0  0  0  0  0
  -44.0368   18.4891  -63.7952 O   0  0  0  0  0  0  0  0  0  0  0  0
  -42.0639   16.3432  -62.0428 C   0  0  0  0  0  0  0  0  0  0  0  0
  -42.1308   20.3419  -61.4213 S   0  0  0  0  0  0  0  0  0  0  0  0
  -42.0060   21.3636  -59.9630 C   0  0  1  0  0  0  0  0  0  0  0  0
  -40.6215   21.5486  -59.3042 C   0  0  0  0  0  0  0  0  0  0  0  0
  -40.7464   22.2020  -57.9131 C   0  0  0  0  0  0  0  0  0  0  0  0
  -41.6800   23.4270  -57.9798 C   0  0  0  0  0  0  0  0  0  0  0  0
  -42.9153   23.3810  -58.9301 C   0  0  0  0  0  0  0  0  0  0  0  0
  -42.6308   22.7132  -60.2648 C   0  0  0  0  0  0  0  0  0  0  0  0
  -38.3010   14.0092  -60.9046 H   0  0  0  0  0  0  0  0  0  0  0  0
  -39.3431   13.0271  -61.9892 H   0  0  0  0  0  0  0  0  0  0  0  0
  -39.4826   14.8180  -61.9892 H   0  0  0  0  0  0  0  0  0  0  0  0
  -41.4343   18.8717  -59.0684 H   0  0  0  0  0  0  0  0  0  0  0  0
  -42.0605   16.1461  -64.2874 H   0  0  0  0  0  0  0  0  0  0  0  0
  -43.1210   16.8223  -65.4041 H   0  0  0  0  0  0  0  0  0  0  0  0
  -42.2321   15.6303  -62.8634 H   0  0  0  0  0  0  0  0  0  0  0  0
  -42.5474   20.7934  -59.1938 H   0  0  0  0  0  0  0  0  0  0  0  0
  -40.1416   20.5648  -59.1962 H   0  0  0  0  0  0  0  0  0  0  0  0
  -40.0173   22.2079  -59.9447 H   0  0  0  0  0  0  0  0  0  0  0  0
  -41.1590   21.4695  -57.2038 H   0  0  0  0  0  0  0  0  0  0  0  0
  -39.7502   22.5288  -57.5804 H   0  0  0  0  0  0  0  0  0  0  0  0
  -42.0614   23.5983  -56.9624 H   0  0  0  0  0  0  0  0  0  0  0  0
  -41.0473   24.2200  -58.4053 H   0  0  0  0  0  0  0  0  0  0  0  0
  -43.7202   22.8247  -58.4274 H   0  0  0  0  0  0  0  0  0  0  0  0
  -43.1970   24.4225  -59.1439 H   0  0  0  0  0  0  0  0  0  0  0  0
  -41.9346   23.3283  -60.8539 H   0  0  0  0  0  0  0  0  0  0  0  0
  -43.5553   22.5953  -60.8491 H   0  0  0  0  0  0  0  0  0  0  0  0
  1  2  1  0
  2  3  2  0
  2  8  1  0
  3  4  1  0
  3 15  1  0
  4  5  1  0
  4  7  2  0
  5  6  1  0
  8  9  2  0
  9 10  1  0
  9 16  1  0
 10 11  1  0
 10 15  2  0
 11 12  2  0
 11 13  1  6
 11 14  2  0
 17 16  1  0
 17 18  1  0
 17 22  1  0
 18 19  1  0
 19 20  1  0
 20 21  1  0
 21 22  1  0
  6 23  1  0
  6 24  1  0
  6 25  1  0
  8 26  1  0
 13 27  1  0
 13 28  1  0
 15 29  1  0
 17 30  1  1
 18 31  1  0
 18 32  1  0
 19 33  1  0
 19 34  1  0
 20 35  1  0
 20 36  1  0
 21 37  1  0
 21 38  1  0
 22 39  1  0
 22 40  1  0
M  END
>  <filename_input>  (17) 
7POM_7VZ_docked.sdf

>  <pdb_id>  (17) 
7POM_7VZ

>  <pose_rank>  (17) 
16

>  <num_atoms_heavy>  (17) 
22

>  <num_torsions>  (17) 
5

>  <pose>  (17) 
[-41.023221978864896, 16.177709036909942, -58.07971636002165, -1.9755771185985365, -0.778622439658066, 0.44580146310034663, -0.15672093977637352, 2.205728249007705, 2.4357929119622876, 0.5809700254016177, 1.317087750271477]

>  <energy>  (17) 
-468.61576838849254

>  <inter_energy>  (17) 
-485.0874468550908

>  <intra_energy>  (17) 
17.6759884655089

>  <rmsd>  (17) 
6.79474

>  <sdf_rank>  (17) 
0

$$$$

     RDKit          3D

 40 41  0  0  0  0  0  0  0  0999 V2000
  -39.9334   21.4701  -58.2730 Cl  0  0  0  0  0  0  0  0  0  0  0  0
  -40.6067   20.6318  -59.7076 C   0  0  0  0  0  0  0  0  0  0  0  0
  -41.6491   21.2918  -60.5146 C   0  0  0  0  0  0  0  0  0  0  0  0
  -42.1112   22.6402  -60.1281 C   0  0  0  0  0  0  0  0  0  0  0  0
  -42.7035   22.8547  -58.8535 O   0  0  0  0  0  0  0  0  0  0  0  0
  -43.4816   24.0201  -58.6244 C   0  0  0  0  0  0  0  0  0  0  0  0
  -42.0340   23.5630  -60.8964 O   0  0  0  0  0  0  0  0  0  0  0  0
  -40.1547   19.3710  -60.0603 C   0  0  0  0  0  0  0  0  0  0  0  0
  -40.6662   18.7237  -61.1696 C   0  0  0  0  0  0  0  0  0  0  0  0
  -41.7308   19.4135  -62.0002 C   0  0  0  0  0  0  0  0  0  0  0  0
  -42.3833   18.7102  -63.3137 S   0  0  1  0  0  0  0  0  0  0  0  0
  -42.2167   19.5165  -64.4868 O   0  0  0  0  0  0  0  0  0  0  0  0
  -41.5181   17.3719  -63.6406 N   0  0  0  0  0  0  0  0  0  0  0  0
  -43.7430   18.3485  -63.0326 O   0  0  0  0  0  0  0  0  0  0  0  0
  -42.1663   20.6659  -61.6172 C   0  0  0  0  0  0  0  0  0  0  0  0
  -40.1330   17.1666  -61.6156 S   0  0  0  0  0  0  0  0  0  0  0  0
  -38.5384   16.7017  -60.9620 C   0  0  1  0  0  0  0  0  0  0  0  0
  -38.1685   15.2033  -60.9064 C   0  0  0  0  0  0  0  0  0  0  0  0
  -36.9049   14.9699  -60.0542 C   0  0  0  0  0  0  0  0  0  0  0  0
  -35.7998   15.9685  -60.4520 C   0  0  0  0  0  0  0  0  0  0  0  0
  -36.2061   17.4180  -60.8581 C   0  0  0  0  0  0  0  0  0  0  0  0
  -37.4677   17.4818  -61.7023 C   0  0  0  0  0  0  0  0  0  0  0  0
  -43.5896   24.1818  -57.5417 H   0  0  0  0  0  0  0  0  0  0  0  0
  -42.9821   24.8893  -59.0770 H   0  0  0  0  0  0  0  0  0  0  0  0
  -44.4760   23.8919  -59.0770 H   0  0  0  0  0  0  0  0  0  0  0  0
  -39.3812   18.8798  -59.4517 H   0  0  0  0  0  0  0  0  0  0  0  0
  -41.2296   16.9256  -62.7583 H   0  0  0  0  0  0  0  0  0  0  0  0
  -42.0947   16.7148  -64.1852 H   0  0  0  0  0  0  0  0  0  0  0  0
  -42.9438   21.1710  -62.2091 H   0  0  0  0  0  0  0  0  0  0  0  0
  -38.6059   16.9571  -59.8942 H   0  0  0  0  0  0  0  0  0  0  0  0
  -39.0066   14.6434  -60.4656 H   0  0  0  0  0  0  0  0  0  0  0  0
  -37.9656   14.8572  -61.9306 H   0  0  0  0  0  0  0  0  0  0  0  0
  -37.1533   15.1078  -58.9915 H   0  0  0  0  0  0  0  0  0  0  0  0
  -36.5412   13.9461  -60.2262 H   0  0  0  0  0  0  0  0  0  0  0  0
  -35.1166   16.0528  -59.5941 H   0  0  0  0  0  0  0  0  0  0  0  0
  -35.3773   15.5431  -61.3743 H   0  0  0  0  0  0  0  0  0  0  0  0
  -36.3712   18.0027  -59.9411 H   0  0  0  0  0  0  0  0  0  0  0  0
  -35.3871   17.8231  -61.4705 H   0  0  0  0  0  0  0  0  0  0  0  0
  -37.2853   17.0300  -62.6885 H   0  0  0  0  0  0  0  0  0  0  0  0
  -37.7811   18.5242  -61.8606 H   0  0  0  0  0  0  0  0  0  0  0  0
  1  2  1  0
  2  3  2  0
  2  8  1  0
  3  4  1  0
  3 15  1  0
  4  5  1  0
  4  7  2  0
  5  6  1  0
  8  9  2  0
  9 10  1  0
  9 16  1  0
 10 11  1  0
 10 15  2  0
 11 12  2  0
 11 13  1  6
 11 14  2  0
 17 16  1  0
 17 18  1  0
 17 22  1  0
 18 19  1  0
 19 20  1  0
 20 21  1  0
 21 22  1  0
  6 23  1  0
  6 24  1  0
  6 25  1  0
  8 26  1  0
 13 27  1  0
 13 28  1  0
 15 29  1  0
 17 30  1  1
 18 31  1  0
 18 32  1  0
 19 33  1  0
 19 34  1  0
 20 35  1  0
 20 36  1  0
 21 37  1  0
 21 38  1  0
 22 39  1  0
 22 40  1  0
M  END
>  <filename_input>  (18) 
7POM_7VZ_docked.sdf

>  <pdb_id>  (18) 
7POM_7VZ

>  <pose_rank>  (18) 
17

>  <num_atoms_heavy>  (18) 
22

>  <num_torsions>  (18) 
5

>  <pose>  (18) 
[-39.93338464284323, 21.470105608908998, -58.27298343087268, 1.9022598474241428, -2.081220817103081, 0.82524378935247, -3.1189156320045828, 2.389340822504577, 0.6871454718663996, 0.34165952320669135, 2.8495379181460527]

>  <energy>  (18) 
-403.5801438328106

>  <inter_energy>  (18) 
-468.25374553956533

>  <intra_energy>  (18) 
57.85543300309625

>  <rmsd>  (18) 
4.82438

>  <sdf_rank>  (18) 
0

$$$$

     RDKit          3D

 40 41  0  0  0  0  0  0  0  0999 V2000
  -44.9215   16.3848  -63.9133 Cl  0  0  0  0  0  0  0  0  0  0  0  0
  -43.2107   15.9350  -63.6217 C   0  0  0  0  0  0  0  0  0  0  0  0
  -42.6920   14.6605  -64.1507 C   0  0  0  0  0  0  0  0  0  0  0  0
  -43.5944   13.7821  -64.9223 C   0  0  0  0  0  0  0  0  0  0  0  0
  -44.2656   12.7058  -64.2801 O   0  0  0  0  0  0  0  0  0  0  0  0
  -45.1662   11.8945  -65.0195 C   0  0  0  0  0  0  0  0  0  0  0  0
  -43.7412   13.9353  -66.1067 O   0  0  0  0  0  0  0  0  0  0  0  0
  -42.3765   16.7756  -62.9035 C   0  0  0  0  0  0  0  0  0  0  0  0
  -41.0549   16.4360  -62.6820 C   0  0  0  0  0  0  0  0  0  0  0  0
  -40.5264   15.1282  -63.2382 C   0  0  0  0  0  0  0  0  0  0  0  0
  -38.9852   14.6599  -63.0111 S   0  0  1  0  0  0  0  0  0  0  0  0
  -38.8820   13.6364  -62.0132 O   0  0  0  0  0  0  0  0  0  0  0  0
  -38.4859   13.9221  -64.3722 N   0  0  0  0  0  0  0  0  0  0  0  0
  -38.1702   15.8139  -62.7615 O   0  0  0  0  0  0  0  0  0  0  0  0
  -41.3854   14.3085  -63.9419 C   0  0  0  0  0  0  0  0  0  0  0  0
  -40.0130   17.4501  -61.7908 S   0  0  0  0  0  0  0  0  0  0  0  0
  -40.1442   17.2915  -60.0177 C   0  0  1  0  0  0  0  0  0  0  0  0
  -40.2002   15.8761  -59.4024 C   0  0  0  0  0  0  0  0  0  0  0  0
  -40.6074   15.9277  -57.9161 C   0  0  0  0  0  0  0  0  0  0  0  0
  -39.7875   17.0018  -57.1741 C   0  0  0  0  0  0  0  0  0  0  0  0
  -39.4177   18.3177  -57.9242 C   0  0  0  0  0  0  0  0  0  0  0  0
  -39.0315   18.1010  -59.3776 C   0  0  0  0  0  0  0  0  0  0  0  0
  -45.8000   11.3235  -64.3250 H   0  0  0  0  0  0  0  0  0  0  0  0
  -45.7993   12.5330  -65.6531 H   0  0  0  0  0  0  0  0  0  0  0  0
  -44.5970   11.1984  -65.6531 H   0  0  0  0  0  0  0  0  0  0  0  0
  -42.7695   17.7228  -62.5054 H   0  0  0  0  0  0  0  0  0  0  0  0
  -37.9251   13.0935  -64.1276 H   0  0  0  0  0  0  0  0  0  0  0  0
  -39.3046   13.6314  -64.9254 H   0  0  0  0  0  0  0  0  0  0  0  0
  -41.0131   13.3541  -64.3426 H   0  0  0  0  0  0  0  0  0  0  0  0
  -41.1498   17.6757  -59.7918 H   0  0  0  0  0  0  0  0  0  0  0  0
  -40.9364   15.2740  -59.9551 H   0  0  0  0  0  0  0  0  0  0  0  0
  -39.1986   15.4268  -59.4729 H   0  0  0  0  0  0  0  0  0  0  0  0
  -41.6773   16.1717  -57.8412 H   0  0  0  0  0  0  0  0  0  0  0  0
  -40.4116   14.9473  -57.4571 H   0  0  0  0  0  0  0  0  0  0  0  0
  -40.3638   17.2893  -56.2824 H   0  0  0  0  0  0  0  0  0  0  0  0
  -38.8165   16.5172  -56.9941 H   0  0  0  0  0  0  0  0  0  0  0  0
  -40.2860   18.9923  -57.8919 H   0  0  0  0  0  0  0  0  0  0  0  0
  -38.5391   18.7425  -57.4167 H   0  0  0  0  0  0  0  0  0  0  0  0
  -38.0813   17.5501  -59.4376 H   0  0  0  0  0  0  0  0  0  0  0  0
  -38.8983   19.0623  -59.8954 H   0  0  0  0  0  0  0  0  0  0  0  0
  1  2  1  0
  2  3  2  0
  2  8  1  0
  3  4  1  0
  3 15  1  0
  4  5  1  0
  4  7  2  0
  5  6  1  0
  8  9  2  0
  9 10  1  0
  9 16  1  0
 10 11  1  0
 10 15  2  0
 11 12  2  0
 11 13  1  6
 11 14  2  0
 17 16  1  0
 17 18  1  0
 17 22  1  0
 18 19  1  0
 19 20  1  0
 20 21  1  0
 21 22  1  0
  6 23  1  0
  6 24  1  0
  6 25  1  0
  8 26  1  0
 13 27  1  0
 13 28  1  0
 15 29  1  0
 17 30  1  1
 18 31  1  0
 18 32  1  0
 19 33  1  0
 19 34  1  0
 20 35  1  0
 20 36  1  0
 21 37  1  0
 21 38  1  0
 22 39  1  0
 22 40  1  0
M  END
>  <filename_input>  (19) 
7POM_7VZ_docked.sdf

>  <pdb_id>  (19) 
7POM_7VZ

>  <pose_rank>  (19) 
18

>  <num_atoms_heavy>  (19) 
22

>  <num_torsions>  (19) 
5

>  <pose>  (19) 
[-44.92152951460355, 16.38480018727325, -63.913287819842935, -2.103126601016845, -0.5839325517434215, -2.154202915736105, 0.837790711384286, 1.7640871196626944, 0.3348670794099505, -16.71214482003013, 0.839309079671965]

>  <energy>  (19) 
-257.6127709486305

>  <inter_energy>  (19) 
-282.4868149490961

>  <intra_energy>  (19) 
33.16132297677916

>  <rmsd>  (19) 
6.81797

>  <sdf_rank>  (19) 
0

$$$$

     RDKit          3D

 40 41  0  0  0  0  0  0  0  0999 V2000
  -44.2753   17.0154  -63.2411 Cl  0  0  0  0  0  0  0  0  0  0  0  0
  -43.0190   16.9550  -61.9635 C   0  0  0  0  0  0  0  0  0  0  0  0
  -42.8132   15.7095  -61.2022 C   0  0  0  0  0  0  0  0  0  0  0  0
  -43.6433   14.5292  -61.5169 C   0  0  0  0  0  0  0  0  0  0  0  0
  -44.2898   13.8113  -60.4738 O   0  0  0  0  0  0  0  0  0  0  0  0
  -45.0536   12.6547  -60.7817 C   0  0  0  0  0  0  0  0  0  0  0  0
  -43.7498   14.1333  -62.6482 O   0  0  0  0  0  0  0  0  0  0  0  0
  -42.2437   18.0692  -61.6882 C   0  0  0  0  0  0  0  0  0  0  0  0
  -41.2693   18.0252  -60.7086 C   0  0  0  0  0  0  0  0  0  0  0  0
  -41.0569   16.7373  -59.9371 C   0  0  0  0  0  0  0  0  0  0  0  0
  -39.9345   16.6139  -58.7662 S   0  0  1  0  0  0  0  0  0  0  0  0
  -39.7372   17.8594  -58.0853 O   0  0  0  0  0  0  0  0  0  0  0  0
  -40.5286   15.6339  -57.6116 N   0  0  0  0  0  0  0  0  0  0  0  0
  -38.7377   16.0430  -59.3141 O   0  0  0  0  0  0  0  0  0  0  0  0
  -41.8519   15.6475  -60.2291 C   0  0  0  0  0  0  0  0  0  0  0  0
  -40.3110   19.3881  -60.3449 S   0  0  0  0  0  0  0  0  0  0  0  0
  -41.2136   20.9188  -60.1764 C   0  0  1  0  0  0  0  0  0  0  0  0
  -42.7154   20.9371  -60.5361 C   0  0  0  0  0  0  0  0  0  0  0  0
  -43.2540   22.3796  -60.6173 C   0  0  0  0  0  0  0  0  0  0  0  0
  -42.7998   23.1899  -59.3869 C   0  0  0  0  0  0  0  0  0  0  0  0
  -41.3848   22.9216  -58.7897 C   0  0  0  0  0  0  0  0  0  0  0  0
  -41.0014   21.4516  -58.7714 C   0  0  0  0  0  0  0  0  0  0  0  0
  -45.3748   12.1684  -59.8488 H   0  0  0  0  0  0  0  0  0  0  0  0
  -45.9384   12.9448  -61.3674 H   0  0  0  0  0  0  0  0  0  0  0  0
  -44.4395   11.9549  -61.3674 H   0  0  0  0  0  0  0  0  0  0  0  0
  -42.4049   18.9983  -62.2546 H   0  0  0  0  0  0  0  0  0  0  0  0
  -40.2967   16.0165  -56.6838 H   0  0  0  0  0  0  0  0  0  0  0  0
  -41.5518   15.5684  -57.7100 H   0  0  0  0  0  0  0  0  0  0  0  0
  -41.7105   14.7112  -59.6694 H   0  0  0  0  0  0  0  0  0  0  0  0
  -40.7866   21.5647  -60.9579 H   0  0  0  0  0  0  0  0  0  0  0  0
  -42.8566   20.4464  -61.5104 H   0  0  0  0  0  0  0  0  0  0  0  0
  -43.2677   20.4039  -59.7483 H   0  0  0  0  0  0  0  0  0  0  0  0
  -42.8703   22.8594  -61.5297 H   0  0  0  0  0  0  0  0  0  0  0  0
  -44.3533   22.3504  -60.6409 H   0  0  0  0  0  0  0  0  0  0  0  0
  -42.8353   24.2525  -59.6689 H   0  0  0  0  0  0  0  0  0  0  0  0
  -43.4887   22.8716  -58.5905 H   0  0  0  0  0  0  0  0  0  0  0  0
  -40.6437   23.4669  -59.3926 H   0  0  0  0  0  0  0  0  0  0  0  0
  -41.4058   23.2627  -57.7441 H   0  0  0  0  0  0  0  0  0  0  0  0
  -41.6376   20.9043  -58.0601 H   0  0  0  0  0  0  0  0  0  0  0  0
  -39.9551   21.3232  -58.4573 H   0  0  0  0  0  0  0  0  0  0  0  0
  1  2  1  0
  2  3  2  0
  2  8  1  0
  3  4  1  0
  3 15  1  0
  4  5  1  0
  4  7  2  0
  5  6  1  0
  8  9  2  0
  9 10  1  0
  9 16  1  0
 10 11  1  0
 10 15  2  0
 11 12  2  0
 11 13  1  1
 11 14  2  0
 17 16  1  0
 17 18  1  0
 17 22  1  0
 18 19  1  0
 19 20  1  0
 20 21  1  0
 21 22  1  0
  6 23  1  0
  6 24  1  0
  6 25  1  0
  8 26  1  0
 13 27  1  0
 13 28  1  0
 15 29  1  0
 17 30  1  6
 18 31  1  0
 18 32  1  0
 19 33  1  0
 19 34  1  0
 20 35  1  0
 20 36  1  0
 21 37  1  0
 21 38  1  0
 22 39  1  0
 22 40  1  0
M  END
>  <filename_input>  (20) 
7POM_7VZ_docked.sdf

>  <pdb_id>  (20) 
7POM_7VZ

>  <pose_rank>  (20) 
19

>  <num_atoms_heavy>  (20) 
22

>  <num_torsions>  (20) 
5

>  <pose>  (20) 
[-44.275343692123236, 17.015409911518997, -63.24112185528079, -1.9563523017188396, -1.587684370812767, -2.8902891162150643, -0.4266166982320831, 1.1533790367199883, 0.404491601749003, -17.33722578673432, -0.0794214581184336]

>  <energy>  (20) 
-349.80583032114555

>  <inter_energy>  (20) 
-388.095360145343

>  <intra_energy>  (20) 
46.40347265446573

>  <rmsd>  (20) 
6.40605

>  <sdf_rank>  (20) 
0

$$$$

     RDKit          3D

 40 41  0  0  0  0  0  0  0  0999 V2000
  -33.4379   25.3361  -62.5515 Cl  0  0  0  0  0  0  0  0  0  0  0  0
  -34.1791   25.8981  -64.0842 C   0  0  0  0  0  0  0  0  0  0  0  0
  -34.4296   27.3365  -64.2880 C   0  0  0  0  0  0  0  0  0  0  0  0
  -34.0532   28.2894  -63.2243 C   0  0  0  0  0  0  0  0  0  0  0  0
  -32.7295   28.2950  -62.7054 O   0  0  0  0  0  0  0  0  0  0  0  0
  -32.4161   29.1035  -61.5810 C   0  0  0  0  0  0  0  0  0  0  0  0
  -34.8659   29.0410  -62.7529 O   0  0  0  0  0  0  0  0  0  0  0  0
  -34.5173   24.9907  -65.0745 C   0  0  0  0  0  0  0  0  0  0  0  0
  -35.0828   25.4202  -66.2606 C   0  0  0  0  0  0  0  0  0  0  0  0
  -35.3278   26.9023  -66.4666 C   0  0  0  0  0  0  0  0  0  0  0  0
  -35.9957   27.4795  -67.8328 S   0  0  1  0  0  0  0  0  0  0  0  0
  -36.4304   28.8366  -67.6800 O   0  0  0  0  0  0  0  0  0  0  0  0
  -34.8226   27.5752  -68.9558 N   0  0  0  0  0  0  0  0  0  0  0  0
  -37.0181   26.5774  -68.2794 O   0  0  0  0  0  0  0  0  0  0  0  0
  -34.9879   27.7798  -65.4570 C   0  0  0  0  0  0  0  0  0  0  0  0
  -35.5177   24.3198  -67.4886 S   0  0  0  0  0  0  0  0  0  0  0  0
  -34.2888   24.0902  -68.7627 C   0  0  1  0  0  0  0  0  0  0  0  0
  -33.1560   23.0679  -68.5241 C   0  0  0  0  0  0  0  0  0  0  0  0
  -32.0392   23.2140  -69.5771 C   0  0  0  0  0  0  0  0  0  0  0  0
  -32.6460   23.2971  -70.9919 C   0  0  0  0  0  0  0  0  0  0  0  0
  -34.0003   24.0445  -71.1872 C   0  0  0  0  0  0  0  0  0  0  0  0
  -34.9995   23.7939  -70.0704 C   0  0  0  0  0  0  0  0  0  0  0  0
  -32.6320   28.5465  -60.6574 H   0  0  0  0  0  0  0  0  0  0  0  0
  -31.3493   29.3704  -61.6074 H   0  0  0  0  0  0  0  0  0  0  0  0
  -33.0240   30.0198  -61.6074 H   0  0  0  0  0  0  0  0  0  0  0  0
  -34.3342   23.9177  -64.9156 H   0  0  0  0  0  0  0  0  0  0  0  0
  -33.9069   27.6500  -68.4902 H   0  0  0  0  0  0  0  0  0  0  0  0
  -34.8406   26.7300  -69.5441 H   0  0  0  0  0  0  0  0  0  0  0  0
  -35.1690   28.8561  -65.5941 H   0  0  0  0  0  0  0  0  0  0  0  0
  -33.7361   25.0413  -68.7712 H   0  0  0  0  0  0  0  0  0  0  0  0
  -32.7293   23.2328  -67.5237 H   0  0  0  0  0  0  0  0  0  0  0  0
  -33.5790   22.0557  -68.6044 H   0  0  0  0  0  0  0  0  0  0  0  0
  -31.4661   24.1306  -69.3736 H   0  0  0  0  0  0  0  0  0  0  0  0
  -31.3782   22.3365  -69.5220 H   0  0  0  0  0  0  0  0  0  0  0  0
  -31.9051   23.7983  -71.6321 H   0  0  0  0  0  0  0  0  0  0  0  0
  -32.8813   22.2519  -71.2414 H   0  0  0  0  0  0  0  0  0  0  0  0
  -33.7975   25.1246  -71.2366 H   0  0  0  0  0  0  0  0  0  0  0  0
  -34.4500   23.6606  -72.1147 H   0  0  0  0  0  0  0  0  0  0  0  0
  -35.3326   22.7458  -70.0900 H   0  0  0  0  0  0  0  0  0  0  0  0
  -35.8870   24.4330  -70.1877 H   0  0  0  0  0  0  0  0  0  0  0  0
  1  2  1  0
  2  3  2  0
  2  8  1  0
  3  4  1  0
  3 15  1  0
  4  5  1  0
  4  7  2  0
  5  6  1  0
  8  9  2  0
  9 10  1  0
  9 16  1  0
 10 11  1  0
 10 15  2  0
 11 12  2  0
 11 13  1  6
 11 14  2  0
 17 16  1  0
 17 18  1  0
 17 22  1  0
 18 19  1  0
 19 20  1  0
 20 21  1  0
 21 22  1  0
  6 23  1  0
  6 24  1  0
  6 25  1  0
  8 26  1  0
 13 27  1  0
 13 28  1  0
 15 29  1  0
 17 30  1  6
 18 31  1  0
 18 32  1  0
 19 33  1  0
 19 34  1  0
 20 35  1  0
 20 36  1  0
 21 37  1  0
 21 38  1  0
 22 39  1  0
 22 40  1  0
M  END
>  <filename_input>  (21) 
7POM_7VZ_docked.sdf

>  <pdb_id>  (21) 
7POM_7VZ

>  <pose_rank>  (21) 
20

>  <num_atoms_heavy>  (21) 
22

>  <num_torsions>  (21) 
5

>  <pose>  (21) 
[-33.43792213337029, 25.336076299289893, -62.551488806607274, 1.155467423441819, -2.904526602440702, 0.11739485313759972, 1.915185731609907, -1.906692737079276, 0.4986911622634349, -0.9545112086547959, 1.5297826174872926]

>  <energy>  (21) 
-120.69041530304129

>  <inter_energy>  (21) 
-138.4143007337182

>  <intra_energy>  (21) 
30.853222740665885

>  <rmsd>  (21) 
12.3277

>  <sdf_rank>  (21) 
0

$$$$

     RDKit          3D

 40 41  0  0  0  0  0  0  0  0999 V2000
  -34.2754   21.6490  -70.0612 Cl  0  0  0  0  0  0  0  0  0  0  0  0
  -34.4815   20.1428  -69.1109 C   0  0  0  0  0  0  0  0  0  0  0  0
  -33.9610   20.0734  -67.7333 C   0  0  0  0  0  0  0  0  0  0  0  0
  -33.2870   21.2555  -67.1593 C   0  0  0  0  0  0  0  0  0  0  0  0
  -33.9090   22.5325  -67.2198 O   0  0  0  0  0  0  0  0  0  0  0  0
  -34.6315   23.0191  -66.0986 C   0  0  0  0  0  0  0  0  0  0  0  0
  -32.1899   21.1653  -66.6735 O   0  0  0  0  0  0  0  0  0  0  0  0
  -35.1244   19.0471  -69.6627 C   0  0  0  0  0  0  0  0  0  0  0  0
  -35.2915   17.8860  -68.9312 C   0  0  0  0  0  0  0  0  0  0  0  0
  -34.7623   17.8262  -67.5116 C   0  0  0  0  0  0  0  0  0  0  0  0
  -34.9163   16.4917  -66.5943 S   0  0  1  0  0  0  0  0  0  0  0  0
  -34.7575   16.7834  -65.2002 O   0  0  0  0  0  0  0  0  0  0  0  0
  -36.4586   15.9870  -66.7086 N   0  0  0  0  0  0  0  0  0  0  0  0
  -34.0373   15.4714  -67.0891 O   0  0  0  0  0  0  0  0  0  0  0  0
  -34.1186   18.9318  -66.9939 C   0  0  0  0  0  0  0  0  0  0  0  0
  -36.0694   16.5210  -69.5943 S   0  0  0  0  0  0  0  0  0  0  0  0
  -34.9778   15.1947  -70.0795 C   0  0  1  0  0  0  0  0  0  0  0  0
  -35.5939   13.9006  -70.6546 C   0  0  0  0  0  0  0  0  0  0  0  0
  -34.5474   12.7713  -70.7376 C   0  0  0  0  0  0  0  0  0  0  0  0
  -33.2463   13.2941  -71.3784 C   0  0  0  0  0  0  0  0  0  0  0  0
  -32.7912   14.7539  -71.0737 C   0  0  0  0  0  0  0  0  0  0  0  0
  -33.9364   15.7516  -71.0326 C   0  0  0  0  0  0  0  0  0  0  0  0
  -34.1388   22.6873  -65.1727 H   0  0  0  0  0  0  0  0  0  0  0  0
  -34.6560   24.1185  -66.1271 H   0  0  0  0  0  0  0  0  0  0  0  0
  -35.6595   22.6286  -66.1271 H   0  0  0  0  0  0  0  0  0  0  0  0
  -35.5057   19.1013  -70.6930 H   0  0  0  0  0  0  0  0  0  0  0  0
  -36.8489   15.8593  -65.7640 H   0  0  0  0  0  0  0  0  0  0  0  0
  -37.0132   16.6904  -67.2171 H   0  0  0  0  0  0  0  0  0  0  0  0
  -33.7245   18.8952  -65.9676 H   0  0  0  0  0  0  0  0  0  0  0  0
  -34.5544   14.8397  -69.1283 H   0  0  0  0  0  0  0  0  0  0  0  0
  -36.4197   13.5769  -70.0040 H   0  0  0  0  0  0  0  0  0  0  0  0
  -35.9589   14.1113  -71.6706 H   0  0  0  0  0  0  0  0  0  0  0  0
  -34.3302   12.4025  -69.7243 H   0  0  0  0  0  0  0  0  0  0  0  0
  -34.9490   11.9559  -71.3571 H   0  0  0  0  0  0  0  0  0  0  0  0
  -32.4346   12.6277  -71.0511 H   0  0  0  0  0  0  0  0  0  0  0  0
  -33.4668   13.3043  -72.4560 H   0  0  0  0  0  0  0  0  0  0  0  0
  -32.2860   14.7640  -70.0966 H   0  0  0  0  0  0  0  0  0  0  0  0
  -32.1243   15.0616  -71.8925 H   0  0  0  0  0  0  0  0  0  0  0  0
  -34.3692   15.8711  -72.0368 H   0  0  0  0  0  0  0  0  0  0  0  0
  -33.5849   16.7382  -70.6963 H   0  0  0  0  0  0  0  0  0  0  0  0
  1  2  1  0
  2  3  2  0
  2  8  1  0
  3  4  1  0
  3 15  1  0
  4  5  1  0
  4  7  2  0
  5  6  1  0
  8  9  2  0
  9 10  1  0
  9 16  1  0
 10 11  1  0
 10 15  2  0
 11 12  2  0
 11 13  1  1
 11 14  2  0
 17 16  1  0
 17 18  1  0
 17 22  1  0
 18 19  1  0
 19 20  1  0
 20 21  1  0
 21 22  1  0
  6 23  1  0
  6 24  1  0
  6 25  1  0
  8 26  1  0
 13 27  1  0
 13 28  1  0
 15 29  1  0
 17 30  1  1
 18 31  1  0
 18 32  1  0
 19 33  1  0
 19 34  1  0
 20 35  1  0
 20 36  1  0
 21 37  1  0
 21 38  1  0
 22 39  1  0
 22 40  1  0
M  END
>  <filename_input>  (22) 
7POM_7VZ_docked.sdf

>  <pdb_id>  (22) 
7POM_7VZ

>  <pose_rank>  (22) 
21

>  <num_atoms_heavy>  (22) 
22

>  <num_torsions>  (22) 
5

>  <pose>  (22) 
[-34.27542983929551, 21.649027074803517, -70.06123255335316, -3.1133587947944052, -0.25084086776127407, 2.973992440982423, -3.7852482053487573, -1.9600379064714875, -1.0659430400008538, 2.5223433017949306, -3.119290658495823]

>  <energy>  (22) 
-78.32011094799262

>  <inter_energy>  (22) 
-103.44967655894517

>  <intra_energy>  (22) 
38.73340452776804

>  <rmsd>  (22) 
11.8666

>  <sdf_rank>  (22) 
0

$$$$

     RDKit          3D

 40 41  0  0  0  0  0  0  0  0999 V2000
  -48.5018   24.6211  -56.8718 Cl  0  0  0  0  0  0  0  0  0  0  0  0
  -49.2289   23.7090  -55.5103 C   0  0  0  0  0  0  0  0  0  0  0  0
  -50.0076   24.4275  -54.4852 C   0  0  0  0  0  0  0  0  0  0  0  0
  -50.1817   25.8889  -54.6081 C   0  0  0  0  0  0  0  0  0  0  0  0
  -50.9399   26.4306  -55.6819 O   0  0  0  0  0  0  0  0  0  0  0  0
  -52.1661   25.8211  -56.0575 C   0  0  0  0  0  0  0  0  0  0  0  0
  -49.6525   26.6411  -53.8323 O   0  0  0  0  0  0  0  0  0  0  0  0
  -49.0627   22.3372  -55.4163 C   0  0  0  0  0  0  0  0  0  0  0  0
  -49.6272   21.6288  -54.3719 C   0  0  0  0  0  0  0  0  0  0  0  0
  -50.4352   22.3738  -53.3273 C   0  0  0  0  0  0  0  0  0  0  0  0
  -51.1221   21.6078  -52.0674 S   0  0  1  0  0  0  0  0  0  0  0  0
  -51.9003   22.5018  -51.2616 O   0  0  0  0  0  0  0  0  0  0  0  0
  -52.2230   20.5673  -52.6605 N   0  0  0  0  0  0  0  0  0  0  0  0
  -50.1154   20.8845  -51.3451 O   0  0  0  0  0  0  0  0  0  0  0  0
  -50.5747   23.7419  -53.4445 C   0  0  0  0  0  0  0  0  0  0  0  0
  -49.4258   19.9414  -54.2299 S   0  0  0  0  0  0  0  0  0  0  0  0
  -50.4844   18.9661  -55.2854 C   0  0  1  0  0  0  0  0  0  0  0  0
  -50.5899   19.3416  -56.7797 C   0  0  0  0  0  0  0  0  0  0  0  0
  -51.7540   18.5965  -57.4633 C   0  0  0  0  0  0  0  0  0  0  0  0
  -51.7171   17.0988  -57.0996 C   0  0  0  0  0  0  0  0  0  0  0  0
  -51.2636   16.6833  -55.6669 C   0  0  0  0  0  0  0  0  0  0  0  0
  -50.1019   17.5053  -55.1347 C   0  0  0  0  0  0  0  0  0  0  0  0
  -52.7284   25.5416  -55.1544 H   0  0  0  0  0  0  0  0  0  0  0  0
  -52.7596   26.5291  -56.6546 H   0  0  0  0  0  0  0  0  0  0  0  0
  -51.9601   24.9205  -56.6546 H   0  0  0  0  0  0  0  0  0  0  0  0
  -48.4758   21.8061  -56.1801 H   0  0  0  0  0  0  0  0  0  0  0  0
  -52.7127   20.1045  -51.8815 H   0  0  0  0  0  0  0  0  0  0  0  0
  -52.9044   21.0805  -53.2378 H   0  0  0  0  0  0  0  0  0  0  0  0
  -51.1525   24.2920  -52.6873 H   0  0  0  0  0  0  0  0  0  0  0  0
  -51.4985   19.1920  -54.9240 H   0  0  0  0  0  0  0  0  0  0  0  0
  -50.7581   20.4252  -56.8660 H   0  0  0  0  0  0  0  0  0  0  0  0
  -49.6525   19.0526  -57.2776 H   0  0  0  0  0  0  0  0  0  0  0  0
  -52.7083   19.0282  -57.1273 H   0  0  0  0  0  0  0  0  0  0  0  0
  -51.6558   18.7026  -58.5537 H   0  0  0  0  0  0  0  0  0  0  0  0
  -52.7347   16.7065  -57.2428 H   0  0  0  0  0  0  0  0  0  0  0  0
  -50.9364   16.6857  -57.7553 H   0  0  0  0  0  0  0  0  0  0  0  0
  -52.1169   16.8039  -54.9833 H   0  0  0  0  0  0  0  0  0  0  0  0
  -50.9200   15.6401  -55.7269 H   0  0  0  0  0  0  0  0  0  0  0  0
  -49.1916   17.2917  -55.7141 H   0  0  0  0  0  0  0  0  0  0  0  0
  -49.8980   17.2601  -54.0819 H   0  0  0  0  0  0  0  0  0  0  0  0
  1  2  1  0
  2  3  2  0
  2  8  1  0
  3  4  1  0
  3 15  1  0
  4  5  1  0
  4  7  2  0
  5  6  1  0
  8  9  2  0
  9 10  1  0
  9 16  1  0
 10 11  1  0
 10 15  2  0
 11 12  2  0
 11 13  1  6
 11 14  2  0
 17 16  1  0
 17 18  1  0
 17 22  1  0
 18 19  1  0
 19 20  1  0
 20 21  1  0
 21 22  1  0
  6 23  1  0
  6 24  1  0
  6 25  1  0
  8 26  1  0
 13 27  1  0
 13 28  1  0
 15 29  1  0
 17 30  1  1
 18 31  1  0
 18 32  1  0
 19 33  1  0
 19 34  1  0
 20 35  1  0
 20 36  1  0
 21 37  1  0
 21 38  1  0
 22 39  1  0
 22 40  1  0
M  END
>  <filename_input>  (23) 
7POM_7VZ_docked.sdf

>  <pdb_id>  (23) 
7POM_7VZ

>  <pose_rank>  (23) 
22

>  <num_atoms_heavy>  (23) 
22

>  <num_torsions>  (23) 
5

>  <pose>  (23) 
[-48.501849309605525, 24.62114590096811, -56.87182318077534, -4.437933852424191, 1.818427344377586, 1.1495259194709937, 2.227602066493527, -1.6812707566925436, -2.0229245089339774, -0.6747878687039565, 0.8906886092132433]

>  <energy>  (23) 
-18.91698103094047

>  <inter_energy>  (23) 
-30.40522855998051

>  <intra_energy>  (23) 
23.200333508170544

>  <rmsd>  (23) 
11.4252

>  <sdf_rank>  (23) 
0

$$$$

     RDKit          3D

 40 41  0  0  0  0  0  0  0  0999 V2000
  -49.4841   26.3789  -58.4221 Cl  0  0  0  0  0  0  0  0  0  0  0  0
  -50.0414   26.3466  -56.7184 C   0  0  0  0  0  0  0  0  0  0  0  0
  -50.8318   27.4727  -56.1888 C   0  0  0  0  0  0  0  0  0  0  0  0
  -51.1581   28.6040  -57.0804 C   0  0  0  0  0  0  0  0  0  0  0  0
  -50.2168   29.6505  -57.2809 O   0  0  0  0  0  0  0  0  0  0  0  0
  -49.3782   30.0597  -56.2107 C   0  0  0  0  0  0  0  0  0  0  0  0
  -52.2342   28.6797  -57.6132 O   0  0  0  0  0  0  0  0  0  0  0  0
  -49.7336   25.2729  -55.8994 C   0  0  0  0  0  0  0  0  0  0  0  0
  -50.1670   25.2406  -54.5870 C   0  0  0  0  0  0  0  0  0  0  0  0
  -50.9881   26.3980  -54.0529 C   0  0  0  0  0  0  0  0  0  0  0  0
  -51.5258   26.4319  -52.5181 S   0  0  1  0  0  0  0  0  0  0  0  0
  -52.2665   25.2503  -52.1879 O   0  0  0  0  0  0  0  0  0  0  0  0
  -50.2298   26.3604  -51.5374 N   0  0  0  0  0  0  0  0  0  0  0  0
  -52.2354   27.6579  -52.2906 O   0  0  0  0  0  0  0  0  0  0  0  0
  -51.2703   27.4570  -54.8918 C   0  0  0  0  0  0  0  0  0  0  0  0
  -49.7900   23.9345  -53.5575 S   0  0  0  0  0  0  0  0  0  0  0  0
  -50.5312   22.3769  -54.0162 C   0  0  1  0  0  0  0  0  0  0  0  0
  -49.7800   21.4624  -55.0084 C   0  0  0  0  0  0  0  0  0  0  0  0
  -50.6856   20.3212  -55.5134 C   0  0  0  0  0  0  0  0  0  0  0  0
  -51.4135   19.6528  -54.3301 C   0  0  0  0  0  0  0  0  0  0  0  0
  -51.8752   20.5390  -53.1332 C   0  0  0  0  0  0  0  0  0  0  0  0
  -50.8716   21.6133  -52.7497 C   0  0  0  0  0  0  0  0  0  0  0  0
  -49.8642   29.8226  -55.2528 H   0  0  0  0  0  0  0  0  0  0  0  0
  -48.4165   29.5296  -56.2751 H   0  0  0  0  0  0  0  0  0  0  0  0
  -49.2043   31.1440  -56.2751 H   0  0  0  0  0  0  0  0  0  0  0  0
  -49.1384   24.4377  -56.2971 H   0  0  0  0  0  0  0  0  0  0  0  0
  -50.5409   26.3776  -50.5556 H   0  0  0  0  0  0  0  0  0  0  0  0
  -49.7104   25.4895  -51.7178 H   0  0  0  0  0  0  0  0  0  0  0  0
  -51.8588   28.3048  -54.5110 H   0  0  0  0  0  0  0  0  0  0  0  0
  -51.4154   22.6675  -54.6024 H   0  0  0  0  0  0  0  0  0  0  0  0
  -49.4472   22.0629  -55.8678 H   0  0  0  0  0  0  0  0  0  0  0  0
  -48.9189   21.0180  -54.4877 H   0  0  0  0  0  0  0  0  0  0  0  0
  -51.4295   20.7305  -56.2127 H   0  0  0  0  0  0  0  0  0  0  0  0
  -50.0641   19.5694  -56.0221 H   0  0  0  0  0  0  0  0  0  0  0  0
  -52.3120   19.1660  -54.7370 H   0  0  0  0  0  0  0  0  0  0  0  0
  -50.6535   18.9895  -53.8915 H   0  0  0  0  0  0  0  0  0  0  0  0
  -52.8212   21.0288  -53.4077 H   0  0  0  0  0  0  0  0  0  0  0  0
  -51.9852   19.8748  -52.2634 H   0  0  0  0  0  0  0  0  0  0  0  0
  -49.9649   21.1512  -52.3322 H   0  0  0  0  0  0  0  0  0  0  0  0
  -51.2901   22.2863  -51.9867 H   0  0  0  0  0  0  0  0  0  0  0  0
  1  2  1  0
  2  3  2  0
  2  8  1  0
  3  4  1  0
  3 15  1  0
  4  5  1  0
  4  7  2  0
  5  6  1  0
  8  9  2  0
  9 10  1  0
  9 16  1  0
 10 11  1  0
 10 15  2  0
 11 12  2  0
 11 13  1  1
 11 14  2  0
 17 16  1  0
 17 18  1  0
 17 22  1  0
 18 19  1  0
 19 20  1  0
 20 21  1  0
 21 22  1  0
  6 23  1  0
  6 24  1  0
  6 25  1  0
  8 26  1  0
 13 27  1  0
 13 28  1  0
 15 29  1  0
 17 30  1  6
 18 31  1  0
 18 32  1  0
 19 33  1  0
 19 34  1  0
 20 35  1  0
 20 36  1  0
 21 37  1  0
 21 38  1  0
 22 39  1  0
 22 40  1  0
M  END
>  <filename_input>  (24) 
7POM_7VZ_docked.sdf

>  <pdb_id>  (24) 
7POM_7VZ

>  <pose_rank>  (24) 
23

>  <num_atoms_heavy>  (24) 
22

>  <num_torsions>  (24) 
5

>  <pose>  (24) 
[-49.484089167084704, 26.37894527157179, -58.422118393622696, -4.517006652422729, 3.0002521422117323, 0.9146089502849828, -1.918386534736725, 1.9892470389066397, -3.3804293627618978, -0.4458141539320094, -4.697520259004645]

>  <energy>  (24) 
70.00192466782794

>  <inter_energy>  (24) 
61.855150715160356

>  <intra_energy>  (24) 
24.43732901656365

>  <rmsd>  (24) 
12.1515

>  <sdf_rank>  (24) 
0

$$$$

     RDKit          3D

 40 41  0  0  0  0  0  0  0  0999 V2000
  -49.7128   24.3824  -58.6606 Cl  0  0  0  0  0  0  0  0  0  0  0  0
  -50.0747   24.1744  -56.9171 C   0  0  0  0  0  0  0  0  0  0  0  0
  -50.7261   25.2675  -56.1726 C   0  0  0  0  0  0  0  0  0  0  0  0
  -51.0777   26.5125  -56.8850 C   0  0  0  0  0  0  0  0  0  0  0  0
  -50.2564   27.6659  -56.7564 O   0  0  0  0  0  0  0  0  0  0  0  0
  -50.7058   28.7693  -55.9840 C   0  0  0  0  0  0  0  0  0  0  0  0
  -52.0807   26.5834  -57.5459 O   0  0  0  0  0  0  0  0  0  0  0  0
  -49.7459   22.9961  -56.2676 C   0  0  0  0  0  0  0  0  0  0  0  0
  -50.0292   22.8287  -54.9249 C   0  0  0  0  0  0  0  0  0  0  0  0
  -50.7086   23.9538  -54.1688 C   0  0  0  0  0  0  0  0  0  0  0  0
  -51.0659   23.8308  -52.5866 S   0  0  1  0  0  0  0  0  0  0  0  0
  -52.2659   23.0779  -52.3695 O   0  0  0  0  0  0  0  0  0  0  0  0
  -49.9107   22.9241  -51.8868 N   0  0  0  0  0  0  0  0  0  0  0  0
  -51.0739   25.1394  -51.9985 O   0  0  0  0  0  0  0  0  0  0  0  0
  -51.0152   25.1187  -54.8426 C   0  0  0  0  0  0  0  0  0  0  0  0
  -49.6229   21.3913  -54.1023 S   0  0  0  0  0  0  0  0  0  0  0  0
  -50.2510   19.8954  -54.8466 C   0  0  1  0  0  0  0  0  0  0  0  0
  -49.6673   19.4406  -56.2022 C   0  0  0  0  0  0  0  0  0  0  0  0
  -50.5180   18.3180  -56.8295 C   0  0  0  0  0  0  0  0  0  0  0  0
  -50.8280   17.2321  -55.7800 C   0  0  0  0  0  0  0  0  0  0  0  0
  -51.0784   17.6631  -54.3026 C   0  0  0  0  0  0  0  0  0  0  0  0
  -50.1562   18.7738  -53.8288 C   0  0  0  0  0  0  0  0  0  0  0  0
  -50.6090   28.5318  -54.9144 H   0  0  0  0  0  0  0  0  0  0  0  0
  -50.0964   29.6542  -56.2197 H   0  0  0  0  0  0  0  0  0  0  0  0
  -51.7600   28.9767  -56.2197 H   0  0  0  0  0  0  0  0  0  0  0  0
  -49.2545   22.1855  -56.8256 H   0  0  0  0  0  0  0  0  0  0  0  0
  -49.9955   22.9907  -50.8625 H   0  0  0  0  0  0  0  0  0  0  0  0
  -50.0218   21.9422  -52.1774 H   0  0  0  0  0  0  0  0  0  0  0  0
  -51.5011   25.9434  -54.3006 H   0  0  0  0  0  0  0  0  0  0  0  0
  -51.2853   20.1508  -55.1206 H   0  0  0  0  0  0  0  0  0  0  0  0
  -49.6447   20.2996  -56.8890 H   0  0  0  0  0  0  0  0  0  0  0  0
  -48.6523   19.0528  -56.0308 H   0  0  0  0  0  0  0  0  0  0  0  0
  -51.4619   18.7428  -57.2019 H   0  0  0  0  0  0  0  0  0  0  0  0
  -49.9561   17.8641  -57.6591 H   0  0  0  0  0  0  0  0  0  0  0  0
  -51.7307   16.7031  -56.1195 H   0  0  0  0  0  0  0  0  0  0  0  0
  -49.9028   16.6393  -55.7303 H   0  0  0  0  0  0  0  0  0  0  0  0
  -52.1177   18.0123  -54.2135 H   0  0  0  0  0  0  0  0  0  0  0  0
  -50.8767   16.7850  -53.6717 H   0  0  0  0  0  0  0  0  0  0  0  0
  -49.1215   18.4053  -53.7684 H   0  0  0  0  0  0  0  0  0  0  0  0
  -50.4486   19.1262  -52.8287 H   0  0  0  0  0  0  0  0  0  0  0  0
  1  2  1  0
  2  3  2  0
  2  8  1  0
  3  4  1  0
  3 15  1  0
  4  5  1  0
  4  7  2  0
  5  6  1  0
  8  9  2  0
  9 10  1  0
  9 16  1  0
 10 11  1  0
 10 15  2  0
 11 12  2  0
 11 13  1  1
 11 14  2  0
 17 16  1  0
 17 18  1  0
 17 22  1  0
 18 19  1  0
 19 20  1  0
 20 21  1  0
 21 22  1  0
  6 23  1  0
  6 24  1  0
  6 25  1  0
  8 26  1  0
 13 27  1  0
 13 28  1  0
 15 29  1  0
 17 30  1  6
 18 31  1  0
 18 32  1  0
 19 33  1  0
 19 34  1  0
 20 35  1  0
 20 36  1  0
 21 37  1  0
 21 38  1  0
 22 39  1  0
 22 40  1  0
M  END
>  <filename_input>  (25) 
7POM_7VZ_docked.sdf

>  <pdb_id>  (25) 
7POM_7VZ

>  <pose_rank>  (25) 
24

>  <num_atoms_heavy>  (25) 
22

>  <num_torsions>  (25) 
5

>  <pose>  (25) 
[-49.71277520449232, 24.382374430102942, -58.66064795764009, -4.74959347816926, 2.1151157166092918, 1.6033322364338274, -2.375322326416821, 1.6760771665660847, -4.635556030889793, -0.2397947835317777, -5.030513477371355]

>  <energy>  (25) 
23.554622532928725

>  <inter_energy>  (25) 
-15.212905058063306

>  <intra_energy>  (25) 
38.06774465145376

>  <rmsd>  (25) 
11.0981

>  <sdf_rank>  (25) 
0

$$$$

     RDKit          3D

 40 41  0  0  0  0  0  0  0  0999 V2000
  -42.6480   19.1250  -64.7680 Cl  0  0  0  0  0  0  0  0  0  0  0  0
  -42.5560   20.1400  -63.2930 C   0  0  0  0  0  0  0  0  0  0  0  0
  -43.3680   21.3670  -63.2010 C   0  0  0  0  0  0  0  0  0  0  0  0
  -44.2520   21.7300  -64.3270 C   0  0  0  0  0  0  0  0  0  0  0  0
  -45.3000   22.6720  -64.1380 O   0  0  0  0  0  0  0  0  0  0  0  0
  -45.8440   23.3560  -65.2570 C   0  0  0  0  0  0  0  0  0  0  0  0
  -44.1280   21.2060  -65.4030 O   0  0  0  0  0  0  0  0  0  0  0  0
  -41.7280   19.7790  -62.2430 C   0  0  0  0  0  0  0  0  0  0  0  0
  -41.6590   20.5550  -61.1010 C   0  0  0  0  0  0  0  0  0  0  0  0
  -42.5050   21.8100  -61.0100 C   0  0  0  0  0  0  0  0  0  0  0  0
  -42.4700   22.7750  -59.7010 S   0  0  1  0  0  0  0  0  0  0  0  0
  -41.1410   23.2230  -59.4060 O   0  0  0  0  0  0  0  0  0  0  0  0
  -43.2640   24.1450  -60.0740 N   0  0  0  0  0  0  0  0  0  0  0  0
  -43.1290   22.1180  -58.6090 O   0  0  0  0  0  0  0  0  0  0  0  0
  -43.3130   22.1470  -62.0770 C   0  0  0  0  0  0  0  0  0  0  0  0
  -40.6380   20.1360  -59.8010 S   0  0  0  0  0  0  0  0  0  0  0  0
  -40.5880   18.3940  -59.4150 C   0  0  1  0  0  0  0  0  0  0  0  0
  -41.4960   17.4320  -60.2120 C   0  0  0  0  0  0  0  0  0  0  0  0
  -41.5450   16.0370  -59.5570 C   0  0  0  0  0  0  0  0  0  0  0  0
  -40.1210   15.5590  -59.2100 C   0  0  0  0  0  0  0  0  0  0  0  0
  -39.0720   16.6070  -58.7280 C   0  0  0  0  0  0  0  0  0  0  0  0
  -39.1450   17.9280  -59.4750 C   0  0  0  0  0  0  0  0  0  0  0  0
  -46.4933   24.1723  -64.9076 H   0  0  0  0  0  0  0  0  0  0  0  0
  -45.0272   23.7718  -65.8651 H   0  0  0  0  0  0  0  0  0  0  0  0
  -46.4330   22.6537  -65.8651 H   0  0  0  0  0  0  0  0  0  0  0  0
  -41.1193   18.8659  -62.3185 H   0  0  0  0  0  0  0  0  0  0  0  0
  -43.5432   24.6268  -59.2075 H   0  0  0  0  0  0  0  0  0  0  0  0
  -42.6481   24.7595  -60.6253 H   0  0  0  0  0  0  0  0  0  0  0  0
  -43.9245   23.0598  -62.0234 H   0  0  0  0  0  0  0  0  0  0  0  0
  -41.0252   18.3340  -58.4074 H   0  0  0  0  0  0  0  0  0  0  0  0
  -42.5140   17.8471  -60.2478 H   0  0  0  0  0  0  0  0  0  0  0  0
  -41.0836   17.3253  -61.2262 H   0  0  0  0  0  0  0  0  0  0  0  0
  -42.1448   16.0892  -58.6364 H   0  0  0  0  0  0  0  0  0  0  0  0
  -41.9993   15.3259  -60.2627 H   0  0  0  0  0  0  0  0  0  0  0  0
  -40.2178   14.8082  -58.4119 H   0  0  0  0  0  0  0  0  0  0  0  0
  -39.7190   15.2035  -60.1703 H   0  0  0  0  0  0  0  0  0  0  0  0
  -39.2413   16.8022  -57.6588 H   0  0  0  0  0  0  0  0  0  0  0  0
  -38.0769   16.1807  -58.9228 H   0  0  0  0  0  0  0  0  0  0  0  0
  -38.8369   17.7874  -60.5216 H   0  0  0  0  0  0  0  0  0  0  0  0
  -38.4735   18.6722  -59.0219 H   0  0  0  0  0  0  0  0  0  0  0  0
  1  2  1  0
  2  3  2  0
  2  8  1  0
  3  4  1  0
  3 15  1  0
  4  5  1  0
  4  7  2  0
  5  6  1  0
  8  9  2  0
  9 10  1  0
  9 16  1  0
 10 11  1  0
 10 15  2  0
 11 12  2  0
 11 13  1  6
 11 14  2  0
 17 16  1  0
 17 18  1  0
 17 22  1  0
 18 19  1  0
 19 20  1  0
 20 21  1  0
 21 22  1  0
  6 23  1  0
  6 24  1  0
  6 25  1  0
  8 26  1  0
 13 27  1  0
 13 28  1  0
 15 29  1  0
 17 30  1  1
 18 31  1  0
 18 32  1  0
 19 33  1  0
 19 34  1  0
 20 35  1  0
 20 36  1  0
 21 37  1  0
 21 38  1  0
 22 39  1  0
 22 40  1  0
M  END
>  <filename_input>  (26) 
7POM_7VZ_docked.sdf

>  <pdb_id>  (26) 
7POM_7VZ

>  <pose_rank>  (26) 
25

>  <num_atoms_heavy>  (26) 
22

>  <num_torsions>  (26) 
5

>  <pose>  (26) 
[-42.648, 19.125, -64.768, 1e-06, 1e-06, 1e-06, 0.0, 0.0, 0.0, 0.0, 0.0]

>  <energy>  (26) 
-865.2235032345628

>  <inter_energy>  (26) 
-915.587741060329

>  <intra_energy>  (26) 
48.523596683594114

>  <rmsd>  (26) 
0.0

>  <sdf_rank>  (26) 
0

$$$$
