
     RDKit          3D

 28 28  0  0  0  0  0  0  0  0999 V2000
   51.5896  -47.1005  -12.9802 Cl  0  0  0  0  0  0  0  0  0  0  0  0
   50.6194  -45.6718  -15.4693 O   0  0  0  0  0  0  0  0  0  0  0  0
   50.3064  -44.2987  -15.1228 S   0  0  2  0  0  0  0  0  0  0  0  0
   49.1668  -43.7211  -15.7635 O   0  0  0  0  0  0  0  0  0  0  0  0
   51.5785  -43.4322  -15.3855 N   0  0  0  0  0  0  0  0  0  0  0  0
   49.9841  -44.2358  -13.3465 C   0  0  0  0  0  0  0  0  0  0  0  0
   48.7373  -43.8085  -12.9199 C   0  0  0  0  0  0  0  0  0  0  0  0
   48.4846  -43.5560  -11.5698 C   0  0  0  0  0  0  0  0  0  0  0  0
   46.8305  -43.1487  -11.0732 S   0  0  2  0  0  0  0  0  0  0  0  0
   46.1963  -44.3626  -10.6109 O   0  0  0  0  0  0  0  0  0  0  0  0
   46.0078  -42.6693  -12.3583 N   0  0  0  0  0  0  0  0  0  0  0  0
   46.9147  -42.0383  -10.1592 O   0  0  0  0  0  0  0  0  0  0  0  0
   49.5257  -43.6879  -10.6168 C   0  0  0  0  0  0  0  0  0  0  0  0
   49.3672  -43.3808   -9.2879 N   0  0  0  0  0  0  0  0  0  0  0  0
   50.7605  -44.1755  -11.0765 C   0  0  0  0  0  0  0  0  0  0  0  0
   50.9909  -44.5024  -12.4154 C   0  0  0  0  0  0  0  0  0  0  0  0
   52.0894  -45.3858  -12.8600 C   0  0  0  0  0  0  0  0  0  0  0  0
   53.3298  -45.0060  -13.0962 C   0  0  0  0  0  0  0  0  0  0  0  0
   54.5989  -46.0297  -13.7106 Cl  0  0  0  0  0  0  0  0  0  0  0  0
   53.7874  -43.4075  -12.6775 Cl  0  0  0  0  0  0  0  0  0  0  0  0
   51.9933  -43.1497  -14.4860 H   0  0  0  0  0  0  0  0  0  0  0  0
   52.2641  -43.9827  -15.9219 H   0  0  0  0  0  0  0  0  0  0  0  0
   47.9330  -43.6659  -13.6567 H   0  0  0  0  0  0  0  0  0  0  0  0
   45.1570  -42.1736  -12.0560 H   0  0  0  0  0  0  0  0  0  0  0  0
   46.5916  -42.0362  -12.9232 H   0  0  0  0  0  0  0  0  0  0  0  0
   50.1560  -43.4943   -8.6354 H   0  0  0  0  0  0  0  0  0  0  0  0
   48.4594  -43.0369   -8.9435 H   0  0  0  0  0  0  0  0  0  0  0  0
   51.5791  -44.3051  -10.3533 H   0  0  0  0  0  0  0  0  0  0  0  0
  1 17  1  0
  2  3  2  0
  3  4  2  0
  3  5  1  1
  3  6  1  0
  6  7  2  0
  6 16  1  0
  7  8  1  0
  8  9  1  0
  8 13  2  0
  9 10  2  0
  9 11  1  6
  9 12  2  0
 13 14  1  0
 13 15  1  0
 15 16  2  0
 16 17  1  0
 17 18  2  3
 18 19  1  0
 18 20  1  0
  5 21  1  0
  5 22  1  0
  7 23  1  0
 11 24  1  0
 11 25  1  0
 14 26  1  0
 14 27  1  0
 15 28  1  0
M  END
>  <filename_input>  (1) 
7PRI_7TI_docked.sdf

>  <pdb_id>  (1) 
7PRI_7TI

>  <pose_rank>  (1) 
0

>  <num_atoms_heavy>  (1) 
20

>  <num_torsions>  (1) 
3

>  <pose>  (1) 
[49.98413269660473, -44.23580181625389, -13.346475254740453, 2.896695044832611, -3.5347709162699186, -4.068338151327556, -0.12131097568467436, -1.9378450696857796, -0.10265713458820555]

>  <energy>  (1) 
-868.580982703243

>  <inter_energy>  (1) 
-890.9454692892908

>  <intra_energy>  (1) 
41.246958347742726

>  <rmsd>  (1) 
1.12761

>  <sdf_rank>  (1) 
0

$$$$

     RDKit          3D

 28 28  0  0  0  0  0  0  0  0999 V2000
   51.6382  -47.2934  -12.1019 Cl  0  0  0  0  0  0  0  0  0  0  0  0
   49.2083  -44.3215  -15.6328 O   0  0  0  0  0  0  0  0  0  0  0  0
   50.4011  -44.6237  -14.8650 S   0  0  2  0  0  0  0  0  0  0  0  0
   51.5439  -43.8005  -15.1081 O   0  0  0  0  0  0  0  0  0  0  0  0
   50.7531  -46.1280  -15.0917 N   0  0  0  0  0  0  0  0  0  0  0  0
   49.9952  -44.4358  -13.1149 C   0  0  0  0  0  0  0  0  0  0  0  0
   48.7383  -43.9593  -12.7797 C   0  0  0  0  0  0  0  0  0  0  0  0
   48.4262  -43.6120  -11.4634 C   0  0  0  0  0  0  0  0  0  0  0  0
   46.7589  -43.1438  -11.0772 S   0  0  2  0  0  0  0  0  0  0  0  0
   46.0809  -44.3105  -10.5592 O   0  0  0  0  0  0  0  0  0  0  0  0
   46.0061  -42.7470  -12.4315 N   0  0  0  0  0  0  0  0  0  0  0  0
   46.8216  -41.9709  -10.2431 O   0  0  0  0  0  0  0  0  0  0  0  0
   49.4173  -43.6974  -10.4536 C   0  0  0  0  0  0  0  0  0  0  0  0
   49.2014  -43.2988   -9.1575 N   0  0  0  0  0  0  0  0  0  0  0  0
   50.6626  -44.2360  -10.8184 C   0  0  0  0  0  0  0  0  0  0  0  0
   50.9503  -44.6563  -12.1196 C   0  0  0  0  0  0  0  0  0  0  0  0
   52.0506  -45.5865  -12.4497 C   0  0  0  0  0  0  0  0  0  0  0  0
   53.2407  -45.2371  -12.8971 C   0  0  0  0  0  0  0  0  0  0  0  0
   54.5027  -46.3394  -13.3751 Cl  0  0  0  0  0  0  0  0  0  0  0  0
   53.6452  -43.5711  -12.9246 Cl  0  0  0  0  0  0  0  0  0  0  0  0
   50.8626  -46.5960  -14.1807 H   0  0  0  0  0  0  0  0  0  0  0  0
   49.9956  -46.5817  -15.6219 H   0  0  0  0  0  0  0  0  0  0  0  0
   47.9735  -43.8527  -13.5631 H   0  0  0  0  0  0  0  0  0  0  0  0
   45.1171  -42.2784  -12.2056 H   0  0  0  0  0  0  0  0  0  0  0  0
   46.6003  -42.1095  -12.9806 H   0  0  0  0  0  0  0  0  0  0  0  0
   49.9555  -43.3816   -8.4608 H   0  0  0  0  0  0  0  0  0  0  0  0
   48.2854  -42.9168   -8.8819 H   0  0  0  0  0  0  0  0  0  0  0  0
   51.4426  -44.3308  -10.0486 H   0  0  0  0  0  0  0  0  0  0  0  0
  1 17  1  0
  2  3  2  0
  3  4  2  0
  3  5  1  1
  3  6  1  0
  6  7  2  0
  6 16  1  0
  7  8  1  0
  8  9  1  0
  8 13  2  0
  9 10  2  0
  9 11  1  6
  9 12  2  0
 13 14  1  0
 13 15  1  0
 15 16  2  0
 16 17  1  0
 17 18  2  3
 18 19  1  0
 18 20  1  0
  5 21  1  0
  5 22  1  0
  7 23  1  0
 11 24  1  0
 11 25  1  0
 14 26  1  0
 14 27  1  0
 15 28  1  0
M  END
>  <filename_input>  (2) 
7PRI_7TI_docked.sdf

>  <pdb_id>  (2) 
7PRI_7TI

>  <pose_rank>  (2) 
1

>  <num_atoms_heavy>  (2) 
20

>  <num_torsions>  (2) 
3

>  <pose>  (2) 
[49.9951613542207, -44.43576637612253, -13.11488696289069, -0.14648091248556855, 0.05077983557382917, 0.0854320951430025, -0.361491855511064, 6.346994574334357, -0.09636696532333773]

>  <energy>  (2) 
-853.4930321503417

>  <inter_energy>  (2) 
-892.9782806543903

>  <intra_energy>  (2) 
50.22781124580784

>  <rmsd>  (2) 
0.816266

>  <sdf_rank>  (2) 
0

$$$$

     RDKit          3D

 28 28  0  0  0  0  0  0  0  0999 V2000
   51.3715  -47.5575  -12.0734 Cl  0  0  0  0  0  0  0  0  0  0  0  0
   51.4979  -43.4085  -14.7498 O   0  0  0  0  0  0  0  0  0  0  0  0
   50.4692  -44.4187  -14.5924 S   0  0  2  0  0  0  0  0  0  0  0  0
   50.8309  -45.7586  -14.9343 O   0  0  0  0  0  0  0  0  0  0  0  0
   49.2179  -43.9653  -15.4089 N   0  0  0  0  0  0  0  0  0  0  0  0
   49.9817  -44.4458  -12.8532 C   0  0  0  0  0  0  0  0  0  0  0  0
   48.7509  -43.9119  -12.5078 C   0  0  0  0  0  0  0  0  0  0  0  0
   48.3943  -43.7287  -11.1700 C   0  0  0  0  0  0  0  0  0  0  0  0
   46.7516  -43.1736  -10.7934 S   0  0  2  0  0  0  0  0  0  0  0  0
   45.9958  -44.3141  -10.3270 O   0  0  0  0  0  0  0  0  0  0  0  0
   46.0478  -42.6861  -12.1445 N   0  0  0  0  0  0  0  0  0  0  0  0
   46.8700  -42.0357   -9.9179 O   0  0  0  0  0  0  0  0  0  0  0  0
   49.3165  -44.0443  -10.1407 C   0  0  0  0  0  0  0  0  0  0  0  0
   49.0609  -43.8161   -8.8110 N   0  0  0  0  0  0  0  0  0  0  0  0
   50.5322  -44.6343  -10.5251 C   0  0  0  0  0  0  0  0  0  0  0  0
   50.8578  -44.8895  -11.8597 C   0  0  0  0  0  0  0  0  0  0  0  0
   51.8954  -45.8575  -12.2735 C   0  0  0  0  0  0  0  0  0  0  0  0
   53.1067  -45.5492  -12.6934 C   0  0  0  0  0  0  0  0  0  0  0  0
   54.2947  -46.6861  -13.2699 Cl  0  0  0  0  0  0  0  0  0  0  0  0
   53.6195  -43.9171  -12.5778 Cl  0  0  0  0  0  0  0  0  0  0  0  0
   48.4654  -43.6926  -14.7607 H   0  0  0  0  0  0  0  0  0  0  0  0
   49.4680  -43.1614  -16.0023 H   0  0  0  0  0  0  0  0  0  0  0  0
   48.0429  -43.6276  -13.3002 H   0  0  0  0  0  0  0  0  0  0  0  0
   45.2225  -42.1144  -11.9147 H   0  0  0  0  0  0  0  0  0  0  0  0
   46.7128  -42.1237  -12.6944 H   0  0  0  0  0  0  0  0  0  0  0  0
   49.7651  -44.0638   -8.1013 H   0  0  0  0  0  0  0  0  0  0  0  0
   48.1650  -43.3973   -8.5233 H   0  0  0  0  0  0  0  0  0  0  0  0
   51.2571  -44.9063   -9.7437 H   0  0  0  0  0  0  0  0  0  0  0  0
  1 17  1  0
  2  3  2  0
  3  4  2  0
  3  5  1  6
  3  6  1  0
  6  7  2  0
  6 16  1  0
  7  8  1  0
  8  9  1  0
  8 13  2  0
  9 10  2  0
  9 11  1  6
  9 12  2  0
 13 14  1  0
 13 15  1  0
 15 16  2  0
 16 17  1  0
 17 18  2  3
 18 19  1  0
 18 20  1  0
  5 21  1  0
  5 22  1  0
  7 23  1  0
 11 24  1  0
 11 25  1  0
 14 26  1  0
 14 27  1  0
 15 28  1  0
M  END
>  <filename_input>  (3) 
7PRI_7TI_docked.sdf

>  <pdb_id>  (3) 
7PRI_7TI

>  <pose_rank>  (3) 
2

>  <num_atoms_heavy>  (3) 
20

>  <num_torsions>  (3) 
3

>  <pose>  (3) 
[49.9816872684144, -44.445830420220226, -12.853231219265995, 6.100672793809471, -0.984785653539337, 1.126873808555511, -0.44158553831071234, 2.015862868169893, 0.021893870789728917]

>  <energy>  (3) 
-777.599528325857

>  <inter_energy>  (3) 
-807.7705960680667

>  <intra_energy>  (3) 
41.11880224626758

>  <rmsd>  (3) 
1.15147

>  <sdf_rank>  (3) 
0

$$$$

     RDKit          3D

 28 28  0  0  0  0  0  0  0  0999 V2000
   53.4810  -44.4492  -13.3806 Cl  0  0  0  0  0  0  0  0  0  0  0  0
   49.1421  -44.1326  -15.7500 O   0  0  0  0  0  0  0  0  0  0  0  0
   50.3607  -44.4274  -15.0208 S   0  0  2  0  0  0  0  0  0  0  0  0
   51.4753  -43.5661  -15.2627 O   0  0  0  0  0  0  0  0  0  0  0  0
   50.7465  -45.9134  -15.3058 N   0  0  0  0  0  0  0  0  0  0  0  0
   49.9924  -44.3081  -13.2563 C   0  0  0  0  0  0  0  0  0  0  0  0
   48.7228  -43.9044  -12.8762 C   0  0  0  0  0  0  0  0  0  0  0  0
   48.4290  -43.6094  -11.5432 C   0  0  0  0  0  0  0  0  0  0  0  0
   46.7514  -43.2358  -11.1020 S   0  0  2  0  0  0  0  0  0  0  0  0
   46.0952  -44.4792  -10.7666 O   0  0  0  0  0  0  0  0  0  0  0  0
   45.9951  -42.6573  -12.3872 N   0  0  0  0  0  0  0  0  0  0  0  0
   46.7880  -42.1984  -10.1031 O   0  0  0  0  0  0  0  0  0  0  0  0
   49.4494  -43.6729  -10.5613 C   0  0  0  0  0  0  0  0  0  0  0  0
   49.2485  -43.3213   -9.2492 N   0  0  0  0  0  0  0  0  0  0  0  0
   50.7096  -44.1385  -10.9725 C   0  0  0  0  0  0  0  0  0  0  0  0
   50.9831  -44.5080  -12.2921 C   0  0  0  0  0  0  0  0  0  0  0  0
   52.1187  -45.3726  -12.6762 C   0  0  0  0  0  0  0  0  0  0  0  0
   52.1460  -46.6876  -12.5831 C   0  0  0  0  0  0  0  0  0  0  0  0
   53.5190  -47.6968  -12.9472 Cl  0  0  0  0  0  0  0  0  0  0  0  0
   50.6969  -47.5066  -12.1718 Cl  0  0  0  0  0  0  0  0  0  0  0  0
   50.8759  -46.4116  -14.4136 H   0  0  0  0  0  0  0  0  0  0  0  0
   49.9951  -46.3657  -15.8458 H   0  0  0  0  0  0  0  0  0  0  0  0
   47.9333  -43.8146  -13.6369 H   0  0  0  0  0  0  0  0  0  0  0  0
   45.2130  -42.0590  -12.0850 H   0  0  0  0  0  0  0  0  0  0  0  0
   46.6536  -42.1021  -12.9521 H   0  0  0  0  0  0  0  0  0  0  0  0
   50.0239  -43.3855   -8.5743 H   0  0  0  0  0  0  0  0  0  0  0  0
   48.3224  -42.9933   -8.9400 H   0  0  0  0  0  0  0  0  0  0  0  0
   51.5134  -44.2153  -10.2255 H   0  0  0  0  0  0  0  0  0  0  0  0
  1 17  1  0
  2  3  2  0
  3  4  2  0
  3  5  1  1
  3  6  1  0
  6  7  2  0
  6 16  1  0
  7  8  1  0
  8  9  1  0
  8 13  2  0
  9 10  2  0
  9 11  1  6
  9 12  2  0
 13 14  1  0
 13 15  1  0
 15 16  2  0
 16 17  1  0
 17 18  2  3
 18 19  1  0
 18 20  1  0
  5 21  1  0
  5 22  1  0
  7 23  1  0
 11 24  1  0
 11 25  1  0
 14 26  1  0
 14 27  1  0
 15 28  1  0
M  END
>  <filename_input>  (4) 
7PRI_7TI_docked.sdf

>  <pdb_id>  (4) 
7PRI_7TI

>  <pose_rank>  (4) 
3

>  <num_atoms_heavy>  (4) 
20

>  <num_torsions>  (4) 
3

>  <pose>  (4) 
[49.992356020752474, -44.30813261096429, -13.256349712792682, 3.698543909049837, -2.2340694257250564, -4.288803122589666, -9.810836117704993, -6.195854538778934, -0.22418806452543424]

>  <energy>  (4) 
-846.3210368287815

>  <inter_energy>  (4) 
-859.5759609221441

>  <intra_energy>  (4) 
56.959343249100506

>  <rmsd>  (4) 
1.57911

>  <sdf_rank>  (4) 
0

$$$$

     RDKit          3D

 28 28  0  0  0  0  0  0  0  0999 V2000
   51.6495  -47.7395  -12.0459 Cl  0  0  0  0  0  0  0  0  0  0  0  0
   51.1554  -46.0570  -14.6826 O   0  0  0  0  0  0  0  0  0  0  0  0
   50.5968  -44.7554  -14.3703 S   0  0  2  0  0  0  0  0  0  0  0  0
   49.4167  -44.3781  -15.0827 O   0  0  0  0  0  0  0  0  0  0  0  0
   51.7192  -43.6881  -14.5680 N   0  0  0  0  0  0  0  0  0  0  0  0
   50.1638  -44.7454  -12.6165 C   0  0  0  0  0  0  0  0  0  0  0  0
   48.9158  -44.2680  -12.2509 C   0  0  0  0  0  0  0  0  0  0  0  0
   48.5896  -44.0557  -10.9096 C   0  0  0  0  0  0  0  0  0  0  0  0
   46.9301  -43.5788  -10.5006 S   0  0  2  0  0  0  0  0  0  0  0  0
   46.7377  -42.2186  -10.9502 O   0  0  0  0  0  0  0  0  0  0  0  0
   46.7761  -43.5553   -8.9087 N   0  0  0  0  0  0  0  0  0  0  0  0
   46.0487  -44.5942  -11.0178 O   0  0  0  0  0  0  0  0  0  0  0  0
   49.5584  -44.2818   -9.8999 C   0  0  0  0  0  0  0  0  0  0  0  0
   49.3303  -44.0193   -8.5715 N   0  0  0  0  0  0  0  0  0  0  0  0
   50.7935  -44.8174  -10.3019 C   0  0  0  0  0  0  0  0  0  0  0  0
   51.0929  -45.1032  -11.6366 C   0  0  0  0  0  0  0  0  0  0  0  0
   52.1706  -46.0269  -12.0490 C   0  0  0  0  0  0  0  0  0  0  0  0
   53.4088  -45.6785  -12.3388 C   0  0  0  0  0  0  0  0  0  0  0  0
   54.6513  -46.7553  -12.9157 Cl  0  0  0  0  0  0  0  0  0  0  0  0
   53.8938  -44.0620  -12.0356 Cl  0  0  0  0  0  0  0  0  0  0  0  0
   52.0552  -43.3687  -13.6482 H   0  0  0  0  0  0  0  0  0  0  0  0
   52.5010  -44.1052  -15.0931 H   0  0  0  0  0  0  0  0  0  0  0  0
   48.1695  -44.0526  -13.0298 H   0  0  0  0  0  0  0  0  0  0  0  0
   47.6985  -43.6960   -8.4724 H   0  0  0  0  0  0  0  0  0  0  0  0
   46.3922  -42.6460   -8.6143 H   0  0  0  0  0  0  0  0  0  0  0  0
   50.0682  -44.2014   -7.8764 H   0  0  0  0  0  0  0  0  0  0  0  0
   48.4211  -43.6403   -8.2702 H   0  0  0  0  0  0  0  0  0  0  0  0
   51.5556  -45.0200   -9.5351 H   0  0  0  0  0  0  0  0  0  0  0  0
  1 17  1  0
  2  3  2  0
  3  4  2  0
  3  5  1  1
  3  6  1  0
  6  7  2  0
  6 16  1  0
  7  8  1  0
  8  9  1  0
  8 13  2  0
  9 10  2  0
  9 11  1  1
  9 12  2  0
 13 14  1  0
 13 15  1  0
 15 16  2  0
 16 17  1  0
 17 18  2  3
 18 19  1  0
 18 20  1  0
  5 21  1  0
  5 22  1  0
  7 23  1  0
 11 24  1  0
 11 25  1  0
 14 26  1  0
 14 27  1  0
 15 28  1  0
M  END
>  <filename_input>  (5) 
7PRI_7TI_docked.sdf

>  <pdb_id>  (5) 
7PRI_7TI

>  <pose_rank>  (5) 
4

>  <num_atoms_heavy>  (5) 
20

>  <num_torsions>  (5) 
3

>  <pose>  (5) 
[50.16380001287422, -44.74542752458279, -12.616530984738997, -0.037552472044240275, 0.03113776069423181, 0.05560129240657058, 12.301042024574516, -2.164705626151013, 3.2625991030487502]

>  <energy>  (5) 
-681.189445631767

>  <inter_energy>  (5) 
-737.0700833476228

>  <intra_energy>  (5) 
62.15526552529396

>  <rmsd>  (5) 
1.40094

>  <sdf_rank>  (5) 
0

$$$$

     RDKit          3D

 28 28  0  0  0  0  0  0  0  0999 V2000
   53.6423  -44.5763  -12.7152 Cl  0  0  0  0  0  0  0  0  0  0  0  0
   51.8049  -43.5258  -14.8574 O   0  0  0  0  0  0  0  0  0  0  0  0
   50.6775  -44.4213  -14.6823 S   0  0  2  0  0  0  0  0  0  0  0  0
   50.9117  -45.8051  -14.9523 O   0  0  0  0  0  0  0  0  0  0  0  0
   49.4965  -43.8870  -15.5528 N   0  0  0  0  0  0  0  0  0  0  0  0
   50.1500  -44.3162  -12.9578 C   0  0  0  0  0  0  0  0  0  0  0  0
   48.8650  -43.8733  -12.6898 C   0  0  0  0  0  0  0  0  0  0  0  0
   48.4579  -43.5887  -11.3846 C   0  0  0  0  0  0  0  0  0  0  0  0
   46.7601  -43.1623  -11.0944 S   0  0  2  0  0  0  0  0  0  0  0  0
   46.0762  -44.3532  -10.6435 O   0  0  0  0  0  0  0  0  0  0  0  0
   46.0849  -42.7517  -12.4850 N   0  0  0  0  0  0  0  0  0  0  0  0
   46.7457  -42.0065  -10.2345 O   0  0  0  0  0  0  0  0  0  0  0  0
   49.3793  -43.7037  -10.3135 C   0  0  0  0  0  0  0  0  0  0  0  0
   49.0686  -43.3654   -9.0194 N   0  0  0  0  0  0  0  0  0  0  0  0
   50.6558  -44.2075  -10.6144 C   0  0  0  0  0  0  0  0  0  0  0  0
   51.0388  -44.5662  -11.9095 C   0  0  0  0  0  0  0  0  0  0  0  0
   52.1753  -45.4647  -12.2025 C   0  0  0  0  0  0  0  0  0  0  0  0
   52.1405  -46.7822  -12.1612 C   0  0  0  0  0  0  0  0  0  0  0  0
   53.5048  -47.8361  -12.4144 Cl  0  0  0  0  0  0  0  0  0  0  0  0
   50.6237  -47.5519  -11.9448 Cl  0  0  0  0  0  0  0  0  0  0  0  0
   48.7435  -43.5463  -14.9381 H   0  0  0  0  0  0  0  0  0  0  0  0
   49.8301  -43.1149  -16.1473 H   0  0  0  0  0  0  0  0  0  0  0  0
   48.1536  -43.7437  -13.5188 H   0  0  0  0  0  0  0  0  0  0  0  0
   45.2186  -42.2249  -12.3037 H   0  0  0  0  0  0  0  0  0  0  0  0
   46.7376  -42.1643  -13.0234 H   0  0  0  0  0  0  0  0  0  0  0  0
   49.7748  -43.4677   -8.2766 H   0  0  0  0  0  0  0  0  0  0  0  0
   48.1293  -43.0094   -8.7915 H   0  0  0  0  0  0  0  0  0  0  0  0
   51.3831  -44.3245   -9.7975 H   0  0  0  0  0  0  0  0  0  0  0  0
  1 17  1  0
  2  3  2  0
  3  4  2  0
  3  5  1  6
  3  6  1  0
  6  7  2  0
  6 16  1  0
  7  8  1  0
  8  9  1  0
  8 13  2  0
  9 10  2  0
  9 11  1  6
  9 12  2  0
 13 14  1  0
 13 15  1  0
 15 16  2  0
 16 17  1  0
 17 18  2  3
 18 19  1  0
 18 20  1  0
  5 21  1  0
  5 22  1  0
  7 23  1  0
 11 24  1  0
 11 25  1  0
 14 26  1  0
 14 27  1  0
 15 28  1  0
M  END
>  <filename_input>  (6) 
7PRI_7TI_docked.sdf

>  <pdb_id>  (6) 
7PRI_7TI

>  <pose_rank>  (6) 
5

>  <num_atoms_heavy>  (6) 
20

>  <num_torsions>  (6) 
3

>  <pose>  (6) 
[50.15000186006483, -44.31618085939006, -12.957782280455937, 4.480376747650387, 0.8689918921432562, -4.103453387368227, 2.783978090285731, 2.2210762661061016, -0.07261731703939897]

>  <energy>  (6) 
-824.5113797829478

>  <inter_energy>  (6) 
-842.0270956480442

>  <intra_energy>  (6) 
37.64694657381158

>  <rmsd>  (6) 
1.79825

>  <sdf_rank>  (6) 
0

$$$$

     RDKit          3D

 28 28  0  0  0  0  0  0  0  0999 V2000
   51.4578  -47.2653  -12.6611 Cl  0  0  0  0  0  0  0  0  0  0  0  0
   49.0984  -44.0934  -15.7373 O   0  0  0  0  0  0  0  0  0  0  0  0
   50.3246  -44.3998  -15.0258 S   0  0  2  0  0  0  0  0  0  0  0  0
   51.4391  -43.5397  -15.2721 O   0  0  0  0  0  0  0  0  0  0  0  0
   50.7019  -45.8840  -15.3306 N   0  0  0  0  0  0  0  0  0  0  0  0
   49.9777  -44.2975  -13.2559 C   0  0  0  0  0  0  0  0  0  0  0  0
   48.7510  -43.7938  -12.8551 C   0  0  0  0  0  0  0  0  0  0  0  0
   48.4915  -43.5112  -11.5123 C   0  0  0  0  0  0  0  0  0  0  0  0
   46.8560  -43.0030  -11.0481 S   0  0  2  0  0  0  0  0  0  0  0  0
   46.9771  -41.8179  -10.2294 O   0  0  0  0  0  0  0  0  0  0  0  0
   46.2081  -44.1313  -10.1179 N   0  0  0  0  0  0  0  0  0  0  0  0
   46.0721  -42.9161  -12.2536 O   0  0  0  0  0  0  0  0  0  0  0  0
   49.5075  -43.6919  -10.5404 C   0  0  0  0  0  0  0  0  0  0  0  0
   49.3456  -43.3605   -9.2178 N   0  0  0  0  0  0  0  0  0  0  0  0
   50.7192  -44.2556  -10.9740 C   0  0  0  0  0  0  0  0  0  0  0  0
   50.9519  -44.6110  -12.3051 C   0  0  0  0  0  0  0  0  0  0  0  0
   52.0044  -45.5617  -12.7215 C   0  0  0  0  0  0  0  0  0  0  0  0
   53.2397  -45.2403  -13.0520 C   0  0  0  0  0  0  0  0  0  0  0  0
   54.4502  -46.3508  -13.6331 Cl  0  0  0  0  0  0  0  0  0  0  0  0
   53.7568  -43.6246  -12.8030 Cl  0  0  0  0  0  0  0  0  0  0  0  0
   50.8316  -46.3941  -14.4452 H   0  0  0  0  0  0  0  0  0  0  0  0
   49.9464  -46.3257  -15.8738 H   0  0  0  0  0  0  0  0  0  0  0  0
   47.9685  -43.6134  -13.6069 H   0  0  0  0  0  0  0  0  0  0  0  0
   46.3502  -43.8838   -9.1283 H   0  0  0  0  0  0  0  0  0  0  0  0
   45.1991  -44.1996  -10.3133 H   0  0  0  0  0  0  0  0  0  0  0  0
   50.1158  -43.5119   -8.5509 H   0  0  0  0  0  0  0  0  0  0  0  0
   48.4538  -42.9606   -8.8925 H   0  0  0  0  0  0  0  0  0  0  0  0
   51.5170  -44.4239  -10.2356 H   0  0  0  0  0  0  0  0  0  0  0  0
  1 17  1  0
  2  3  2  0
  3  4  2  0
  3  5  1  1
  3  6  1  0
  6  7  2  0
  6 16  1  0
  7  8  1  0
  8  9  1  0
  8 13  2  0
  9 10  2  0
  9 11  1  1
  9 12  2  0
 13 14  1  0
 13 15  1  0
 15 16  2  0
 16 17  1  0
 17 18  2  3
 18 19  1  0
 18 20  1  0
  5 21  1  0
  5 22  1  0
  7 23  1  0
 11 24  1  0
 11 25  1  0
 14 26  1  0
 14 27  1  0
 15 28  1  0
M  END
>  <filename_input>  (7) 
7PRI_7TI_docked.sdf

>  <pdb_id>  (7) 
7PRI_7TI

>  <pose_rank>  (7) 
6

>  <num_atoms_heavy>  (7) 
20

>  <num_torsions>  (7) 
3

>  <pose>  (7) 
[49.97766737946244, -44.297534254126, -13.255917521662836, 4.147857530259368, -3.8665262224949015, -2.3902711838272093, -0.22957674128527605, 0.00012575268855140575, -4.067815792493183]

>  <energy>  (7) 
-821.0584630041335

>  <inter_energy>  (7) 
-839.5498921819113

>  <intra_energy>  (7) 
43.88174742202406

>  <rmsd>  (7) 
1.10624

>  <sdf_rank>  (7) 
0

$$$$

     RDKit          3D

 28 28  0  0  0  0  0  0  0  0999 V2000
   51.7818  -47.4387  -12.5128 Cl  0  0  0  0  0  0  0  0  0  0  0  0
   51.0415  -43.5392  -15.1893 O   0  0  0  0  0  0  0  0  0  0  0  0
   50.2754  -44.7068  -14.7975 S   0  0  2  0  0  0  0  0  0  0  0  0
   50.8684  -45.9798  -15.0634 O   0  0  0  0  0  0  0  0  0  0  0  0
   48.8686  -44.6086  -15.4677 N   0  0  0  0  0  0  0  0  0  0  0  0
   50.0149  -44.6241  -13.0118 C   0  0  0  0  0  0  0  0  0  0  0  0
   48.7702  -44.2319  -12.5472 C   0  0  0  0  0  0  0  0  0  0  0  0
   48.5574  -43.9647  -11.1930 C   0  0  0  0  0  0  0  0  0  0  0  0
   46.9091  -43.6050  -10.6432 S   0  0  2  0  0  0  0  0  0  0  0  0
   46.8907  -42.2414  -10.1642 O   0  0  0  0  0  0  0  0  0  0  0  0
   46.5699  -44.5316   -9.3844 N   0  0  0  0  0  0  0  0  0  0  0  0
   46.0102  -43.9597  -11.7117 O   0  0  0  0  0  0  0  0  0  0  0  0
   49.6358  -44.0448  -10.2765 C   0  0  0  0  0  0  0  0  0  0  0  0
   49.5145  -43.7203   -8.9478 N   0  0  0  0  0  0  0  0  0  0  0  0
   50.8694  -44.4982  -10.7729 C   0  0  0  0  0  0  0  0  0  0  0  0
   51.0629  -44.8403  -12.1138 C   0  0  0  0  0  0  0  0  0  0  0  0
   52.1746  -45.6936  -12.5837 C   0  0  0  0  0  0  0  0  0  0  0  0
   53.3612  -45.2641  -12.9658 C   0  0  0  0  0  0  0  0  0  0  0  0
   54.6368  -46.2621  -13.6085 Cl  0  0  0  0  0  0  0  0  0  0  0  0
   53.7461  -43.6104  -12.7269 Cl  0  0  0  0  0  0  0  0  0  0  0  0
   48.1434  -44.5580  -14.7380 H   0  0  0  0  0  0  0  0  0  0  0  0
   48.8257  -43.7626  -16.0536 H   0  0  0  0  0  0  0  0  0  0  0  0
   47.9357  -44.1293  -13.2564 H   0  0  0  0  0  0  0  0  0  0  0  0
   46.7598  -44.0127   -8.5151 H   0  0  0  0  0  0  0  0  0  0  0  0
   45.5760  -44.8002   -9.4137 H   0  0  0  0  0  0  0  0  0  0  0  0
   50.3296  -43.7957   -8.3227 H   0  0  0  0  0  0  0  0  0  0  0  0
   48.6083  -43.4014   -8.5762 H   0  0  0  0  0  0  0  0  0  0  0  0
   51.7173  -44.5876  -10.0778 H   0  0  0  0  0  0  0  0  0  0  0  0
  1 17  1  0
  2  3  2  0
  3  4  2  0
  3  5  1  6
  3  6  1  0
  6  7  2  0
  6 16  1  0
  7  8  1  0
  8  9  1  0
  8 13  2  0
  9 10  2  0
  9 11  1  1
  9 12  2  0
 13 14  1  0
 13 15  1  0
 15 16  2  0
 16 17  1  0
 17 18  2  3
 18 19  1  0
 18 20  1  0
  5 21  1  0
  5 22  1  0
  7 23  1  0
 11 24  1  0
 11 25  1  0
 14 26  1  0
 14 27  1  0
 15 28  1  0
M  END
>  <filename_input>  (8) 
7PRI_7TI_docked.sdf

>  <pdb_id>  (8) 
7PRI_7TI

>  <pose_rank>  (8) 
7

>  <num_atoms_heavy>  (8) 
20

>  <num_torsions>  (8) 
3

>  <pose>  (8) 
[50.01492199569777, -44.62409834272073, -13.011845941419262, 2.6454626707119315, -3.6674367139573474, -4.044589774247872, 12.351379158803253, -4.330797786057721, 8.772905936868735]

>  <energy>  (8) 
-718.4523665945322

>  <inter_energy>  (8) 
-757.2672071645309

>  <intra_energy>  (8) 
38.25926462443361

>  <rmsd>  (8) 
1.36443

>  <sdf_rank>  (8) 
0

$$$$

     RDKit          3D

 28 28  0  0  0  0  0  0  0  0999 V2000
   53.3668  -44.3934  -13.2199 Cl  0  0  0  0  0  0  0  0  0  0  0  0
   48.6950  -44.1292  -15.2931 O   0  0  0  0  0  0  0  0  0  0  0  0
   50.0061  -44.3543  -14.7153 S   0  0  2  0  0  0  0  0  0  0  0  0
   51.0006  -43.3625  -14.9799 O   0  0  0  0  0  0  0  0  0  0  0  0
   50.5017  -45.7615  -15.1759 N   0  0  0  0  0  0  0  0  0  0  0  0
   49.8153  -44.4248  -12.9204 C   0  0  0  0  0  0  0  0  0  0  0  0
   48.5772  -44.1192  -12.3790 C   0  0  0  0  0  0  0  0  0  0  0  0
   48.4101  -43.9695  -11.0006 C   0  0  0  0  0  0  0  0  0  0  0  0
   46.7737  -43.7187  -10.3620 S   0  0  2  0  0  0  0  0  0  0  0  0
   46.3337  -42.4059  -10.7773 O   0  0  0  0  0  0  0  0  0  0  0  0
   46.8407  -43.6892   -8.7643 N   0  0  0  0  0  0  0  0  0  0  0  0
   45.9785  -44.8546  -10.7530 O   0  0  0  0  0  0  0  0  0  0  0  0
   49.5269  -44.0811  -10.1347 C   0  0  0  0  0  0  0  0  0  0  0  0
   49.4479  -43.8687   -8.7804 N   0  0  0  0  0  0  0  0  0  0  0  0
   50.7546  -44.4456  -10.7122 C   0  0  0  0  0  0  0  0  0  0  0  0
   50.9057  -44.6716  -12.0828 C   0  0  0  0  0  0  0  0  0  0  0  0
   52.0269  -45.4412  -12.6619 C   0  0  0  0  0  0  0  0  0  0  0  0
   52.0553  -46.7495  -12.8234 C   0  0  0  0  0  0  0  0  0  0  0  0
   53.4142  -47.6636  -13.4183 Cl  0  0  0  0  0  0  0  0  0  0  0  0
   50.6191  -47.6391  -12.5302 Cl  0  0  0  0  0  0  0  0  0  0  0  0
   50.7059  -46.3412  -14.3493 H   0  0  0  0  0  0  0  0  0  0  0  0
   49.7699  -46.2153  -15.7412 H   0  0  0  0  0  0  0  0  0  0  0  0
   47.7116  -43.9924  -13.0459 H   0  0  0  0  0  0  0  0  0  0  0  0
   45.9673  -44.0737   -8.3768 H   0  0  0  0  0  0  0  0  0  0  0  0
   47.6379  -44.2572   -8.4435 H   0  0  0  0  0  0  0  0  0  0  0  0
   50.2898  -43.9625   -8.1944 H   0  0  0  0  0  0  0  0  0  0  0  0
   48.5468  -43.6157   -8.3504 H   0  0  0  0  0  0  0  0  0  0  0  0
   51.6326  -44.5575  -10.0590 H   0  0  0  0  0  0  0  0  0  0  0  0
  1 17  1  0
  2  3  2  0
  3  4  2  0
  3  5  1  6
  3  6  1  0
  6  7  2  0
  6 16  1  0
  7  8  1  0
  8  9  1  0
  8 13  2  0
  9 10  2  0
  9 11  1  1
  9 12  2  0
 13 14  1  0
 13 15  1  0
 15 16  2  0
 16 17  1  0
 17 18  2  3
 18 19  1  0
 18 20  1  0
  5 21  1  0
  5 22  1  0
  7 23  1  0
 11 24  1  0
 11 25  1  0
 14 26  1  0
 14 27  1  0
 15 28  1  0
M  END
>  <filename_input>  (9) 
7PRI_7TI_docked.sdf

>  <pdb_id>  (9) 
7PRI_7TI

>  <pose_rank>  (9) 
8

>  <num_atoms_heavy>  (9) 
20

>  <num_torsions>  (9) 
3

>  <pose>  (9) 
[49.81527065977889, -44.42477866687848, -12.920406986260693, 0.32416415615738847, -3.932160044171377, -4.566141103254398, 2.876971979519724, 0.02635981024047144, 3.294654470916489]

>  <energy>  (9) 
-668.0388173711593

>  <inter_energy>  (9) 
-769.4747747129363

>  <intra_energy>  (9) 
77.9884139132191

>  <rmsd>  (9) 
1.90917

>  <sdf_rank>  (9) 
0

$$$$

     RDKit          3D

 28 28  0  0  0  0  0  0  0  0999 V2000
   51.2907  -47.6017  -11.6885 Cl  0  0  0  0  0  0  0  0  0  0  0  0
   49.5628  -44.5933  -15.3991 O   0  0  0  0  0  0  0  0  0  0  0  0
   50.6770  -44.8983  -14.5222 S   0  0  2  0  0  0  0  0  0  0  0  0
   51.8699  -44.1349  -14.7144 O   0  0  0  0  0  0  0  0  0  0  0  0
   50.9806  -46.4254  -14.6402 N   0  0  0  0  0  0  0  0  0  0  0  0
   50.1425  -44.5975  -12.8230 C   0  0  0  0  0  0  0  0  0  0  0  0
   48.9299  -43.9593  -12.6192 C   0  0  0  0  0  0  0  0  0  0  0  0
   48.5470  -43.5280  -11.3473 C   0  0  0  0  0  0  0  0  0  0  0  0
   46.9232  -42.8460  -11.1309 S   0  0  2  0  0  0  0  0  0  0  0  0
   46.4229  -42.4735  -12.4349 O   0  0  0  0  0  0  0  0  0  0  0  0
   47.0390  -41.4923  -10.2869 N   0  0  0  0  0  0  0  0  0  0  0  0
   46.1581  -43.7892  -10.3560 O   0  0  0  0  0  0  0  0  0  0  0  0
   49.4252  -43.6960  -10.2473 C   0  0  0  0  0  0  0  0  0  0  0  0
   49.1454  -43.2263   -8.9877 N   0  0  0  0  0  0  0  0  0  0  0  0
   50.6211  -44.3956  -10.4801 C   0  0  0  0  0  0  0  0  0  0  0  0
   50.9696  -44.8958  -11.7375 C   0  0  0  0  0  0  0  0  0  0  0  0
   51.9703  -45.9647  -11.9392 C   0  0  0  0  0  0  0  0  0  0  0  0
   53.2458  -45.7775  -12.2160 C   0  0  0  0  0  0  0  0  0  0  0  0
   54.4023  -47.0382  -12.5466 Cl  0  0  0  0  0  0  0  0  0  0  0  0
   53.8690  -44.1814  -12.1513 Cl  0  0  0  0  0  0  0  0  0  0  0  0
   51.0617  -46.8332  -13.6979 H   0  0  0  0  0  0  0  0  0  0  0  0
   50.2154  -46.8891  -15.1503 H   0  0  0  0  0  0  0  0  0  0  0  0
   48.2577  -43.7894  -13.4732 H   0  0  0  0  0  0  0  0  0  0  0  0
   47.0202  -41.7122   -9.2808 H   0  0  0  0  0  0  0  0  0  0  0  0
   47.9236  -41.0181  -10.5182 H   0  0  0  0  0  0  0  0  0  0  0  0
   49.8178  -43.3746   -8.2217 H   0  0  0  0  0  0  0  0  0  0  0  0
   48.2632  -42.7256   -8.8090 H   0  0  0  0  0  0  0  0  0  0  0  0
   51.3110  -44.5561   -9.6386 H   0  0  0  0  0  0  0  0  0  0  0  0
  1 17  1  0
  2  3  2  0
  3  4  2  0
  3  5  1  1
  3  6  1  0
  6  7  2  0
  6 16  1  0
  7  8  1  0
  8  9  1  0
  8 13  2  0
  9 10  2  0
  9 11  1  1
  9 12  2  0
 13 14  1  0
 13 15  1  0
 15 16  2  0
 16 17  1  0
 17 18  2  3
 18 19  1  0
 18 20  1  0
  5 21  1  0
  5 22  1  0
  7 23  1  0
 11 24  1  0
 11 25  1  0
 14 26  1  0
 14 27  1  0
 15 28  1  0
M  END
>  <filename_input>  (10) 
7PRI_7TI_docked.sdf

>  <pdb_id>  (10) 
7PRI_7TI

>  <pose_rank>  (10) 
9

>  <num_atoms_heavy>  (10) 
20

>  <num_torsions>  (10) 
3

>  <pose>  (10) 
[50.14250026311897, -44.597507955342714, -12.823040942870213, 5.8251911401269485, 0.9996797922912778, 1.4955686880336871, -0.2980251842837275, -0.022797670936642755, 4.188124588174172]

>  <energy>  (10) 
-653.8517438724132

>  <inter_energy>  (10) 
-709.6844438600826

>  <intra_energy>  (10) 
47.91780892023258

>  <rmsd>  (10) 
1.16523

>  <sdf_rank>  (10) 
0

$$$$

     RDKit          3D

 28 28  0  0  0  0  0  0  0  0999 V2000
   53.5940  -44.5272  -12.8497 Cl  0  0  0  0  0  0  0  0  0  0  0  0
   51.1399  -45.7035  -14.9706 O   0  0  0  0  0  0  0  0  0  0  0  0
   50.6304  -44.3654  -14.7393 S   0  0  2  0  0  0  0  0  0  0  0  0
   49.5039  -43.9656  -15.5228 O   0  0  0  0  0  0  0  0  0  0  0  0
   51.8105  -43.3602  -14.9261 N   0  0  0  0  0  0  0  0  0  0  0  0
   50.1174  -44.2597  -13.0104 C   0  0  0  0  0  0  0  0  0  0  0  0
   48.8351  -43.8157  -12.7318 C   0  0  0  0  0  0  0  0  0  0  0  0
   48.4392  -43.5306  -11.4232 C   0  0  0  0  0  0  0  0  0  0  0  0
   46.7443  -43.1026  -11.1189 S   0  0  2  0  0  0  0  0  0  0  0  0
   46.7277  -42.0043  -10.1793 O   0  0  0  0  0  0  0  0  0  0  0  0
   46.0230  -44.3312  -10.3917 N   0  0  0  0  0  0  0  0  0  0  0  0
   46.1110  -42.9090  -12.3983 O   0  0  0  0  0  0  0  0  0  0  0  0
   49.3694  -43.6464  -10.3598 C   0  0  0  0  0  0  0  0  0  0  0  0
   49.0698  -43.3078   -9.0632 N   0  0  0  0  0  0  0  0  0  0  0  0
   50.6428  -44.1514  -10.6714 C   0  0  0  0  0  0  0  0  0  0  0  0
   51.0148  -44.5105  -11.9696 C   0  0  0  0  0  0  0  0  0  0  0  0
   52.1479  -45.4101  -12.2720 C   0  0  0  0  0  0  0  0  0  0  0  0
   52.1225  -46.7262  -12.1957 C   0  0  0  0  0  0  0  0  0  0  0  0
   53.4855  -47.7788  -12.4609 Cl  0  0  0  0  0  0  0  0  0  0  0  0
   50.6174  -47.4983  -11.9158 Cl  0  0  0  0  0  0  0  0  0  0  0  0
   52.1584  -43.0638  -14.0031 H   0  0  0  0  0  0  0  0  0  0  0  0
   52.5711  -43.8170  -15.4493 H   0  0  0  0  0  0  0  0  0  0  0  0
   48.1169  -43.6855  -13.5548 H   0  0  0  0  0  0  0  0  0  0  0  0
   46.0917  -44.2141   -9.3707 H   0  0  0  0  0  0  0  0  0  0  0  0
   45.0312  -44.3595  -10.6681 H   0  0  0  0  0  0  0  0  0  0  0  0
   49.7821  -43.4107   -8.3264 H   0  0  0  0  0  0  0  0  0  0  0  0
   48.1328  -42.9509   -8.8275 H   0  0  0  0  0  0  0  0  0  0  0  0
   51.3768  -44.2690   -9.8606 H   0  0  0  0  0  0  0  0  0  0  0  0
  1 17  1  0
  2  3  2  0
  3  4  2  0
  3  5  1  1
  3  6  1  0
  6  7  2  0
  6 16  1  0
  7  8  1  0
  8  9  1  0
  8 13  2  0
  9 10  2  0
  9 11  1  1
  9 12  2  0
 13 14  1  0
 13 15  1  0
 15 16  2  0
 16 17  1  0
 17 18  2  3
 18 19  1  0
 18 20  1  0
  5 21  1  0
  5 22  1  0
  7 23  1  0
 11 24  1  0
 11 25  1  0
 14 26  1  0
 14 27  1  0
 15 28  1  0
M  END
>  <filename_input>  (11) 
7PRI_7TI_docked.sdf

>  <pdb_id>  (11) 
7PRI_7TI

>  <pose_rank>  (11) 
10

>  <num_atoms_heavy>  (11) 
20

>  <num_torsions>  (11) 
3

>  <pose>  (11) 
[50.117423976725185, -44.2597425459496, -13.010434736129609, 4.514016703263264, 0.5212292057367052, -4.127675049878168, 2.7503299275106463, -2.071225156989738, 2.0935724307765646]

>  <energy>  (11) 
-775.1136436961096

>  <inter_energy>  (11) 
-801.5210346497773

>  <intra_energy>  (11) 
53.18262063752838

>  <rmsd>  (11) 
1.95836

>  <sdf_rank>  (11) 
0

$$$$

     RDKit          3D

 28 28  0  0  0  0  0  0  0  0999 V2000
   53.8347  -44.8924  -13.0275 Cl  0  0  0  0  0  0  0  0  0  0  0  0
   51.9443  -43.9917  -15.1093 O   0  0  0  0  0  0  0  0  0  0  0  0
   51.3957  -45.2280  -14.5859 S   0  0  2  0  0  0  0  0  0  0  0  0
   52.3217  -46.2922  -14.3564 O   0  0  0  0  0  0  0  0  0  0  0  0
   50.2545  -45.6940  -15.5444 N   0  0  0  0  0  0  0  0  0  0  0  0
   50.6281  -44.8619  -12.9922 C   0  0  0  0  0  0  0  0  0  0  0  0
   49.2687  -44.5962  -12.9635 C   0  0  0  0  0  0  0  0  0  0  0  0
   48.6510  -44.1227  -11.8040 C   0  0  0  0  0  0  0  0  0  0  0  0
   46.8863  -43.9376  -11.7924 S   0  0  2  0  0  0  0  0  0  0  0  0
   46.5125  -43.1907  -12.9721 O   0  0  0  0  0  0  0  0  0  0  0  0
   46.4685  -43.0393  -10.5367 N   0  0  0  0  0  0  0  0  0  0  0  0
   46.3155  -45.2480  -11.6114 O   0  0  0  0  0  0  0  0  0  0  0  0
   49.4243  -43.8590  -10.6456 C   0  0  0  0  0  0  0  0  0  0  0  0
   48.8949  -43.3199   -9.4990 N   0  0  0  0  0  0  0  0  0  0  0  0
   50.7884  -44.1918  -10.6935 C   0  0  0  0  0  0  0  0  0  0  0  0
   51.3918  -44.7385  -11.8291 C   0  0  0  0  0  0  0  0  0  0  0  0
   52.6736  -45.4738  -11.7953 C   0  0  0  0  0  0  0  0  0  0  0  0
   52.9530  -46.4900  -11.0028 C   0  0  0  0  0  0  0  0  0  0  0  0
   54.4955  -47.2937  -10.8984 Cl  0  0  0  0  0  0  0  0  0  0  0  0
   51.6874  -47.1632  -10.0622 Cl  0  0  0  0  0  0  0  0  0  0  0  0
   49.4517  -46.0218  -14.9886 H   0  0  0  0  0  0  0  0  0  0  0  0
   49.9616  -44.9052  -16.1385 H   0  0  0  0  0  0  0  0  0  0  0  0
   48.6661  -44.7608  -13.8689 H   0  0  0  0  0  0  0  0  0  0  0  0
   46.7003  -43.5377   -9.6657 H   0  0  0  0  0  0  0  0  0  0  0  0
   46.9807  -42.1462  -10.5680 H   0  0  0  0  0  0  0  0  0  0  0  0
   49.5004  -43.1474   -8.6838 H   0  0  0  0  0  0  0  0  0  0  0  0
   47.8924  -43.0879   -9.4542 H   0  0  0  0  0  0  0  0  0  0  0  0
   51.4065  -44.0147   -9.8010 H   0  0  0  0  0  0  0  0  0  0  0  0
  1 17  1  0
  2  3  2  0
  3  4  2  0
  3  5  1  6
  3  6  1  0
  6  7  2  0
  6 16  1  0
  7  8  1  0
  8  9  1  0
  8 13  2  0
  9 10  2  0
  9 11  1  1
  9 12  2  0
 13 14  1  0
 13 15  1  0
 15 16  2  0
 16 17  1  0
 17 18  2  3
 18 19  1  0
 18 20  1  0
  5 21  1  0
  5 22  1  0
  7 23  1  0
 11 24  1  0
 11 25  1  0
 14 26  1  0
 14 27  1  0
 15 28  1  0
M  END
>  <filename_input>  (12) 
7PRI_7TI_docked.sdf

>  <pdb_id>  (12) 
7PRI_7TI

>  <pose_rank>  (12) 
11

>  <num_atoms_heavy>  (12) 
20

>  <num_torsions>  (12) 
3

>  <pose>  (12) 
[50.62805593627154, -44.86194299225366, -12.992217517329827, -0.32831035990387814, -0.13986090936976425, 0.2505498609948981, 2.27401910686939, 1.8046115743946805, -2.6563023175048746]

>  <energy>  (12) 
-532.0690116371736

>  <inter_energy>  (12) 
-663.9524385933112

>  <intra_energy>  (12) 
125.48192501437998

>  <rmsd>  (12) 
1.91135

>  <sdf_rank>  (12) 
0

$$$$

     RDKit          3D

 28 28  0  0  0  0  0  0  0  0999 V2000
   53.3326  -44.8767  -13.3054 Cl  0  0  0  0  0  0  0  0  0  0  0  0
   51.1681  -45.7242  -14.9490 O   0  0  0  0  0  0  0  0  0  0  0  0
   50.5442  -44.4487  -14.6534 S   0  0  2  0  0  0  0  0  0  0  0  0
   49.3625  -44.1284  -15.3908 O   0  0  0  0  0  0  0  0  0  0  0  0
   51.6201  -43.3315  -14.8335 N   0  0  0  0  0  0  0  0  0  0  0  0
   50.0762  -44.4526  -12.9087 C   0  0  0  0  0  0  0  0  0  0  0  0
   48.8121  -44.0005  -12.5668 C   0  0  0  0  0  0  0  0  0  0  0  0
   48.4552  -43.7987  -11.2317 C   0  0  0  0  0  0  0  0  0  0  0  0
   46.7790  -43.3552  -10.8546 S   0  0  2  0  0  0  0  0  0  0  0  0
   46.0409  -43.3200  -12.0970 O   0  0  0  0  0  0  0  0  0  0  0  0
   46.7565  -41.8655  -10.2726 N   0  0  0  0  0  0  0  0  0  0  0  0
   46.3193  -44.2445   -9.8187 O   0  0  0  0  0  0  0  0  0  0  0  0
   49.4079  -44.0094  -10.2034 C   0  0  0  0  0  0  0  0  0  0  0  0
   49.1482  -43.7556   -8.8792 N   0  0  0  0  0  0  0  0  0  0  0  0
   50.6608  -44.5198  -10.5822 C   0  0  0  0  0  0  0  0  0  0  0  0
   50.9922  -44.7955  -11.9114 C   0  0  0  0  0  0  0  0  0  0  0  0
   52.0956  -45.6969  -12.3047 C   0  0  0  0  0  0  0  0  0  0  0  0
   52.1719  -46.9826  -12.0224 C   0  0  0  0  0  0  0  0  0  0  0  0
   53.5174  -48.0217  -12.4050 Cl  0  0  0  0  0  0  0  0  0  0  0  0
   50.8092  -47.7446  -11.3135 Cl  0  0  0  0  0  0  0  0  0  0  0  0
   51.9344  -43.0052  -13.9085 H   0  0  0  0  0  0  0  0  0  0  0  0
   52.4236  -43.7096  -15.3554 H   0  0  0  0  0  0  0  0  0  0  0  0
   48.0775  -43.7970  -13.3598 H   0  0  0  0  0  0  0  0  0  0  0  0
   46.7570  -41.8991   -9.2431 H   0  0  0  0  0  0  0  0  0  0  0  0
   47.5899  -41.3564  -10.5999 H   0  0  0  0  0  0  0  0  0  0  0  0
   49.8755  -43.9256   -8.1700 H   0  0  0  0  0  0  0  0  0  0  0  0
   48.2261  -43.3951   -8.5951 H   0  0  0  0  0  0  0  0  0  0  0  0
   51.4112  -44.7101   -9.8008 H   0  0  0  0  0  0  0  0  0  0  0  0
  1 17  1  0
  2  3  2  0
  3  4  2  0
  3  5  1  1
  3  6  1  0
  6  7  2  0
  6 16  1  0
  7  8  1  0
  8  9  1  0
  8 13  2  0
  9 10  2  0
  9 11  1  1
  9 12  2  0
 13 14  1  0
 13 15  1  0
 15 16  2  0
 16 17  1  0
 17 18  2  3
 18 19  1  0
 18 20  1  0
  5 21  1  0
  5 22  1  0
  7 23  1  0
 11 24  1  0
 11 25  1  0
 14 26  1  0
 14 27  1  0
 15 28  1  0
M  END
>  <filename_input>  (13) 
7PRI_7TI_docked.sdf

>  <pdb_id>  (13) 
7PRI_7TI

>  <pose_rank>  (13) 
12

>  <num_atoms_heavy>  (13) 
20

>  <num_torsions>  (13) 
3

>  <pose>  (13) 
[50.076171472617844, -44.45258566932282, -12.908704113076174, 2.63814513946764, -0.7982871943396829, -5.55358823828913, 2.4452056319271813, 4.090904541139121, -1.753100938053661]

>  <energy>  (13) 
-677.7267115011516

>  <inter_energy>  (13) 
-741.4154454358551

>  <intra_energy>  (13) 
82.90381905822095

>  <rmsd>  (13) 
1.92691

>  <sdf_rank>  (13) 
0

$$$$

     RDKit          3D

 28 28  0  0  0  0  0  0  0  0999 V2000
   53.0632  -43.2851  -13.0090 Cl  0  0  0  0  0  0  0  0  0  0  0  0
   51.7060  -47.1165  -10.1983 O   0  0  0  0  0  0  0  0  0  0  0  0
   51.8874  -45.6958   -9.9699 S   0  0  2  0  0  0  0  0  0  0  0  0
   53.1743  -45.1572  -10.2807 O   0  0  0  0  0  0  0  0  0  0  0  0
   51.5129  -45.3937   -8.4844 N   0  0  0  0  0  0  0  0  0  0  0  0
   50.6974  -44.8128  -11.0030 C   0  0  0  0  0  0  0  0  0  0  0  0
   49.5650  -44.2900  -10.4002 C   0  0  0  0  0  0  0  0  0  0  0  0
   48.5191  -43.7654  -11.1627 C   0  0  0  0  0  0  0  0  0  0  0  0
   47.1627  -42.9842  -10.3272 S   0  0  2  0  0  0  0  0  0  0  0  0
   46.9408  -41.6990  -10.9504 O   0  0  0  0  0  0  0  0  0  0  0  0
   47.5893  -42.6861   -8.8147 N   0  0  0  0  0  0  0  0  0  0  0  0
   46.0705  -43.9233  -10.3044 O   0  0  0  0  0  0  0  0  0  0  0  0
   48.5834  -43.8072  -12.5782 C   0  0  0  0  0  0  0  0  0  0  0  0
   47.5586  -43.3812  -13.3868 N   0  0  0  0  0  0  0  0  0  0  0  0
   49.7690  -44.2934  -13.1541 C   0  0  0  0  0  0  0  0  0  0  0  0
   50.8477  -44.7468  -12.3903 C   0  0  0  0  0  0  0  0  0  0  0  0
   52.2244  -44.8638  -12.9153 C   0  0  0  0  0  0  0  0  0  0  0  0
   52.7920  -45.9774  -13.3351 C   0  0  0  0  0  0  0  0  0  0  0  0
   54.4451  -46.1302  -13.8645 Cl  0  0  0  0  0  0  0  0  0  0  0  0
   51.8214  -47.3834  -13.4805 Cl  0  0  0  0  0  0  0  0  0  0  0  0
   52.1496  -45.9073   -7.8586 H   0  0  0  0  0  0  0  0  0  0  0  0
   51.5989  -44.3827   -8.3075 H   0  0  0  0  0  0  0  0  0  0  0  0
   49.4882  -44.2880   -9.3029 H   0  0  0  0  0  0  0  0  0  0  0  0
   46.9281  -43.1481   -8.1741 H   0  0  0  0  0  0  0  0  0  0  0  0
   48.5389  -43.0485   -8.6481 H   0  0  0  0  0  0  0  0  0  0  0  0
   47.6553  -43.4327  -14.4110 H   0  0  0  0  0  0  0  0  0  0  0  0
   46.6932  -43.0103  -12.9692 H   0  0  0  0  0  0  0  0  0  0  0  0
   49.8515  -44.3183  -14.2508 H   0  0  0  0  0  0  0  0  0  0  0  0
  1 17  1  0
  2  3  2  0
  3  4  2  0
  3  5  1  1
  3  6  1  0
  6  7  2  0
  6 16  1  0
  7  8  1  0
  8  9  1  0
  8 13  2  0
  9 10  2  0
  9 11  1  1
  9 12  2  0
 13 14  1  0
 13 15  1  0
 15 16  2  0
 16 17  1  0
 17 18  2  3
 18 19  1  0
 18 20  1  0
  5 21  1  0
  5 22  1  0
  7 23  1  0
 11 24  1  0
 11 25  1  0
 14 26  1  0
 14 27  1  0
 15 28  1  0
M  END
>  <filename_input>  (14) 
7PRI_7TI_docked.sdf

>  <pdb_id>  (14) 
7PRI_7TI

>  <pose_rank>  (14) 
13

>  <num_atoms_heavy>  (14) 
20

>  <num_torsions>  (14) 
3

>  <pose>  (14) 
[50.697422120785035, -44.81277161925559, -11.003017616133876, 2.741005302932464, -1.2348728921748404, -1.1008271856349765, -0.3766690487690094, 1.9506682713611938, 0.48891934616048016]

>  <energy>  (14) 
-616.5868480157892

>  <inter_energy>  (14) 
-650.449385300794

>  <intra_energy>  (14) 
37.9228517681082

>  <rmsd>  (14) 
3.57418

>  <sdf_rank>  (14) 
0

$$$$

     RDKit          3D

 28 28  0  0  0  0  0  0  0  0999 V2000
   51.2026  -46.9759  -14.4348 Cl  0  0  0  0  0  0  0  0  0  0  0  0
   51.9080  -46.4929  -11.3445 O   0  0  0  0  0  0  0  0  0  0  0  0
   51.6164  -45.0850  -11.1536 S   0  0  2  0  0  0  0  0  0  0  0  0
   52.5086  -44.1570  -11.7746 O   0  0  0  0  0  0  0  0  0  0  0  0
   51.5278  -44.8140   -9.6184 N   0  0  0  0  0  0  0  0  0  0  0  0
   49.9776  -44.7611  -11.8410 C   0  0  0  0  0  0  0  0  0  0  0  0
   49.0156  -44.2071  -11.0122 C   0  0  0  0  0  0  0  0  0  0  0  0
   47.6836  -44.1071  -11.4200 C   0  0  0  0  0  0  0  0  0  0  0  0
   46.5312  -43.2604  -10.3695 S   0  0  2  0  0  0  0  0  0  0  0  0
   46.1415  -42.0382  -11.0357 O   0  0  0  0  0  0  0  0  0  0  0  0
   47.2805  -42.8240   -9.0255 N   0  0  0  0  0  0  0  0  0  0  0  0
   45.4968  -44.1992  -10.0174 O   0  0  0  0  0  0  0  0  0  0  0  0
   47.2873  -44.6215  -12.6801 C   0  0  0  0  0  0  0  0  0  0  0  0
   45.9831  -44.6266  -13.1097 N   0  0  0  0  0  0  0  0  0  0  0  0
   48.2979  -45.1258  -13.5156 C   0  0  0  0  0  0  0  0  0  0  0  0
   49.6431  -45.1549  -13.1388 C   0  0  0  0  0  0  0  0  0  0  0  0
   50.7561  -45.2742  -14.1041 C   0  0  0  0  0  0  0  0  0  0  0  0
   51.4151  -44.2666  -14.6417 C   0  0  0  0  0  0  0  0  0  0  0  0
   52.6626  -44.4067  -15.8501 Cl  0  0  0  0  0  0  0  0  0  0  0  0
   51.1142  -42.6860  -14.0492 Cl  0  0  0  0  0  0  0  0  0  0  0  0
   51.8051  -45.6619   -9.1035 H   0  0  0  0  0  0  0  0  0  0  0  0
   52.1593  -44.0393   -9.3695 H   0  0  0  0  0  0  0  0  0  0  0  0
   49.3056  -43.8400  -10.0167 H   0  0  0  0  0  0  0  0  0  0  0  0
   46.7362  -43.1410   -8.2105 H   0  0  0  0  0  0  0  0  0  0  0  0
   48.2171  -43.2517   -9.0002 H   0  0  0  0  0  0  0  0  0  0  0  0
   45.7472  -45.0124  -14.0352 H   0  0  0  0  0  0  0  0  0  0  0  0
   45.2407  -44.2446  -12.5066 H   0  0  0  0  0  0  0  0  0  0  0  0
   48.0189  -45.5133  -14.5066 H   0  0  0  0  0  0  0  0  0  0  0  0
  1 17  1  0
  2  3  2  0
  3  4  2  0
  3  5  1  1
  3  6  1  0
  6  7  2  0
  6 16  1  0
  7  8  1  0
  8  9  1  0
  8 13  2  0
  9 10  2  0
  9 11  1  1
  9 12  2  0
 13 14  1  0
 13 15  1  0
 15 16  2  0
 16 17  1  0
 17 18  2  3
 18 19  1  0
 18 20  1  0
  5 21  1  0
  5 22  1  0
  7 23  1  0
 11 24  1  0
 11 25  1  0
 14 26  1  0
 14 27  1  0
 15 28  1  0
M  END
>  <filename_input>  (15) 
7PRI_7TI_docked.sdf

>  <pdb_id>  (15) 
7PRI_7TI

>  <pose_rank>  (15) 
14

>  <num_atoms_heavy>  (15) 
20

>  <num_torsions>  (15) 
3

>  <pose>  (15) 
[49.977602178556154, -44.761089771114804, -11.840956793545503, -2.930474902005998, 1.2830597505402528, 1.5770949664427445, 2.98340916380646, 2.3039596852561304, 0.1640529293806124]

>  <energy>  (15) 
-575.9569889151677

>  <inter_energy>  (15) 
-614.2701314647293

>  <intra_energy>  (15) 
41.96108921676877

>  <rmsd>  (15) 
3.41303

>  <sdf_rank>  (15) 
0

$$$$

     RDKit          3D

 28 28  0  0  0  0  0  0  0  0999 V2000
   51.8000  -47.2810  -13.1206 Cl  0  0  0  0  0  0  0  0  0  0  0  0
   51.7622  -45.1667   -8.5307 O   0  0  0  0  0  0  0  0  0  0  0  0
   51.7968  -45.6981   -9.8797 S   0  0  2  0  0  0  0  0  0  0  0  0
   51.8923  -47.1186  -10.0054 O   0  0  0  0  0  0  0  0  0  0  0  0
   52.9675  -45.0020  -10.6432 N   0  0  0  0  0  0  0  0  0  0  0  0
   50.2660  -45.2108  -10.7058 C   0  0  0  0  0  0  0  0  0  0  0  0
   49.2506  -44.6642   -9.9381 C   0  0  0  0  0  0  0  0  0  0  0  0
   47.9803  -44.4429  -10.4746 C   0  0  0  0  0  0  0  0  0  0  0  0
   46.7681  -43.6106   -9.4815 S   0  0  2  0  0  0  0  0  0  0  0  0
   45.5545  -44.3950   -9.5159 O   0  0  0  0  0  0  0  0  0  0  0  0
   46.4184  -42.2057  -10.1613 N   0  0  0  0  0  0  0  0  0  0  0  0
   47.3678  -43.3469   -8.1984 O   0  0  0  0  0  0  0  0  0  0  0  0
   47.6984  -44.8246  -11.8104 C   0  0  0  0  0  0  0  0  0  0  0  0
   46.4522  -44.7078  -12.3750 N   0  0  0  0  0  0  0  0  0  0  0  0
   48.7656  -45.3244  -12.5753 C   0  0  0  0  0  0  0  0  0  0  0  0
   50.0566  -45.4736  -12.0618 C   0  0  0  0  0  0  0  0  0  0  0  0
   51.2617  -45.5868  -12.9100 C   0  0  0  0  0  0  0  0  0  0  0  0
   51.9326  -44.5760  -13.4264 C   0  0  0  0  0  0  0  0  0  0  0  0
   53.2959  -44.7144  -14.5028 Cl  0  0  0  0  0  0  0  0  0  0  0  0
   51.5180  -42.9861  -12.9362 Cl  0  0  0  0  0  0  0  0  0  0  0  0
   53.6331  -44.6063   -9.9640 H   0  0  0  0  0  0  0  0  0  0  0  0
   53.4506  -45.6932  -11.2346 H   0  0  0  0  0  0  0  0  0  0  0  0
   49.4482  -44.4001   -8.8887 H   0  0  0  0  0  0  0  0  0  0  0  0
   46.2436  -41.5036   -9.4282 H   0  0  0  0  0  0  0  0  0  0  0  0
   47.2093  -41.9013  -10.7467 H   0  0  0  0  0  0  0  0  0  0  0  0
   46.2995  -44.9998  -13.3508 H   0  0  0  0  0  0  0  0  0  0  0  0
   45.6701  -44.3282  -11.8226 H   0  0  0  0  0  0  0  0  0  0  0  0
   48.5773  -45.6099  -13.6208 H   0  0  0  0  0  0  0  0  0  0  0  0
  1 17  1  0
  2  3  2  0
  3  4  2  0
  3  5  1  6
  3  6  1  0
  6  7  2  0
  6 16  1  0
  7  8  1  0
  8  9  1  0
  8 13  2  0
  9 10  2  0
  9 11  1  6
  9 12  2  0
 13 14  1  0
 13 15  1  0
 15 16  2  0
 16 17  1  0
 17 18  2  3
 18 19  1  0
 18 20  1  0
  5 21  1  0
  5 22  1  0
  7 23  1  0
 11 24  1  0
 11 25  1  0
 14 26  1  0
 14 27  1  0
 15 28  1  0
M  END
>  <filename_input>  (16) 
7PRI_7TI_docked.sdf

>  <pdb_id>  (16) 
7PRI_7TI

>  <pose_rank>  (16) 
15

>  <num_atoms_heavy>  (16) 
20

>  <num_torsions>  (16) 
3

>  <pose>  (16) 
[50.2660010183018, -45.21079530855867, -10.705828682345992, 2.3721626593494096, -1.0625069642834002, -1.1786025973503635, -3.463392048022256, -6.3248104624636765, 2.2281130450451987]

>  <energy>  (16) 
-490.70404791589146

>  <inter_energy>  (16) 
-554.8400417333867

>  <intra_energy>  (16) 
56.08216625479621

>  <rmsd>  (16) 
3.552

>  <sdf_rank>  (16) 
0

$$$$

     RDKit          3D

 28 28  0  0  0  0  0  0  0  0999 V2000
   52.9579  -43.7013  -12.7040 Cl  0  0  0  0  0  0  0  0  0  0  0  0
   52.9693  -45.3686  -10.0319 O   0  0  0  0  0  0  0  0  0  0  0  0
   51.6477  -45.3869   -9.4347 S   0  0  2  0  0  0  0  0  0  0  0  0
   51.4705  -44.6082   -8.2493 O   0  0  0  0  0  0  0  0  0  0  0  0
   51.2560  -46.8757   -9.1740 N   0  0  0  0  0  0  0  0  0  0  0  0
   50.4809  -44.7410  -10.6531 C   0  0  0  0  0  0  0  0  0  0  0  0
   49.3461  -44.0912  -10.1957 C   0  0  0  0  0  0  0  0  0  0  0  0
   48.3161  -43.7374  -11.0699 C   0  0  0  0  0  0  0  0  0  0  0  0
   46.9569  -42.7831  -10.4450 S   0  0  2  0  0  0  0  0  0  0  0  0
   47.4135  -41.4221  -10.2755 O   0  0  0  0  0  0  0  0  0  0  0  0
   46.5768  -43.3178   -8.9863 N   0  0  0  0  0  0  0  0  0  0  0  0
   45.8303  -43.0164  -11.3119 O   0  0  0  0  0  0  0  0  0  0  0  0
   48.3987  -44.0865  -12.4413 C   0  0  0  0  0  0  0  0  0  0  0  0
   47.3892  -43.8392  -13.3387 N   0  0  0  0  0  0  0  0  0  0  0  0
   49.5867  -44.6952  -12.8796 C   0  0  0  0  0  0  0  0  0  0  0  0
   50.6503  -44.9794  -12.0191 C   0  0  0  0  0  0  0  0  0  0  0  0
   52.0325  -45.2181  -12.4850 C   0  0  0  0  0  0  0  0  0  0  0  0
   52.5503  -46.3953  -12.7761 C   0  0  0  0  0  0  0  0  0  0  0  0
   54.2066  -46.6839  -13.2339 Cl  0  0  0  0  0  0  0  0  0  0  0  0
   51.5092  -47.7571  -12.8160 Cl  0  0  0  0  0  0  0  0  0  0  0  0
   51.2111  -47.0463   -8.1592 H   0  0  0  0  0  0  0  0  0  0  0  0
   50.3359  -47.0675   -9.5954 H   0  0  0  0  0  0  0  0  0  0  0  0
   49.2548  -43.8500   -9.1264 H   0  0  0  0  0  0  0  0  0  0  0  0
   47.0083  -42.7108   -8.2748 H   0  0  0  0  0  0  0  0  0  0  0  0
   45.5531  -43.3063   -8.8724 H   0  0  0  0  0  0  0  0  0  0  0  0
   47.4989  -44.1129  -14.3256 H   0  0  0  0  0  0  0  0  0  0  0  0
   46.5223  -43.3799  -13.0250 H   0  0  0  0  0  0  0  0  0  0  0  0
   49.6834  -44.9586  -13.9432 H   0  0  0  0  0  0  0  0  0  0  0  0
  1 17  1  0
  2  3  2  0
  3  4  2  0
  3  5  1  1
  3  6  1  0
  6  7  2  0
  6 16  1  0
  7  8  1  0
  8  9  1  0
  8 13  2  0
  9 10  2  0
  9 11  1  1
  9 12  2  0
 13 14  1  0
 13 15  1  0
 15 16  2  0
 16 17  1  0
 17 18  2  3
 18 19  1  0
 18 20  1  0
  5 21  1  0
  5 22  1  0
  7 23  1  0
 11 24  1  0
 11 25  1  0
 14 26  1  0
 14 27  1  0
 15 28  1  0
M  END
>  <filename_input>  (17) 
7PRI_7TI_docked.sdf

>  <pdb_id>  (17) 
7PRI_7TI

>  <pose_rank>  (17) 
16

>  <num_atoms_heavy>  (17) 
20

>  <num_torsions>  (17) 
3

>  <pose>  (17) 
[50.48089837176539, -44.74095549183599, -10.653109124374891, -2.791577053950081, 1.3864719394245921, 0.957601263386709, -0.24685626272964312, -2.480624003806671, -0.4704830506978056]

>  <energy>  (17) 
-572.2165977045256

>  <inter_energy>  (17) 
-627.9990635271802

>  <intra_energy>  (17) 
66.88489866042892

>  <rmsd>  (17) 
3.68958

>  <sdf_rank>  (17) 
0

$$$$

     RDKit          3D

 28 28  0  0  0  0  0  0  0  0999 V2000
   52.6469  -43.8695  -13.5438 Cl  0  0  0  0  0  0  0  0  0  0  0  0
   51.0971  -45.9516   -8.9989 O   0  0  0  0  0  0  0  0  0  0  0  0
   51.5992  -45.9807  -10.3593 S   0  0  2  0  0  0  0  0  0  0  0  0
   51.8848  -47.2691  -10.9083 O   0  0  0  0  0  0  0  0  0  0  0  0
   52.8623  -45.0654  -10.4277 N   0  0  0  0  0  0  0  0  0  0  0  0
   50.3485  -45.2329  -11.4269 C   0  0  0  0  0  0  0  0  0  0  0  0
   49.2259  -44.6781  -10.8345 C   0  0  0  0  0  0  0  0  0  0  0  0
   48.1388  -44.2565  -11.6032 C   0  0  0  0  0  0  0  0  0  0  0  0
   46.7942  -43.4264  -10.7961 S   0  0  2  0  0  0  0  0  0  0  0  0
   46.9589  -42.0064  -11.0106 O   0  0  0  0  0  0  0  0  0  0  0  0
   46.9125  -43.6626   -9.2186 N   0  0  0  0  0  0  0  0  0  0  0  0
   45.5726  -44.0423  -11.2477 O   0  0  0  0  0  0  0  0  0  0  0  0
   48.1514  -44.4384  -13.0090 C   0  0  0  0  0  0  0  0  0  0  0  0
   47.0862  -44.1191  -13.8145 N   0  0  0  0  0  0  0  0  0  0  0  0
   49.3272  -44.9530  -13.5804 C   0  0  0  0  0  0  0  0  0  0  0  0
   50.4452  -45.3029  -12.8187 C   0  0  0  0  0  0  0  0  0  0  0  0
   51.8041  -45.4407  -13.3838 C   0  0  0  0  0  0  0  0  0  0  0  0
   52.3528  -46.5677  -13.7930 C   0  0  0  0  0  0  0  0  0  0  0  0
   53.9876  -46.7428  -14.3702 Cl  0  0  0  0  0  0  0  0  0  0  0  0
   51.3714  -47.9714  -13.8720 Cl  0  0  0  0  0  0  0  0  0  0  0  0
   53.1745  -44.8391   -9.4725 H   0  0  0  0  0  0  0  0  0  0  0  0
   53.6163  -45.5575  -10.9278 H   0  0  0  0  0  0  0  0  0  0  0  0
   49.1900  -44.5679   -9.7406 H   0  0  0  0  0  0  0  0  0  0  0  0
   46.5088  -42.8570   -8.7196 H   0  0  0  0  0  0  0  0  0  0  0  0
   46.4007  -44.5182   -8.9602 H   0  0  0  0  0  0  0  0  0  0  0  0
   47.1460  -44.2707  -14.8316 H   0  0  0  0  0  0  0  0  0  0  0  0
   46.2275  -43.7279  -13.4018 H   0  0  0  0  0  0  0  0  0  0  0  0
   49.3694  -45.0858  -14.6715 H   0  0  0  0  0  0  0  0  0  0  0  0
  1 17  1  0
  2  3  2  0
  3  4  2  0
  3  5  1  1
  3  6  1  0
  6  7  2  0
  6 16  1  0
  7  8  1  0
  8  9  1  0
  8 13  2  0
  9 10  2  0
  9 11  1  1
  9 12  2  0
 13 14  1  0
 13 15  1  0
 15 16  2  0
 16 17  1  0
 17 18  2  3
 18 19  1  0
 18 20  1  0
  5 21  1  0
  5 22  1  0
  7 23  1  0
 11 24  1  0
 11 25  1  0
 14 26  1  0
 14 27  1  0
 15 28  1  0
M  END
>  <filename_input>  (18) 
7PRI_7TI_docked.sdf

>  <pdb_id>  (18) 
7PRI_7TI

>  <pose_rank>  (18) 
17

>  <num_atoms_heavy>  (18) 
20

>  <num_torsions>  (18) 
3

>  <pose>  (18) 
[50.348548694660366, -45.232900333323876, -11.426909433376817, 2.642192355305681, -1.213162300032753, -1.054175600052339, -0.29593061094722056, 0.2375700596441778, -0.03865098346038193]

>  <energy>  (18) 
-588.8931556176813

>  <inter_energy>  (18) 
-613.9903942326575

>  <intra_energy>  (18) 
45.992801421654505

>  <rmsd>  (18) 
3.54204

>  <sdf_rank>  (18) 
0

$$$$

     RDKit          3D

 28 28  0  0  0  0  0  0  0  0999 V2000
   55.5261  -49.6199   -9.3836 Cl  0  0  0  0  0  0  0  0  0  0  0  0
   51.4460  -49.3618   -8.3634 O   0  0  0  0  0  0  0  0  0  0  0  0
   52.4238  -48.3696   -7.9598 S   0  0  2  0  0  0  0  0  0  0  0  0
   53.6723  -48.8640   -7.4704 O   0  0  0  0  0  0  0  0  0  0  0  0
   51.7549  -47.4339   -6.9038 N   0  0  0  0  0  0  0  0  0  0  0  0
   52.8044  -47.3495   -9.4012 C   0  0  0  0  0  0  0  0  0  0  0  0
   51.7979  -46.5579   -9.9299 C   0  0  0  0  0  0  0  0  0  0  0  0
   51.9665  -45.8948  -11.1474 C   0  0  0  0  0  0  0  0  0  0  0  0
   50.6953  -44.7860  -11.6980 S   0  0  2  0  0  0  0  0  0  0  0  0
   49.5345  -44.9946  -10.8622 O   0  0  0  0  0  0  0  0  0  0  0  0
   50.2624  -45.1921  -13.1833 N   0  0  0  0  0  0  0  0  0  0  0  0
   51.2660  -43.4642  -11.7467 O   0  0  0  0  0  0  0  0  0  0  0  0
   53.1632  -46.0651  -11.8878 C   0  0  0  0  0  0  0  0  0  0  0  0
   53.3632  -45.5062  -13.1260 N   0  0  0  0  0  0  0  0  0  0  0  0
   54.1824  -46.8298  -11.2959 C   0  0  0  0  0  0  0  0  0  0  0  0
   54.0432  -47.4301  -10.0418 C   0  0  0  0  0  0  0  0  0  0  0  0
   55.1892  -47.8696   -9.2183 C   0  0  0  0  0  0  0  0  0  0  0  0
   55.8784  -47.1048   -8.3944 C   0  0  0  0  0  0  0  0  0  0  0  0
   57.2869  -47.6012   -7.4968 Cl  0  0  0  0  0  0  0  0  0  0  0  0
   55.3058  -45.5191   -8.0817 Cl  0  0  0  0  0  0  0  0  0  0  0  0
   51.9897  -47.7624   -5.9563 H   0  0  0  0  0  0  0  0  0  0  0  0
   52.1010  -46.4719   -7.0293 H   0  0  0  0  0  0  0  0  0  0  0  0
   50.8503  -46.4500   -9.3818 H   0  0  0  0  0  0  0  0  0  0  0  0
   49.5117  -45.8961  -13.1417 H   0  0  0  0  0  0  0  0  0  0  0  0
   49.9230  -44.3573  -13.6823 H   0  0  0  0  0  0  0  0  0  0  0  0
   54.2519  -45.6605  -13.6233 H   0  0  0  0  0  0  0  0  0  0  0  0
   52.6244  -44.9327  -13.5576 H   0  0  0  0  0  0  0  0  0  0  0  0
   55.1284  -46.9612  -11.8418 H   0  0  0  0  0  0  0  0  0  0  0  0
  1 17  1  0
  2  3  2  0
  3  4  2  0
  3  5  1  1
  3  6  1  0
  6  7  2  0
  6 16  1  0
  7  8  1  0
  8  9  1  0
  8 13  2  0
  9 10  2  0
  9 11  1  6
  9 12  2  0
 13 14  1  0
 13 15  1  0
 15 16  2  0
 16 17  1  0
 17 18  2  3
 18 19  1  0
 18 20  1  0
  5 21  1  0
  5 22  1  0
  7 23  1  0
 11 24  1  0
 11 25  1  0
 14 26  1  0
 14 27  1  0
 15 28  1  0
M  END
>  <filename_input>  (19) 
7PRI_7TI_docked.sdf

>  <pdb_id>  (19) 
7PRI_7TI

>  <pose_rank>  (19) 
18

>  <num_atoms_heavy>  (19) 
20

>  <num_torsions>  (19) 
3

>  <pose>  (19) 
[52.8044211568698, -47.34950883562318, -9.401228068216891, -2.355384384286477, 1.1225236394714275, -0.27266555713261736, -9.72404234018003, 1.2899040781359956, 10.574987869304985]

>  <energy>  (19) 
-181.28634171465052

>  <inter_energy>  (19) 
-242.32370053962862

>  <intra_energy>  (19) 
77.446040027408

>  <rmsd>  (19) 
5.71745

>  <sdf_rank>  (19) 
0

$$$$

     RDKit          3D

 28 28  0  0  0  0  0  0  0  0999 V2000
   52.3683  -48.0410  -10.3226 Cl  0  0  0  0  0  0  0  0  0  0  0  0
   52.6921  -45.6189   -8.7591 O   0  0  0  0  0  0  0  0  0  0  0  0
   51.3577  -45.8559   -8.2427 S   0  0  2  0  0  0  0  0  0  0  0  0
   50.9220  -45.0039   -7.1811 O   0  0  0  0  0  0  0  0  0  0  0  0
   51.2649  -47.3544   -7.8138 N   0  0  0  0  0  0  0  0  0  0  0  0
   50.1894  -45.6235   -9.6007 C   0  0  0  0  0  0  0  0  0  0  0  0
   49.0431  -44.8832   -9.3615 C   0  0  0  0  0  0  0  0  0  0  0  0
   48.0135  -44.8238  -10.3032 C   0  0  0  0  0  0  0  0  0  0  0  0
   46.6378  -43.7460   -9.9961 S   0  0  2  0  0  0  0  0  0  0  0  0
   45.4805  -44.5708   -9.7320 O   0  0  0  0  0  0  0  0  0  0  0  0
   46.3144  -42.9267  -11.3312 N   0  0  0  0  0  0  0  0  0  0  0  0
   47.0438  -42.8047   -8.9839 O   0  0  0  0  0  0  0  0  0  0  0  0
   48.1090  -45.5678  -11.5060 C   0  0  0  0  0  0  0  0  0  0  0  0
   47.1015  -45.6166  -12.4378 N   0  0  0  0  0  0  0  0  0  0  0  0
   49.3077  -46.2624  -11.7392 C   0  0  0  0  0  0  0  0  0  0  0  0
   50.3700  -46.2590  -10.8315 C   0  0  0  0  0  0  0  0  0  0  0  0
   51.7582  -46.6062  -11.2021 C   0  0  0  0  0  0  0  0  0  0  0  0
   52.5200  -45.9285  -12.0382 C   0  0  0  0  0  0  0  0  0  0  0  0
   54.1213  -46.3916  -12.5458 Cl  0  0  0  0  0  0  0  0  0  0  0  0
   51.9576  -44.4125  -12.6086 Cl  0  0  0  0  0  0  0  0  0  0  0  0
   51.2610  -47.4177   -6.7858 H   0  0  0  0  0  0  0  0  0  0  0  0
   50.3968  -47.7650   -8.1864 H   0  0  0  0  0  0  0  0  0  0  0  0
   48.9423  -44.3330   -8.4143 H   0  0  0  0  0  0  0  0  0  0  0  0
   45.9474  -41.9969  -11.0830 H   0  0  0  0  0  0  0  0  0  0  0  0
   47.1761  -42.8190  -11.8852 H   0  0  0  0  0  0  0  0  0  0  0  0
   47.2208  -46.1727  -13.2965 H   0  0  0  0  0  0  0  0  0  0  0  0
   46.2266  -45.0971  -12.2779 H   0  0  0  0  0  0  0  0  0  0  0  0
   49.4143  -46.8319  -12.6743 H   0  0  0  0  0  0  0  0  0  0  0  0
  1 17  1  0
  2  3  2  0
  3  4  2  0
  3  5  1  1
  3  6  1  0
  6  7  2  0
  6 16  1  0
  7  8  1  0
  8  9  1  0
  8 13  2  0
  9 10  2  0
  9 11  1  6
  9 12  2  0
 13 14  1  0
 13 15  1  0
 15 16  2  0
 16 17  1  0
 17 18  2  3
 18 19  1  0
 18 20  1  0
  5 21  1  0
  5 22  1  0
  7 23  1  0
 11 24  1  0
 11 25  1  0
 14 26  1  0
 14 27  1  0
 15 28  1  0
M  END
>  <filename_input>  (20) 
7PRI_7TI_docked.sdf

>  <pdb_id>  (20) 
7PRI_7TI

>  <pose_rank>  (20) 
19

>  <num_atoms_heavy>  (20) 
20

>  <num_torsions>  (20) 
3

>  <pose>  (20) 
[50.189388287539614, -45.62347550045662, -9.600675501121358, -3.0124153614731135, 1.6442017566040188, 0.8010692271647034, -10.078111038860351, -2.2016699537349145, 8.852327726868578]

>  <energy>  (20) 
-352.0054410955287

>  <inter_energy>  (20) 
-414.1872626905555

>  <intra_energy>  (20) 
78.5480264467002

>  <rmsd>  (20) 
4.05575

>  <sdf_rank>  (20) 
0

$$$$

     RDKit          3D

 28 28  0  0  0  0  0  0  0  0999 V2000
   52.1179  -46.4113  -14.2113 Cl  0  0  0  0  0  0  0  0  0  0  0  0
   50.8874  -45.4663   -9.2345 O   0  0  0  0  0  0  0  0  0  0  0  0
   51.3001  -45.6788  -10.6086 S   0  0  2  0  0  0  0  0  0  0  0  0
   51.2613  -47.0249  -11.0873 O   0  0  0  0  0  0  0  0  0  0  0  0
   52.7311  -45.0783  -10.7815 N   0  0  0  0  0  0  0  0  0  0  0  0
   50.1960  -44.7231  -11.6720 C   0  0  0  0  0  0  0  0  0  0  0  0
   49.0588  -44.1681  -11.1083 C   0  0  0  0  0  0  0  0  0  0  0  0
   48.0715  -43.5829  -11.9041 C   0  0  0  0  0  0  0  0  0  0  0  0
   46.7103  -42.7659  -11.1115 S   0  0  2  0  0  0  0  0  0  0  0  0
   46.7676  -43.0785   -9.7014 O   0  0  0  0  0  0  0  0  0  0  0  0
   45.3429  -43.3902  -11.6582 N   0  0  0  0  0  0  0  0  0  0  0  0
   46.7529  -41.3793  -11.5001 O   0  0  0  0  0  0  0  0  0  0  0  0
   48.1999  -43.5939  -13.3157 C   0  0  0  0  0  0  0  0  0  0  0  0
   47.2318  -43.1069  -14.1591 N   0  0  0  0  0  0  0  0  0  0  0  0
   49.3904  -44.1152  -13.8493 C   0  0  0  0  0  0  0  0  0  0  0  0
   50.4132  -44.6307  -13.0489 C   0  0  0  0  0  0  0  0  0  0  0  0
   51.8070  -44.7923  -13.5135 C   0  0  0  0  0  0  0  0  0  0  0  0
   52.7635  -43.8926  -13.3940 C   0  0  0  0  0  0  0  0  0  0  0  0
   54.3797  -44.0477  -14.0264 Cl  0  0  0  0  0  0  0  0  0  0  0  0
   52.4524  -42.4907  -12.4570 Cl  0  0  0  0  0  0  0  0  0  0  0  0
   53.1449  -44.9047   -9.8544 H   0  0  0  0  0  0  0  0  0  0  0  0
   53.3215  -45.7426  -11.3021 H   0  0  0  0  0  0  0  0  0  0  0  0
   48.9312  -44.1888  -10.0159 H   0  0  0  0  0  0  0  0  0  0  0  0
   44.7475  -43.6621  -10.8630 H   0  0  0  0  0  0  0  0  0  0  0  0
   44.8511  -42.6903  -12.2319 H   0  0  0  0  0  0  0  0  0  0  0  0
   47.3738  -43.1382  -15.1787 H   0  0  0  0  0  0  0  0  0  0  0  0
   46.3636  -42.7104  -13.7720 H   0  0  0  0  0  0  0  0  0  0  0  0
   49.5227  -44.1176  -14.9413 H   0  0  0  0  0  0  0  0  0  0  0  0
  1 17  1  0
  2  3  2  0
  3  4  2  0
  3  5  1  1
  3  6  1  0
  6  7  2  0
  6 16  1  0
  7  8  1  0
  8  9  1  0
  8 13  2  0
  9 10  2  0
  9 11  1  6
  9 12  2  0
 13 14  1  0
 13 15  1  0
 15 16  2  0
 16 17  1  0
 17 18  2  3
 18 19  1  0
 18 20  1  0
  5 21  1  0
  5 22  1  0
  7 23  1  0
 11 24  1  0
 11 25  1  0
 14 26  1  0
 14 27  1  0
 15 28  1  0
M  END
>  <filename_input>  (21) 
7PRI_7TI_docked.sdf

>  <pdb_id>  (21) 
7PRI_7TI

>  <pose_rank>  (21) 
20

>  <num_atoms_heavy>  (21) 
20

>  <num_torsions>  (21) 
3

>  <pose>  (21) 
[50.19602644216513, -44.72306504984239, -11.67202137689348, -2.5936599445177495, 1.2071971986816612, 0.9947554495431742, 2.9478111108165472, -0.03978526157820745, -1.9603058991793245]

>  <energy>  (21) 
-547.2484024045567

>  <inter_energy>  (21) 
-619.1450282250271

>  <intra_energy>  (21) 
67.58491391575377

>  <rmsd>  (21) 
3.30463

>  <sdf_rank>  (21) 
0

$$$$

     RDKit          3D

 28 28  0  0  0  0  0  0  0  0999 V2000
   45.5812  -53.7222  -22.6360 Cl  0  0  0  0  0  0  0  0  0  0  0  0
   45.8311  -52.6369  -18.4260 O   0  0  0  0  0  0  0  0  0  0  0  0
   46.5540  -53.7637  -18.9839 S   0  0  2  0  0  0  0  0  0  0  0  0
   45.7752  -54.7493  -19.6655 O   0  0  0  0  0  0  0  0  0  0  0  0
   47.3842  -54.4209  -17.8363 N   0  0  0  0  0  0  0  0  0  0  0  0
   47.7372  -53.1207  -20.1879 C   0  0  0  0  0  0  0  0  0  0  0  0
   49.0749  -53.4458  -20.0324 C   0  0  0  0  0  0  0  0  0  0  0  0
   50.0608  -52.8333  -20.8091 C   0  0  0  0  0  0  0  0  0  0  0  0
   51.7368  -53.3963  -20.6593 S   0  0  2  0  0  0  0  0  0  0  0  0
   51.7553  -54.4797  -19.7026 O   0  0  0  0  0  0  0  0  0  0  0  0
   52.6227  -52.2223  -20.0306 N   0  0  0  0  0  0  0  0  0  0  0  0
   52.2251  -53.6586  -21.9891 O   0  0  0  0  0  0  0  0  0  0  0  0
   49.7053  -51.8259  -21.7409 C   0  0  0  0  0  0  0  0  0  0  0  0
   50.6301  -51.1293  -22.4791 N   0  0  0  0  0  0  0  0  0  0  0  0
   48.3361  -51.5614  -21.9110 C   0  0  0  0  0  0  0  0  0  0  0  0
   47.3436  -52.2296  -21.1891 C   0  0  0  0  0  0  0  0  0  0  0  0
   45.9300  -52.2929  -21.6161 C   0  0  0  0  0  0  0  0  0  0  0  0
   45.0078  -51.3893  -21.3485 C   0  0  0  0  0  0  0  0  0  0  0  0
   43.3219  -51.5122  -21.7716 Cl  0  0  0  0  0  0  0  0  0  0  0  0
   45.4957  -49.9173  -20.6171 Cl  0  0  0  0  0  0  0  0  0  0  0  0
   47.0071  -54.1224  -16.9254 H   0  0  0  0  0  0  0  0  0  0  0  0
   47.3244  -55.4463  -17.9132 H   0  0  0  0  0  0  0  0  0  0  0  0
   49.3653  -54.1987  -19.2848 H   0  0  0  0  0  0  0  0  0  0  0  0
   52.5830  -52.2750  -19.0028 H   0  0  0  0  0  0  0  0  0  0  0  0
   53.5991  -52.3245  -20.3422 H   0  0  0  0  0  0  0  0  0  0  0  0
   50.3196  -50.4061  -23.1435 H   0  0  0  0  0  0  0  0  0  0  0  0
   51.6343  -51.3300  -22.3685 H   0  0  0  0  0  0  0  0  0  0  0  0
   48.0330  -50.7974  -22.6420 H   0  0  0  0  0  0  0  0  0  0  0  0
  1 17  1  0
  2  3  2  0
  3  4  2  0
  3  5  1  1
  3  6  1  0
  6  7  2  0
  6 16  1  0
  7  8  1  0
  8  9  1  0
  8 13  2  0
  9 10  2  0
  9 11  1  1
  9 12  2  0
 13 14  1  0
 13 15  1  0
 15 16  2  0
 16 17  1  0
 17 18  2  3
 18 19  1  0
 18 20  1  0
  5 21  1  0
  5 22  1  0
  7 23  1  0
 11 24  1  0
 11 25  1  0
 14 26  1  0
 14 27  1  0
 15 28  1  0
M  END
>  <filename_input>  (22) 
7PRI_7TI_docked.sdf

>  <pdb_id>  (22) 
7PRI_7TI

>  <pose_rank>  (22) 
21

>  <num_atoms_heavy>  (22) 
20

>  <num_torsions>  (22) 
3

>  <pose>  (22) 
[47.737249830783526, -53.120726278215024, -20.187944662753154, -1.0879731847089096, -2.9690515261180326, -1.2966921224555066, -0.14280237308282584, 2.323954866847314, -1.7640277157537414]

>  <energy>  (22) 
-55.14112282031086

>  <inter_energy>  (22) 
-88.17929967498274

>  <intra_energy>  (22) 
28.4721078819284

>  <rmsd>  (22) 
13.0091

>  <sdf_rank>  (22) 
0

$$$$

     RDKit          3D

 28 28  0  0  0  0  0  0  0  0999 V2000
   54.8116  -34.8861  -22.0142 Cl  0  0  0  0  0  0  0  0  0  0  0  0
   55.2991  -37.8064  -22.6320 O   0  0  0  0  0  0  0  0  0  0  0  0
   55.9063  -38.5064  -21.5163 S   0  0  2  0  0  0  0  0  0  0  0  0
   57.1062  -39.2319  -21.7928 O   0  0  0  0  0  0  0  0  0  0  0  0
   54.8287  -39.4495  -20.8937 N   0  0  0  0  0  0  0  0  0  0  0  0
   56.3251  -37.2815  -20.2564 C   0  0  0  0  0  0  0  0  0  0  0  0
   57.5803  -37.3419  -19.6732 C   0  0  0  0  0  0  0  0  0  0  0  0
   57.9001  -36.5519  -18.5668 C   0  0  0  0  0  0  0  0  0  0  0  0
   59.5662  -36.5729  -17.9567 S   0  0  2  0  0  0  0  0  0  0  0  0
   59.6559  -35.6089  -16.8833 O   0  0  0  0  0  0  0  0  0  0  0  0
   60.5463  -36.0576  -19.1109 N   0  0  0  0  0  0  0  0  0  0  0  0
   59.9028  -37.9432  -17.6662 O   0  0  0  0  0  0  0  0  0  0  0  0
   56.9183  -35.7065  -17.9916 C   0  0  0  0  0  0  0  0  0  0  0  0
   57.1413  -34.9635  -16.8586 N   0  0  0  0  0  0  0  0  0  0  0  0
   55.6752  -35.6295  -18.6416 C   0  0  0  0  0  0  0  0  0  0  0  0
   55.3805  -36.3617  -19.7946 C   0  0  0  0  0  0  0  0  0  0  0  0
   54.2862  -36.0105  -20.7242 C   0  0  0  0  0  0  0  0  0  0  0  0
   53.0342  -36.4104  -20.6193 C   0  0  0  0  0  0  0  0  0  0  0  0
   51.7675  -36.0730  -21.7673 Cl  0  0  0  0  0  0  0  0  0  0  0  0
   52.5603  -37.2441  -19.1979 Cl  0  0  0  0  0  0  0  0  0  0  0  0
   54.8831  -39.4019  -19.8663 H   0  0  0  0  0  0  0  0  0  0  0  0
   53.8922  -39.1515  -21.2021 H   0  0  0  0  0  0  0  0  0  0  0  0
   58.3374  -38.0234  -20.0883 H   0  0  0  0  0  0  0  0  0  0  0  0
   61.3769  -35.6209  -18.6863 H   0  0  0  0  0  0  0  0  0  0  0  0
   60.8379  -36.8544  -19.6948 H   0  0  0  0  0  0  0  0  0  0  0  0
   56.3939  -34.3641  -16.4804 H   0  0  0  0  0  0  0  0  0  0  0  0
   58.0560  -35.0055  -16.3870 H   0  0  0  0  0  0  0  0  0  0  0  0
   54.9026  -34.9659  -18.2260 H   0  0  0  0  0  0  0  0  0  0  0  0
  1 17  1  0
  2  3  2  0
  3  4  2  0
  3  5  1  1
  3  6  1  0
  6  7  2  0
  6 16  1  0
  7  8  1  0
  8  9  1  0
  8 13  2  0
  9 10  2  0
  9 11  1  6
  9 12  2  0
 13 14  1  0
 13 15  1  0
 15 16  2  0
 16 17  1  0
 17 18  2  3
 18 19  1  0
 18 20  1  0
  5 21  1  0
  5 22  1  0
  7 23  1  0
 11 24  1  0
 11 25  1  0
 14 26  1  0
 14 27  1  0
 15 28  1  0
M  END
>  <filename_input>  (23) 
7PRI_7TI_docked.sdf

>  <pdb_id>  (23) 
7PRI_7TI

>  <pose_rank>  (23) 
22

>  <num_atoms_heavy>  (23) 
20

>  <num_torsions>  (23) 
3

>  <pose>  (23) 
[56.32510912508828, -37.28149671466492, -20.256367413223856, 0.01039923796285867, -1.0961976609357469, -2.8515729814938693, -0.17169375689141025, -2.1829702741643975, 1.2889018226162459]

>  <energy>  (23) 
-61.38476635162323

>  <inter_energy>  (23) 
-102.86111963299193

>  <intra_energy>  (23) 
56.57046912242075

>  <rmsd>  (23) 
13.1886

>  <sdf_rank>  (23) 
0

$$$$

     RDKit          3D

 28 28  0  0  0  0  0  0  0  0999 V2000
   56.6845  -34.6200  -21.9242 Cl  0  0  0  0  0  0  0  0  0  0  0  0
   56.5614  -37.6710  -22.4620 O   0  0  0  0  0  0  0  0  0  0  0  0
   56.3759  -38.3785  -21.2096 S   0  0  2  0  0  0  0  0  0  0  0  0
   57.1510  -39.5650  -21.0244 O   0  0  0  0  0  0  0  0  0  0  0  0
   54.8540  -38.6898  -21.0516 N   0  0  0  0  0  0  0  0  0  0  0  0
   56.8259  -37.2559  -19.8678 C   0  0  0  0  0  0  0  0  0  0  0  0
   57.7946  -37.6652  -18.9661 C   0  0  0  0  0  0  0  0  0  0  0  0
   58.0532  -36.9343  -17.8045 C   0  0  0  0  0  0  0  0  0  0  0  0
   59.4012  -37.4342  -16.7645 S   0  0  2  0  0  0  0  0  0  0  0  0
   59.6028  -36.4003  -15.7747 O   0  0  0  0  0  0  0  0  0  0  0  0
   60.7381  -37.4887  -17.6409 N   0  0  0  0  0  0  0  0  0  0  0  0
   59.1181  -38.7688  -16.3017 O   0  0  0  0  0  0  0  0  0  0  0  0
   57.2857  -35.7802  -17.5072 C   0  0  0  0  0  0  0  0  0  0  0  0
   57.4341  -35.0611  -16.3469 N   0  0  0  0  0  0  0  0  0  0  0  0
   56.3507  -35.3642  -18.4698 C   0  0  0  0  0  0  0  0  0  0  0  0
   56.1459  -36.0520  -19.6688 C   0  0  0  0  0  0  0  0  0  0  0  0
   55.5084  -35.4453  -20.8563 C   0  0  0  0  0  0  0  0  0  0  0  0
   54.2148  -35.4374  -21.1112 C   0  0  0  0  0  0  0  0  0  0  0  0
   53.4749  -34.8055  -22.5567 Cl  0  0  0  0  0  0  0  0  0  0  0  0
   53.1404  -35.9936  -19.8962 Cl  0  0  0  0  0  0  0  0  0  0  0  0
   54.6156  -38.7386  -20.0507 H   0  0  0  0  0  0  0  0  0  0  0  0
   54.3027  -37.9442  -21.4999 H   0  0  0  0  0  0  0  0  0  0  0  0
   58.3695  -38.5810  -19.1682 H   0  0  0  0  0  0  0  0  0  0  0  0
   61.5567  -37.5220  -17.0166 H   0  0  0  0  0  0  0  0  0  0  0  0
   60.7251  -38.3298  -18.2352 H   0  0  0  0  0  0  0  0  0  0  0  0
   56.8510  -34.2289  -16.1787 H   0  0  0  0  0  0  0  0  0  0  0  0
   58.1285  -35.3538  -15.6449 H   0  0  0  0  0  0  0  0  0  0  0  0
   55.7558  -34.4604  -18.2716 H   0  0  0  0  0  0  0  0  0  0  0  0
  1 17  1  0
  2  3  2  0
  3  4  2  0
  3  5  1  1
  3  6  1  0
  6  7  2  0
  6 16  1  0
  7  8  1  0
  8  9  1  0
  8 13  2  0
  9 10  2  0
  9 11  1  6
  9 12  2  0
 13 14  1  0
 13 15  1  0
 15 16  2  0
 16 17  1  0
 17 18  2  3
 18 19  1  0
 18 20  1  0
  5 21  1  0
  5 22  1  0
  7 23  1  0
 11 24  1  0
 11 25  1  0
 14 26  1  0
 14 27  1  0
 15 28  1  0
M  END
>  <filename_input>  (24) 
7PRI_7TI_docked.sdf

>  <pdb_id>  (24) 
7PRI_7TI

>  <pose_rank>  (24) 
23

>  <num_atoms_heavy>  (24) 
20

>  <num_torsions>  (24) 
3

>  <pose>  (24) 
[56.825861251425884, -37.25593913361381, -19.867835266299327, 0.2490581603274605, -1.3045573042555816, -3.197552755782628, -0.1911515089694647, -2.0179916297394604, 1.1898178482984012]

>  <energy>  (24) 
-56.319491645709924

>  <inter_energy>  (24) 
-98.778389028822

>  <intra_energy>  (24) 
54.24267357601753

>  <rmsd>  (24) 
13.2078

>  <sdf_rank>  (24) 
0

$$$$

     RDKit          3D

 28 28  0  0  0  0  0  0  0  0999 V2000
   41.7185  -36.1498  -21.1295 Cl  0  0  0  0  0  0  0  0  0  0  0  0
   44.2898  -36.8628  -18.5386 O   0  0  0  0  0  0  0  0  0  0  0  0
   43.0881  -37.6065  -18.2126 S   0  0  2  0  0  0  0  0  0  0  0  0
   41.8947  -36.8430  -18.0238 O   0  0  0  0  0  0  0  0  0  0  0  0
   43.3858  -38.4763  -16.9505 N   0  0  0  0  0  0  0  0  0  0  0  0
   42.7579  -38.7483  -19.5729 C   0  0  0  0  0  0  0  0  0  0  0  0
   42.1986  -39.9803  -19.2753 C   0  0  0  0  0  0  0  0  0  0  0  0
   42.0933  -40.9780  -20.2468 C   0  0  0  0  0  0  0  0  0  0  0  0
   41.2399  -42.4793  -19.8388 S   0  0  2  0  0  0  0  0  0  0  0  0
   40.5013  -42.2498  -18.6176 O   0  0  0  0  0  0  0  0  0  0  0  0
   42.3180  -43.6139  -19.5092 N   0  0  0  0  0  0  0  0  0  0  0  0
   40.5050  -42.8901  -21.0078 O   0  0  0  0  0  0  0  0  0  0  0  0
   42.6076  -40.7567  -21.5491 C   0  0  0  0  0  0  0  0  0  0  0  0
   42.6075  -41.7202  -22.5275 N   0  0  0  0  0  0  0  0  0  0  0  0
   43.1175  -39.4782  -21.8306 C   0  0  0  0  0  0  0  0  0  0  0  0
   43.1520  -38.4542  -20.8805 C   0  0  0  0  0  0  0  0  0  0  0  0
   43.2776  -37.0236  -21.2302 C   0  0  0  0  0  0  0  0  0  0  0  0
   44.3825  -36.4278  -21.6336 C   0  0  0  0  0  0  0  0  0  0  0  0
   44.5506  -34.7233  -21.9541 Cl  0  0  0  0  0  0  0  0  0  0  0  0
   45.7534  -37.3982  -21.9785 Cl  0  0  0  0  0  0  0  0  0  0  0  0
   43.1971  -37.9249  -16.1012 H   0  0  0  0  0  0  0  0  0  0  0  0
   42.7827  -39.3112  -16.9588 H   0  0  0  0  0  0  0  0  0  0  0  0
   41.8313  -40.1758  -18.2570 H   0  0  0  0  0  0  0  0  0  0  0  0
   42.4116  -43.7124  -18.4882 H   0  0  0  0  0  0  0  0  0  0  0  0
   42.0087  -44.5093  -19.9135 H   0  0  0  0  0  0  0  0  0  0  0  0
   42.9936  -41.5086  -23.4587 H   0  0  0  0  0  0  0  0  0  0  0  0
   42.2214  -42.6545  -22.3302 H   0  0  0  0  0  0  0  0  0  0  0  0
   43.5051  -39.2751  -22.8398 H   0  0  0  0  0  0  0  0  0  0  0  0
  1 17  1  0
  2  3  2  0
  3  4  2  0
  3  5  1  1
  3  6  1  0
  6  7  2  0
  6 16  1  0
  7  8  1  0
  8  9  1  0
  8 13  2  0
  9 10  2  0
  9 11  1  1
  9 12  2  0
 13 14  1  0
 13 15  1  0
 15 16  2  0
 16 17  1  0
 17 18  2  3
 18 19  1  0
 18 20  1  0
  5 21  1  0
  5 22  1  0
  7 23  1  0
 11 24  1  0
 11 25  1  0
 14 26  1  0
 14 27  1  0
 15 28  1  0
M  END
>  <filename_input>  (25) 
7PRI_7TI_docked.sdf

>  <pdb_id>  (25) 
7PRI_7TI

>  <pose_rank>  (25) 
24

>  <num_atoms_heavy>  (25) 
20

>  <num_torsions>  (25) 
3

>  <pose>  (25) 
[42.75791234660453, -38.74832448607436, -19.572949523858863, -3.394125033901618, -1.2996551492762634, 0.29341086264241134, 0.0516120993012563, 2.695934054139673, -1.5339426994532976]

>  <energy>  (25) 
-22.46027563980452

>  <inter_energy>  (25) 
-42.64886292434097

>  <intra_energy>  (25) 
44.00594808087277

>  <rmsd>  (25) 
13.098

>  <sdf_rank>  (25) 
0

$$$$

     RDKit          3D

 28 28  0  0  0  0  0  0  0  0999 V2000
   51.7380  -47.7200  -13.3000 Cl  0  0  0  0  0  0  0  0  0  0  0  0
   49.8510  -44.2700  -15.8960 O   0  0  0  0  0  0  0  0  0  0  0  0
   50.9980  -44.7010  -15.1200 S   0  0  2  0  0  0  0  0  0  0  0  0
   52.1680  -43.8840  -15.2000 O   0  0  0  0  0  0  0  0  0  0  0  0
   51.3300  -46.1720  -15.5250 N   0  0  0  0  0  0  0  0  0  0  0  0
   50.5100  -44.7310  -13.3810 C   0  0  0  0  0  0  0  0  0  0  0  0
   49.2790  -44.1980  -13.0350 C   0  0  0  0  0  0  0  0  0  0  0  0
   48.9220  -44.0170  -11.6970 C   0  0  0  0  0  0  0  0  0  0  0  0
   47.2790  -43.4630  -11.3200 S   0  0  2  0  0  0  0  0  0  0  0  0
   46.5150  -44.6100  -10.8840 O   0  0  0  0  0  0  0  0  0  0  0  0
   46.5870  -42.9430  -12.6650 N   0  0  0  0  0  0  0  0  0  0  0  0
   47.3960  -42.3450  -10.4190 O   0  0  0  0  0  0  0  0  0  0  0  0
   49.8440  -44.3340  -10.6680 C   0  0  0  0  0  0  0  0  0  0  0  0
   49.5880  -44.1080   -9.3380 N   0  0  0  0  0  0  0  0  0  0  0  0
   51.0600  -44.9230  -11.0530 C   0  0  0  0  0  0  0  0  0  0  0  0
   51.3860  -45.1760  -12.3880 C   0  0  0  0  0  0  0  0  0  0  0  0
   52.4240  -46.1430  -12.8030 C   0  0  0  0  0  0  0  0  0  0  0  0
   53.7250  -45.9310  -12.7710 C   0  0  0  0  0  0  0  0  0  0  0  0
   54.9420  -47.0360  -13.3490 Cl  0  0  0  0  0  0  0  0  0  0  0  0
   54.3010  -44.5060  -12.0110 Cl  0  0  0  0  0  0  0  0  0  0  0  0
   51.4585  -46.7411  -14.6762 H   0  0  0  0  0  0  0  0  0  0  0  0
   50.5549  -46.5577  -16.0830 H   0  0  0  0  0  0  0  0  0  0  0  0
   48.5711  -43.9127  -13.8271 H   0  0  0  0  0  0  0  0  0  0  0  0
   45.7856  -42.3408  -12.4282 H   0  0  0  0  0  0  0  0  0  0  0  0
   47.2701  -42.4043  -13.2165 H   0  0  0  0  0  0  0  0  0  0  0  0
   50.2921  -44.3566   -8.6285 H   0  0  0  0  0  0  0  0  0  0  0  0
   48.6919  -43.6899   -9.0498 H   0  0  0  0  0  0  0  0  0  0  0  0
   51.7848  -45.1961  -10.2719 H   0  0  0  0  0  0  0  0  0  0  0  0
  1 17  1  0
  2  3  2  0
  3  4  2  0
  3  5  1  6
  3  6  1  0
  6  7  2  0
  6 16  1  0
  7  8  1  0
  8  9  1  0
  8 13  2  0
  9 10  2  0
  9 11  1  6
  9 12  2  0
 13 14  1  0
 13 15  1  0
 15 16  2  0
 16 17  1  0
 17 18  2  3
 18 19  1  0
 18 20  1  0
  5 21  1  0
  5 22  1  0
  7 23  1  0
 11 24  1  0
 11 25  1  0
 14 26  1  0
 14 27  1  0
 15 28  1  0
M  END
>  <filename_input>  (26) 
7PRI_7TI_docked.sdf

>  <pdb_id>  (26) 
7PRI_7TI

>  <pose_rank>  (26) 
25

>  <num_atoms_heavy>  (26) 
20

>  <num_torsions>  (26) 
3

>  <pose>  (26) 
[50.51, -44.731, -13.381, 1e-06, 1e-06, 1e-06, 0.0, 0.0, 0.0]

>  <energy>  (26) 
-691.0487125344088

>  <inter_energy>  (26) 
-738.9266658962979

>  <intra_energy>  (26) 
53.72864145730103

>  <rmsd>  (26) 
0.0

>  <sdf_rank>  (26) 
0

$$$$
