
     RDKit          3D

 57 61  0  0  0  0  0  0  0  0999 V2000
  128.0932   21.7328   -5.7619 C   0  0  0  0  0  0  0  0  0  0  0  0
  126.7650   21.8630   -6.1283 C   0  0  0  0  0  0  0  0  0  0  0  0
  125.8156   20.9794   -5.6242 C   0  0  0  0  0  0  0  0  0  0  0  0
  124.4366   21.0971   -5.9758 N   0  0  0  0  0  0  0  0  0  0  0  0
  123.4235   21.1493   -5.0815 C   0  0  0  0  0  0  0  0  0  0  0  0
  123.5577   21.1563   -3.8629 O   0  0  0  0  0  0  0  0  0  0  0  0
  122.1289   21.1523   -5.8432 C   0  0  0  0  0  0  0  0  0  0  0  0
  122.5069   20.6223   -7.2281 C   0  0  1  0  0  0  0  0  0  0  0  0
  121.6227   21.1117   -8.3112 N   0  0  1  0  0  0  0  0  0  0  0  0
  121.9829   20.5589   -9.6274 C   0  0  0  0  0  0  0  0  0  0  0  0
  121.1067   21.1370  -10.7470 C   0  0  0  0  0  0  0  0  0  0  0  0
  119.6739   21.0264  -10.4160 N   0  0  0  0  0  0  0  0  0  0  0  0
  118.6652   20.7057  -11.2614 C   0  0  0  0  0  0  0  0  0  0  0  0
  117.4867   20.7546  -10.9067 O   0  0  0  0  0  0  0  0  0  0  0  0
  118.9150   20.2456  -12.6666 C   0  0  0  0  0  0  0  0  0  0  0  0
  120.1665   20.0900  -13.2118 O   0  0  0  0  0  0  0  0  0  0  0  0
  119.9768   19.6590  -14.5100 C   0  0  0  0  0  0  0  0  0  0  0  0
  118.6909   19.4542  -14.7522 C   0  0  0  0  0  0  0  0  0  0  0  0
  117.9795   19.8168  -13.5420 C   0  0  0  0  0  0  0  0  0  0  0  0
  119.3409   21.5167   -9.0710 C   0  0  0  0  0  0  0  0  0  0  0  0
  120.2026   20.8303   -8.0441 C   0  0  0  0  0  0  0  0  0  0  0  0
  123.9626   21.0791   -7.3629 C   0  0  0  0  0  0  0  0  0  0  0  0
  126.2258   19.9524   -4.7777 C   0  0  0  0  0  0  0  0  0  0  0  0
  127.5573   19.8176   -4.4398 C   0  0  0  0  0  0  0  0  0  0  0  0
  128.5142   20.7126   -4.9088 C   0  0  0  0  0  0  0  0  0  0  0  0
  129.9376   20.5702   -4.5249 C   0  0  0  0  0  0  0  0  0  0  0  0
  130.9532   20.6803   -5.4743 C   0  0  0  0  0  0  0  0  0  0  0  0
  132.2831   20.5366   -5.1229 C   0  0  0  0  0  0  0  0  0  0  0  0
  132.5827   20.2919   -3.8097 C   0  0  0  0  0  0  0  0  0  0  0  0
  131.6255   20.1405   -2.8467 C   0  0  0  0  0  0  0  0  0  0  0  0
  130.2980   20.2588   -3.2171 C   0  0  0  0  0  0  0  0  0  0  0  0
  133.8905   20.1570   -3.4512 F   0  0  0  0  0  0  0  0  0  0  0  0
  128.8320   22.4486   -6.1514 H   0  0  0  0  0  0  0  0  0  0  0  0
  126.4601   22.6643   -6.8175 H   0  0  0  0  0  0  0  0  0  0  0  0
  121.3913   20.4936   -5.3614 H   0  0  0  0  0  0  0  0  0  0  0  0
  121.6671   22.1498   -5.8854 H   0  0  0  0  0  0  0  0  0  0  0  0
  122.3878   19.5330   -7.3240 H   0  0  0  0  0  0  0  0  0  0  0  0
  121.7629   22.1319   -8.3324 H   0  0  0  0  0  0  0  0  0  0  0  0
  123.0353   20.7993   -9.8388 H   0  0  0  0  0  0  0  0  0  0  0  0
  121.8246   19.4708   -9.5964 H   0  0  0  0  0  0  0  0  0  0  0  0
  121.3609   22.1976  -10.8898 H   0  0  0  0  0  0  0  0  0  0  0  0
  121.2960   20.5647  -11.6672 H   0  0  0  0  0  0  0  0  0  0  0  0
  120.7832   19.5067  -15.2425 H   0  0  0  0  0  0  0  0  0  0  0  0
  118.2491   19.0819  -15.6882 H   0  0  0  0  0  0  0  0  0  0  0  0
  116.8946   19.7552  -13.3707 H   0  0  0  0  0  0  0  0  0  0  0  0
  119.5146   22.6019   -9.0255 H   0  0  0  0  0  0  0  0  0  0  0  0
  118.2838   21.2988   -8.8589 H   0  0  0  0  0  0  0  0  0  0  0  0
  120.0310   19.7447   -8.0912 H   0  0  0  0  0  0  0  0  0  0  0  0
  119.9415   21.2056   -7.0437 H   0  0  0  0  0  0  0  0  0  0  0  0
  124.0218   22.0810   -7.8132 H   0  0  0  0  0  0  0  0  0  0  0  0
  124.5613   20.4266   -8.0154 H   0  0  0  0  0  0  0  0  0  0  0  0
  125.4851   19.2451   -4.3764 H   0  0  0  0  0  0  0  0  0  0  0  0
  127.8676   18.9878   -3.7878 H   0  0  0  0  0  0  0  0  0  0  0  0
  130.6914   20.8854   -6.5228 H   0  0  0  0  0  0  0  0  0  0  0  0
  133.0787   20.6168   -5.8783 H   0  0  0  0  0  0  0  0  0  0  0  0
  131.9033   19.9298   -1.8034 H   0  0  0  0  0  0  0  0  0  0  0  0
  129.5119   20.1038   -2.4634 H   0  0  0  0  0  0  0  0  0  0  0  0
  1  2  2  0
  1 25  1  0
  2  3  1  0
  3  4  1  0
  3 23  2  0
  4  5  1  0
  4 22  1  0
  5  6  2  0
  5  7  1  0
  8  7  1  0
  8  9  1  0
  8 22  1  0
  9 10  1  0
  9 21  1  0
 10 11  1  0
 11 12  1  0
 12 13  1  0
 12 20  1  0
 13 14  2  0
 13 15  1  0
 15 16  1  0
 15 19  2  0
 16 17  1  0
 17 18  2  0
 18 19  1  0
 20 21  1  0
 23 24  1  0
 24 25  2  0
 25 26  1  0
 26 27  2  0
 26 31  1  0
 27 28  1  0
 28 29  2  0
 29 30  1  0
 29 32  1  0
 30 31  2  0
  1 33  1  0
  2 34  1  0
  7 35  1  0
  7 36  1  0
  8 37  1  1
  9 38  1  6
 10 39  1  0
 10 40  1  0
 11 41  1  0
 11 42  1  0
 17 43  1  0
 18 44  1  0
 19 45  1  0
 20 46  1  0
 20 47  1  0
 21 48  1  0
 21 49  1  0
 22 50  1  0
 22 51  1  0
 23 52  1  0
 24 53  1  0
 27 54  1  0
 28 55  1  0
 30 56  1  0
 31 57  1  0
M  CHG  1   9   1
M  END
>  <filename_input>  (1) 
7PRM_81I_docked.sdf

>  <pdb_id>  (1) 
7PRM_81I

>  <pose_rank>  (1) 
0

>  <num_atoms_heavy>  (1) 
32

>  <num_torsions>  (1) 
4

>  <pose>  (1) 
[124.4365838377812, 21.097098634375033, -5.975788547940289, -5.8497828279651936, 0.11198835752042763, -2.213941054612471, -6.268888791856703, -0.011300165462756221, 0.058324568488607065, -3.5144380346362754]

>  <energy>  (1) 
-1187.2774422874586

>  <inter_energy>  (1) 
-1202.9680304901285

>  <intra_energy>  (1) 
25.943137072566117

>  <rmsd>  (1) 
0.149602

>  <sdf_rank>  (1) 
0

$$$$

     RDKit          3D

 57 61  0  0  0  0  0  0  0  0999 V2000
  122.1735   20.9725  -10.4464 C   0  0  0  0  0  0  0  0  0  0  0  0
  122.9380   21.0908   -9.2989 C   0  0  0  0  0  0  0  0  0  0  0  0
  122.4480   20.6169   -8.0858 C   0  0  0  0  0  0  0  0  0  0  0  0
  123.2196   20.7151   -6.8883 N   0  0  0  0  0  0  0  0  0  0  0  0
  122.7930   21.3140   -5.7534 C   0  0  0  0  0  0  0  0  0  0  0  0
  121.6795   21.7993   -5.5873 O   0  0  0  0  0  0  0  0  0  0  0  0
  123.9287   21.3132   -4.7704 C   0  0  0  0  0  0  0  0  0  0  0  0
  125.1711   21.0781   -5.6323 C   0  0  1  0  0  0  0  0  0  0  0  0
  126.2782   20.4129   -4.9069 N   0  0  1  0  0  0  0  0  0  0  0  0
  127.5684   20.5418   -5.6042 C   0  0  0  0  0  0  0  0  0  0  0  0
  128.6865   19.7811   -4.8787 C   0  0  0  0  0  0  0  0  0  0  0  0
  128.7339   20.1362   -3.4482 N   0  0  0  0  0  0  0  0  0  0  0  0
  129.8422   20.3238   -2.6921 C   0  0  0  0  0  0  0  0  0  0  0  0
  129.7697   20.5048   -1.4759 O   0  0  0  0  0  0  0  0  0  0  0  0
  131.2194   20.3522   -3.2846 C   0  0  0  0  0  0  0  0  0  0  0  0
  131.5038   20.8271   -4.5421 O   0  0  0  0  0  0  0  0  0  0  0  0
  132.8662   20.6822   -4.7161 C   0  0  0  0  0  0  0  0  0  0  0  0
  133.4352   20.2369   -3.6061 C   0  0  0  0  0  0  0  0  0  0  0  0
  132.3671   20.0332   -2.6470 C   0  0  0  0  0  0  0  0  0  0  0  0
  127.4254   20.0719   -2.7819 C   0  0  0  0  0  0  0  0  0  0  0  0
  126.4243   20.9124   -3.5298 C   0  0  0  0  0  0  0  0  0  0  0  0
  124.6077   20.2533   -6.7935 C   0  0  0  0  0  0  0  0  0  0  0  0
  121.1743   20.0553   -8.0409 C   0  0  0  0  0  0  0  0  0  0  0  0
  120.4112   19.9659   -9.1876 C   0  0  0  0  0  0  0  0  0  0  0  0
  120.8995   20.4050  -10.4145 C   0  0  0  0  0  0  0  0  0  0  0  0
  120.0798   20.2872  -11.6425 C   0  0  0  0  0  0  0  0  0  0  0  0
  120.6761   20.2108  -12.9008 C   0  0  0  0  0  0  0  0  0  0  0  0
  119.9148   20.1125  -14.0513 C   0  0  0  0  0  0  0  0  0  0  0  0
  118.5520   20.0815  -13.9249 C   0  0  0  0  0  0  0  0  0  0  0  0
  117.9167   20.1880  -12.7200 C   0  0  0  0  0  0  0  0  0  0  0  0
  118.6896   20.3141  -11.5798 C   0  0  0  0  0  0  0  0  0  0  0  0
  117.7926   19.9763  -15.0515 F   0  0  0  0  0  0  0  0  0  0  0  0
  122.5787   21.3333  -11.4032 H   0  0  0  0  0  0  0  0  0  0  0  0
  123.9322   21.5592   -9.3457 H   0  0  0  0  0  0  0  0  0  0  0  0
  123.9934   22.2791   -4.2481 H   0  0  0  0  0  0  0  0  0  0  0  0
  123.8081   20.5495   -3.9879 H   0  0  0  0  0  0  0  0  0  0  0  0
  125.6542   22.0098   -5.9618 H   0  0  0  0  0  0  0  0  0  0  0  0
  126.0185   19.4166   -4.8750 H   0  0  0  0  0  0  0  0  0  0  0  0
  127.4650   20.1376   -6.6220 H   0  0  0  0  0  0  0  0  0  0  0  0
  127.8394   21.6076   -5.6280 H   0  0  0  0  0  0  0  0  0  0  0  0
  128.5052   18.7003   -4.9739 H   0  0  0  0  0  0  0  0  0  0  0  0
  129.6480   20.0558   -5.3371 H   0  0  0  0  0  0  0  0  0  0  0  0
  133.4049   20.9060   -5.6487 H   0  0  0  0  0  0  0  0  0  0  0  0
  134.5081   20.0568   -3.4436 H   0  0  0  0  0  0  0  0  0  0  0  0
  132.4704   19.6880   -1.6077 H   0  0  0  0  0  0  0  0  0  0  0  0
  127.0795   19.0279   -2.7586 H   0  0  0  0  0  0  0  0  0  0  0  0
  127.5238   20.4554   -1.7556 H   0  0  0  0  0  0  0  0  0  0  0  0
  126.7714   21.9559   -3.5555 H   0  0  0  0  0  0  0  0  0  0  0  0
  125.4515   20.8559   -3.0194 H   0  0  0  0  0  0  0  0  0  0  0  0
  124.6512   19.1770   -6.5707 H   0  0  0  0  0  0  0  0  0  0  0  0
  125.1711   20.3839   -7.7292 H   0  0  0  0  0  0  0  0  0  0  0  0
  120.7745   19.6812   -7.0869 H   0  0  0  0  0  0  0  0  0  0  0  0
  119.3987   19.5399   -9.1306 H   0  0  0  0  0  0  0  0  0  0  0  0
  121.7731   20.2291  -12.9799 H   0  0  0  0  0  0  0  0  0  0  0  0
  120.3915   20.0606  -15.0413 H   0  0  0  0  0  0  0  0  0  0  0  0
  116.8185   20.1740  -12.6582 H   0  0  0  0  0  0  0  0  0  0  0  0
  118.1960   20.4380  -10.6046 H   0  0  0  0  0  0  0  0  0  0  0  0
  1  2  2  0
  1 25  1  0
  2  3  1  0
  3  4  1  0
  3 23  2  0
  4  5  1  0
  4 22  1  0
  5  6  2  0
  5  7  1  0
  8  7  1  0
  8  9  1  0
  8 22  1  0
  9 10  1  0
  9 21  1  0
 10 11  1  0
 11 12  1  0
 12 13  1  0
 12 20  1  0
 13 14  2  0
 13 15  1  0
 15 16  1  0
 15 19  2  0
 16 17  1  0
 17 18  2  0
 18 19  1  0
 20 21  1  0
 23 24  1  0
 24 25  2  0
 25 26  1  0
 26 27  2  0
 26 31  1  0
 27 28  1  0
 28 29  2  0
 29 30  1  0
 29 32  1  0
 30 31  2  0
  1 33  1  0
  2 34  1  0
  7 35  1  0
  7 36  1  0
  8 37  1  6
  9 38  1  1
 10 39  1  0
 10 40  1  0
 11 41  1  0
 11 42  1  0
 17 43  1  0
 18 44  1  0
 19 45  1  0
 20 46  1  0
 20 47  1  0
 21 48  1  0
 21 49  1  0
 22 50  1  0
 22 51  1  0
 23 52  1  0
 24 53  1  0
 27 54  1  0
 28 55  1  0
 30 56  1  0
 31 57  1  0
M  CHG  1   9   1
M  END
>  <filename_input>  (2) 
7PRM_81I_docked.sdf

>  <pdb_id>  (2) 
7PRM_81I

>  <pose_rank>  (2) 
1

>  <num_atoms_heavy>  (2) 
32

>  <num_torsions>  (2) 
4

>  <pose>  (2) 
[123.21964469034214, 20.71510647252355, -6.888312774692489, -1.7339039684955326, 0.8379854942652057, 2.4151105280472174, 6.558136949790512, 0.5398167830629376, 4.4638530943280745, -2.2774351608610717]

>  <energy>  (2) 
-906.8541049021064

>  <inter_energy>  (2) 
-923.5492121939707

>  <intra_energy>  (2) 
18.950778379123676

>  <rmsd>  (2) 
11.6376

>  <sdf_rank>  (2) 
0

$$$$

     RDKit          3D

 57 61  0  0  0  0  0  0  0  0999 V2000
  120.4938   20.2057   -9.0190 C   0  0  0  0  0  0  0  0  0  0  0  0
  121.4139   20.4486   -8.0142 C   0  0  0  0  0  0  0  0  0  0  0  0
  122.5878   21.1391   -8.2995 C   0  0  0  0  0  0  0  0  0  0  0  0
  123.5494   21.4141   -7.2803 N   0  0  0  0  0  0  0  0  0  0  0  0
  123.3130   21.2875   -5.9548 C   0  0  0  0  0  0  0  0  0  0  0  0
  122.2704   20.8732   -5.4604 O   0  0  0  0  0  0  0  0  0  0  0  0
  124.5244   21.7803   -5.2159 C   0  0  0  0  0  0  0  0  0  0  0  0
  125.2720   22.6304   -6.2456 C   0  0  1  0  0  0  0  0  0  0  0  0
  126.7340   22.6904   -6.0148 N   0  0  1  0  0  0  0  0  0  0  0  0
  127.1253   22.1134   -4.7181 C   0  0  0  0  0  0  0  0  0  0  0  0
  128.6321   22.2549   -4.4630 C   0  0  0  0  0  0  0  0  0  0  0  0
  129.4173   21.7578   -5.6079 N   0  0  0  0  0  0  0  0  0  0  0  0
  130.5677   21.0441   -5.5579 C   0  0  0  0  0  0  0  0  0  0  0  0
  131.2057   20.7776   -6.5772 O   0  0  0  0  0  0  0  0  0  0  0  0
  131.1224   20.5102   -4.2711 C   0  0  0  0  0  0  0  0  0  0  0  0
  132.2846   20.9590   -3.6919 O   0  0  0  0  0  0  0  0  0  0  0  0
  132.4532   20.2255   -2.5340 C   0  0  0  0  0  0  0  0  0  0  0  0
  131.4158   19.4278   -2.3298 C   0  0  0  0  0  0  0  0  0  0  0  0
  130.5208   19.6176   -3.4546 C   0  0  0  0  0  0  0  0  0  0  0  0
  128.9692   22.2875   -6.9037 C   0  0  0  0  0  0  0  0  0  0  0  0
  127.4969   22.0276   -7.0854 C   0  0  0  0  0  0  0  0  0  0  0  0
  124.8803   21.9588   -7.5652 C   0  0  0  0  0  0  0  0  0  0  0  0
  122.8330   21.5501   -9.6074 C   0  0  0  0  0  0  0  0  0  0  0  0
  121.9192   21.2796  -10.6059 C   0  0  0  0  0  0  0  0  0  0  0  0
  120.7255   20.6193  -10.3310 C   0  0  0  0  0  0  0  0  0  0  0  0
  119.7430   20.3507  -11.4063 C   0  0  0  0  0  0  0  0  0  0  0  0
  118.3751   20.3122  -11.1377 C   0  0  0  0  0  0  0  0  0  0  0  0
  117.4545   20.0502  -12.1360 C   0  0  0  0  0  0  0  0  0  0  0  0
  117.9197   19.8378  -13.4059 C   0  0  0  0  0  0  0  0  0  0  0  0
  119.2502   19.8299  -13.7163 C   0  0  0  0  0  0  0  0  0  0  0  0
  120.1616   20.0655  -12.7028 C   0  0  0  0  0  0  0  0  0  0  0  0
  117.0205   19.5871  -14.3987 F   0  0  0  0  0  0  0  0  0  0  0  0
  119.5605   19.6756   -8.7782 H   0  0  0  0  0  0  0  0  0  0  0  0
  121.2175   20.0959   -6.9910 H   0  0  0  0  0  0  0  0  0  0  0  0
  124.2310   22.3882   -4.3473 H   0  0  0  0  0  0  0  0  0  0  0  0
  125.1401   20.9589   -4.8209 H   0  0  0  0  0  0  0  0  0  0  0  0
  125.0009   23.6958   -6.2088 H   0  0  0  0  0  0  0  0  0  0  0  0
  126.9650   23.6941   -6.0124 H   0  0  0  0  0  0  0  0  0  0  0  0
  126.5782   22.6329   -3.9175 H   0  0  0  0  0  0  0  0  0  0  0  0
  126.8801   21.0411   -4.7328 H   0  0  0  0  0  0  0  0  0  0  0  0
  128.8698   23.3163   -4.2991 H   0  0  0  0  0  0  0  0  0  0  0  0
  128.8924   21.6570   -3.5772 H   0  0  0  0  0  0  0  0  0  0  0  0
  133.3290   20.2943   -1.8720 H   0  0  0  0  0  0  0  0  0  0  0  0
  131.2632   18.7533   -1.4744 H   0  0  0  0  0  0  0  0  0  0  0  0
  129.5464   19.1318   -3.6117 H   0  0  0  0  0  0  0  0  0  0  0  0
  129.1547   23.3712   -6.9379 H   0  0  0  0  0  0  0  0  0  0  0  0
  129.5261   21.7879   -7.7100 H   0  0  0  0  0  0  0  0  0  0  0  0
  127.3108   20.9441   -7.0485 H   0  0  0  0  0  0  0  0  0  0  0  0
  127.1765   22.4276   -8.0587 H   0  0  0  0  0  0  0  0  0  0  0  0
  125.5874   21.1572   -7.8252 H   0  0  0  0  0  0  0  0  0  0  0  0
  124.8899   22.6498   -8.4210 H   0  0  0  0  0  0  0  0  0  0  0  0
  123.7595   22.0929   -9.8459 H   0  0  0  0  0  0  0  0  0  0  0  0
  122.1385   21.5917  -11.6376 H   0  0  0  0  0  0  0  0  0  0  0  0
  118.0215   20.4937  -10.1120 H   0  0  0  0  0  0  0  0  0  0  0  0
  116.3774   20.0135  -11.9156 H   0  0  0  0  0  0  0  0  0  0  0  0
  119.5881   19.6410  -14.7459 H   0  0  0  0  0  0  0  0  0  0  0  0
  121.2380   20.0268  -12.9257 H   0  0  0  0  0  0  0  0  0  0  0  0
  1  2  2  0
  1 25  1  0
  2  3  1  0
  3  4  1  0
  3 23  2  0
  4  5  1  0
  4 22  1  0
  5  6  2  0
  5  7  1  0
  8  7  1  0
  8  9  1  0
  8 22  1  0
  9 10  1  0
  9 21  1  0
 10 11  1  0
 11 12  1  0
 12 13  1  0
 12 20  1  0
 13 14  2  0
 13 15  1  0
 15 16  1  0
 15 19  2  0
 16 17  1  0
 17 18  2  0
 18 19  1  0
 20 21  1  0
 23 24  1  0
 24 25  2  0
 25 26  1  0
 26 27  2  0
 26 31  1  0
 27 28  1  0
 28 29  2  0
 29 30  1  0
 29 32  1  0
 30 31  2  0
  1 33  1  0
  2 34  1  0
  7 35  1  0
  7 36  1  0
  8 37  1  6
  9 38  1  1
 10 39  1  0
 10 40  1  0
 11 41  1  0
 11 42  1  0
 17 43  1  0
 18 44  1  0
 19 45  1  0
 20 46  1  0
 20 47  1  0
 21 48  1  0
 21 49  1  0
 22 50  1  0
 22 51  1  0
 23 52  1  0
 24 53  1  0
 27 54  1  0
 28 55  1  0
 30 56  1  0
 31 57  1  0
M  CHG  1   9   1
M  END
>  <filename_input>  (3) 
7PRM_81I_docked.sdf

>  <pdb_id>  (3) 
7PRM_81I

>  <pose_rank>  (3) 
2

>  <num_atoms_heavy>  (3) 
32

>  <num_torsions>  (3) 
4

>  <pose>  (3) 
[123.54942445981051, 21.414058213795638, -7.2802871725026606, -1.7406541093173205, -0.25958092526302845, 2.994682477369214, -3.327682644783996, -1.9850144003526555, 2.0513285521986666, -2.175359096794038]

>  <energy>  (3) 
-819.7851231794241

>  <inter_energy>  (3) 
-837.5036293860172

>  <intra_energy>  (3) 
27.741642659261856

>  <rmsd>  (3) 
11.5265

>  <sdf_rank>  (3) 
0

$$$$

     RDKit          3D

 57 61  0  0  0  0  0  0  0  0999 V2000
  129.7230   20.9420   -5.4650 C   0  0  0  0  0  0  0  0  0  0  0  0
  128.5115   21.1960   -6.0838 C   0  0  0  0  0  0  0  0  0  0  0  0
  127.3212   20.8770   -5.4377 C   0  0  0  0  0  0  0  0  0  0  0  0
  126.0566   21.1385   -6.0472 N   0  0  0  0  0  0  0  0  0  0  0  0
  125.3978   22.3164   -5.9612 C   0  0  0  0  0  0  0  0  0  0  0  0
  125.8194   23.3214   -5.3996 O   0  0  0  0  0  0  0  0  0  0  0  0
  124.0625   22.1537   -6.6296 C   0  0  0  0  0  0  0  0  0  0  0  0
  123.8508   20.6390   -6.6817 C   0  0  1  0  0  0  0  0  0  0  0  0
  122.9903   20.1995   -7.8045 N   0  0  1  0  0  0  0  0  0  0  0  0
  121.5605   20.1988   -7.4535 C   0  0  0  0  0  0  0  0  0  0  0  0
  120.6923   19.6668   -8.6019 C   0  0  0  0  0  0  0  0  0  0  0  0
  121.0036   20.3526   -9.8696 N   0  0  0  0  0  0  0  0  0  0  0  0
  120.1222   20.7484  -10.8192 C   0  0  0  0  0  0  0  0  0  0  0  0
  120.4997   21.2106  -11.8966 O   0  0  0  0  0  0  0  0  0  0  0  0
  118.6386   20.6776  -10.6126 C   0  0  0  0  0  0  0  0  0  0  0  0
  117.9962   21.1530   -9.4951 O   0  0  0  0  0  0  0  0  0  0  0  0
  116.6508   20.9025   -9.6810 C   0  0  0  0  0  0  0  0  0  0  0  0
  116.4316   20.3908  -10.8828 C   0  0  0  0  0  0  0  0  0  0  0  0
  117.7283   20.2547  -11.5169 C   0  0  0  0  0  0  0  0  0  0  0  0
  122.4410   20.4081  -10.1715 C   0  0  0  0  0  0  0  0  0  0  0  0
  123.1878   21.0159   -9.0135 C   0  0  0  0  0  0  0  0  0  0  0  0
  125.2876   20.1142   -6.7603 C   0  0  0  0  0  0  0  0  0  0  0  0
  127.3701   20.2745   -4.1830 C   0  0  0  0  0  0  0  0  0  0  0  0
  128.5852   20.0030   -3.5871 C   0  0  0  0  0  0  0  0  0  0  0  0
  129.7838   20.3458   -4.2053 C   0  0  0  0  0  0  0  0  0  0  0  0
  131.0819   20.0672   -3.5488 C   0  0  0  0  0  0  0  0  0  0  0  0
  131.1531   19.7913   -2.1837 C   0  0  0  0  0  0  0  0  0  0  0  0
  132.3640   19.5421   -1.5637 C   0  0  0  0  0  0  0  0  0  0  0  0
  133.4991   19.5626   -2.3288 C   0  0  0  0  0  0  0  0  0  0  0  0
  133.4892   19.8613   -3.6620 C   0  0  0  0  0  0  0  0  0  0  0  0
  132.2743   20.1362   -4.2635 C   0  0  0  0  0  0  0  0  0  0  0  0
  134.6967   19.3100   -1.7296 F   0  0  0  0  0  0  0  0  0  0  0  0
  130.6573   21.2159   -5.9770 H   0  0  0  0  0  0  0  0  0  0  0  0
  128.4895   21.6497   -7.0857 H   0  0  0  0  0  0  0  0  0  0  0  0
  123.2698   22.6384   -6.0407 H   0  0  0  0  0  0  0  0  0  0  0  0
  124.0309   22.6181   -7.6263 H   0  0  0  0  0  0  0  0  0  0  0  0
  123.2972   20.2475   -5.8156 H   0  0  0  0  0  0  0  0  0  0  0  0
  123.2815   19.2318   -8.0036 H   0  0  0  0  0  0  0  0  0  0  0  0
  121.4111   19.5615   -6.5694 H   0  0  0  0  0  0  0  0  0  0  0  0
  121.2581   21.2363   -7.2483 H   0  0  0  0  0  0  0  0  0  0  0  0
  120.8779   18.5893   -8.7222 H   0  0  0  0  0  0  0  0  0  0  0  0
  119.6368   19.8542   -8.3553 H   0  0  0  0  0  0  0  0  0  0  0  0
  115.8686   21.1007   -8.9334 H   0  0  0  0  0  0  0  0  0  0  0  0
  115.4565   20.1218  -11.3151 H   0  0  0  0  0  0  0  0  0  0  0  0
  117.9306   19.8816  -12.5318 H   0  0  0  0  0  0  0  0  0  0  0  0
  122.8150   19.3894  -10.3517 H   0  0  0  0  0  0  0  0  0  0  0  0
  122.5981   21.0272  -11.0671 H   0  0  0  0  0  0  0  0  0  0  0  0
  122.8122   22.0337   -8.8314 H   0  0  0  0  0  0  0  0  0  0  0  0
  124.2606   21.0523   -9.2540 H   0  0  0  0  0  0  0  0  0  0  0  0
  125.6196   20.0278   -7.8055 H   0  0  0  0  0  0  0  0  0  0  0  0
  125.4043   19.1088   -6.3297 H   0  0  0  0  0  0  0  0  0  0  0  0
  126.4358   20.0136   -3.6643 H   0  0  0  0  0  0  0  0  0  0  0  0
  128.6064   19.5066   -2.6057 H   0  0  0  0  0  0  0  0  0  0  0  0
  130.2283   19.7716   -1.5884 H   0  0  0  0  0  0  0  0  0  0  0  0
  132.4138   19.3330   -0.4849 H   0  0  0  0  0  0  0  0  0  0  0  0
  134.4235   19.8827   -4.2422 H   0  0  0  0  0  0  0  0  0  0  0  0
  132.2501   20.4147   -5.3274 H   0  0  0  0  0  0  0  0  0  0  0  0
  1  2  2  0
  1 25  1  0
  2  3  1  0
  3  4  1  0
  3 23  2  0
  4  5  1  0
  4 22  1  0
  5  6  2  0
  5  7  1  0
  8  7  1  0
  8  9  1  0
  8 22  1  0
  9 10  1  0
  9 21  1  0
 10 11  1  0
 11 12  1  0
 12 13  1  0
 12 20  1  0
 13 14  2  0
 13 15  1  0
 15 16  1  0
 15 19  2  0
 16 17  1  0
 17 18  2  0
 18 19  1  0
 20 21  1  0
 23 24  1  0
 24 25  2  0
 25 26  1  0
 26 27  2  0
 26 31  1  0
 27 28  1  0
 28 29  2  0
 29 30  1  0
 29 32  1  0
 30 31  2  0
  1 33  1  0
  2 34  1  0
  7 35  1  0
  7 36  1  0
  8 37  1  1
  9 38  1  6
 10 39  1  0
 10 40  1  0
 11 41  1  0
 11 42  1  0
 17 43  1  0
 18 44  1  0
 19 45  1  0
 20 46  1  0
 20 47  1  0
 21 48  1  0
 21 49  1  0
 22 50  1  0
 22 51  1  0
 23 52  1  0
 24 53  1  0
 27 54  1  0
 28 55  1  0
 30 56  1  0
 31 57  1  0
M  CHG  1   9   1
M  END
>  <filename_input>  (4) 
7PRM_81I_docked.sdf

>  <pdb_id>  (4) 
7PRM_81I

>  <pose_rank>  (4) 
3

>  <num_atoms_heavy>  (4) 
32

>  <num_torsions>  (4) 
4

>  <pose>  (4) 
[126.05658405089544, 21.138518866200403, -6.047183741894019, -1.1062923052971192, -0.00853448179072714, -0.49571020816588884, 1.5886197163528615, 0.8225561481309593, -5.498873885542444, 0.12112793337974753]

>  <energy>  (4) 
-695.1359108374722

>  <inter_energy>  (4) 
-691.6538545565554

>  <intra_energy>  (4) 
4.982211952017219

>  <rmsd>  (4) 
2.40199

>  <sdf_rank>  (4) 
0

$$$$

     RDKit          3D

 57 61  0  0  0  0  0  0  0  0999 V2000
  117.4671   19.6804   -1.3606 C   0  0  0  0  0  0  0  0  0  0  0  0
  118.4976   19.6725   -2.2843 C   0  0  0  0  0  0  0  0  0  0  0  0
  118.4465   20.5167   -3.3892 C   0  0  0  0  0  0  0  0  0  0  0  0
  119.5009   20.5382   -4.3520 N   0  0  0  0  0  0  0  0  0  0  0  0
  120.8063   20.7196   -4.0492 C   0  0  0  0  0  0  0  0  0  0  0  0
  121.2582   20.8349   -2.9153 O   0  0  0  0  0  0  0  0  0  0  0  0
  121.5772   20.7963   -5.3360 C   0  0  0  0  0  0  0  0  0  0  0  0
  120.5151   21.1111   -6.3918 C   0  0  1  0  0  0  0  0  0  0  0  0
  120.8613   20.6189   -7.7454 N   0  0  1  0  0  0  0  0  0  0  0  0
  119.6765   20.2092   -8.5174 C   0  0  0  0  0  0  0  0  0  0  0  0
  120.0607   19.6299   -9.8857 C   0  0  0  0  0  0  0  0  0  0  0  0
  120.9733   20.5326  -10.6116 N   0  0  0  0  0  0  0  0  0  0  0  0
  120.9578   20.8129  -11.9369 C   0  0  0  0  0  0  0  0  0  0  0  0
  121.8400   21.4932  -12.4622 O   0  0  0  0  0  0  0  0  0  0  0  0
  119.8586   20.3413  -12.8413 C   0  0  0  0  0  0  0  0  0  0  0  0
  120.0715   19.7026  -14.0389 O   0  0  0  0  0  0  0  0  0  0  0  0
  118.8237   19.4352  -14.5669 C   0  0  0  0  0  0  0  0  0  0  0  0
  117.8705   19.7885  -13.7179 C   0  0  0  0  0  0  0  0  0  0  0  0
  118.5358   20.3689  -12.5678 C   0  0  0  0  0  0  0  0  0  0  0  0
  122.1136   20.9903   -9.8050 C   0  0  0  0  0  0  0  0  0  0  0  0
  121.6224   21.6102   -8.5233 C   0  0  0  0  0  0  0  0  0  0  0  0
  119.2640   20.4582   -5.7965 C   0  0  0  0  0  0  0  0  0  0  0  0
  117.3362   21.3390   -3.5646 C   0  0  0  0  0  0  0  0  0  0  0  0
  116.3029   21.3194   -2.6497 C   0  0  0  0  0  0  0  0  0  0  0  0
  116.3537   20.5053   -1.5222 C   0  0  0  0  0  0  0  0  0  0  0  0
  115.2481   20.5057   -0.5367 C   0  0  0  0  0  0  0  0  0  0  0  0
  114.2479   19.5348   -0.5773 C   0  0  0  0  0  0  0  0  0  0  0  0
  113.2071   19.5377    0.3335 C   0  0  0  0  0  0  0  0  0  0  0  0
  113.1864   20.5173    1.2896 C   0  0  0  0  0  0  0  0  0  0  0  0
  114.1214   21.5115    1.3525 C   0  0  0  0  0  0  0  0  0  0  0  0
  115.1414   21.5128    0.4181 C   0  0  0  0  0  0  0  0  0  0  0  0
  112.1699   20.5245    2.1971 F   0  0  0  0  0  0  0  0  0  0  0  0
  117.5271   19.0227   -0.4809 H   0  0  0  0  0  0  0  0  0  0  0  0
  119.3564   18.9994   -2.1451 H   0  0  0  0  0  0  0  0  0  0  0  0
  122.3320   21.5952   -5.2916 H   0  0  0  0  0  0  0  0  0  0  0  0
  122.1261   19.8683   -5.5542 H   0  0  0  0  0  0  0  0  0  0  0  0
  120.3912   22.1885   -6.5759 H   0  0  0  0  0  0  0  0  0  0  0  0
  121.4542   19.7916   -7.5872 H   0  0  0  0  0  0  0  0  0  0  0  0
  119.1276   19.4444   -7.9484 H   0  0  0  0  0  0  0  0  0  0  0  0
  119.0532   21.0997   -8.6858 H   0  0  0  0  0  0  0  0  0  0  0  0
  120.5585   18.6602   -9.7376 H   0  0  0  0  0  0  0  0  0  0  0  0
  119.1442   19.5092  -10.4819 H   0  0  0  0  0  0  0  0  0  0  0  0
  118.6459   18.9898  -15.5569 H   0  0  0  0  0  0  0  0  0  0  0  0
  116.7864   19.6657  -13.8580 H   0  0  0  0  0  0  0  0  0  0  0  0
  118.0587   20.7546  -11.6547 H   0  0  0  0  0  0  0  0  0  0  0  0
  122.7611   20.1327   -9.5700 H   0  0  0  0  0  0  0  0  0  0  0  0
  122.6806   21.7410  -10.3749 H   0  0  0  0  0  0  0  0  0  0  0  0
  120.9727   22.4663   -8.7579 H   0  0  0  0  0  0  0  0  0  0  0  0
  122.4856   21.9490   -7.9314 H   0  0  0  0  0  0  0  0  0  0  0  0
  119.1710   19.4122   -6.1238 H   0  0  0  0  0  0  0  0  0  0  0  0
  118.3305   20.9491   -6.1089 H   0  0  0  0  0  0  0  0  0  0  0  0
  117.2825   22.0074   -4.4366 H   0  0  0  0  0  0  0  0  0  0  0  0
  115.4232   21.9589   -2.8148 H   0  0  0  0  0  0  0  0  0  0  0  0
  114.2875   18.7515   -1.3486 H   0  0  0  0  0  0  0  0  0  0  0  0
  112.4171   18.7734    0.2908 H   0  0  0  0  0  0  0  0  0  0  0  0
  114.0646   22.2911    2.1265 H   0  0  0  0  0  0  0  0  0  0  0  0
  115.8825   22.3256    0.4299 H   0  0  0  0  0  0  0  0  0  0  0  0
  1  2  2  0
  1 25  1  0
  2  3  1  0
  3  4  1  0
  3 23  2  0
  4  5  1  0
  4 22  1  0
  5  6  2  0
  5  7  1  0
  8  7  1  0
  8  9  1  0
  8 22  1  0
  9 10  1  0
  9 21  1  0
 10 11  1  0
 11 12  1  0
 12 13  1  0
 12 20  1  0
 13 14  2  0
 13 15  1  0
 15 16  1  0
 15 19  2  0
 16 17  1  0
 17 18  2  0
 18 19  1  0
 20 21  1  0
 23 24  1  0
 24 25  2  0
 25 26  1  0
 26 27  2  0
 26 31  1  0
 27 28  1  0
 28 29  2  0
 29 30  1  0
 29 32  1  0
 30 31  2  0
  1 33  1  0
  2 34  1  0
  7 35  1  0
  7 36  1  0
  8 37  1  6
  9 38  1  1
 10 39  1  0
 10 40  1  0
 11 41  1  0
 11 42  1  0
 17 43  1  0
 18 44  1  0
 19 45  1  0
 20 46  1  0
 20 47  1  0
 21 48  1  0
 21 49  1  0
 22 50  1  0
 22 51  1  0
 23 52  1  0
 24 53  1  0
 27 54  1  0
 28 55  1  0
 30 56  1  0
 31 57  1  0
M  CHG  1   9   1
M  END
>  <filename_input>  (5) 
7PRM_81I_docked.sdf

>  <pdb_id>  (5) 
7PRM_81I

>  <pose_rank>  (5) 
4

>  <num_atoms_heavy>  (5) 
32

>  <num_torsions>  (5) 
4

>  <pose>  (5) 
[119.50086520514246, 20.538207866319993, -4.352005137113336, -0.7266058471504547, -0.1523949230723745, -2.8780539337288737, -0.5901904280087185, -2.3084558823115877, 1.363080183214473, 2.1173609574460515]

>  <energy>  (5) 
-399.71515980078067

>  <inter_energy>  (5) 
-419.2166604840329

>  <intra_energy>  (5) 
20.52443099632429

>  <rmsd>  (5) 
9.92134

>  <sdf_rank>  (5) 
0

$$$$

     RDKit          3D

 57 61  0  0  0  0  0  0  0  0999 V2000
  132.0930   18.1575  -13.1985 C   0  0  0  0  0  0  0  0  0  0  0  0
  131.6841   19.0649  -12.2368 C   0  0  0  0  0  0  0  0  0  0  0  0
  132.5925   19.9810  -11.7155 C   0  0  0  0  0  0  0  0  0  0  0  0
  132.1958   20.9362  -10.7309 N   0  0  0  0  0  0  0  0  0  0  0  0
  132.0254   22.2556  -10.9738 C   0  0  0  0  0  0  0  0  0  0  0  0
  132.1358   22.7911  -12.0712 O   0  0  0  0  0  0  0  0  0  0  0  0
  131.7255   22.9352   -9.6683 C   0  0  0  0  0  0  0  0  0  0  0  0
  132.2095   21.9429   -8.6087 C   0  0  1  0  0  0  0  0  0  0  0  0
  131.4845   22.0503   -7.3214 N   0  0  1  0  0  0  0  0  0  0  0  0
  130.1116   21.5244   -7.4008 C   0  0  0  0  0  0  0  0  0  0  0  0
  129.3513   21.7154   -6.0814 C   0  0  0  0  0  0  0  0  0  0  0  0
  130.1293   21.2053   -4.9372 N   0  0  0  0  0  0  0  0  0  0  0  0
  129.6526   20.5256   -3.8666 C   0  0  0  0  0  0  0  0  0  0  0  0
  130.3733   20.2457   -2.9078 O   0  0  0  0  0  0  0  0  0  0  0  0
  128.2336   20.0469   -3.7902 C   0  0  0  0  0  0  0  0  0  0  0  0
  127.1811   20.8294   -3.3809 O   0  0  0  0  0  0  0  0  0  0  0  0
  126.0538   20.0342   -3.4463 C   0  0  0  0  0  0  0  0  0  0  0  0
  126.3462   18.8488   -3.9596 C   0  0  0  0  0  0  0  0  0  0  0  0
  127.7743   18.8477   -4.2101 C   0  0  0  0  0  0  0  0  0  0  0  0
  131.5192   21.6824   -4.9107 C   0  0  0  0  0  0  0  0  0  0  0  0
  132.1943   21.3764   -6.2217 C   0  0  0  0  0  0  0  0  0  0  0  0
  132.0206   20.5973   -9.3155 C   0  0  0  0  0  0  0  0  0  0  0  0
  133.9150   19.9486  -12.1508 C   0  0  0  0  0  0  0  0  0  0  0  0
  134.3166   19.0221  -13.0918 C   0  0  0  0  0  0  0  0  0  0  0  0
  133.4133   18.1209  -13.6473 C   0  0  0  0  0  0  0  0  0  0  0  0
  133.8503   17.1432  -14.6704 C   0  0  0  0  0  0  0  0  0  0  0  0
  135.2020   16.9639  -14.9630 C   0  0  0  0  0  0  0  0  0  0  0  0
  135.6144   16.0606  -15.9257 C   0  0  0  0  0  0  0  0  0  0  0  0
  134.6586   15.3336  -16.5829 C   0  0  0  0  0  0  0  0  0  0  0  0
  133.3204   15.4952  -16.3596 C   0  0  0  0  0  0  0  0  0  0  0  0
  132.9205   16.4221  -15.4140 C   0  0  0  0  0  0  0  0  0  0  0  0
  135.0546   14.4347  -17.5275 F   0  0  0  0  0  0  0  0  0  0  0  0
  131.3618   17.4506  -13.6175 H   0  0  0  0  0  0  0  0  0  0  0  0
  130.6419   19.0620  -11.8849 H   0  0  0  0  0  0  0  0  0  0  0  0
  132.2712   23.8870   -9.5896 H   0  0  0  0  0  0  0  0  0  0  0  0
  130.6596   23.1833   -9.5575 H   0  0  0  0  0  0  0  0  0  0  0  0
  133.2476   22.1189   -8.2903 H   0  0  0  0  0  0  0  0  0  0  0  0
  131.4400   23.0597   -7.1213 H   0  0  0  0  0  0  0  0  0  0  0  0
  129.5736   22.0529   -8.2016 H   0  0  0  0  0  0  0  0  0  0  0  0
  130.1700   20.4458   -7.6090 H   0  0  0  0  0  0  0  0  0  0  0  0
  129.1555   22.7875   -5.9324 H   0  0  0  0  0  0  0  0  0  0  0  0
  128.4081   21.1523   -6.1391 H   0  0  0  0  0  0  0  0  0  0  0  0
  125.0507   20.3430   -3.1171 H   0  0  0  0  0  0  0  0  0  0  0  0
  125.6432   18.0262   -4.1572 H   0  0  0  0  0  0  0  0  0  0  0  0
  128.3658   18.0332   -4.6536 H   0  0  0  0  0  0  0  0  0  0  0  0
  131.5280   22.7693   -4.7414 H   0  0  0  0  0  0  0  0  0  0  0  0
  132.0600   21.1739   -4.0989 H   0  0  0  0  0  0  0  0  0  0  0  0
  132.1832   20.2898   -6.3925 H   0  0  0  0  0  0  0  0  0  0  0  0
  133.2328   21.7373   -6.1867 H   0  0  0  0  0  0  0  0  0  0  0  0
  131.0157   20.1909   -9.1285 H   0  0  0  0  0  0  0  0  0  0  0  0
  132.7211   19.8241   -8.9667 H   0  0  0  0  0  0  0  0  0  0  0  0
  134.6433   20.6649  -11.7426 H   0  0  0  0  0  0  0  0  0  0  0  0
  135.3697   18.9955  -13.4084 H   0  0  0  0  0  0  0  0  0  0  0  0
  135.9546   17.5521  -14.4176 H   0  0  0  0  0  0  0  0  0  0  0  0
  136.6819   15.9299  -16.1571 H   0  0  0  0  0  0  0  0  0  0  0  0
  132.5800   14.9033  -16.9175 H   0  0  0  0  0  0  0  0  0  0  0  0
  131.8468   16.5927  -15.2464 H   0  0  0  0  0  0  0  0  0  0  0  0
  1  2  2  0
  1 25  1  0
  2  3  1  0
  3  4  1  0
  3 23  2  0
  4  5  1  0
  4 22  1  0
  5  6  2  0
  5  7  1  0
  8  7  1  0
  8  9  1  0
  8 22  1  0
  9 10  1  0
  9 21  1  0
 10 11  1  0
 11 12  1  0
 12 13  1  0
 12 20  1  0
 13 14  2  0
 13 15  1  0
 15 16  1  0
 15 19  2  0
 16 17  1  0
 17 18  2  0
 18 19  1  0
 20 21  1  0
 23 24  1  0
 24 25  2  0
 25 26  1  0
 26 27  2  0
 26 31  1  0
 27 28  1  0
 28 29  2  0
 29 30  1  0
 29 32  1  0
 30 31  2  0
  1 33  1  0
  2 34  1  0
  7 35  1  0
  7 36  1  0
  8 37  1  1
  9 38  1  1
 10 39  1  0
 10 40  1  0
 11 41  1  0
 11 42  1  0
 17 43  1  0
 18 44  1  0
 19 45  1  0
 20 46  1  0
 20 47  1  0
 21 48  1  0
 21 49  1  0
 22 50  1  0
 22 51  1  0
 23 52  1  0
 24 53  1  0
 27 54  1  0
 28 55  1  0
 30 56  1  0
 31 57  1  0
M  CHG  1   9   1
M  END
>  <filename_input>  (6) 
7PRM_81I_docked.sdf

>  <pdb_id>  (6) 
7PRM_81I

>  <pose_rank>  (6) 
5

>  <num_atoms_heavy>  (6) 
32

>  <num_torsions>  (6) 
4

>  <pose>  (6) 
[132.19579705776417, 20.93622477819031, -10.730941268930364, 2.725401395577513, -2.3503735712624145, -0.5349573258239754, -8.172544271815962, -1.487066904427083, 6.715171577503034, 6.867362931967795]

>  <energy>  (6) 
-344.12623031039175

>  <inter_energy>  (6) 
-348.8871384375714

>  <intra_energy>  (6) 
1.8541117262504752

>  <rmsd>  (6) 
11.6565

>  <sdf_rank>  (6) 
0

$$$$

     RDKit          3D

 57 61  0  0  0  0  0  0  0  0999 V2000
  130.2385   18.0671  -13.3381 C   0  0  0  0  0  0  0  0  0  0  0  0
  130.3960   18.9982  -12.3264 C   0  0  0  0  0  0  0  0  0  0  0  0
  131.4320   18.8576  -11.4081 C   0  0  0  0  0  0  0  0  0  0  0  0
  131.6255   19.8092  -10.3612 N   0  0  0  0  0  0  0  0  0  0  0  0
  132.3904   20.9190  -10.4714 C   0  0  0  0  0  0  0  0  0  0  0  0
  132.9693   21.2787  -11.4905 O   0  0  0  0  0  0  0  0  0  0  0  0
  132.4335   21.5909   -9.1287 C   0  0  0  0  0  0  0  0  0  0  0  0
  132.0059   20.4970   -8.1477 C   0  0  1  0  0  0  0  0  0  0  0  0
  131.3613   21.0204   -6.9210 N   0  0  1  0  0  0  0  0  0  0  0  0
  129.8914   20.9825   -6.9952 C   0  0  0  0  0  0  0  0  0  0  0  0
  129.2420   21.6000   -5.7492 C   0  0  0  0  0  0  0  0  0  0  0  0
  129.8004   21.0219   -4.5129 N   0  0  0  0  0  0  0  0  0  0  0  0
  129.1213   20.6985   -3.3862 C   0  0  0  0  0  0  0  0  0  0  0  0
  129.7042   20.3282   -2.3662 O   0  0  0  0  0  0  0  0  0  0  0  0
  127.6241   20.7418   -3.3144 C   0  0  0  0  0  0  0  0  0  0  0  0
  126.8990   21.8901   -3.1066 O   0  0  0  0  0  0  0  0  0  0  0  0
  125.5691   21.5178   -3.1035 C   0  0  0  0  0  0  0  0  0  0  0  0
  125.4425   20.2310   -3.3907 C   0  0  0  0  0  0  0  0  0  0  0  0
  126.7857   19.7094   -3.5521 C   0  0  0  0  0  0  0  0  0  0  0  0
  131.2698   21.0012   -4.4839 C   0  0  0  0  0  0  0  0  0  0  0  0
  131.7998   20.3065   -5.7105 C   0  0  0  0  0  0  0  0  0  0  0  0
  131.0835   19.6310   -9.0109 C   0  0  0  0  0  0  0  0  0  0  0  0
  132.2802   17.7572  -11.5048 C   0  0  0  0  0  0  0  0  0  0  0  0
  132.0973   16.8217  -12.5031 C   0  0  0  0  0  0  0  0  0  0  0  0
  131.0867   16.9651  -13.4490 C   0  0  0  0  0  0  0  0  0  0  0  0
  130.9107   15.9654  -14.5276 C   0  0  0  0  0  0  0  0  0  0  0  0
  129.6831   15.8095  -15.1706 C   0  0  0  0  0  0  0  0  0  0  0  0
  129.5106   14.8695  -16.1702 C   0  0  0  0  0  0  0  0  0  0  0  0
  130.5836   14.0963  -16.5238 C   0  0  0  0  0  0  0  0  0  0  0  0
  131.7974   14.1842  -15.9027 C   0  0  0  0  0  0  0  0  0  0  0  0
  131.9481   15.1093  -14.8855 C   0  0  0  0  0  0  0  0  0  0  0  0
  130.4268   13.1726  -17.5134 F   0  0  0  0  0  0  0  0  0  0  0  0
  129.4277   18.1987  -14.0698 H   0  0  0  0  0  0  0  0  0  0  0  0
  129.7029   19.8488  -12.2483 H   0  0  0  0  0  0  0  0  0  0  0  0
  133.4504   21.9431   -8.9012 H   0  0  0  0  0  0  0  0  0  0  0  0
  131.7843   22.4775   -9.0802 H   0  0  0  0  0  0  0  0  0  0  0  0
  132.8529   19.9351   -7.7270 H   0  0  0  0  0  0  0  0  0  0  0  0
  131.6631   22.0031   -6.8570 H   0  0  0  0  0  0  0  0  0  0  0  0
  129.5650   21.5446   -7.8826 H   0  0  0  0  0  0  0  0  0  0  0  0
  129.5790   19.9296   -7.0575 H   0  0  0  0  0  0  0  0  0  0  0  0
  129.4229   22.6850   -5.7512 H   0  0  0  0  0  0  0  0  0  0  0  0
  128.1635   21.3857   -5.7769 H   0  0  0  0  0  0  0  0  0  0  0  0
  124.7301   22.1968   -2.8916 H   0  0  0  0  0  0  0  0  0  0  0  0
  124.5023   19.6683   -3.4878 H   0  0  0  0  0  0  0  0  0  0  0  0
  127.0660   18.6789   -3.8154 H   0  0  0  0  0  0  0  0  0  0  0  0
  131.6481   22.0338   -4.4581 H   0  0  0  0  0  0  0  0  0  0  0  0
  131.6055   20.4582   -3.5881 H   0  0  0  0  0  0  0  0  0  0  0  0
  131.4195   19.2747   -5.7379 H   0  0  0  0  0  0  0  0  0  0  0  0
  132.8992   20.2973   -5.6743 H   0  0  0  0  0  0  0  0  0  0  0  0
  130.0432   19.9839   -8.9535 H   0  0  0  0  0  0  0  0  0  0  0  0
  131.0559   18.5786   -8.6920 H   0  0  0  0  0  0  0  0  0  0  0  0
  133.1000   17.6330  -10.7820 H   0  0  0  0  0  0  0  0  0  0  0  0
  132.7624   15.9469  -12.5519 H   0  0  0  0  0  0  0  0  0  0  0  0
  128.8357   16.4465  -14.8771 H   0  0  0  0  0  0  0  0  0  0  0  0
  128.5373   14.7463  -16.6678 H   0  0  0  0  0  0  0  0  0  0  0  0
  132.6334   13.5360  -16.2040 H   0  0  0  0  0  0  0  0  0  0  0  0
  132.9065   15.1695  -14.3490 H   0  0  0  0  0  0  0  0  0  0  0  0
  1  2  2  0
  1 25  1  0
  2  3  1  0
  3  4  1  0
  3 23  2  0
  4  5  1  0
  4 22  1  0
  5  6  2  0
  5  7  1  0
  8  7  1  0
  8  9  1  0
  8 22  1  0
  9 10  1  0
  9 21  1  0
 10 11  1  0
 11 12  1  0
 12 13  1  0
 12 20  1  0
 13 14  2  0
 13 15  1  0
 15 16  1  0
 15 19  2  0
 16 17  1  0
 17 18  2  0
 18 19  1  0
 20 21  1  0
 23 24  1  0
 24 25  2  0
 25 26  1  0
 26 27  2  0
 26 31  1  0
 27 28  1  0
 28 29  2  0
 29 30  1  0
 29 32  1  0
 30 31  2  0
  1 33  1  0
  2 34  1  0
  7 35  1  0
  7 36  1  0
  8 37  1  1
  9 38  1  1
 10 39  1  0
 10 40  1  0
 11 41  1  0
 11 42  1  0
 17 43  1  0
 18 44  1  0
 19 45  1  0
 20 46  1  0
 20 47  1  0
 21 48  1  0
 21 49  1  0
 22 50  1  0
 22 51  1  0
 23 52  1  0
 24 53  1  0
 27 54  1  0
 28 55  1  0
 30 56  1  0
 31 57  1  0
M  CHG  1   9   1
M  END
>  <filename_input>  (7) 
7PRM_81I_docked.sdf

>  <pdb_id>  (7) 
7PRM_81I

>  <pose_rank>  (7) 
6

>  <num_atoms_heavy>  (7) 
32

>  <num_torsions>  (7) 
4

>  <pose>  (7) 
[131.6255396430292, 19.80921994593498, -10.361226602034877, 1.8704984023311262, -3.3533106807307447, -0.11246447060349246, -1.4522364546281448, -1.4462425603053632, 0.7307679426211187, 3.158154469495306]

>  <energy>  (7) 
-380.208060848344

>  <inter_energy>  (7) 
-373.7309172618924

>  <intra_energy>  (7) 
0.2130278310887627

>  <rmsd>  (7) 
11.5232

>  <sdf_rank>  (7) 
0

$$$$

     RDKit          3D

 57 61  0  0  0  0  0  0  0  0999 V2000
  135.4242   25.6892  -12.1141 C   0  0  0  0  0  0  0  0  0  0  0  0
  134.9841   24.7755  -11.1724 C   0  0  0  0  0  0  0  0  0  0  0  0
  133.7909   24.0891  -11.3754 C   0  0  0  0  0  0  0  0  0  0  0  0
  133.3183   23.1323  -10.4265 N   0  0  0  0  0  0  0  0  0  0  0  0
  133.5232   21.7989  -10.5215 C   0  0  0  0  0  0  0  0  0  0  0  0
  134.1802   21.2466  -11.3969 O   0  0  0  0  0  0  0  0  0  0  0  0
  132.7747   21.1313   -9.4033 C   0  0  0  0  0  0  0  0  0  0  0  0
  131.7526   22.1794   -8.9575 C   0  0  1  0  0  0  0  0  0  0  0  0
  131.3560   22.0527   -7.5359 N   0  0  1  0  0  0  0  0  0  0  0  0
  129.8987   22.1421   -7.3460 C   0  0  0  0  0  0  0  0  0  0  0  0
  129.5134   22.0872   -5.8614 C   0  0  0  0  0  0  0  0  0  0  0  0
  130.1417   20.9355   -5.1880 N   0  0  0  0  0  0  0  0  0  0  0  0
  129.5778   20.1302   -4.2560 C   0  0  0  0  0  0  0  0  0  0  0  0
  130.2311   19.2651   -3.6713 O   0  0  0  0  0  0  0  0  0  0  0  0
  128.1245   20.2179   -3.8968 C   0  0  0  0  0  0  0  0  0  0  0  0
  127.1011   19.9078   -4.7594 O   0  0  0  0  0  0  0  0  0  0  0  0
  125.9264   20.1164   -4.0637 C   0  0  0  0  0  0  0  0  0  0  0  0
  126.1792   20.4425   -2.8052 C   0  0  0  0  0  0  0  0  0  0  0  0
  127.6222   20.4944   -2.6735 C   0  0  0  0  0  0  0  0  0  0  0  0
  131.5841   20.8184   -5.4448 C   0  0  0  0  0  0  0  0  0  0  0  0
  131.8440   20.8037   -6.9282 C   0  0  0  0  0  0  0  0  0  0  0  0
  132.4711   23.4917   -9.2854 C   0  0  0  0  0  0  0  0  0  0  0  0
  133.0385   24.3579  -12.5162 C   0  0  0  0  0  0  0  0  0  0  0  0
  133.4755   25.2900  -13.4357 C   0  0  0  0  0  0  0  0  0  0  0  0
  134.6826   25.9608  -13.2640 C   0  0  0  0  0  0  0  0  0  0  0  0
  135.1516   26.9454  -14.2662 C   0  0  0  0  0  0  0  0  0  0  0  0
  134.7555   28.2810  -14.2025 C   0  0  0  0  0  0  0  0  0  0  0  0
  135.1813   29.2017  -15.1426 C   0  0  0  0  0  0  0  0  0  0  0  0
  136.0152   28.7707  -16.1392 C   0  0  0  0  0  0  0  0  0  0  0  0
  136.4052   27.4676  -16.2676 C   0  0  0  0  0  0  0  0  0  0  0  0
  135.9494   26.5517  -15.3367 C   0  0  0  0  0  0  0  0  0  0  0  0
  136.4475   29.6715  -17.0659 F   0  0  0  0  0  0  0  0  0  0  0  0
  136.3784   26.2120  -11.9525 H   0  0  0  0  0  0  0  0  0  0  0  0
  135.5770   24.5921  -10.2643 H   0  0  0  0  0  0  0  0  0  0  0  0
  132.2700   20.2215   -9.7603 H   0  0  0  0  0  0  0  0  0  0  0  0
  133.4365   20.8131   -8.5844 H   0  0  0  0  0  0  0  0  0  0  0  0
  130.7815   22.0829   -9.4649 H   0  0  0  0  0  0  0  0  0  0  0  0
  131.8002   22.8512   -7.0605 H   0  0  0  0  0  0  0  0  0  0  0  0
  129.5417   23.0914   -7.7717 H   0  0  0  0  0  0  0  0  0  0  0  0
  129.4345   21.2827   -7.8519 H   0  0  0  0  0  0  0  0  0  0  0  0
  129.8448   23.0141   -5.3705 H   0  0  0  0  0  0  0  0  0  0  0  0
  128.4212   21.9784   -5.7896 H   0  0  0  0  0  0  0  0  0  0  0  0
  124.9190   20.0243   -4.4957 H   0  0  0  0  0  0  0  0  0  0  0  0
  125.4393   20.6361   -2.0146 H   0  0  0  0  0  0  0  0  0  0  0  0
  128.1939   20.7148   -1.7599 H   0  0  0  0  0  0  0  0  0  0  0  0
  132.1054   21.6747   -4.9921 H   0  0  0  0  0  0  0  0  0  0  0  0
  131.9542   19.8808   -5.0043 H   0  0  0  0  0  0  0  0  0  0  0  0
  131.3206   19.9490   -7.3815 H   0  0  0  0  0  0  0  0  0  0  0  0
  132.9260   20.7143   -7.1049 H   0  0  0  0  0  0  0  0  0  0  0  0
  133.0790   23.8322   -8.4343 H   0  0  0  0  0  0  0  0  0  0  0  0
  131.7802   24.3193   -9.5043 H   0  0  0  0  0  0  0  0  0  0  0  0
  132.0914   23.8247  -12.6853 H   0  0  0  0  0  0  0  0  0  0  0  0
  132.8585   25.5064  -14.3202 H   0  0  0  0  0  0  0  0  0  0  0  0
  134.0916   28.6085  -13.3889 H   0  0  0  0  0  0  0  0  0  0  0  0
  134.8587   30.2520  -15.0910 H   0  0  0  0  0  0  0  0  0  0  0  0
  137.0650   27.1548  -17.0903 H   0  0  0  0  0  0  0  0  0  0  0  0
  136.2226   25.4917  -15.4445 H   0  0  0  0  0  0  0  0  0  0  0  0
  1  2  2  0
  1 25  1  0
  2  3  1  0
  3  4  1  0
  3 23  2  0
  4  5  1  0
  4 22  1  0
  5  6  2  0
  5  7  1  0
  8  7  1  0
  8  9  1  0
  8 22  1  0
  9 10  1  0
  9 21  1  0
 10 11  1  0
 11 12  1  0
 12 13  1  0
 12 20  1  0
 13 14  2  0
 13 15  1  0
 15 16  1  0
 15 19  2  0
 16 17  1  0
 17 18  2  0
 18 19  1  0
 20 21  1  0
 23 24  1  0
 24 25  2  0
 25 26  1  0
 26 27  2  0
 26 31  1  0
 27 28  1  0
 28 29  2  0
 29 30  1  0
 29 32  1  0
 30 31  2  0
  1 33  1  0
  2 34  1  0
  7 35  1  0
  7 36  1  0
  8 37  1  6
  9 38  1  1
 10 39  1  0
 10 40  1  0
 11 41  1  0
 11 42  1  0
 17 43  1  0
 18 44  1  0
 19 45  1  0
 20 46  1  0
 20 47  1  0
 21 48  1  0
 21 49  1  0
 22 50  1  0
 22 51  1  0
 23 52  1  0
 24 53  1  0
 27 54  1  0
 28 55  1  0
 30 56  1  0
 31 57  1  0
M  CHG  1   9   1
M  END
>  <filename_input>  (8) 
7PRM_81I_docked.sdf

>  <pdb_id>  (8) 
7PRM_81I

>  <pose_rank>  (8) 
7

>  <num_atoms_heavy>  (8) 
32

>  <num_torsions>  (8) 
4

>  <pose>  (8) 
[133.31832763851392, 23.132293227885405, -10.426501915095693, 1.7703883722221725, 1.5068436700757128, 0.017250629301722647, 0.7910621972302845, 1.123395852452403, 0.614013984655803, 1.9314983936415824]

>  <energy>  (8) 
-376.4193920260804

>  <inter_energy>  (8) 
-362.9821310005427

>  <intra_energy>  (8) 
1.1518174555448608

>  <rmsd>  (8) 
12.2866

>  <sdf_rank>  (8) 
0

$$$$

     RDKit          3D

 57 61  0  0  0  0  0  0  0  0999 V2000
  129.0841   22.0052   -7.1486 C   0  0  0  0  0  0  0  0  0  0  0  0
  129.9856   22.3967   -8.1229 C   0  0  0  0  0  0  0  0  0  0  0  0
  131.3449   22.1560   -7.9484 C   0  0  0  0  0  0  0  0  0  0  0  0
  132.2965   22.5385   -8.9421 N   0  0  0  0  0  0  0  0  0  0  0  0
  132.9991   21.6668   -9.7005 C   0  0  0  0  0  0  0  0  0  0  0  0
  132.8743   20.4474   -9.6728 O   0  0  0  0  0  0  0  0  0  0  0  0
  133.9716   22.4520  -10.5335 C   0  0  0  0  0  0  0  0  0  0  0  0
  134.0687   23.8037   -9.8228 C   0  0  1  0  0  0  0  0  0  0  0  0
  134.4161   24.9246  -10.7269 N   0  0  1  0  0  0  0  0  0  0  0  0
  133.4188   25.1211  -11.7919 C   0  0  0  0  0  0  0  0  0  0  0  0
  133.8346   26.2344  -12.7632 C   0  0  0  0  0  0  0  0  0  0  0  0
  134.1981   27.4669  -12.0399 N   0  0  0  0  0  0  0  0  0  0  0  0
  133.9050   28.7394  -12.4008 C   0  0  0  0  0  0  0  0  0  0  0  0
  134.3574   29.7048  -11.7840 O   0  0  0  0  0  0  0  0  0  0  0  0
  132.9940   29.0554  -13.5492 C   0  0  0  0  0  0  0  0  0  0  0  0
  133.3928   29.0672  -14.8639 O   0  0  0  0  0  0  0  0  0  0  0  0
  132.2782   29.4016  -15.6078 C   0  0  0  0  0  0  0  0  0  0  0  0
  131.2095   29.4998  -14.8316 C   0  0  0  0  0  0  0  0  0  0  0  0
  131.6599   29.2552  -13.4753 C   0  0  0  0  0  0  0  0  0  0  0  0
  135.1398   27.2445  -10.9335 C   0  0  0  0  0  0  0  0  0  0  0  0
  134.6001   26.1922  -10.0011 C   0  0  0  0  0  0  0  0  0  0  0  0
  132.6839   23.9320   -9.1811 C   0  0  0  0  0  0  0  0  0  0  0  0
  131.7815   21.5486   -6.7736 C   0  0  0  0  0  0  0  0  0  0  0  0
  130.8750   21.1856   -5.7981 C   0  0  0  0  0  0  0  0  0  0  0  0
  129.5094   21.3893   -5.9714 C   0  0  0  0  0  0  0  0  0  0  0  0
  128.5433   20.9789   -4.9264 C   0  0  0  0  0  0  0  0  0  0  0  0
  127.1798   21.2355   -5.0666 C   0  0  0  0  0  0  0  0  0  0  0  0
  126.2751   20.8648   -4.0884 C   0  0  0  0  0  0  0  0  0  0  0  0
  126.7513   20.2260   -2.9751 C   0  0  0  0  0  0  0  0  0  0  0  0
  128.0801   19.9815   -2.7722 C   0  0  0  0  0  0  0  0  0  0  0  0
  128.9770   20.3828   -3.7458 C   0  0  0  0  0  0  0  0  0  0  0  0
  125.8674   19.8488   -2.0089 F   0  0  0  0  0  0  0  0  0  0  0  0
  128.0100   22.1833   -7.3057 H   0  0  0  0  0  0  0  0  0  0  0  0
  129.6279   22.8978   -9.0344 H   0  0  0  0  0  0  0  0  0  0  0  0
  134.9522   21.9544  -10.5611 H   0  0  0  0  0  0  0  0  0  0  0  0
  133.6477   22.5486  -11.5803 H   0  0  0  0  0  0  0  0  0  0  0  0
  134.8878   23.8517   -9.0902 H   0  0  0  0  0  0  0  0  0  0  0  0
  135.3112   24.6541  -11.1589 H   0  0  0  0  0  0  0  0  0  0  0  0
  133.3076   24.1818  -12.3534 H   0  0  0  0  0  0  0  0  0  0  0  0
  132.4690   25.4150  -11.3212 H   0  0  0  0  0  0  0  0  0  0  0  0
  134.7010   25.8938  -13.3492 H   0  0  0  0  0  0  0  0  0  0  0  0
  132.9826   26.4566  -13.4225 H   0  0  0  0  0  0  0  0  0  0  0  0
  132.2781   29.5640  -16.6957 H   0  0  0  0  0  0  0  0  0  0  0  0
  130.1816   29.7233  -15.1530 H   0  0  0  0  0  0  0  0  0  0  0  0
  131.0392   29.2360  -12.5673 H   0  0  0  0  0  0  0  0  0  0  0  0
  136.1062   26.9105  -11.3393 H   0  0  0  0  0  0  0  0  0  0  0  0
  135.2730   28.1847  -10.3783 H   0  0  0  0  0  0  0  0  0  0  0  0
  133.6325   26.5247   -9.5972 H   0  0  0  0  0  0  0  0  0  0  0  0
  135.3137   26.0376   -9.1784 H   0  0  0  0  0  0  0  0  0  0  0  0
  131.9770   24.4266   -9.8635 H   0  0  0  0  0  0  0  0  0  0  0  0
  132.6868   24.5424   -8.2661 H   0  0  0  0  0  0  0  0  0  0  0  0
  132.8542   21.3571   -6.6225 H   0  0  0  0  0  0  0  0  0  0  0  0
  131.2387   20.7270   -4.8667 H   0  0  0  0  0  0  0  0  0  0  0  0
  126.8168   21.7427   -5.9727 H   0  0  0  0  0  0  0  0  0  0  0  0
  125.2019   21.0774   -4.2018 H   0  0  0  0  0  0  0  0  0  0  0  0
  128.4279   19.4784   -1.8579 H   0  0  0  0  0  0  0  0  0  0  0  0
  130.0539   20.2278   -3.5838 H   0  0  0  0  0  0  0  0  0  0  0  0
  1  2  2  0
  1 25  1  0
  2  3  1  0
  3  4  1  0
  3 23  2  0
  4  5  1  0
  4 22  1  0
  5  6  2  0
  5  7  1  0
  8  7  1  0
  8  9  1  0
  8 22  1  0
  9 10  1  0
  9 21  1  0
 10 11  1  0
 11 12  1  0
 12 13  1  0
 12 20  1  0
 13 14  2  0
 13 15  1  0
 15 16  1  0
 15 19  2  0
 16 17  1  0
 17 18  2  0
 18 19  1  0
 20 21  1  0
 23 24  1  0
 24 25  2  0
 25 26  1  0
 26 27  2  0
 26 31  1  0
 27 28  1  0
 28 29  2  0
 29 30  1  0
 29 32  1  0
 30 31  2  0
  1 33  1  0
  2 34  1  0
  7 35  1  0
  7 36  1  0
  8 37  1  1
  9 38  1  6
 10 39  1  0
 10 40  1  0
 11 41  1  0
 11 42  1  0
 17 43  1  0
 18 44  1  0
 19 45  1  0
 20 46  1  0
 20 47  1  0
 21 48  1  0
 21 49  1  0
 22 50  1  0
 22 51  1  0
 23 52  1  0
 24 53  1  0
 27 54  1  0
 28 55  1  0
 30 56  1  0
 31 57  1  0
M  CHG  1   9   1
M  END
>  <filename_input>  (9) 
7PRM_81I_docked.sdf

>  <pdb_id>  (9) 
7PRM_81I

>  <pose_rank>  (9) 
8

>  <num_atoms_heavy>  (9) 
32

>  <num_torsions>  (9) 
4

>  <pose>  (9) 
[132.2964677888682, 22.538481766236487, -8.942071758430782, 0.6928582689888754, -1.828460828449011, 1.7786135176246805, 4.186999148874103, -1.4597083584833095, 0.34816939852450335, 3.5087207109200578]

>  <energy>  (9) 
-358.5371480792654

>  <inter_energy>  (9) 
-356.92424068549604

>  <intra_energy>  (9) 
2.9833814322916865

>  <rmsd>  (9) 
11.5995

>  <sdf_rank>  (9) 
0

$$$$

     RDKit          3D

 57 61  0  0  0  0  0  0  0  0999 V2000
  132.1648   21.0279   -6.6818 C   0  0  0  0  0  0  0  0  0  0  0  0
  132.3040   21.3738   -8.0145 C   0  0  0  0  0  0  0  0  0  0  0  0
  131.1789   21.6808   -8.7736 C   0  0  0  0  0  0  0  0  0  0  0  0
  131.2935   22.0523  -10.1476 N   0  0  0  0  0  0  0  0  0  0  0  0
  131.3838   21.1722  -11.1704 C   0  0  0  0  0  0  0  0  0  0  0  0
  131.3259   19.9526  -11.0590 O   0  0  0  0  0  0  0  0  0  0  0  0
  131.6078   21.9495  -12.4360 C   0  0  0  0  0  0  0  0  0  0  0  0
  132.1031   23.3152  -11.9551 C   0  0  1  0  0  0  0  0  0  0  0  0
  131.7889   24.4216  -12.8886 N   0  0  1  0  0  0  0  0  0  0  0  0
  130.6792   25.2641  -12.4127 C   0  0  0  0  0  0  0  0  0  0  0  0
  130.3171   26.3562  -13.4284 C   0  0  0  0  0  0  0  0  0  0  0  0
  131.5115   27.1108  -13.8509 N   0  0  0  0  0  0  0  0  0  0  0  0
  131.5974   28.4456  -14.0661 C   0  0  0  0  0  0  0  0  0  0  0  0
  132.6161   28.9594  -14.5303 O   0  0  0  0  0  0  0  0  0  0  0  0
  130.4771   29.3838  -13.7295 C   0  0  0  0  0  0  0  0  0  0  0  0
  129.4006   29.6189  -14.5501 O   0  0  0  0  0  0  0  0  0  0  0  0
  128.6010   30.5340  -13.8940 C   0  0  0  0  0  0  0  0  0  0  0  0
  129.0803   30.7940  -12.6870 C   0  0  0  0  0  0  0  0  0  0  0  0
  130.3051   30.0293  -12.5551 C   0  0  0  0  0  0  0  0  0  0  0  0
  132.6359   26.2552  -14.2556 C   0  0  0  0  0  0  0  0  0  0  0  0
  132.9580   25.2745  -13.1589 C   0  0  0  0  0  0  0  0  0  0  0  0
  131.4211   23.4441  -10.5898 C   0  0  0  0  0  0  0  0  0  0  0  0
  129.9199   21.6040   -8.1831 C   0  0  0  0  0  0  0  0  0  0  0  0
  129.7922   21.2331   -6.8597 C   0  0  0  0  0  0  0  0  0  0  0  0
  130.9093   20.9551   -6.0780 C   0  0  0  0  0  0  0  0  0  0  0  0
  130.7624   20.5763   -4.6537 C   0  0  0  0  0  0  0  0  0  0  0  0
  129.5068   20.5226   -4.0494 C   0  0  0  0  0  0  0  0  0  0  0  0
  129.3653   20.1809   -2.7167 C   0  0  0  0  0  0  0  0  0  0  0  0
  130.4942   19.8845   -2.0013 C   0  0  0  0  0  0  0  0  0  0  0  0
  131.7500   19.9555   -2.5349 C   0  0  0  0  0  0  0  0  0  0  0  0
  131.8790   20.3258   -3.8613 C   0  0  0  0  0  0  0  0  0  0  0  0
  130.3654   19.5383   -0.6895 F   0  0  0  0  0  0  0  0  0  0  0  0
  133.0626   20.8059   -6.0863 H   0  0  0  0  0  0  0  0  0  0  0  0
  133.3031   21.4061   -8.4734 H   0  0  0  0  0  0  0  0  0  0  0  0
  132.3650   21.4595  -13.0659 H   0  0  0  0  0  0  0  0  0  0  0  0
  130.6991   22.0236  -13.0514 H   0  0  0  0  0  0  0  0  0  0  0  0
  133.1994   23.3838  -11.8958 H   0  0  0  0  0  0  0  0  0  0  0  0
  131.5016   23.9614  -13.7641 H   0  0  0  0  0  0  0  0  0  0  0  0
  129.7973   24.6290  -12.2430 H   0  0  0  0  0  0  0  0  0  0  0  0
  130.9977   25.7552  -11.4813 H   0  0  0  0  0  0  0  0  0  0  0  0
  129.8587   25.8869  -14.3113 H   0  0  0  0  0  0  0  0  0  0  0  0
  129.6148   27.0556  -12.9513 H   0  0  0  0  0  0  0  0  0  0  0  0
  127.6907   30.9850  -14.3159 H   0  0  0  0  0  0  0  0  0  0  0  0
  128.6362   31.4598  -11.9324 H   0  0  0  0  0  0  0  0  0  0  0  0
  130.9630   29.9839  -11.6747 H   0  0  0  0  0  0  0  0  0  0  0  0
  132.3646   25.7046  -15.1684 H   0  0  0  0  0  0  0  0  0  0  0  0
  133.5175   26.8844  -14.4474 H   0  0  0  0  0  0  0  0  0  0  0  0
  133.2268   25.8248  -12.2451 H   0  0  0  0  0  0  0  0  0  0  0  0
  133.8012   24.6427  -13.4748 H   0  0  0  0  0  0  0  0  0  0  0  0
  130.4339   23.9200  -10.6851 H   0  0  0  0  0  0  0  0  0  0  0  0
  131.9841   24.0718   -9.8833 H   0  0  0  0  0  0  0  0  0  0  0  0
  129.0228   21.8400   -8.7743 H   0  0  0  0  0  0  0  0  0  0  0  0
  128.7891   21.1559   -6.4149 H   0  0  0  0  0  0  0  0  0  0  0  0
  128.6115   20.7565   -4.6442 H   0  0  0  0  0  0  0  0  0  0  0  0
  128.3724   20.1482   -2.2444 H   0  0  0  0  0  0  0  0  0  0  0  0
  132.6358   19.7240   -1.9251 H   0  0  0  0  0  0  0  0  0  0  0  0
  132.8836   20.4242   -4.2985 H   0  0  0  0  0  0  0  0  0  0  0  0
  1  2  2  0
  1 25  1  0
  2  3  1  0
  3  4  1  0
  3 23  2  0
  4  5  1  0
  4 22  1  0
  5  6  2  0
  5  7  1  0
  8  7  1  0
  8  9  1  0
  8 22  1  0
  9 10  1  0
  9 21  1  0
 10 11  1  0
 11 12  1  0
 12 13  1  0
 12 20  1  0
 13 14  2  0
 13 15  1  0
 15 16  1  0
 15 19  2  0
 16 17  1  0
 17 18  2  0
 18 19  1  0
 20 21  1  0
 23 24  1  0
 24 25  2  0
 25 26  1  0
 26 27  2  0
 26 31  1  0
 27 28  1  0
 28 29  2  0
 29 30  1  0
 29 32  1  0
 30 31  2  0
  1 33  1  0
  2 34  1  0
  7 35  1  0
  7 36  1  0
  8 37  1  1
  9 38  1  6
 10 39  1  0
 10 40  1  0
 11 41  1  0
 11 42  1  0
 17 43  1  0
 18 44  1  0
 19 45  1  0
 20 46  1  0
 20 47  1  0
 21 48  1  0
 21 49  1  0
 22 50  1  0
 22 51  1  0
 23 52  1  0
 24 53  1  0
 27 54  1  0
 28 55  1  0
 30 56  1  0
 31 57  1  0
M  CHG  1   9   1
M  END
>  <filename_input>  (10) 
7PRM_81I_docked.sdf

>  <pdb_id>  (10) 
7PRM_81I

>  <pose_rank>  (10) 
9

>  <num_atoms_heavy>  (10) 
32

>  <num_torsions>  (10) 
4

>  <pose>  (10) 
[131.29351374254236, 22.052276364088303, -10.147599215826956, 1.1326607834000988, -1.3440685874730218, 1.3287392172457908, -1.32778420930766, -1.4792700207049383, -2.5298345506534075, 0.3892110312404354]

>  <energy>  (10) 
-351.8852743248359

>  <inter_energy>  (10) 
-330.78390853473996

>  <intra_energy>  (10) 
0.3490707505124671

>  <rmsd>  (10) 
10.3273

>  <sdf_rank>  (10) 
0

$$$$

     RDKit          3D

 57 61  0  0  0  0  0  0  0  0999 V2000
  131.0133   16.0090  -13.1548 C   0  0  0  0  0  0  0  0  0  0  0  0
  130.8629   17.1850  -12.4410 C   0  0  0  0  0  0  0  0  0  0  0  0
  131.8774   18.1374  -12.4496 C   0  0  0  0  0  0  0  0  0  0  0  0
  131.7447   19.3647  -11.7318 N   0  0  0  0  0  0  0  0  0  0  0  0
  131.7791   20.5898  -12.3034 C   0  0  0  0  0  0  0  0  0  0  0  0
  131.8742   20.8046  -13.5067 O   0  0  0  0  0  0  0  0  0  0  0  0
  131.7250   21.6168  -11.2087 C   0  0  0  0  0  0  0  0  0  0  0  0
  132.1315   20.8463   -9.9506 C   0  0  1  0  0  0  0  0  0  0  0  0
  131.5612   21.4057   -8.7032 N   0  0  1  0  0  0  0  0  0  0  0  0
  130.0950   21.2843   -8.6484 C   0  0  0  0  0  0  0  0  0  0  0  0
  129.5160   21.9385   -7.3865 C   0  0  0  0  0  0  0  0  0  0  0  0
  130.2079   21.4652   -6.1733 N   0  0  0  0  0  0  0  0  0  0  0  0
  129.6447   21.1727   -4.9765 C   0  0  0  0  0  0  0  0  0  0  0  0
  130.3308   20.8951   -3.9919 O   0  0  0  0  0  0  0  0  0  0  0  0
  128.1587   21.1395   -4.7785 C   0  0  0  0  0  0  0  0  0  0  0  0
  127.3468   20.1283   -5.2323 O   0  0  0  0  0  0  0  0  0  0  0  0
  126.0599   20.4622   -4.8584 C   0  0  0  0  0  0  0  0  0  0  0  0
  126.0567   21.5651   -4.1250 C   0  0  0  0  0  0  0  0  0  0  0  0
  127.4335   22.0130   -4.0461 C   0  0  0  0  0  0  0  0  0  0  0  0
  131.6733   21.5254   -6.2698 C   0  0  0  0  0  0  0  0  0  0  0  0
  132.1397   20.7891   -7.4980 C   0  0  0  0  0  0  0  0  0  0  0  0
  131.6498   19.4279  -10.2703 C   0  0  0  0  0  0  0  0  0  0  0  0
  133.0484   17.8754  -13.1564 C   0  0  0  0  0  0  0  0  0  0  0  0
  133.1968   16.6877  -13.8438 C   0  0  0  0  0  0  0  0  0  0  0  0
  132.1788   15.7393  -13.8724 C   0  0  0  0  0  0  0  0  0  0  0  0
  132.3408   14.4762  -14.6286 C   0  0  0  0  0  0  0  0  0  0  0  0
  132.6852   13.2897  -13.9818 C   0  0  0  0  0  0  0  0  0  0  0  0
  132.8490   12.1101  -14.6851 C   0  0  0  0  0  0  0  0  0  0  0  0
  132.6540   12.1319  -16.0399 C   0  0  0  0  0  0  0  0  0  0  0  0
  132.3500   13.2731  -16.7268 C   0  0  0  0  0  0  0  0  0  0  0  0
  132.2166   14.4515  -16.0147 C   0  0  0  0  0  0  0  0  0  0  0  0
  132.8047   10.9733  -16.7414 F   0  0  0  0  0  0  0  0  0  0  0  0
  130.1970   15.2717  -13.1564 H   0  0  0  0  0  0  0  0  0  0  0  0
  129.9421   17.3668  -11.8672 H   0  0  0  0  0  0  0  0  0  0  0  0
  132.4299   22.4374  -11.4084 H   0  0  0  0  0  0  0  0  0  0  0  0
  130.7324   22.0817  -11.1157 H   0  0  0  0  0  0  0  0  0  0  0  0
  133.2100   20.8963   -9.7397 H   0  0  0  0  0  0  0  0  0  0  0  0
  131.8091   22.4053   -8.7188 H   0  0  0  0  0  0  0  0  0  0  0  0
  129.6637   21.7748   -9.5336 H   0  0  0  0  0  0  0  0  0  0  0  0
  129.8408   20.2143   -8.6264 H   0  0  0  0  0  0  0  0  0  0  0  0
  129.6322   23.0296   -7.4628 H   0  0  0  0  0  0  0  0  0  0  0  0
  128.4533   21.6652   -7.3096 H   0  0  0  0  0  0  0  0  0  0  0  0
  125.1609   19.8906   -5.1321 H   0  0  0  0  0  0  0  0  0  0  0  0
  125.1810   22.0469   -3.6656 H   0  0  0  0  0  0  0  0  0  0  0  0
  127.8119   22.8892   -3.4992 H   0  0  0  0  0  0  0  0  0  0  0  0
  131.9912   22.5766   -6.3327 H   0  0  0  0  0  0  0  0  0  0  0  0
  132.1134   21.0551   -5.3781 H   0  0  0  0  0  0  0  0  0  0  0  0
  131.8196   19.7385   -7.4366 H   0  0  0  0  0  0  0  0  0  0  0  0
  133.2369   20.8413   -7.5561 H   0  0  0  0  0  0  0  0  0  0  0  0
  130.6128   19.2785   -9.9353 H   0  0  0  0  0  0  0  0  0  0  0  0
  132.2383   18.6478   -9.7652 H   0  0  0  0  0  0  0  0  0  0  0  0
  133.8592   18.6188  -13.1670 H   0  0  0  0  0  0  0  0  0  0  0  0
  134.1369   16.4871  -14.3786 H   0  0  0  0  0  0  0  0  0  0  0  0
  132.8293   13.2920  -12.8913 H   0  0  0  0  0  0  0  0  0  0  0  0
  133.1285   11.1794  -14.1696 H   0  0  0  0  0  0  0  0  0  0  0  0
  132.2147   13.2554  -17.8183 H   0  0  0  0  0  0  0  0  0  0  0  0
  132.0084   15.3871  -16.5543 H   0  0  0  0  0  0  0  0  0  0  0  0
  1  2  2  0
  1 25  1  0
  2  3  1  0
  3  4  1  0
  3 23  2  0
  4  5  1  0
  4 22  1  0
  5  6  2  0
  5  7  1  0
  8  7  1  0
  8  9  1  0
  8 22  1  0
  9 10  1  0
  9 21  1  0
 10 11  1  0
 11 12  1  0
 12 13  1  0
 12 20  1  0
 13 14  2  0
 13 15  1  0
 15 16  1  0
 15 19  2  0
 16 17  1  0
 17 18  2  0
 18 19  1  0
 20 21  1  0
 23 24  1  0
 24 25  2  0
 25 26  1  0
 26 27  2  0
 26 31  1  0
 27 28  1  0
 28 29  2  0
 29 30  1  0
 29 32  1  0
 30 31  2  0
  1 33  1  0
  2 34  1  0
  7 35  1  0
  7 36  1  0
  8 37  1  1
  9 38  1  1
 10 39  1  0
 10 40  1  0
 11 41  1  0
 11 42  1  0
 17 43  1  0
 18 44  1  0
 19 45  1  0
 20 46  1  0
 20 47  1  0
 21 48  1  0
 21 49  1  0
 22 50  1  0
 22 51  1  0
 23 52  1  0
 24 53  1  0
 27 54  1  0
 28 55  1  0
 30 56  1  0
 31 57  1  0
M  CHG  1   9   1
M  END
>  <filename_input>  (11) 
7PRM_81I_docked.sdf

>  <pdb_id>  (11) 
7PRM_81I

>  <pose_rank>  (11) 
10

>  <num_atoms_heavy>  (11) 
32

>  <num_torsions>  (11) 
4

>  <pose>  (11) 
[131.74466331887587, 19.364693366415917, -11.731847046685447, -1.983300351464226, 2.056363094730383, 0.18370322929246383, -2.005498340443246, 1.27542609046895, 0.20311195113853237, 2.1614717563269092]

>  <energy>  (11) 
-331.80230231769355

>  <inter_energy>  (11) 
-339.7578897109062

>  <intra_energy>  (11) 
5.481365520866607

>  <rmsd>  (11) 
11.7928

>  <sdf_rank>  (11) 
0

$$$$

     RDKit          3D

 57 61  0  0  0  0  0  0  0  0999 V2000
  131.3988   17.0834  -14.1278 C   0  0  0  0  0  0  0  0  0  0  0  0
  131.1497   18.1879  -13.3320 C   0  0  0  0  0  0  0  0  0  0  0  0
  132.1773   18.7474  -12.5789 C   0  0  0  0  0  0  0  0  0  0  0  0
  131.9519   19.8940  -11.7582 N   0  0  0  0  0  0  0  0  0  0  0  0
  132.0300   21.1715  -12.1949 C   0  0  0  0  0  0  0  0  0  0  0  0
  132.2497   21.5092  -13.3528 O   0  0  0  0  0  0  0  0  0  0  0  0
  131.8454   22.0803  -11.0133 C   0  0  0  0  0  0  0  0  0  0  0  0
  132.1263   21.1856   -9.8040 C   0  0  1  0  0  0  0  0  0  0  0  0
  131.4187   21.6121   -8.5745 N   0  0  1  0  0  0  0  0  0  0  0  0
  129.9555   21.5069   -8.6996 C   0  0  0  0  0  0  0  0  0  0  0  0
  129.2379   22.0260   -7.4463 C   0  0  0  0  0  0  0  0  0  0  0  0
  129.7861   21.4116   -6.2230 N   0  0  0  0  0  0  0  0  0  0  0  0
  129.0897   20.9970   -5.1375 C   0  0  0  0  0  0  0  0  0  0  0  0
  129.6586   20.6024   -4.1188 O   0  0  0  0  0  0  0  0  0  0  0  0
  127.5907   20.9638   -5.1136 C   0  0  0  0  0  0  0  0  0  0  0  0
  126.8009   22.0792   -4.9727 O   0  0  0  0  0  0  0  0  0  0  0  0
  125.4926   21.6375   -4.9963 C   0  0  0  0  0  0  0  0  0  0  0  0
  125.4420   20.3362   -5.2375 C   0  0  0  0  0  0  0  0  0  0  0  0
  126.8148   19.8806   -5.3371 C   0  0  0  0  0  0  0  0  0  0  0  0
  131.2531   21.4607   -6.1460 C   0  0  0  0  0  0  0  0  0  0  0  0
  131.8549   20.8578   -7.3879 C   0  0  0  0  0  0  0  0  0  0  0  0
  131.7011   19.8063  -10.3165 C   0  0  0  0  0  0  0  0  0  0  0  0
  133.4411   18.1633  -12.6150 C   0  0  0  0  0  0  0  0  0  0  0  0
  133.6708   17.0465  -13.3929 C   0  0  0  0  0  0  0  0  0  0  0  0
  132.6625   16.4946  -14.1774 C   0  0  0  0  0  0  0  0  0  0  0  0
  132.9245   15.3074  -15.0233 C   0  0  0  0  0  0  0  0  0  0  0  0
  131.8879   14.4613  -15.4163 C   0  0  0  0  0  0  0  0  0  0  0  0
  132.1290   13.3450  -16.1964 C   0  0  0  0  0  0  0  0  0  0  0  0
  133.4172   13.0931  -16.5853 C   0  0  0  0  0  0  0  0  0  0  0  0
  134.4732   13.8695  -16.1996 C   0  0  0  0  0  0  0  0  0  0  0  0
  134.2215   14.9670  -15.3962 C   0  0  0  0  0  0  0  0  0  0  0  0
  133.6647   12.0005  -17.3612 F   0  0  0  0  0  0  0  0  0  0  0  0
  130.5836   16.6611  -14.7336 H   0  0  0  0  0  0  0  0  0  0  0  0
  130.1401   18.6232  -13.2949 H   0  0  0  0  0  0  0  0  0  0  0  0
  132.5561   22.9191  -11.0514 H   0  0  0  0  0  0  0  0  0  0  0  0
  130.8422   22.5303  -10.9805 H   0  0  0  0  0  0  0  0  0  0  0  0
  133.1754   21.2168   -9.4746 H   0  0  0  0  0  0  0  0  0  0  0  0
  131.6687   22.6036   -8.4505 H   0  0  0  0  0  0  0  0  0  0  0  0
  129.6289   22.0983   -9.5677 H   0  0  0  0  0  0  0  0  0  0  0  0
  129.6985   20.4448   -8.8258 H   0  0  0  0  0  0  0  0  0  0  0  0
  129.3641   23.1172   -7.3869 H   0  0  0  0  0  0  0  0  0  0  0  0
  128.1728   21.7614   -7.5209 H   0  0  0  0  0  0  0  0  0  0  0  0
  124.6131   22.2787   -4.8367 H   0  0  0  0  0  0  0  0  0  0  0  0
  124.5358   19.7214   -5.3418 H   0  0  0  0  0  0  0  0  0  0  0  0
  127.1565   18.8573   -5.5518 H   0  0  0  0  0  0  0  0  0  0  0  0
  131.5782   22.5077   -6.0551 H   0  0  0  0  0  0  0  0  0  0  0  0
  131.5878   20.8885   -5.2682 H   0  0  0  0  0  0  0  0  0  0  0  0
  131.5278   19.8116   -7.4805 H   0  0  0  0  0  0  0  0  0  0  0  0
  132.9517   20.9001   -7.3155 H   0  0  0  0  0  0  0  0  0  0  0  0
  130.6365   19.6202  -10.1118 H   0  0  0  0  0  0  0  0  0  0  0  0
  132.2432   18.9801   -9.8333 H   0  0  0  0  0  0  0  0  0  0  0  0
  134.2602   18.5940  -12.0204 H   0  0  0  0  0  0  0  0  0  0  0  0
  134.6690   16.5843  -13.3928 H   0  0  0  0  0  0  0  0  0  0  0  0
  130.8587   14.6862  -15.0999 H   0  0  0  0  0  0  0  0  0  0  0  0
  131.3077   12.6775  -16.4963 H   0  0  0  0  0  0  0  0  0  0  0  0
  135.4975   13.6279  -16.5198 H   0  0  0  0  0  0  0  0  0  0  0  0
  135.0628   15.5827  -15.0453 H   0  0  0  0  0  0  0  0  0  0  0  0
  1  2  2  0
  1 25  1  0
  2  3  1  0
  3  4  1  0
  3 23  2  0
  4  5  1  0
  4 22  1  0
  5  6  2  0
  5  7  1  0
  8  7  1  0
  8  9  1  0
  8 22  1  0
  9 10  1  0
  9 21  1  0
 10 11  1  0
 11 12  1  0
 12 13  1  0
 12 20  1  0
 13 14  2  0
 13 15  1  0
 15 16  1  0
 15 19  2  0
 16 17  1  0
 17 18  2  0
 18 19  1  0
 20 21  1  0
 23 24  1  0
 24 25  2  0
 25 26  1  0
 26 27  2  0
 26 31  1  0
 27 28  1  0
 28 29  2  0
 29 30  1  0
 29 32  1  0
 30 31  2  0
  1 33  1  0
  2 34  1  0
  7 35  1  0
  7 36  1  0
  8 37  1  1
  9 38  1  1
 10 39  1  0
 10 40  1  0
 11 41  1  0
 11 42  1  0
 17 43  1  0
 18 44  1  0
 19 45  1  0
 20 46  1  0
 20 47  1  0
 21 48  1  0
 21 49  1  0
 22 50  1  0
 22 51  1  0
 23 52  1  0
 24 53  1  0
 27 54  1  0
 28 55  1  0
 30 56  1  0
 31 57  1  0
M  CHG  1   9   1
M  END
>  <filename_input>  (12) 
7PRM_81I_docked.sdf

>  <pdb_id>  (12) 
7PRM_81I

>  <pose_rank>  (12) 
11

>  <num_atoms_heavy>  (12) 
32

>  <num_torsions>  (12) 
4

>  <pose>  (12) 
[131.95191550356458, 19.894029472530672, -11.758197985217619, 2.495000899631831, -2.540102589296315, -0.23256213163112682, -2.025405311064799, -1.3567758153557365, 0.7826441331598859, 3.1474679407680033]

>  <energy>  (12) 
-329.20090418189704

>  <inter_energy>  (12) 
-328.79793994307045

>  <intra_energy>  (12) 
0.7928980067484759

>  <rmsd>  (12) 
11.628

>  <sdf_rank>  (12) 
0

$$$$

     RDKit          3D

 57 61  0  0  0  0  0  0  0  0999 V2000
  129.9166   20.6596  -11.5569 C   0  0  0  0  0  0  0  0  0  0  0  0
  129.3846   19.5049  -12.1036 C   0  0  0  0  0  0  0  0  0  0  0  0
  130.0670   18.2987  -11.9781 C   0  0  0  0  0  0  0  0  0  0  0  0
  129.5364   17.0897  -12.5220 N   0  0  0  0  0  0  0  0  0  0  0  0
  129.8020   16.6324  -13.7666 C   0  0  0  0  0  0  0  0  0  0  0  0
  130.5674   17.1622  -14.5645 O   0  0  0  0  0  0  0  0  0  0  0  0
  128.9682   15.4051  -14.0003 C   0  0  0  0  0  0  0  0  0  0  0  0
  127.8652   15.4937  -12.9433 C   0  0  1  0  0  0  0  0  0  0  0  0
  127.3285   14.1747  -12.5352 N   0  0  1  0  0  0  0  0  0  0  0  0
  126.7580   14.1923  -11.1781 C   0  0  0  0  0  0  0  0  0  0  0  0
  126.2786   12.8007  -10.7436 C   0  0  0  0  0  0  0  0  0  0  0  0
  125.3995   12.1960  -11.7615 N   0  0  0  0  0  0  0  0  0  0  0  0
  124.2777   11.4693  -11.5407 C   0  0  0  0  0  0  0  0  0  0  0  0
  123.6797   10.9110  -12.4615 O   0  0  0  0  0  0  0  0  0  0  0  0
  123.6769   11.3206  -10.1748 C   0  0  0  0  0  0  0  0  0  0  0  0
  124.2857   10.6573   -9.1371 O   0  0  0  0  0  0  0  0  0  0  0  0
  123.4234   10.7385   -8.0614 C   0  0  0  0  0  0  0  0  0  0  0  0
  122.3743   11.4907   -8.3580 C   0  0  0  0  0  0  0  0  0  0  0  0
  122.5356   11.8984   -9.7401 C   0  0  0  0  0  0  0  0  0  0  0  0
  125.9511   12.2497  -13.1228 C   0  0  0  0  0  0  0  0  0  0  0  0
  126.3157   13.6677  -13.4756 C   0  0  0  0  0  0  0  0  0  0  0  0
  128.5619   16.2558  -11.8120 C   0  0  0  0  0  0  0  0  0  0  0  0
  131.2979   18.2796  -11.3268 C   0  0  0  0  0  0  0  0  0  0  0  0
  131.8300   19.4427  -10.8079 C   0  0  0  0  0  0  0  0  0  0  0  0
  131.1450   20.6508  -10.8959 C   0  0  0  0  0  0  0  0  0  0  0  0
  131.7162   21.8897  -10.3191 C   0  0  0  0  0  0  0  0  0  0  0  0
  133.0525   21.9500   -9.9248 C   0  0  0  0  0  0  0  0  0  0  0  0
  133.5875   23.1007   -9.3749 C   0  0  0  0  0  0  0  0  0  0  0  0
  132.7716   24.1910   -9.2347 C   0  0  0  0  0  0  0  0  0  0  0  0
  131.4478   24.1744   -9.5723 C   0  0  0  0  0  0  0  0  0  0  0  0
  130.9187   23.0082  -10.0951 C   0  0  0  0  0  0  0  0  0  0  0  0
  133.2909   25.3326   -8.7018 F   0  0  0  0  0  0  0  0  0  0  0  0
  129.3592   21.6039  -11.6455 H   0  0  0  0  0  0  0  0  0  0  0  0
  128.4232   19.5405  -12.6368 H   0  0  0  0  0  0  0  0  0  0  0  0
  128.5393   15.4118  -15.0132 H   0  0  0  0  0  0  0  0  0  0  0  0
  129.5534   14.4770  -13.9218 H   0  0  0  0  0  0  0  0  0  0  0  0
  126.9565   15.9973  -13.3045 H   0  0  0  0  0  0  0  0  0  0  0  0
  128.1397   13.5399  -12.5438 H   0  0  0  0  0  0  0  0  0  0  0  0
  127.5273   14.5402  -10.4729 H   0  0  0  0  0  0  0  0  0  0  0  0
  125.8899   14.8679  -11.1807 H   0  0  0  0  0  0  0  0  0  0  0  0
  127.1533   12.1508  -10.5935 H   0  0  0  0  0  0  0  0  0  0  0  0
  125.7076   12.9057   -9.8093 H   0  0  0  0  0  0  0  0  0  0  0  0
  123.5856   10.2461   -7.0912 H   0  0  0  0  0  0  0  0  0  0  0  0
  121.5434   11.7544   -7.6872 H   0  0  0  0  0  0  0  0  0  0  0  0
  121.8630   12.5484  -10.3190 H   0  0  0  0  0  0  0  0  0  0  0  0
  126.8503   11.6183  -13.1766 H   0  0  0  0  0  0  0  0  0  0  0  0
  125.1952   11.8839  -13.8333 H   0  0  0  0  0  0  0  0  0  0  0  0
  125.4172   14.2998  -13.4193 H   0  0  0  0  0  0  0  0  0  0  0  0
  126.7252   13.6926  -14.4962 H   0  0  0  0  0  0  0  0  0  0  0  0
  129.0645   15.5633  -11.1207 H   0  0  0  0  0  0  0  0  0  0  0  0
  127.8657   16.8387  -11.1912 H   0  0  0  0  0  0  0  0  0  0  0  0
  131.8487   17.3329  -11.2254 H   0  0  0  0  0  0  0  0  0  0  0  0
  132.8135   19.4141  -10.3160 H   0  0  0  0  0  0  0  0  0  0  0  0
  133.6933   21.0652  -10.0536 H   0  0  0  0  0  0  0  0  0  0  0  0
  134.6404   23.1388   -9.0587 H   0  0  0  0  0  0  0  0  0  0  0  0
  130.8187   25.0659   -9.4320 H   0  0  0  0  0  0  0  0  0  0  0  0
  129.8469   22.9639  -10.3386 H   0  0  0  0  0  0  0  0  0  0  0  0
  1  2  2  0
  1 25  1  0
  2  3  1  0
  3  4  1  0
  3 23  2  0
  4  5  1  0
  4 22  1  0
  5  6  2  0
  5  7  1  0
  8  7  1  0
  8  9  1  0
  8 22  1  0
  9 10  1  0
  9 21  1  0
 10 11  1  0
 11 12  1  0
 12 13  1  0
 12 20  1  0
 13 14  2  0
 13 15  1  0
 15 16  1  0
 15 19  2  0
 16 17  1  0
 17 18  2  0
 18 19  1  0
 20 21  1  0
 23 24  1  0
 24 25  2  0
 25 26  1  0
 26 27  2  0
 26 31  1  0
 27 28  1  0
 28 29  2  0
 29 30  1  0
 29 32  1  0
 30 31  2  0
  1 33  1  0
  2 34  1  0
  7 35  1  0
  7 36  1  0
  8 37  1  6
  9 38  1  1
 10 39  1  0
 10 40  1  0
 11 41  1  0
 11 42  1  0
 17 43  1  0
 18 44  1  0
 19 45  1  0
 20 46  1  0
 20 47  1  0
 21 48  1  0
 21 49  1  0
 22 50  1  0
 22 51  1  0
 23 52  1  0
 24 53  1  0
 27 54  1  0
 28 55  1  0
 30 56  1  0
 31 57  1  0
M  CHG  1   9   1
M  END
>  <filename_input>  (13) 
7PRM_81I_docked.sdf

>  <pdb_id>  (13) 
7PRM_81I

>  <pose_rank>  (13) 
12

>  <num_atoms_heavy>  (13) 
32

>  <num_torsions>  (13) 
4

>  <pose>  (13) 
[129.53639106434002, 17.089678908595264, -12.521952150681013, -2.504657461261693, -1.4329110260091948, -1.1334500251319977, -0.46062150592411055, -1.1847416427654007, -2.400319439914463, 0.6531842900066951]

>  <energy>  (13) 
-303.4786734407183

>  <inter_energy>  (13) 
-301.3552848268848

>  <intra_energy>  (13) 
2.3366636479885567

>  <rmsd>  (13) 
9.34583

>  <sdf_rank>  (13) 
0

$$$$

     RDKit          3D

 57 61  0  0  0  0  0  0  0  0999 V2000
  131.3615   19.4092   -2.7373 C   0  0  0  0  0  0  0  0  0  0  0  0
  130.7682   20.0497   -3.8111 C   0  0  0  0  0  0  0  0  0  0  0  0
  131.5558   20.5475   -4.8445 C   0  0  0  0  0  0  0  0  0  0  0  0
  130.9701   21.2025   -5.9702 N   0  0  0  0  0  0  0  0  0  0  0  0
  129.7860   21.8551   -5.9416 C   0  0  0  0  0  0  0  0  0  0  0  0
  129.0922   22.0147   -4.9435 O   0  0  0  0  0  0  0  0  0  0  0  0
  129.4649   22.3000   -7.3399 C   0  0  0  0  0  0  0  0  0  0  0  0
  130.3535   21.4242   -8.2259 C   0  0  1  0  0  0  0  0  0  0  0  0
  130.7116   22.0578   -9.5161 N   0  0  1  0  0  0  0  0  0  0  0  0
  130.8144   23.5231   -9.4165 C   0  0  0  0  0  0  0  0  0  0  0  0
  131.1087   24.1673  -10.7780 C   0  0  0  0  0  0  0  0  0  0  0  0
  132.2604   23.5235  -11.4365 N   0  0  0  0  0  0  0  0  0  0  0  0
  133.2409   24.1353  -12.1434 C   0  0  0  0  0  0  0  0  0  0  0  0
  134.0958   23.4899  -12.7514 O   0  0  0  0  0  0  0  0  0  0  0  0
  133.3672   25.6280  -12.2092 C   0  0  0  0  0  0  0  0  0  0  0  0
  133.7700   26.4110  -11.1545 O   0  0  0  0  0  0  0  0  0  0  0  0
  133.7556   27.7154  -11.6078 C   0  0  0  0  0  0  0  0  0  0  0  0
  133.4601   27.7595  -12.8981 C   0  0  0  0  0  0  0  0  0  0  0  0
  133.2208   26.3913  -13.3143 C   0  0  0  0  0  0  0  0  0  0  0  0
  132.1778   22.0563  -11.4650 C   0  0  0  0  0  0  0  0  0  0  0  0
  131.9663   21.5248  -10.0719 C   0  0  0  0  0  0  0  0  0  0  0  0
  131.5542   21.1548   -7.3139 C   0  0  0  0  0  0  0  0  0  0  0  0
  132.9403   20.4193   -4.7652 C   0  0  0  0  0  0  0  0  0  0  0  0
  133.5218   19.8009   -3.6768 C   0  0  0  0  0  0  0  0  0  0  0  0
  132.7467   19.2684   -2.6511 C   0  0  0  0  0  0  0  0  0  0  0  0
  133.3798   18.5900   -1.4967 C   0  0  0  0  0  0  0  0  0  0  0  0
  134.2633   17.5272   -1.6829 C   0  0  0  0  0  0  0  0  0  0  0  0
  134.8480   16.8829   -0.6078 C   0  0  0  0  0  0  0  0  0  0  0  0
  134.5449   17.3221    0.6529 C   0  0  0  0  0  0  0  0  0  0  0  0
  133.6599   18.3351    0.8921 C   0  0  0  0  0  0  0  0  0  0  0  0
  133.0609   18.9523   -0.1912 C   0  0  0  0  0  0  0  0  0  0  0  0
  135.1221   16.6997    1.7190 F   0  0  0  0  0  0  0  0  0  0  0  0
  130.7277   19.0027   -1.9354 H   0  0  0  0  0  0  0  0  0  0  0  0
  129.6749   20.1653   -3.8475 H   0  0  0  0  0  0  0  0  0  0  0  0
  128.4017   22.1335   -7.5678 H   0  0  0  0  0  0  0  0  0  0  0  0
  129.6461   23.3742   -7.4923 H   0  0  0  0  0  0  0  0  0  0  0  0
  129.8565   20.5034   -8.5649 H   0  0  0  0  0  0  0  0  0  0  0  0
  129.9377   21.8241  -10.1544 H   0  0  0  0  0  0  0  0  0  0  0  0
  129.8638   23.9215   -9.0321 H   0  0  0  0  0  0  0  0  0  0  0  0
  131.6464   23.7623   -8.7379 H   0  0  0  0  0  0  0  0  0  0  0  0
  130.2233   24.0638  -11.4225 H   0  0  0  0  0  0  0  0  0  0  0  0
  131.3495   25.2283  -10.6158 H   0  0  0  0  0  0  0  0  0  0  0  0
  133.9614   28.5970  -10.9828 H   0  0  0  0  0  0  0  0  0  0  0  0
  133.4066   28.6581  -13.5302 H   0  0  0  0  0  0  0  0  0  0  0  0
  132.9702   26.0441  -14.3275 H   0  0  0  0  0  0  0  0  0  0  0  0
  131.3353   21.7512  -12.1030 H   0  0  0  0  0  0  0  0  0  0  0  0
  133.1172   21.6496  -11.8677 H   0  0  0  0  0  0  0  0  0  0  0  0
  132.8074   21.8320   -9.4330 H   0  0  0  0  0  0  0  0  0  0  0  0
  131.9081   20.4270  -10.1086 H   0  0  0  0  0  0  0  0  0  0  0  0
  132.3250   21.9299   -7.4369 H   0  0  0  0  0  0  0  0  0  0  0  0
  132.0573   20.2013   -7.5326 H   0  0  0  0  0  0  0  0  0  0  0  0
  133.5736   20.8128   -5.5740 H   0  0  0  0  0  0  0  0  0  0  0  0
  134.6179   19.7276   -3.6192 H   0  0  0  0  0  0  0  0  0  0  0  0
  134.4998   17.1951   -2.7045 H   0  0  0  0  0  0  0  0  0  0  0  0
  135.5380   16.0401   -0.7616 H   0  0  0  0  0  0  0  0  0  0  0  0
  133.4296   18.6518    1.9201 H   0  0  0  0  0  0  0  0  0  0  0  0
  132.3182   19.7449   -0.0176 H   0  0  0  0  0  0  0  0  0  0  0  0
  1  2  2  0
  1 25  1  0
  2  3  1  0
  3  4  1  0
  3 23  2  0
  4  5  1  0
  4 22  1  0
  5  6  2  0
  5  7  1  0
  8  7  1  0
  8  9  1  0
  8 22  1  0
  9 10  1  0
  9 21  1  0
 10 11  1  0
 11 12  1  0
 12 13  1  0
 12 20  1  0
 13 14  2  0
 13 15  1  0
 15 16  1  0
 15 19  2  0
 16 17  1  0
 17 18  2  0
 18 19  1  0
 20 21  1  0
 23 24  1  0
 24 25  2  0
 25 26  1  0
 26 27  2  0
 26 31  1  0
 27 28  1  0
 28 29  2  0
 29 30  1  0
 29 32  1  0
 30 31  2  0
  1 33  1  0
  2 34  1  0
  7 35  1  0
  7 36  1  0
  8 37  1  6
  9 38  1  6
 10 39  1  0
 10 40  1  0
 11 41  1  0
 11 42  1  0
 17 43  1  0
 18 44  1  0
 19 45  1  0
 20 46  1  0
 20 47  1  0
 21 48  1  0
 21 49  1  0
 22 50  1  0
 22 51  1  0
 23 52  1  0
 24 53  1  0
 27 54  1  0
 28 55  1  0
 30 56  1  0
 31 57  1  0
M  CHG  1   9   1
M  END
>  <filename_input>  (14) 
7PRM_81I_docked.sdf

>  <pdb_id>  (14) 
7PRM_81I

>  <pose_rank>  (14) 
13

>  <num_atoms_heavy>  (14) 
32

>  <num_torsions>  (14) 
4

>  <pose>  (14) 
[130.97009432727182, 21.202454183613998, -5.97020093265765, -0.1246127894703645, 4.495912809966899, 2.9769429482410814, 3.6778086631812124, 1.2101553292341678, 2.7604527810114745, -0.5382956434271506]

>  <energy>  (14) 
-236.0916073519382

>  <inter_energy>  (14) 
-250.20684279611186

>  <intra_energy>  (14) 
18.547293163421173

>  <rmsd>  (14) 
10.0903

>  <sdf_rank>  (14) 
0

$$$$

     RDKit          3D

 57 61  0  0  0  0  0  0  0  0999 V2000
  128.0597   13.9006  -13.1369 C   0  0  0  0  0  0  0  0  0  0  0  0
  128.8419   14.7836  -12.4132 C   0  0  0  0  0  0  0  0  0  0  0  0
  129.0870   16.0607  -12.9082 C   0  0  0  0  0  0  0  0  0  0  0  0
  129.8806   16.9965  -12.1778 N   0  0  0  0  0  0  0  0  0  0  0  0
  131.0889   17.4503  -12.5814 C   0  0  0  0  0  0  0  0  0  0  0  0
  131.6325   17.1624  -13.6419 O   0  0  0  0  0  0  0  0  0  0  0  0
  131.6486   18.3193  -11.4915 C   0  0  0  0  0  0  0  0  0  0  0  0
  130.8463   17.9264  -10.2490 C   0  0  1  0  0  0  0  0  0  0  0  0
  130.7330   19.0134   -9.2490 N   0  0  1  0  0  0  0  0  0  0  0  0
  130.8709   18.5257   -7.8667 C   0  0  0  0  0  0  0  0  0  0  0  0
  130.6730   19.6519   -6.8430 C   0  0  0  0  0  0  0  0  0  0  0  0
  131.5184   20.8177   -7.1603 N   0  0  0  0  0  0  0  0  0  0  0  0
  132.1922   21.5983   -6.2817 C   0  0  0  0  0  0  0  0  0  0  0  0
  132.7773   22.6198   -6.6441 O   0  0  0  0  0  0  0  0  0  0  0  0
  132.2944   21.2583   -4.8248 C   0  0  0  0  0  0  0  0  0  0  0  0
  133.3675   20.6114   -4.2615 O   0  0  0  0  0  0  0  0  0  0  0  0
  133.0846   20.4829   -2.9158 C   0  0  0  0  0  0  0  0  0  0  0  0
  131.9496   21.0960   -2.6155 C   0  0  0  0  0  0  0  0  0  0  0  0
  131.4264   21.6291   -3.8581 C   0  0  0  0  0  0  0  0  0  0  0  0
  131.4243   21.2491   -8.5622 C   0  0  0  0  0  0  0  0  0  0  0  0
  131.7114   20.0891   -9.4788 C   0  0  0  0  0  0  0  0  0  0  0  0
  129.5054   17.4974  -10.8521 C   0  0  0  0  0  0  0  0  0  0  0  0
  128.5627   16.4208  -14.1472 C   0  0  0  0  0  0  0  0  0  0  0  0
  127.8050   15.5225  -14.8712 C   0  0  0  0  0  0  0  0  0  0  0  0
  127.5232   14.2531  -14.3754 C   0  0  0  0  0  0  0  0  0  0  0  0
  126.6933   13.3033  -15.1518 C   0  0  0  0  0  0  0  0  0  0  0  0
  125.7231   12.5194  -14.5281 C   0  0  0  0  0  0  0  0  0  0  0  0
  124.9537   11.6226  -15.2469 C   0  0  0  0  0  0  0  0  0  0  0  0
  125.1610   11.5285  -16.5968 C   0  0  0  0  0  0  0  0  0  0  0  0
  126.1212   12.2472  -17.2512 C   0  0  0  0  0  0  0  0  0  0  0  0
  126.9026   13.1199  -16.5156 C   0  0  0  0  0  0  0  0  0  0  0  0
  124.4025   10.6540  -17.3159 F   0  0  0  0  0  0  0  0  0  0  0  0
  127.8567   12.9002  -12.7269 H   0  0  0  0  0  0  0  0  0  0  0  0
  129.2696   14.4760  -11.4476 H   0  0  0  0  0  0  0  0  0  0  0  0
  132.7199   18.1184  -11.3438 H   0  0  0  0  0  0  0  0  0  0  0  0
  131.5673   19.3914  -11.7239 H   0  0  0  0  0  0  0  0  0  0  0  0
  131.3243   17.1327   -9.6561 H   0  0  0  0  0  0  0  0  0  0  0  0
  129.7836   19.3935   -9.3715 H   0  0  0  0  0  0  0  0  0  0  0  0
  130.1169   17.7451   -7.6875 H   0  0  0  0  0  0  0  0  0  0  0  0
  131.8889   18.1273   -7.7444 H   0  0  0  0  0  0  0  0  0  0  0  0
  129.6175   19.9617   -6.8504 H   0  0  0  0  0  0  0  0  0  0  0  0
  130.9602   19.2741   -5.8506 H   0  0  0  0  0  0  0  0  0  0  0  0
  133.7153   19.9451   -2.1927 H   0  0  0  0  0  0  0  0  0  0  0  0
  131.4934   21.1836   -1.6184 H   0  0  0  0  0  0  0  0  0  0  0  0
  130.5063   22.2179   -3.9879 H   0  0  0  0  0  0  0  0  0  0  0  0
  130.4103   21.6271   -8.7598 H   0  0  0  0  0  0  0  0  0  0  0  0
  132.1615   22.0448   -8.7453 H   0  0  0  0  0  0  0  0  0  0  0  0
  132.7243   19.7092   -9.2797 H   0  0  0  0  0  0  0  0  0  0  0  0
  131.6389   20.4268  -10.5232 H   0  0  0  0  0  0  0  0  0  0  0  0
  128.8177   18.3520  -10.9333 H   0  0  0  0  0  0  0  0  0  0  0  0
  128.9767   16.7503  -10.2419 H   0  0  0  0  0  0  0  0  0  0  0  0
  128.7533   17.4262  -14.5509 H   0  0  0  0  0  0  0  0  0  0  0  0
  127.4170   15.8152  -15.8579 H   0  0  0  0  0  0  0  0  0  0  0  0
  125.5668   12.6162  -13.4436 H   0  0  0  0  0  0  0  0  0  0  0  0
  124.1956   11.0016  -14.7472 H   0  0  0  0  0  0  0  0  0  0  0  0
  126.2690   12.1347  -18.3354 H   0  0  0  0  0  0  0  0  0  0  0  0
  127.7050   13.6799  -17.0182 H   0  0  0  0  0  0  0  0  0  0  0  0
  1  2  2  0
  1 25  1  0
  2  3  1  0
  3  4  1  0
  3 23  2  0
  4  5  1  0
  4 22  1  0
  5  6  2  0
  5  7  1  0
  8  7  1  0
  8  9  1  0
  8 22  1  0
  9 10  1  0
  9 21  1  0
 10 11  1  0
 11 12  1  0
 12 13  1  0
 12 20  1  0
 13 14  2  0
 13 15  1  0
 15 16  1  0
 15 19  2  0
 16 17  1  0
 17 18  2  0
 18 19  1  0
 20 21  1  0
 23 24  1  0
 24 25  2  0
 25 26  1  0
 26 27  2  0
 26 31  1  0
 27 28  1  0
 28 29  2  0
 29 30  1  0
 29 32  1  0
 30 31  2  0
  1 33  1  0
  2 34  1  0
  7 35  1  0
  7 36  1  0
  8 37  1  1
  9 38  1  1
 10 39  1  0
 10 40  1  0
 11 41  1  0
 11 42  1  0
 17 43  1  0
 18 44  1  0
 19 45  1  0
 20 46  1  0
 20 47  1  0
 21 48  1  0
 21 49  1  0
 22 50  1  0
 22 51  1  0
 23 52  1  0
 24 53  1  0
 27 54  1  0
 28 55  1  0
 30 56  1  0
 31 57  1  0
M  CHG  1   9   1
M  END
>  <filename_input>  (15) 
7PRM_81I_docked.sdf

>  <pdb_id>  (15) 
7PRM_81I

>  <pose_rank>  (15) 
14

>  <num_atoms_heavy>  (15) 
32

>  <num_torsions>  (15) 
4

>  <pose>  (15) 
[129.88063858105926, 16.996472869156786, -12.177762334058036, 0.9596342470715734, -3.4450709916994953, 0.6633329395034077, 0.6908735875530212, 1.6642004791566152, -2.014107111911672, -1.9936286143596518]

>  <energy>  (15) 
-285.27454715494673

>  <inter_energy>  (15) 
-279.4761383730092

>  <intra_energy>  (15) 
5.44054749802217

>  <rmsd>  (15) 
13.3204

>  <sdf_rank>  (15) 
0

$$$$

     RDKit          3D

 57 61  0  0  0  0  0  0  0  0999 V2000
  132.7884   16.9007  -12.7048 C   0  0  0  0  0  0  0  0  0  0  0  0
  132.2458   17.9608  -11.9997 C   0  0  0  0  0  0  0  0  0  0  0  0
  133.0005   19.1094  -11.7824 C   0  0  0  0  0  0  0  0  0  0  0  0
  132.4624   20.2229  -11.0685 N   0  0  0  0  0  0  0  0  0  0  0  0
  132.2117   21.4324  -11.6189 C   0  0  0  0  0  0  0  0  0  0  0  0
  132.3615   21.7136  -12.8028 O   0  0  0  0  0  0  0  0  0  0  0  0
  131.7671   22.3599  -10.5242 C   0  0  0  0  0  0  0  0  0  0  0  0
  132.2455   21.6803   -9.2392 C   0  0  1  0  0  0  0  0  0  0  0  0
  131.4223   22.0105   -8.0527 N   0  0  1  0  0  0  0  0  0  0  0  0
  129.9787   21.9756   -8.3395 C   0  0  0  0  0  0  0  0  0  0  0  0
  129.1456   22.3960   -7.1210 C   0  0  0  0  0  0  0  0  0  0  0  0
  129.5415   21.6425   -5.9168 N   0  0  0  0  0  0  0  0  0  0  0  0
  128.7210   21.1502   -4.9579 C   0  0  0  0  0  0  0  0  0  0  0  0
  129.1657   20.6347   -3.9314 O   0  0  0  0  0  0  0  0  0  0  0  0
  127.2278   21.1736   -5.0936 C   0  0  0  0  0  0  0  0  0  0  0  0
  126.5679   21.2409   -6.2967 O   0  0  0  0  0  0  0  0  0  0  0  0
  125.2184   21.2437   -6.0031 C   0  0  0  0  0  0  0  0  0  0  0  0
  125.0219   21.0870   -4.7027 C   0  0  0  0  0  0  0  0  0  0  0  0
  126.3349   21.0193   -4.0915 C   0  0  0  0  0  0  0  0  0  0  0  0
  130.9925   21.6262   -5.6830 C   0  0  0  0  0  0  0  0  0  0  0  0
  131.7068   21.1260   -6.9108 C   0  0  0  0  0  0  0  0  0  0  0  0
  132.2102   20.1984   -9.6246 C   0  0  0  0  0  0  0  0  0  0  0  0
  134.3097   19.1610  -12.2548 C   0  0  0  0  0  0  0  0  0  0  0  0
  134.8482   18.0873  -12.9346 C   0  0  0  0  0  0  0  0  0  0  0  0
  134.0960   16.9444  -13.1890 C   0  0  0  0  0  0  0  0  0  0  0  0
  134.6773   15.8052  -13.9360 C   0  0  0  0  0  0  0  0  0  0  0  0
  135.5173   14.8865  -13.3074 C   0  0  0  0  0  0  0  0  0  0  0  0
  136.0720   13.8278  -14.0033 C   0  0  0  0  0  0  0  0  0  0  0  0
  135.7671   13.6955  -15.3314 C   0  0  0  0  0  0  0  0  0  0  0  0
  134.9784   14.5862  -16.0032 C   0  0  0  0  0  0  0  0  0  0  0  0
  134.4529   15.6562  -15.3015 C   0  0  0  0  0  0  0  0  0  0  0  0
  136.3015   12.6510  -16.0245 F   0  0  0  0  0  0  0  0  0  0  0  0
  132.1761   16.0053  -12.8871 H   0  0  0  0  0  0  0  0  0  0  0  0
  131.2187   17.8953  -11.6113 H   0  0  0  0  0  0  0  0  0  0  0  0
  132.2327   23.3499  -10.6386 H   0  0  0  0  0  0  0  0  0  0  0  0
  130.6804   22.5299  -10.5315 H   0  0  0  0  0  0  0  0  0  0  0  0
  133.2415   22.0162   -8.9147 H   0  0  0  0  0  0  0  0  0  0  0  0
  131.6857   22.9743   -7.8024 H   0  0  0  0  0  0  0  0  0  0  0  0
  129.7642   22.6624   -9.1716 H   0  0  0  0  0  0  0  0  0  0  0  0
  129.7065   20.9422   -8.5999 H   0  0  0  0  0  0  0  0  0  0  0  0
  129.2958   23.4701   -6.9373 H   0  0  0  0  0  0  0  0  0  0  0  0
  128.0876   22.1820   -7.3327 H   0  0  0  0  0  0  0  0  0  0  0  0
  124.4167   21.3601   -6.7472 H   0  0  0  0  0  0  0  0  0  0  0  0
  124.0523   21.0211   -4.1873 H   0  0  0  0  0  0  0  0  0  0  0  0
  126.5593   20.8718   -3.0247 H   0  0  0  0  0  0  0  0  0  0  0  0
  131.3357   22.6455   -5.4519 H   0  0  0  0  0  0  0  0  0  0  0  0
  131.2146   20.9572   -4.8385 H   0  0  0  0  0  0  0  0  0  0  0  0
  131.3620   20.1077   -7.1437 H   0  0  0  0  0  0  0  0  0  0  0  0
  132.7903   21.1179   -6.7208 H   0  0  0  0  0  0  0  0  0  0  0  0
  131.2276   19.7563   -9.4031 H   0  0  0  0  0  0  0  0  0  0  0  0
  132.9393   19.5902   -9.0691 H   0  0  0  0  0  0  0  0  0  0  0  0
  134.9175   20.0620  -12.0852 H   0  0  0  0  0  0  0  0  0  0  0  0
  135.8909   18.1358  -13.2817 H   0  0  0  0  0  0  0  0  0  0  0  0
  135.7431   15.0062  -12.2375 H   0  0  0  0  0  0  0  0  0  0  0  0
  136.7401   13.1113  -13.5031 H   0  0  0  0  0  0  0  0  0  0  0  0
  134.7667   14.4557  -17.0747 H   0  0  0  0  0  0  0  0  0  0  0  0
  133.8459   16.4039  -15.8331 H   0  0  0  0  0  0  0  0  0  0  0  0
  1  2  2  0
  1 25  1  0
  2  3  1  0
  3  4  1  0
  3 23  2  0
  4  5  1  0
  4 22  1  0
  5  6  2  0
  5  7  1  0
  8  7  1  0
  8  9  1  0
  8 22  1  0
  9 10  1  0
  9 21  1  0
 10 11  1  0
 11 12  1  0
 12 13  1  0
 12 20  1  0
 13 14  2  0
 13 15  1  0
 15 16  1  0
 15 19  2  0
 16 17  1  0
 17 18  2  0
 18 19  1  0
 20 21  1  0
 23 24  1  0
 24 25  2  0
 25 26  1  0
 26 27  2  0
 26 31  1  0
 27 28  1  0
 28 29  2  0
 29 30  1  0
 29 32  1  0
 30 31  2  0
  1 33  1  0
  2 34  1  0
  7 35  1  0
  7 36  1  0
  8 37  1  1
  9 38  1  1
 10 39  1  0
 10 40  1  0
 11 41  1  0
 11 42  1  0
 17 43  1  0
 18 44  1  0
 19 45  1  0
 20 46  1  0
 20 47  1  0
 21 48  1  0
 21 49  1  0
 22 50  1  0
 22 51  1  0
 23 52  1  0
 24 53  1  0
 27 54  1  0
 28 55  1  0
 30 56  1  0
 31 57  1  0
M  CHG  1   9   1
M  END
>  <filename_input>  (16) 
7PRM_81I_docked.sdf

>  <pdb_id>  (16) 
7PRM_81I

>  <pose_rank>  (16) 
15

>  <num_atoms_heavy>  (16) 
32

>  <num_torsions>  (16) 
4

>  <pose>  (16) 
[132.46242471822225, 20.222905302992224, -11.068491928437805, -2.208514854226752, 1.6993970881306604, 0.15916087147477434, -2.394352853843546, 0.3780779725418588, 0.30922252913951476, 1.8111271182132662]

>  <energy>  (16) 
-334.9622541167641

>  <inter_energy>  (16) 
-351.6500817947483

>  <intra_energy>  (16) 
16.486863820457486

>  <rmsd>  (16) 
11.2758

>  <sdf_rank>  (16) 
0

$$$$

     RDKit          3D

 57 61  0  0  0  0  0  0  0  0999 V2000
  132.5369   21.4297  -11.0915 C   0  0  0  0  0  0  0  0  0  0  0  0
  132.5165   21.4637   -9.7081 C   0  0  0  0  0  0  0  0  0  0  0  0
  131.3078   21.3504   -9.0282 C   0  0  0  0  0  0  0  0  0  0  0  0
  131.2581   21.3705   -7.6013 N   0  0  0  0  0  0  0  0  0  0  0  0
  130.8237   22.4206   -6.8682 C   0  0  0  0  0  0  0  0  0  0  0  0
  130.3700   23.4627   -7.3281 O   0  0  0  0  0  0  0  0  0  0  0  0
  131.0375   22.0967   -5.4172 C   0  0  0  0  0  0  0  0  0  0  0  0
  132.0643   20.9621   -5.4332 C   0  0  1  0  0  0  0  0  0  0  0  0
  131.9686   20.0600   -4.2621 N   0  0  1  0  0  0  0  0  0  0  0  0
  133.1963   19.2751   -4.0519 C   0  0  0  0  0  0  0  0  0  0  0  0
  133.0502   18.2911   -2.8833 C   0  0  0  0  0  0  0  0  0  0  0  0
  132.5508   18.9689   -1.6726 N   0  0  0  0  0  0  0  0  0  0  0  0
  132.9497   18.7541   -0.3959 C   0  0  0  0  0  0  0  0  0  0  0  0
  132.3838   19.2938    0.5557 O   0  0  0  0  0  0  0  0  0  0  0  0
  134.1164   17.8739   -0.0598 C   0  0  0  0  0  0  0  0  0  0  0  0
  135.0051   17.3901   -0.9892 O   0  0  0  0  0  0  0  0  0  0  0  0
  135.9222   16.6273   -0.2933 C   0  0  0  0  0  0  0  0  0  0  0  0
  135.6971   16.6979    1.0100 C   0  0  0  0  0  0  0  0  0  0  0  0
  134.5231   17.5312    1.1821 C   0  0  0  0  0  0  0  0  0  0  0  0
  131.3665   19.8058   -1.9124 C   0  0  0  0  0  0  0  0  0  0  0  0
  131.6436   20.7849   -3.0227 C   0  0  0  0  0  0  0  0  0  0  0  0
  131.7671   20.2757   -6.7697 C   0  0  0  0  0  0  0  0  0  0  0  0
  130.1269   21.2350   -9.7575 C   0  0  0  0  0  0  0  0  0  0  0  0
  130.1577   21.2279  -11.1374 C   0  0  0  0  0  0  0  0  0  0  0  0
  131.3610   21.3070  -11.8320 C   0  0  0  0  0  0  0  0  0  0  0  0
  131.3846   21.2794  -13.3126 C   0  0  0  0  0  0  0  0  0  0  0  0
  132.0871   22.2405  -14.0389 C   0  0  0  0  0  0  0  0  0  0  0  0
  132.1026   22.2259  -15.4218 C   0  0  0  0  0  0  0  0  0  0  0  0
  131.4153   21.2327  -16.0663 C   0  0  0  0  0  0  0  0  0  0  0  0
  130.6831   20.2881  -15.4043 C   0  0  0  0  0  0  0  0  0  0  0  0
  130.6534   20.3311  -14.0221 C   0  0  0  0  0  0  0  0  0  0  0  0
  131.4309   21.2041  -17.4286 F   0  0  0  0  0  0  0  0  0  0  0  0
  133.5000   21.5009  -11.6180 H   0  0  0  0  0  0  0  0  0  0  0  0
  133.4552   21.5803   -9.1465 H   0  0  0  0  0  0  0  0  0  0  0  0
  131.4298   22.9703   -4.8760 H   0  0  0  0  0  0  0  0  0  0  0  0
  130.1050   21.8138   -4.9068 H   0  0  0  0  0  0  0  0  0  0  0  0
  133.1031   21.3149   -5.3531 H   0  0  0  0  0  0  0  0  0  0  0  0
  131.1976   19.4136   -4.4829 H   0  0  0  0  0  0  0  0  0  0  0  0
  133.4184   18.7090   -4.9685 H   0  0  0  0  0  0  0  0  0  0  0  0
  134.0116   19.9733   -3.8113 H   0  0  0  0  0  0  0  0  0  0  0  0
  132.3424   17.4987   -3.1682 H   0  0  0  0  0  0  0  0  0  0  0  0
  134.0401   17.8664   -2.6605 H   0  0  0  0  0  0  0  0  0  0  0  0
  136.7291   16.0414   -0.7578 H   0  0  0  0  0  0  0  0  0  0  0  0
  136.2856   16.2182    1.8060 H   0  0  0  0  0  0  0  0  0  0  0  0
  134.0567   17.8255    2.1339 H   0  0  0  0  0  0  0  0  0  0  0  0
  130.5187   19.1646   -2.1954 H   0  0  0  0  0  0  0  0  0  0  0  0
  131.1246   20.3606   -0.9939 H   0  0  0  0  0  0  0  0  0  0  0  0
  132.4931   21.4245   -2.7411 H   0  0  0  0  0  0  0  0  0  0  0  0
  130.7502   21.4045   -3.1898 H   0  0  0  0  0  0  0  0  0  0  0  0
  131.0097   19.4872   -6.6486 H   0  0  0  0  0  0  0  0  0  0  0  0
  132.6459   19.7765   -7.2037 H   0  0  0  0  0  0  0  0  0  0  0  0
  129.1648   21.1492   -9.2311 H   0  0  0  0  0  0  0  0  0  0  0  0
  129.2140   21.1583  -11.6982 H   0  0  0  0  0  0  0  0  0  0  0  0
  132.6396   23.0254  -13.5015 H   0  0  0  0  0  0  0  0  0  0  0  0
  132.6523   22.9918  -15.9885 H   0  0  0  0  0  0  0  0  0  0  0  0
  130.1313   19.5131  -15.9565 H   0  0  0  0  0  0  0  0  0  0  0  0
  130.0400   19.6016  -13.4729 H   0  0  0  0  0  0  0  0  0  0  0  0
  1  2  2  0
  1 25  1  0
  2  3  1  0
  3  4  1  0
  3 23  2  0
  4  5  1  0
  4 22  1  0
  5  6  2  0
  5  7  1  0
  8  7  1  0
  8  9  1  0
  8 22  1  0
  9 10  1  0
  9 21  1  0
 10 11  1  0
 11 12  1  0
 12 13  1  0
 12 20  1  0
 13 14  2  0
 13 15  1  0
 15 16  1  0
 15 19  2  0
 16 17  1  0
 17 18  2  0
 18 19  1  0
 20 21  1  0
 23 24  1  0
 24 25  2  0
 25 26  1  0
 26 27  2  0
 26 31  1  0
 27 28  1  0
 28 29  2  0
 29 30  1  0
 29 32  1  0
 30 31  2  0
  1 33  1  0
  2 34  1  0
  7 35  1  0
  7 36  1  0
  8 37  1  6
  9 38  1  6
 10 39  1  0
 10 40  1  0
 11 41  1  0
 11 42  1  0
 17 43  1  0
 18 44  1  0
 19 45  1  0
 20 46  1  0
 20 47  1  0
 21 48  1  0
 21 49  1  0
 22 50  1  0
 22 51  1  0
 23 52  1  0
 24 53  1  0
 27 54  1  0
 28 55  1  0
 30 56  1  0
 31 57  1  0
M  CHG  1   9   1
M  END
>  <filename_input>  (17) 
7PRM_81I_docked.sdf

>  <pdb_id>  (17) 
7PRM_81I

>  <pose_rank>  (17) 
16

>  <num_atoms_heavy>  (17) 
32

>  <num_torsions>  (17) 
4

>  <pose>  (17) 
[131.2580809500448, 21.370510077423916, -7.60126139042427, 2.59346966395246, -1.8907027146745767, -2.042430698177164, 0.31944841295529486, 0.16265563786700396, -2.1505831196877385, 2.683882333489702]

>  <energy>  (17) 
-248.80581516865496

>  <inter_energy>  (17) 
-273.97751539512313

>  <intra_energy>  (17) 
18.71950233983418

>  <rmsd>  (17) 
13.2934

>  <sdf_rank>  (17) 
0

$$$$

     RDKit          3D

 57 61  0  0  0  0  0  0  0  0999 V2000
  131.3092   17.0429  -11.9429 C   0  0  0  0  0  0  0  0  0  0  0  0
  131.8259   18.2217  -11.4341 C   0  0  0  0  0  0  0  0  0  0  0  0
  130.9840   19.3041  -11.1976 C   0  0  0  0  0  0  0  0  0  0  0  0
  131.4875   20.5285  -10.6623 N   0  0  0  0  0  0  0  0  0  0  0  0
  131.4113   20.8790   -9.3584 C   0  0  0  0  0  0  0  0  0  0  0  0
  130.9529   20.1763   -8.4645 O   0  0  0  0  0  0  0  0  0  0  0  0
  131.9412   22.2776   -9.2199 C   0  0  0  0  0  0  0  0  0  0  0  0
  131.8823   22.8439  -10.6403 C   0  0  1  0  0  0  0  0  0  0  0  0
  132.8914   23.8966  -10.9007 N   0  0  1  0  0  0  0  0  0  0  0  0
  132.3886   25.2475  -10.6010 C   0  0  0  0  0  0  0  0  0  0  0  0
  133.4195   26.3294  -10.9504 C   0  0  0  0  0  0  0  0  0  0  0  0
  134.7344   26.0275  -10.3550 N   0  0  0  0  0  0  0  0  0  0  0  0
  135.5954   26.9093   -9.7925 C   0  0  0  0  0  0  0  0  0  0  0  0
  136.7212   26.5677   -9.4280 O   0  0  0  0  0  0  0  0  0  0  0  0
  135.2281   28.3430   -9.5515 C   0  0  0  0  0  0  0  0  0  0  0  0
  135.2967   29.3242  -10.5107 O   0  0  0  0  0  0  0  0  0  0  0  0
  134.8829   30.4939   -9.9042 C   0  0  0  0  0  0  0  0  0  0  0  0
  134.4788   30.2609   -8.6645 C   0  0  0  0  0  0  0  0  0  0  0  0
  134.6810   28.8456   -8.4230 C   0  0  0  0  0  0  0  0  0  0  0  0
  135.1909   24.6525  -10.6023 C   0  0  0  0  0  0  0  0  0  0  0  0
  134.1398   23.6718  -10.1534 C   0  0  0  0  0  0  0  0  0  0  0  0
  132.0630   21.5872  -11.4971 C   0  0  0  0  0  0  0  0  0  0  0  0
  129.6310   19.1924  -11.5083 C   0  0  0  0  0  0  0  0  0  0  0  0
  129.1322   18.0200  -12.0390 C   0  0  0  0  0  0  0  0  0  0  0  0
  129.9544   16.9173  -12.2507 C   0  0  0  0  0  0  0  0  0  0  0  0
  129.4054   15.6575  -12.8030 C   0  0  0  0  0  0  0  0  0  0  0  0
  129.5764   15.3265  -14.1469 C   0  0  0  0  0  0  0  0  0  0  0  0
  129.0556   14.1570  -14.6701 C   0  0  0  0  0  0  0  0  0  0  0  0
  128.3717   13.3202  -13.8298 C   0  0  0  0  0  0  0  0  0  0  0  0
  128.1459   13.6129  -12.5145 C   0  0  0  0  0  0  0  0  0  0  0  0
  128.6482   14.7993  -12.0110 C   0  0  0  0  0  0  0  0  0  0  0  0
  127.8617   12.1610  -14.3331 F   0  0  0  0  0  0  0  0  0  0  0  0
  131.9807   16.1874  -12.1079 H   0  0  0  0  0  0  0  0  0  0  0  0
  132.9011   18.3029  -11.2169 H   0  0  0  0  0  0  0  0  0  0  0  0
  131.3111   22.8678   -8.5382 H   0  0  0  0  0  0  0  0  0  0  0  0
  132.9567   22.3036   -8.7977 H   0  0  0  0  0  0  0  0  0  0  0  0
  130.9463   23.3800  -10.8560 H   0  0  0  0  0  0  0  0  0  0  0  0
  133.0903   23.8349  -11.9094 H   0  0  0  0  0  0  0  0  0  0  0  0
  131.4740   25.4249  -11.1858 H   0  0  0  0  0  0  0  0  0  0  0  0
  132.1848   25.3050   -9.5216 H   0  0  0  0  0  0  0  0  0  0  0  0
  133.5251   26.3842  -12.0439 H   0  0  0  0  0  0  0  0  0  0  0  0
  133.0667   27.2894  -10.5455 H   0  0  0  0  0  0  0  0  0  0  0  0
  134.8881   31.4834  -10.3847 H   0  0  0  0  0  0  0  0  0  0  0  0
  134.0700   30.9971   -7.9568 H   0  0  0  0  0  0  0  0  0  0  0  0
  134.4375   28.2917   -7.5044 H   0  0  0  0  0  0  0  0  0  0  0  0
  135.3782   24.5187  -11.6779 H   0  0  0  0  0  0  0  0  0  0  0  0
  136.1173   24.4726  -10.0370 H   0  0  0  0  0  0  0  0  0  0  0  0
  133.9504   23.8071   -9.0783 H   0  0  0  0  0  0  0  0  0  0  0  0
  134.4955   22.6483  -10.3430 H   0  0  0  0  0  0  0  0  0  0  0  0
  133.1274   21.3964  -11.6983 H   0  0  0  0  0  0  0  0  0  0  0  0
  131.5855   21.6658  -12.4850 H   0  0  0  0  0  0  0  0  0  0  0  0
  128.9565   20.0429  -11.3298 H   0  0  0  0  0  0  0  0  0  0  0  0
  128.0654   17.9560  -12.2994 H   0  0  0  0  0  0  0  0  0  0  0  0
  130.1362   16.0088  -14.8035 H   0  0  0  0  0  0  0  0  0  0  0  0
  129.1874   13.9059  -15.7329 H   0  0  0  0  0  0  0  0  0  0  0  0
  127.5790   12.9228  -11.8723 H   0  0  0  0  0  0  0  0  0  0  0  0
  128.4452   15.0698  -10.9642 H   0  0  0  0  0  0  0  0  0  0  0  0
  1  2  2  0
  1 25  1  0
  2  3  1  0
  3  4  1  0
  3 23  2  0
  4  5  1  0
  4 22  1  0
  5  6  2  0
  5  7  1  0
  8  7  1  0
  8  9  1  0
  8 22  1  0
  9 10  1  0
  9 21  1  0
 10 11  1  0
 11 12  1  0
 12 13  1  0
 12 20  1  0
 13 14  2  0
 13 15  1  0
 15 16  1  0
 15 19  2  0
 16 17  1  0
 17 18  2  0
 18 19  1  0
 20 21  1  0
 23 24  1  0
 24 25  2  0
 25 26  1  0
 26 27  2  0
 26 31  1  0
 27 28  1  0
 28 29  2  0
 29 30  1  0
 29 32  1  0
 30 31  2  0
  1 33  1  0
  2 34  1  0
  7 35  1  0
  7 36  1  0
  8 37  1  6
  9 38  1  6
 10 39  1  0
 10 40  1  0
 11 41  1  0
 11 42  1  0
 17 43  1  0
 18 44  1  0
 19 45  1  0
 20 46  1  0
 20 47  1  0
 21 48  1  0
 21 49  1  0
 22 50  1  0
 22 51  1  0
 23 52  1  0
 24 53  1  0
 27 54  1  0
 28 55  1  0
 30 56  1  0
 31 57  1  0
M  CHG  1   9   1
M  END
>  <filename_input>  (18) 
7PRM_81I_docked.sdf

>  <pdb_id>  (18) 
7PRM_81I

>  <pose_rank>  (18) 
17

>  <num_atoms_heavy>  (18) 
32

>  <num_torsions>  (18) 
4

>  <pose>  (18) 
[131.48748774091672, 20.528451102912207, -10.662318064752844, 0.7366545063287022, 0.2008769577071643, -1.8076202063263591, 1.5448611847938611, -1.4690915398916675, 0.56712337593561, 2.1855918682904507]

>  <energy>  (18) 
-272.1244440129606

>  <inter_energy>  (18) 
-263.62461398518036

>  <intra_energy>  (18) 
0.6302975704629049

>  <rmsd>  (18) 
13.2821

>  <sdf_rank>  (18) 
0

$$$$

     RDKit          3D

 57 61  0  0  0  0  0  0  0  0999 V2000
  113.9987   27.9998   -4.8140 C   0  0  0  0  0  0  0  0  0  0  0  0
  114.4395   27.3859   -5.9733 C   0  0  0  0  0  0  0  0  0  0  0  0
  115.2366   26.2480   -5.8969 C   0  0  0  0  0  0  0  0  0  0  0  0
  115.6961   25.5872   -7.0764 N   0  0  0  0  0  0  0  0  0  0  0  0
  115.6977   26.1421   -8.3097 C   0  0  0  0  0  0  0  0  0  0  0  0
  115.3586   27.2920   -8.5665 O   0  0  0  0  0  0  0  0  0  0  0  0
  116.1410   25.0953   -9.2915 C   0  0  0  0  0  0  0  0  0  0  0  0
  115.9340   23.7731   -8.5495 C   0  0  1  0  0  0  0  0  0  0  0  0
  116.8464   22.6946   -8.9952 N   0  0  1  0  0  0  0  0  0  0  0  0
  116.4634   22.1349  -10.3020 C   0  0  0  0  0  0  0  0  0  0  0  0
  117.3726   20.9678  -10.7103 C   0  0  0  0  0  0  0  0  0  0  0  0
  118.7964   21.3365  -10.6039 N   0  0  0  0  0  0  0  0  0  0  0  0
  119.7906   21.0013  -11.4609 C   0  0  0  0  0  0  0  0  0  0  0  0
  120.9687   21.2647  -11.2162 O   0  0  0  0  0  0  0  0  0  0  0  0
  119.5230   20.3176  -12.7684 C   0  0  0  0  0  0  0  0  0  0  0  0
  120.5070   19.9036  -13.6331 O   0  0  0  0  0  0  0  0  0  0  0  0
  119.8637   19.3285  -14.7114 C   0  0  0  0  0  0  0  0  0  0  0  0
  118.5558   19.2849  -14.5075 C   0  0  0  0  0  0  0  0  0  0  0  0
  118.3164   19.9144  -13.2234 C   0  0  0  0  0  0  0  0  0  0  0  0
  119.1490   21.9596   -9.3202 C   0  0  0  0  0  0  0  0  0  0  0  0
  118.2490   23.1376   -9.0547 C   0  0  0  0  0  0  0  0  0  0  0  0
  116.1322   24.1877   -7.0884 C   0  0  0  0  0  0  0  0  0  0  0  0
  115.6057   25.7604   -4.6456 C   0  0  0  0  0  0  0  0  0  0  0  0
  115.1806   26.3963   -3.4967 C   0  0  0  0  0  0  0  0  0  0  0  0
  114.3560   27.5158   -3.5553 C   0  0  0  0  0  0  0  0  0  0  0  0
  113.8899   28.1795   -2.3160 C   0  0  0  0  0  0  0  0  0  0  0  0
  112.6042   28.7120   -2.2250 C   0  0  0  0  0  0  0  0  0  0  0  0
  112.1683   29.3430   -1.0742 C   0  0  0  0  0  0  0  0  0  0  0  0
  113.0311   29.4248   -0.0144 C   0  0  0  0  0  0  0  0  0  0  0  0
  114.3117   28.9512   -0.0629 C   0  0  0  0  0  0  0  0  0  0  0  0
  114.7439   28.3473   -1.2299 C   0  0  0  0  0  0  0  0  0  0  0  0
  112.6088   30.0372    1.1274 F   0  0  0  0  0  0  0  0  0  0  0  0
  113.3532   28.8876   -4.8864 H   0  0  0  0  0  0  0  0  0  0  0  0
  114.1600   27.7973   -6.9545 H   0  0  0  0  0  0  0  0  0  0  0  0
  115.5272   25.1311  -10.2036 H   0  0  0  0  0  0  0  0  0  0  0  0
  117.1821   25.2371   -9.6172 H   0  0  0  0  0  0  0  0  0  0  0  0
  114.9500   23.3187   -8.7374 H   0  0  0  0  0  0  0  0  0  0  0  0
  116.7591   21.9566   -8.2819 H   0  0  0  0  0  0  0  0  0  0  0  0
  115.4256   21.7747  -10.2448 H   0  0  0  0  0  0  0  0  0  0  0  0
  116.5653   22.9283  -11.0570 H   0  0  0  0  0  0  0  0  0  0  0  0
  117.1740   20.1106  -10.0501 H   0  0  0  0  0  0  0  0  0  0  0  0
  117.1577   20.7097  -11.7577 H   0  0  0  0  0  0  0  0  0  0  0  0
  120.3684   18.9576  -15.6157 H   0  0  0  0  0  0  0  0  0  0  0  0
  117.7992   18.8553  -15.1805 H   0  0  0  0  0  0  0  0  0  0  0  0
  117.3462   20.0388  -12.7202 H   0  0  0  0  0  0  0  0  0  0  0  0
  119.0312   21.2219   -8.5128 H   0  0  0  0  0  0  0  0  0  0  0  0
  120.1927   22.3047   -9.3611 H   0  0  0  0  0  0  0  0  0  0  0  0
  118.3647   23.8742   -9.8633 H   0  0  0  0  0  0  0  0  0  0  0  0
  118.5252   23.5941   -8.0927 H   0  0  0  0  0  0  0  0  0  0  0  0
  117.1883   24.1009   -6.7933 H   0  0  0  0  0  0  0  0  0  0  0  0
  115.5753   23.5558   -6.3809 H   0  0  0  0  0  0  0  0  0  0  0  0
  116.2392   24.8641   -4.5726 H   0  0  0  0  0  0  0  0  0  0  0  0
  115.4994   26.0112   -2.5168 H   0  0  0  0  0  0  0  0  0  0  0  0
  111.9237   28.6284   -3.0852 H   0  0  0  0  0  0  0  0  0  0  0  0
  111.1555   29.7678   -1.0120 H   0  0  0  0  0  0  0  0  0  0  0  0
  114.9819   29.0477    0.8040 H   0  0  0  0  0  0  0  0  0  0  0  0
  115.7828   27.9928   -1.3009 H   0  0  0  0  0  0  0  0  0  0  0  0
  1  2  2  0
  1 25  1  0
  2  3  1  0
  3  4  1  0
  3 23  2  0
  4  5  1  0
  4 22  1  0
  5  6  2  0
  5  7  1  0
  8  7  1  0
  8  9  1  0
  8 22  1  0
  9 10  1  0
  9 21  1  0
 10 11  1  0
 11 12  1  0
 12 13  1  0
 12 20  1  0
 13 14  2  0
 13 15  1  0
 15 16  1  0
 15 19  2  0
 16 17  1  0
 17 18  2  0
 18 19  1  0
 20 21  1  0
 23 24  1  0
 24 25  2  0
 25 26  1  0
 26 27  2  0
 26 31  1  0
 27 28  1  0
 28 29  2  0
 29 30  1  0
 29 32  1  0
 30 31  2  0
  1 33  1  0
  2 34  1  0
  7 35  1  0
  7 36  1  0
  8 37  1  1
  9 38  1  1
 10 39  1  0
 10 40  1  0
 11 41  1  0
 11 42  1  0
 17 43  1  0
 18 44  1  0
 19 45  1  0
 20 46  1  0
 20 47  1  0
 21 48  1  0
 21 49  1  0
 22 50  1  0
 22 51  1  0
 23 52  1  0
 24 53  1  0
 27 54  1  0
 28 55  1  0
 30 56  1  0
 31 57  1  0
M  CHG  1   9   1
M  END
>  <filename_input>  (19) 
7PRM_81I_docked.sdf

>  <pdb_id>  (19) 
7PRM_81I

>  <pose_rank>  (19) 
18

>  <num_atoms_heavy>  (19) 
32

>  <num_torsions>  (19) 
4

>  <pose>  (19) 
[115.6960771383228, 25.58721573054789, -7.0764442573121675, 2.073532486120331, 3.1020743335071432, 1.674106492954399, -4.4630688417221105, 3.1707529444740348, -3.6991750893883957, -2.0742285738715656]

>  <energy>  (19) 
-263.6293674543689

>  <inter_energy>  (19) 
-297.6185409913068

>  <intra_energy>  (19) 
46.71258657211932

>  <rmsd>  (19) 
12.1316

>  <sdf_rank>  (19) 
0

$$$$

     RDKit          3D

 57 61  0  0  0  0  0  0  0  0999 V2000
  130.1667   21.4780   -6.2504 C   0  0  0  0  0  0  0  0  0  0  0  0
  130.2997   21.8907   -7.5647 C   0  0  0  0  0  0  0  0  0  0  0  0
  131.4912   21.6640   -8.2466 C   0  0  0  0  0  0  0  0  0  0  0  0
  131.6525   22.0684   -9.6066 N   0  0  0  0  0  0  0  0  0  0  0  0
  131.2654   21.3313  -10.6723 C   0  0  0  0  0  0  0  0  0  0  0  0
  130.6827   20.2543  -10.6111 O   0  0  0  0  0  0  0  0  0  0  0  0
  131.7123   22.0419  -11.9179 C   0  0  0  0  0  0  0  0  0  0  0  0
  132.7959   23.0067  -11.4314 C   0  0  1  0  0  0  0  0  0  0  0  0
  132.9328   24.2173  -12.2740 N   0  0  1  0  0  0  0  0  0  0  0  0
  132.0598   24.1823  -13.4590 C   0  0  0  0  0  0  0  0  0  0  0  0
  132.2724   25.4069  -14.3594 C   0  0  0  0  0  0  0  0  0  0  0  0
  132.1924   26.6598  -13.5859 N   0  0  0  0  0  0  0  0  0  0  0  0
  131.6096   27.8199  -13.9729 C   0  0  0  0  0  0  0  0  0  0  0  0
  131.7006   28.8444  -13.2952 O   0  0  0  0  0  0  0  0  0  0  0  0
  130.7966   27.9267  -15.2284 C   0  0  0  0  0  0  0  0  0  0  0  0
  131.3320   28.1648  -16.4710 O   0  0  0  0  0  0  0  0  0  0  0  0
  130.2713   28.1941  -17.3549 C   0  0  0  0  0  0  0  0  0  0  0  0
  129.1386   27.8946  -16.7372 C   0  0  0  0  0  0  0  0  0  0  0  0
  129.4700   27.6961  -15.3397 C   0  0  0  0  0  0  0  0  0  0  0  0
  133.0143   26.6530  -12.3674 C   0  0  0  0  0  0  0  0  0  0  0  0
  132.6717   25.4552  -11.5212 C   0  0  0  0  0  0  0  0  0  0  0  0
  132.3482   23.2986   -9.9960 C   0  0  0  0  0  0  0  0  0  0  0  0
  132.5484   21.0490   -7.5804 C   0  0  0  0  0  0  0  0  0  0  0  0
  132.4121   20.6648   -6.2617 C   0  0  0  0  0  0  0  0  0  0  0  0
  131.2163   20.8544   -5.5756 C   0  0  0  0  0  0  0  0  0  0  0  0
  131.0743   20.4213   -4.1663 C   0  0  0  0  0  0  0  0  0  0  0  0
  129.9385   20.7457   -3.4251 C   0  0  0  0  0  0  0  0  0  0  0  0
  129.8064   20.3538   -2.1053 C   0  0  0  0  0  0  0  0  0  0  0  0
  130.8196   19.6257   -1.5419 C   0  0  0  0  0  0  0  0  0  0  0  0
  131.9678   19.3110   -2.2121 C   0  0  0  0  0  0  0  0  0  0  0  0
  132.0990   19.7334   -3.5227 C   0  0  0  0  0  0  0  0  0  0  0  0
  130.6958   19.2271   -0.2446 F   0  0  0  0  0  0  0  0  0  0  0  0
  129.2137   21.6453   -5.7271 H   0  0  0  0  0  0  0  0  0  0  0  0
  129.4642   22.3974   -8.0697 H   0  0  0  0  0  0  0  0  0  0  0  0
  132.1238   21.3289  -12.6475 H   0  0  0  0  0  0  0  0  0  0  0  0
  130.8859   22.5588  -12.4276 H   0  0  0  0  0  0  0  0  0  0  0  0
  133.8103   22.5852  -11.4877 H   0  0  0  0  0  0  0  0  0  0  0  0
  133.9141   24.2175  -12.5871 H   0  0  0  0  0  0  0  0  0  0  0  0
  132.2803   23.2727  -14.0370 H   0  0  0  0  0  0  0  0  0  0  0  0
  131.0152   24.1882  -13.1146 H   0  0  0  0  0  0  0  0  0  0  0  0
  133.2646   25.3384  -14.8294 H   0  0  0  0  0  0  0  0  0  0  0  0
  131.4807   25.4186  -15.1230 H   0  0  0  0  0  0  0  0  0  0  0  0
  130.3556   28.4334  -18.4253 H   0  0  0  0  0  0  0  0  0  0  0  0
  128.1417   27.8125  -17.1948 H   0  0  0  0  0  0  0  0  0  0  0  0
  128.7792   27.4141  -14.5314 H   0  0  0  0  0  0  0  0  0  0  0  0
  134.0777   26.6103  -12.6456 H   0  0  0  0  0  0  0  0  0  0  0  0
  132.8154   27.5697  -11.7928 H   0  0  0  0  0  0  0  0  0  0  0  0
  131.6077   25.4964  -11.2451 H   0  0  0  0  0  0  0  0  0  0  0  0
  133.2926   25.4642  -10.6133 H   0  0  0  0  0  0  0  0  0  0  0  0
  131.6693   24.1634   -9.9624 H   0  0  0  0  0  0  0  0  0  0  0  0
  133.1831   23.5529   -9.3265 H   0  0  0  0  0  0  0  0  0  0  0  0
  133.4967   20.8685   -8.1078 H   0  0  0  0  0  0  0  0  0  0  0  0
  133.2641   20.2004   -5.7437 H   0  0  0  0  0  0  0  0  0  0  0  0
  129.1322   21.3245   -3.8992 H   0  0  0  0  0  0  0  0  0  0  0  0
  128.9112   20.6199   -1.5240 H   0  0  0  0  0  0  0  0  0  0  0  0
  132.7676   18.7364   -1.7220 H   0  0  0  0  0  0  0  0  0  0  0  0
  133.0312   19.5216   -4.0669 H   0  0  0  0  0  0  0  0  0  0  0  0
  1  2  2  0
  1 25  1  0
  2  3  1  0
  3  4  1  0
  3 23  2  0
  4  5  1  0
  4 22  1  0
  5  6  2  0
  5  7  1  0
  8  7  1  0
  8  9  1  0
  8 22  1  0
  9 10  1  0
  9 21  1  0
 10 11  1  0
 11 12  1  0
 12 13  1  0
 12 20  1  0
 13 14  2  0
 13 15  1  0
 15 16  1  0
 15 19  2  0
 16 17  1  0
 17 18  2  0
 18 19  1  0
 20 21  1  0
 23 24  1  0
 24 25  2  0
 25 26  1  0
 26 27  2  0
 26 31  1  0
 27 28  1  0
 28 29  2  0
 29 30  1  0
 29 32  1  0
 30 31  2  0
  1 33  1  0
  2 34  1  0
  7 35  1  0
  7 36  1  0
  8 37  1  1
  9 38  1  6
 10 39  1  0
 10 40  1  0
 11 41  1  0
 11 42  1  0
 17 43  1  0
 18 44  1  0
 19 45  1  0
 20 46  1  0
 20 47  1  0
 21 48  1  0
 21 49  1  0
 22 50  1  0
 22 51  1  0
 23 52  1  0
 24 53  1  0
 27 54  1  0
 28 55  1  0
 30 56  1  0
 31 57  1  0
M  CHG  1   9   1
M  END
>  <filename_input>  (20) 
7PRM_81I_docked.sdf

>  <pdb_id>  (20) 
7PRM_81I

>  <pose_rank>  (20) 
19

>  <num_atoms_heavy>  (20) 
32

>  <num_torsions>  (20) 
4

>  <pose>  (20) 
[131.6525119825321, 22.068356045041288, -9.606620239326569, 3.641711178047135, -6.297082028011735, 3.804716668602997, -3.229125569576567, -1.5155522009742812, 0.8079938148070933, 3.428930007040604]

>  <energy>  (20) 
-317.5888250730584

>  <inter_energy>  (20) 
-313.6807024183681

>  <intra_energy>  (20) 
0.51522668462283

>  <rmsd>  (20) 
10.2223

>  <sdf_rank>  (20) 
0

$$$$

     RDKit          3D

 57 61  0  0  0  0  0  0  0  0999 V2000
  132.7922   23.7215   -9.7383 C   0  0  0  0  0  0  0  0  0  0  0  0
  132.7365   22.3658  -10.0107 C   0  0  0  0  0  0  0  0  0  0  0  0
  132.6447   21.9251  -11.3274 C   0  0  0  0  0  0  0  0  0  0  0  0
  132.5974   20.5323  -11.6386 N   0  0  0  0  0  0  0  0  0  0  0  0
  133.6721   19.7116  -11.6274 C   0  0  0  0  0  0  0  0  0  0  0  0
  134.8072   20.0397  -11.3002 O   0  0  0  0  0  0  0  0  0  0  0  0
  133.2341   18.3628  -12.1226 C   0  0  0  0  0  0  0  0  0  0  0  0
  131.9194   18.6406  -12.8549 C   0  0  1  0  0  0  0  0  0  0  0  0
  130.9929   17.4848  -12.8677 N   0  0  1  0  0  0  0  0  0  0  0  0
  131.6238   16.2496  -12.3739 C   0  0  0  0  0  0  0  0  0  0  0  0
  130.6739   15.0479  -12.4679 C   0  0  0  0  0  0  0  0  0  0  0  0
  129.3685   15.3486  -11.8514 N   0  0  0  0  0  0  0  0  0  0  0  0
  128.6147   14.5162  -11.0937 C   0  0  0  0  0  0  0  0  0  0  0  0
  127.4828   14.8297  -10.7228 O   0  0  0  0  0  0  0  0  0  0  0  0
  129.1151   13.1791  -10.6348 C   0  0  0  0  0  0  0  0  0  0  0  0
  129.9317   12.9984   -9.5448 O   0  0  0  0  0  0  0  0  0  0  0  0
  130.1690   11.6409   -9.4546 C   0  0  0  0  0  0  0  0  0  0  0  0
  129.4698   10.9818  -10.3661 C   0  0  0  0  0  0  0  0  0  0  0  0
  128.7548   11.9785  -11.1390 C   0  0  0  0  0  0  0  0  0  0  0  0
  128.7840   16.6202  -12.3007 C   0  0  0  0  0  0  0  0  0  0  0  0
  129.7677   17.7415  -12.0928 C   0  0  0  0  0  0  0  0  0  0  0  0
  131.3796   19.8588  -12.0995 C   0  0  0  0  0  0  0  0  0  0  0  0
  132.5786   22.8635  -12.3544 C   0  0  0  0  0  0  0  0  0  0  0  0
  132.6095   24.2134  -12.0681 C   0  0  0  0  0  0  0  0  0  0  0  0
  132.7344   24.6702  -10.7595 C   0  0  0  0  0  0  0  0  0  0  0  0
  132.7856   26.1207  -10.4647 C   0  0  0  0  0  0  0  0  0  0  0  0
  131.6689   26.7943   -9.9708 C   0  0  0  0  0  0  0  0  0  0  0  0
  131.7081   28.1510   -9.7050 C   0  0  0  0  0  0  0  0  0  0  0  0
  132.8806   28.8209   -9.9302 C   0  0  0  0  0  0  0  0  0  0  0  0
  133.9924   28.2167  -10.4455 C   0  0  0  0  0  0  0  0  0  0  0  0
  133.9306   26.8651  -10.7331 C   0  0  0  0  0  0  0  0  0  0  0  0
  132.9327   30.1563   -9.6637 F   0  0  0  0  0  0  0  0  0  0  0  0
  132.8840   24.0580   -8.6951 H   0  0  0  0  0  0  0  0  0  0  0  0
  132.7647   21.6373   -9.1871 H   0  0  0  0  0  0  0  0  0  0  0  0
  133.9809   17.9379  -12.8094 H   0  0  0  0  0  0  0  0  0  0  0  0
  133.1167   17.6328  -11.3082 H   0  0  0  0  0  0  0  0  0  0  0  0
  132.0521   18.8265  -13.9309 H   0  0  0  0  0  0  0  0  0  0  0  0
  130.7406   17.3534  -13.8576 H   0  0  0  0  0  0  0  0  0  0  0  0
  132.5207   16.0426  -12.9762 H   0  0  0  0  0  0  0  0  0  0  0  0
  131.8841   16.3980  -11.3155 H   0  0  0  0  0  0  0  0  0  0  0  0
  130.5202   14.7944  -13.5272 H   0  0  0  0  0  0  0  0  0  0  0  0
  131.1270   14.2035  -11.9280 H   0  0  0  0  0  0  0  0  0  0  0  0
  130.8458   11.1714   -8.7256 H   0  0  0  0  0  0  0  0  0  0  0  0
  129.4378    9.8915  -10.5088 H   0  0  0  0  0  0  0  0  0  0  0  0
  128.0580   11.7941  -11.9700 H   0  0  0  0  0  0  0  0  0  0  0  0
  128.5339   16.5486  -13.3695 H   0  0  0  0  0  0  0  0  0  0  0  0
  127.8743   16.8253  -11.7173 H   0  0  0  0  0  0  0  0  0  0  0  0
  130.0201   17.8116  -11.0244 H   0  0  0  0  0  0  0  0  0  0  0  0
  129.3166   18.6858  -12.4316 H   0  0  0  0  0  0  0  0  0  0  0  0
  130.7534   19.5503  -11.2493 H   0  0  0  0  0  0  0  0  0  0  0  0
  130.7385   20.5024  -12.7198 H   0  0  0  0  0  0  0  0  0  0  0  0
  132.5015   22.5272  -13.3988 H   0  0  0  0  0  0  0  0  0  0  0  0
  132.5341   24.9414  -12.8893 H   0  0  0  0  0  0  0  0  0  0  0  0
  130.7388   26.2357   -9.7890 H   0  0  0  0  0  0  0  0  0  0  0  0
  130.8212   28.6776   -9.3230 H   0  0  0  0  0  0  0  0  0  0  0  0
  134.9132   28.7905  -10.6269 H   0  0  0  0  0  0  0  0  0  0  0  0
  134.8034   26.3690  -11.1827 H   0  0  0  0  0  0  0  0  0  0  0  0
  1  2  2  0
  1 25  1  0
  2  3  1  0
  3  4  1  0
  3 23  2  0
  4  5  1  0
  4 22  1  0
  5  6  2  0
  5  7  1  0
  8  7  1  0
  8  9  1  0
  8 22  1  0
  9 10  1  0
  9 21  1  0
 10 11  1  0
 11 12  1  0
 12 13  1  0
 12 20  1  0
 13 14  2  0
 13 15  1  0
 15 16  1  0
 15 19  2  0
 16 17  1  0
 17 18  2  0
 18 19  1  0
 20 21  1  0
 23 24  1  0
 24 25  2  0
 25 26  1  0
 26 27  2  0
 26 31  1  0
 27 28  1  0
 28 29  2  0
 29 30  1  0
 29 32  1  0
 30 31  2  0
  1 33  1  0
  2 34  1  0
  7 35  1  0
  7 36  1  0
  8 37  1  6
  9 38  1  6
 10 39  1  0
 10 40  1  0
 11 41  1  0
 11 42  1  0
 17 43  1  0
 18 44  1  0
 19 45  1  0
 20 46  1  0
 20 47  1  0
 21 48  1  0
 21 49  1  0
 22 50  1  0
 22 51  1  0
 23 52  1  0
 24 53  1  0
 27 54  1  0
 28 55  1  0
 30 56  1  0
 31 57  1  0
M  CHG  1   9   1
M  END
>  <filename_input>  (21) 
7PRM_81I_docked.sdf

>  <pdb_id>  (21) 
7PRM_81I

>  <pose_rank>  (21) 
20

>  <num_atoms_heavy>  (21) 
32

>  <num_torsions>  (21) 
4

>  <pose>  (21) 
[132.5973757737944, 20.53230569436765, -11.638639848778903, 1.161006855130722, 1.066460678272231, 1.6520571209223875, -3.324659302893363, 1.3936983548512882, 0.9483932227927435, 2.203186419956593]

>  <energy>  (21) 
-258.2133610675136

>  <inter_energy>  (21) 
-251.1797152970335

>  <intra_energy>  (21) 
1.5781520832900322

>  <rmsd>  (21) 
10.9689

>  <sdf_rank>  (21) 
0

$$$$

     RDKit          3D

 57 61  0  0  0  0  0  0  0  0999 V2000
  132.5831   22.6568   -7.1347 C   0  0  0  0  0  0  0  0  0  0  0  0
  133.0293   22.9802   -8.4042 C   0  0  0  0  0  0  0  0  0  0  0  0
  132.4357   22.3960   -9.5189 C   0  0  0  0  0  0  0  0  0  0  0  0
  132.8677   22.7197  -10.8409 N   0  0  0  0  0  0  0  0  0  0  0  0
  133.6467   21.9213  -11.6054 C   0  0  0  0  0  0  0  0  0  0  0  0
  134.0364   20.8030  -11.2885 O   0  0  0  0  0  0  0  0  0  0  0  0
  133.9750   22.6626  -12.8699 C   0  0  0  0  0  0  0  0  0  0  0  0
  133.6933   24.1279  -12.5300 C   0  0  1  0  0  0  0  0  0  0  0  0
  133.3184   24.9472  -13.7057 N   0  0  1  0  0  0  0  0  0  0  0  0
  131.9313   25.4356  -13.6346 C   0  0  0  0  0  0  0  0  0  0  0  0
  131.5368   26.2158  -14.8960 C   0  0  0  0  0  0  0  0  0  0  0  0
  132.5300   27.2590  -15.2121 N   0  0  0  0  0  0  0  0  0  0  0  0
  132.2797   28.5116  -15.6633 C   0  0  0  0  0  0  0  0  0  0  0  0
  133.1901   29.2667  -16.0071 O   0  0  0  0  0  0  0  0  0  0  0  0
  130.8901   29.0690  -15.7467 C   0  0  0  0  0  0  0  0  0  0  0  0
  129.8573   28.6803  -14.9284 O   0  0  0  0  0  0  0  0  0  0  0  0
  128.7533   29.4136  -15.3167 C   0  0  0  0  0  0  0  0  0  0  0  0
  129.0792   30.2886  -16.2560 C   0  0  0  0  0  0  0  0  0  0  0  0
  130.4875   30.0885  -16.5367 C   0  0  0  0  0  0  0  0  0  0  0  0
  133.9167   26.7719  -15.2093 C   0  0  0  0  0  0  0  0  0  0  0  0
  134.2219   26.0932  -13.8999 C   0  0  0  0  0  0  0  0  0  0  0  0
  132.5853   24.0089  -11.4792 C   0  0  0  0  0  0  0  0  0  0  0  0
  131.4160   21.4653   -9.3356 C   0  0  0  0  0  0  0  0  0  0  0  0
  130.9970   21.1320   -8.0634 C   0  0  0  0  0  0  0  0  0  0  0  0
  131.5575   21.7316   -6.9396 C   0  0  0  0  0  0  0  0  0  0  0  0
  131.0875   21.3807   -5.5795 C   0  0  0  0  0  0  0  0  0  0  0  0
  131.9922   21.1123   -4.5528 C   0  0  0  0  0  0  0  0  0  0  0  0
  131.5584   20.7729   -3.2842 C   0  0  0  0  0  0  0  0  0  0  0  0
  130.2100   20.7157   -3.0550 C   0  0  0  0  0  0  0  0  0  0  0  0
  129.2818   20.9352   -4.0333 C   0  0  0  0  0  0  0  0  0  0  0  0
  129.7297   21.2463   -5.3044 C   0  0  0  0  0  0  0  0  0  0  0  0
  129.7717   20.3904   -1.8063 F   0  0  0  0  0  0  0  0  0  0  0  0
  133.0468   23.1391   -6.2616 H   0  0  0  0  0  0  0  0  0  0  0  0
  133.8525   23.6986   -8.5319 H   0  0  0  0  0  0  0  0  0  0  0  0
  135.0314   22.5214  -13.1419 H   0  0  0  0  0  0  0  0  0  0  0  0
  133.3874   22.3093  -13.7301 H   0  0  0  0  0  0  0  0  0  0  0  0
  134.5788   24.6665  -12.1614 H   0  0  0  0  0  0  0  0  0  0  0  0
  133.4040   24.3137  -14.5133 H   0  0  0  0  0  0  0  0  0  0  0  0
  131.2559   24.5747  -13.5226 H   0  0  0  0  0  0  0  0  0  0  0  0
  131.8516   26.1151  -12.7732 H   0  0  0  0  0  0  0  0  0  0  0  0
  131.4686   25.5173  -15.7429 H   0  0  0  0  0  0  0  0  0  0  0  0
  130.5671   26.7026  -14.7146 H   0  0  0  0  0  0  0  0  0  0  0  0
  127.7419   29.2880  -14.9027 H   0  0  0  0  0  0  0  0  0  0  0  0
  128.4120   31.0235  -16.7302 H   0  0  0  0  0  0  0  0  0  0  0  0
  131.1049   30.6538  -17.2503 H   0  0  0  0  0  0  0  0  0  0  0  0
  134.0524   26.0543  -16.0318 H   0  0  0  0  0  0  0  0  0  0  0  0
  134.5990   27.6245  -15.3415 H   0  0  0  0  0  0  0  0  0  0  0  0
  134.0837   26.8099  -13.0769 H   0  0  0  0  0  0  0  0  0  0  0  0
  135.2621   25.7357  -13.9117 H   0  0  0  0  0  0  0  0  0  0  0  0
  131.5920   24.0061  -11.9517 H   0  0  0  0  0  0  0  0  0  0  0  0
  132.5718   24.8487  -10.7689 H   0  0  0  0  0  0  0  0  0  0  0  0
  130.9422   20.9934  -10.2090 H   0  0  0  0  0  0  0  0  0  0  0  0
  130.2057   20.3787   -7.9355 H   0  0  0  0  0  0  0  0  0  0  0  0
  133.0717   21.1718   -4.7558 H   0  0  0  0  0  0  0  0  0  0  0  0
  132.2776   20.5547   -2.4809 H   0  0  0  0  0  0  0  0  0  0  0  0
  128.2058   20.8662   -3.8155 H   0  0  0  0  0  0  0  0  0  0  0  0
  128.9987   21.3902   -6.1137 H   0  0  0  0  0  0  0  0  0  0  0  0
  1  2  2  0
  1 25  1  0
  2  3  1  0
  3  4  1  0
  3 23  2  0
  4  5  1  0
  4 22  1  0
  5  6  2  0
  5  7  1  0
  8  7  1  0
  8  9  1  0
  8 22  1  0
  9 10  1  0
  9 21  1  0
 10 11  1  0
 11 12  1  0
 12 13  1  0
 12 20  1  0
 13 14  2  0
 13 15  1  0
 15 16  1  0
 15 19  2  0
 16 17  1  0
 17 18  2  0
 18 19  1  0
 20 21  1  0
 23 24  1  0
 24 25  2  0
 25 26  1  0
 26 27  2  0
 26 31  1  0
 27 28  1  0
 28 29  2  0
 29 30  1  0
 29 32  1  0
 30 31  2  0
  1 33  1  0
  2 34  1  0
  7 35  1  0
  7 36  1  0
  8 37  1  1
  9 38  1  6
 10 39  1  0
 10 40  1  0
 11 41  1  0
 11 42  1  0
 17 43  1  0
 18 44  1  0
 19 45  1  0
 20 46  1  0
 20 47  1  0
 21 48  1  0
 21 49  1  0
 22 50  1  0
 22 51  1  0
 23 52  1  0
 24 53  1  0
 27 54  1  0
 28 55  1  0
 30 56  1  0
 31 57  1  0
M  CHG  1   9   1
M  END
>  <filename_input>  (22) 
7PRM_81I_docked.sdf

>  <pdb_id>  (22) 
7PRM_81I

>  <pose_rank>  (22) 
21

>  <num_atoms_heavy>  (22) 
32

>  <num_torsions>  (22) 
4

>  <pose>  (22) 
[132.86771972217176, 22.719728674048056, -10.840878749474902, -1.6605235134615226, 1.7680374724846313, -2.736455043956161, -1.1603829731308857, 0.46226354326410446, -2.1879342909741144, 2.753477486904453]

>  <energy>  (22) 
-257.2121501090349

>  <inter_energy>  (22) 
-272.5022779380159

>  <intra_energy>  (22) 
13.552043364588675

>  <rmsd>  (22) 
11.2729

>  <sdf_rank>  (22) 
0

$$$$

     RDKit          3D

 57 61  0  0  0  0  0  0  0  0999 V2000
  129.5320   15.6645  -12.8320 C   0  0  0  0  0  0  0  0  0  0  0  0
  130.4758   16.6756  -12.8783 C   0  0  0  0  0  0  0  0  0  0  0  0
  131.3202   16.8879  -11.7930 C   0  0  0  0  0  0  0  0  0  0  0  0
  132.3108   17.9161  -11.8176 N   0  0  0  0  0  0  0  0  0  0  0  0
  133.5588   17.7608  -12.3150 C   0  0  0  0  0  0  0  0  0  0  0  0
  133.9824   16.7439  -12.8531 O   0  0  0  0  0  0  0  0  0  0  0  0
  134.3266   19.0244  -12.0509 C   0  0  0  0  0  0  0  0  0  0  0  0
  133.5333   19.7213  -10.9433 C   0  0  1  0  0  0  0  0  0  0  0  0
  133.6761   21.1957  -10.9502 N   0  0  1  0  0  0  0  0  0  0  0  0
  133.2037   21.8030  -12.2055 C   0  0  0  0  0  0  0  0  0  0  0  0
  133.4315   23.3206  -12.2250 C   0  0  0  0  0  0  0  0  0  0  0  0
  132.8979   23.9572  -11.0066 N   0  0  0  0  0  0  0  0  0  0  0  0
  132.2432   25.1406  -10.9261 C   0  0  0  0  0  0  0  0  0  0  0  0
  131.9408   25.6373   -9.8403 O   0  0  0  0  0  0  0  0  0  0  0  0
  131.8207   25.9055  -12.1447 C   0  0  0  0  0  0  0  0  0  0  0  0
  132.6975   26.5030  -13.0175 O   0  0  0  0  0  0  0  0  0  0  0  0
  131.9283   27.1018  -13.9959 C   0  0  0  0  0  0  0  0  0  0  0  0
  130.6457   26.8226  -13.8193 C   0  0  0  0  0  0  0  0  0  0  0  0
  130.5595   26.0190  -12.6156 C   0  0  0  0  0  0  0  0  0  0  0  0
  133.3205   23.2965   -9.7636 C   0  0  0  0  0  0  0  0  0  0  0  0
  132.9811   21.8302   -9.8181 C   0  0  0  0  0  0  0  0  0  0  0  0
  132.1059   19.2360  -11.2136 C   0  0  0  0  0  0  0  0  0  0  0  0
  131.1796   16.0934  -10.6578 C   0  0  0  0  0  0  0  0  0  0  0  0
  130.2175   15.1046  -10.6139 C   0  0  0  0  0  0  0  0  0  0  0  0
  129.3873   14.8578  -11.7031 C   0  0  0  0  0  0  0  0  0  0  0  0
  128.3708   13.7817  -11.6527 C   0  0  0  0  0  0  0  0  0  0  0  0
  127.1582   13.9054  -12.3304 C   0  0  0  0  0  0  0  0  0  0  0  0
  126.2010   12.9085  -12.2769 C   0  0  0  0  0  0  0  0  0  0  0  0
  126.4773   11.7844  -11.5460 C   0  0  0  0  0  0  0  0  0  0  0  0
  127.6339   11.6278  -10.8357 C   0  0  0  0  0  0  0  0  0  0  0  0
  128.5707   12.6447  -10.8753 C   0  0  0  0  0  0  0  0  0  0  0  0
  125.5445   10.7924  -11.4935 F   0  0  0  0  0  0  0  0  0  0  0  0
  128.8826   15.4934  -13.7032 H   0  0  0  0  0  0  0  0  0  0  0  0
  130.5582   17.3111  -13.7724 H   0  0  0  0  0  0  0  0  0  0  0  0
  135.3488   18.7967  -11.7145 H   0  0  0  0  0  0  0  0  0  0  0  0
  134.4322   19.6490  -12.9503 H   0  0  0  0  0  0  0  0  0  0  0  0
  133.8876   19.4720   -9.9322 H   0  0  0  0  0  0  0  0  0  0  0  0
  134.6875   21.3683  -10.8605 H   0  0  0  0  0  0  0  0  0  0  0  0
  133.7483   21.3503  -13.0472 H   0  0  0  0  0  0  0  0  0  0  0  0
  132.1225   21.6183  -12.2892 H   0  0  0  0  0  0  0  0  0  0  0  0
  134.5113   23.5202  -12.2903 H   0  0  0  0  0  0  0  0  0  0  0  0
  132.9054   23.7399  -13.0953 H   0  0  0  0  0  0  0  0  0  0  0  0
  132.3264   27.7251  -14.8102 H   0  0  0  0  0  0  0  0  0  0  0  0
  129.8096   27.1386  -14.4604 H   0  0  0  0  0  0  0  0  0  0  0  0
  129.6490   25.5879  -12.1739 H   0  0  0  0  0  0  0  0  0  0  0  0
  134.4072   23.4145   -9.6397 H   0  0  0  0  0  0  0  0  0  0  0  0
  132.7958   23.7571   -8.9135 H   0  0  0  0  0  0  0  0  0  0  0  0
  131.8948   21.7120   -9.9447 H   0  0  0  0  0  0  0  0  0  0  0  0
  133.3015   21.3498   -8.8819 H   0  0  0  0  0  0  0  0  0  0  0  0
  131.5844   19.9111  -11.9080 H   0  0  0  0  0  0  0  0  0  0  0  0
  131.4818   19.2044  -10.3083 H   0  0  0  0  0  0  0  0  0  0  0  0
  131.8384   16.2547   -9.7918 H   0  0  0  0  0  0  0  0  0  0  0  0
  130.1050   14.5007   -9.7014 H   0  0  0  0  0  0  0  0  0  0  0  0
  126.9592   14.8132  -12.9187 H   0  0  0  0  0  0  0  0  0  0  0  0
  125.2434   13.0160  -12.8074 H   0  0  0  0  0  0  0  0  0  0  0  0
  127.8154   10.7162  -10.2474 H   0  0  0  0  0  0  0  0  0  0  0  0
  129.4917   12.5530  -10.2808 H   0  0  0  0  0  0  0  0  0  0  0  0
  1  2  2  0
  1 25  1  0
  2  3  1  0
  3  4  1  0
  3 23  2  0
  4  5  1  0
  4 22  1  0
  5  6  2  0
  5  7  1  0
  8  7  1  0
  8  9  1  0
  8 22  1  0
  9 10  1  0
  9 21  1  0
 10 11  1  0
 11 12  1  0
 12 13  1  0
 12 20  1  0
 13 14  2  0
 13 15  1  0
 15 16  1  0
 15 19  2  0
 16 17  1  0
 17 18  2  0
 18 19  1  0
 20 21  1  0
 23 24  1  0
 24 25  2  0
 25 26  1  0
 26 27  2  0
 26 31  1  0
 27 28  1  0
 28 29  2  0
 29 30  1  0
 29 32  1  0
 30 31  2  0
  1 33  1  0
  2 34  1  0
  7 35  1  0
  7 36  1  0
  8 37  1  1
  9 38  1  1
 10 39  1  0
 10 40  1  0
 11 41  1  0
 11 42  1  0
 17 43  1  0
 18 44  1  0
 19 45  1  0
 20 46  1  0
 20 47  1  0
 21 48  1  0
 21 49  1  0
 22 50  1  0
 22 51  1  0
 23 52  1  0
 24 53  1  0
 27 54  1  0
 28 55  1  0
 30 56  1  0
 31 57  1  0
M  CHG  1   9   1
M  END
>  <filename_input>  (23) 
7PRM_81I_docked.sdf

>  <pdb_id>  (23) 
7PRM_81I

>  <pose_rank>  (23) 
22

>  <num_atoms_heavy>  (23) 
32

>  <num_torsions>  (23) 
4

>  <pose>  (23) 
[132.31083821087608, 17.916061946160678, -11.817601654316153, 0.8086093984801307, -2.764933558782475, 1.7921973610497353, -2.098751645103471, -1.213467474572946, 0.7714709246980423, 2.9899568553090425]

>  <energy>  (23) 
-250.3866884031545

>  <inter_energy>  (23) 
-245.68780076874134

>  <intra_energy>  (23) 
1.9754221662299898

>  <rmsd>  (23) 
12.3183

>  <sdf_rank>  (23) 
0

$$$$

     RDKit          3D

 57 61  0  0  0  0  0  0  0  0999 V2000
  124.3856   25.7617  -16.0474 C   0  0  0  0  0  0  0  0  0  0  0  0
  125.5053   24.9630  -15.8937 C   0  0  0  0  0  0  0  0  0  0  0  0
  126.7132   25.5290  -15.4977 C   0  0  0  0  0  0  0  0  0  0  0  0
  127.8815   24.7275  -15.3199 N   0  0  0  0  0  0  0  0  0  0  0  0
  128.8092   24.5087  -16.2792 C   0  0  0  0  0  0  0  0  0  0  0  0
  128.7973   25.0074  -17.3992 O   0  0  0  0  0  0  0  0  0  0  0  0
  129.8117   23.5268  -15.7432 C   0  0  0  0  0  0  0  0  0  0  0  0
  129.0937   22.8619  -14.5667 C   0  0  1  0  0  0  0  0  0  0  0  0
  130.0125   22.3661  -13.5158 N   0  0  1  0  0  0  0  0  0  0  0  0
  129.9519   23.1733  -12.2860 C   0  0  0  0  0  0  0  0  0  0  0  0
  130.9656   22.6926  -11.2387 C   0  0  0  0  0  0  0  0  0  0  0  0
  130.8547   21.2394  -11.0146 N   0  0  0  0  0  0  0  0  0  0  0  0
  130.9450   20.5890   -9.8296 C   0  0  0  0  0  0  0  0  0  0  0  0
  130.9533   19.3588   -9.7686 O   0  0  0  0  0  0  0  0  0  0  0  0
  131.0115   21.3172   -8.5205 C   0  0  0  0  0  0  0  0  0  0  0  0
  129.9182   21.8547   -7.8853 O   0  0  0  0  0  0  0  0  0  0  0  0
  130.3873   22.4364   -6.7239 C   0  0  0  0  0  0  0  0  0  0  0  0
  131.6819   22.2012   -6.5723 C   0  0  0  0  0  0  0  0  0  0  0  0
  132.1044   21.4483   -7.7371 C   0  0  0  0  0  0  0  0  0  0  0  0
  130.8446   20.4513  -12.2552 C   0  0  0  0  0  0  0  0  0  0  0  0
  129.7654   20.9550  -13.1770 C   0  0  0  0  0  0  0  0  0  0  0  0
  128.1523   23.9730  -14.0925 C   0  0  0  0  0  0  0  0  0  0  0  0
  126.7830   26.9046  -15.2913 C   0  0  0  0  0  0  0  0  0  0  0  0
  125.6654   27.6942  -15.4724 C   0  0  0  0  0  0  0  0  0  0  0  0
  124.4421   27.1394  -15.8361 C   0  0  0  0  0  0  0  0  0  0  0  0
  123.2444   27.9933  -16.0095 C   0  0  0  0  0  0  0  0  0  0  0  0
  122.1387   27.8605  -15.1701 C   0  0  0  0  0  0  0  0  0  0  0  0
  121.0133   28.6473  -15.3352 C   0  0  0  0  0  0  0  0  0  0  0  0
  121.0135   29.5737  -16.3432 C   0  0  0  0  0  0  0  0  0  0  0  0
  122.0555   29.7208  -17.2146 C   0  0  0  0  0  0  0  0  0  0  0  0
  123.1634   28.9081  -17.0553 C   0  0  0  0  0  0  0  0  0  0  0  0
  119.9130   30.3600  -16.5094 F   0  0  0  0  0  0  0  0  0  0  0  0
  123.4314   25.3006  -16.3422 H   0  0  0  0  0  0  0  0  0  0  0  0
  125.4405   23.8816  -16.0845 H   0  0  0  0  0  0  0  0  0  0  0  0
  130.0772   22.7831  -16.5090 H   0  0  0  0  0  0  0  0  0  0  0  0
  130.7544   24.0081  -15.4440 H   0  0  0  0  0  0  0  0  0  0  0  0
  128.5633   21.9396  -14.8463 H   0  0  0  0  0  0  0  0  0  0  0  0
  130.9557   22.4522  -13.9207 H   0  0  0  0  0  0  0  0  0  0  0  0
  130.1695   24.2219  -12.5372 H   0  0  0  0  0  0  0  0  0  0  0  0
  128.9436   23.0703  -11.8586 H   0  0  0  0  0  0  0  0  0  0  0  0
  131.9818   22.9246  -11.5904 H   0  0  0  0  0  0  0  0  0  0  0  0
  130.7558   23.2078  -10.2897 H   0  0  0  0  0  0  0  0  0  0  0  0
  129.7704   23.0156   -6.0211 H   0  0  0  0  0  0  0  0  0  0  0  0
  132.3130   22.5156   -5.7280 H   0  0  0  0  0  0  0  0  0  0  0  0
  133.1134   21.0610   -7.9421 H   0  0  0  0  0  0  0  0  0  0  0  0
  131.8211   20.5434  -12.7531 H   0  0  0  0  0  0  0  0  0  0  0  0
  130.6480   19.3968  -12.0114 H   0  0  0  0  0  0  0  0  0  0  0  0
  128.7890   20.8654  -12.6783 H   0  0  0  0  0  0  0  0  0  0  0  0
  129.7688   20.3556  -14.0993 H   0  0  0  0  0  0  0  0  0  0  0  0
  128.6398   24.6082  -13.3383 H   0  0  0  0  0  0  0  0  0  0  0  0
  127.2404   23.5902  -13.6110 H   0  0  0  0  0  0  0  0  0  0  0  0
  127.7335   27.3641  -14.9824 H   0  0  0  0  0  0  0  0  0  0  0  0
  125.7433   28.7817  -15.3267 H   0  0  0  0  0  0  0  0  0  0  0  0
  122.1620   27.1155  -14.3610 H   0  0  0  0  0  0  0  0  0  0  0  0
  120.1415   28.5318  -14.6745 H   0  0  0  0  0  0  0  0  0  0  0  0
  122.0144   30.4665  -18.0222 H   0  0  0  0  0  0  0  0  0  0  0  0
  123.9967   28.9862  -17.7692 H   0  0  0  0  0  0  0  0  0  0  0  0
  1  2  2  0
  1 25  1  0
  2  3  1  0
  3  4  1  0
  3 23  2  0
  4  5  1  0
  4 22  1  0
  5  6  2  0
  5  7  1  0
  8  7  1  0
  8  9  1  0
  8 22  1  0
  9 10  1  0
  9 21  1  0
 10 11  1  0
 11 12  1  0
 12 13  1  0
 12 20  1  0
 13 14  2  0
 13 15  1  0
 15 16  1  0
 15 19  2  0
 16 17  1  0
 17 18  2  0
 18 19  1  0
 20 21  1  0
 23 24  1  0
 24 25  2  0
 25 26  1  0
 26 27  2  0
 26 31  1  0
 27 28  1  0
 28 29  2  0
 29 30  1  0
 29 32  1  0
 30 31  2  0
  1 33  1  0
  2 34  1  0
  7 35  1  0
  7 36  1  0
  8 37  1  6
  9 38  1  6
 10 39  1  0
 10 40  1  0
 11 41  1  0
 11 42  1  0
 17 43  1  0
 18 44  1  0
 19 45  1  0
 20 46  1  0
 20 47  1  0
 21 48  1  0
 21 49  1  0
 22 50  1  0
 22 51  1  0
 23 52  1  0
 24 53  1  0
 27 54  1  0
 28 55  1  0
 30 56  1  0
 31 57  1  0
M  CHG  1   9   1
M  END
>  <filename_input>  (24) 
7PRM_81I_docked.sdf

>  <pdb_id>  (24) 
7PRM_81I

>  <pose_rank>  (24) 
23

>  <num_atoms_heavy>  (24) 
32

>  <num_torsions>  (24) 
4

>  <pose>  (24) 
[127.88154521980725, 24.727539312519095, -15.319923274010083, -0.9468274007006469, -2.9070828965662012, -0.5145980884311598, 5.023160797780121, -4.933400338527816, -2.37012651394145, -1.5920695829729365]

>  <energy>  (24) 
-212.5690055846285

>  <inter_energy>  (24) 
-212.0470138376974

>  <intra_energy>  (24) 
0.4425613752515613

>  <rmsd>  (24) 
13.6332

>  <sdf_rank>  (24) 
0

$$$$

     RDKit          3D

 57 61  0  0  0  0  0  0  0  0999 V2000
  115.0561   22.3399   -1.4044 C   0  0  0  0  0  0  0  0  0  0  0  0
  115.2227   20.9663   -1.3745 C   0  0  0  0  0  0  0  0  0  0  0  0
  114.1102   20.1330   -1.3091 C   0  0  0  0  0  0  0  0  0  0  0  0
  114.2516   18.7122   -1.2888 N   0  0  0  0  0  0  0  0  0  0  0  0
  113.5005   17.8606   -2.0233 C   0  0  0  0  0  0  0  0  0  0  0  0
  112.6445   18.1951   -2.8348 O   0  0  0  0  0  0  0  0  0  0  0  0
  113.8718   16.4579   -1.6352 C   0  0  0  0  0  0  0  0  0  0  0  0
  114.5645   16.6143   -0.2797 C   0  0  1  0  0  0  0  0  0  0  0  0
  115.5548   15.5502    0.0057 N   0  0  1  0  0  0  0  0  0  0  0  0
  115.9219   14.7832   -1.1962 C   0  0  0  0  0  0  0  0  0  0  0  0
  116.8879   13.6369   -0.8673 C   0  0  0  0  0  0  0  0  0  0  0  0
  118.0394   14.1168   -0.0810 N   0  0  0  0  0  0  0  0  0  0  0  0
  119.3319   13.7332   -0.2126 C   0  0  0  0  0  0  0  0  0  0  0  0
  120.2000   14.1117    0.5750 O   0  0  0  0  0  0  0  0  0  0  0  0
  119.7945   12.8518   -1.3341 C   0  0  0  0  0  0  0  0  0  0  0  0
  119.8077   13.2331   -2.6540 O   0  0  0  0  0  0  0  0  0  0  0  0
  120.2932   12.1551   -3.3678 C   0  0  0  0  0  0  0  0  0  0  0  0
  120.6625   11.1805   -2.5505 C   0  0  0  0  0  0  0  0  0  0  0  0
  120.3591   11.6311   -1.2062 C   0  0  0  0  0  0  0  0  0  0  0  0
  117.6602   14.9409    1.0754 C   0  0  0  0  0  0  0  0  0  0  0  0
  116.7786   16.0782    0.6310 C   0  0  0  0  0  0  0  0  0  0  0  0
  115.1744   18.0151   -0.3879 C   0  0  0  0  0  0  0  0  0  0  0  0
  112.8400   20.7003   -1.2429 C   0  0  0  0  0  0  0  0  0  0  0  0
  112.6882   22.0722   -1.2479 C   0  0  0  0  0  0  0  0  0  0  0  0
  113.7882   22.9188   -1.3462 C   0  0  0  0  0  0  0  0  0  0  0  0
  113.6131   24.3893   -1.3698 C   0  0  0  0  0  0  0  0  0  0  0  0
  112.7123   24.9925   -2.2470 C   0  0  0  0  0  0  0  0  0  0  0  0
  112.5537   26.3660   -2.2810 C   0  0  0  0  0  0  0  0  0  0  0  0
  113.2997   27.1252   -1.4200 C   0  0  0  0  0  0  0  0  0  0  0  0
  114.2207   26.5880   -0.5656 C   0  0  0  0  0  0  0  0  0  0  0  0
  114.3894   25.2151   -0.5618 C   0  0  0  0  0  0  0  0  0  0  0  0
  113.1450   28.4790   -1.4393 F   0  0  0  0  0  0  0  0  0  0  0  0
  115.9417   22.9884   -1.4755 H   0  0  0  0  0  0  0  0  0  0  0  0
  116.2336   20.5337   -1.4025 H   0  0  0  0  0  0  0  0  0  0  0  0
  112.9747   15.8278   -1.5444 H   0  0  0  0  0  0  0  0  0  0  0  0
  114.5142   15.9699   -2.3829 H   0  0  0  0  0  0  0  0  0  0  0  0
  113.8785   16.5092    0.5738 H   0  0  0  0  0  0  0  0  0  0  0  0
  115.0863   14.9180    0.6702 H   0  0  0  0  0  0  0  0  0  0  0  0
  115.0088   14.3625   -1.6427 H   0  0  0  0  0  0  0  0  0  0  0  0
  116.4262   15.4653   -1.8965 H   0  0  0  0  0  0  0  0  0  0  0  0
  116.3517   12.8714   -0.2872 H   0  0  0  0  0  0  0  0  0  0  0  0
  117.2631   13.2166   -1.8121 H   0  0  0  0  0  0  0  0  0  0  0  0
  120.3635   12.1118   -4.4647 H   0  0  0  0  0  0  0  0  0  0  0  0
  121.1114   10.2176   -2.8358 H   0  0  0  0  0  0  0  0  0  0  0  0
  120.5505   11.0876   -0.2692 H   0  0  0  0  0  0  0  0  0  0  0  0
  117.1154   14.3203    1.8020 H   0  0  0  0  0  0  0  0  0  0  0  0
  118.5692   15.3495    1.5410 H   0  0  0  0  0  0  0  0  0  0  0  0
  117.3222   16.6975   -0.0977 H   0  0  0  0  0  0  0  0  0  0  0  0
  116.5044   16.6864    1.5056 H   0  0  0  0  0  0  0  0  0  0  0  0
  116.1869   17.9728   -0.8156 H   0  0  0  0  0  0  0  0  0  0  0  0
  115.2863   18.5138    0.5861 H   0  0  0  0  0  0  0  0  0  0  0  0
  111.9533   20.0518   -1.1864 H   0  0  0  0  0  0  0  0  0  0  0  0
  111.6793   22.5041   -1.1727 H   0  0  0  0  0  0  0  0  0  0  0  0
  112.1165   24.3638   -2.9250 H   0  0  0  0  0  0  0  0  0  0  0  0
  111.8471   26.8358   -2.9810 H   0  0  0  0  0  0  0  0  0  0  0  0
  114.8129   27.2309    0.1022 H   0  0  0  0  0  0  0  0  0  0  0  0
  115.1518   24.7673    0.0925 H   0  0  0  0  0  0  0  0  0  0  0  0
  1  2  2  0
  1 25  1  0
  2  3  1  0
  3  4  1  0
  3 23  2  0
  4  5  1  0
  4 22  1  0
  5  6  2  0
  5  7  1  0
  8  7  1  0
  8  9  1  0
  8 22  1  0
  9 10  1  0
  9 21  1  0
 10 11  1  0
 11 12  1  0
 12 13  1  0
 12 20  1  0
 13 14  2  0
 13 15  1  0
 15 16  1  0
 15 19  2  0
 16 17  1  0
 17 18  2  0
 18 19  1  0
 20 21  1  0
 23 24  1  0
 24 25  2  0
 25 26  1  0
 26 27  2  0
 26 31  1  0
 27 28  1  0
 28 29  2  0
 29 30  1  0
 29 32  1  0
 30 31  2  0
  1 33  1  0
  2 34  1  0
  7 35  1  0
  7 36  1  0
  8 37  1  1
  9 38  1  1
 10 39  1  0
 10 40  1  0
 11 41  1  0
 11 42  1  0
 17 43  1  0
 18 44  1  0
 19 45  1  0
 20 46  1  0
 20 47  1  0
 21 48  1  0
 21 49  1  0
 22 50  1  0
 22 51  1  0
 23 52  1  0
 24 53  1  0
 27 54  1  0
 28 55  1  0
 30 56  1  0
 31 57  1  0
M  CHG  1   9   1
M  END
>  <filename_input>  (25) 
7PRM_81I_docked.sdf

>  <pdb_id>  (25) 
7PRM_81I

>  <pose_rank>  (25) 
24

>  <num_atoms_heavy>  (25) 
32

>  <num_torsions>  (25) 
4

>  <pose>  (25) 
[114.2515967803095, 18.712202074214943, -1.2887791960233757, -1.760669540132691, -1.5815793732083596, 0.6279383972359565, -2.89034176911709, 1.141361832354753, -0.0733298897582564, -0.46448695637715326]

>  <energy>  (25) 
-235.17422331171795

>  <inter_energy>  (25) 
-243.55051493704477

>  <intra_energy>  (25) 
12.438023851372817

>  <rmsd>  (25) 
14.4723

>  <sdf_rank>  (25) 
0

$$$$

     RDKit          3D

 57 61  0  0  0  0  0  0  0  0999 V2000
  128.0810   21.6880   -5.7930 C   0  0  0  0  0  0  0  0  0  0  0  0
  126.7540   21.8200   -6.1630 C   0  0  0  0  0  0  0  0  0  0  0  0
  125.7870   21.0040   -5.5840 C   0  0  0  0  0  0  0  0  0  0  0  0
  124.4090   21.1260   -5.9380 N   0  0  0  0  0  0  0  0  0  0  0  0
  123.3970   21.2110   -5.0450 C   0  0  0  0  0  0  0  0  0  0  0  0
  123.5320   21.2480   -3.8270 O   0  0  0  0  0  0  0  0  0  0  0  0
  122.1020   21.2070   -5.8060 C   0  0  0  0  0  0  0  0  0  0  0  0
  122.4740   20.6380   -7.1770 C   0  0  1  0  0  0  0  0  0  0  0  0
  121.5940   21.1080   -8.2720 N   0  0  1  0  0  0  0  0  0  0  0  0
  121.9600   20.5330   -9.5770 C   0  0  0  0  0  0  0  0  0  0  0  0
  121.0880   21.0910  -10.7100 C   0  0  0  0  0  0  0  0  0  0  0  0
  119.6540   20.9850  -10.3830 N   0  0  0  0  0  0  0  0  0  0  0  0
  118.6490   20.6490  -11.2270 C   0  0  0  0  0  0  0  0  0  0  0  0
  117.4690   20.7030  -10.8780 O   0  0  0  0  0  0  0  0  0  0  0  0
  118.9050   20.1650  -12.6230 C   0  0  0  0  0  0  0  0  0  0  0  0
  120.1590   19.9890  -13.1560 O   0  0  0  0  0  0  0  0  0  0  0  0
  119.9750   19.5400  -14.4490 C   0  0  0  0  0  0  0  0  0  0  0  0
  118.6890   19.3440  -14.6980 C   0  0  0  0  0  0  0  0  0  0  0  0
  117.9720   19.7320  -13.4990 C   0  0  0  0  0  0  0  0  0  0  0  0
  119.3150   21.4980   -9.0480 C   0  0  0  0  0  0  0  0  0  0  0  0
  120.1730   20.8300   -8.0060 C   0  0  0  0  0  0  0  0  0  0  0  0
  123.9340   21.0770   -7.3240 C   0  0  0  0  0  0  0  0  0  0  0  0
  126.1780   20.0400   -4.6580 C   0  0  0  0  0  0  0  0  0  0  0  0
  127.5080   19.9010   -4.3160 C   0  0  0  0  0  0  0  0  0  0  0  0
  128.4830   20.7310   -4.8610 C   0  0  0  0  0  0  0  0  0  0  0  0
  129.9050   20.5860   -4.4730 C   0  0  0  0  0  0  0  0  0  0  0  0
  130.2630   20.0110   -3.2540 C   0  0  0  0  0  0  0  0  0  0  0  0
  131.5890   19.8840   -2.8820 C   0  0  0  0  0  0  0  0  0  0  0  0
  132.5500   20.3300   -3.7490 C   0  0  0  0  0  0  0  0  0  0  0  0
  132.2530   20.9320   -4.9390 C   0  0  0  0  0  0  0  0  0  0  0  0
  130.9220   21.0780   -5.2860 C   0  0  0  0  0  0  0  0  0  0  0  0
  133.8600   20.2020   -3.3960 F   0  0  0  0  0  0  0  0  0  0  0  0
  128.8343   22.3513   -6.2431 H   0  0  0  0  0  0  0  0  0  0  0  0
  126.4639   22.5694   -6.9142 H   0  0  0  0  0  0  0  0  0  0  0  0
  121.3583   20.5681   -5.3072 H   0  0  0  0  0  0  0  0  0  0  0  0
  121.6499   22.2075   -5.8736 H   0  0  0  0  0  0  0  0  0  0  0  0
  122.3443   19.5478   -7.2449 H   0  0  0  0  0  0  0  0  0  0  0  0
  121.7334   22.1278   -8.3101 H   0  0  0  0  0  0  0  0  0  0  0  0
  123.0131   20.7706   -9.7881 H   0  0  0  0  0  0  0  0  0  0  0  0
  121.8024   19.4455   -9.5279 H   0  0  0  0  0  0  0  0  0  0  0  0
  121.3420   22.1493  -10.8699 H   0  0  0  0  0  0  0  0  0  0  0  0
  121.2816   20.5032  -11.6194 H   0  0  0  0  0  0  0  0  0  0  0  0
  120.7854   19.3687  -15.1728 H   0  0  0  0  0  0  0  0  0  0  0  0
  118.2507   18.9617  -15.6317 H   0  0  0  0  0  0  0  0  0  0  0  0
  116.8853   19.6835  -13.3353 H   0  0  0  0  0  0  0  0  0  0  0  0
  119.4878   22.5840   -9.0204 H   0  0  0  0  0  0  0  0  0  0  0  0
  118.2572   21.2829   -8.8366 H   0  0  0  0  0  0  0  0  0  0  0  0
  120.0024   19.7437   -8.0351 H   0  0  0  0  0  0  0  0  0  0  0  0
  119.9074   21.2222   -7.0132 H   0  0  0  0  0  0  0  0  0  0  0  0
  124.0026   22.0663   -7.7999 H   0  0  0  0  0  0  0  0  0  0  0  0
  124.5259   20.4022   -7.9598 H   0  0  0  0  0  0  0  0  0  0  0  0
  125.4231   19.3861   -4.1969 H   0  0  0  0  0  0  0  0  0  0  0  0
  127.8026   19.1200   -3.5996 H   0  0  0  0  0  0  0  0  0  0  0  0
  129.4756   19.6515   -2.5752 H   0  0  0  0  0  0  0  0  0  0  0  0
  131.8641   19.4366   -1.9155 H   0  0  0  0  0  0  0  0  0  0  0  0
  133.0520   21.2914   -5.6042 H   0  0  0  0  0  0  0  0  0  0  0  0
  130.6622   21.5929   -6.2227 H   0  0  0  0  0  0  0  0  0  0  0  0
  1  2  2  0
  1 25  1  0
  2  3  1  0
  3  4  1  0
  3 23  2  0
  4  5  1  0
  4 22  1  0
  5  6  2  0
  5  7  1  0
  8  7  1  0
  8  9  1  0
  8 22  1  0
  9 10  1  0
  9 21  1  0
 10 11  1  0
 11 12  1  0
 12 13  1  0
 12 20  1  0
 13 14  2  0
 13 15  1  0
 15 16  1  0
 15 19  2  0
 16 17  1  0
 17 18  2  0
 18 19  1  0
 20 21  1  0
 23 24  1  0
 24 25  2  0
 25 26  1  0
 26 27  2  0
 26 31  1  0
 27 28  1  0
 28 29  2  0
 29 30  1  0
 29 32  1  0
 30 31  2  0
  1 33  1  0
  2 34  1  0
  7 35  1  0
  7 36  1  0
  8 37  1  1
  9 38  1  6
 10 39  1  0
 10 40  1  0
 11 41  1  0
 11 42  1  0
 17 43  1  0
 18 44  1  0
 19 45  1  0
 20 46  1  0
 20 47  1  0
 21 48  1  0
 21 49  1  0
 22 50  1  0
 22 51  1  0
 23 52  1  0
 24 53  1  0
 27 54  1  0
 28 55  1  0
 30 56  1  0
 31 57  1  0
M  CHG  1   9   1
M  END
>  <filename_input>  (26) 
7PRM_81I_docked.sdf

>  <pdb_id>  (26) 
7PRM_81I

>  <pose_rank>  (26) 
25

>  <num_atoms_heavy>  (26) 
32

>  <num_torsions>  (26) 
4

>  <pose>  (26) 
[124.409, 21.126, -5.938, 1e-06, 1e-06, 1e-06, 0.0, 0.0, 0.0, 0.0]

>  <energy>  (26) 
-1164.1150096031329

>  <inter_energy>  (26) 
-1199.1670258360487

>  <intra_energy>  (26) 
27.285900059620044

>  <rmsd>  (26) 
0.0

>  <sdf_rank>  (26) 
0

$$$$
