
     RDKit          3D

 92 94  0  0  0  0  0  0  0  0999 V2000
  -12.1779    0.4659   23.6492 C   0  0  0  0  0  0  0  0  0  0  0  0
  -10.8881   -0.1661   23.1562 C   0  0  1  0  0  0  0  0  0  0  0  0
   -9.8864    0.9047   22.6803 C   0  0  0  0  0  0  0  0  0  0  0  0
  -10.3404   -0.8652   24.2949 O   0  0  0  0  0  0  0  0  0  0  0  0
  -11.2271   -1.1664   22.0099 C   0  0  0  0  0  0  0  0  0  0  0  0
  -11.7315   -0.8451   20.9524 O   0  0  0  0  0  0  0  0  0  0  0  0
  -10.7955   -2.8491   22.3363 S   0  0  0  0  0  0  0  0  0  0  0  0
  -12.4255   -3.5026   22.7990 C   0  0  0  0  0  0  0  0  0  0  0  0
  -12.2881   -4.9401   23.3066 C   0  0  0  0  0  0  0  0  0  0  0  0
  -13.4347   -5.2806   24.1282 N   0  0  0  0  0  0  0  0  0  0  0  0
  -14.0434   -6.4679   24.0323 C   0  0  0  0  0  0  0  0  0  0  0  0
  -13.7378   -7.3237   23.1745 O   0  0  0  0  0  0  0  0  0  0  0  0
  -15.1017   -6.7687   25.0675 C   0  0  0  0  0  0  0  0  0  0  0  0
  -14.4936   -7.6775   26.1462 C   0  0  0  0  0  0  0  0  0  0  0  0
  -15.4713   -8.5683   26.7574 N   0  0  0  0  0  0  0  0  0  0  0  0
  -15.1721   -9.5445   27.5860 C   0  0  0  0  0  0  0  0  0  0  0  0
  -14.1118   -9.5840   28.2189 O   0  0  0  0  0  0  0  0  0  0  0  0
  -16.2881  -10.5667   27.8482 C   0  0  2  0  0  0  0  0  0  0  0  0
  -16.8123  -11.0627   26.6078 O   0  0  0  0  0  0  0  0  0  0  0  0
  -17.5332  -10.0669   28.6224 C   0  0  2  0  0  0  0  0  0  0  0  0
  -17.1774   -8.8020   29.4032 C   0  0  0  0  0  0  0  0  0  0  0  0
  -18.0412  -11.1448   29.5840 C   0  0  0  0  0  0  0  0  0  0  0  0
  -18.6603   -9.7401   27.6540 C   0  0  0  0  0  0  0  0  0  0  0  0
  -19.9084  -10.3720   28.1151 O   0  0  0  0  0  0  0  0  0  0  0  0
  -21.0735   -9.3768   28.6062 P   0  0  2  0  0  0  0  0  0  0  0  0
  -22.0854   -9.4921   27.4981 O   0  0  0  0  0  0  0  0  0  0  0  0
  -20.5218   -8.0494   29.0111 O   0  0  0  0  0  0  0  0  0  0  0  0
  -21.4530  -10.1869   29.9312 O   0  0  0  0  0  0  0  0  0  0  0  0
  -22.7074  -10.2916   30.9234 P   0  0  2  0  0  0  0  0  0  0  0  0
  -22.1134  -11.1390   32.0009 O   0  0  0  0  0  0  0  0  0  0  0  0
  -23.9286  -10.6128   30.1717 O   0  0  0  0  0  0  0  0  0  0  0  0
  -22.7729   -8.7585   31.4246 O   0  0  0  0  0  0  0  0  0  0  0  0
  -24.0124   -8.0379   31.5703 C   0  0  0  0  0  0  0  0  0  0  0  0
  -23.7697   -6.5625   31.8724 C   0  0  1  0  0  0  0  0  0  0  0  0
  -24.6920   -5.6934   31.1468 O   0  0  0  0  0  0  0  0  0  0  0  0
  -23.9100   -6.1146   33.3303 C   0  0  1  0  0  0  0  0  0  0  0  0
  -22.9667   -5.0879   33.5055 O   0  0  0  0  0  0  0  0  0  0  0  0
  -21.4458   -5.4844   33.7739 P   0  0  1  0  0  0  0  0  0  0  0  0
  -20.8610   -4.5802   34.7380 O   0  0  0  0  0  0  0  0  0  0  0  0
  -21.8011   -6.8129   34.3637 O   0  0  0  0  0  0  0  0  0  0  0  0
  -20.6883   -5.5421   32.3770 O   0  0  0  0  0  0  0  0  0  0  0  0
  -25.3507   -5.6034   33.3914 C   0  0  1  0  0  0  0  0  0  0  0  0
  -25.6054   -4.8290   34.5436 O   0  0  0  0  0  0  0  0  0  0  0  0
  -25.4111   -4.8792   32.0434 C   0  0  2  0  0  0  0  0  0  0  0  0
  -26.7460   -4.6753   31.4890 N   0  0  0  0  0  0  0  0  0  0  0  0
  -27.3140   -3.5254   30.9913 C   0  0  0  0  0  0  0  0  0  0  0  0
  -28.5385   -3.6918   30.5531 N   0  0  0  0  0  0  0  0  0  0  0  0
  -28.8171   -5.0260   30.8147 C   0  0  0  0  0  0  0  0  0  0  0  0
  -27.7288   -5.6464   31.3867 C   0  0  0  0  0  0  0  0  0  0  0  0
  -27.6589   -6.9312   31.7708 N   0  0  0  0  0  0  0  0  0  0  0  0
  -28.7915   -7.5831   31.4936 C   0  0  0  0  0  0  0  0  0  0  0  0
  -29.9183   -7.1180   30.9306 N   0  0  0  0  0  0  0  0  0  0  0  0
  -29.9689   -5.8174   30.5799 C   0  0  0  0  0  0  0  0  0  0  0  0
  -31.0709   -5.3357   30.0271 N   0  0  0  0  0  0  0  0  0  0  0  0
  -12.1870    0.4704   24.7491 H   0  0  0  0  0  0  0  0  0  0  0  0
  -12.2453    1.4991   23.2777 H   0  0  0  0  0  0  0  0  0  0  0  0
  -13.0357   -0.1139   23.2777 H   0  0  0  0  0  0  0  0  0  0  0  0
   -9.4294    1.3932   23.5535 H   0  0  0  0  0  0  0  0  0  0  0  0
   -9.1016    0.4289   22.0739 H   0  0  0  0  0  0  0  0  0  0  0  0
  -10.4134    1.6561   22.0739 H   0  0  0  0  0  0  0  0  0  0  0  0
  -10.6691   -0.4455   25.1291 H   0  0  0  0  0  0  0  0  0  0  0  0
  -12.8573   -2.8756   23.5930 H   0  0  0  0  0  0  0  0  0  0  0  0
  -13.0824   -3.4924   21.9168 H   0  0  0  0  0  0  0  0  0  0  0  0
  -12.2358   -5.6272   22.4492 H   0  0  0  0  0  0  0  0  0  0  0  0
  -11.3707   -5.0282   23.9072 H   0  0  0  0  0  0  0  0  0  0  0  0
  -13.7897   -4.5889   24.8038 H   0  0  0  0  0  0  0  0  0  0  0  0
  -15.4476   -5.8306   25.5261 H   0  0  0  0  0  0  0  0  0  0  0  0
  -15.9569   -7.2720   24.5928 H   0  0  0  0  0  0  0  0  0  0  0  0
  -13.7030   -8.2880   25.6853 H   0  0  0  0  0  0  0  0  0  0  0  0
  -14.0993   -7.0268   26.9406 H   0  0  0  0  0  0  0  0  0  0  0  0
  -16.4642   -8.4235   26.5247 H   0  0  0  0  0  0  0  0  0  0  0  0
  -15.7737  -11.3138   28.4705 H   0  0  0  0  0  0  0  0  0  0  0  0
  -17.5189  -11.7312   26.7919 H   0  0  0  0  0  0  0  0  0  0  0  0
  -17.2355   -9.0085   30.4821 H   0  0  0  0  0  0  0  0  0  0  0  0
  -16.1557   -8.4867   29.1447 H   0  0  0  0  0  0  0  0  0  0  0  0
  -17.8849   -8.0003   29.1447 H   0  0  0  0  0  0  0  0  0  0  0  0
  -17.8851  -10.8138   30.6214 H   0  0  0  0  0  0  0  0  0  0  0  0
  -19.1141  -11.3146   29.4108 H   0  0  0  0  0  0  0  0  0  0  0  0
  -17.4892  -12.0804   29.4108 H   0  0  0  0  0  0  0  0  0  0  0  0
  -18.7979   -8.6498   27.6072 H   0  0  0  0  0  0  0  0  0  0  0  0
  -18.4052  -10.1229   26.6548 H   0  0  0  0  0  0  0  0  0  0  0  0
  -24.5863   -8.1215   30.6356 H   0  0  0  0  0  0  0  0  0  0  0  0
  -24.5688   -8.4754   32.4123 H   0  0  0  0  0  0  0  0  0  0  0  0
  -22.7175   -6.4675   31.5660 H   0  0  0  0  0  0  0  0  0  0  0  0
  -23.7340   -6.8750   34.1055 H   0  0  0  0  0  0  0  0  0  0  0  0
  -26.1430   -6.3579   33.5054 H   0  0  0  0  0  0  0  0  0  0  0  0
  -25.4269   -5.3717   35.3521 H   0  0  0  0  0  0  0  0  0  0  0  0
  -25.0063   -3.8676   32.1946 H   0  0  0  0  0  0  0  0  0  0  0  0
  -26.7906   -2.5583   30.9637 H   0  0  0  0  0  0  0  0  0  0  0  0
  -28.8025   -8.6493   31.7643 H   0  0  0  0  0  0  0  0  0  0  0  0
  -31.8831   -5.9511   29.8767 H   0  0  0  0  0  0  0  0  0  0  0  0
  -31.1163   -4.3454   29.7473 H   0  0  0  0  0  0  0  0  0  0  0  0
  2  1  1  0
  2  3  1  0
  2  4  1  1
  2  5  1  0
  5  6  2  0
  5  7  1  0
  7  8  1  0
  8  9  1  0
  9 10  1  0
 10 11  1  0
 11 12  2  0
 11 13  1  0
 13 14  1  0
 14 15  1  0
 15 16  1  0
 16 17  2  0
 16 18  1  0
 18 19  1  0
 18 20  1  0
 20 21  1  1
 20 22  1  0
 20 23  1  0
 23 24  1  0
 24 25  1  0
 25 26  1  6
 25 27  2  0
 25 28  1  0
 28 29  1  0
 29 30  2  0
 29 31  1  6
 29 32  1  0
 32 33  1  0
 34 33  1  0
 34 35  1  0
 34 36  1  0
 35 44  1  0
 36 37  1  0
 36 42  1  0
 37 38  1  0
 38 39  2  0
 38 40  1  1
 38 41  1  0
 42 43  1  0
 42 44  1  0
 44 45  1  0
 45 46  1  0
 45 49  1  0
 46 47  2  0
 47 48  1  0
 48 49  2  0
 48 53  1  0
 49 50  1  0
 50 51  2  0
 51 52  1  0
 52 53  2  0
 53 54  1  0
  1 55  1  0
  1 56  1  0
  1 57  1  0
  3 58  1  0
  3 59  1  0
  3 60  1  0
  4 61  1  0
  8 62  1  0
  8 63  1  0
  9 64  1  0
  9 65  1  0
 10 66  1  0
 13 67  1  0
 13 68  1  0
 14 69  1  0
 14 70  1  0
 15 71  1  0
 18 72  1  1
 19 73  1  0
 21 74  1  0
 21 75  1  0
 21 76  1  0
 22 77  1  0
 22 78  1  0
 22 79  1  0
 23 80  1  0
 23 81  1  0
 33 82  1  0
 33 83  1  0
 34 84  1  6
 36 85  1  1
 42 86  1  6
 43 87  1  0
 44 88  1  1
 46 89  1  0
 51 90  1  0
 54 91  1  0
 54 92  1  0
M  CHG  4  26  -1  31  -1  40  -1  41  -1
M  END
>  <filename_input>  (1) 
7PT3_3KK_docked.sdf

>  <pdb_id>  (1) 
7PT3_3KK

>  <pose_rank>  (1) 
0

>  <num_atoms_heavy>  (1) 
54

>  <num_torsions>  (1) 
21

>  <pose>  (1) 
[-21.07346933263317, -9.376804144749844, 28.60623751857812, 3.5234235670416663, -2.9810411661512557, -1.1092715347597062, 0.7402490366602226, -0.8218990616189614, 1.222058881727492, -1.517391208057238, 0.7410609223924258, 1.7167885336692894, -5.670883408700672, -5.996008601844476, -2.590227766754093, 3.9499729477368217, -0.647878010413714, -1.2825469913783847, 2.8559567415136673, -1.28416801783122, 0.15781056145469477, 0.5778553790922265, 0.2860656953514105, -2.7365356770363567, -3.3682061659711287, 1.1081850819204873, 2.820193722763975]

>  <energy>  (1) 
-614.088397209537

>  <inter_energy>  (1) 
-648.4004460063005

>  <intra_energy>  (1) 
35.76899406816112

>  <rmsd>  (1) 
8.7733

>  <sdf_rank>  (1) 
0

$$$$

     RDKit          3D

 92 94  0  0  0  0  0  0  0  0999 V2000
  -33.6343   -7.7180   38.2981 C   0  0  0  0  0  0  0  0  0  0  0  0
  -34.1524   -6.5977   37.4134 C   0  0  1  0  0  0  0  0  0  0  0  0
  -34.2186   -5.2629   38.1819 C   0  0  0  0  0  0  0  0  0  0  0  0
  -33.1993   -6.4851   36.3344 O   0  0  0  0  0  0  0  0  0  0  0  0
  -35.5552   -7.0004   36.8661 C   0  0  0  0  0  0  0  0  0  0  0  0
  -36.3784   -6.2082   36.4531 O   0  0  0  0  0  0  0  0  0  0  0  0
  -35.8807   -8.7377   36.8541 S   0  0  0  0  0  0  0  0  0  0  0  0
  -35.1986   -9.1692   35.2272 C   0  0  0  0  0  0  0  0  0  0  0  0
  -36.3167   -9.6611   34.3047 C   0  0  0  0  0  0  0  0  0  0  0  0
  -35.8776   -9.5911   32.9235 N   0  0  0  0  0  0  0  0  0  0  0  0
  -36.6672   -9.1117   31.9559 C   0  0  0  0  0  0  0  0  0  0  0  0
  -37.8578   -8.7837   32.1471 O   0  0  0  0  0  0  0  0  0  0  0  0
  -36.0304   -8.9183   30.5998 C   0  0  0  0  0  0  0  0  0  0  0  0
  -37.0650   -8.2920   29.6529 C   0  0  0  0  0  0  0  0  0  0  0  0
  -36.6720   -6.9740   29.1718 N   0  0  0  0  0  0  0  0  0  0  0  0
  -37.1677   -5.8410   29.6187 C   0  0  0  0  0  0  0  0  0  0  0  0
  -37.7231   -5.7405   30.7177 O   0  0  0  0  0  0  0  0  0  0  0  0
  -36.8799   -4.5992   28.7616 C   0  0  2  0  0  0  0  0  0  0  0  0
  -37.4819   -4.7364   27.4662 O   0  0  0  0  0  0  0  0  0  0  0  0
  -35.3940   -4.2767   28.4657 C   0  0  2  0  0  0  0  0  0  0  0  0
  -35.3087   -3.0984   27.4959 C   0  0  0  0  0  0  0  0  0  0  0  0
  -34.6849   -5.4945   27.8666 C   0  0  0  0  0  0  0  0  0  0  0  0
  -34.6695   -3.9030   29.7504 C   0  0  0  0  0  0  0  0  0  0  0  0
  -33.2275   -3.7645   29.4836 O   0  0  0  0  0  0  0  0  0  0  0  0
  -32.5161   -2.4462   30.0708 P   0  0  2  0  0  0  0  0  0  0  0  0
  -32.7733   -2.5713   31.5485 O   0  0  0  0  0  0  0  0  0  0  0  0
  -32.9269   -1.2237   29.3178 O   0  0  0  0  0  0  0  0  0  0  0  0
  -31.0299   -2.8327   29.6262 O   0  0  0  0  0  0  0  0  0  0  0  0
  -29.6838   -2.0566   29.2329 P   0  0  2  0  0  0  0  0  0  0  0  0
  -29.7639   -0.9051   30.1813 O   0  0  0  0  0  0  0  0  0  0  0  0
  -29.5674   -1.9426   27.7724 O   0  0  0  0  0  0  0  0  0  0  0  0
  -28.5996   -3.1219   29.7764 O   0  0  0  0  0  0  0  0  0  0  0  0
  -28.9664   -4.2855   30.5436 C   0  0  0  0  0  0  0  0  0  0  0  0
  -28.5342   -4.1540   32.0007 C   0  0  1  0  0  0  0  0  0  0  0  0
  -27.7144   -5.2817   32.4352 O   0  0  0  0  0  0  0  0  0  0  0  0
  -27.7001   -2.9252   32.3749 C   0  0  1  0  0  0  0  0  0  0  0  0
  -28.0738   -2.5975   33.6893 O   0  0  0  0  0  0  0  0  0  0  0  0
  -28.5228   -1.1007   34.0060 P   0  0  1  0  0  0  0  0  0  0  0  0
  -29.8613   -0.8701   33.5117 O   0  0  0  0  0  0  0  0  0  0  0  0
  -28.4772   -1.3039   35.4878 O   0  0  0  0  0  0  0  0  0  0  0  0
  -27.4226   -0.1126   33.4218 O   0  0  0  0  0  0  0  0  0  0  0  0
  -26.2653   -3.4491   32.2869 C   0  0  1  0  0  0  0  0  0  0  0  0
  -25.3339   -2.5940   32.9142 O   0  0  0  0  0  0  0  0  0  0  0  0
  -26.4698   -4.8303   32.9159 C   0  0  2  0  0  0  0  0  0  0  0  0
  -25.4689   -5.8382   32.5792 N   0  0  0  0  0  0  0  0  0  0  0  0
  -25.5887   -6.9465   31.7730 C   0  0  0  0  0  0  0  0  0  0  0  0
  -24.4824   -7.6424   31.6695 N   0  0  0  0  0  0  0  0  0  0  0  0
  -23.5827   -6.9790   32.4921 C   0  0  0  0  0  0  0  0  0  0  0  0
  -24.1689   -5.8684   33.0571 C   0  0  0  0  0  0  0  0  0  0  0  0
  -23.5845   -5.0079   33.9064 N   0  0  0  0  0  0  0  0  0  0  0  0
  -22.3079   -5.3343   34.1262 C   0  0  0  0  0  0  0  0  0  0  0  0
  -21.6040   -6.3687   33.6387 N   0  0  0  0  0  0  0  0  0  0  0  0
  -22.2249   -7.2313   32.8096 C   0  0  0  0  0  0  0  0  0  0  0  0
  -21.5520   -8.2608   32.3201 N   0  0  0  0  0  0  0  0  0  0  0  0
  -33.7628   -7.4401   39.3546 H   0  0  0  0  0  0  0  0  0  0  0  0
  -34.1976   -8.6397   38.0902 H   0  0  0  0  0  0  0  0  0  0  0  0
  -32.5672   -7.8857   38.0902 H   0  0  0  0  0  0  0  0  0  0  0  0
  -34.2088   -5.4618   39.2637 H   0  0  0  0  0  0  0  0  0  0  0  0
  -33.3501   -4.6428   37.9151 H   0  0  0  0  0  0  0  0  0  0  0  0
  -35.1442   -4.7318   37.9151 H   0  0  0  0  0  0  0  0  0  0  0  0
  -32.2889   -6.3774   36.7082 H   0  0  0  0  0  0  0  0  0  0  0  0
  -34.7247   -8.2812   34.7837 H   0  0  0  0  0  0  0  0  0  0  0  0
  -34.4528   -9.9686   35.3488 H   0  0  0  0  0  0  0  0  0  0  0  0
  -36.5669  -10.7023   34.5565 H   0  0  0  0  0  0  0  0  0  0  0  0
  -37.2044   -9.0253   34.4373 H   0  0  0  0  0  0  0  0  0  0  0  0
  -34.9319   -9.9197   32.6813 H   0  0  0  0  0  0  0  0  0  0  0  0
  -35.1610   -8.2507   30.6913 H   0  0  0  0  0  0  0  0  0  0  0  0
  -35.6971   -9.8879   30.2013 H   0  0  0  0  0  0  0  0  0  0  0  0
  -37.1950   -8.9571   28.7864 H   0  0  0  0  0  0  0  0  0  0  0  0
  -37.9993   -8.1700   30.2206 H   0  0  0  0  0  0  0  0  0  0  0  0
  -35.9575   -6.9265   28.4314 H   0  0  0  0  0  0  0  0  0  0  0  0
  -37.2895   -3.7903   29.3844 H   0  0  0  0  0  0  0  0  0  0  0  0
  -38.4419   -4.9550   27.5699 H   0  0  0  0  0  0  0  0  0  0  0  0
  -35.2407   -2.1594   28.0648 H   0  0  0  0  0  0  0  0  0  0  0  0
  -34.4162   -3.2087   26.8624 H   0  0  0  0  0  0  0  0  0  0  0  0
  -36.2078   -3.0790   26.8624 H   0  0  0  0  0  0  0  0  0  0  0  0
  -34.3109   -6.1367   28.6775 H   0  0  0  0  0  0  0  0  0  0  0  0
  -35.3933   -6.0627   27.2459 H   0  0  0  0  0  0  0  0  0  0  0  0
  -33.8411   -5.1587   27.2459 H   0  0  0  0  0  0  0  0  0  0  0  0
  -35.0647   -2.9489   30.1291 H   0  0  0  0  0  0  0  0  0  0  0  0
  -34.8274   -4.6916   30.5009 H   0  0  0  0  0  0  0  0  0  0  0  0
  -30.0587   -4.4095   30.5047 H   0  0  0  0  0  0  0  0  0  0  0  0
  -28.4571   -5.1589   30.1103 H   0  0  0  0  0  0  0  0  0  0  0  0
  -29.5154   -4.0871   32.4936 H   0  0  0  0  0  0  0  0  0  0  0  0
  -27.8253   -2.0278   31.7512 H   0  0  0  0  0  0  0  0  0  0  0  0
  -25.8137   -3.4999   31.2852 H   0  0  0  0  0  0  0  0  0  0  0  0
  -25.4217   -2.6746   33.8970 H   0  0  0  0  0  0  0  0  0  0  0  0
  -26.3983   -4.7092   34.0069 H   0  0  0  0  0  0  0  0  0  0  0  0
  -26.5238   -7.2225   31.2636 H   0  0  0  0  0  0  0  0  0  0  0  0
  -21.7567   -4.6622   34.8004 H   0  0  0  0  0  0  0  0  0  0  0  0
  -20.5656   -8.4022   32.5807 H   0  0  0  0  0  0  0  0  0  0  0  0
  -22.0149   -8.9205   31.6786 H   0  0  0  0  0  0  0  0  0  0  0  0
  2  1  1  0
  2  3  1  0
  2  4  1  6
  2  5  1  0
  5  6  2  0
  5  7  1  0
  7  8  1  0
  8  9  1  0
  9 10  1  0
 10 11  1  0
 11 12  2  0
 11 13  1  0
 13 14  1  0
 14 15  1  0
 15 16  1  0
 16 17  2  0
 16 18  1  0
 18 19  1  0
 18 20  1  0
 20 21  1  6
 20 22  1  0
 20 23  1  0
 23 24  1  0
 24 25  1  0
 25 26  1  1
 25 27  2  0
 25 28  1  0
 28 29  1  0
 29 30  2  0
 29 31  1  6
 29 32  1  0
 32 33  1  0
 34 33  1  0
 34 35  1  0
 34 36  1  0
 35 44  1  0
 36 37  1  0
 36 42  1  0
 37 38  1  0
 38 39  2  0
 38 40  1  1
 38 41  1  0
 42 43  1  0
 42 44  1  0
 44 45  1  0
 45 46  1  0
 45 49  1  0
 46 47  2  0
 47 48  1  0
 48 49  2  0
 48 53  1  0
 49 50  1  0
 50 51  2  0
 51 52  1  0
 52 53  2  0
 53 54  1  0
  1 55  1  0
  1 56  1  0
  1 57  1  0
  3 58  1  0
  3 59  1  0
  3 60  1  0
  4 61  1  0
  8 62  1  0
  8 63  1  0
  9 64  1  0
  9 65  1  0
 10 66  1  0
 13 67  1  0
 13 68  1  0
 14 69  1  0
 14 70  1  0
 15 71  1  0
 18 72  1  1
 19 73  1  0
 21 74  1  0
 21 75  1  0
 21 76  1  0
 22 77  1  0
 22 78  1  0
 22 79  1  0
 23 80  1  0
 23 81  1  0
 33 82  1  0
 33 83  1  0
 34 84  1  1
 36 85  1  6
 42 86  1  6
 43 87  1  0
 44 88  1  1
 46 89  1  0
 51 90  1  0
 54 91  1  0
 54 92  1  0
M  CHG  4  26  -1  31  -1  40  -1  41  -1
M  END
>  <filename_input>  (2) 
7PT3_3KK_docked.sdf

>  <pdb_id>  (2) 
7PT3_3KK

>  <pose_rank>  (2) 
1

>  <num_atoms_heavy>  (2) 
54

>  <num_torsions>  (2) 
21

>  <pose>  (2) 
[-32.51609560247073, -2.4461952368219806, 30.070818414332745, -0.7632724036198016, 2.883643549930208, 1.7206238573153225, -0.1191296035752394, -0.4754857726954007, -4.333683466658508, 1.8894678798137887, 0.9387810811776203, -3.080199268714257, -1.0077355798592555, -1.0497066473622492, -1.0806848347456655, -2.2769739410823973, 0.3572034644644562, 1.709229475188865, -1.752029188900055, -2.1360512570096533, 3.798246811600689, -1.9577898272620335, 1.3869438393207167, -1.073907535559904, -1.2595827505522728, -5.990033471106291, 0.3360594732342196]

>  <energy>  (2) 
-561.1959147229763

>  <inter_energy>  (2) 
-596.0299957399269

>  <intra_energy>  (2) 
33.89175881720504

>  <rmsd>  (2) 
13.6224

>  <sdf_rank>  (2) 
0

$$$$

     RDKit          3D

 92 94  0  0  0  0  0  0  0  0999 V2000
  -18.0476  -11.2658   26.9913 C   0  0  0  0  0  0  0  0  0  0  0  0
  -17.8775  -10.0283   27.8549 C   0  0  1  0  0  0  0  0  0  0  0  0
  -16.8867  -10.2827   29.0083 C   0  0  0  0  0  0  0  0  0  0  0  0
  -17.3432   -9.0144   26.9764 O   0  0  0  0  0  0  0  0  0  0  0  0
  -19.2745   -9.6018   28.3989 C   0  0  0  0  0  0  0  0  0  0  0  0
  -20.2332   -9.3547   27.6949 O   0  0  0  0  0  0  0  0  0  0  0  0
  -19.3965   -9.5223   30.1604 S   0  0  0  0  0  0  0  0  0  0  0  0
  -21.0779   -8.8558   30.3246 C   0  0  0  0  0  0  0  0  0  0  0  0
  -21.0361   -7.4981   31.0302 C   0  0  0  0  0  0  0  0  0  0  0  0
  -22.3566   -6.8968   31.0127 N   0  0  0  0  0  0  0  0  0  0  0  0
  -22.9065   -6.3706   32.1127 C   0  0  0  0  0  0  0  0  0  0  0  0
  -22.3757   -6.4424   33.2418 O   0  0  0  0  0  0  0  0  0  0  0  0
  -24.1990   -5.6120   31.9237 C   0  0  0  0  0  0  0  0  0  0  0  0
  -25.1233   -5.9060   33.1148 C   0  0  0  0  0  0  0  0  0  0  0  0
  -26.4917   -5.4546   32.8985 N   0  0  0  0  0  0  0  0  0  0  0  0
  -27.3686   -6.0757   32.1407 C   0  0  0  0  0  0  0  0  0  0  0  0
  -27.2652   -7.2688   31.8373 O   0  0  0  0  0  0  0  0  0  0  0  0
  -28.6259   -5.2728   31.7747 C   0  0  2  0  0  0  0  0  0  0  0  0
  -29.6067   -6.1289   31.1710 O   0  0  0  0  0  0  0  0  0  0  0  0
  -28.4508   -4.1120   30.7642 C   0  0  2  0  0  0  0  0  0  0  0  0
  -29.7803   -3.8400   30.0607 C   0  0  0  0  0  0  0  0  0  0  0  0
  -27.3760   -4.4536   29.7285 C   0  0  0  0  0  0  0  0  0  0  0  0
  -28.0143   -2.8457   31.4860 C   0  0  0  0  0  0  0  0  0  0  0  0
  -29.1366   -2.3157   32.2792 O   0  0  0  0  0  0  0  0  0  0  0  0
  -29.0633   -0.7557   32.6666 P   0  0  2  0  0  0  0  0  0  0  0  0
  -27.6090   -0.5761   33.0102 O   0  0  0  0  0  0  0  0  0  0  0  0
  -30.1361   -0.3839   33.6367 O   0  0  0  0  0  0  0  0  0  0  0  0
  -29.4736   -0.1951   31.2268 O   0  0  0  0  0  0  0  0  0  0  0  0
  -30.8021    0.3508   30.5152 P   0  0  2  0  0  0  0  0  0  0  0  0
  -30.7424    1.7862   30.9250 O   0  0  0  0  0  0  0  0  0  0  0  0
  -31.9295   -0.5559   30.7728 O   0  0  0  0  0  0  0  0  0  0  0  0
  -30.3464    0.2162   28.9725 O   0  0  0  0  0  0  0  0  0  0  0  0
  -31.2342   -0.2426   27.9342 C   0  0  0  0  0  0  0  0  0  0  0  0
  -30.9153    0.4139   26.5946 C   0  0  1  0  0  0  0  0  0  0  0  0
  -32.1193    0.6827   25.8133 O   0  0  0  0  0  0  0  0  0  0  0  0
  -30.1902    1.7625   26.6315 C   0  0  1  0  0  0  0  0  0  0  0  0
  -29.3623    1.7805   25.4962 O   0  0  0  0  0  0  0  0  0  0  0  0
  -27.8173    2.1280   25.6818 P   0  0  1  0  0  0  0  0  0  0  0  0
  -27.2881    1.4325   26.8330 O   0  0  0  0  0  0  0  0  0  0  0  0
  -27.4246    1.4906   24.3863 O   0  0  0  0  0  0  0  0  0  0  0  0
  -27.6617    3.7096   25.7354 O   0  0  0  0  0  0  0  0  0  0  0  0
  -31.3390    2.7684   26.5352 C   0  0  1  0  0  0  0  0  0  0  0  0
  -30.8978    4.0694   26.2111 O   0  0  0  0  0  0  0  0  0  0  0  0
  -32.2053    2.0521   25.4952 C   0  0  2  0  0  0  0  0  0  0  0  0
  -33.6181    2.4193   25.4811 N   0  0  0  0  0  0  0  0  0  0  0  0
  -34.3995    2.9071   26.5029 C   0  0  0  0  0  0  0  0  0  0  0  0
  -35.6377    3.1503   26.1468 N   0  0  0  0  0  0  0  0  0  0  0  0
  -35.6939    2.7596   24.8162 C   0  0  0  0  0  0  0  0  0  0  0  0
  -34.4640    2.3106   24.3894 C   0  0  0  0  0  0  0  0  0  0  0  0
  -34.1684    1.8531   23.1619 N   0  0  0  0  0  0  0  0  0  0  0  0
  -35.2285    1.9171   22.3516 C   0  0  0  0  0  0  0  0  0  0  0  0
  -36.4738    2.3411   22.6209 N   0  0  0  0  0  0  0  0  0  0  0  0
  -36.7481    2.7694   23.8693 C   0  0  0  0  0  0  0  0  0  0  0  0
  -37.9700    3.1880   24.1590 N   0  0  0  0  0  0  0  0  0  0  0  0
  -18.1690  -12.1489   27.6359 H   0  0  0  0  0  0  0  0  0  0  0  0
  -18.9383  -11.1502   26.3563 H   0  0  0  0  0  0  0  0  0  0  0  0
  -17.1587  -11.3948   26.3563 H   0  0  0  0  0  0  0  0  0  0  0  0
  -17.4027  -10.1503   29.9708 H   0  0  0  0  0  0  0  0  0  0  0  0
  -16.4987  -11.3096   28.9386 H   0  0  0  0  0  0  0  0  0  0  0  0
  -16.0520   -9.5698   28.9386 H   0  0  0  0  0  0  0  0  0  0  0  0
  -16.9563   -8.2804   27.5164 H   0  0  0  0  0  0  0  0  0  0  0  0
  -21.5204   -8.7334   29.3250 H   0  0  0  0  0  0  0  0  0  0  0  0
  -21.6863   -9.5532   30.9191 H   0  0  0  0  0  0  0  0  0  0  0  0
  -20.7115   -7.6373   32.0719 H   0  0  0  0  0  0  0  0  0  0  0  0
  -20.3283   -6.8378   30.5077 H   0  0  0  0  0  0  0  0  0  0  0  0
  -22.8850   -6.8745   30.1288 H   0  0  0  0  0  0  0  0  0  0  0  0
  -23.9908   -4.5330   31.8747 H   0  0  0  0  0  0  0  0  0  0  0  0
  -24.6838   -5.9261   30.9876 H   0  0  0  0  0  0  0  0  0  0  0  0
  -25.1358   -6.9921   33.2889 H   0  0  0  0  0  0  0  0  0  0  0  0
  -24.7283   -5.3558   33.9815 H   0  0  0  0  0  0  0  0  0  0  0  0
  -26.7925   -4.5903   33.3712 H   0  0  0  0  0  0  0  0  0  0  0  0
  -28.9144   -4.8428   32.7452 H   0  0  0  0  0  0  0  0  0  0  0  0
  -30.1281   -6.5840   31.8789 H   0  0  0  0  0  0  0  0  0  0  0  0
  -30.5669   -3.6791   30.8127 H   0  0  0  0  0  0  0  0  0  0  0  0
  -29.6855   -2.9427   29.4316 H   0  0  0  0  0  0  0  0  0  0  0  0
  -30.0454   -4.7025   29.4316 H   0  0  0  0  0  0  0  0  0  0  0  0
  -26.4501   -4.7478   30.2444 H   0  0  0  0  0  0  0  0  0  0  0  0
  -27.7248   -5.2851   29.0986 H   0  0  0  0  0  0  0  0  0  0  0  0
  -27.1808   -3.5732   29.0986 H   0  0  0  0  0  0  0  0  0  0  0  0
  -27.1715   -3.0773   32.1539 H   0  0  0  0  0  0  0  0  0  0  0  0
  -27.7029   -2.0932   30.7465 H   0  0  0  0  0  0  0  0  0  0  0  0
  -31.1307   -1.3329   27.8315 H   0  0  0  0  0  0  0  0  0  0  0  0
  -32.2626    0.0286   28.2150 H   0  0  0  0  0  0  0  0  0  0  0  0
  -30.2472   -0.3425   26.1569 H   0  0  0  0  0  0  0  0  0  0  0  0
  -29.5650    1.9694   27.5126 H   0  0  0  0  0  0  0  0  0  0  0  0
  -31.8852    2.9918   27.4635 H   0  0  0  0  0  0  0  0  0  0  0  0
  -30.7259    4.5765   27.0438 H   0  0  0  0  0  0  0  0  0  0  0  0
  -31.8266    2.3330   24.5014 H   0  0  0  0  0  0  0  0  0  0  0  0
  -34.0214    3.0771   27.5218 H   0  0  0  0  0  0  0  0  0  0  0  0
  -35.0575    1.5750   21.3203 H   0  0  0  0  0  0  0  0  0  0  0  0
  -38.7035    3.1760   23.4360 H   0  0  0  0  0  0  0  0  0  0  0  0
  -38.1873    3.5258   25.1075 H   0  0  0  0  0  0  0  0  0  0  0  0
  2  1  1  0
  2  3  1  0
  2  4  1  6
  2  5  1  0
  5  6  2  0
  5  7  1  0
  7  8  1  0
  8  9  1  0
  9 10  1  0
 10 11  1  0
 11 12  2  0
 11 13  1  0
 13 14  1  0
 14 15  1  0
 15 16  1  0
 16 17  2  0
 16 18  1  0
 18 19  1  0
 18 20  1  0
 20 21  1  6
 20 22  1  0
 20 23  1  0
 23 24  1  0
 24 25  1  0
 25 26  1  1
 25 27  2  0
 25 28  1  0
 28 29  1  0
 29 30  2  0
 29 31  1  6
 29 32  1  0
 32 33  1  0
 34 33  1  0
 34 35  1  0
 34 36  1  0
 35 44  1  0
 36 37  1  0
 36 42  1  0
 37 38  1  0
 38 39  2  0
 38 40  1  6
 38 41  1  0
 42 43  1  0
 42 44  1  0
 44 45  1  0
 45 46  1  0
 45 49  1  0
 46 47  2  0
 47 48  1  0
 48 49  2  0
 48 53  1  0
 49 50  1  0
 50 51  2  0
 51 52  1  0
 52 53  2  0
 53 54  1  0
  1 55  1  0
  1 56  1  0
  1 57  1  0
  3 58  1  0
  3 59  1  0
  3 60  1  0
  4 61  1  0
  8 62  1  0
  8 63  1  0
  9 64  1  0
  9 65  1  0
 10 66  1  0
 13 67  1  0
 13 68  1  0
 14 69  1  0
 14 70  1  0
 15 71  1  0
 18 72  1  1
 19 73  1  0
 21 74  1  0
 21 75  1  0
 21 76  1  0
 22 77  1  0
 22 78  1  0
 22 79  1  0
 23 80  1  0
 23 81  1  0
 33 82  1  0
 33 83  1  0
 34 84  1  6
 36 85  1  1
 42 86  1  1
 43 87  1  0
 44 88  1  6
 46 89  1  0
 51 90  1  0
 54 91  1  0
 54 92  1  0
M  CHG  4  26  -1  31  -1  40  -1  41  -1
M  END
>  <filename_input>  (3) 
7PT3_3KK_docked.sdf

>  <pdb_id>  (3) 
7PT3_3KK

>  <pose_rank>  (3) 
2

>  <num_atoms_heavy>  (3) 
54

>  <num_torsions>  (3) 
21

>  <pose>  (3) 
[-29.063274382366046, -0.7557021228897025, 32.666572619605084, -1.1936891784499373, 2.470187280418937, 4.0970152083654785, 4.424074158942563, 0.7289121589698634, 3.971324156474952, 1.5535235506627136, 3.171449038046115, 6.3427981138189535, 0.2980338278154515, -1.7704557908766376, 3.6005885341156563, 4.205700321441937, 0.3052096937787357, 0.011727580464150013, 0.7754398041777607, 9.505372331873176, -1.6221018840506558, 0.612659235440797, -0.40723919216056453, 4.887943550785944, 0.17366704068088998, 0.2854590242078303, -0.23016828822264868]

>  <energy>  (3) 
-599.9227783841453

>  <inter_energy>  (3) 
-607.6130182218092

>  <intra_energy>  (3) 
7.423073990565127

>  <rmsd>  (3) 
6.25366

>  <sdf_rank>  (3) 
0

$$$$

     RDKit          3D

 92 94  0  0  0  0  0  0  0  0999 V2000
  -28.4466    1.6835   31.7596 C   0  0  0  0  0  0  0  0  0  0  0  0
  -29.9022    2.0570   31.5407 C   0  0  1  0  0  0  0  0  0  0  0  0
  -30.3067    3.2648   32.4092 C   0  0  0  0  0  0  0  0  0  0  0  0
  -30.0043    2.4124   30.1448 O   0  0  0  0  0  0  0  0  0  0  0  0
  -30.7904    0.8158   31.8569 C   0  0  0  0  0  0  0  0  0  0  0  0
  -31.8434    0.8675   32.4605 O   0  0  0  0  0  0  0  0  0  0  0  0
  -30.1706   -0.7211   31.2419 S   0  0  0  0  0  0  0  0  0  0  0  0
  -31.1729   -0.8785   29.7357 C   0  0  0  0  0  0  0  0  0  0  0  0
  -32.1179   -2.0763   29.8587 C   0  0  0  0  0  0  0  0  0  0  0  0
  -31.3641   -3.3095   29.7303 N   0  0  0  0  0  0  0  0  0  0  0  0
  -31.7845   -4.4537   30.2814 C   0  0  0  0  0  0  0  0  0  0  0  0
  -32.7909   -4.5262   31.0187 O   0  0  0  0  0  0  0  0  0  0  0  0
  -31.0117   -5.7002   29.9198 C   0  0  0  0  0  0  0  0  0  0  0  0
  -30.2290   -6.1719   31.1543 C   0  0  0  0  0  0  0  0  0  0  0  0
  -29.0813   -5.3269   31.4578 N   0  0  0  0  0  0  0  0  0  0  0  0
  -27.8727   -5.5125   30.9742 C   0  0  0  0  0  0  0  0  0  0  0  0
  -27.6549   -6.1678   29.9498 O   0  0  0  0  0  0  0  0  0  0  0  0
  -26.7458   -4.7338   31.6693 C   0  0  2  0  0  0  0  0  0  0  0  0
  -25.9205   -4.0757   30.6972 O   0  0  0  0  0  0  0  0  0  0  0  0
  -25.7519   -5.5520   32.5307 C   0  0  2  0  0  0  0  0  0  0  0  0
  -26.2525   -6.9901   32.6638 C   0  0  0  0  0  0  0  0  0  0  0  0
  -25.5965   -4.9258   33.9193 C   0  0  0  0  0  0  0  0  0  0  0  0
  -24.3791   -5.5733   31.8748 C   0  0  0  0  0  0  0  0  0  0  0  0
  -23.8140   -6.9313   31.9526 O   0  0  0  0  0  0  0  0  0  0  0  0
  -22.2093   -7.0349   32.0074 P   0  0  2  0  0  0  0  0  0  0  0  0
  -21.9727   -7.6809   33.3461 O   0  0  0  0  0  0  0  0  0  0  0  0
  -21.5666   -5.7335   31.6553 O   0  0  0  0  0  0  0  0  0  0  0  0
  -22.0519   -8.0246   30.7619 O   0  0  0  0  0  0  0  0  0  0  0  0
  -21.7582   -9.5834   30.5318 P   0  0  2  0  0  0  0  0  0  0  0  0
  -23.0831  -10.0188   29.9962 O   0  0  0  0  0  0  0  0  0  0  0  0
  -21.0922  -10.1575   31.7092 O   0  0  0  0  0  0  0  0  0  0  0  0
  -20.7008   -9.4736   29.3170 O   0  0  0  0  0  0  0  0  0  0  0  0
  -20.7223  -10.3612   28.1818 C   0  0  0  0  0  0  0  0  0  0  0  0
  -19.3910  -11.0867   28.0135 C   0  0  1  0  0  0  0  0  0  0  0  0
  -19.5689  -12.4673   27.5719 O   0  0  0  0  0  0  0  0  0  0  0  0
  -18.3978  -10.5015   27.0051 C   0  0  1  0  0  0  0  0  0  0  0  0
  -17.1218  -10.7593   27.5343 O   0  0  0  0  0  0  0  0  0  0  0  0
  -16.2278   -9.5275   28.0094 P   0  0  1  0  0  0  0  0  0  0  0  0
  -14.8649   -9.9582   28.2237 O   0  0  0  0  0  0  0  0  0  0  0  0
  -16.4072   -8.7838   26.7234 O   0  0  0  0  0  0  0  0  0  0  0  0
  -16.9196   -8.8656   29.2789 O   0  0  0  0  0  0  0  0  0  0  0  0
  -18.6819  -11.3121   25.7390 C   0  0  1  0  0  0  0  0  0  0  0  0
  -17.6621  -11.1860   24.7714 O   0  0  0  0  0  0  0  0  0  0  0  0
  -18.8699  -12.6946   26.3703 C   0  0  2  0  0  0  0  0  0  0  0  0
  -19.6364  -13.6556   25.5829 N   0  0  0  0  0  0  0  0  0  0  0  0
  -20.8763  -13.5127   25.0043 C   0  0  0  0  0  0  0  0  0  0  0  0
  -21.2743  -14.5748   24.3466 N   0  0  0  0  0  0  0  0  0  0  0  0
  -20.2538  -15.4964   24.5354 C   0  0  0  0  0  0  0  0  0  0  0  0
  -19.2392  -14.9500   25.2894 C   0  0  0  0  0  0  0  0  0  0  0  0
  -18.1071  -15.5679   25.6633 N   0  0  0  0  0  0  0  0  0  0  0  0
  -18.0476  -16.8097   25.1746 C   0  0  0  0  0  0  0  0  0  0  0  0
  -18.9447  -17.4650   24.4202 N   0  0  0  0  0  0  0  0  0  0  0  0
  -20.0841  -16.8285   24.0830 C   0  0  0  0  0  0  0  0  0  0  0  0
  -20.9848  -17.4562   23.3435 N   0  0  0  0  0  0  0  0  0  0  0  0
  -28.2400    1.6304   32.8387 H   0  0  0  0  0  0  0  0  0  0  0  0
  -28.2460    0.7048   31.2993 H   0  0  0  0  0  0  0  0  0  0  0  0
  -27.7995    2.4447   31.2993 H   0  0  0  0  0  0  0  0  0  0  0  0
  -30.2174    2.9980   33.4726 H   0  0  0  0  0  0  0  0  0  0  0  0
  -29.6440    4.1143   32.1874 H   0  0  0  0  0  0  0  0  0  0  0  0
  -31.3473    3.5438   32.1874 H   0  0  0  0  0  0  0  0  0  0  0  0
  -30.2769    3.3608   30.0648 H   0  0  0  0  0  0  0  0  0  0  0  0
  -31.7635    0.0385   29.5936 H   0  0  0  0  0  0  0  0  0  0  0  0
  -30.5072   -1.0308   28.8733 H   0  0  0  0  0  0  0  0  0  0  0  0
  -32.6138   -2.0514   30.8403 H   0  0  0  0  0  0  0  0  0  0  0  0
  -32.8741   -2.0270   29.0613 H   0  0  0  0  0  0  0  0  0  0  0  0
  -30.4810   -3.3038   29.2003 H   0  0  0  0  0  0  0  0  0  0  0  0
  -31.7094   -6.4885   29.6008 H   0  0  0  0  0  0  0  0  0  0  0  0
  -30.3157   -5.4832   29.0960 H   0  0  0  0  0  0  0  0  0  0  0  0
  -30.9061   -6.1680   32.0212 H   0  0  0  0  0  0  0  0  0  0  0  0
  -29.8468   -7.1801   30.9363 H   0  0  0  0  0  0  0  0  0  0  0  0
  -29.2266   -4.5302   32.0942 H   0  0  0  0  0  0  0  0  0  0  0  0
  -27.3076   -4.0635   32.3365 H   0  0  0  0  0  0  0  0  0  0  0  0
  -25.2364   -3.5301   31.1602 H   0  0  0  0  0  0  0  0  0  0  0  0
  -26.3428   -7.2497   33.7289 H   0  0  0  0  0  0  0  0  0  0  0  0
  -27.2356   -7.0825   32.1792 H   0  0  0  0  0  0  0  0  0  0  0  0
  -25.5392   -7.6730   32.1792 H   0  0  0  0  0  0  0  0  0  0  0  0
  -25.7858   -5.6887   34.6888 H   0  0  0  0  0  0  0  0  0  0  0  0
  -24.5744   -4.5356   34.0334 H   0  0  0  0  0  0  0  0  0  0  0  0
  -26.3178   -4.1031   34.0334 H   0  0  0  0  0  0  0  0  0  0  0  0
  -24.4730   -5.2760   30.8199 H   0  0  0  0  0  0  0  0  0  0  0  0
  -23.7138   -4.8709   32.3982 H   0  0  0  0  0  0  0  0  0  0  0  0
  -21.5193  -11.1056   28.3252 H   0  0  0  0  0  0  0  0  0  0  0  0
  -20.9046   -9.7610   27.2781 H   0  0  0  0  0  0  0  0  0  0  0  0
  -18.9783  -10.9823   29.0278 H   0  0  0  0  0  0  0  0  0  0  0  0
  -18.4706   -9.4231   26.8008 H   0  0  0  0  0  0  0  0  0  0  0  0
  -19.5439  -11.0009   25.1308 H   0  0  0  0  0  0  0  0  0  0  0  0
  -16.7886  -11.0780   25.2247 H   0  0  0  0  0  0  0  0  0  0  0  0
  -17.8724  -13.1451   26.4798 H   0  0  0  0  0  0  0  0  0  0  0  0
  -21.4767  -12.5946   25.0857 H   0  0  0  0  0  0  0  0  0  0  0  0
  -17.1371  -17.3740   25.4248 H   0  0  0  0  0  0  0  0  0  0  0  0
  -20.8159  -18.4255   23.0387 H   0  0  0  0  0  0  0  0  0  0  0  0
  -21.8546  -16.9754   23.0729 H   0  0  0  0  0  0  0  0  0  0  0  0
  2  1  1  0
  2  3  1  0
  2  4  1  6
  2  5  1  0
  5  6  2  0
  5  7  1  0
  7  8  1  0
  8  9  1  0
  9 10  1  0
 10 11  1  0
 11 12  2  0
 11 13  1  0
 13 14  1  0
 14 15  1  0
 15 16  1  0
 16 17  2  0
 16 18  1  0
 18 19  1  0
 18 20  1  0
 20 21  1  1
 20 22  1  0
 20 23  1  0
 23 24  1  0
 24 25  1  0
 25 26  1  1
 25 27  2  0
 25 28  1  0
 28 29  1  0
 29 30  2  0
 29 31  1  1
 29 32  1  0
 32 33  1  0
 34 33  1  0
 34 35  1  0
 34 36  1  0
 35 44  1  0
 36 37  1  0
 36 42  1  0
 37 38  1  0
 38 39  2  0
 38 40  1  6
 38 41  1  0
 42 43  1  0
 42 44  1  0
 44 45  1  0
 45 46  1  0
 45 49  1  0
 46 47  2  0
 47 48  1  0
 48 49  2  0
 48 53  1  0
 49 50  1  0
 50 51  2  0
 51 52  1  0
 52 53  2  0
 53 54  1  0
  1 55  1  0
  1 56  1  0
  1 57  1  0
  3 58  1  0
  3 59  1  0
  3 60  1  0
  4 61  1  0
  8 62  1  0
  8 63  1  0
  9 64  1  0
  9 65  1  0
 10 66  1  0
 13 67  1  0
 13 68  1  0
 14 69  1  0
 14 70  1  0
 15 71  1  0
 18 72  1  1
 19 73  1  0
 21 74  1  0
 21 75  1  0
 21 76  1  0
 22 77  1  0
 22 78  1  0
 22 79  1  0
 23 80  1  0
 23 81  1  0
 33 82  1  0
 33 83  1  0
 34 84  1  1
 36 85  1  6
 42 86  1  6
 43 87  1  0
 44 88  1  1
 46 89  1  0
 51 90  1  0
 54 91  1  0
 54 92  1  0
M  CHG  4  26  -1  31  -1  40  -1  41  -1
M  END
>  <filename_input>  (4) 
7PT3_3KK_docked.sdf

>  <pdb_id>  (4) 
7PT3_3KK

>  <pose_rank>  (4) 
3

>  <num_atoms_heavy>  (4) 
54

>  <num_torsions>  (4) 
21

>  <pose>  (4) 
[-22.209256724826776, -7.034883688121109, 32.0074231774203, 1.0457665312350541, 2.2249580326680314, 2.222383481402871, 0.9030478766938212, 0.8621091130131003, 2.823391515242571, -1.3025507155567018, 3.8234389043612103, -2.841620333310801, 1.9489519733222687, -2.3257506781997854, -2.305884840999357, -0.09327249086178102, 0.3792151257499587, 1.5100432429700166, -2.098855760318186, -0.3103852477133264, -1.1769916824724997, 2.0372199301714984, 1.1484987567632818, 3.6048617452648934, -0.26766504268423075, 0.5490871192496226, 2.384048584697403]

>  <energy>  (4) 
-582.9464983369359

>  <inter_energy>  (4) 
-592.7018722870735

>  <intra_energy>  (4) 
11.824312779676598

>  <rmsd>  (4) 
15.0188

>  <sdf_rank>  (4) 
0

$$$$

     RDKit          3D

 92 94  0  0  0  0  0  0  0  0999 V2000
  -17.8804  -10.3940   29.0952 C   0  0  0  0  0  0  0  0  0  0  0  0
  -18.7860  -10.2720   27.8823 C   0  0  1  0  0  0  0  0  0  0  0  0
  -18.1038   -9.4755   26.7524 C   0  0  0  0  0  0  0  0  0  0  0  0
  -19.0246  -11.6259   27.4404 O   0  0  0  0  0  0  0  0  0  0  0  0
  -20.1201   -9.5949   28.3198 C   0  0  0  0  0  0  0  0  0  0  0  0
  -20.9493   -9.1602   27.5458 O   0  0  0  0  0  0  0  0  0  0  0  0
  -20.3796   -9.5180   30.0666 S   0  0  0  0  0  0  0  0  0  0  0  0
  -22.0645  -10.1894   30.1591 C   0  0  0  0  0  0  0  0  0  0  0  0
  -22.0660  -11.6599   29.7340 C   0  0  0  0  0  0  0  0  0  0  0  0
  -23.4191  -12.1819   29.7830 N   0  0  0  0  0  0  0  0  0  0  0  0
  -23.7724  -13.2885   29.1197 C   0  0  0  0  0  0  0  0  0  0  0  0
  -23.0030  -13.8926   28.3421 O   0  0  0  0  0  0  0  0  0  0  0  0
  -25.1542  -13.8307   29.4004 C   0  0  0  0  0  0  0  0  0  0  0  0
  -25.0183  -15.1861   30.1101 C   0  0  0  0  0  0  0  0  0  0  0  0
  -25.6413  -15.2040   31.4272 N   0  0  0  0  0  0  0  0  0  0  0  0
  -25.5977  -16.2235   32.2565 C   0  0  0  0  0  0  0  0  0  0  0  0
  -24.7400  -17.1096   32.1836 O   0  0  0  0  0  0  0  0  0  0  0  0
  -26.5861  -16.1744   33.4313 C   0  0  2  0  0  0  0  0  0  0  0  0
  -27.6892  -15.3109   33.1198 O   0  0  0  0  0  0  0  0  0  0  0  0
  -26.0478  -15.6425   34.7828 C   0  0  2  0  0  0  0  0  0  0  0  0
  -25.1424  -14.4362   34.5347 C   0  0  0  0  0  0  0  0  0  0  0  0
  -25.2678  -16.7335   35.5217 C   0  0  0  0  0  0  0  0  0  0  0  0
  -27.2008  -15.2099   35.6764 C   0  0  0  0  0  0  0  0  0  0  0  0
  -27.0792  -13.7741   35.9817 O   0  0  0  0  0  0  0  0  0  0  0  0
  -28.4571  -12.9650   36.1703 P   0  0  2  0  0  0  0  0  0  0  0  0
  -28.8012  -13.2439   37.6088 O   0  0  0  0  0  0  0  0  0  0  0  0
  -29.4235  -13.2709   35.0735 O   0  0  0  0  0  0  0  0  0  0  0  0
  -27.8470  -11.5107   35.9094 O   0  0  0  0  0  0  0  0  0  0  0  0
  -28.2434   -9.9944   36.2457 P   0  0  2  0  0  0  0  0  0  0  0  0
  -27.2289   -9.6907   37.2994 O   0  0  0  0  0  0  0  0  0  0  0  0
  -29.6983   -9.8712   36.4121 O   0  0  0  0  0  0  0  0  0  0  0  0
  -27.8002   -9.2949   34.8601 O   0  0  0  0  0  0  0  0  0  0  0  0
  -27.4126   -7.9095   34.7748 C   0  0  0  0  0  0  0  0  0  0  0  0
  -26.7423   -7.5970   33.4406 C   0  0  1  0  0  0  0  0  0  0  0  0
  -27.7118   -7.4548   32.3579 O   0  0  0  0  0  0  0  0  0  0  0  0
  -25.9081   -6.3150   33.3601 C   0  0  1  0  0  0  0  0  0  0  0  0
  -24.8544   -6.6017   32.4757 O   0  0  0  0  0  0  0  0  0  0  0  0
  -23.3835   -6.1181   32.8563 P   0  0  1  0  0  0  0  0  0  0  0  0
  -23.4189   -5.3318   34.0686 O   0  0  0  0  0  0  0  0  0  0  0  0
  -22.8853   -7.5111   33.0812 O   0  0  0  0  0  0  0  0  0  0  0  0
  -22.7608   -5.3687   31.5998 O   0  0  0  0  0  0  0  0  0  0  0  0
  -26.8981   -5.3013   32.7830 C   0  0  1  0  0  0  0  0  0  0  0  0
  -26.2653   -4.1345   32.3033 O   0  0  0  0  0  0  0  0  0  0  0  0
  -27.5847   -6.1932   31.7446 C   0  0  2  0  0  0  0  0  0  0  0  0
  -28.9147   -5.7677   31.3190 N   0  0  0  0  0  0  0  0  0  0  0  0
  -30.1129   -6.4371   31.4130 C   0  0  0  0  0  0  0  0  0  0  0  0
  -31.1318   -5.7583   30.9439 N   0  0  0  0  0  0  0  0  0  0  0  0
  -30.5694   -4.5814   30.4696 C   0  0  0  0  0  0  0  0  0  0  0  0
  -29.2106   -4.5678   30.6929 C   0  0  0  0  0  0  0  0  0  0  0  0
  -28.3605   -3.5852   30.3539 N   0  0  0  0  0  0  0  0  0  0  0  0
  -29.0036   -2.5608   29.7869 C   0  0  0  0  0  0  0  0  0  0  0  0
  -30.3131   -2.4280   29.5208 N   0  0  0  0  0  0  0  0  0  0  0  0
  -31.1387   -3.4422   29.8479 C   0  0  0  0  0  0  0  0  0  0  0  0
  -32.4328   -3.3354   29.5913 N   0  0  0  0  0  0  0  0  0  0  0  0
  -18.4827  -10.3129   30.0121 H   0  0  0  0  0  0  0  0  0  0  0  0
  -17.3712  -11.3688   29.0760 H   0  0  0  0  0  0  0  0  0  0  0  0
  -17.1315   -9.5886   29.0760 H   0  0  0  0  0  0  0  0  0  0  0  0
  -17.4471   -8.7087   27.1891 H   0  0  0  0  0  0  0  0  0  0  0  0
  -17.5067  -10.1590   26.1308 H   0  0  0  0  0  0  0  0  0  0  0  0
  -18.8709   -8.9904   26.1308 H   0  0  0  0  0  0  0  0  0  0  0  0
  -19.1287  -12.2166   28.2280 H   0  0  0  0  0  0  0  0  0  0  0  0
  -22.4326  -10.1085   31.1925 H   0  0  0  0  0  0  0  0  0  0  0  0
  -22.7185   -9.6177   29.4842 H   0  0  0  0  0  0  0  0  0  0  0  0
  -21.6785  -11.7443   28.7080 H   0  0  0  0  0  0  0  0  0  0  0  0
  -21.4278  -12.2376   30.4188 H   0  0  0  0  0  0  0  0  0  0  0  0
  -24.1269  -11.6867   30.3439 H   0  0  0  0  0  0  0  0  0  0  0  0
  -25.7029  -13.1287   30.0456 H   0  0  0  0  0  0  0  0  0  0  0  0
  -25.7057  -13.9560   28.4569 H   0  0  0  0  0  0  0  0  0  0  0  0
  -25.4941  -15.9574   29.4867 H   0  0  0  0  0  0  0  0  0  0  0  0
  -23.9443  -15.3773   30.2514 H   0  0  0  0  0  0  0  0  0  0  0  0
  -26.1504  -14.3610   31.7290 H   0  0  0  0  0  0  0  0  0  0  0  0
  -26.8447  -17.2360   33.5584 H   0  0  0  0  0  0  0  0  0  0  0  0
  -28.1023  -14.9875   33.9594 H   0  0  0  0  0  0  0  0  0  0  0  0
  -24.8242  -14.0122   35.4985 H   0  0  0  0  0  0  0  0  0  0  0  0
  -24.2574  -14.7532   33.9635 H   0  0  0  0  0  0  0  0  0  0  0  0
  -25.6941  -13.6750   33.9635 H   0  0  0  0  0  0  0  0  0  0  0  0
  -25.3721  -16.5877   36.6070 H   0  0  0  0  0  0  0  0  0  0  0  0
  -25.6662  -17.7207   35.2445 H   0  0  0  0  0  0  0  0  0  0  0  0
  -24.2049  -16.6760   35.2445 H   0  0  0  0  0  0  0  0  0  0  0  0
  -28.1538  -15.3945   35.1590 H   0  0  0  0  0  0  0  0  0  0  0  0
  -27.1721  -15.7858   36.6132 H   0  0  0  0  0  0  0  0  0  0  0  0
  -28.3089   -7.2806   34.8804 H   0  0  0  0  0  0  0  0  0  0  0  0
  -26.6919   -7.7028   35.5797 H   0  0  0  0  0  0  0  0  0  0  0  0
  -26.0761   -8.4670   33.3445 H   0  0  0  0  0  0  0  0  0  0  0  0
  -25.4731   -5.9425   34.2992 H   0  0  0  0  0  0  0  0  0  0  0  0
  -27.6084   -4.8422   33.4864 H   0  0  0  0  0  0  0  0  0  0  0  0
  -25.9661   -3.5828   33.0689 H   0  0  0  0  0  0  0  0  0  0  0  0
  -26.9708   -6.1690   30.8322 H   0  0  0  0  0  0  0  0  0  0  0  0
  -30.2071   -7.4460   31.8411 H   0  0  0  0  0  0  0  0  0  0  0  0
  -28.3728   -1.7074   29.4976 H   0  0  0  0  0  0  0  0  0  0  0  0
  -32.7995   -2.4867   29.1373 H   0  0  0  0  0  0  0  0  0  0  0  0
  -33.0732   -4.1010   29.8456 H   0  0  0  0  0  0  0  0  0  0  0  0
  2  1  1  0
  2  3  1  0
  2  4  1  6
  2  5  1  0
  5  6  2  0
  5  7  1  0
  7  8  1  0
  8  9  1  0
  9 10  1  0
 10 11  1  0
 11 12  2  0
 11 13  1  0
 13 14  1  0
 14 15  1  0
 15 16  1  0
 16 17  2  0
 16 18  1  0
 18 19  1  0
 18 20  1  0
 20 21  1  6
 20 22  1  0
 20 23  1  0
 23 24  1  0
 24 25  1  0
 25 26  1  1
 25 27  2  0
 25 28  1  0
 28 29  1  0
 29 30  2  0
 29 31  1  1
 29 32  1  0
 32 33  1  0
 34 33  1  0
 34 35  1  0
 34 36  1  0
 35 44  1  0
 36 37  1  0
 36 42  1  0
 37 38  1  0
 38 39  2  0
 38 40  1  1
 38 41  1  0
 42 43  1  0
 42 44  1  0
 44 45  1  0
 45 46  1  0
 45 49  1  0
 46 47  2  0
 47 48  1  0
 48 49  2  0
 48 53  1  0
 49 50  1  0
 50 51  2  0
 51 52  1  0
 52 53  2  0
 53 54  1  0
  1 55  1  0
  1 56  1  0
  1 57  1  0
  3 58  1  0
  3 59  1  0
  3 60  1  0
  4 61  1  0
  8 62  1  0
  8 63  1  0
  9 64  1  0
  9 65  1  0
 10 66  1  0
 13 67  1  0
 13 68  1  0
 14 69  1  0
 14 70  1  0
 15 71  1  0
 18 72  1  1
 19 73  1  0
 21 74  1  0
 21 75  1  0
 21 76  1  0
 22 77  1  0
 22 78  1  0
 22 79  1  0
 23 80  1  0
 23 81  1  0
 33 82  1  0
 33 83  1  0
 34 84  1  6
 36 85  1  1
 42 86  1  1
 43 87  1  0
 44 88  1  6
 46 89  1  0
 51 90  1  0
 54 91  1  0
 54 92  1  0
M  CHG  4  26  -1  31  -1  40  -1  41  -1
M  END
>  <filename_input>  (5) 
7PT3_3KK_docked.sdf

>  <pdb_id>  (5) 
7PT3_3KK

>  <pose_rank>  (5) 
4

>  <num_atoms_heavy>  (5) 
54

>  <num_torsions>  (5) 
21

>  <pose>  (5) 
[-28.457145795087364, -12.9650476981693, 36.170349023609866, -3.1662541825866013, 2.179610225842732, 0.6264220405999736, 0.3078906558841241, -0.2151180749129195, -3.1450716544890303, -0.4393853070884655, 0.22775120159172962, 1.930068291969866, -0.9585841956225921, 0.06133604255006116, -2.188340586110001, -1.9353642200709684, 3.5246806891425875, 0.9707191924592491, 4.68074499570068, -1.2710482829144831, 5.037564653742311, -4.508026262484091, -0.07997819499585693, 2.4782715731635294, -1.4646926183587035, 0.14038986763065867, -1.0715588447356914]

>  <energy>  (5) 
-566.4893012915027

>  <inter_energy>  (5) 
-595.0443815353686

>  <intra_energy>  (5) 
26.49335204933132

>  <rmsd>  (5) 
7.65743

>  <sdf_rank>  (5) 
0

$$$$

     RDKit          3D

 92 94  0  0  0  0  0  0  0  0999 V2000
  -20.2917  -11.3928   29.2524 C   0  0  0  0  0  0  0  0  0  0  0  0
  -20.2490   -9.8757   29.3054 C   0  0  1  0  0  0  0  0  0  0  0  0
  -18.8709   -9.3709   29.7774 C   0  0  0  0  0  0  0  0  0  0  0  0
  -20.4848   -9.4348   27.9507 O   0  0  0  0  0  0  0  0  0  0  0  0
  -21.3835   -9.3759   30.2502 C   0  0  0  0  0  0  0  0  0  0  0  0
  -22.1973  -10.1041   30.7821 O   0  0  0  0  0  0  0  0  0  0  0  0
  -21.4021   -7.6316   30.5355 S   0  0  0  0  0  0  0  0  0  0  0  0
  -22.5510   -7.5599   31.9401 C   0  0  0  0  0  0  0  0  0  0  0  0
  -23.1712   -6.1639   32.0383 C   0  0  0  0  0  0  0  0  0  0  0  0
  -24.5908   -6.2377   31.7470 N   0  0  0  0  0  0  0  0  0  0  0  0
  -25.4665   -5.3815   32.2852 C   0  0  0  0  0  0  0  0  0  0  0  0
  -25.1484   -4.5286   33.1414 O   0  0  0  0  0  0  0  0  0  0  0  0
  -26.8814   -5.4449   31.7598 C   0  0  0  0  0  0  0  0  0  0  0  0
  -27.3437   -4.0219   31.4127 C   0  0  0  0  0  0  0  0  0  0  0  0
  -28.4626   -3.9986   30.4795 N   0  0  0  0  0  0  0  0  0  0  0  0
  -29.2641   -2.9709   30.3050 C   0  0  0  0  0  0  0  0  0  0  0  0
  -28.9510   -1.8172   30.6170 O   0  0  0  0  0  0  0  0  0  0  0  0
  -30.5654   -3.2580   29.5410 C   0  0  2  0  0  0  0  0  0  0  0  0
  -30.9533   -2.1129   28.7679 O   0  0  0  0  0  0  0  0  0  0  0  0
  -31.8182   -3.5967   30.3865 C   0  0  2  0  0  0  0  0  0  0  0  0
  -32.0820   -2.4703   31.3857 C   0  0  0  0  0  0  0  0  0  0  0  0
  -31.6253   -4.9190   31.1341 C   0  0  0  0  0  0  0  0  0  0  0  0
  -33.0369   -3.7450   29.4876 C   0  0  0  0  0  0  0  0  0  0  0  0
  -33.2720   -5.1709   29.2031 O   0  0  0  0  0  0  0  0  0  0  0  0
  -34.8029   -5.6104   28.9745 P   0  0  2  0  0  0  0  0  0  0  0  0
  -34.9484   -5.5090   27.4799 O   0  0  0  0  0  0  0  0  0  0  0  0
  -35.7242   -4.8736   29.8903 O   0  0  0  0  0  0  0  0  0  0  0  0
  -34.6428   -7.1044   29.5205 O   0  0  0  0  0  0  0  0  0  0  0  0
  -35.6029   -8.2545   30.0903 P   0  0  2  0  0  0  0  0  0  0  0  0
  -34.7661   -9.4569   29.7977 O   0  0  0  0  0  0  0  0  0  0  0  0
  -36.9806   -8.0489   29.6221 O   0  0  0  0  0  0  0  0  0  0  0  0
  -35.5143   -7.9123   31.6653 O   0  0  0  0  0  0  0  0  0  0  0  0
  -34.5386   -8.5122   32.5401 C   0  0  0  0  0  0  0  0  0  0  0  0
  -35.0870   -9.7663   33.2136 C   0  0  1  0  0  0  0  0  0  0  0  0
  -34.4692  -10.0067   34.5148 O   0  0  0  0  0  0  0  0  0  0  0  0
  -36.5900   -9.8031   33.5059 C   0  0  1  0  0  0  0  0  0  0  0  0
  -36.9734  -11.1471   33.3590 O   0  0  0  0  0  0  0  0  0  0  0  0
  -37.9765  -11.5318   32.1808 P   0  0  1  0  0  0  0  0  0  0  0  0
  -38.4495  -10.3351   31.5226 O   0  0  0  0  0  0  0  0  0  0  0  0
  -36.9238  -12.2495   31.3962 O   0  0  0  0  0  0  0  0  0  0  0  0
  -39.1242  -12.4546   32.7804 O   0  0  0  0  0  0  0  0  0  0  0  0
  -36.6653   -9.3276   34.9581 C   0  0  1  0  0  0  0  0  0  0  0  0
  -37.9145   -9.5996   35.5561 O   0  0  0  0  0  0  0  0  0  0  0  0
  -35.4512  -10.0708   35.5225 C   0  0  2  0  0  0  0  0  0  0  0  0
  -34.8750   -9.5151   36.7433 N   0  0  0  0  0  0  0  0  0  0  0  0
  -34.3884  -10.1700   37.8510 C   0  0  0  0  0  0  0  0  0  0  0  0
  -33.9234   -9.3644   38.7751 N   0  0  0  0  0  0  0  0  0  0  0  0
  -34.1542   -8.0932   38.2682 C   0  0  0  0  0  0  0  0  0  0  0  0
  -34.7352   -8.1652   37.0218 C   0  0  0  0  0  0  0  0  0  0  0  0
  -35.0960   -7.1250   36.2531 N   0  0  0  0  0  0  0  0  0  0  0  0
  -34.7846   -5.9622   36.8322 C   0  0  0  0  0  0  0  0  0  0  0  0
  -34.2088   -5.7393   38.0247 N   0  0  0  0  0  0  0  0  0  0  0  0
  -33.8820   -6.8025   38.7863 C   0  0  0  0  0  0  0  0  0  0  0  0
  -33.3173   -6.6070   39.9673 N   0  0  0  0  0  0  0  0  0  0  0  0
  -20.3030  -11.7953   30.2760 H   0  0  0  0  0  0  0  0  0  0  0  0
  -21.1993  -11.7157   28.7213 H   0  0  0  0  0  0  0  0  0  0  0  0
  -19.4037  -11.7663   28.7213 H   0  0  0  0  0  0  0  0  0  0  0  0
  -18.8413   -9.3600   30.8769 H   0  0  0  0  0  0  0  0  0  0  0  0
  -18.0851  -10.0396   29.3960 H   0  0  0  0  0  0  0  0  0  0  0  0
  -18.7030   -8.3529   29.3960 H   0  0  0  0  0  0  0  0  0  0  0  0
  -20.9518   -8.5620   27.9643 H   0  0  0  0  0  0  0  0  0  0  0  0
  -23.3487   -8.3036   31.7966 H   0  0  0  0  0  0  0  0  0  0  0  0
  -22.0012   -7.7768   32.8678 H   0  0  0  0  0  0  0  0  0  0  0  0
  -23.0266   -5.7703   33.0552 H   0  0  0  0  0  0  0  0  0  0  0  0
  -22.6844   -5.4972   31.3113 H   0  0  0  0  0  0  0  0  0  0  0  0
  -24.9336   -6.9694   31.1083 H   0  0  0  0  0  0  0  0  0  0  0  0
  -26.9133   -6.0744   30.8583 H   0  0  0  0  0  0  0  0  0  0  0  0
  -27.5448   -5.8781   32.5229 H   0  0  0  0  0  0  0  0  0  0  0  0
  -27.6506   -3.5169   32.3405 H   0  0  0  0  0  0  0  0  0  0  0  0
  -26.4994   -3.5109   30.9269 H   0  0  0  0  0  0  0  0  0  0  0  0
  -28.6376   -4.8445   29.9185 H   0  0  0  0  0  0  0  0  0  0  0  0
  -30.2957   -4.1487   28.9546 H   0  0  0  0  0  0  0  0  0  0  0  0
  -31.2038   -1.3733   29.3764 H   0  0  0  0  0  0  0  0  0  0  0  0
  -31.9907   -2.8602   32.4102 H   0  0  0  0  0  0  0  0  0  0  0  0
  -31.3480   -1.6653   31.2329 H   0  0  0  0  0  0  0  0  0  0  0  0
  -33.0970   -2.0749   31.2329 H   0  0  0  0  0  0  0  0  0  0  0  0
  -31.6522   -4.7346   32.2182 H   0  0  0  0  0  0  0  0  0  0  0  0
  -32.4313   -5.6158   30.8605 H   0  0  0  0  0  0  0  0  0  0  0  0
  -30.6539   -5.3565   30.8605 H   0  0  0  0  0  0  0  0  0  0  0  0
  -33.9179   -3.3226   29.9930 H   0  0  0  0  0  0  0  0  0  0  0  0
  -32.8610   -3.2088   28.5433 H   0  0  0  0  0  0  0  0  0  0  0  0
  -33.6494   -8.7824   31.9516 H   0  0  0  0  0  0  0  0  0  0  0  0
  -34.2835   -7.7834   33.3235 H   0  0  0  0  0  0  0  0  0  0  0  0
  -34.8499  -10.5217   32.4499 H   0  0  0  0  0  0  0  0  0  0  0  0
  -37.2391   -9.1912   32.8622 H   0  0  0  0  0  0  0  0  0  0  0  0
  -36.6181   -8.2421   35.1303 H   0  0  0  0  0  0  0  0  0  0  0  0
  -37.8202   -9.5790   36.5414 H   0  0  0  0  0  0  0  0  0  0  0  0
  -35.7832  -11.0828   35.7977 H   0  0  0  0  0  0  0  0  0  0  0  0
  -34.3894  -11.2654   37.9518 H   0  0  0  0  0  0  0  0  0  0  0  0
  -35.0346   -5.0620   36.2516 H   0  0  0  0  0  0  0  0  0  0  0  0
  -33.1395   -5.6488   40.3009 H   0  0  0  0  0  0  0  0  0  0  0  0
  -33.0556   -7.4130   40.5528 H   0  0  0  0  0  0  0  0  0  0  0  0
  2  1  1  0
  2  3  1  0
  2  4  1  6
  2  5  1  0
  5  6  2  0
  5  7  1  0
  7  8  1  0
  8  9  1  0
  9 10  1  0
 10 11  1  0
 11 12  2  0
 11 13  1  0
 13 14  1  0
 14 15  1  0
 15 16  1  0
 16 17  2  0
 16 18  1  0
 18 19  1  0
 18 20  1  0
 20 21  1  1
 20 22  1  0
 20 23  1  0
 23 24  1  0
 24 25  1  0
 25 26  1  6
 25 27  2  0
 25 28  1  0
 28 29  1  0
 29 30  2  0
 29 31  1  6
 29 32  1  0
 32 33  1  0
 34 33  1  0
 34 35  1  0
 34 36  1  0
 35 44  1  0
 36 37  1  0
 36 42  1  0
 37 38  1  0
 38 39  2  0
 38 40  1  6
 38 41  1  0
 42 43  1  0
 42 44  1  0
 44 45  1  0
 45 46  1  0
 45 49  1  0
 46 47  2  0
 47 48  1  0
 48 49  2  0
 48 53  1  0
 49 50  1  0
 50 51  2  0
 51 52  1  0
 52 53  2  0
 53 54  1  0
  1 55  1  0
  1 56  1  0
  1 57  1  0
  3 58  1  0
  3 59  1  0
  3 60  1  0
  4 61  1  0
  8 62  1  0
  8 63  1  0
  9 64  1  0
  9 65  1  0
 10 66  1  0
 13 67  1  0
 13 68  1  0
 14 69  1  0
 14 70  1  0
 15 71  1  0
 18 72  1  6
 19 73  1  0
 21 74  1  0
 21 75  1  0
 21 76  1  0
 22 77  1  0
 22 78  1  0
 22 79  1  0
 23 80  1  0
 23 81  1  0
 33 82  1  0
 33 83  1  0
 34 84  1  6
 36 85  1  6
 42 86  1  6
 43 87  1  0
 44 88  1  1
 46 89  1  0
 51 90  1  0
 54 91  1  0
 54 92  1  0
M  CHG  4  26  -1  31  -1  40  -1  41  -1
M  END
>  <filename_input>  (6) 
7PT3_3KK_docked.sdf

>  <pdb_id>  (6) 
7PT3_3KK

>  <pose_rank>  (6) 
5

>  <num_atoms_heavy>  (6) 
54

>  <num_torsions>  (6) 
21

>  <pose>  (6) 
[-34.80289579645447, -5.610407606452569, 28.974513208477564, 3.7011479205072173, 0.7163250158521949, -3.1737070266954786, -18.377664910912475, -31.60447094600874, -5.646345008708784, 12.387518570025419, 3.555131467367984, 1.528009962316846, -0.2745200675844513, -0.24852287113303312, 3.9189879455316343, 15.724707552575754, 12.185240687599896, 0.32949281419536125, 1.698216354671956, -8.287175597532075, -0.3929503186859704, 9.14154801178382, 14.238358345351603, -1.5276888035013543, 3.074415115133138, 0.5237758719275913, -1.0999743966607667]

>  <energy>  (6) 
-569.9431446437599

>  <inter_energy>  (6) 
-595.0093737079247

>  <intra_energy>  (6) 
23.003042992710284

>  <rmsd>  (6) 
9.71996

>  <sdf_rank>  (6) 
0

$$$$

     RDKit          3D

 92 94  0  0  0  0  0  0  0  0999 V2000
  -38.4892   -7.5769   38.7918 C   0  0  0  0  0  0  0  0  0  0  0  0
  -37.0755   -7.0537   38.6076 C   0  0  1  0  0  0  0  0  0  0  0  0
  -36.6034   -7.2188   37.1493 C   0  0  0  0  0  0  0  0  0  0  0  0
  -37.1371   -5.6492   38.9374 O   0  0  0  0  0  0  0  0  0  0  0  0
  -36.1308   -7.8073   39.5920 C   0  0  0  0  0  0  0  0  0  0  0  0
  -35.8334   -8.9805   39.4872 O   0  0  0  0  0  0  0  0  0  0  0  0
  -35.4718   -6.8165   40.8990 S   0  0  0  0  0  0  0  0  0  0  0  0
  -33.7085   -6.8680   40.4677 C   0  0  0  0  0  0  0  0  0  0  0  0
  -33.5022   -6.3441   39.0444 C   0  0  0  0  0  0  0  0  0  0  0  0
  -32.2487   -5.6173   38.9674 N   0  0  0  0  0  0  0  0  0  0  0  0
  -32.2009   -4.2830   39.0502 C   0  0  0  0  0  0  0  0  0  0  0  0
  -33.2229   -3.5657   39.1012 O   0  0  0  0  0  0  0  0  0  0  0  0
  -30.8270   -3.6620   39.1444 C   0  0  0  0  0  0  0  0  0  0  0  0
  -29.8581   -4.4712   38.2693 C   0  0  0  0  0  0  0  0  0  0  0  0
  -29.2593   -3.6804   37.2019 N   0  0  0  0  0  0  0  0  0  0  0  0
  -28.0302   -3.8359   36.7611 C   0  0  0  0  0  0  0  0  0  0  0  0
  -27.3864   -4.8773   36.9266 O   0  0  0  0  0  0  0  0  0  0  0  0
  -27.4842   -2.6996   35.8836 C   0  0  2  0  0  0  0  0  0  0  0  0
  -28.4503   -1.6440   35.7756 O   0  0  0  0  0  0  0  0  0  0  0  0
  -27.1289   -3.0506   34.4174 C   0  0  2  0  0  0  0  0  0  0  0  0
  -25.7193   -2.5528   34.0985 C   0  0  0  0  0  0  0  0  0  0  0  0
  -28.1339   -2.4181   33.4507 C   0  0  0  0  0  0  0  0  0  0  0  0
  -27.1711   -4.5575   34.2108 C   0  0  0  0  0  0  0  0  0  0  0  0
  -26.0865   -4.9633   33.3005 O   0  0  0  0  0  0  0  0  0  0  0  0
  -26.3939   -6.2143   32.3366 P   0  0  2  0  0  0  0  0  0  0  0  0
  -27.2181   -7.1097   33.2221 O   0  0  0  0  0  0  0  0  0  0  0  0
  -25.1497   -6.7145   31.6790 O   0  0  0  0  0  0  0  0  0  0  0  0
  -27.2409   -5.4001   31.2525 O   0  0  0  0  0  0  0  0  0  0  0  0
  -28.6532   -5.5541   30.5102 P   0  0  2  0  0  0  0  0  0  0  0  0
  -29.3869   -6.3746   31.5203 O   0  0  0  0  0  0  0  0  0  0  0  0
  -28.4532   -5.9262   29.1027 O   0  0  0  0  0  0  0  0  0  0  0  0
  -29.1608   -4.0241   30.5943 O   0  0  0  0  0  0  0  0  0  0  0  0
  -28.5141   -2.9478   29.8870 C   0  0  0  0  0  0  0  0  0  0  0  0
  -29.4786   -1.7977   29.6150 C   0  0  1  0  0  0  0  0  0  0  0  0
  -30.6835   -2.2428   28.9203 O   0  0  0  0  0  0  0  0  0  0  0  0
  -30.0137   -1.0315   30.8284 C   0  0  1  0  0  0  0  0  0  0  0  0
  -30.1708    0.2976   30.4002 O   0  0  0  0  0  0  0  0  0  0  0  0
  -29.4449    1.4562   31.2205 P   0  0  1  0  0  0  0  0  0  0  0  0
  -28.3289    0.9138   31.9617 O   0  0  0  0  0  0  0  0  0  0  0  0
  -29.0220    2.1897   29.9867 O   0  0  0  0  0  0  0  0  0  0  0  0
  -30.5332    2.1975   32.1118 O   0  0  0  0  0  0  0  0  0  0  0  0
  -31.3517   -1.7211   31.1024 C   0  0  1  0  0  0  0  0  0  0  0  0
  -32.1838   -0.9730   31.9627 O   0  0  0  0  0  0  0  0  0  0  0  0
  -31.8330   -1.9036   29.6601 C   0  0  2  0  0  0  0  0  0  0  0  0
  -32.8261   -2.9524   29.4479 N   0  0  0  0  0  0  0  0  0  0  0  0
  -32.8293   -4.2509   29.9022 C   0  0  0  0  0  0  0  0  0  0  0  0
  -33.8898   -4.9314   29.5396 N   0  0  0  0  0  0  0  0  0  0  0  0
  -34.6165   -4.0424   28.7599 C   0  0  0  0  0  0  0  0  0  0  0  0
  -33.9811   -2.8224   28.6939 C   0  0  0  0  0  0  0  0  0  0  0  0
  -34.4062   -1.7416   28.0199 N   0  0  0  0  0  0  0  0  0  0  0  0
  -35.5800   -1.9711   27.4249 C   0  0  0  0  0  0  0  0  0  0  0  0
  -36.3168   -3.0937   27.4138 N   0  0  0  0  0  0  0  0  0  0  0  0
  -35.8515   -4.1711   28.0770 C   0  0  0  0  0  0  0  0  0  0  0  0
  -36.5587   -5.2901   28.0764 N   0  0  0  0  0  0  0  0  0  0  0  0
  -38.7126   -7.6595   39.8657 H   0  0  0  0  0  0  0  0  0  0  0  0
  -39.2013   -6.8827   38.3215 H   0  0  0  0  0  0  0  0  0  0  0  0
  -38.5779   -8.5673   38.3215 H   0  0  0  0  0  0  0  0  0  0  0  0
  -35.5650   -7.5817   37.1390 H   0  0  0  0  0  0  0  0  0  0  0  0
  -37.2504   -7.9440   36.6342 H   0  0  0  0  0  0  0  0  0  0  0  0
  -36.6577   -6.2483   36.6342 H   0  0  0  0  0  0  0  0  0  0  0  0
  -37.1418   -5.5412   39.9215 H   0  0  0  0  0  0  0  0  0  0  0  0
  -33.1426   -6.2409   41.1724 H   0  0  0  0  0  0  0  0  0  0  0  0
  -33.3530   -7.9074   40.5250 H   0  0  0  0  0  0  0  0  0  0  0  0
  -33.4774   -7.1911   38.3430 H   0  0  0  0  0  0  0  0  0  0  0  0
  -34.3307   -5.6702   38.7808 H   0  0  0  0  0  0  0  0  0  0  0  0
  -31.3715   -6.1433   38.8457 H   0  0  0  0  0  0  0  0  0  0  0  0
  -30.8661   -2.6219   38.7886 H   0  0  0  0  0  0  0  0  0  0  0  0
  -30.4834   -3.6705   40.1893 H   0  0  0  0  0  0  0  0  0  0  0  0
  -29.0534   -4.8640   38.9082 H   0  0  0  0  0  0  0  0  0  0  0  0
  -30.4373   -5.2777   37.7961 H   0  0  0  0  0  0  0  0  0  0  0  0
  -29.8379   -2.9500   36.7630 H   0  0  0  0  0  0  0  0  0  0  0  0
  -26.5549   -2.4312   36.4075 H   0  0  0  0  0  0  0  0  0  0  0  0
  -28.7199   -1.3494   36.6815 H   0  0  0  0  0  0  0  0  0  0  0  0
  -25.1771   -2.3613   35.0362 H   0  0  0  0  0  0  0  0  0  0  0  0
  -25.1841   -3.3163   33.5148 H   0  0  0  0  0  0  0  0  0  0  0  0
  -25.7823   -1.6225   33.5148 H   0  0  0  0  0  0  0  0  0  0  0  0
  -28.9286   -1.9178   34.0235 H   0  0  0  0  0  0  0  0  0  0  0  0
  -27.6190   -1.6809   32.8171 H   0  0  0  0  0  0  0  0  0  0  0  0
  -28.5759   -3.2011   32.8171 H   0  0  0  0  0  0  0  0  0  0  0  0
  -27.0443   -5.0633   35.1793 H   0  0  0  0  0  0  0  0  0  0  0  0
  -28.1398   -4.8384   33.7719 H   0  0  0  0  0  0  0  0  0  0  0  0
  -27.6753   -2.5750   30.4932 H   0  0  0  0  0  0  0  0  0  0  0  0
  -28.1577   -3.3349   28.9210 H   0  0  0  0  0  0  0  0  0  0  0  0
  -28.8320   -1.1316   29.0248 H   0  0  0  0  0  0  0  0  0  0  0  0
  -29.3866   -1.0266   31.7322 H   0  0  0  0  0  0  0  0  0  0  0  0
  -31.3196   -2.6666   31.6636 H   0  0  0  0  0  0  0  0  0  0  0  0
  -31.9552   -1.1784   32.9038 H   0  0  0  0  0  0  0  0  0  0  0  0
  -32.3328   -0.9711   29.3591 H   0  0  0  0  0  0  0  0  0  0  0  0
  -32.0192   -4.6778   30.5118 H   0  0  0  0  0  0  0  0  0  0  0  0
  -36.0018   -1.1224   26.8665 H   0  0  0  0  0  0  0  0  0  0  0  0
  -37.4515   -5.3348   27.5646 H   0  0  0  0  0  0  0  0  0  0  0  0
  -36.2162   -6.1160   28.5876 H   0  0  0  0  0  0  0  0  0  0  0  0
  2  1  1  0
  2  3  1  0
  2  4  1  1
  2  5  1  0
  5  6  2  0
  5  7  1  0
  7  8  1  0
  8  9  1  0
  9 10  1  0
 10 11  1  0
 11 12  2  0
 11 13  1  0
 13 14  1  0
 14 15  1  0
 15 16  1  0
 16 17  2  0
 16 18  1  0
 18 19  1  0
 18 20  1  0
 20 21  1  6
 20 22  1  0
 20 23  1  0
 23 24  1  0
 24 25  1  0
 25 26  1  1
 25 27  2  0
 25 28  1  0
 28 29  1  0
 29 30  2  0
 29 31  1  6
 29 32  1  0
 32 33  1  0
 34 33  1  0
 34 35  1  0
 34 36  1  0
 35 44  1  0
 36 37  1  0
 36 42  1  0
 37 38  1  0
 38 39  2  0
 38 40  1  6
 38 41  1  0
 42 43  1  0
 42 44  1  0
 44 45  1  0
 45 46  1  0
 45 49  1  0
 46 47  2  0
 47 48  1  0
 48 49  2  0
 48 53  1  0
 49 50  1  0
 50 51  2  0
 51 52  1  0
 52 53  2  0
 53 54  1  0
  1 55  1  0
  1 56  1  0
  1 57  1  0
  3 58  1  0
  3 59  1  0
  3 60  1  0
  4 61  1  0
  8 62  1  0
  8 63  1  0
  9 64  1  0
  9 65  1  0
 10 66  1  0
 13 67  1  0
 13 68  1  0
 14 69  1  0
 14 70  1  0
 15 71  1  0
 18 72  1  1
 19 73  1  0
 21 74  1  0
 21 75  1  0
 21 76  1  0
 22 77  1  0
 22 78  1  0
 22 79  1  0
 23 80  1  0
 23 81  1  0
 33 82  1  0
 33 83  1  0
 34 84  1  6
 36 85  1  1
 42 86  1  1
 43 87  1  0
 44 88  1  6
 46 89  1  0
 51 90  1  0
 54 91  1  0
 54 92  1  0
M  CHG  4  26  -1  31  -1  40  -1  41  -1
M  END
>  <filename_input>  (7) 
7PT3_3KK_docked.sdf

>  <pdb_id>  (7) 
7PT3_3KK

>  <pose_rank>  (7) 
6

>  <num_atoms_heavy>  (7) 
54

>  <num_torsions>  (7) 
21

>  <pose>  (7) 
[-26.393869642964784, -6.2143411608295125, 32.33655094860998, -2.8761806794365725, 0.034900548393654335, -2.098340896113356, -14.365922236735896, 13.495707559931489, -9.837096837642349, 2.863682337569621, -12.683076025203016, -5.029385611954719, 30.44107103613621, 46.65531796767167, 24.71335177747712, -2.5727247742066637, 28.49835585911022, 13.797824780031963, -3.3073989823669008, 5.50442380484206, 9.893483678971332, 11.90307359352908, 5.987034257415427, 6.45215176657268, -0.1898971933954589, 0.3464840764920004, -0.5971434935891416]

>  <energy>  (7) 
-535.5007718397328

>  <inter_energy>  (7) 
-579.0144432965774

>  <intra_energy>  (7) 
40.574603704953304

>  <rmsd>  (7) 
11.6638

>  <sdf_rank>  (7) 
0

$$$$

     RDKit          3D

 92 94  0  0  0  0  0  0  0  0999 V2000
  -28.3689  -16.1291   25.1967 C   0  0  0  0  0  0  0  0  0  0  0  0
  -28.1927  -15.1857   26.3736 C   0  0  1  0  0  0  0  0  0  0  0  0
  -29.2964  -14.1097   26.3983 C   0  0  0  0  0  0  0  0  0  0  0  0
  -28.3011  -16.0133   27.5520 O   0  0  0  0  0  0  0  0  0  0  0  0
  -26.7782  -14.5368   26.2875 C   0  0  0  0  0  0  0  0  0  0  0  0
  -25.7746  -15.1327   25.9505 O   0  0  0  0  0  0  0  0  0  0  0  0
  -26.7199  -12.8179   26.6953 S   0  0  0  0  0  0  0  0  0  0  0  0
  -26.4147  -12.9338   28.4818 C   0  0  0  0  0  0  0  0  0  0  0  0
  -24.9189  -13.1228   28.7460 C   0  0  0  0  0  0  0  0  0  0  0  0
  -24.3368  -11.8675   29.1830 N   0  0  0  0  0  0  0  0  0  0  0  0
  -23.1819  -11.8223   29.8565 C   0  0  0  0  0  0  0  0  0  0  0  0
  -22.5754  -12.8455   30.2399 O   0  0  0  0  0  0  0  0  0  0  0  0
  -22.5903  -10.4520   30.0895 C   0  0  0  0  0  0  0  0  0  0  0  0
  -22.1945   -9.8478   28.7339 C   0  0  0  0  0  0  0  0  0  0  0  0
  -20.7654   -9.5859   28.6228 N   0  0  0  0  0  0  0  0  0  0  0  0
  -19.8563  -10.5075   28.3920 C   0  0  0  0  0  0  0  0  0  0  0  0
  -20.1255  -11.6009   27.8838 O   0  0  0  0  0  0  0  0  0  0  0  0
  -18.4000  -10.0907   28.6463 C   0  0  2  0  0  0  0  0  0  0  0  0
  -18.3530   -8.8145   29.3009 O   0  0  0  0  0  0  0  0  0  0  0  0
  -17.4886   -9.9229   27.4051 C   0  0  2  0  0  0  0  0  0  0  0  0
  -18.3438   -9.5908   26.1825 C   0  0  0  0  0  0  0  0  0  0  0  0
  -16.6866  -11.2012   27.1458 C   0  0  0  0  0  0  0  0  0  0  0  0
  -16.4974   -8.7901   27.6278 C   0  0  0  0  0  0  0  0  0  0  0  0
  -16.4932   -7.8979   26.4559 O   0  0  0  0  0  0  0  0  0  0  0  0
  -15.1519   -7.0427   26.2143 P   0  0  2  0  0  0  0  0  0  0  0  0
  -15.6802   -5.7868   25.5750 O   0  0  0  0  0  0  0  0  0  0  0  0
  -14.0960   -7.8616   25.5473 O   0  0  0  0  0  0  0  0  0  0  0  0
  -14.7623   -6.8828   27.7565 O   0  0  0  0  0  0  0  0  0  0  0  0
  -13.4200   -6.7143   28.6161 P   0  0  2  0  0  0  0  0  0  0  0  0
  -12.7322   -5.6574   27.8151 O   0  0  0  0  0  0  0  0  0  0  0  0
  -12.8537   -8.0303   28.9431 O   0  0  0  0  0  0  0  0  0  0  0  0
  -14.0448   -6.0523   29.9492 O   0  0  0  0  0  0  0  0  0  0  0  0
  -13.2305   -5.4729   30.9876 C   0  0  0  0  0  0  0  0  0  0  0  0
  -14.0688   -5.0690   32.1963 C   0  0  1  0  0  0  0  0  0  0  0  0
  -14.3011   -6.1893   33.1038 O   0  0  0  0  0  0  0  0  0  0  0  0
  -13.5057   -3.9703   33.1027 C   0  0  1  0  0  0  0  0  0  0  0  0
  -14.6213   -3.2603   33.5781 O   0  0  0  0  0  0  0  0  0  0  0  0
  -14.6910   -1.6874   33.3259 P   0  0  1  0  0  0  0  0  0  0  0  0
  -15.4117   -1.4133   32.1034 O   0  0  0  0  0  0  0  0  0  0  0  0
  -15.5099   -1.4351   34.5526 O   0  0  0  0  0  0  0  0  0  0  0  0
  -13.2113   -1.1068   33.3658 O   0  0  0  0  0  0  0  0  0  0  0  0
  -12.8040   -4.7659   34.2051 C   0  0  1  0  0  0  0  0  0  0  0  0
  -12.4988   -3.9776   35.3355 O   0  0  0  0  0  0  0  0  0  0  0  0
  -13.8358   -5.8811   34.3970 C   0  0  2  0  0  0  0  0  0  0  0  0
  -13.3366   -7.1144   34.9976 N   0  0  0  0  0  0  0  0  0  0  0  0
  -12.5364   -8.0879   34.4458 C   0  0  0  0  0  0  0  0  0  0  0  0
  -12.2581   -9.0686   35.2704 N   0  0  0  0  0  0  0  0  0  0  0  0
  -12.9514   -8.7481   36.4292 C   0  0  0  0  0  0  0  0  0  0  0  0
  -13.6172   -7.5517   36.2819 C   0  0  0  0  0  0  0  0  0  0  0  0
  -14.3869   -6.9529   37.2051 N   0  0  0  0  0  0  0  0  0  0  0  0
  -14.4101   -7.6502   38.3443 C   0  0  0  0  0  0  0  0  0  0  0  0
  -13.8051   -8.8130   38.6360 N   0  0  0  0  0  0  0  0  0  0  0  0
  -13.0607   -9.4044   37.6804 C   0  0  0  0  0  0  0  0  0  0  0  0
  -12.4583  -10.5533   37.9440 N   0  0  0  0  0  0  0  0  0  0  0  0
  -28.5589  -17.1470   25.5680 H   0  0  0  0  0  0  0  0  0  0  0  0
  -29.2205  -15.7971   24.5848 H   0  0  0  0  0  0  0  0  0  0  0  0
  -27.4547  -16.1267   24.5848 H   0  0  0  0  0  0  0  0  0  0  0  0
  -29.5471  -13.8653   27.4411 H   0  0  0  0  0  0  0  0  0  0  0  0
  -28.9379  -13.2048   25.8856 H   0  0  0  0  0  0  0  0  0  0  0  0
  -30.1919  -14.4910   25.8856 H   0  0  0  0  0  0  0  0  0  0  0  0
  -28.2270  -15.4472   28.3608 H   0  0  0  0  0  0  0  0  0  0  0  0
  -26.7570  -12.0097   28.9705 H   0  0  0  0  0  0  0  0  0  0  0  0
  -26.9647  -13.7959   28.8870 H   0  0  0  0  0  0  0  0  0  0  0  0
  -24.7791  -13.8828   29.5289 H   0  0  0  0  0  0  0  0  0  0  0  0
  -24.4241  -13.4509   27.8200 H   0  0  0  0  0  0  0  0  0  0  0  0
  -24.8263  -10.9870   28.9686 H   0  0  0  0  0  0  0  0  0  0  0  0
  -23.3341   -9.8064   30.5792 H   0  0  0  0  0  0  0  0  0  0  0  0
  -21.7042  -10.5321   30.7363 H   0  0  0  0  0  0  0  0  0  0  0  0
  -22.4850  -10.5503   27.9388 H   0  0  0  0  0  0  0  0  0  0  0  0
  -22.7142   -8.8830   28.6394 H   0  0  0  0  0  0  0  0  0  0  0  0
  -20.4457   -8.6130   28.7326 H   0  0  0  0  0  0  0  0  0  0  0  0
  -18.0198  -10.9351   29.2400 H   0  0  0  0  0  0  0  0  0  0  0  0
  -18.3579   -8.9465   30.2820 H   0  0  0  0  0  0  0  0  0  0  0  0
  -19.3222   -9.2108   26.5117 H   0  0  0  0  0  0  0  0  0  0  0  0
  -17.8372   -8.8240   25.5780 H   0  0  0  0  0  0  0  0  0  0  0  0
  -18.4874  -10.4985   25.5780 H   0  0  0  0  0  0  0  0  0  0  0  0
  -16.4012  -11.6561   28.1058 H   0  0  0  0  0  0  0  0  0  0  0  0
  -17.3020  -11.9103   26.5727 H   0  0  0  0  0  0  0  0  0  0  0  0
  -15.7804  -10.9557   26.5727 H   0  0  0  0  0  0  0  0  0  0  0  0
  -16.7893   -8.2190   28.5214 H   0  0  0  0  0  0  0  0  0  0  0  0
  -15.4905   -9.2093   27.7707 H   0  0  0  0  0  0  0  0  0  0  0  0
  -12.4781   -6.2100   31.3047 H   0  0  0  0  0  0  0  0  0  0  0  0
  -12.7487   -4.5699   30.5846 H   0  0  0  0  0  0  0  0  0  0  0  0
  -14.9730   -4.6939   31.6945 H   0  0  0  0  0  0  0  0  0  0  0  0
  -12.8136   -3.2495   32.6428 H   0  0  0  0  0  0  0  0  0  0  0  0
  -11.7984   -5.1503   33.9794 H   0  0  0  0  0  0  0  0  0  0  0  0
  -12.6974   -4.4905   36.1587 H   0  0  0  0  0  0  0  0  0  0  0  0
  -14.5967   -5.5086   35.0987 H   0  0  0  0  0  0  0  0  0  0  0  0
  -12.1654   -8.0474   33.4110 H   0  0  0  0  0  0  0  0  0  0  0  0
  -15.0080   -7.2108   39.1563 H   0  0  0  0  0  0  0  0  0  0  0  0
  -12.5681  -10.9919   38.8694 H   0  0  0  0  0  0  0  0  0  0  0  0
  -11.8799  -11.0087   37.2235 H   0  0  0  0  0  0  0  0  0  0  0  0
  2  1  1  0
  2  3  1  0
  2  4  1  1
  2  5  1  0
  5  6  2  0
  5  7  1  0
  7  8  1  0
  8  9  1  0
  9 10  1  0
 10 11  1  0
 11 12  2  0
 11 13  1  0
 13 14  1  0
 14 15  1  0
 15 16  1  0
 16 17  2  0
 16 18  1  0
 18 19  1  0
 18 20  1  0
 20 21  1  6
 20 22  1  0
 20 23  1  0
 23 24  1  0
 24 25  1  0
 25 26  1  6
 25 27  2  0
 25 28  1  0
 28 29  1  0
 29 30  2  0
 29 31  1  1
 29 32  1  0
 32 33  1  0
 34 33  1  0
 34 35  1  0
 34 36  1  0
 35 44  1  0
 36 37  1  0
 36 42  1  0
 37 38  1  0
 38 39  2  0
 38 40  1  1
 38 41  1  0
 42 43  1  0
 42 44  1  0
 44 45  1  0
 45 46  1  0
 45 49  1  0
 46 47  2  0
 47 48  1  0
 48 49  2  0
 48 53  1  0
 49 50  1  0
 50 51  2  0
 51 52  1  0
 52 53  2  0
 53 54  1  0
  1 55  1  0
  1 56  1  0
  1 57  1  0
  3 58  1  0
  3 59  1  0
  3 60  1  0
  4 61  1  0
  8 62  1  0
  8 63  1  0
  9 64  1  0
  9 65  1  0
 10 66  1  0
 13 67  1  0
 13 68  1  0
 14 69  1  0
 14 70  1  0
 15 71  1  0
 18 72  1  1
 19 73  1  0
 21 74  1  0
 21 75  1  0
 21 76  1  0
 22 77  1  0
 22 78  1  0
 22 79  1  0
 23 80  1  0
 23 81  1  0
 33 82  1  0
 33 83  1  0
 34 84  1  6
 36 85  1  6
 42 86  1  6
 43 87  1  0
 44 88  1  1
 46 89  1  0
 51 90  1  0
 54 91  1  0
 54 92  1  0
M  CHG  4  26  -1  31  -1  40  -1  41  -1
M  END
>  <filename_input>  (8) 
7PT3_3KK_docked.sdf

>  <pdb_id>  (8) 
7PT3_3KK

>  <pose_rank>  (8) 
7

>  <num_atoms_heavy>  (8) 
54

>  <num_torsions>  (8) 
21

>  <pose>  (8) 
[-15.15186434570366, -7.042726851688071, 26.214283510527704, 0.2522726460499259, -3.4554653606628567, 1.3774888878197344, 2.5370314631289115, 0.7815690220632308, -3.368370817245134, -0.7085773202256641, 0.0015747716550789052, 0.07656516279857371, 1.1673182611657458, 0.8952408004230605, -2.2113291202843874, 2.9761644337875017, -2.457465070844547, -1.4707408274149023, 1.0709009252555484, -2.1515064133584336, 3.974369649957015, 1.5071555176544251, 0.26478147570574145, -3.6984813549604176, -0.641309614451525, 0.36656264163240165, 0.6319277130949222]

>  <energy>  (8) 
-506.934357289927

>  <inter_energy>  (8) 
-511.82849373466524

>  <intra_energy>  (8) 
8.75369259603839

>  <rmsd>  (8) 
15.9518

>  <sdf_rank>  (8) 
0

$$$$

     RDKit          3D

 92 94  0  0  0  0  0  0  0  0999 V2000
  -36.4130    3.3185   22.4955 C   0  0  0  0  0  0  0  0  0  0  0  0
  -37.4136    3.1858   23.6302 C   0  0  1  0  0  0  0  0  0  0  0  0
  -38.0734    4.5406   23.9557 C   0  0  0  0  0  0  0  0  0  0  0  0
  -38.4176    2.2635   23.1542 O   0  0  0  0  0  0  0  0  0  0  0  0
  -36.6817    2.6040   24.8773 C   0  0  0  0  0  0  0  0  0  0  0  0
  -36.8191    1.4656   25.2783 O   0  0  0  0  0  0  0  0  0  0  0  0
  -35.5808    3.7254   25.6865 S   0  0  0  0  0  0  0  0  0  0  0  0
  -34.2029    2.5992   26.0488 C   0  0  0  0  0  0  0  0  0  0  0  0
  -32.9746    2.9928   25.2245 C   0  0  0  0  0  0  0  0  0  0  0  0
  -31.7720    2.5112   25.8780 N   0  0  0  0  0  0  0  0  0  0  0  0
  -31.1402    1.4060   25.4669 C   0  0  0  0  0  0  0  0  0  0  0  0
  -31.5838    0.6621   24.5660 O   0  0  0  0  0  0  0  0  0  0  0  0
  -29.8031    1.1160   26.1070 C   0  0  0  0  0  0  0  0  0  0  0  0
  -29.9128   -0.1882   26.9111 C   0  0  0  0  0  0  0  0  0  0  0  0
  -29.9381    0.0315   28.3514 N   0  0  0  0  0  0  0  0  0  0  0  0
  -31.0288    0.0229   29.0858 C   0  0  0  0  0  0  0  0  0  0  0  0
  -32.0749   -0.5261   28.7243 O   0  0  0  0  0  0  0  0  0  0  0  0
  -30.8884    0.6033   30.5010 C   0  0  2  0  0  0  0  0  0  0  0  0
  -29.6515    1.3201   30.6261 O   0  0  0  0  0  0  0  0  0  0  0  0
  -30.8723   -0.4046   31.6770 C   0  0  2  0  0  0  0  0  0  0  0  0
  -31.2747    0.3079   32.9681 C   0  0  0  0  0  0  0  0  0  0  0  0
  -29.4820   -1.0256   31.8386 C   0  0  0  0  0  0  0  0  0  0  0  0
  -31.8580   -1.5342   31.4171 C   0  0  0  0  0  0  0  0  0  0  0  0
  -31.1651   -2.8299   31.5208 O   0  0  0  0  0  0  0  0  0  0  0  0
  -31.2618   -3.7959   30.2376 P   0  0  2  0  0  0  0  0  0  0  0  0
  -30.0250   -3.4284   29.4626 O   0  0  0  0  0  0  0  0  0  0  0  0
  -32.6141   -3.7311   29.6071 O   0  0  0  0  0  0  0  0  0  0  0  0
  -31.1497   -5.1727   31.0422 O   0  0  0  0  0  0  0  0  0  0  0  0
  -30.2229   -6.4800   31.0072 P   0  0  2  0  0  0  0  0  0  0  0  0
  -30.1348   -6.6937   29.5312 O   0  0  0  0  0  0  0  0  0  0  0  0
  -30.7027   -7.4732   31.9781 O   0  0  0  0  0  0  0  0  0  0  0  0
  -28.8412   -5.8351   31.5369 O   0  0  0  0  0  0  0  0  0  0  0  0
  -27.7053   -6.6336   31.9231 C   0  0  0  0  0  0  0  0  0  0  0  0
  -26.4021   -5.8509   31.7966 C   0  0  1  0  0  0  0  0  0  0  0  0
  -26.5570   -4.4558   32.1993 O   0  0  0  0  0  0  0  0  0  0  0  0
  -25.2080   -6.3426   32.6202 C   0  0  1  0  0  0  0  0  0  0  0  0
  -24.0703   -6.0670   31.8428 O   0  0  0  0  0  0  0  0  0  0  0  0
  -22.7986   -7.0184   31.9841 P   0  0  1  0  0  0  0  0  0  0  0  0
  -21.7446   -6.3337   32.6976 O   0  0  0  0  0  0  0  0  0  0  0  0
  -23.5242   -8.0140   32.8335 O   0  0  0  0  0  0  0  0  0  0  0  0
  -22.3917   -7.5307   30.5348 O   0  0  0  0  0  0  0  0  0  0  0  0
  -25.2825   -5.4748   33.8780 C   0  0  1  0  0  0  0  0  0  0  0  0
  -24.0918   -5.5096   34.6350 O   0  0  0  0  0  0  0  0  0  0  0  0
  -25.6527   -4.1370   33.2311 C   0  0  2  0  0  0  0  0  0  0  0  0
  -26.2988   -3.1634   34.1061 N   0  0  0  0  0  0  0  0  0  0  0  0
  -27.3870   -3.3249   34.9322 C   0  0  0  0  0  0  0  0  0  0  0  0
  -27.7045   -2.2421   35.5999 N   0  0  0  0  0  0  0  0  0  0  0  0
  -26.7971   -1.2894   35.1582 C   0  0  0  0  0  0  0  0  0  0  0  0
  -25.9252   -1.8364   34.2432 C   0  0  0  0  0  0  0  0  0  0  0  0
  -24.9284   -1.1931   33.6141 N   0  0  0  0  0  0  0  0  0  0  0  0
  -24.8428    0.0787   34.0137 C   0  0  0  0  0  0  0  0  0  0  0  0
  -25.6059    0.7396   34.8992 N   0  0  0  0  0  0  0  0  0  0  0  0
  -26.6161    0.0751   35.4951 C   0  0  0  0  0  0  0  0  0  0  0  0
  -27.3842    0.7073   36.3683 N   0  0  0  0  0  0  0  0  0  0  0  0
  -35.4033    3.4524   22.9108 H   0  0  0  0  0  0  0  0  0  0  0  0
  -36.4375    2.4093   21.8769 H   0  0  0  0  0  0  0  0  0  0  0  0
  -36.6736    4.1900   21.8769 H   0  0  0  0  0  0  0  0  0  0  0  0
  -38.1345    4.6659   25.0468 H   0  0  0  0  0  0  0  0  0  0  0  0
  -37.4709    5.3545   23.5262 H   0  0  0  0  0  0  0  0  0  0  0  0
  -39.0858    4.5679   23.5262 H   0  0  0  0  0  0  0  0  0  0  0  0
  -38.8736    1.8447   23.9267 H   0  0  0  0  0  0  0  0  0  0  0  0
  -33.9569    2.6571   27.1194 H   0  0  0  0  0  0  0  0  0  0  0  0
  -34.4982    1.5720   25.7889 H   0  0  0  0  0  0  0  0  0  0  0  0
  -33.0493    2.5471   24.2216 H   0  0  0  0  0  0  0  0  0  0  0  0
  -32.9290    4.0886   25.1394 H   0  0  0  0  0  0  0  0  0  0  0  0
  -31.3943    3.0347   26.6807 H   0  0  0  0  0  0  0  0  0  0  0  0
  -29.0355    1.0060   25.3268 H   0  0  0  0  0  0  0  0  0  0  0  0
  -29.5200    1.9439   26.7738 H   0  0  0  0  0  0  0  0  0  0  0  0
  -30.8396   -0.7033   26.6187 H   0  0  0  0  0  0  0  0  0  0  0  0
  -29.0199   -0.7898   26.6856 H   0  0  0  0  0  0  0  0  0  0  0  0
  -29.0408    0.2053   28.8263 H   0  0  0  0  0  0  0  0  0  0  0  0
  -31.7962    1.2183   30.5881 H   0  0  0  0  0  0  0  0  0  0  0  0
  -29.4374    1.4441   31.5846 H   0  0  0  0  0  0  0  0  0  0  0  0
  -30.9404   -0.2839   33.8330 H   0  0  0  0  0  0  0  0  0  0  0  0
  -30.8045    1.3018   33.0002 H   0  0  0  0  0  0  0  0  0  0  0  0
  -32.3686    0.4186   33.0002 H   0  0  0  0  0  0  0  0  0  0  0  0
  -29.2489   -1.1297   32.9085 H   0  0  0  0  0  0  0  0  0  0  0  0
  -29.4654   -2.0167   31.3616 H   0  0  0  0  0  0  0  0  0  0  0  0
  -28.7328   -0.3766   31.3616 H   0  0  0  0  0  0  0  0  0  0  0  0
  -32.6674   -1.4917   32.1607 H   0  0  0  0  0  0  0  0  0  0  0  0
  -32.2791   -1.4256   30.4068 H   0  0  0  0  0  0  0  0  0  0  0  0
  -27.8310   -6.9519   32.9685 H   0  0  0  0  0  0  0  0  0  0  0  0
  -27.6515   -7.5039   31.2524 H   0  0  0  0  0  0  0  0  0  0  0  0
  -26.1865   -5.9955   30.7277 H   0  0  0  0  0  0  0  0  0  0  0  0
  -25.1895   -7.4101   32.8849 H   0  0  0  0  0  0  0  0  0  0  0  0
  -25.9968   -5.7840   34.6554 H   0  0  0  0  0  0  0  0  0  0  0  0
  -24.3138   -5.5031   35.5998 H   0  0  0  0  0  0  0  0  0  0  0  0
  -24.7168   -3.6564   32.9099 H   0  0  0  0  0  0  0  0  0  0  0  0
  -27.9382   -4.2724   35.0238 H   0  0  0  0  0  0  0  0  0  0  0  0
  -24.0349    0.6663   33.5534 H   0  0  0  0  0  0  0  0  0  0  0  0
  -27.2130    1.7006   36.5803 H   0  0  0  0  0  0  0  0  0  0  0  0
  -28.1530    0.2060   36.8357 H   0  0  0  0  0  0  0  0  0  0  0  0
  2  1  1  0
  2  3  1  0
  2  4  1  6
  2  5  1  0
  5  6  2  0
  5  7  1  0
  7  8  1  0
  8  9  1  0
  9 10  1  0
 10 11  1  0
 11 12  2  0
 11 13  1  0
 13 14  1  0
 14 15  1  0
 15 16  1  0
 16 17  2  0
 16 18  1  0
 18 19  1  0
 18 20  1  0
 20 21  1  1
 20 22  1  0
 20 23  1  0
 23 24  1  0
 24 25  1  0
 25 26  1  6
 25 27  2  0
 25 28  1  0
 28 29  1  0
 29 30  2  0
 29 31  1  1
 29 32  1  0
 32 33  1  0
 34 33  1  0
 34 35  1  0
 34 36  1  0
 35 44  1  0
 36 37  1  0
 36 42  1  0
 37 38  1  0
 38 39  2  0
 38 40  1  1
 38 41  1  0
 42 43  1  0
 42 44  1  0
 44 45  1  0
 45 46  1  0
 45 49  1  0
 46 47  2  0
 47 48  1  0
 48 49  2  0
 48 53  1  0
 49 50  1  0
 50 51  2  0
 51 52  1  0
 52 53  2  0
 53 54  1  0
  1 55  1  0
  1 56  1  0
  1 57  1  0
  3 58  1  0
  3 59  1  0
  3 60  1  0
  4 61  1  0
  8 62  1  0
  8 63  1  0
  9 64  1  0
  9 65  1  0
 10 66  1  0
 13 67  1  0
 13 68  1  0
 14 69  1  0
 14 70  1  0
 15 71  1  0
 18 72  1  1
 19 73  1  0
 21 74  1  0
 21 75  1  0
 21 76  1  0
 22 77  1  0
 22 78  1  0
 22 79  1  0
 23 80  1  0
 23 81  1  0
 33 82  1  0
 33 83  1  0
 34 84  1  6
 36 85  1  1
 42 86  1  1
 43 87  1  0
 44 88  1  6
 46 89  1  0
 51 90  1  0
 54 91  1  0
 54 92  1  0
M  CHG  4  26  -1  31  -1  40  -1  41  -1
M  END
>  <filename_input>  (9) 
7PT3_3KK_docked.sdf

>  <pdb_id>  (9) 
7PT3_3KK

>  <pose_rank>  (9) 
8

>  <num_atoms_heavy>  (9) 
54

>  <num_torsions>  (9) 
21

>  <pose>  (9) 
[-31.261822704117538, -3.795918602243306, 30.237607570818454, -1.450925332607411, -1.4679430667391669, 0.6378184481798201, 0.4644970169313877, 1.3305344925498994, 1.1231201012315073, 2.3696347933405253, 0.06957564662345478, 0.4741071325833369, 1.3671366955591269, -2.232096374906493, 3.0553912126444187, -2.37236517017564, -1.9453192303981133, 0.813906739552771, -0.09680865074451868, -0.6887951923271062, 2.4207769412174187, 1.1186709229051484, -0.2814611527161689, 1.7836821343591514, -0.2519232607910927, -0.0922888563513857, -2.8624533031087744]

>  <energy>  (9) 
-499.53023416721106

>  <inter_energy>  (9) 
-537.0589222243535

>  <intra_energy>  (9) 
35.20015960309632

>  <rmsd>  (9) 
13.8133

>  <sdf_rank>  (9) 
0

$$$$

     RDKit          3D

 92 94  0  0  0  0  0  0  0  0999 V2000
  -25.4413    2.2358   42.1428 C   0  0  0  0  0  0  0  0  0  0  0  0
  -24.4528    2.0813   41.0004 C   0  0  1  0  0  0  0  0  0  0  0  0
  -25.1225    1.4532   39.7620 C   0  0  0  0  0  0  0  0  0  0  0  0
  -24.0157    3.4207   40.6836 O   0  0  0  0  0  0  0  0  0  0  0  0
  -23.2535    1.2145   41.4901 C   0  0  0  0  0  0  0  0  0  0  0  0
  -22.7520    1.3063   42.5927 O   0  0  0  0  0  0  0  0  0  0  0  0
  -22.6620    0.0300   40.3190 S   0  0  0  0  0  0  0  0  0  0  0  0
  -21.9711   -1.2085   41.4534 C   0  0  0  0  0  0  0  0  0  0  0  0
  -23.0645   -2.1874   41.8885 C   0  0  0  0  0  0  0  0  0  0  0  0
  -24.0879   -2.2654   40.8628 N   0  0  0  0  0  0  0  0  0  0  0  0
  -24.7381   -3.4046   40.6004 C   0  0  0  0  0  0  0  0  0  0  0  0
  -24.4512   -4.4939   41.1416 O   0  0  0  0  0  0  0  0  0  0  0  0
  -25.9045   -3.3107   39.6451 C   0  0  0  0  0  0  0  0  0  0  0  0
  -25.9012   -4.5502   38.7380 C   0  0  0  0  0  0  0  0  0  0  0  0
  -26.0668   -4.2239   37.3276 N   0  0  0  0  0  0  0  0  0  0  0  0
  -27.1998   -4.3277   36.6683 C   0  0  0  0  0  0  0  0  0  0  0  0
  -28.3007   -4.3487   37.2285 O   0  0  0  0  0  0  0  0  0  0  0  0
  -27.0925   -4.2646   35.1373 C   0  0  2  0  0  0  0  0  0  0  0  0
  -25.7929   -4.6977   34.7097 O   0  0  0  0  0  0  0  0  0  0  0  0
  -27.2751   -2.8762   34.4753 C   0  0  2  0  0  0  0  0  0  0  0  0
  -25.9307   -2.3825   33.9411 C   0  0  0  0  0  0  0  0  0  0  0  0
  -27.8364   -1.8669   35.4807 C   0  0  0  0  0  0  0  0  0  0  0  0
  -28.2550   -2.9698   33.3151 C   0  0  0  0  0  0  0  0  0  0  0  0
  -27.5146   -3.1500   32.0546 O   0  0  0  0  0  0  0  0  0  0  0  0
  -27.9269   -4.4222   31.1599 P   0  0  2  0  0  0  0  0  0  0  0  0
  -27.4306   -4.0311   29.7939 O   0  0  0  0  0  0  0  0  0  0  0  0
  -29.3534   -4.8051   31.3812 O   0  0  0  0  0  0  0  0  0  0  0  0
  -27.0004   -5.4814   31.9186 O   0  0  0  0  0  0  0  0  0  0  0  0
  -26.9300   -7.0745   32.0807 P   0  0  2  0  0  0  0  0  0  0  0  0
  -27.1539   -7.4877   30.6626 O   0  0  0  0  0  0  0  0  0  0  0  0
  -27.7419   -7.5083   33.2261 O   0  0  0  0  0  0  0  0  0  0  0  0
  -25.3645   -7.2314   32.4419 O   0  0  0  0  0  0  0  0  0  0  0  0
  -24.5359   -8.2707   31.8848 C   0  0  0  0  0  0  0  0  0  0  0  0
  -23.0704   -8.0812   32.2635 C   0  0  1  0  0  0  0  0  0  0  0  0
  -22.2060   -9.0737   31.6309 O   0  0  0  0  0  0  0  0  0  0  0  0
  -22.4217   -6.7419   31.9011 C   0  0  1  0  0  0  0  0  0  0  0  0
  -21.4938   -6.4796   32.9233 O   0  0  0  0  0  0  0  0  0  0  0  0
  -21.7948   -5.2915   33.9431 P   0  0  1  0  0  0  0  0  0  0  0  0
  -20.5583   -4.7910   34.4994 O   0  0  0  0  0  0  0  0  0  0  0  0
  -22.3572   -4.4004   32.8807 O   0  0  0  0  0  0  0  0  0  0  0  0
  -22.8433   -5.8089   35.0208 O   0  0  0  0  0  0  0  0  0  0  0  0
  -21.7479   -7.0425   30.5609 C   0  0  1  0  0  0  0  0  0  0  0  0
  -20.8049   -6.0590   30.1927 O   0  0  0  0  0  0  0  0  0  0  0  0
  -21.2052   -8.4412   30.8678 C   0  0  2  0  0  0  0  0  0  0  0  0
  -20.9269   -9.2850   29.7094 N   0  0  0  0  0  0  0  0  0  0  0  0
  -21.8070   -9.8671   28.8268 C   0  0  0  0  0  0  0  0  0  0  0  0
  -21.2204  -10.5583   27.8795 N   0  0  0  0  0  0  0  0  0  0  0  0
  -19.8677  -10.4649   28.1756 C   0  0  0  0  0  0  0  0  0  0  0  0
  -19.6677   -9.6859   29.2934 C   0  0  0  0  0  0  0  0  0  0  0  0
  -18.4839   -9.3953   29.8568 N   0  0  0  0  0  0  0  0  0  0  0  0
  -17.4734   -9.9329   29.1680 C   0  0  0  0  0  0  0  0  0  0  0  0
  -17.5146  -10.6949   28.0632 N   0  0  0  0  0  0  0  0  0  0  0  0
  -18.7188  -10.9925   27.5355 C   0  0  0  0  0  0  0  0  0  0  0  0
  -18.7841  -11.7457   26.4489 N   0  0  0  0  0  0  0  0  0  0  0  0
  -24.9091    2.1526   43.1019 H   0  0  0  0  0  0  0  0  0  0  0  0
  -25.9266    3.2207   42.0770 H   0  0  0  0  0  0  0  0  0  0  0  0
  -26.2041    1.4460   42.0770 H   0  0  0  0  0  0  0  0  0  0  0  0
  -25.8894    0.7339   40.0852 H   0  0  0  0  0  0  0  0  0  0  0  0
  -25.5924    2.2438   39.1586 H   0  0  0  0  0  0  0  0  0  0  0  0
  -24.3636    0.9336   39.1586 H   0  0  0  0  0  0  0  0  0  0  0  0
  -23.8523    3.9214   41.5219 H   0  0  0  0  0  0  0  0  0  0  0  0
  -21.1686   -1.7619   40.9437 H   0  0  0  0  0  0  0  0  0  0  0  0
  -21.5677   -0.6997   42.3413 H   0  0  0  0  0  0  0  0  0  0  0  0
  -22.6237   -3.1835   42.0416 H   0  0  0  0  0  0  0  0  0  0  0  0
  -23.5162   -1.8350   42.8275 H   0  0  0  0  0  0  0  0  0  0  0  0
  -24.3200   -1.4202   40.3217 H   0  0  0  0  0  0  0  0  0  0  0  0
  -26.8456   -3.2706   40.2132 H   0  0  0  0  0  0  0  0  0  0  0  0
  -25.8156   -2.4000   39.0345 H   0  0  0  0  0  0  0  0  0  0  0  0
  -24.9435   -5.0758   38.8661 H   0  0  0  0  0  0  0  0  0  0  0  0
  -26.7560   -5.1764   39.0334 H   0  0  0  0  0  0  0  0  0  0  0  0
  -25.2403   -3.8891   36.8120 H   0  0  0  0  0  0  0  0  0  0  0  0
  -27.9271   -4.9080   34.8219 H   0  0  0  0  0  0  0  0  0  0  0  0
  -25.2302   -4.8852   35.5024 H   0  0  0  0  0  0  0  0  0  0  0  0
  -25.2680   -2.1391   34.7846 H   0  0  0  0  0  0  0  0  0  0  0  0
  -25.4687   -3.1696   33.3271 H   0  0  0  0  0  0  0  0  0  0  0  0
  -26.0880   -1.4835   33.3271 H   0  0  0  0  0  0  0  0  0  0  0  0
  -27.6398   -2.2203   36.5037 H   0  0  0  0  0  0  0  0  0  0  0  0
  -27.3513   -0.8911   35.3304 H   0  0  0  0  0  0  0  0  0  0  0  0
  -28.9212   -1.7641   35.3304 H   0  0  0  0  0  0  0  0  0  0  0  0
  -28.9259   -3.8275   33.4712 H   0  0  0  0  0  0  0  0  0  0  0  0
  -28.8464   -2.0439   33.2616 H   0  0  0  0  0  0  0  0  0  0  0  0
  -24.8801   -9.2440   32.2644 H   0  0  0  0  0  0  0  0  0  0  0  0
  -24.6175   -8.2264   30.7888 H   0  0  0  0  0  0  0  0  0  0  0  0
  -23.1357   -8.1653   33.3584 H   0  0  0  0  0  0  0  0  0  0  0  0
  -23.0884   -5.8713   31.8145 H   0  0  0  0  0  0  0  0  0  0  0  0
  -22.3868   -7.0206   29.6657 H   0  0  0  0  0  0  0  0  0  0  0  0
  -20.4159   -5.6533   31.0077 H   0  0  0  0  0  0  0  0  0  0  0  0
  -20.2346   -8.3151   31.3698 H   0  0  0  0  0  0  0  0  0  0  0  0
  -22.8990   -9.7627   28.9081 H   0  0  0  0  0  0  0  0  0  0  0  0
  -16.4677   -9.7220   29.5606 H   0  0  0  0  0  0  0  0  0  0  0  0
  -17.9200  -12.1062   26.0195 H   0  0  0  0  0  0  0  0  0  0  0  0
  -19.6989  -11.9712   26.0328 H   0  0  0  0  0  0  0  0  0  0  0  0
  2  1  1  0
  2  3  1  0
  2  4  1  6
  2  5  1  0
  5  6  2  0
  5  7  1  0
  7  8  1  0
  8  9  1  0
  9 10  1  0
 10 11  1  0
 11 12  2  0
 11 13  1  0
 13 14  1  0
 14 15  1  0
 15 16  1  0
 16 17  2  0
 16 18  1  0
 18 19  1  0
 18 20  1  0
 20 21  1  6
 20 22  1  0
 20 23  1  0
 23 24  1  0
 24 25  1  0
 25 26  1  6
 25 27  2  0
 25 28  1  0
 28 29  1  0
 29 30  2  0
 29 31  1  1
 29 32  1  0
 32 33  1  0
 34 33  1  0
 34 35  1  0
 34 36  1  0
 35 44  1  0
 36 37  1  0
 36 42  1  0
 37 38  1  0
 38 39  2  0
 38 40  1  6
 38 41  1  0
 42 43  1  0
 42 44  1  0
 44 45  1  0
 45 46  1  0
 45 49  1  0
 46 47  2  0
 47 48  1  0
 48 49  2  0
 48 53  1  0
 49 50  1  0
 50 51  2  0
 51 52  1  0
 52 53  2  0
 53 54  1  0
  1 55  1  0
  1 56  1  0
  1 57  1  0
  3 58  1  0
  3 59  1  0
  3 60  1  0
  4 61  1  0
  8 62  1  0
  8 63  1  0
  9 64  1  0
  9 65  1  0
 10 66  1  0
 13 67  1  0
 13 68  1  0
 14 69  1  0
 14 70  1  0
 15 71  1  0
 18 72  1  6
 19 73  1  0
 21 74  1  0
 21 75  1  0
 21 76  1  0
 22 77  1  0
 22 78  1  0
 22 79  1  0
 23 80  1  0
 23 81  1  0
 33 82  1  0
 33 83  1  0
 34 84  1  1
 36 85  1  6
 42 86  1  6
 43 87  1  0
 44 88  1  1
 46 89  1  0
 51 90  1  0
 54 91  1  0
 54 92  1  0
M  CHG  4  26  -1  31  -1  40  -1  41  -1
M  END
>  <filename_input>  (10) 
7PT3_3KK_docked.sdf

>  <pdb_id>  (10) 
7PT3_3KK

>  <pose_rank>  (10) 
9

>  <num_atoms_heavy>  (10) 
54

>  <num_torsions>  (10) 
21

>  <pose>  (10) 
[-27.92690712336171, -4.422230105695888, 31.159908013539845, -1.0867710131399464, -1.1779376248795541, 1.2872957594292116, 1.6173146592677878, -0.6009523730518577, -2.7306542123568778, 0.7426954356682286, 0.29113179477055495, -3.0294728784736695, 0.9160965246268311, -1.7850532434394693, -2.4553539062012106, 1.6558117555632477, -2.4040054630932866, 0.5708318166705186, 1.0666648419727698, -1.9913149436100452, 3.9330933808844093, 2.048694534816202, 0.02979170205497156, -1.9557645595605329, -0.5777975865492176, 0.6030118020151144, 2.5946074411278386]

>  <energy>  (10) 
-507.9507125516933

>  <inter_energy>  (10) 
-520.7219735149956

>  <intra_energy>  (10) 
14.701811569377229

>  <rmsd>  (10) 
13.1384

>  <sdf_rank>  (10) 
0

$$$$

     RDKit          3D

 92 94  0  0  0  0  0  0  0  0999 V2000
  -26.6393  -13.1269   26.8887 C   0  0  0  0  0  0  0  0  0  0  0  0
  -27.1176  -13.3534   25.4653 C   0  0  1  0  0  0  0  0  0  0  0  0
  -26.1915  -14.3291   24.7123 C   0  0  0  0  0  0  0  0  0  0  0  0
  -28.4331  -13.9363   25.5878 O   0  0  0  0  0  0  0  0  0  0  0  0
  -27.1933  -11.9770   24.7378 C   0  0  0  0  0  0  0  0  0  0  0  0
  -27.2022  -10.9045   25.3083 O   0  0  0  0  0  0  0  0  0  0  0  0
  -27.2388  -12.0675   22.9732 S   0  0  0  0  0  0  0  0  0  0  0  0
  -27.4831  -10.3116   22.5793 C   0  0  0  0  0  0  0  0  0  0  0  0
  -28.4078  -10.1707   21.3676 C   0  0  0  0  0  0  0  0  0  0  0  0
  -29.3701   -9.1115   21.6071 N   0  0  0  0  0  0  0  0  0  0  0  0
  -29.3028   -7.9393   20.9660 C   0  0  0  0  0  0  0  0  0  0  0  0
  -28.3658   -7.6353   20.1971 O   0  0  0  0  0  0  0  0  0  0  0  0
  -30.4652   -6.9949   21.1636 C   0  0  0  0  0  0  0  0  0  0  0  0
  -30.2692   -5.7731   20.2537 C   0  0  0  0  0  0  0  0  0  0  0  0
  -29.7584   -4.6090   20.9660 N   0  0  0  0  0  0  0  0  0  0  0  0
  -28.6167   -4.0147   20.6971 C   0  0  0  0  0  0  0  0  0  0  0  0
  -28.0423   -4.1292   19.6093 O   0  0  0  0  0  0  0  0  0  0  0  0
  -28.1046   -3.0338   21.7624 C   0  0  2  0  0  0  0  0  0  0  0  0
  -28.4661   -3.4885   23.0746 O   0  0  0  0  0  0  0  0  0  0  0  0
  -28.6372   -1.5808   21.6959 C   0  0  2  0  0  0  0  0  0  0  0  0
  -29.1778   -1.2968   20.2946 C   0  0  0  0  0  0  0  0  0  0  0  0
  -27.5279   -0.5817   22.0366 C   0  0  0  0  0  0  0  0  0  0  0  0
  -29.7629   -1.3851   22.7006 C   0  0  0  0  0  0  0  0  0  0  0  0
  -29.4485   -0.2473   23.5816 O   0  0  0  0  0  0  0  0  0  0  0  0
  -30.6869    0.4046   24.3755 P   0  0  2  0  0  0  0  0  0  0  0  0
  -31.6134   -0.7688   24.5487 O   0  0  0  0  0  0  0  0  0  0  0  0
  -31.1520    1.6638   23.7208 O   0  0  0  0  0  0  0  0  0  0  0  0
  -29.8683    0.7969   25.6914 O   0  0  0  0  0  0  0  0  0  0  0  0
  -30.2054    1.2691   27.1856 P   0  0  2  0  0  0  0  0  0  0  0  0
  -31.3742    2.1598   26.9168 O   0  0  0  0  0  0  0  0  0  0  0  0
  -28.9770    1.6735   27.8834 O   0  0  0  0  0  0  0  0  0  0  0  0
  -30.7299   -0.1326   27.7906 O   0  0  0  0  0  0  0  0  0  0  0  0
  -32.1245   -0.4052   28.0307 C   0  0  0  0  0  0  0  0  0  0  0  0
  -32.3690   -0.8435   29.4713 C   0  0  1  0  0  0  0  0  0  0  0  0
  -33.5728   -1.6601   29.6010 O   0  0  0  0  0  0  0  0  0  0  0  0
  -31.2784   -1.6845   30.1414 C   0  0  1  0  0  0  0  0  0  0  0  0
  -31.2942   -1.3172   31.4977 O   0  0  0  0  0  0  0  0  0  0  0  0
  -29.9925   -0.6403   32.1219 P   0  0  1  0  0  0  0  0  0  0  0  0
  -29.4240    0.2995   31.1824 O   0  0  0  0  0  0  0  0  0  0  0  0
  -30.7560    0.0272   33.2221 O   0  0  0  0  0  0  0  0  0  0  0  0
  -29.0008   -1.7934   32.5859 O   0  0  0  0  0  0  0  0  0  0  0  0
  -31.7673   -3.1166   29.9163 C   0  0  1  0  0  0  0  0  0  0  0  0
  -31.1027   -4.0541   30.7357 O   0  0  0  0  0  0  0  0  0  0  0  0
  -33.2623   -2.9085   30.1746 C   0  0  2  0  0  0  0  0  0  0  0  0
  -34.1549   -3.9037   29.5880 N   0  0  0  0  0  0  0  0  0  0  0  0
  -34.2373   -5.2534   29.8407 C   0  0  0  0  0  0  0  0  0  0  0  0
  -35.1678   -5.8618   29.1456 N   0  0  0  0  0  0  0  0  0  0  0  0
  -35.7092   -4.8618   28.3499 C   0  0  0  0  0  0  0  0  0  0  0  0
  -35.1023   -3.6530   28.6088 C   0  0  0  0  0  0  0  0  0  0  0  0
  -35.3797   -2.4820   28.0130 N   0  0  0  0  0  0  0  0  0  0  0  0
  -36.3752   -2.6096   27.1314 C   0  0  0  0  0  0  0  0  0  0  0  0
  -37.0645   -3.7097   26.7883 N   0  0  0  0  0  0  0  0  0  0  0  0
  -36.7456   -4.8764   27.3836 C   0  0  0  0  0  0  0  0  0  0  0  0
  -37.4087   -5.9747   27.0580 N   0  0  0  0  0  0  0  0  0  0  0  0
  -27.4024  -13.4883   27.5938 H   0  0  0  0  0  0  0  0  0  0  0  0
  -25.7002  -13.6760   27.0517 H   0  0  0  0  0  0  0  0  0  0  0  0
  -26.4689  -12.0525   27.0517 H   0  0  0  0  0  0  0  0  0  0  0  0
  -25.6225  -14.9285   25.4382 H   0  0  0  0  0  0  0  0  0  0  0  0
  -26.7970  -14.9958   24.0807 H   0  0  0  0  0  0  0  0  0  0  0  0
  -25.4942  -13.7591   24.0807 H   0  0  0  0  0  0  0  0  0  0  0  0
  -28.6614  -14.0375   26.5458 H   0  0  0  0  0  0  0  0  0  0  0  0
  -27.9356   -9.8039   23.4438 H   0  0  0  0  0  0  0  0  0  0  0  0
  -26.5099   -9.8551   22.3459 H   0  0  0  0  0  0  0  0  0  0  0  0
  -27.8094   -9.9267   20.4775 H   0  0  0  0  0  0  0  0  0  0  0  0
  -28.9422  -11.1184   21.2052 H   0  0  0  0  0  0  0  0  0  0  0  0
  -30.1259   -9.2663   22.2896 H   0  0  0  0  0  0  0  0  0  0  0  0
  -31.4043   -7.5043   20.9017 H   0  0  0  0  0  0  0  0  0  0  0  0
  -30.5125   -6.6747   22.2149 H   0  0  0  0  0  0  0  0  0  0  0  0
  -29.5564   -6.0385   19.4591 H   0  0  0  0  0  0  0  0  0  0  0  0
  -31.2554   -5.5037   19.8475 H   0  0  0  0  0  0  0  0  0  0  0  0
  -30.3305   -4.2257   21.7319 H   0  0  0  0  0  0  0  0  0  0  0  0
  -27.0244   -3.0135   21.5556 H   0  0  0  0  0  0  0  0  0  0  0  0
  -28.0181   -2.9250   23.7542 H   0  0  0  0  0  0  0  0  0  0  0  0
  -30.1492   -0.7866   20.3728 H   0  0  0  0  0  0  0  0  0  0  0  0
  -28.4690   -0.6546   19.7513 H   0  0  0  0  0  0  0  0  0  0  0  0
  -29.3043   -2.2449   19.7513 H   0  0  0  0  0  0  0  0  0  0  0  0
  -27.4338   -0.4969   23.1292 H   0  0  0  0  0  0  0  0  0  0  0  0
  -26.5755   -0.9326   21.6126 H   0  0  0  0  0  0  0  0  0  0  0  0
  -27.7777    0.4021   21.6126 H   0  0  0  0  0  0  0  0  0  0  0  0
  -30.7016   -1.1835   22.1637 H   0  0  0  0  0  0  0  0  0  0  0  0
  -29.8731   -2.2963   23.3069 H   0  0  0  0  0  0  0  0  0  0  0  0
  -32.7064    0.5066   27.8309 H   0  0  0  0  0  0  0  0  0  0  0  0
  -32.4360   -1.2228   27.3638 H   0  0  0  0  0  0  0  0  0  0  0  0
  -32.4264    0.1354   29.9697 H   0  0  0  0  0  0  0  0  0  0  0  0
  -30.2515   -1.5608   29.7667 H   0  0  0  0  0  0  0  0  0  0  0  0
  -31.5634   -3.5641   28.9323 H   0  0  0  0  0  0  0  0  0  0  0  0
  -31.2608   -3.8312   31.6873 H   0  0  0  0  0  0  0  0  0  0  0  0
  -33.4227   -2.9847   31.2602 H   0  0  0  0  0  0  0  0  0  0  0  0
  -33.5846   -5.7729   30.5577 H   0  0  0  0  0  0  0  0  0  0  0  0
  -36.6716   -1.6848   26.6148 H   0  0  0  0  0  0  0  0  0  0  0  0
  -38.1547   -5.9348   26.3489 H   0  0  0  0  0  0  0  0  0  0  0  0
  -37.1788   -6.8693   27.5138 H   0  0  0  0  0  0  0  0  0  0  0  0
  2  1  1  0
  2  3  1  0
  2  4  1  1
  2  5  1  0
  5  6  2  0
  5  7  1  0
  7  8  1  0
  8  9  1  0
  9 10  1  0
 10 11  1  0
 11 12  2  0
 11 13  1  0
 13 14  1  0
 14 15  1  0
 15 16  1  0
 16 17  2  0
 16 18  1  0
 18 19  1  0
 18 20  1  0
 20 21  1  6
 20 22  1  0
 20 23  1  0
 23 24  1  0
 24 25  1  0
 25 26  1  1
 25 27  2  0
 25 28  1  0
 28 29  1  0
 29 30  2  0
 29 31  1  1
 29 32  1  0
 32 33  1  0
 34 33  1  0
 34 35  1  0
 34 36  1  0
 35 44  1  0
 36 37  1  0
 36 42  1  0
 37 38  1  0
 38 39  2  0
 38 40  1  1
 38 41  1  0
 42 43  1  0
 42 44  1  0
 44 45  1  0
 45 46  1  0
 45 49  1  0
 46 47  2  0
 47 48  1  0
 48 49  2  0
 48 53  1  0
 49 50  1  0
 50 51  2  0
 51 52  1  0
 52 53  2  0
 53 54  1  0
  1 55  1  0
  1 56  1  0
  1 57  1  0
  3 58  1  0
  3 59  1  0
  3 60  1  0
  4 61  1  0
  8 62  1  0
  8 63  1  0
  9 64  1  0
  9 65  1  0
 10 66  1  0
 13 67  1  0
 13 68  1  0
 14 69  1  0
 14 70  1  0
 15 71  1  0
 18 72  1  1
 19 73  1  0
 21 74  1  0
 21 75  1  0
 21 76  1  0
 22 77  1  0
 22 78  1  0
 22 79  1  0
 23 80  1  0
 23 81  1  0
 33 82  1  0
 33 83  1  0
 34 84  1  1
 36 85  1  6
 42 86  1  6
 43 87  1  0
 44 88  1  1
 46 89  1  0
 51 90  1  0
 54 91  1  0
 54 92  1  0
M  CHG  4  26  -1  31  -1  40  -1  41  -1
M  END
>  <filename_input>  (11) 
7PT3_3KK_docked.sdf

>  <pdb_id>  (11) 
7PT3_3KK

>  <pose_rank>  (11) 
10

>  <num_atoms_heavy>  (11) 
54

>  <num_torsions>  (11) 
21

>  <pose>  (11) 
[-30.68687159500712, 0.40461618032406654, 24.375491720753544, -2.035430892797952, 1.3790557747308285, 1.0269862438058805, -0.6335347689036782, -6.261551809077123, 1.1159111343925554, -1.5091639541696844, 0.4295683005908333, 0.8034887341407714, 1.4627681695836945, -1.0132468540353967, -3.1015938748366114, -2.711917818530563, -0.1317125337629667, 0.009468062455123334, 1.4643976998170056, 4.866907722709051, -3.787319009430215, 2.6213180514598355, 1.0972077380139074, -7.8688185607058765, -4.553397488088773, -5.808713096004088, -0.2807646945648411]

>  <energy>  (11) 
-509.54949578737615

>  <inter_energy>  (11) 
-543.8315309648953

>  <intra_energy>  (11) 
38.01620698772958

>  <rmsd>  (11) 
9.53918

>  <sdf_rank>  (11) 
0

$$$$

     RDKit          3D

 92 94  0  0  0  0  0  0  0  0999 V2000
  -36.8639  -10.2100   32.4874 C   0  0  0  0  0  0  0  0  0  0  0  0
  -35.5004   -9.9307   31.8801 C   0  0  1  0  0  0  0  0  0  0  0  0
  -34.7968   -8.7618   32.5980 C   0  0  0  0  0  0  0  0  0  0  0  0
  -34.7371  -11.1416   32.0704 O   0  0  0  0  0  0  0  0  0  0  0  0
  -35.6811   -9.6294   30.3615 C   0  0  0  0  0  0  0  0  0  0  0  0
  -35.2789   -8.6222   29.8142 O   0  0  0  0  0  0  0  0  0  0  0  0
  -36.5088  -10.8931   29.4437 S   0  0  0  0  0  0  0  0  0  0  0  0
  -35.0746  -11.7390   28.7189 C   0  0  0  0  0  0  0  0  0  0  0  0
  -35.1088  -11.6138   27.1937 C   0  0  0  0  0  0  0  0  0  0  0  0
  -34.7583  -12.8860   26.5903 N   0  0  0  0  0  0  0  0  0  0  0  0
  -33.5073  -13.1639   26.2068 C   0  0  0  0  0  0  0  0  0  0  0  0
  -32.5796  -12.3276   26.2482 O   0  0  0  0  0  0  0  0  0  0  0  0
  -33.2362  -14.5835   25.7675 C   0  0  0  0  0  0  0  0  0  0  0  0
  -32.4713  -15.3089   26.8847 C   0  0  0  0  0  0  0  0  0  0  0  0
  -31.0250  -15.1856   26.7572 N   0  0  0  0  0  0  0  0  0  0  0  0
  -30.1732  -16.1630   26.9765 C   0  0  0  0  0  0  0  0  0  0  0  0
  -30.4991  -17.3543   26.9472 O   0  0  0  0  0  0  0  0  0  0  0  0
  -28.7008  -15.7493   27.1196 C   0  0  2  0  0  0  0  0  0  0  0  0
  -27.8777  -16.5179   26.2302 O   0  0  0  0  0  0  0  0  0  0  0  0
  -28.0483  -15.9385   28.5116 C   0  0  2  0  0  0  0  0  0  0  0  0
  -27.3762  -17.3096   28.5804 C   0  0  0  0  0  0  0  0  0  0  0  0
  -29.0963  -15.8179   29.6215 C   0  0  0  0  0  0  0  0  0  0  0  0
  -26.9943  -14.8674   28.7500 C   0  0  0  0  0  0  0  0  0  0  0  0
  -25.7953  -15.4772   29.3501 O   0  0  0  0  0  0  0  0  0  0  0  0
  -25.1633  -14.7126   30.6170 P   0  0  2  0  0  0  0  0  0  0  0  0
  -25.0536  -15.8138   31.6372 O   0  0  0  0  0  0  0  0  0  0  0  0
  -25.9061  -13.4528   30.9197 O   0  0  0  0  0  0  0  0  0  0  0  0
  -23.7796  -14.3227   29.9178 O   0  0  0  0  0  0  0  0  0  0  0  0
  -23.1624  -13.0477   29.1678 P   0  0  2  0  0  0  0  0  0  0  0  0
  -24.2880  -12.7249   28.2401 O   0  0  0  0  0  0  0  0  0  0  0  0
  -21.7779  -13.3175   28.7557 O   0  0  0  0  0  0  0  0  0  0  0  0
  -23.1628  -11.9977   30.3938 O   0  0  0  0  0  0  0  0  0  0  0  0
  -23.3211  -10.5778   30.2046 C   0  0  0  0  0  0  0  0  0  0  0  0
  -22.6909   -9.7874   31.3471 C   0  0  1  0  0  0  0  0  0  0  0  0
  -21.2414   -9.9564   31.3989 O   0  0  0  0  0  0  0  0  0  0  0  0
  -22.8855   -8.2682   31.3375 C   0  0  1  0  0  0  0  0  0  0  0  0
  -22.9615   -7.8858   32.6875 O   0  0  0  0  0  0  0  0  0  0  0  0
  -24.1412   -6.9141   33.1419 P   0  0  1  0  0  0  0  0  0  0  0  0
  -25.2519   -7.6872   33.6495 O   0  0  0  0  0  0  0  0  0  0  0  0
  -23.3268   -6.2842   34.2277 O   0  0  0  0  0  0  0  0  0  0  0  0
  -24.5022   -5.9592   31.9228 O   0  0  0  0  0  0  0  0  0  0  0  0
  -21.6101   -7.7668   30.6572 C   0  0  1  0  0  0  0  0  0  0  0  0
  -21.4055   -6.3818   30.8369 O   0  0  0  0  0  0  0  0  0  0  0  0
  -20.5959   -8.7073   31.3145 C   0  0  2  0  0  0  0  0  0  0  0  0
  -19.3433   -8.9001   30.5900 N   0  0  0  0  0  0  0  0  0  0  0  0
  -18.0993   -8.3730   30.8494 C   0  0  0  0  0  0  0  0  0  0  0  0
  -17.1768   -8.7636   30.0035 N   0  0  0  0  0  0  0  0  0  0  0  0
  -17.8590   -9.5668   29.1003 C   0  0  0  0  0  0  0  0  0  0  0  0
  -19.1887   -9.6644   29.4449 C   0  0  0  0  0  0  0  0  0  0  0  0
  -20.1310  -10.3564   28.7842 N   0  0  0  0  0  0  0  0  0  0  0  0
  -19.6141  -10.9993   27.7335 C   0  0  0  0  0  0  0  0  0  0  0  0
  -18.3472  -11.0096   27.2885 N   0  0  0  0  0  0  0  0  0  0  0  0
  -17.4283  -10.2838   27.9563 C   0  0  0  0  0  0  0  0  0  0  0  0
  -16.1740  -10.2755   27.5335 N   0  0  0  0  0  0  0  0  0  0  0  0
  -36.7868  -10.1942   33.5846 H   0  0  0  0  0  0  0  0  0  0  0  0
  -37.5766   -9.4392   32.1588 H   0  0  0  0  0  0  0  0  0  0  0  0
  -37.2161  -11.1989   32.1588 H   0  0  0  0  0  0  0  0  0  0  0  0
  -34.8785   -8.8975   33.6865 H   0  0  0  0  0  0  0  0  0  0  0  0
  -33.7355   -8.7400   32.3098 H   0  0  0  0  0  0  0  0  0  0  0  0
  -35.2745   -7.8137   32.3098 H   0  0  0  0  0  0  0  0  0  0  0  0
  -34.6282  -11.3143   33.0391 H   0  0  0  0  0  0  0  0  0  0  0  0
  -34.1502  -11.2816   29.1013 H   0  0  0  0  0  0  0  0  0  0  0  0
  -35.1058  -12.8035   28.9946 H   0  0  0  0  0  0  0  0  0  0  0  0
  -36.1202  -11.3234   26.8733 H   0  0  0  0  0  0  0  0  0  0  0  0
  -34.3862  -10.8481   26.8749 H   0  0  0  0  0  0  0  0  0  0  0  0
  -35.4932  -13.5947   26.4535 H   0  0  0  0  0  0  0  0  0  0  0  0
  -34.1885  -15.0996   25.5759 H   0  0  0  0  0  0  0  0  0  0  0  0
  -32.6378  -14.5818   24.8446 H   0  0  0  0  0  0  0  0  0  0  0  0
  -32.7756  -14.8824   27.8519 H   0  0  0  0  0  0  0  0  0  0  0  0
  -32.7181  -16.3784   26.8117 H   0  0  0  0  0  0  0  0  0  0  0  0
  -30.6441  -14.2708   26.4761 H   0  0  0  0  0  0  0  0  0  0  0  0
  -28.7431  -14.6715   26.9037 H   0  0  0  0  0  0  0  0  0  0  0  0
  -27.2656  -17.0894   26.7582 H   0  0  0  0  0  0  0  0  0  0  0  0
  -27.2355  -17.5966   29.6329 H   0  0  0  0  0  0  0  0  0  0  0  0
  -28.0112  -18.0548   28.0789 H   0  0  0  0  0  0  0  0  0  0  0  0
  -26.3983  -17.2642   28.0789 H   0  0  0  0  0  0  0  0  0  0  0  0
  -28.6005  -15.8750   30.6017 H   0  0  0  0  0  0  0  0  0  0  0  0
  -29.6180  -14.8538   29.5300 H   0  0  0  0  0  0  0  0  0  0  0  0
  -29.8233  -16.6383   29.5300 H   0  0  0  0  0  0  0  0  0  0  0  0
  -26.7257  -14.3987   27.7918 H   0  0  0  0  0  0  0  0  0  0  0  0
  -27.3968  -14.1053   29.4335 H   0  0  0  0  0  0  0  0  0  0  0  0
  -22.8383  -10.2872   29.2600 H   0  0  0  0  0  0  0  0  0  0  0  0
  -24.3972  -10.3509   30.1807 H   0  0  0  0  0  0  0  0  0  0  0  0
  -23.2305  -10.2143   32.2053 H   0  0  0  0  0  0  0  0  0  0  0  0
  -23.7780   -7.8822   30.8232 H   0  0  0  0  0  0  0  0  0  0  0  0
  -21.5812   -7.8099   29.5585 H   0  0  0  0  0  0  0  0  0  0  0  0
  -21.3750   -6.1756   31.8047 H   0  0  0  0  0  0  0  0  0  0  0  0
  -20.3046   -8.2580   32.2753 H   0  0  0  0  0  0  0  0  0  0  0  0
  -17.8978   -7.6889   31.6869 H   0  0  0  0  0  0  0  0  0  0  0  0
  -20.3252  -11.6043   27.1519 H   0  0  0  0  0  0  0  0  0  0  0  0
  -15.9094  -10.8132   26.6958 H   0  0  0  0  0  0  0  0  0  0  0  0
  -15.4627   -9.7314   28.0422 H   0  0  0  0  0  0  0  0  0  0  0  0
  2  1  1  0
  2  3  1  0
  2  4  1  6
  2  5  1  0
  5  6  2  0
  5  7  1  0
  7  8  1  0
  8  9  1  0
  9 10  1  0
 10 11  1  0
 11 12  2  0
 11 13  1  0
 13 14  1  0
 14 15  1  0
 15 16  1  0
 16 17  2  0
 16 18  1  0
 18 19  1  0
 18 20  1  0
 20 21  1  6
 20 22  1  0
 20 23  1  0
 23 24  1  0
 24 25  1  0
 25 26  1  1
 25 27  2  0
 25 28  1  0
 28 29  1  0
 29 30  2  0
 29 31  1  6
 29 32  1  0
 32 33  1  0
 34 33  1  0
 34 35  1  0
 34 36  1  0
 35 44  1  0
 36 37  1  0
 36 42  1  0
 37 38  1  0
 38 39  2  0
 38 40  1  1
 38 41  1  0
 42 43  1  0
 42 44  1  0
 44 45  1  0
 45 46  1  0
 45 49  1  0
 46 47  2  0
 47 48  1  0
 48 49  2  0
 48 53  1  0
 49 50  1  0
 50 51  2  0
 51 52  1  0
 52 53  2  0
 53 54  1  0
  1 55  1  0
  1 56  1  0
  1 57  1  0
  3 58  1  0
  3 59  1  0
  3 60  1  0
  4 61  1  0
  8 62  1  0
  8 63  1  0
  9 64  1  0
  9 65  1  0
 10 66  1  0
 13 67  1  0
 13 68  1  0
 14 69  1  0
 14 70  1  0
 15 71  1  0
 18 72  1  6
 19 73  1  0
 21 74  1  0
 21 75  1  0
 21 76  1  0
 22 77  1  0
 22 78  1  0
 22 79  1  0
 23 80  1  0
 23 81  1  0
 33 82  1  0
 33 83  1  0
 34 84  1  1
 36 85  1  6
 42 86  1  6
 43 87  1  0
 44 88  1  1
 46 89  1  0
 51 90  1  0
 54 91  1  0
 54 92  1  0
M  CHG  4  26  -1  31  -1  40  -1  41  -1
M  END
>  <filename_input>  (12) 
7PT3_3KK_docked.sdf

>  <pdb_id>  (12) 
7PT3_3KK

>  <pose_rank>  (12) 
11

>  <num_atoms_heavy>  (12) 
54

>  <num_torsions>  (12) 
21

>  <pose>  (12) 
[-25.16332545388918, -14.712626419606897, 30.61702507301278, 0.8612256580583562, -1.562841913057334, -2.1223818710437885, -5.195318415020845, -11.401733444346604, -22.30451353145228, -5.831173067254599, -2.387853536533592, 2.5779345927969652, 1.6585984012778743, 0.21390435897187643, -0.3679008509810711, -1.2105595951662675, 0.33934999221499224, 1.5191379233354179, -2.3388552232915325, -3.097981507516107, 2.3318701010047196, 1.844935671867491, 0.5917894589207561, -4.033856792970772, 2.450089798930467, 0.2183734966075545, 0.665883903030232]

>  <energy>  (12) 
-486.1480403458301

>  <inter_energy>  (12) 
-511.6676820754452

>  <intra_energy>  (12) 
26.294983581967646

>  <rmsd>  (12) 
14.955

>  <sdf_rank>  (12) 
0

$$$$

     RDKit          3D

 92 94  0  0  0  0  0  0  0  0999 V2000
  -21.0121   -6.0098   32.9588 C   0  0  0  0  0  0  0  0  0  0  0  0
  -21.9010   -6.2912   31.7601 C   0  0  1  0  0  0  0  0  0  0  0  0
  -22.3427   -4.9844   31.0719 C   0  0  0  0  0  0  0  0  0  0  0  0
  -21.0889   -7.0638   30.8496 O   0  0  0  0  0  0  0  0  0  0  0  0
  -23.1329   -7.1200   32.2343 C   0  0  0  0  0  0  0  0  0  0  0  0
  -23.1687   -8.3341   32.2588 O   0  0  0  0  0  0  0  0  0  0  0  0
  -24.5129   -6.1595   32.7796 S   0  0  0  0  0  0  0  0  0  0  0  0
  -25.0846   -7.1939   34.1585 C   0  0  0  0  0  0  0  0  0  0  0  0
  -26.6053   -7.0879   34.2969 C   0  0  0  0  0  0  0  0  0  0  0  0
  -27.1659   -6.4970   33.0960 N   0  0  0  0  0  0  0  0  0  0  0  0
  -28.1385   -7.0984   32.4019 C   0  0  0  0  0  0  0  0  0  0  0  0
  -28.5641   -8.2414   32.6743 O   0  0  0  0  0  0  0  0  0  0  0  0
  -28.7631   -6.2977   31.2836 C   0  0  0  0  0  0  0  0  0  0  0  0
  -27.9708   -4.9936   31.1075 C   0  0  0  0  0  0  0  0  0  0  0  0
  -28.8149   -3.8062   31.1384 N   0  0  0  0  0  0  0  0  0  0  0  0
  -28.9007   -2.9294   30.1623 C   0  0  0  0  0  0  0  0  0  0  0  0
  -28.5836   -3.1912   28.9973 O   0  0  0  0  0  0  0  0  0  0  0  0
  -29.5702   -1.5936   30.5184 C   0  0  2  0  0  0  0  0  0  0  0  0
  -29.4503   -1.3344   31.9247 O   0  0  0  0  0  0  0  0  0  0  0  0
  -31.0867   -1.4668   30.2293 C   0  0  2  0  0  0  0  0  0  0  0  0
  -31.8407   -1.2386   31.5392 C   0  0  0  0  0  0  0  0  0  0  0  0
  -31.6135   -2.7287   29.5402 C   0  0  0  0  0  0  0  0  0  0  0  0
  -31.3506   -0.2880   29.3042 C   0  0  0  0  0  0  0  0  0  0  0  0
  -31.1445   -0.7003   27.9052 O   0  0  0  0  0  0  0  0  0  0  0  0
  -30.0941    0.1697   27.0517 P   0  0  2  0  0  0  0  0  0  0  0  0
  -30.3793   -0.2719   25.6414 O   0  0  0  0  0  0  0  0  0  0  0  0
  -28.7179    0.0783   27.6245 O   0  0  0  0  0  0  0  0  0  0  0  0
  -30.6997    1.6003   27.4288 O   0  0  0  0  0  0  0  0  0  0  0  0
  -30.4569    3.1264   27.0029 P   0  0  2  0  0  0  0  0  0  0  0  0
  -29.2596    2.9613   26.1247 O   0  0  0  0  0  0  0  0  0  0  0  0
  -30.5276    4.0032   28.1801 O   0  0  0  0  0  0  0  0  0  0  0  0
  -31.7653    3.3530   26.0852 O   0  0  0  0  0  0  0  0  0  0  0  0
  -32.9863    2.6103   26.2708 C   0  0  0  0  0  0  0  0  0  0  0  0
  -33.4930    2.0286   24.9547 C   0  0  1  0  0  0  0  0  0  0  0  0
  -34.9417    1.8445   24.9563 O   0  0  0  0  0  0  0  0  0  0  0  0
  -33.2250    2.8385   23.6827 C   0  0  1  0  0  0  0  0  0  0  0  0
  -33.0334    1.8916   22.6621 O   0  0  0  0  0  0  0  0  0  0  0  0
  -31.6056    1.8048   21.9578 P   0  0  1  0  0  0  0  0  0  0  0  0
  -30.7041    2.7698   22.5452 O   0  0  0  0  0  0  0  0  0  0  0  0
  -31.3540    0.4089   22.4344 O   0  0  0  0  0  0  0  0  0  0  0  0
  -31.8099    1.9602   20.3886 O   0  0  0  0  0  0  0  0  0  0  0  0
  -34.5197    3.6346   23.5079 C   0  0  1  0  0  0  0  0  0  0  0  0
  -34.6424    4.1989   22.2199 O   0  0  0  0  0  0  0  0  0  0  0  0
  -35.5292    2.5469   23.8860 C   0  0  2  0  0  0  0  0  0  0  0  0
  -36.8386    3.0184   24.3267 N   0  0  0  0  0  0  0  0  0  0  0  0
  -37.1933    3.6133   25.5153 C   0  0  0  0  0  0  0  0  0  0  0  0
  -38.4634    3.9312   25.5848 N   0  0  0  0  0  0  0  0  0  0  0  0
  -38.9949    3.4810   24.3844 C   0  0  0  0  0  0  0  0  0  0  0  0
  -38.0130    2.9201   23.5984 C   0  0  0  0  0  0  0  0  0  0  0  0
  -38.1828    2.3819   22.3799 N   0  0  0  0  0  0  0  0  0  0  0  0
  -39.4519    2.4857   21.9758 C   0  0  0  0  0  0  0  0  0  0  0  0
  -40.5038    3.0150   22.6212 N   0  0  0  0  0  0  0  0  0  0  0  0
  -40.3084    3.5237   23.8542 C   0  0  0  0  0  0  0  0  0  0  0  0
  -41.3315    4.0468   24.5111 N   0  0  0  0  0  0  0  0  0  0  0  0
  -21.5779   -6.1889   33.8849 H   0  0  0  0  0  0  0  0  0  0  0  0
  -20.1361   -6.6745   32.9298 H   0  0  0  0  0  0  0  0  0  0  0  0
  -20.6784   -4.9620   32.9298 H   0  0  0  0  0  0  0  0  0  0  0  0
  -22.5961   -4.2350   31.8362 H   0  0  0  0  0  0  0  0  0  0  0  0
  -21.5228   -4.6052   30.4442 H   0  0  0  0  0  0  0  0  0  0  0  0
  -23.2245   -5.1805   30.4442 H   0  0  0  0  0  0  0  0  0  0  0  0
  -20.4770   -7.6460   31.3661 H   0  0  0  0  0  0  0  0  0  0  0  0
  -24.8083   -8.2413   33.9671 H   0  0  0  0  0  0  0  0  0  0  0  0
  -24.6122   -6.8477   35.0896 H   0  0  0  0  0  0  0  0  0  0  0  0
  -27.0300   -8.0920   34.4428 H   0  0  0  0  0  0  0  0  0  0  0  0
  -26.8489   -6.4543   35.1624 H   0  0  0  0  0  0  0  0  0  0  0  0
  -26.8049   -5.5894   32.7690 H   0  0  0  0  0  0  0  0  0  0  0  0
  -28.7312   -6.8787   30.3502 H   0  0  0  0  0  0  0  0  0  0  0  0
  -29.8110   -6.0688   31.5274 H   0  0  0  0  0  0  0  0  0  0  0  0
  -27.2322   -4.9199   31.9192 H   0  0  0  0  0  0  0  0  0  0  0  0
  -27.4914   -5.0309   30.1182 H   0  0  0  0  0  0  0  0  0  0  0  0
  -29.3827   -3.6426   31.9820 H   0  0  0  0  0  0  0  0  0  0  0  0
  -29.0359   -0.8877   29.8655 H   0  0  0  0  0  0  0  0  0  0  0  0
  -29.8068   -2.1050   32.4339 H   0  0  0  0  0  0  0  0  0  0  0  0
  -31.1710   -1.4413   32.3879 H   0  0  0  0  0  0  0  0  0  0  0  0
  -32.1867   -0.1954   31.5862 H   0  0  0  0  0  0  0  0  0  0  0  0
  -32.7071   -1.9147   31.5862 H   0  0  0  0  0  0  0  0  0  0  0  0
  -31.9195   -3.4615   30.3014 H   0  0  0  0  0  0  0  0  0  0  0  0
  -32.4786   -2.4694   28.9121 H   0  0  0  0  0  0  0  0  0  0  0  0
  -30.8210   -3.1615   28.9121 H   0  0  0  0  0  0  0  0  0  0  0  0
  -32.3874    0.0552   29.4355 H   0  0  0  0  0  0  0  0  0  0  0  0
  -30.6574    0.5302   29.5491 H   0  0  0  0  0  0  0  0  0  0  0  0
  -32.8003    1.7876   26.9770 H   0  0  0  0  0  0  0  0  0  0  0  0
  -33.7517    3.2968   26.6618 H   0  0  0  0  0  0  0  0  0  0  0  0
  -32.9148    1.0937   24.9151 H   0  0  0  0  0  0  0  0  0  0  0  0
  -32.3539    3.5100   23.6925 H   0  0  0  0  0  0  0  0  0  0  0  0
  -34.6297    4.5466   24.1130 H   0  0  0  0  0  0  0  0  0  0  0  0
  -34.8519    5.1631   22.3007 H   0  0  0  0  0  0  0  0  0  0  0  0
  -35.7282    1.9534   22.9815 H   0  0  0  0  0  0  0  0  0  0  0  0
  -36.4791    3.8041   26.3299 H   0  0  0  0  0  0  0  0  0  0  0  0
  -39.6648    2.0814   20.9752 H   0  0  0  0  0  0  0  0  0  0  0  0
  -42.2685    4.0546   24.0834 H   0  0  0  0  0  0  0  0  0  0  0  0
  -41.1907    4.4462   25.4500 H   0  0  0  0  0  0  0  0  0  0  0  0
  2  1  1  0
  2  3  1  0
  2  4  1  6
  2  5  1  0
  5  6  2  0
  5  7  1  0
  7  8  1  0
  8  9  1  0
  9 10  1  0
 10 11  1  0
 11 12  2  0
 11 13  1  0
 13 14  1  0
 14 15  1  0
 15 16  1  0
 16 17  2  0
 16 18  1  0
 18 19  1  0
 18 20  1  0
 20 21  1  1
 20 22  1  0
 20 23  1  0
 23 24  1  0
 24 25  1  0
 25 26  1  6
 25 27  2  0
 25 28  1  0
 28 29  1  0
 29 30  2  0
 29 31  1  1
 29 32  1  0
 32 33  1  0
 34 33  1  0
 34 35  1  0
 34 36  1  0
 35 44  1  0
 36 37  1  0
 36 42  1  0
 37 38  1  0
 38 39  2  0
 38 40  1  6
 38 41  1  0
 42 43  1  0
 42 44  1  0
 44 45  1  0
 45 46  1  0
 45 49  1  0
 46 47  2  0
 47 48  1  0
 48 49  2  0
 48 53  1  0
 49 50  1  0
 50 51  2  0
 51 52  1  0
 52 53  2  0
 53 54  1  0
  1 55  1  0
  1 56  1  0
  1 57  1  0
  3 58  1  0
  3 59  1  0
  3 60  1  0
  4 61  1  0
  8 62  1  0
  8 63  1  0
  9 64  1  0
  9 65  1  0
 10 66  1  0
 13 67  1  0
 13 68  1  0
 14 69  1  0
 14 70  1  0
 15 71  1  0
 18 72  1  6
 19 73  1  0
 21 74  1  0
 21 75  1  0
 21 76  1  0
 22 77  1  0
 22 78  1  0
 22 79  1  0
 23 80  1  0
 23 81  1  0
 33 82  1  0
 33 83  1  0
 34 84  1  6
 36 85  1  1
 42 86  1  1
 43 87  1  0
 44 88  1  6
 46 89  1  0
 51 90  1  0
 54 91  1  0
 54 92  1  0
M  CHG  4  26  -1  31  -1  40  -1  41  -1
M  END
>  <filename_input>  (13) 
7PT3_3KK_docked.sdf

>  <pdb_id>  (13) 
7PT3_3KK

>  <pose_rank>  (13) 
12

>  <num_atoms_heavy>  (13) 
54

>  <num_torsions>  (13) 
21

>  <pose>  (13) 
[-30.09407584815197, 0.16971985057791078, 27.051691007536053, -0.8999375149414629, 1.0510121719394312, -1.7199056866931106, 2.2285606900353834, 1.3199245231186456, 0.38941187023361146, 0.8991717088019912, 0.2761399080789501, 2.8854903449719997, 1.0029517717087264, -4.122640826167108, 3.4839363370748924, 1.449358008160195, -0.20817595770229083, 0.751250231112488, 0.1833549000198058, -1.5353420300246374, -3.2304296316337426, -1.3611650311008128, 1.014753066544648, -1.5521769689525469, -0.645775774931383, 0.5072382090743212, -0.9776662804261084]

>  <energy>  (13) 
-502.0841323130382

>  <inter_energy>  (13) 
-512.2851915941563

>  <intra_energy>  (13) 
12.149470715909532

>  <rmsd>  (13) 
9.41393

>  <sdf_rank>  (13) 
0

$$$$

     RDKit          3D

 92 94  0  0  0  0  0  0  0  0999 V2000
  -35.5694   -1.0073   27.8642 C   0  0  0  0  0  0  0  0  0  0  0  0
  -35.2542   -2.4782   27.6563 C   0  0  1  0  0  0  0  0  0  0  0  0
  -36.5351   -3.2922   27.3854 C   0  0  0  0  0  0  0  0  0  0  0  0
  -34.3969   -2.5295   26.4954 O   0  0  0  0  0  0  0  0  0  0  0  0
  -34.5055   -3.0122   28.9148 C   0  0  0  0  0  0  0  0  0  0  0  0
  -34.7261   -4.0886   29.4330 O   0  0  0  0  0  0  0  0  0  0  0  0
  -33.2546   -1.9373   29.5506 S   0  0  0  0  0  0  0  0  0  0  0  0
  -31.9487   -3.1515   29.8946 C   0  0  0  0  0  0  0  0  0  0  0  0
  -30.5887   -2.5919   29.4700 C   0  0  0  0  0  0  0  0  0  0  0  0
  -29.5629   -3.5996   29.6639 N   0  0  0  0  0  0  0  0  0  0  0  0
  -28.8240   -3.6486   30.7780 C   0  0  0  0  0  0  0  0  0  0  0  0
  -28.8920   -2.7863   31.6799 O   0  0  0  0  0  0  0  0  0  0  0  0
  -27.9239   -4.8512   30.9379 C   0  0  0  0  0  0  0  0  0  0  0  0
  -26.4927   -4.4525   30.5482 C   0  0  0  0  0  0  0  0  0  0  0  0
  -25.4812   -5.3325   31.1189 N   0  0  0  0  0  0  0  0  0  0  0  0
  -24.3453   -4.9213   31.6381 C   0  0  0  0  0  0  0  0  0  0  0  0
  -24.1706   -3.7646   32.0353 O   0  0  0  0  0  0  0  0  0  0  0  0
  -23.2836   -6.0065   31.8718 C   0  0  2  0  0  0  0  0  0  0  0  0
  -23.6860   -7.2391   31.2570 O   0  0  0  0  0  0  0  0  0  0  0  0
  -22.9786   -6.3884   33.3416 C   0  0  2  0  0  0  0  0  0  0  0  0
  -21.7518   -5.6169   33.8276 C   0  0  0  0  0  0  0  0  0  0  0  0
  -22.7291   -7.8938   33.4689 C   0  0  0  0  0  0  0  0  0  0  0  0
  -24.1597   -6.0365   34.2340 C   0  0  0  0  0  0  0  0  0  0  0  0
  -25.0351   -7.2116   34.3835 O   0  0  0  0  0  0  0  0  0  0  0  0
  -26.5881   -6.9120   34.6791 P   0  0  2  0  0  0  0  0  0  0  0  0
  -26.7614   -5.5248   34.1216 O   0  0  0  0  0  0  0  0  0  0  0  0
  -26.9432   -7.2231   36.0960 O   0  0  0  0  0  0  0  0  0  0  0  0
  -27.1737   -8.0731   33.7493 O   0  0  0  0  0  0  0  0  0  0  0  0
  -28.6008   -8.4879   33.1489 P   0  0  2  0  0  0  0  0  0  0  0  0
  -28.1711   -9.5051   32.1427 O   0  0  0  0  0  0  0  0  0  0  0  0
  -29.3986   -7.2899   32.8525 O   0  0  0  0  0  0  0  0  0  0  0  0
  -29.2182   -9.2389   34.4375 O   0  0  0  0  0  0  0  0  0  0  0  0
  -28.9201  -10.6123   34.7569 C   0  0  0  0  0  0  0  0  0  0  0  0
  -28.1939  -10.7311   36.0932 C   0  0  1  0  0  0  0  0  0  0  0  0
  -28.6602   -9.7433   37.0624 O   0  0  0  0  0  0  0  0  0  0  0  0
  -28.3128  -12.0641   36.8380 C   0  0  1  0  0  0  0  0  0  0  0  0
  -27.0860  -12.2408   37.5001 O   0  0  0  0  0  0  0  0  0  0  0  0
  -26.3066  -13.6188   37.3113 P   0  0  1  0  0  0  0  0  0  0  0  0
  -27.2347  -14.7252   37.3725 O   0  0  0  0  0  0  0  0  0  0  0  0
  -25.8825  -13.2924   35.9139 O   0  0  0  0  0  0  0  0  0  0  0  0
  -25.1315  -13.6813   38.3806 O   0  0  0  0  0  0  0  0  0  0  0  0
  -29.4700  -11.8101   37.8061 C   0  0  1  0  0  0  0  0  0  0  0  0
  -29.5456  -12.7782   38.8304 O   0  0  0  0  0  0  0  0  0  0  0  0
  -29.1254  -10.3794   38.2298 C   0  0  2  0  0  0  0  0  0  0  0  0
  -30.2320   -9.5877   38.7589 N   0  0  0  0  0  0  0  0  0  0  0  0
  -30.2895   -8.8339   39.9083 C   0  0  0  0  0  0  0  0  0  0  0  0
  -31.4402   -8.2300   40.0829 N   0  0  0  0  0  0  0  0  0  0  0  0
  -32.2100   -8.6421   39.0042 C   0  0  0  0  0  0  0  0  0  0  0  0
  -31.4852   -9.4736   38.1796 C   0  0  0  0  0  0  0  0  0  0  0  0
  -31.9266  -10.0551   37.0525 N   0  0  0  0  0  0  0  0  0  0  0  0
  -33.1850   -9.6972   36.7823 C   0  0  0  0  0  0  0  0  0  0  0  0
  -34.0028   -8.8917   37.4790 N   0  0  0  0  0  0  0  0  0  0  0  0
  -33.5412   -8.3436   38.6207 C   0  0  0  0  0  0  0  0  0  0  0  0
  -34.3310   -7.5496   39.3263 N   0  0  0  0  0  0  0  0  0  0  0  0
  -35.6158   -0.7909   28.9417 H   0  0  0  0  0  0  0  0  0  0  0  0
  -34.7822   -0.3945   27.4007 H   0  0  0  0  0  0  0  0  0  0  0  0
  -36.5386   -0.7709   27.4007 H   0  0  0  0  0  0  0  0  0  0  0  0
  -36.9935   -3.5835   28.3420 H   0  0  0  0  0  0  0  0  0  0  0  0
  -37.2446   -2.6789   26.8105 H   0  0  0  0  0  0  0  0  0  0  0  0
  -36.2811   -4.1949   26.8105 H   0  0  0  0  0  0  0  0  0  0  0  0
  -33.4520   -2.5860   26.7852 H   0  0  0  0  0  0  0  0  0  0  0  0
  -31.9314   -3.3724   30.9721 H   0  0  0  0  0  0  0  0  0  0  0  0
  -32.1532   -4.0720   29.3283 H   0  0  0  0  0  0  0  0  0  0  0  0
  -30.6258   -2.3075   28.4081 H   0  0  0  0  0  0  0  0  0  0  0  0
  -30.3515   -1.7085   30.0810 H   0  0  0  0  0  0  0  0  0  0  0  0
  -29.3991   -4.2965   28.9233 H   0  0  0  0  0  0  0  0  0  0  0  0
  -27.9416   -5.1899   31.9843 H   0  0  0  0  0  0  0  0  0  0  0  0
  -28.2738   -5.6690   30.2908 H   0  0  0  0  0  0  0  0  0  0  0  0
  -26.4063   -4.4837   29.4520 H   0  0  0  0  0  0  0  0  0  0  0  0
  -26.3126   -3.4428   30.9457 H   0  0  0  0  0  0  0  0  0  0  0  0
  -25.6688   -6.3453   31.1154 H   0  0  0  0  0  0  0  0  0  0  0  0
  -22.3829   -5.5425   31.4435 H   0  0  0  0  0  0  0  0  0  0  0  0
  -23.9026   -7.9027   31.9590 H   0  0  0  0  0  0  0  0  0  0  0  0
  -21.7366   -5.6074   34.9274 H   0  0  0  0  0  0  0  0  0  0  0  0
  -20.8398   -6.1044   33.4525 H   0  0  0  0  0  0  0  0  0  0  0  0
  -21.7961   -4.5838   33.4525 H   0  0  0  0  0  0  0  0  0  0  0  0
  -22.6834   -8.1692   34.5329 H   0  0  0  0  0  0  0  0  0  0  0  0
  -23.5483   -8.4437   32.9827 H   0  0  0  0  0  0  0  0  0  0  0  0
  -21.7762   -8.1499   32.9827 H   0  0  0  0  0  0  0  0  0  0  0  0
  -23.7913   -5.7265   35.2230 H   0  0  0  0  0  0  0  0  0  0  0  0
  -24.7290   -5.2132   33.7777 H   0  0  0  0  0  0  0  0  0  0  0  0
  -29.8613  -11.1792   34.8101 H   0  0  0  0  0  0  0  0  0  0  0  0
  -28.2642  -11.0147   33.9709 H   0  0  0  0  0  0  0  0  0  0  0  0
  -27.1527  -10.5927   35.7663 H   0  0  0  0  0  0  0  0  0  0  0  0
  -28.5042  -12.9606   36.2300 H   0  0  0  0  0  0  0  0  0  0  0  0
  -30.4884  -11.9005   37.4003 H   0  0  0  0  0  0  0  0  0  0  0  0
  -29.5105  -12.3292   39.7120 H   0  0  0  0  0  0  0  0  0  0  0  0
  -28.4008  -10.4457   39.0548 H   0  0  0  0  0  0  0  0  0  0  0  0
  -29.4501   -8.7462   40.6137 H   0  0  0  0  0  0  0  0  0  0  0  0
  -33.6103  -10.1215   35.8608 H   0  0  0  0  0  0  0  0  0  0  0  0
  -35.2920   -7.3627   39.0063 H   0  0  0  0  0  0  0  0  0  0  0  0
  -33.9846   -7.1188   40.1954 H   0  0  0  0  0  0  0  0  0  0  0  0
  2  1  1  0
  2  3  1  0
  2  4  1  6
  2  5  1  0
  5  6  2  0
  5  7  1  0
  7  8  1  0
  8  9  1  0
  9 10  1  0
 10 11  1  0
 11 12  2  0
 11 13  1  0
 13 14  1  0
 14 15  1  0
 15 16  1  0
 16 17  2  0
 16 18  1  0
 18 19  1  0
 18 20  1  0
 20 21  1  1
 20 22  1  0
 20 23  1  0
 23 24  1  0
 24 25  1  0
 25 26  1  6
 25 27  2  0
 25 28  1  0
 28 29  1  0
 29 30  2  0
 29 31  1  6
 29 32  1  0
 32 33  1  0
 34 33  1  0
 34 35  1  0
 34 36  1  0
 35 44  1  0
 36 37  1  0
 36 42  1  0
 37 38  1  0
 38 39  2  0
 38 40  1  6
 38 41  1  0
 42 43  1  0
 42 44  1  0
 44 45  1  0
 45 46  1  0
 45 49  1  0
 46 47  2  0
 47 48  1  0
 48 49  2  0
 48 53  1  0
 49 50  1  0
 50 51  2  0
 51 52  1  0
 52 53  2  0
 53 54  1  0
  1 55  1  0
  1 56  1  0
  1 57  1  0
  3 58  1  0
  3 59  1  0
  3 60  1  0
  4 61  1  0
  8 62  1  0
  8 63  1  0
  9 64  1  0
  9 65  1  0
 10 66  1  0
 13 67  1  0
 13 68  1  0
 14 69  1  0
 14 70  1  0
 15 71  1  0
 18 72  1  6
 19 73  1  0
 21 74  1  0
 21 75  1  0
 21 76  1  0
 22 77  1  0
 22 78  1  0
 22 79  1  0
 23 80  1  0
 23 81  1  0
 33 82  1  0
 33 83  1  0
 34 84  1  6
 36 85  1  6
 42 86  1  6
 43 87  1  0
 44 88  1  1
 46 89  1  0
 51 90  1  0
 54 91  1  0
 54 92  1  0
M  CHG  4  26  -1  31  -1  40  -1  41  -1
M  END
>  <filename_input>  (14) 
7PT3_3KK_docked.sdf

>  <pdb_id>  (14) 
7PT3_3KK

>  <pose_rank>  (14) 
13

>  <num_atoms_heavy>  (14) 
54

>  <num_torsions>  (14) 
21

>  <pose>  (14) 
[-26.588112358781537, -6.9120274538281, 34.67912668031909, -0.9842764033308173, 1.2848595408289916, -5.625791670390872, 5.549314827784632, 7.1101585671730225, 6.852475022757655, -2.839755126213995, 0.006702039827490587, 2.5959021225159207, -0.2917423597198308, 3.78634915087853, -0.36610574220270037, -8.173054197055142, -1.4966532464791542, 0.8473348297574105, 4.16980475826109, -1.4242201349113313, 6.0796599205385515, 9.297944164090453, 11.616610860406169, 8.019615108991685, 2.921949150938072, 0.28058029841268584, -1.728887479688988]

>  <energy>  (14) 
-500.38577399323276

>  <inter_energy>  (14) 
-519.1994563660643

>  <intra_energy>  (14) 
25.174181692859385

>  <rmsd>  (14) 
12.3528

>  <sdf_rank>  (14) 
0

$$$$

     RDKit          3D

 92 94  0  0  0  0  0  0  0  0999 V2000
  -28.8353  -11.9861   40.2466 C   0  0  0  0  0  0  0  0  0  0  0  0
  -28.6144  -12.7214   38.9363 C   0  0  1  0  0  0  0  0  0  0  0  0
  -28.7219  -14.2475   39.1260 C   0  0  0  0  0  0  0  0  0  0  0  0
  -29.6679  -12.2703   38.0577 O   0  0  0  0  0  0  0  0  0  0  0  0
  -27.2186  -12.3233   38.3683 C   0  0  0  0  0  0  0  0  0  0  0  0
  -26.1990  -12.2897   39.0279 O   0  0  0  0  0  0  0  0  0  0  0  0
  -27.1978  -11.9372   36.6435 S   0  0  0  0  0  0  0  0  0  0  0  0
  -26.8052  -13.5751   35.9643 C   0  0  0  0  0  0  0  0  0  0  0  0
  -28.0808  -14.2487   35.4522 C   0  0  0  0  0  0  0  0  0  0  0  0
  -27.7928  -14.9770   34.2306 N   0  0  0  0  0  0  0  0  0  0  0  0
  -28.1990  -16.2386   34.0494 C   0  0  0  0  0  0  0  0  0  0  0  0
  -28.7632  -16.9083   34.9410 O   0  0  0  0  0  0  0  0  0  0  0  0
  -28.0002  -16.8193   32.6691 C   0  0  0  0  0  0  0  0  0  0  0  0
  -29.3712  -17.2022   32.0920 C   0  0  0  0  0  0  0  0  0  0  0  0
  -29.8370  -16.2754   31.0685 N   0  0  0  0  0  0  0  0  0  0  0  0
  -29.6254  -16.4238   29.7793 C   0  0  0  0  0  0  0  0  0  0  0  0
  -29.3493  -17.5136   29.2672 O   0  0  0  0  0  0  0  0  0  0  0  0
  -29.8949  -15.1869   28.9093 C   0  0  2  0  0  0  0  0  0  0  0  0
  -30.1852  -15.5794   27.5598 O   0  0  0  0  0  0  0  0  0  0  0  0
  -28.7459  -14.1570   28.7742 C   0  0  2  0  0  0  0  0  0  0  0  0
  -28.7869  -13.1858   29.9539 C   0  0  0  0  0  0  0  0  0  0  0  0
  -28.8659  -13.3816   27.4593 C   0  0  0  0  0  0  0  0  0  0  0  0
  -27.3996  -14.8658   28.7740 C   0  0  0  0  0  0  0  0  0  0  0  0
  -26.3673  -13.9688   29.3213 O   0  0  0  0  0  0  0  0  0  0  0  0
  -25.1432  -14.6746   30.0909 P   0  0  2  0  0  0  0  0  0  0  0  0
  -24.8618  -15.8708   29.2218 O   0  0  0  0  0  0  0  0  0  0  0  0
  -25.4327  -14.8313   31.5476 O   0  0  0  0  0  0  0  0  0  0  0  0
  -24.1042  -13.4727   29.9130 O   0  0  0  0  0  0  0  0  0  0  0  0
  -23.3960  -12.7042   28.6977 P   0  0  2  0  0  0  0  0  0  0  0  0
  -24.3711  -11.5909   28.4937 O   0  0  0  0  0  0  0  0  0  0  0  0
  -22.9758  -13.6602   27.6637 O   0  0  0  0  0  0  0  0  0  0  0  0
  -22.0946  -12.1400   29.4681 O   0  0  0  0  0  0  0  0  0  0  0  0
  -22.0960  -10.8938   30.1919 C   0  0  0  0  0  0  0  0  0  0  0  0
  -21.1769   -9.8663   29.5387 C   0  0  1  0  0  0  0  0  0  0  0  0
  -21.7165   -8.5121   29.6250 O   0  0  0  0  0  0  0  0  0  0  0  0
  -19.7596   -9.7357   30.1044 C   0  0  1  0  0  0  0  0  0  0  0  0
  -18.9403   -9.4168   29.0082 O   0  0  0  0  0  0  0  0  0  0  0  0
  -18.1366  -10.5901   28.2872 P   0  0  1  0  0  0  0  0  0  0  0  0
  -18.7853  -11.8582   28.5327 O   0  0  0  0  0  0  0  0  0  0  0  0
  -18.4059  -10.0552   26.9159 O   0  0  0  0  0  0  0  0  0  0  0  0
  -16.6192  -10.5214   28.7572 O   0  0  0  0  0  0  0  0  0  0  0  0
  -19.8939   -8.5756   31.0927 C   0  0  1  0  0  0  0  0  0  0  0  0
  -18.6452   -8.0502   31.4887 O   0  0  0  0  0  0  0  0  0  0  0  0
  -20.8020   -7.6570   30.2702 C   0  0  2  0  0  0  0  0  0  0  0  0
  -21.5692   -6.6738   31.0292 N   0  0  0  0  0  0  0  0  0  0  0  0
  -21.4649   -5.3021   31.0292 C   0  0  0  0  0  0  0  0  0  0  0  0
  -22.3239   -4.7103   31.8236 N   0  0  0  0  0  0  0  0  0  0  0  0
  -23.0139   -5.7559   32.4211 C   0  0  0  0  0  0  0  0  0  0  0  0
  -22.5665   -6.9681   31.9447 C   0  0  0  0  0  0  0  0  0  0  0  0
  -23.0124   -8.1795   32.3145 N   0  0  0  0  0  0  0  0  0  0  0  0
  -24.0046   -8.0812   33.2036 C   0  0  0  0  0  0  0  0  0  0  0  0
  -24.5501   -6.9790   33.7427 N   0  0  0  0  0  0  0  0  0  0  0  0
  -24.0637   -5.7775   33.3726 C   0  0  0  0  0  0  0  0  0  0  0  0
  -24.5831   -4.6773   33.8942 N   0  0  0  0  0  0  0  0  0  0  0  0
  -28.6312  -12.6656   41.0872 H   0  0  0  0  0  0  0  0  0  0  0  0
  -28.1572  -11.1217   40.3009 H   0  0  0  0  0  0  0  0  0  0  0  0
  -29.8775  -11.6385   40.3009 H   0  0  0  0  0  0  0  0  0  0  0  0
  -28.7385  -14.4832   40.2003 H   0  0  0  0  0  0  0  0  0  0  0  0
  -29.6479  -14.6110   38.6565 H   0  0  0  0  0  0  0  0  0  0  0  0
  -27.8560  -14.7372   38.6565 H   0  0  0  0  0  0  0  0  0  0  0  0
  -30.4307  -11.9437   38.5977 H   0  0  0  0  0  0  0  0  0  0  0  0
  -26.0932  -13.4637   35.1332 H   0  0  0  0  0  0  0  0  0  0  0  0
  -26.3610  -14.1971   36.7553 H   0  0  0  0  0  0  0  0  0  0  0  0
  -28.4566  -14.9471   36.2143 H   0  0  0  0  0  0  0  0  0  0  0  0
  -28.8413  -13.4807   35.2476 H   0  0  0  0  0  0  0  0  0  0  0  0
  -27.2609  -14.5098   33.4825 H   0  0  0  0  0  0  0  0  0  0  0  0
  -27.5208  -16.0725   32.0191 H   0  0  0  0  0  0  0  0  0  0  0  0
  -27.3567  -17.7096   32.7268 H   0  0  0  0  0  0  0  0  0  0  0  0
  -29.2968  -18.2060   31.6482 H   0  0  0  0  0  0  0  0  0  0  0  0
  -30.0964  -17.1714   32.9185 H   0  0  0  0  0  0  0  0  0  0  0  0
  -30.3680  -15.4481   31.3759 H   0  0  0  0  0  0  0  0  0  0  0  0
  -30.7262  -14.7057   29.4454 H   0  0  0  0  0  0  0  0  0  0  0  0
  -30.7738  -16.3754   27.5670 H   0  0  0  0  0  0  0  0  0  0  0  0
  -28.7630  -13.7526   30.8964 H   0  0  0  0  0  0  0  0  0  0  0  0
  -27.9162  -12.5152   29.9072 H   0  0  0  0  0  0  0  0  0  0  0  0
  -29.7109  -12.5909   29.9072 H   0  0  0  0  0  0  0  0  0  0  0  0
  -29.0309  -12.3158   27.6758 H   0  0  0  0  0  0  0  0  0  0  0  0
  -27.9390  -13.4986   26.8787 H   0  0  0  0  0  0  0  0  0  0  0  0
  -29.7141  -13.7734   26.8787 H   0  0  0  0  0  0  0  0  0  0  0  0
  -27.4631  -15.7720   29.3944 H   0  0  0  0  0  0  0  0  0  0  0  0
  -27.1331  -15.1424   27.7432 H   0  0  0  0  0  0  0  0  0  0  0  0
  -23.1206  -10.4941   30.2134 H   0  0  0  0  0  0  0  0  0  0  0  0
  -21.7291  -11.0863   31.2109 H   0  0  0  0  0  0  0  0  0  0  0  0
  -21.1213  -10.2705   28.5172 H   0  0  0  0  0  0  0  0  0  0  0  0
  -19.3361  -10.6217   30.6000 H   0  0  0  0  0  0  0  0  0  0  0  0
  -20.3104   -8.8104   32.0834 H   0  0  0  0  0  0  0  0  0  0  0  0
  -18.5946   -8.0289   32.4772 H   0  0  0  0  0  0  0  0  0  0  0  0
  -20.1562   -7.0647   29.6054 H   0  0  0  0  0  0  0  0  0  0  0  0
  -20.7307   -4.7539   30.4207 H   0  0  0  0  0  0  0  0  0  0  0  0
  -24.4345   -9.0358   33.5409 H   0  0  0  0  0  0  0  0  0  0  0  0
  -25.3459   -4.7444   34.5832 H   0  0  0  0  0  0  0  0  0  0  0  0
  -24.2246   -3.7542   33.6111 H   0  0  0  0  0  0  0  0  0  0  0  0
  2  1  1  0
  2  3  1  0
  2  4  1  6
  2  5  1  0
  5  6  2  0
  5  7  1  0
  7  8  1  0
  8  9  1  0
  9 10  1  0
 10 11  1  0
 11 12  2  0
 11 13  1  0
 13 14  1  0
 14 15  1  0
 15 16  1  0
 16 17  2  0
 16 18  1  0
 18 19  1  0
 18 20  1  0
 20 21  1  1
 20 22  1  0
 20 23  1  0
 23 24  1  0
 24 25  1  0
 25 26  1  6
 25 27  2  0
 25 28  1  0
 28 29  1  0
 29 30  2  0
 29 31  1  6
 29 32  1  0
 32 33  1  0
 34 33  1  0
 34 35  1  0
 34 36  1  0
 35 44  1  0
 36 37  1  0
 36 42  1  0
 37 38  1  0
 38 39  2  0
 38 40  1  6
 38 41  1  0
 42 43  1  0
 42 44  1  0
 44 45  1  0
 45 46  1  0
 45 49  1  0
 46 47  2  0
 47 48  1  0
 48 49  2  0
 48 53  1  0
 49 50  1  0
 50 51  2  0
 51 52  1  0
 52 53  2  0
 53 54  1  0
  1 55  1  0
  1 56  1  0
  1 57  1  0
  3 58  1  0
  3 59  1  0
  3 60  1  0
  4 61  1  0
  8 62  1  0
  8 63  1  0
  9 64  1  0
  9 65  1  0
 10 66  1  0
 13 67  1  0
 13 68  1  0
 14 69  1  0
 14 70  1  0
 15 71  1  0
 18 72  1  1
 19 73  1  0
 21 74  1  0
 21 75  1  0
 21 76  1  0
 22 77  1  0
 22 78  1  0
 22 79  1  0
 23 80  1  0
 23 81  1  0
 33 82  1  0
 33 83  1  0
 34 84  1  6
 36 85  1  1
 42 86  1  1
 43 87  1  0
 44 88  1  6
 46 89  1  0
 51 90  1  0
 54 91  1  0
 54 92  1  0
M  CHG  4  26  -1  31  -1  40  -1  41  -1
M  END
>  <filename_input>  (15) 
7PT3_3KK_docked.sdf

>  <pdb_id>  (15) 
7PT3_3KK

>  <pose_rank>  (15) 
14

>  <num_atoms_heavy>  (15) 
54

>  <num_torsions>  (15) 
21

>  <pose>  (15) 
[-25.14317342588951, -14.674586357688675, 30.090881949435296, 0.5811684844427148, 0.2205462671788429, -2.840896238986856, -0.4406130189891139, -0.17714893985288704, 2.571415154508253, -2.639906901613251, -2.877708399790404, 0.3357990453562899, -1.2183890816137959, -0.04333188788756144, 3.5949788512274004, 3.659933037404492, -2.1662583567600286, 1.6402508566310245, 2.5738073249669737, 0.4159537358632354, 4.767854391813174, 2.949463802659111, 1.3019501162406937, -2.65960547851162, 2.614898355638691, 0.8271785107624547, -0.5835559845719646]

>  <energy>  (15) 
-497.3979455034784

>  <inter_energy>  (15) 
-509.3094346253679

>  <intra_energy>  (15) 
21.188957227022424

>  <rmsd>  (15) 
13.6572

>  <sdf_rank>  (15) 
0

$$$$

     RDKit          3D

 92 94  0  0  0  0  0  0  0  0999 V2000
  -27.4223   -7.2320   18.8356 C   0  0  0  0  0  0  0  0  0  0  0  0
  -28.0757   -7.1889   20.2058 C   0  0  1  0  0  0  0  0  0  0  0  0
  -29.5796   -7.5166   20.1192 C   0  0  0  0  0  0  0  0  0  0  0  0
  -27.4062   -8.2035   20.9853 O   0  0  0  0  0  0  0  0  0  0  0  0
  -27.8435   -5.7782   20.8267 C   0  0  0  0  0  0  0  0  0  0  0  0
  -26.7509   -5.3317   21.1139 O   0  0  0  0  0  0  0  0  0  0  0  0
  -29.3091   -4.8209   21.0720 S   0  0  0  0  0  0  0  0  0  0  0  0
  -28.5919   -3.1524   21.0762 C   0  0  0  0  0  0  0  0  0  0  0  0
  -29.4987   -2.1949   21.8533 C   0  0  0  0  0  0  0  0  0  0  0  0
  -30.6030   -1.7750   21.0109 N   0  0  0  0  0  0  0  0  0  0  0  0
  -30.8598   -0.4832   20.7768 C   0  0  0  0  0  0  0  0  0  0  0  0
  -30.2393    0.4475   21.3341 O   0  0  0  0  0  0  0  0  0  0  0  0
  -31.9154   -0.1829   19.7387 C   0  0  0  0  0  0  0  0  0  0  0  0
  -32.6278    1.1228   20.1219 C   0  0  0  0  0  0  0  0  0  0  0  0
  -33.8460    0.9023   20.8904 N   0  0  0  0  0  0  0  0  0  0  0  0
  -34.9839    1.5251   20.6753 C   0  0  0  0  0  0  0  0  0  0  0  0
  -35.2561    2.0698   19.6003 O   0  0  0  0  0  0  0  0  0  0  0  0
  -36.0342    1.4061   21.7898 C   0  0  2  0  0  0  0  0  0  0  0  0
  -37.3572    1.4562   21.2363 O   0  0  0  0  0  0  0  0  0  0  0  0
  -36.0296    2.5045   22.8819 C   0  0  2  0  0  0  0  0  0  0  0  0
  -37.4560    3.0028   23.1134 C   0  0  0  0  0  0  0  0  0  0  0  0
  -35.1317    3.6741   22.4693 C   0  0  0  0  0  0  0  0  0  0  0  0
  -35.4913    1.9450   24.1904 C   0  0  0  0  0  0  0  0  0  0  0  0
  -34.1122    2.4176   24.4012 O   0  0  0  0  0  0  0  0  0  0  0  0
  -33.4952    2.1879   25.8694 P   0  0  2  0  0  0  0  0  0  0  0  0
  -34.2875    1.0113   26.3724 O   0  0  0  0  0  0  0  0  0  0  0  0
  -33.4367    3.4647   26.6420 O   0  0  0  0  0  0  0  0  0  0  0  0
  -32.0149    1.8265   25.3860 O   0  0  0  0  0  0  0  0  0  0  0  0
  -30.6570    1.3015   26.0568 P   0  0  2  0  0  0  0  0  0  0  0  0
  -30.3594    2.4481   26.9670 O   0  0  0  0  0  0  0  0  0  0  0  0
  -29.7465    0.7805   25.0277 O   0  0  0  0  0  0  0  0  0  0  0  0
  -31.2500    0.0736   26.9207 O   0  0  0  0  0  0  0  0  0  0  0  0
  -30.6401   -0.3866   28.1426 C   0  0  0  0  0  0  0  0  0  0  0  0
  -31.2017   -1.7377   28.5741 C   0  0  1  0  0  0  0  0  0  0  0  0
  -30.1922   -2.5721   29.2199 O   0  0  0  0  0  0  0  0  0  0  0  0
  -32.3641   -1.7258   29.5714 C   0  0  1  0  0  0  0  0  0  0  0  0
  -33.1655   -2.8300   29.2348 O   0  0  0  0  0  0  0  0  0  0  0  0
  -34.5169   -2.5765   28.4276 P   0  0  1  0  0  0  0  0  0  0  0  0
  -34.2715   -2.6777   27.0068 O   0  0  0  0  0  0  0  0  0  0  0  0
  -35.1874   -3.7903   28.9897 O   0  0  0  0  0  0  0  0  0  0  0  0
  -35.1275   -1.1850   28.8959 O   0  0  0  0  0  0  0  0  0  0  0  0
  -31.6586   -1.9023   30.9174 C   0  0  1  0  0  0  0  0  0  0  0  0
  -32.5464   -2.2595   31.9549 O   0  0  0  0  0  0  0  0  0  0  0  0
  -30.6133   -2.9451   30.5112 C   0  0  2  0  0  0  0  0  0  0  0  0
  -29.4291   -3.0247   31.3613 N   0  0  0  0  0  0  0  0  0  0  0  0
  -28.9111   -2.0833   32.2203 C   0  0  0  0  0  0  0  0  0  0  0  0
  -27.8335   -2.4842   32.8506 N   0  0  0  0  0  0  0  0  0  0  0  0
  -27.5961   -3.7557   32.3475 C   0  0  0  0  0  0  0  0  0  0  0  0
  -28.5657   -4.1057   31.4343 C   0  0  0  0  0  0  0  0  0  0  0  0
  -28.6353   -5.2616   30.7544 N   0  0  0  0  0  0  0  0  0  0  0  0
  -27.6440   -6.0881   31.0991 C   0  0  0  0  0  0  0  0  0  0  0  0
  -26.6458   -5.8914   31.9755 N   0  0  0  0  0  0  0  0  0  0  0  0
  -26.5862   -4.7107   32.6233 C   0  0  0  0  0  0  0  0  0  0  0  0
  -25.6085   -4.4928   33.4887 N   0  0  0  0  0  0  0  0  0  0  0  0
  -26.3309   -7.3040   18.9519 H   0  0  0  0  0  0  0  0  0  0  0  0
  -27.7906   -8.1078   18.2812 H   0  0  0  0  0  0  0  0  0  0  0  0
  -27.6723   -6.3154   18.2812 H   0  0  0  0  0  0  0  0  0  0  0  0
  -29.9942   -7.6070   21.1341 H   0  0  0  0  0  0  0  0  0  0  0  0
  -30.1001   -6.7108   19.5809 H   0  0  0  0  0  0  0  0  0  0  0  0
  -29.7176   -8.4659   19.5809 H   0  0  0  0  0  0  0  0  0  0  0  0
  -27.5307   -8.0148   21.9492 H   0  0  0  0  0  0  0  0  0  0  0  0
  -27.6009   -3.1831   21.5528 H   0  0  0  0  0  0  0  0  0  0  0  0
  -28.4963   -2.7978   20.0394 H   0  0  0  0  0  0  0  0  0  0  0  0
  -29.8923   -2.7062   22.7442 H   0  0  0  0  0  0  0  0  0  0  0  0
  -28.9184   -1.3122   22.1601 H   0  0  0  0  0  0  0  0  0  0  0  0
  -31.2057   -2.4913   20.5814 H   0  0  0  0  0  0  0  0  0  0  0  0
  -31.4423   -0.0703   18.7520 H   0  0  0  0  0  0  0  0  0  0  0  0
  -32.6426   -1.0070   19.6954 H   0  0  0  0  0  0  0  0  0  0  0  0
  -31.9394    1.7341   20.7239 H   0  0  0  0  0  0  0  0  0  0  0  0
  -32.9149    1.6275   19.1876 H   0  0  0  0  0  0  0  0  0  0  0  0
  -33.8136    0.2117   21.6539 H   0  0  0  0  0  0  0  0  0  0  0  0
  -35.7607    0.4510   22.2620 H   0  0  0  0  0  0  0  0  0  0  0  0
  -38.0212    1.4813   21.9701 H   0  0  0  0  0  0  0  0  0  0  0  0
  -37.6498    3.0706   24.1941 H   0  0  0  0  0  0  0  0  0  0  0  0
  -37.5760    3.9962   22.6564 H   0  0  0  0  0  0  0  0  0  0  0  0
  -38.1685    2.3004   22.6564 H   0  0  0  0  0  0  0  0  0  0  0  0
  -34.7465    4.1759   23.3692 H   0  0  0  0  0  0  0  0  0  0  0  0
  -34.2893    3.2965   21.8711 H   0  0  0  0  0  0  0  0  0  0  0  0
  -35.7142    4.3903   21.8711 H   0  0  0  0  0  0  0  0  0  0  0  0
  -36.1256    2.2851   25.0222 H   0  0  0  0  0  0  0  0  0  0  0  0
  -35.4976    0.8459   24.1472 H   0  0  0  0  0  0  0  0  0  0  0  0
  -29.5556   -0.4839   27.9860 H   0  0  0  0  0  0  0  0  0  0  0  0
  -30.8575    0.3460   28.9338 H   0  0  0  0  0  0  0  0  0  0  0  0
  -31.5601   -2.1216   27.6076 H   0  0  0  0  0  0  0  0  0  0  0  0
  -33.0039   -0.8311   29.5820 H   0  0  0  0  0  0  0  0  0  0  0  0
  -31.2113   -1.0037   31.3674 H   0  0  0  0  0  0  0  0  0  0  0  0
  -32.1175   -2.0869   32.8303 H   0  0  0  0  0  0  0  0  0  0  0  0
  -31.0879   -3.9345   30.5882 H   0  0  0  0  0  0  0  0  0  0  0  0
  -29.3584   -1.0888   32.3646 H   0  0  0  0  0  0  0  0  0  0  0  0
  -27.6457   -7.0657   30.5949 H   0  0  0  0  0  0  0  0  0  0  0  0
  -24.8970   -5.2186   33.6553 H   0  0  0  0  0  0  0  0  0  0  0  0
  -25.5594   -3.5975   33.9954 H   0  0  0  0  0  0  0  0  0  0  0  0
  2  1  1  0
  2  3  1  0
  2  4  1  1
  2  5  1  0
  5  6  2  0
  5  7  1  0
  7  8  1  0
  8  9  1  0
  9 10  1  0
 10 11  1  0
 11 12  2  0
 11 13  1  0
 13 14  1  0
 14 15  1  0
 15 16  1  0
 16 17  2  0
 16 18  1  0
 18 19  1  0
 18 20  1  0
 20 21  1  1
 20 22  1  0
 20 23  1  0
 23 24  1  0
 24 25  1  0
 25 26  1  1
 25 27  2  0
 25 28  1  0
 28 29  1  0
 29 30  2  0
 29 31  1  6
 29 32  1  0
 32 33  1  0
 34 33  1  0
 34 35  1  0
 34 36  1  0
 35 44  1  0
 36 37  1  0
 36 42  1  0
 37 38  1  0
 38 39  2  0
 38 40  1  1
 38 41  1  0
 42 43  1  0
 42 44  1  0
 44 45  1  0
 45 46  1  0
 45 49  1  0
 46 47  2  0
 47 48  1  0
 48 49  2  0
 48 53  1  0
 49 50  1  0
 50 51  2  0
 51 52  1  0
 52 53  2  0
 53 54  1  0
  1 55  1  0
  1 56  1  0
  1 57  1  0
  3 58  1  0
  3 59  1  0
  3 60  1  0
  4 61  1  0
  8 62  1  0
  8 63  1  0
  9 64  1  0
  9 65  1  0
 10 66  1  0
 13 67  1  0
 13 68  1  0
 14 69  1  0
 14 70  1  0
 15 71  1  0
 18 72  1  1
 19 73  1  0
 21 74  1  0
 21 75  1  0
 21 76  1  0
 22 77  1  0
 22 78  1  0
 22 79  1  0
 23 80  1  0
 23 81  1  0
 33 82  1  0
 33 83  1  0
 34 84  1  6
 36 85  1  1
 42 86  1  1
 43 87  1  0
 44 88  1  6
 46 89  1  0
 51 90  1  0
 54 91  1  0
 54 92  1  0
M  CHG  4  26  -1  31  -1  40  -1  41  -1
M  END
>  <filename_input>  (16) 
7PT3_3KK_docked.sdf

>  <pdb_id>  (16) 
7PT3_3KK

>  <pose_rank>  (16) 
15

>  <num_atoms_heavy>  (16) 
54

>  <num_torsions>  (16) 
21

>  <pose>  (16) 
[-33.49520899783658, 2.187913230915003, 25.869361183117444, -0.5419598593658045, 1.3668833054847616, 2.3887525114262704, -0.710351243702583, -6.1503670916514155, 0.7472749850295163, 1.1614835205543013, 3.5155462316251254, 2.6396369153702355, 1.5808861794724085, -1.653546651496414, -0.8795069893304894, -0.21368816564547088, -0.3427012208538757, 0.5103848231248819, 0.6447710378183715, -1.5194170661781647, -4.231894240401609, 1.8079270741539866, 0.37931185561283015, -2.623309261934184, 0.2646475865588284, 0.7331786957914754, 0.6175435066022074]

>  <energy>  (16) 
-492.4469167807722

>  <inter_energy>  (16) 
-493.81422574340274

>  <intra_energy>  (16) 
6.511145451748272

>  <rmsd>  (16) 
12.7819

>  <sdf_rank>  (16) 
0

$$$$

     RDKit          3D

 92 94  0  0  0  0  0  0  0  0999 V2000
  -14.2052   -7.0973   25.3821 C   0  0  0  0  0  0  0  0  0  0  0  0
  -13.9693   -7.7119   26.7506 C   0  0  1  0  0  0  0  0  0  0  0  0
  -12.6404   -8.4923   26.7920 C   0  0  0  0  0  0  0  0  0  0  0  0
  -13.9023   -6.5987   27.6679 O   0  0  0  0  0  0  0  0  0  0  0  0
  -15.1745   -8.6372   27.0982 C   0  0  0  0  0  0  0  0  0  0  0  0
  -15.1414   -9.5112   27.9412 O   0  0  0  0  0  0  0  0  0  0  0  0
  -16.6519   -8.3127   26.1837 S   0  0  0  0  0  0  0  0  0  0  0  0
  -17.8926   -8.8047   27.4152 C   0  0  0  0  0  0  0  0  0  0  0  0
  -18.3807  -10.2267   27.1273 C   0  0  0  0  0  0  0  0  0  0  0  0
  -19.6252  -10.4691   27.8329 N   0  0  0  0  0  0  0  0  0  0  0  0
  -19.6554  -10.7016   29.1499 C   0  0  0  0  0  0  0  0  0  0  0  0
  -18.6239  -10.8227   29.8450 O   0  0  0  0  0  0  0  0  0  0  0  0
  -21.0206  -10.7526   29.7945 C   0  0  0  0  0  0  0  0  0  0  0  0
  -21.8434   -9.5515   29.3048 C   0  0  0  0  0  0  0  0  0  0  0  0
  -22.3883   -8.7525   30.3947 N   0  0  0  0  0  0  0  0  0  0  0  0
  -21.6607   -8.1152   31.2854 C   0  0  0  0  0  0  0  0  0  0  0  0
  -20.4780   -7.8147   31.0925 O   0  0  0  0  0  0  0  0  0  0  0  0
  -22.4093   -7.6199   32.5319 C   0  0  2  0  0  0  0  0  0  0  0  0
  -23.7353   -8.1673   32.5681 O   0  0  0  0  0  0  0  0  0  0  0  0
  -22.6178   -6.0910   32.6669 C   0  0  2  0  0  0  0  0  0  0  0  0
  -21.2682   -5.4069   32.8839 C   0  0  0  0  0  0  0  0  0  0  0  0
  -23.5544   -5.7737   33.8359 C   0  0  0  0  0  0  0  0  0  0  0  0
  -23.2492   -5.5310   31.4009 C   0  0  0  0  0  0  0  0  0  0  0  0
  -22.3833   -4.4806   30.8383 O   0  0  0  0  0  0  0  0  0  0  0  0
  -23.0865   -3.0679   30.5241 P   0  0  2  0  0  0  0  0  0  0  0  0
  -23.6335   -2.6730   31.8695 O   0  0  0  0  0  0  0  0  0  0  0  0
  -23.9745   -3.1552   29.3265 O   0  0  0  0  0  0  0  0  0  0  0  0
  -21.7523   -2.2944   30.1032 O   0  0  0  0  0  0  0  0  0  0  0  0
  -21.2861   -1.3167   28.9217 P   0  0  2  0  0  0  0  0  0  0  0  0
  -22.6191   -0.8728   28.4137 O   0  0  0  0  0  0  0  0  0  0  0  0
  -20.2424   -1.9575   28.1095 O   0  0  0  0  0  0  0  0  0  0  0  0
  -20.6300   -0.1348   29.8040 O   0  0  0  0  0  0  0  0  0  0  0  0
  -19.2425    0.2398   29.6973 C   0  0  0  0  0  0  0  0  0  0  0  0
  -19.0733    1.5469   28.9291 C   0  0  1  0  0  0  0  0  0  0  0  0
  -18.1034    1.4256   27.8441 O   0  0  0  0  0  0  0  0  0  0  0  0
  -20.3179    2.1248   28.2490 C   0  0  1  0  0  0  0  0  0  0  0  0
  -20.1751    3.5211   28.3173 O   0  0  0  0  0  0  0  0  0  0  0  0
  -21.2076    4.3530   29.2028 P   0  0  1  0  0  0  0  0  0  0  0  0
  -20.6961    5.6837   29.4408 O   0  0  0  0  0  0  0  0  0  0  0  0
  -22.2745    4.3191   28.1542 O   0  0  0  0  0  0  0  0  0  0  0  0
  -21.5234    3.5204   30.5201 O   0  0  0  0  0  0  0  0  0  0  0  0
  -20.2015    1.5930   26.8191 C   0  0  1  0  0  0  0  0  0  0  0  0
  -21.0528    2.2661   25.9167 O   0  0  0  0  0  0  0  0  0  0  0  0
  -18.6945    1.7716   26.6134 C   0  0  2  0  0  0  0  0  0  0  0  0
  -18.0898    0.9389   25.5779 N   0  0  0  0  0  0  0  0  0  0  0  0
  -18.5912   -0.1856   24.9642 C   0  0  0  0  0  0  0  0  0  0  0  0
  -17.7902   -0.6897   24.0568 N   0  0  0  0  0  0  0  0  0  0  0  0
  -16.6681    0.1258   24.1000 C   0  0  0  0  0  0  0  0  0  0  0  0
  -16.8341    1.1320   25.0255 C   0  0  0  0  0  0  0  0  0  0  0  0
  -15.9420    2.0899   25.3250 N   0  0  0  0  0  0  0  0  0  0  0  0
  -14.8437    1.9832   24.5720 C   0  0  0  0  0  0  0  0  0  0  0  0
  -14.5504    1.0729   23.6293 N   0  0  0  0  0  0  0  0  0  0  0  0
  -15.4541    0.1071   23.3691 C   0  0  0  0  0  0  0  0  0  0  0  0
  -15.1849   -0.8035   22.4469 N   0  0  0  0  0  0  0  0  0  0  0  0
  -14.5971   -6.0765   25.5013 H   0  0  0  0  0  0  0  0  0  0  0  0
  -13.2562   -7.0633   24.8269 H   0  0  0  0  0  0  0  0  0  0  0  0
  -14.9332   -7.7071   24.8269 H   0  0  0  0  0  0  0  0  0  0  0  0
  -12.3483   -8.6638   27.8386 H   0  0  0  0  0  0  0  0  0  0  0  0
  -12.7671   -9.4595   26.2835 H   0  0  0  0  0  0  0  0  0  0  0  0
  -11.8575   -7.9105   26.2835 H   0  0  0  0  0  0  0  0  0  0  0  0
  -13.9226   -6.9361   28.5984 H   0  0  0  0  0  0  0  0  0  0  0  0
  -17.4436   -8.7700   28.4188 H   0  0  0  0  0  0  0  0  0  0  0  0
  -18.7462   -8.1127   27.3644 H   0  0  0  0  0  0  0  0  0  0  0  0
  -18.5444  -10.3450   26.0460 H   0  0  0  0  0  0  0  0  0  0  0  0
  -17.6227  -10.9477   27.4673 H   0  0  0  0  0  0  0  0  0  0  0  0
  -20.5097  -10.4620   27.3052 H   0  0  0  0  0  0  0  0  0  0  0  0
  -21.5277  -11.6875   29.5135 H   0  0  0  0  0  0  0  0  0  0  0  0
  -20.9192  -10.7152   30.8892 H   0  0  0  0  0  0  0  0  0  0  0  0
  -21.1952   -8.9099   28.6899 H   0  0  0  0  0  0  0  0  0  0  0  0
  -22.6936   -9.9474   28.7300 H   0  0  0  0  0  0  0  0  0  0  0  0
  -23.4130   -8.6821   30.4726 H   0  0  0  0  0  0  0  0  0  0  0  0
  -21.7451   -7.9491   33.3446 H   0  0  0  0  0  0  0  0  0  0  0  0
  -24.0185   -8.2842   33.5096 H   0  0  0  0  0  0  0  0  0  0  0  0
  -21.0758   -5.3094   33.9625 H   0  0  0  0  0  0  0  0  0  0  0  0
  -20.4727   -6.0107   32.4226 H   0  0  0  0  0  0  0  0  0  0  0  0
  -21.2848   -4.4084   32.4226 H   0  0  0  0  0  0  0  0  0  0  0  0
  -23.0288   -5.9518   34.7857 H   0  0  0  0  0  0  0  0  0  0  0  0
  -23.8655   -4.7200   33.7810 H   0  0  0  0  0  0  0  0  0  0  0  0
  -24.4419   -6.4214   33.7810 H   0  0  0  0  0  0  0  0  0  0  0  0
  -23.3702   -6.3388   30.6642 H   0  0  0  0  0  0  0  0  0  0  0  0
  -24.2328   -5.1020   31.6428 H   0  0  0  0  0  0  0  0  0  0  0  0
  -18.8269    0.3631   30.7082 H   0  0  0  0  0  0  0  0  0  0  0  0
  -18.7122   -0.5533   29.1496 H   0  0  0  0  0  0  0  0  0  0  0  0
  -18.7639    2.2176   29.7442 H   0  0  0  0  0  0  0  0  0  0  0  0
  -21.2930    1.8602   28.6840 H   0  0  0  0  0  0  0  0  0  0  0  0
  -20.5359    0.5601   26.6426 H   0  0  0  0  0  0  0  0  0  0  0  0
  -21.7199    2.7936   26.4234 H   0  0  0  0  0  0  0  0  0  0  0  0
  -18.5278    2.8070   26.2815 H   0  0  0  0  0  0  0  0  0  0  0  0
  -19.5709   -0.6204   25.2113 H   0  0  0  0  0  0  0  0  0  0  0  0
  -14.0724    2.7473   24.7486 H   0  0  0  0  0  0  0  0  0  0  0  0
  -14.2876   -0.7754   21.9419 H   0  0  0  0  0  0  0  0  0  0  0  0
  -15.8726   -1.5402   22.2344 H   0  0  0  0  0  0  0  0  0  0  0  0
  2  1  1  0
  2  3  1  0
  2  4  1  1
  2  5  1  0
  5  6  2  0
  5  7  1  0
  7  8  1  0
  8  9  1  0
  9 10  1  0
 10 11  1  0
 11 12  2  0
 11 13  1  0
 13 14  1  0
 14 15  1  0
 15 16  1  0
 16 17  2  0
 16 18  1  0
 18 19  1  0
 18 20  1  0
 20 21  1  1
 20 22  1  0
 20 23  1  0
 23 24  1  0
 24 25  1  0
 25 26  1  1
 25 27  2  0
 25 28  1  0
 28 29  1  0
 29 30  2  0
 29 31  1  6
 29 32  1  0
 32 33  1  0
 34 33  1  0
 34 35  1  0
 34 36  1  0
 35 44  1  0
 36 37  1  0
 36 42  1  0
 37 38  1  0
 38 39  2  0
 38 40  1  6
 38 41  1  0
 42 43  1  0
 42 44  1  0
 44 45  1  0
 45 46  1  0
 45 49  1  0
 46 47  2  0
 47 48  1  0
 48 49  2  0
 48 53  1  0
 49 50  1  0
 50 51  2  0
 51 52  1  0
 52 53  2  0
 53 54  1  0
  1 55  1  0
  1 56  1  0
  1 57  1  0
  3 58  1  0
  3 59  1  0
  3 60  1  0
  4 61  1  0
  8 62  1  0
  8 63  1  0
  9 64  1  0
  9 65  1  0
 10 66  1  0
 13 67  1  0
 13 68  1  0
 14 69  1  0
 14 70  1  0
 15 71  1  0
 18 72  1  1
 19 73  1  0
 21 74  1  0
 21 75  1  0
 21 76  1  0
 22 77  1  0
 22 78  1  0
 22 79  1  0
 23 80  1  0
 23 81  1  0
 33 82  1  0
 33 83  1  0
 34 84  1  1
 36 85  1  1
 42 86  1  1
 43 87  1  0
 44 88  1  6
 46 89  1  0
 51 90  1  0
 54 91  1  0
 54 92  1  0
M  CHG  4  26  -1  31  -1  40  -1  41  -1
M  END
>  <filename_input>  (17) 
7PT3_3KK_docked.sdf

>  <pdb_id>  (17) 
7PT3_3KK

>  <pose_rank>  (17) 
16

>  <num_atoms_heavy>  (17) 
54

>  <num_torsions>  (17) 
21

>  <pose>  (17) 
[-23.086514146342694, -3.0678650114215498, 30.52413766328548, -2.216660732496436, 3.1685337336922204, 0.47068850876613233, -0.13931029321613736, 1.2630445405366875, -3.207192360120627, 3.951266303406656, 0.013034143901530942, -0.19189094100480475, 1.0274825198362254, 1.2224460659128003, -0.03488516037783691, -1.6583368393927285, 0.652951885449229, 0.6356314874233255, -1.7133837130920238, 3.836806961190213, 3.4774621881462497, 0.25300090863674, -1.1638313188097213, -1.123081779933015, 0.3515565746499552, 0.5311543620905628, 1.882566625869453]

>  <energy>  (17) 
-457.65385604991513

>  <inter_energy>  (17) 
-489.53748513350007

>  <intra_energy>  (17) 
36.43211670781478

>  <rmsd>  (17) 
10.6534

>  <sdf_rank>  (17) 
0

$$$$

     RDKit          3D

 92 94  0  0  0  0  0  0  0  0999 V2000
  -11.2284   -1.1862   23.8780 C   0  0  0  0  0  0  0  0  0  0  0  0
  -11.9005   -2.0630   22.8361 C   0  0  1  0  0  0  0  0  0  0  0  0
  -13.4362   -1.9928   22.9520 C   0  0  0  0  0  0  0  0  0  0  0  0
  -11.4895   -1.5294   21.5587 O   0  0  0  0  0  0  0  0  0  0  0  0
  -11.3909   -3.5258   23.0089 C   0  0  0  0  0  0  0  0  0  0  0  0
  -10.2612   -3.8183   23.3465 O   0  0  0  0  0  0  0  0  0  0  0  0
  -12.6001   -4.7780   22.7022 S   0  0  0  0  0  0  0  0  0  0  0  0
  -12.5896   -5.6194   24.3116 C   0  0  0  0  0  0  0  0  0  0  0  0
  -13.9610   -5.4897   24.9790 C   0  0  0  0  0  0  0  0  0  0  0  0
  -14.0288   -6.3674   26.1324 N   0  0  0  0  0  0  0  0  0  0  0  0
  -14.5474   -7.5979   26.0528 C   0  0  0  0  0  0  0  0  0  0  0  0
  -15.0929   -8.0426   25.0201 O   0  0  0  0  0  0  0  0  0  0  0  0
  -14.3900   -8.4762   27.2717 C   0  0  0  0  0  0  0  0  0  0  0  0
  -15.5540   -8.1982   28.2346 C   0  0  0  0  0  0  0  0  0  0  0  0
  -16.4287   -9.3492   28.4176 N   0  0  0  0  0  0  0  0  0  0  0  0
  -17.5368   -9.5560   27.7406 C   0  0  0  0  0  0  0  0  0  0  0  0
  -17.7645   -9.0224   26.6499 O   0  0  0  0  0  0  0  0  0  0  0  0
  -18.4783  -10.6290   28.3079 C   0  0  2  0  0  0  0  0  0  0  0  0
  -18.9395  -11.4933   27.2593 O   0  0  0  0  0  0  0  0  0  0  0  0
  -19.7730  -10.1351   29.0000 C   0  0  2  0  0  0  0  0  0  0  0  0
  -20.6312   -9.3681   27.9941 C   0  0  0  0  0  0  0  0  0  0  0  0
  -19.4394   -9.2333   30.1917 C   0  0  0  0  0  0  0  0  0  0  0  0
  -20.5756  -11.3173   29.5228 C   0  0  0  0  0  0  0  0  0  0  0  0
  -21.9172  -11.3131   28.9146 O   0  0  0  0  0  0  0  0  0  0  0  0
  -23.1146  -11.8880   29.8227 P   0  0  2  0  0  0  0  0  0  0  0  0
  -24.1501  -10.8008   29.7180 O   0  0  0  0  0  0  0  0  0  0  0  0
  -22.6163  -12.3524   31.1518 O   0  0  0  0  0  0  0  0  0  0  0  0
  -23.4178  -13.1748   28.9238 O   0  0  0  0  0  0  0  0  0  0  0  0
  -24.7118  -13.9740   28.4178 P   0  0  2  0  0  0  0  0  0  0  0  0
  -24.0745  -14.8990   27.4330 O   0  0  0  0  0  0  0  0  0  0  0  0
  -25.8043  -13.0389   28.1151 O   0  0  0  0  0  0  0  0  0  0  0  0
  -25.0604  -14.7882   29.7674 O   0  0  0  0  0  0  0  0  0  0  0  0
  -24.8134  -16.2007   29.9118 C   0  0  0  0  0  0  0  0  0  0  0  0
  -25.9390  -16.8902   30.6766 C   0  0  1  0  0  0  0  0  0  0  0  0
  -25.4633  -17.5219   31.9042 O   0  0  0  0  0  0  0  0  0  0  0  0
  -27.1079  -16.0157   31.1402 C   0  0  1  0  0  0  0  0  0  0  0  0
  -28.2467  -16.8363   31.0737 O   0  0  0  0  0  0  0  0  0  0  0  0
  -29.3643  -16.5067   29.9853 P   0  0  1  0  0  0  0  0  0  0  0  0
  -30.5308  -17.3306   30.2081 O   0  0  0  0  0  0  0  0  0  0  0  0
  -29.5454  -15.1007   30.4642 O   0  0  0  0  0  0  0  0  0  0  0  0
  -28.7166  -16.6541   28.5406 O   0  0  0  0  0  0  0  0  0  0  0  0
  -26.7207  -15.6659   32.5784 C   0  0  1  0  0  0  0  0  0  0  0  0
  -27.8022  -15.1475   33.3226 O   0  0  0  0  0  0  0  0  0  0  0  0
  -26.1644  -17.0228   33.0193 C   0  0  2  0  0  0  0  0  0  0  0  0
  -25.2424  -16.9961   34.1509 N   0  0  0  0  0  0  0  0  0  0  0  0
  -23.8678  -17.0501   34.1533 C   0  0  0  0  0  0  0  0  0  0  0  0
  -23.3422  -16.9887   35.3529 N   0  0  0  0  0  0  0  0  0  0  0  0
  -24.4372  -16.9332   36.2038 C   0  0  0  0  0  0  0  0  0  0  0  0
  -25.6117  -16.9344   35.4847 C   0  0  0  0  0  0  0  0  0  0  0  0
  -26.8538  -16.8950   35.9935 N   0  0  0  0  0  0  0  0  0  0  0  0
  -26.8300  -16.8126   37.3266 C   0  0  0  0  0  0  0  0  0  0  0  0
  -25.7720  -16.7873   38.1531 N   0  0  0  0  0  0  0  0  0  0  0  0
  -24.5379  -16.8555   37.6152 C   0  0  0  0  0  0  0  0  0  0  0  0
  -23.4801  -16.8365   38.4108 N   0  0  0  0  0  0  0  0  0  0  0  0
  -11.4990   -1.5392   24.8841 H   0  0  0  0  0  0  0  0  0  0  0  0
  -10.1368   -1.2386   23.7524 H   0  0  0  0  0  0  0  0  0  0  0  0
  -11.5624   -0.1457   23.7524 H   0  0  0  0  0  0  0  0  0  0  0  0
  -13.7235   -1.9797   24.0138 H   0  0  0  0  0  0  0  0  0  0  0  0
  -13.7994   -1.0771   22.4625 H   0  0  0  0  0  0  0  0  0  0  0  0
  -13.8814   -2.8715   22.4625 H   0  0  0  0  0  0  0  0  0  0  0  0
  -10.8917   -0.7534   21.7021 H   0  0  0  0  0  0  0  0  0  0  0  0
  -12.3553   -6.6841   24.1645 H   0  0  0  0  0  0  0  0  0  0  0  0
  -11.8288   -5.1556   24.9566 H   0  0  0  0  0  0  0  0  0  0  0  0
  -14.1135   -4.4492   25.3018 H   0  0  0  0  0  0  0  0  0  0  0  0
  -14.7441   -5.7720   24.2600 H   0  0  0  0  0  0  0  0  0  0  0  0
  -13.6676   -6.0338   27.0375 H   0  0  0  0  0  0  0  0  0  0  0  0
  -14.4043   -9.5339   26.9698 H   0  0  0  0  0  0  0  0  0  0  0  0
  -13.4332   -8.2585   27.7687 H   0  0  0  0  0  0  0  0  0  0  0  0
  -15.1393   -7.9140   29.2130 H   0  0  0  0  0  0  0  0  0  0  0  0
  -16.1591   -7.3916   27.7951 H   0  0  0  0  0  0  0  0  0  0  0  0
  -16.1608  -10.0481   29.1251 H   0  0  0  0  0  0  0  0  0  0  0  0
  -17.8455  -11.1115   29.0673 H   0  0  0  0  0  0  0  0  0  0  0  0
  -19.3667  -12.2938   27.6553 H   0  0  0  0  0  0  0  0  0  0  0  0
  -21.3460   -8.7294   28.5338 H   0  0  0  0  0  0  0  0  0  0  0  0
  -19.9842   -8.7418   27.3624 H   0  0  0  0  0  0  0  0  0  0  0  0
  -21.1812  -10.0812   27.3624 H   0  0  0  0  0  0  0  0  0  0  0  0
  -19.6396   -9.7743   31.1283 H   0  0  0  0  0  0  0  0  0  0  0  0
  -18.3772   -8.9505   30.1515 H   0  0  0  0  0  0  0  0  0  0  0  0
  -20.0619   -8.3272   30.1515 H   0  0  0  0  0  0  0  0  0  0  0  0
  -20.0593  -12.2533   29.2634 H   0  0  0  0  0  0  0  0  0  0  0  0
  -20.6704  -11.2390   30.6159 H   0  0  0  0  0  0  0  0  0  0  0  0
  -24.7310  -16.6530   28.9125 H   0  0  0  0  0  0  0  0  0  0  0  0
  -23.8802  -16.3314   30.4793 H   0  0  0  0  0  0  0  0  0  0  0  0
  -26.2971  -17.5941   29.9109 H   0  0  0  0  0  0  0  0  0  0  0  0
  -27.3105  -15.1039   30.5593 H   0  0  0  0  0  0  0  0  0  0  0  0
  -26.0009  -14.8455   32.7154 H   0  0  0  0  0  0  0  0  0  0  0  0
  -27.6112  -15.2390   34.2897 H   0  0  0  0  0  0  0  0  0  0  0  0
  -27.0147  -17.6334   33.3572 H   0  0  0  0  0  0  0  0  0  0  0  0
  -23.2668  -17.1366   33.2361 H   0  0  0  0  0  0  0  0  0  0  0  0
  -27.8140  -16.7579   37.8153 H   0  0  0  0  0  0  0  0  0  0  0  0
  -23.6045  -16.7792   39.4316 H   0  0  0  0  0  0  0  0  0  0  0  0
  -22.5327  -16.8790   38.0090 H   0  0  0  0  0  0  0  0  0  0  0  0
  2  1  1  0
  2  3  1  0
  2  4  1  6
  2  5  1  0
  5  6  2  0
  5  7  1  0
  7  8  1  0
  8  9  1  0
  9 10  1  0
 10 11  1  0
 11 12  2  0
 11 13  1  0
 13 14  1  0
 14 15  1  0
 15 16  1  0
 16 17  2  0
 16 18  1  0
 18 19  1  0
 18 20  1  0
 20 21  1  6
 20 22  1  0
 20 23  1  0
 23 24  1  0
 24 25  1  0
 25 26  1  1
 25 27  2  0
 25 28  1  0
 28 29  1  0
 29 30  2  0
 29 31  1  6
 29 32  1  0
 32 33  1  0
 34 33  1  0
 34 35  1  0
 34 36  1  0
 35 44  1  0
 36 37  1  0
 36 42  1  0
 37 38  1  0
 38 39  2  0
 38 40  1  1
 38 41  1  0
 42 43  1  0
 42 44  1  0
 44 45  1  0
 45 46  1  0
 45 49  1  0
 46 47  2  0
 47 48  1  0
 48 49  2  0
 48 53  1  0
 49 50  1  0
 50 51  2  0
 51 52  1  0
 52 53  2  0
 53 54  1  0
  1 55  1  0
  1 56  1  0
  1 57  1  0
  3 58  1  0
  3 59  1  0
  3 60  1  0
  4 61  1  0
  8 62  1  0
  8 63  1  0
  9 64  1  0
  9 65  1  0
 10 66  1  0
 13 67  1  0
 13 68  1  0
 14 69  1  0
 14 70  1  0
 15 71  1  0
 18 72  1  1
 19 73  1  0
 21 74  1  0
 21 75  1  0
 21 76  1  0
 22 77  1  0
 22 78  1  0
 22 79  1  0
 23 80  1  0
 23 81  1  0
 33 82  1  0
 33 83  1  0
 34 84  1  6
 36 85  1  6
 42 86  1  6
 43 87  1  0
 44 88  1  1
 46 89  1  0
 51 90  1  0
 54 91  1  0
 54 92  1  0
M  CHG  4  26  -1  31  -1  40  -1  41  -1
M  END
>  <filename_input>  (18) 
7PT3_3KK_docked.sdf

>  <pdb_id>  (18) 
7PT3_3KK

>  <pose_rank>  (18) 
17

>  <num_atoms_heavy>  (18) 
54

>  <num_torsions>  (18) 
21

>  <pose>  (18) 
[-23.114588813936788, -11.888024011371256, 29.822667836142895, -1.6339050131946184, -1.7141154684487205, -4.677514083044379, 1.1159758228051593, 0.9131173614871433, 3.094311113583645, -0.08502089426578799, 3.7767771583995122, -2.9356797426525922, -1.0434510449059382, 3.5447245149532622, -0.36243425591681067, -2.1441741046562486, 4.410327725080272, 1.126277845535392, 1.1537946621267055, -0.9474886901520008, -0.14777351069375674, 2.6017979053319333, 0.8309658906403443, -0.9707070241768844, -1.112732510750171, 0.5699249561875325, -3.9817279990016425]

>  <energy>  (18) 
-469.9964165138963

>  <inter_energy>  (18) 
-478.91565321155053

>  <intra_energy>  (18) 
11.316595887946749

>  <rmsd>  (18) 
12.6778

>  <sdf_rank>  (18) 
0

$$$$

     RDKit          3D

 92 94  0  0  0  0  0  0  0  0999 V2000
  -35.5477   -1.0177   28.2973 C   0  0  0  0  0  0  0  0  0  0  0  0
  -35.0040   -2.3853   27.9228 C   0  0  1  0  0  0  0  0  0  0  0  0
  -36.0843   -3.2502   27.2437 C   0  0  0  0  0  0  0  0  0  0  0  0
  -33.9323   -2.1326   26.9885 O   0  0  0  0  0  0  0  0  0  0  0  0
  -34.4585   -3.0763   29.2091 C   0  0  0  0  0  0  0  0  0  0  0  0
  -34.9264   -4.0897   29.6886 O   0  0  0  0  0  0  0  0  0  0  0  0
  -33.0544   -2.2898   29.9400 S   0  0  0  0  0  0  0  0  0  0  0  0
  -31.8270   -3.6158   29.7576 C   0  0  0  0  0  0  0  0  0  0  0  0
  -32.1102   -4.7334   30.7644 C   0  0  0  0  0  0  0  0  0  0  0  0
  -30.8617   -5.3437   31.1819 N   0  0  0  0  0  0  0  0  0  0  0  0
  -30.7334   -6.6689   31.3123 C   0  0  0  0  0  0  0  0  0  0  0  0
  -31.6896   -7.4628   31.1814 O   0  0  0  0  0  0  0  0  0  0  0  0
  -29.3389   -7.1893   31.5700 C   0  0  0  0  0  0  0  0  0  0  0  0
  -29.3629   -8.0620   32.8337 C   0  0  0  0  0  0  0  0  0  0  0  0
  -28.0491   -8.5798   33.1929 N   0  0  0  0  0  0  0  0  0  0  0  0
  -27.2079   -7.9758   34.0032 C   0  0  0  0  0  0  0  0  0  0  0  0
  -27.5635   -7.1227   34.8229 O   0  0  0  0  0  0  0  0  0  0  0  0
  -25.7653   -8.5032   33.9861 C   0  0  2  0  0  0  0  0  0  0  0  0
  -25.2448   -8.5766   35.3214 O   0  0  0  0  0  0  0  0  0  0  0  0
  -24.7190   -7.6670   33.2082 C   0  0  2  0  0  0  0  0  0  0  0  0
  -25.1037   -7.6115   31.7299 C   0  0  0  0  0  0  0  0  0  0  0  0
  -23.3212   -8.2739   33.3584 C   0  0  0  0  0  0  0  0  0  0  0  0
  -24.6692   -6.2466   33.7517 C   0  0  0  0  0  0  0  0  0  0  0  0
  -23.8564   -5.4028   32.8590 O   0  0  0  0  0  0  0  0  0  0  0  0
  -24.4611   -3.9561   32.4979 P   0  0  2  0  0  0  0  0  0  0  0  0
  -24.0729   -3.7953   31.0526 O   0  0  0  0  0  0  0  0  0  0  0  0
  -24.0767   -2.9347   33.5174 O   0  0  0  0  0  0  0  0  0  0  0  0
  -25.9953   -4.3415   32.7285 O   0  0  0  0  0  0  0  0  0  0  0  0
  -27.4243   -3.8250   32.2182 P   0  0  2  0  0  0  0  0  0  0  0  0
  -28.3081   -4.4600   33.2416 O   0  0  0  0  0  0  0  0  0  0  0  0
  -27.5454   -4.0088   30.7653 O   0  0  0  0  0  0  0  0  0  0  0  0
  -27.2674   -2.2529   32.5493 O   0  0  0  0  0  0  0  0  0  0  0  0
  -27.3031   -1.7314   33.8924 C   0  0  0  0  0  0  0  0  0  0  0  0
  -27.8516   -0.3083   33.9256 C   0  0  1  0  0  0  0  0  0  0  0  0
  -27.0062    0.5889   34.7086 O   0  0  0  0  0  0  0  0  0  0  0  0
  -28.0105    0.4118   32.5832 C   0  0  1  0  0  0  0  0  0  0  0  0
  -29.1400    1.2357   32.7248 O   0  0  0  0  0  0  0  0  0  0  0  0
  -30.4834    0.8283   31.9686 P   0  0  1  0  0  0  0  0  0  0  0  0
  -30.8806   -0.5081   32.3500 O   0  0  0  0  0  0  0  0  0  0  0  0
  -31.2931    1.8903   32.6435 O   0  0  0  0  0  0  0  0  0  0  0  0
  -30.2619    1.0323   30.4073 O   0  0  0  0  0  0  0  0  0  0  0  0
  -26.7115    1.2123   32.4714 C   0  0  1  0  0  0  0  0  0  0  0  0
  -26.7737    2.2156   31.4806 O   0  0  0  0  0  0  0  0  0  0  0  0
  -26.5866    1.6808   33.9240 C   0  0  2  0  0  0  0  0  0  0  0  0
  -25.2443    2.0540   34.3599 N   0  0  0  0  0  0  0  0  0  0  0  0
  -24.0261    1.6528   33.8623 C   0  0  0  0  0  0  0  0  0  0  0  0
  -23.0032    2.1931   34.4794 N   0  0  0  0  0  0  0  0  0  0  0  0
  -23.5766    2.9690   35.4772 C   0  0  0  0  0  0  0  0  0  0  0  0
  -24.9506    2.8982   35.4183 C   0  0  0  0  0  0  0  0  0  0  0  0
  -25.8132    3.5205   36.2381 N   0  0  0  0  0  0  0  0  0  0  0  0
  -25.1724    4.2786   37.1321 C   0  0  0  0  0  0  0  0  0  0  0  0
  -23.8518    4.4555   37.2985 N   0  0  0  0  0  0  0  0  0  0  0  0
  -23.0094    3.7967   36.4778 C   0  0  0  0  0  0  0  0  0  0  0  0
  -21.7032    3.9525   36.6259 N   0  0  0  0  0  0  0  0  0  0  0  0
  -35.5845   -0.9251   29.3928 H   0  0  0  0  0  0  0  0  0  0  0  0
  -34.8916   -0.2368   27.8852 H   0  0  0  0  0  0  0  0  0  0  0  0
  -36.5608   -0.9005   27.8852 H   0  0  0  0  0  0  0  0  0  0  0  0
  -36.6980   -3.7415   28.0132 H   0  0  0  0  0  0  0  0  0  0  0  0
  -36.7243   -2.6121   26.6166 H   0  0  0  0  0  0  0  0  0  0  0  0
  -35.6016   -4.0143   26.6166 H   0  0  0  0  0  0  0  0  0  0  0  0
  -33.0996   -1.9362   27.4867 H   0  0  0  0  0  0  0  0  0  0  0  0
  -31.8796   -4.0230   28.7370 H   0  0  0  0  0  0  0  0  0  0  0  0
  -30.8231   -3.2069   29.9448 H   0  0  0  0  0  0  0  0  0  0  0  0
  -32.6233   -4.3134   31.6421 H   0  0  0  0  0  0  0  0  0  0  0  0
  -32.7483   -5.4953   30.2929 H   0  0  0  0  0  0  0  0  0  0  0  0
  -30.0519   -4.7399   31.3835 H   0  0  0  0  0  0  0  0  0  0  0  0
  -29.0039   -7.7903   30.7117 H   0  0  0  0  0  0  0  0  0  0  0  0
  -28.6453   -6.3471   31.7100 H   0  0  0  0  0  0  0  0  0  0  0  0
  -29.7420   -7.4569   33.6705 H   0  0  0  0  0  0  0  0  0  0  0  0
  -30.0112   -8.9257   32.6249 H   0  0  0  0  0  0  0  0  0  0  0  0
  -27.7598   -9.4800   32.7845 H   0  0  0  0  0  0  0  0  0  0  0  0
  -25.8804   -9.4706   33.4753 H   0  0  0  0  0  0  0  0  0  0  0  0
  -25.9852   -8.4722   35.9704 H   0  0  0  0  0  0  0  0  0  0  0  0
  -26.1887   -7.4552   31.6390 H   0  0  0  0  0  0  0  0  0  0  0  0
  -24.5715   -6.7808   31.2434 H   0  0  0  0  0  0  0  0  0  0  0  0
  -24.8277   -8.5587   31.2434 H   0  0  0  0  0  0  0  0  0  0  0  0
  -23.0797   -8.3787   34.4264 H   0  0  0  0  0  0  0  0  0  0  0  0
  -23.2975   -9.2633   32.8783 H   0  0  0  0  0  0  0  0  0  0  0  0
  -22.5821   -7.6156   32.8783 H   0  0  0  0  0  0  0  0  0  0  0  0
  -25.6901   -5.8410   33.8092 H   0  0  0  0  0  0  0  0  0  0  0  0
  -24.2188   -6.2556   34.7552 H   0  0  0  0  0  0  0  0  0  0  0  0
  -27.9458   -2.3766   34.5093 H   0  0  0  0  0  0  0  0  0  0  0  0
  -26.2750   -1.7140   34.2831 H   0  0  0  0  0  0  0  0  0  0  0  0
  -28.8470   -0.4892   34.3575 H   0  0  0  0  0  0  0  0  0  0  0  0
  -28.1572   -0.2177   31.6931 H   0  0  0  0  0  0  0  0  0  0  0  0
  -25.8207    0.6706   32.1205 H   0  0  0  0  0  0  0  0  0  0  0  0
  -26.8288    3.1041   31.9137 H   0  0  0  0  0  0  0  0  0  0  0  0
  -27.1862    2.5972   34.0272 H   0  0  0  0  0  0  0  0  0  0  0  0
  -23.9202    0.9460   33.0261 H   0  0  0  0  0  0  0  0  0  0  0  0
  -25.8162    4.8353   37.8289 H   0  0  0  0  0  0  0  0  0  0  0  0
  -21.3387    4.5655   37.3690 H   0  0  0  0  0  0  0  0  0  0  0  0
  -21.0515    3.4606   35.9981 H   0  0  0  0  0  0  0  0  0  0  0  0
  2  1  1  0
  2  3  1  0
  2  4  1  6
  2  5  1  0
  5  6  2  0
  5  7  1  0
  7  8  1  0
  8  9  1  0
  9 10  1  0
 10 11  1  0
 11 12  2  0
 11 13  1  0
 13 14  1  0
 14 15  1  0
 15 16  1  0
 16 17  2  0
 16 18  1  0
 18 19  1  0
 18 20  1  0
 20 21  1  6
 20 22  1  0
 20 23  1  0
 23 24  1  0
 24 25  1  0
 25 26  1  6
 25 27  2  0
 25 28  1  0
 28 29  1  0
 29 30  2  0
 29 31  1  6
 29 32  1  0
 32 33  1  0
 34 33  1  0
 34 35  1  0
 34 36  1  0
 35 44  1  0
 36 37  1  0
 36 42  1  0
 37 38  1  0
 38 39  2  0
 38 40  1  1
 38 41  1  0
 42 43  1  0
 42 44  1  0
 44 45  1  0
 45 46  1  0
 45 49  1  0
 46 47  2  0
 47 48  1  0
 48 49  2  0
 48 53  1  0
 49 50  1  0
 50 51  2  0
 51 52  1  0
 52 53  2  0
 53 54  1  0
  1 55  1  0
  1 56  1  0
  1 57  1  0
  3 58  1  0
  3 59  1  0
  3 60  1  0
  4 61  1  0
  8 62  1  0
  8 63  1  0
  9 64  1  0
  9 65  1  0
 10 66  1  0
 13 67  1  0
 13 68  1  0
 14 69  1  0
 14 70  1  0
 15 71  1  0
 18 72  1  6
 19 73  1  0
 21 74  1  0
 21 75  1  0
 21 76  1  0
 22 77  1  0
 22 78  1  0
 22 79  1  0
 23 80  1  0
 23 81  1  0
 33 82  1  0
 33 83  1  0
 34 84  1  1
 36 85  1  6
 42 86  1  6
 43 87  1  0
 44 88  1  6
 46 89  1  0
 51 90  1  0
 54 91  1  0
 54 92  1  0
M  CHG  4  26  -1  31  -1  40  -1  41  -1
M  END
>  <filename_input>  (19) 
7PT3_3KK_docked.sdf

>  <pdb_id>  (19) 
7PT3_3KK

>  <pose_rank>  (19) 
18

>  <num_atoms_heavy>  (19) 
54

>  <num_torsions>  (19) 
21

>  <pose>  (19) 
[-24.461050936282092, -3.956092899862153, 32.49787720998158, 4.270590544648429, -1.594947885167874, 2.645484200437301, -3.6316229617371616, -0.4312667232467135, 8.531171361440462, 4.039924351933377, -2.5753931707289004, 0.313525096509377, 0.11795211669710068, 4.2362537712650115, -1.1131209409788843, 4.897656637542746, 1.0817499479934773, 1.200215278079549, 3.7760196665275108, -7.494565727022844, -5.97424093792054, -3.0986916214740976, 0.6685037215256783, 5.107605026408565, 0.21097772507138285, -5.633493501700883, -6.291684816702136]

>  <energy>  (19) 
-457.9522454024028

>  <inter_energy>  (19) 
-480.75810728903394

>  <intra_energy>  (19) 
22.167190795855714

>  <rmsd>  (19) 
11.5907

>  <sdf_rank>  (19) 
0

$$$$

     RDKit          3D

 92 94  0  0  0  0  0  0  0  0999 V2000
  -11.3572    0.5269   21.3273 C   0  0  0  0  0  0  0  0  0  0  0  0
  -11.2696   -0.3808   22.5416 C   0  0  1  0  0  0  0  0  0  0  0  0
  -10.0809    0.0051   23.4441 C   0  0  0  0  0  0  0  0  0  0  0  0
  -12.5052   -0.1826   23.2622 O   0  0  0  0  0  0  0  0  0  0  0  0
  -11.1492   -1.8568   22.0554 C   0  0  0  0  0  0  0  0  0  0  0  0
  -11.1742   -2.1939   20.8885 O   0  0  0  0  0  0  0  0  0  0  0  0
  -10.9387   -3.0509   23.3415 S   0  0  0  0  0  0  0  0  0  0  0  0
  -12.6313   -3.7017   23.4397 C   0  0  0  0  0  0  0  0  0  0  0  0
  -12.6069   -5.1523   23.9277 C   0  0  0  0  0  0  0  0  0  0  0  0
  -13.7212   -5.3847   24.8275 N   0  0  0  0  0  0  0  0  0  0  0  0
  -13.8250   -6.5081   25.5462 C   0  0  0  0  0  0  0  0  0  0  0  0
  -13.0353   -7.4694   25.4271 O   0  0  0  0  0  0  0  0  0  0  0  0
  -14.9260   -6.5483   26.5797 C   0  0  0  0  0  0  0  0  0  0  0  0
  -15.9714   -7.5875   26.1478 C   0  0  0  0  0  0  0  0  0  0  0  0
  -16.6379   -8.2269   27.2748 N   0  0  0  0  0  0  0  0  0  0  0  0
  -16.3310   -9.4169   27.7425 C   0  0  0  0  0  0  0  0  0  0  0  0
  -15.2378   -9.9549   27.5385 O   0  0  0  0  0  0  0  0  0  0  0  0
  -17.3561  -10.0463   28.6978 C   0  0  2  0  0  0  0  0  0  0  0  0
  -16.7367  -11.0689   29.4914 O   0  0  0  0  0  0  0  0  0  0  0  0
  -18.5814  -10.7434   28.0559 C   0  0  2  0  0  0  0  0  0  0  0  0
  -19.0169  -11.9202   28.9288 C   0  0  0  0  0  0  0  0  0  0  0  0
  -18.2453  -11.2389   26.6466 C   0  0  0  0  0  0  0  0  0  0  0  0
  -19.7429   -9.7674   27.9402 C   0  0  0  0  0  0  0  0  0  0  0  0
  -20.0068   -9.1535   29.2528 O   0  0  0  0  0  0  0  0  0  0  0  0
  -20.7587   -7.7310   29.2377 P   0  0  2  0  0  0  0  0  0  0  0  0
  -22.2068   -8.1320   29.1509 O   0  0  0  0  0  0  0  0  0  0  0  0
  -20.1538   -6.8053   28.2339 O   0  0  0  0  0  0  0  0  0  0  0  0
  -20.2905   -7.2664   30.6938 O   0  0  0  0  0  0  0  0  0  0  0  0
  -20.5890   -6.0452   31.6881 P   0  0  2  0  0  0  0  0  0  0  0  0
  -21.9054   -5.5895   31.1485 O   0  0  0  0  0  0  0  0  0  0  0  0
  -19.3957   -5.1996   31.8320 O   0  0  0  0  0  0  0  0  0  0  0  0
  -20.8287   -6.8723   33.0534 O   0  0  0  0  0  0  0  0  0  0  0  0
  -21.9880   -6.6808   33.8880 C   0  0  0  0  0  0  0  0  0  0  0  0
  -22.9931   -7.8157   33.7184 C   0  0  1  0  0  0  0  0  0  0  0  0
  -24.3477   -7.4099   34.0831 O   0  0  0  0  0  0  0  0  0  0  0  0
  -23.1503   -8.4072   32.3144 C   0  0  1  0  0  0  0  0  0  0  0  0
  -23.4301   -9.7710   32.5051 O   0  0  0  0  0  0  0  0  0  0  0  0
  -22.4827  -10.8502   31.8123 P   0  0  1  0  0  0  0  0  0  0  0  0
  -22.7744  -12.1687   32.3276 O   0  0  0  0  0  0  0  0  0  0  0  0
  -23.0596  -10.6171   30.4515 O   0  0  0  0  0  0  0  0  0  0  0  0
  -20.9734  -10.3862   31.9988 O   0  0  0  0  0  0  0  0  0  0  0  0
  -24.3467   -7.6363   31.7531 C   0  0  1  0  0  0  0  0  0  0  0  0
  -24.8914   -8.2407   30.5997 O   0  0  0  0  0  0  0  0  0  0  0  0
  -25.2301   -7.6105   33.0037 C   0  0  2  0  0  0  0  0  0  0  0  0
  -26.2386   -6.5561   33.0497 N   0  0  0  0  0  0  0  0  0  0  0  0
  -27.6096   -6.6625   33.0094 C   0  0  0  0  0  0  0  0  0  0  0  0
  -28.2282   -5.5091   33.0867 N   0  0  0  0  0  0  0  0  0  0  0  0
  -27.2037   -4.5743   33.1388 C   0  0  0  0  0  0  0  0  0  0  0  0
  -25.9759   -5.1976   33.1195 C   0  0  0  0  0  0  0  0  0  0  0  0
  -24.7778   -4.5920   33.1510 N   0  0  0  0  0  0  0  0  0  0  0  0
  -24.9066   -3.2657   33.2454 C   0  0  0  0  0  0  0  0  0  0  0  0
  -26.0266   -2.5262   33.2886 N   0  0  0  0  0  0  0  0  0  0  0  0
  -27.2147   -3.1600   33.2280 C   0  0  0  0  0  0  0  0  0  0  0  0
  -28.3321   -2.4513   33.2646 N   0  0  0  0  0  0  0  0  0  0  0  0
  -11.4580    1.5715   21.6568 H   0  0  0  0  0  0  0  0  0  0  0  0
  -10.4445    0.4196   20.7227 H   0  0  0  0  0  0  0  0  0  0  0  0
  -12.2325    0.2471   20.7227 H   0  0  0  0  0  0  0  0  0  0  0  0
  -10.3757   -0.0906   24.4996 H   0  0  0  0  0  0  0  0  0  0  0  0
   -9.2321   -0.6637   23.2384 H   0  0  0  0  0  0  0  0  0  0  0  0
   -9.7867    1.0449   23.2384 H   0  0  0  0  0  0  0  0  0  0  0  0
  -12.3276   -0.2111   24.2358 H   0  0  0  0  0  0  0  0  0  0  0  0
  -13.2163   -3.0906   24.1428 H   0  0  0  0  0  0  0  0  0  0  0  0
  -13.0911   -3.6644   22.4411 H   0  0  0  0  0  0  0  0  0  0  0  0
  -12.6864   -5.8298   23.0647 H   0  0  0  0  0  0  0  0  0  0  0  0
  -11.6632   -5.3415   24.4603 H   0  0  0  0  0  0  0  0  0  0  0  0
  -14.4526   -4.6647   24.9153 H   0  0  0  0  0  0  0  0  0  0  0  0
  -14.5063   -6.8299   27.5566 H   0  0  0  0  0  0  0  0  0  0  0  0
  -15.3963   -5.5574   26.6640 H   0  0  0  0  0  0  0  0  0  0  0  0
  -16.7307   -7.0853   25.5304 H   0  0  0  0  0  0  0  0  0  0  0  0
  -15.4424   -8.3737   25.5891 H   0  0  0  0  0  0  0  0  0  0  0  0
  -17.4010   -7.7117   27.7364 H   0  0  0  0  0  0  0  0  0  0  0  0
  -17.7142   -9.1709   29.2595 H   0  0  0  0  0  0  0  0  0  0  0  0
  -16.8617  -10.8625   30.4516 H   0  0  0  0  0  0  0  0  0  0  0  0
  -18.9158  -11.6471   29.9895 H   0  0  0  0  0  0  0  0  0  0  0  0
  -20.0664  -12.1685   28.7125 H   0  0  0  0  0  0  0  0  0  0  0  0
  -18.3818  -12.7919   28.7125 H   0  0  0  0  0  0  0  0  0  0  0  0
  -17.6290  -12.1475   26.7147 H   0  0  0  0  0  0  0  0  0  0  0  0
  -19.1760  -11.4668   26.1064 H   0  0  0  0  0  0  0  0  0  0  0  0
  -17.6894  -10.4584   26.1064 H   0  0  0  0  0  0  0  0  0  0  0  0
  -19.4896   -8.9817   27.2132 H   0  0  0  0  0  0  0  0  0  0  0  0
  -20.6403  -10.3067   27.6028 H   0  0  0  0  0  0  0  0  0  0  0  0
  -21.6684   -6.6407   34.9398 H   0  0  0  0  0  0  0  0  0  0  0  0
  -22.4757   -5.7408   33.5905 H   0  0  0  0  0  0  0  0  0  0  0  0
  -22.5504   -8.5738   34.3812 H   0  0  0  0  0  0  0  0  0  0  0  0
  -22.2853   -8.3279   31.6394 H   0  0  0  0  0  0  0  0  0  0  0  0
  -24.1484   -6.6319   31.3509 H   0  0  0  0  0  0  0  0  0  0  0  0
  -25.5293   -8.9486   30.8681 H   0  0  0  0  0  0  0  0  0  0  0  0
  -25.7989   -8.5517   33.0247 H   0  0  0  0  0  0  0  0  0  0  0  0
  -28.1367   -7.6239   32.9208 H   0  0  0  0  0  0  0  0  0  0  0  0
  -23.9640   -2.7008   33.2946 H   0  0  0  0  0  0  0  0  0  0  0  0
  -28.2886   -1.4243   33.3298 H   0  0  0  0  0  0  0  0  0  0  0  0
  -29.2450   -2.9268   33.2280 H   0  0  0  0  0  0  0  0  0  0  0  0
  2  1  1  0
  2  3  1  0
  2  4  1  1
  2  5  1  0
  5  6  2  0
  5  7  1  0
  7  8  1  0
  8  9  1  0
  9 10  1  0
 10 11  1  0
 11 12  2  0
 11 13  1  0
 13 14  1  0
 14 15  1  0
 15 16  1  0
 16 17  2  0
 16 18  1  0
 18 19  1  0
 18 20  1  0
 20 21  1  1
 20 22  1  0
 20 23  1  0
 23 24  1  0
 24 25  1  0
 25 26  1  1
 25 27  2  0
 25 28  1  0
 28 29  1  0
 29 30  2  0
 29 31  1  1
 29 32  1  0
 32 33  1  0
 34 33  1  0
 34 35  1  0
 34 36  1  0
 35 44  1  0
 36 37  1  0
 36 42  1  0
 37 38  1  0
 38 39  2  0
 38 40  1  6
 38 41  1  0
 42 43  1  0
 42 44  1  0
 44 45  1  0
 45 46  1  0
 45 49  1  0
 46 47  2  0
 47 48  1  0
 48 49  2  0
 48 53  1  0
 49 50  1  0
 50 51  2  0
 51 52  1  0
 52 53  2  0
 53 54  1  0
  1 55  1  0
  1 56  1  0
  1 57  1  0
  3 58  1  0
  3 59  1  0
  3 60  1  0
  4 61  1  0
  8 62  1  0
  8 63  1  0
  9 64  1  0
  9 65  1  0
 10 66  1  0
 13 67  1  0
 13 68  1  0
 14 69  1  0
 14 70  1  0
 15 71  1  0
 18 72  1  1
 19 73  1  0
 21 74  1  0
 21 75  1  0
 21 76  1  0
 22 77  1  0
 22 78  1  0
 22 79  1  0
 23 80  1  0
 23 81  1  0
 33 82  1  0
 33 83  1  0
 34 84  1  1
 36 85  1  6
 42 86  1  6
 43 87  1  0
 44 88  1  1
 46 89  1  0
 51 90  1  0
 54 91  1  0
 54 92  1  0
M  CHG  4  26  -1  31  -1  40  -1  41  -1
M  END
>  <filename_input>  (20) 
7PT3_3KK_docked.sdf

>  <pdb_id>  (20) 
7PT3_3KK

>  <pose_rank>  (20) 
19

>  <num_atoms_heavy>  (20) 
54

>  <num_torsions>  (20) 
21

>  <pose>  (20) 
[-20.75873760644424, -7.731049387748869, 29.237658515240515, 2.585603515173431, -2.748133867818718, -0.16293010656670553, 0.3208268283794563, 6.229714370815184, -1.9936511072815581, -4.86406530734318, -2.9462431966822815, 3.2597024101488787, -0.45194345414612375, -2.27974328153073, 4.60398695097321, -2.630079359553186, -1.2642562760862885, -1.269258383573702, 1.719652512979834, -1.5361694967258737, 3.533935515648982, 2.2027061385394826, -1.1797836822668195, 4.671096174465919, 2.609311753760822, 0.3655171994522192, 1.963177608268678]

>  <energy>  (20) 
-425.203239484437

>  <inter_energy>  (20) 
-471.8175237328019

>  <intra_energy>  (20) 
50.037434098387145

>  <rmsd>  (20) 
9.64654

>  <sdf_rank>  (20) 
0

$$$$

     RDKit          3D

 92 94  0  0  0  0  0  0  0  0999 V2000
  -22.0310   -6.8213   33.4615 C   0  0  0  0  0  0  0  0  0  0  0  0
  -22.5629   -6.3784   32.1098 C   0  0  1  0  0  0  0  0  0  0  0  0
  -22.0538   -4.9705   31.7420 C   0  0  0  0  0  0  0  0  0  0  0  0
  -22.0517   -7.3384   31.1599 O   0  0  0  0  0  0  0  0  0  0  0  0
  -24.1206   -6.4199   32.1470 C   0  0  0  0  0  0  0  0  0  0  0  0
  -24.7729   -7.4405   32.2391 O   0  0  0  0  0  0  0  0  0  0  0  0
  -24.9108   -4.8405   32.0730 S   0  0  0  0  0  0  0  0  0  0  0  0
  -26.6470   -5.3665   31.9895 C   0  0  0  0  0  0  0  0  0  0  0  0
  -27.2775   -4.8845   30.6807 C   0  0  0  0  0  0  0  0  0  0  0  0
  -28.2241   -3.8199   30.9566 N   0  0  0  0  0  0  0  0  0  0  0  0
  -29.5433   -3.9968   30.8226 C   0  0  0  0  0  0  0  0  0  0  0  0
  -30.0478   -5.0439   30.3637 O   0  0  0  0  0  0  0  0  0  0  0  0
  -30.4276   -2.8766   31.3177 C   0  0  0  0  0  0  0  0  0  0  0  0
  -29.6909   -1.5429   31.1235 C   0  0  0  0  0  0  0  0  0  0  0  0
  -30.3226   -0.6828   30.1313 N   0  0  0  0  0  0  0  0  0  0  0  0
  -29.9417   -0.5915   28.8761 C   0  0  0  0  0  0  0  0  0  0  0  0
  -29.2763   -1.4669   28.3130 O   0  0  0  0  0  0  0  0  0  0  0  0
  -30.5051    0.6019   28.0900 C   0  0  2  0  0  0  0  0  0  0  0  0
  -31.1215    0.1527   26.8745 O   0  0  0  0  0  0  0  0  0  0  0  0
  -29.4956    1.6850   27.6348 C   0  0  2  0  0  0  0  0  0  0  0  0
  -30.2253    3.0128   27.4323 C   0  0  0  0  0  0  0  0  0  0  0  0
  -28.8053    1.2684   26.3330 C   0  0  0  0  0  0  0  0  0  0  0  0
  -28.4175    1.8783   28.6908 C   0  0  0  0  0  0  0  0  0  0  0  0
  -27.1087    2.0496   28.0371 O   0  0  0  0  0  0  0  0  0  0  0  0
  -26.2003    3.2677   28.5662 P   0  0  2  0  0  0  0  0  0  0  0  0
  -26.3968    3.1937   30.0565 O   0  0  0  0  0  0  0  0  0  0  0  0
  -26.4831    4.5259   27.8130 O   0  0  0  0  0  0  0  0  0  0  0  0
  -24.8027    2.6821   28.0565 O   0  0  0  0  0  0  0  0  0  0  0  0
  -23.4056    3.2685   27.5338 P   0  0  2  0  0  0  0  0  0  0  0  0
  -22.9637    4.0077   28.7545 O   0  0  0  0  0  0  0  0  0  0  0  0
  -23.5672    3.8610   26.1987 O   0  0  0  0  0  0  0  0  0  0  0  0
  -22.5729    1.8909   27.4127 O   0  0  0  0  0  0  0  0  0  0  0  0
  -22.6244    1.0486   26.2445 C   0  0  0  0  0  0  0  0  0  0  0  0
  -21.3148    1.0945   25.4634 C   0  0  1  0  0  0  0  0  0  0  0  0
  -20.1965    1.5396   26.2903 O   0  0  0  0  0  0  0  0  0  0  0  0
  -20.8202   -0.2185   24.8492 C   0  0  1  0  0  0  0  0  0  0  0  0
  -20.1734    0.1402   23.6543 O   0  0  0  0  0  0  0  0  0  0  0  0
  -20.5979   -0.5945   22.3045 P   0  0  1  0  0  0  0  0  0  0  0  0
  -21.6511    0.1460   21.6476 O   0  0  0  0  0  0  0  0  0  0  0  0
  -19.2597   -0.3923   21.6663 O   0  0  0  0  0  0  0  0  0  0  0  0
  -20.9653   -2.1029   22.6485 O   0  0  0  0  0  0  0  0  0  0  0  0
  -19.8478   -0.7434   25.9073 C   0  0  1  0  0  0  0  0  0  0  0  0
  -19.0127   -1.7706   25.4177 O   0  0  0  0  0  0  0  0  0  0  0  0
  -19.1703    0.5748   26.2928 C   0  0  2  0  0  0  0  0  0  0  0  0
  -18.5336    0.6036   27.6061 N   0  0  0  0  0  0  0  0  0  0  0  0
  -19.0612    0.2808   28.8349 C   0  0  0  0  0  0  0  0  0  0  0  0
  -18.2067    0.4035   29.8218 N   0  0  0  0  0  0  0  0  0  0  0  0
  -17.0513    0.8782   29.2168 C   0  0  0  0  0  0  0  0  0  0  0  0
  -17.2317    1.0051   27.8575 C   0  0  0  0  0  0  0  0  0  0  0  0
  -16.3205    1.4427   26.9734 N   0  0  0  0  0  0  0  0  0  0  0  0
  -15.1578    1.7181   27.5707 C   0  0  0  0  0  0  0  0  0  0  0  0
  -14.8335    1.6294   28.8707 N   0  0  0  0  0  0  0  0  0  0  0  0
  -15.7770    1.2128   29.7387 C   0  0  0  0  0  0  0  0  0  0  0  0
  -15.4813    1.1215   31.0257 N   0  0  0  0  0  0  0  0  0  0  0  0
  -22.6120   -6.3376   34.2605 H   0  0  0  0  0  0  0  0  0  0  0  0
  -22.1225   -7.9137   33.5515 H   0  0  0  0  0  0  0  0  0  0  0  0
  -20.9732   -6.5332   33.5515 H   0  0  0  0  0  0  0  0  0  0  0  0
  -21.8485   -4.4030   32.6616 H   0  0  0  0  0  0  0  0  0  0  0  0
  -21.1301   -5.0575   31.1509 H   0  0  0  0  0  0  0  0  0  0  0  0
  -22.8194   -4.4466   31.1509 H   0  0  0  0  0  0  0  0  0  0  0  0
  -21.6463   -8.0997   31.6458 H   0  0  0  0  0  0  0  0  0  0  0  0
  -26.6976   -6.4644   32.0355 H   0  0  0  0  0  0  0  0  0  0  0  0
  -27.1972   -4.9319   32.8370 H   0  0  0  0  0  0  0  0  0  0  0  0
  -26.4893   -4.5086   30.0118 H   0  0  0  0  0  0  0  0  0  0  0  0
  -27.8023   -5.7226   30.1989 H   0  0  0  0  0  0  0  0  0  0  0  0
  -27.8705   -2.9026   31.2642 H   0  0  0  0  0  0  0  0  0  0  0  0
  -31.3672   -2.8668   30.7457 H   0  0  0  0  0  0  0  0  0  0  0  0
  -30.6583   -3.0250   32.3829 H   0  0  0  0  0  0  0  0  0  0  0  0
  -29.6697   -1.0108   32.0861 H   0  0  0  0  0  0  0  0  0  0  0  0
  -28.6789   -1.7758   30.7607 H   0  0  0  0  0  0  0  0  0  0  0  0
  -31.1216   -0.1074   30.4337 H   0  0  0  0  0  0  0  0  0  0  0  0
  -31.1897    1.0561   28.8214 H   0  0  0  0  0  0  0  0  0  0  0  0
  -31.9023   -0.4162   27.0910 H   0  0  0  0  0  0  0  0  0  0  0  0
  -30.4665    3.4517   28.4117 H   0  0  0  0  0  0  0  0  0  0  0  0
  -29.5801    3.7036   26.8698 H   0  0  0  0  0  0  0  0  0  0  0  0
  -31.1544    2.8386   26.8698 H   0  0  0  0  0  0  0  0  0  0  0  0
  -27.8851    0.7131   26.5674 H   0  0  0  0  0  0  0  0  0  0  0  0
  -29.4815    0.6274   25.7483 H   0  0  0  0  0  0  0  0  0  0  0  0
  -28.5534    2.1653   25.7483 H   0  0  0  0  0  0  0  0  0  0  0  0
  -28.6474    2.7723   29.2890 H   0  0  0  0  0  0  0  0  0  0  0  0
  -28.3854    0.9948   29.3453 H   0  0  0  0  0  0  0  0  0  0  0  0
  -22.8165    0.0123   26.5594 H   0  0  0  0  0  0  0  0  0  0  0  0
  -23.4292    1.4150   25.5903 H   0  0  0  0  0  0  0  0  0  0  0  0
  -21.5894    1.7891   24.6559 H   0  0  0  0  0  0  0  0  0  0  0  0
  -21.5812   -0.9761   24.6106 H   0  0  0  0  0  0  0  0  0  0  0  0
  -20.2851   -1.2660   26.7708 H   0  0  0  0  0  0  0  0  0  0  0  0
  -18.6132   -2.2619   26.1786 H   0  0  0  0  0  0  0  0  0  0  0  0
  -18.3546    0.7480   25.5754 H   0  0  0  0  0  0  0  0  0  0  0  0
  -20.1011   -0.0488   28.9761 H   0  0  0  0  0  0  0  0  0  0  0  0
  -14.3542    2.0661   26.9049 H   0  0  0  0  0  0  0  0  0  0  0  0
  -14.5400    1.3765   31.3572 H   0  0  0  0  0  0  0  0  0  0  0  0
  -16.1925    0.7956   31.6956 H   0  0  0  0  0  0  0  0  0  0  0  0
  2  1  1  0
  2  3  1  0
  2  4  1  6
  2  5  1  0
  5  6  2  0
  5  7  1  0
  7  8  1  0
  8  9  1  0
  9 10  1  0
 10 11  1  0
 11 12  2  0
 11 13  1  0
 13 14  1  0
 14 15  1  0
 15 16  1  0
 16 17  2  0
 16 18  1  0
 18 19  1  0
 18 20  1  0
 20 21  1  6
 20 22  1  0
 20 23  1  0
 23 24  1  0
 24 25  1  0
 25 26  1  1
 25 27  2  0
 25 28  1  0
 28 29  1  0
 29 30  2  0
 29 31  1  6
 29 32  1  0
 32 33  1  0
 34 33  1  0
 34 35  1  0
 34 36  1  0
 35 44  1  0
 36 37  1  0
 36 42  1  0
 37 38  1  0
 38 39  2  0
 38 40  1  6
 38 41  1  0
 42 43  1  0
 42 44  1  0
 44 45  1  0
 45 46  1  0
 45 49  1  0
 46 47  2  0
 47 48  1  0
 48 49  2  0
 48 53  1  0
 49 50  1  0
 50 51  2  0
 51 52  1  0
 52 53  2  0
 53 54  1  0
  1 55  1  0
  1 56  1  0
  1 57  1  0
  3 58  1  0
  3 59  1  0
  3 60  1  0
  4 61  1  0
  8 62  1  0
  8 63  1  0
  9 64  1  0
  9 65  1  0
 10 66  1  0
 13 67  1  0
 13 68  1  0
 14 69  1  0
 14 70  1  0
 15 71  1  0
 18 72  1  1
 19 73  1  0
 21 74  1  0
 21 75  1  0
 21 76  1  0
 22 77  1  0
 22 78  1  0
 22 79  1  0
 23 80  1  0
 23 81  1  0
 33 82  1  0
 33 83  1  0
 34 84  1  6
 36 85  1  6
 42 86  1  1
 43 87  1  0
 44 88  1  6
 46 89  1  0
 51 90  1  0
 54 91  1  0
 54 92  1  0
M  CHG  4  26  -1  31  -1  40  -1  41  -1
M  END
>  <filename_input>  (21) 
7PT3_3KK_docked.sdf

>  <pdb_id>  (21) 
7PT3_3KK

>  <pose_rank>  (21) 
20

>  <num_atoms_heavy>  (21) 
54

>  <num_torsions>  (21) 
21

>  <pose>  (21) 
[-26.200261142166184, 3.2676572587490256, 28.566166846867755, 0.4339569619741632, -2.4279743882100564, -1.451972971383552, -0.4296622611145304, -0.46815923594979086, 1.3702635437230999, -3.8755052570865365, -2.382088420883744, -2.978667108902555, -1.0808368735213034, 2.595213773646237, -0.627850463638978, -0.7160643988537487, 0.30036022170715543, 0.015047075256555655, 0.5903616830151718, -2.185776598112459, -2.031622689015987, -0.33987080599250313, -1.085761008573524, 1.4895326028517268, -0.2853434262819462, -5.990478953408991, 0.6032371513514246]

>  <energy>  (21) 
-451.3296303386956

>  <inter_energy>  (21) 
-452.3657573201226

>  <intra_energy>  (21) 
3.403094456648829

>  <rmsd>  (21) 
13.3047

>  <sdf_rank>  (21) 
0

$$$$

     RDKit          3D

 92 94  0  0  0  0  0  0  0  0999 V2000
  -19.8552   -9.5266   27.2659 C   0  0  0  0  0  0  0  0  0  0  0  0
  -18.9758  -10.4627   28.0761 C   0  0  1  0  0  0  0  0  0  0  0  0
  -19.7918  -11.2048   29.1531 C   0  0  0  0  0  0  0  0  0  0  0  0
  -18.4504  -11.4168   27.1280 O   0  0  0  0  0  0  0  0  0  0  0  0
  -17.8215   -9.6347   28.7178 C   0  0  0  0  0  0  0  0  0  0  0  0
  -17.9279   -9.0046   29.7509 O   0  0  0  0  0  0  0  0  0  0  0  0
  -16.2877   -9.6894   27.8410 S   0  0  0  0  0  0  0  0  0  0  0  0
  -16.4543   -8.1887   26.8319 C   0  0  0  0  0  0  0  0  0  0  0  0
  -15.0863   -7.5273   26.6476 C   0  0  0  0  0  0  0  0  0  0  0  0
  -14.5915   -7.0611   27.9296 N   0  0  0  0  0  0  0  0  0  0  0  0
  -13.3175   -7.2339   28.2990 C   0  0  0  0  0  0  0  0  0  0  0  0
  -12.4933   -7.8851   27.6219 O   0  0  0  0  0  0  0  0  0  0  0  0
  -12.8841   -6.5417   29.5698 C   0  0  0  0  0  0  0  0  0  0  0  0
  -14.1355   -6.1258   30.3574 C   0  0  0  0  0  0  0  0  0  0  0  0
  -13.8304   -5.2877   31.5097 N   0  0  0  0  0  0  0  0  0  0  0  0
  -14.7351   -4.7108   32.2698 C   0  0  0  0  0  0  0  0  0  0  0  0
  -15.9061   -5.0998   32.3294 O   0  0  0  0  0  0  0  0  0  0  0  0
  -14.2182   -3.6114   33.2098 C   0  0  2  0  0  0  0  0  0  0  0  0
  -13.1506   -2.8828   32.5863 O   0  0  0  0  0  0  0  0  0  0  0  0
  -13.6338   -4.0656   34.5705 C   0  0  2  0  0  0  0  0  0  0  0  0
  -13.5680   -2.8726   35.5238 C   0  0  0  0  0  0  0  0  0  0  0  0
  -12.2351   -4.6611   34.3870 C   0  0  0  0  0  0  0  0  0  0  0  0
  -14.5168   -5.1374   35.1924 C   0  0  0  0  0  0  0  0  0  0  0  0
  -13.7695   -6.4034   35.2835 O   0  0  0  0  0  0  0  0  0  0  0  0
  -14.6457   -7.7358   35.4984 P   0  0  2  0  0  0  0  0  0  0  0  0
  -15.7227   -7.5855   34.4578 O   0  0  0  0  0  0  0  0  0  0  0  0
  -14.9878   -7.9370   36.9381 O   0  0  0  0  0  0  0  0  0  0  0  0
  -13.4928   -8.7721   35.1077 O   0  0  0  0  0  0  0  0  0  0  0  0
  -12.1539   -9.3448   35.7773 P   0  0  2  0  0  0  0  0  0  0  0  0
  -12.0208   -8.4053   36.9312 O   0  0  0  0  0  0  0  0  0  0  0  0
  -11.1271   -9.5746   34.7514 O   0  0  0  0  0  0  0  0  0  0  0  0
  -12.7123  -10.7642   36.3057 O   0  0  0  0  0  0  0  0  0  0  0  0
  -12.0013  -12.0027   36.1126 C   0  0  0  0  0  0  0  0  0  0  0  0
  -12.6381  -13.1424   36.9017 C   0  0  1  0  0  0  0  0  0  0  0  0
  -13.2441  -12.6781   38.1465 O   0  0  0  0  0  0  0  0  0  0  0  0
  -13.7598  -13.9274   36.2152 C   0  0  1  0  0  0  0  0  0  0  0  0
  -13.6407  -15.2477   36.6814 O   0  0  0  0  0  0  0  0  0  0  0  0
  -13.6496  -16.4373   35.6197 P   0  0  1  0  0  0  0  0  0  0  0  0
  -14.9891  -16.9600   35.4728 O   0  0  0  0  0  0  0  0  0  0  0  0
  -13.2442  -15.5497   34.4854 O   0  0  0  0  0  0  0  0  0  0  0  0
  -12.5649  -17.5126   36.0619 O   0  0  0  0  0  0  0  0  0  0  0  0
  -15.0232  -13.2356   36.7308 C   0  0  1  0  0  0  0  0  0  0  0  0
  -16.1913  -13.9945   36.5029 O   0  0  0  0  0  0  0  0  0  0  0  0
  -14.6087  -13.0243   38.1898 C   0  0  2  0  0  0  0  0  0  0  0  0
  -15.3152  -11.9664   38.9060 N   0  0  0  0  0  0  0  0  0  0  0  0
  -14.9447  -10.6571   39.1088 C   0  0  0  0  0  0  0  0  0  0  0  0
  -15.8240   -9.9621   39.7892 N   0  0  0  0  0  0  0  0  0  0  0  0
  -16.8216  -10.8775   40.0943 C   0  0  0  0  0  0  0  0  0  0  0  0
  -16.5283  -12.1120   39.5590 C   0  0  0  0  0  0  0  0  0  0  0  0
  -17.2752  -13.2225   39.6691 N   0  0  0  0  0  0  0  0  0  0  0  0
  -18.4001  -12.9856   40.3496 C   0  0  0  0  0  0  0  0  0  0  0  0
  -18.8227  -11.8417   40.9119 N   0  0  0  0  0  0  0  0  0  0  0  0
  -18.0390  -10.7499   40.8082 C   0  0  0  0  0  0  0  0  0  0  0  0
  -18.4333   -9.6122   41.3583 N   0  0  0  0  0  0  0  0  0  0  0  0
  -20.4464   -8.8973   27.9474 H   0  0  0  0  0  0  0  0  0  0  0  0
  -19.2235   -8.8872   26.6316 H   0  0  0  0  0  0  0  0  0  0  0  0
  -20.5327  -10.1171   26.6316 H   0  0  0  0  0  0  0  0  0  0  0  0
  -19.4498  -10.8938   30.1513 H   0  0  0  0  0  0  0  0  0  0  0  0
  -20.8582  -10.9606   29.0383 H   0  0  0  0  0  0  0  0  0  0  0  0
  -19.6496  -12.2895   29.0383 H   0  0  0  0  0  0  0  0  0  0  0  0
  -18.0347  -12.1716   27.6153 H   0  0  0  0  0  0  0  0  0  0  0  0
  -16.8655   -8.4556   25.8472 H   0  0  0  0  0  0  0  0  0  0  0  0
  -17.1301   -7.4850   27.3400 H   0  0  0  0  0  0  0  0  0  0  0  0
  -14.3803   -8.2587   26.2273 H   0  0  0  0  0  0  0  0  0  0  0  0
  -15.1844   -6.6724   25.9623 H   0  0  0  0  0  0  0  0  0  0  0  0
  -15.2392   -6.5840   28.5728 H   0  0  0  0  0  0  0  0  0  0  0  0
  -12.2766   -7.2292   30.1767 H   0  0  0  0  0  0  0  0  0  0  0  0
  -12.2833   -5.6532   29.3256 H   0  0  0  0  0  0  0  0  0  0  0  0
  -14.8035   -5.5676   29.6849 H   0  0  0  0  0  0  0  0  0  0  0  0
  -14.6074   -7.0450   30.7347 H   0  0  0  0  0  0  0  0  0  0  0  0
  -12.8390   -5.1369   31.7446 H   0  0  0  0  0  0  0  0  0  0  0  0
  -15.1305   -3.0286   33.4051 H   0  0  0  0  0  0  0  0  0  0  0  0
  -12.5702   -2.4866   33.2835 H   0  0  0  0  0  0  0  0  0  0  0  0
  -13.5878   -3.2323   36.5632 H   0  0  0  0  0  0  0  0  0  0  0  0
  -12.6376   -2.3130   35.3472 H   0  0  0  0  0  0  0  0  0  0  0  0
  -14.4312   -2.2141   35.3472 H   0  0  0  0  0  0  0  0  0  0  0  0
  -11.7858   -4.8524   35.3726 H   0  0  0  0  0  0  0  0  0  0  0  0
  -12.3091   -5.6057   33.8282 H   0  0  0  0  0  0  0  0  0  0  0  0
  -11.6055   -3.9530   33.8282 H   0  0  0  0  0  0  0  0  0  0  0  0
  -14.8228   -4.8198   36.2001 H   0  0  0  0  0  0  0  0  0  0  0  0
  -15.4085   -5.2844   34.5653 H   0  0  0  0  0  0  0  0  0  0  0  0
  -12.0131  -12.2585   35.0428 H   0  0  0  0  0  0  0  0  0  0  0  0
  -10.9703  -11.8683   36.4719 H   0  0  0  0  0  0  0  0  0  0  0  0
  -11.7676  -13.8013   37.0365 H   0  0  0  0  0  0  0  0  0  0  0  0
  -13.7513  -13.9522   35.1155 H   0  0  0  0  0  0  0  0  0  0  0  0
  -15.3184  -12.3006   36.2322 H   0  0  0  0  0  0  0  0  0  0  0  0
  -16.5907  -14.2541   37.3708 H   0  0  0  0  0  0  0  0  0  0  0  0
  -14.8466  -13.9484   38.7369 H   0  0  0  0  0  0  0  0  0  0  0  0
  -14.0006  -10.2336   38.7356 H   0  0  0  0  0  0  0  0  0  0  0  0
  -19.0738  -13.8473   40.4655 H   0  0  0  0  0  0  0  0  0  0  0  0
  -19.3274   -9.5692   41.8678 H   0  0  0  0  0  0  0  0  0  0  0  0
  -17.8459   -8.7701   41.2768 H   0  0  0  0  0  0  0  0  0  0  0  0
  2  1  1  0
  2  3  1  0
  2  4  1  6
  2  5  1  0
  5  6  2  0
  5  7  1  0
  7  8  1  0
  8  9  1  0
  9 10  1  0
 10 11  1  0
 11 12  2  0
 11 13  1  0
 13 14  1  0
 14 15  1  0
 15 16  1  0
 16 17  2  0
 16 18  1  0
 18 19  1  0
 18 20  1  0
 20 21  1  1
 20 22  1  0
 20 23  1  0
 23 24  1  0
 24 25  1  0
 25 26  1  6
 25 27  2  0
 25 28  1  0
 28 29  1  0
 29 30  2  0
 29 31  1  6
 29 32  1  0
 32 33  1  0
 34 33  1  0
 34 35  1  0
 34 36  1  0
 35 44  1  0
 36 37  1  0
 36 42  1  0
 37 38  1  0
 38 39  2  0
 38 40  1  6
 38 41  1  0
 42 43  1  0
 42 44  1  0
 44 45  1  0
 45 46  1  0
 45 49  1  0
 46 47  2  0
 47 48  1  0
 48 49  2  0
 48 53  1  0
 49 50  1  0
 50 51  2  0
 51 52  1  0
 52 53  2  0
 53 54  1  0
  1 55  1  0
  1 56  1  0
  1 57  1  0
  3 58  1  0
  3 59  1  0
  3 60  1  0
  4 61  1  0
  8 62  1  0
  8 63  1  0
  9 64  1  0
  9 65  1  0
 10 66  1  0
 13 67  1  0
 13 68  1  0
 14 69  1  0
 14 70  1  0
 15 71  1  0
 18 72  1  1
 19 73  1  0
 21 74  1  0
 21 75  1  0
 21 76  1  0
 22 77  1  0
 22 78  1  0
 22 79  1  0
 23 80  1  0
 23 81  1  0
 33 82  1  0
 33 83  1  0
 34 84  1  1
 36 85  1  6
 42 86  1  6
 43 87  1  0
 44 88  1  1
 46 89  1  0
 51 90  1  0
 54 91  1  0
 54 92  1  0
M  CHG  4  26  -1  31  -1  40  -1  41  -1
M  END
>  <filename_input>  (22) 
7PT3_3KK_docked.sdf

>  <pdb_id>  (22) 
7PT3_3KK

>  <pose_rank>  (22) 
21

>  <num_atoms_heavy>  (22) 
54

>  <num_torsions>  (22) 
21

>  <pose>  (22) 
[-14.645705178691667, -7.735774011615516, 35.498379826843966, 0.804544411244806, 0.48182532634980085, -4.495156816891909, -0.31636471858945464, 0.6592229869634291, 0.9481438467301206, -4.00094482295779, 0.4478139620788761, -4.526491684851017, 0.2248246618631596, 2.323104637578449, 3.680386121296588, 0.048398409089249986, -1.372660901181868, -1.3916412241034688, -3.0736546397962496, -3.4916729738585652, -3.3190787822208727, 0.5089515421159861, 6.272164918320606, 6.840792281174652, -1.0350519378947287, 0.23697163284829342, -2.6362561862697835]

>  <energy>  (22) 
-430.32811776591944

>  <inter_energy>  (22) 
-450.4248866372583

>  <intra_energy>  (22) 
20.12351805359518

>  <rmsd>  (22) 
16.759

>  <sdf_rank>  (22) 
0

$$$$

     RDKit          3D

 92 94  0  0  0  0  0  0  0  0999 V2000
  -31.7159    0.4156   24.8732 C   0  0  0  0  0  0  0  0  0  0  0  0
  -31.9226    1.4039   26.0076 C   0  0  1  0  0  0  0  0  0  0  0  0
  -31.6613    2.8507   25.5439 C   0  0  0  0  0  0  0  0  0  0  0  0
  -33.3072    1.2650   26.3937 O   0  0  0  0  0  0  0  0  0  0  0  0
  -30.9824    1.0144   27.1882 C   0  0  0  0  0  0  0  0  0  0  0  0
  -31.0266   -0.0501   27.7717 O   0  0  0  0  0  0  0  0  0  0  0  0
  -29.7883    2.2416   27.6267 S   0  0  0  0  0  0  0  0  0  0  0  0
  -30.4856    2.8013   29.2074 C   0  0  0  0  0  0  0  0  0  0  0  0
  -29.5212    2.4740   30.3501 C   0  0  0  0  0  0  0  0  0  0  0  0
  -30.0535    1.3803   31.1414 N   0  0  0  0  0  0  0  0  0  0  0  0
  -29.2547    0.5137   31.7742 C   0  0  0  0  0  0  0  0  0  0  0  0
  -28.0107    0.5206   31.6552 O   0  0  0  0  0  0  0  0  0  0  0  0
  -29.9264   -0.4616   32.7120 C   0  0  0  0  0  0  0  0  0  0  0  0
  -28.8578   -1.3910   33.3067 C   0  0  0  0  0  0  0  0  0  0  0  0
  -28.9629   -2.7617   32.8237 N   0  0  0  0  0  0  0  0  0  0  0  0
  -27.9999   -3.4074   32.2035 C   0  0  0  0  0  0  0  0  0  0  0  0
  -26.8116   -3.0800   32.2883 O   0  0  0  0  0  0  0  0  0  0  0  0
  -28.4147   -4.6994   31.4836 C   0  0  2  0  0  0  0  0  0  0  0  0
  -27.2594   -5.4945   31.1799 O   0  0  0  0  0  0  0  0  0  0  0  0
  -29.1465   -4.5458   30.1271 C   0  0  2  0  0  0  0  0  0  0  0  0
  -28.7023   -5.6574   29.1766 C   0  0  0  0  0  0  0  0  0  0  0  0
  -28.8485   -3.1796   29.5032 C   0  0  0  0  0  0  0  0  0  0  0  0
  -30.6516   -4.6475   30.3252 C   0  0  0  0  0  0  0  0  0  0  0  0
  -31.3152   -3.5045   29.6750 O   0  0  0  0  0  0  0  0  0  0  0  0
  -32.8481   -3.2403   30.0864 P   0  0  2  0  0  0  0  0  0  0  0  0
  -33.2703   -2.1854   29.0994 O   0  0  0  0  0  0  0  0  0  0  0  0
  -32.9877   -3.0199   31.5569 O   0  0  0  0  0  0  0  0  0  0  0  0
  -33.3794   -4.7094   29.7473 O   0  0  0  0  0  0  0  0  0  0  0  0
  -34.7206   -5.3668   29.1655 P   0  0  2  0  0  0  0  0  0  0  0  0
  -34.6787   -4.8427   27.7672 O   0  0  0  0  0  0  0  0  0  0  0  0
  -35.8330   -5.1769   30.1068 O   0  0  0  0  0  0  0  0  0  0  0  0
  -34.2738   -6.9180   29.1682 O   0  0  0  0  0  0  0  0  0  0  0  0
  -34.3363   -7.7456   30.3463 C   0  0  0  0  0  0  0  0  0  0  0  0
  -35.6536   -8.5109   30.4233 C   0  0  1  0  0  0  0  0  0  0  0  0
  -35.8403   -9.4009   29.2807 O   0  0  0  0  0  0  0  0  0  0  0  0
  -35.8646   -9.4200   31.6377 C   0  0  1  0  0  0  0  0  0  0  0  0
  -37.2412   -9.3702   31.9156 O   0  0  0  0  0  0  0  0  0  0  0  0
  -37.7093   -9.1169   33.4186 P   0  0  1  0  0  0  0  0  0  0  0  0
  -38.5451   -7.9396   33.4852 O   0  0  0  0  0  0  0  0  0  0  0  0
  -38.4922  -10.3903   33.4857 O   0  0  0  0  0  0  0  0  0  0  0  0
  -36.4175   -9.0642   34.3443 O   0  0  0  0  0  0  0  0  0  0  0  0
  -35.4207  -10.7890   31.1185 C   0  0  1  0  0  0  0  0  0  0  0  0
  -35.8408  -11.8492   31.9500 O   0  0  0  0  0  0  0  0  0  0  0  0
  -36.0292  -10.7275   29.7145 C   0  0  2  0  0  0  0  0  0  0  0  0
  -35.4285  -11.6121   28.7206 N   0  0  0  0  0  0  0  0  0  0  0  0
  -36.0427  -12.4090   27.7824 C   0  0  0  0  0  0  0  0  0  0  0  0
  -35.2020  -13.0736   27.0268 N   0  0  0  0  0  0  0  0  0  0  0  0
  -33.9518  -12.7296   27.5217 C   0  0  0  0  0  0  0  0  0  0  0  0
  -34.0703  -11.8322   28.5595 C   0  0  0  0  0  0  0  0  0  0  0  0
  -33.0609  -11.2992   29.2668 N   0  0  0  0  0  0  0  0  0  0  0  0
  -31.8762  -11.7192   28.8145 C   0  0  0  0  0  0  0  0  0  0  0  0
  -31.6081  -12.5722   27.8127 N   0  0  0  0  0  0  0  0  0  0  0  0
  -32.6425  -13.1124   27.1380 C   0  0  0  0  0  0  0  0  0  0  0  0
  -32.4024  -13.9592   26.1493 N   0  0  0  0  0  0  0  0  0  0  0  0
  -31.5073   -0.5813   25.2889 H   0  0  0  0  0  0  0  0  0  0  0  0
  -32.6244    0.3722   24.2546 H   0  0  0  0  0  0  0  0  0  0  0  0
  -30.8662    0.7400   24.2546 H   0  0  0  0  0  0  0  0  0  0  0  0
  -31.5437    3.5018   26.4226 H   0  0  0  0  0  0  0  0  0  0  0  0
  -30.7430    2.8817   24.9390 H   0  0  0  0  0  0  0  0  0  0  0  0
  -32.5107    3.2010   24.9390 H   0  0  0  0  0  0  0  0  0  0  0  0
  -33.3753    1.2582   27.3813 H   0  0  0  0  0  0  0  0  0  0  0  0
  -30.6492    3.8884   29.1689 H   0  0  0  0  0  0  0  0  0  0  0  0
  -31.4416    2.2862   29.3829 H   0  0  0  0  0  0  0  0  0  0  0  0
  -28.5458    2.1827   29.9332 H   0  0  0  0  0  0  0  0  0  0  0  0
  -29.3999    3.3607   30.9896 H   0  0  0  0  0  0  0  0  0  0  0  0
  -31.0745    1.2681   31.2180 H   0  0  0  0  0  0  0  0  0  0  0  0
  -30.4290    0.0893   33.5207 H   0  0  0  0  0  0  0  0  0  0  0  0
  -30.6738   -1.0537   32.1636 H   0  0  0  0  0  0  0  0  0  0  0  0
  -27.8650   -1.0001   33.0391 H   0  0  0  0  0  0  0  0  0  0  0  0
  -29.0103   -1.4132   34.3959 H   0  0  0  0  0  0  0  0  0  0  0  0
  -29.8518   -3.2585   32.9786 H   0  0  0  0  0  0  0  0  0  0  0  0
  -29.1154   -5.1482   32.2030 H   0  0  0  0  0  0  0  0  0  0  0  0
  -26.8310   -5.7894   32.0223 H   0  0  0  0  0  0  0  0  0  0  0  0
  -28.3565   -6.5230   29.7607 H   0  0  0  0  0  0  0  0  0  0  0  0
  -29.5495   -5.9579   28.5425 H   0  0  0  0  0  0  0  0  0  0  0  0
  -27.8814   -5.2914   28.5425 H   0  0  0  0  0  0  0  0  0  0  0  0
  -28.6872   -2.4395   30.3008 H   0  0  0  0  0  0  0  0  0  0  0  0
  -27.9447   -3.2502   28.8802 H   0  0  0  0  0  0  0  0  0  0  0  0
  -29.6997   -2.8675   28.8802 H   0  0  0  0  0  0  0  0  0  0  0  0
  -31.0168   -5.5845   29.8796 H   0  0  0  0  0  0  0  0  0  0  0  0
  -30.8793   -4.6375   31.4014 H   0  0  0  0  0  0  0  0  0  0  0  0
  -33.5053   -8.4660   30.3215 H   0  0  0  0  0  0  0  0  0  0  0  0
  -34.2637   -7.0941   31.2297 H   0  0  0  0  0  0  0  0  0  0  0  0
  -36.3667   -7.6747   30.4710 H   0  0  0  0  0  0  0  0  0  0  0  0
  -35.3215   -9.1583   32.5578 H   0  0  0  0  0  0  0  0  0  0  0  0
  -34.3394  -10.9906   31.1056 H   0  0  0  0  0  0  0  0  0  0  0  0
  -35.7365  -11.5859   32.8987 H   0  0  0  0  0  0  0  0  0  0  0  0
  -37.0760  -11.0559   29.7946 H   0  0  0  0  0  0  0  0  0  0  0  0
  -37.1351  -12.4818   27.6761 H   0  0  0  0  0  0  0  0  0  0  0  0
  -30.9982  -11.3093   29.3352 H   0  0  0  0  0  0  0  0  0  0  0  0
  -31.4322  -14.2068   25.9075 H   0  0  0  0  0  0  0  0  0  0  0  0
  -33.1856  -14.3703   25.6217 H   0  0  0  0  0  0  0  0  0  0  0  0
  2  1  1  0
  2  3  1  0
  2  4  1  1
  2  5  1  0
  5  6  2  0
  5  7  1  0
  7  8  1  0
  8  9  1  0
  9 10  1  0
 10 11  1  0
 11 12  2  0
 11 13  1  0
 13 14  1  0
 14 15  1  0
 15 16  1  0
 16 17  2  0
 16 18  1  0
 18 19  1  0
 18 20  1  0
 20 21  1  6
 20 22  1  0
 20 23  1  0
 23 24  1  0
 24 25  1  0
 25 26  1  6
 25 27  2  0
 25 28  1  0
 28 29  1  0
 29 30  2  0
 29 31  1  1
 29 32  1  0
 32 33  1  0
 34 33  1  0
 34 35  1  0
 34 36  1  0
 35 44  1  0
 36 37  1  0
 36 42  1  0
 37 38  1  0
 38 39  2  0
 38 40  1  1
 38 41  1  0
 42 43  1  0
 42 44  1  0
 44 45  1  0
 45 46  1  0
 45 49  1  0
 46 47  2  0
 47 48  1  0
 48 49  2  0
 48 53  1  0
 49 50  1  0
 50 51  2  0
 51 52  1  0
 52 53  2  0
 53 54  1  0
  1 55  1  0
  1 56  1  0
  1 57  1  0
  3 58  1  0
  3 59  1  0
  3 60  1  0
  4 61  1  0
  8 62  1  0
  8 63  1  0
  9 64  1  0
  9 65  1  0
 10 66  1  0
 13 67  1  0
 13 68  1  0
 14 69  1  0
 14 70  1  0
 15 71  1  0
 18 72  1  1
 19 73  1  0
 21 74  1  0
 21 75  1  0
 21 76  1  0
 22 77  1  0
 22 78  1  0
 22 79  1  0
 23 80  1  0
 23 81  1  0
 33 82  1  0
 33 83  1  0
 34 84  1  6
 36 85  1  1
 42 86  1  6
 43 87  1  0
 44 88  1  1
 46 89  1  0
 51 90  1  0
 54 91  1  0
 54 92  1  0
M  CHG  4  26  -1  31  -1  40  -1  41  -1
M  END
>  <filename_input>  (23) 
7PT3_3KK_docked.sdf

>  <pdb_id>  (23) 
7PT3_3KK

>  <pose_rank>  (23) 
22

>  <num_atoms_heavy>  (23) 
54

>  <num_torsions>  (23) 
21

>  <pose>  (23) 
[-32.84813886900046, -3.240295014727151, 30.086387263884966, -0.2697851289308845, 0.1312743783024779, 0.527510459226974, 2.146122280117084, 0.6129371944874947, 1.188328752135822, 1.3434005282735149, -3.0185939541963935, 0.8533630433034326, 1.2956264015256884, -1.1319994301553418, 3.9018594092596235, -0.6932503958378459, -1.8907198150743245, -1.1531275451242187, 0.7072417267156411, -1.0354500857477902, -1.9494733448917743, -0.3936096174515913, -1.3634677375071735, 2.1756578938716564, -3.2705320814066323, -6.059849830255181, -5.138045052645859]

>  <energy>  (23) 
-444.5498674215196

>  <inter_energy>  (23) 
-460.4345119263876

>  <intra_energy>  (23) 
21.6527359636791

>  <rmsd>  (23) 
11.8194

>  <sdf_rank>  (23) 
0

$$$$

     RDKit          3D

 92 94  0  0  0  0  0  0  0  0999 V2000
  -12.8119   -5.6967   33.1567 C   0  0  0  0  0  0  0  0  0  0  0  0
  -14.1333   -5.7939   33.8987 C   0  0  1  0  0  0  0  0  0  0  0  0
  -14.1195   -6.9513   34.9169 C   0  0  0  0  0  0  0  0  0  0  0  0
  -14.2767   -4.5390   34.5987 O   0  0  0  0  0  0  0  0  0  0  0  0
  -15.2795   -5.9754   32.8581 C   0  0  0  0  0  0  0  0  0  0  0  0
  -15.2769   -5.4809   31.7486 O   0  0  0  0  0  0  0  0  0  0  0  0
  -16.6168   -7.0002   33.3927 S   0  0  0  0  0  0  0  0  0  0  0  0
  -17.6294   -6.9992   31.8851 C   0  0  0  0  0  0  0  0  0  0  0  0
  -18.7184   -8.0701   31.9854 C   0  0  0  0  0  0  0  0  0  0  0  0
  -19.5261   -8.0609   30.7799 N   0  0  0  0  0  0  0  0  0  0  0  0
  -20.6385   -8.7958   30.6708 C   0  0  0  0  0  0  0  0  0  0  0  0
  -21.0085   -9.6074   31.5461 O   0  0  0  0  0  0  0  0  0  0  0  0
  -21.4870   -8.5568   29.4440 C   0  0  0  0  0  0  0  0  0  0  0  0
  -21.4436   -9.8127   28.5609 C   0  0  0  0  0  0  0  0  0  0  0  0
  -20.2700   -9.8621   27.6986 N   0  0  0  0  0  0  0  0  0  0  0  0
  -19.3248  -10.7725   27.7807 C   0  0  0  0  0  0  0  0  0  0  0  0
  -19.4973  -11.8698   28.3215 O   0  0  0  0  0  0  0  0  0  0  0  0
  -18.0253  -10.4595   27.0238 C   0  0  2  0  0  0  0  0  0  0  0  0
  -17.5231  -11.6418   26.3842 O   0  0  0  0  0  0  0  0  0  0  0  0
  -16.8318   -9.9353   27.8605 C   0  0  2  0  0  0  0  0  0  0  0  0
  -16.4207  -10.9926   28.8851 C   0  0  0  0  0  0  0  0  0  0  0  0
  -17.2036   -8.6345   28.5777 C   0  0  0  0  0  0  0  0  0  0  0  0
  -15.6422   -9.6441   26.9577 C   0  0  0  0  0  0  0  0  0  0  0  0
  -15.5870   -8.2025   26.6605 O   0  0  0  0  0  0  0  0  0  0  0  0
  -14.1211   -7.5708   26.4583 P   0  0  2  0  0  0  0  0  0  0  0  0
  -13.4327   -8.6137   25.6194 O   0  0  0  0  0  0  0  0  0  0  0  0
  -13.5384   -7.1186   27.7570 O   0  0  0  0  0  0  0  0  0  0  0  0
  -14.5945   -6.2787   25.6447 O   0  0  0  0  0  0  0  0  0  0  0  0
  -14.3634   -5.6629   24.1830 P   0  0  2  0  0  0  0  0  0  0  0  0
  -14.9825   -6.7375   23.3500 O   0  0  0  0  0  0  0  0  0  0  0  0
  -12.9838   -5.1758   24.0456 O   0  0  0  0  0  0  0  0  0  0  0  0
  -15.3713   -4.4048   24.2671 O   0  0  0  0  0  0  0  0  0  0  0  0
  -15.4027   -3.3628   23.2720 C   0  0  0  0  0  0  0  0  0  0  0  0
  -16.2893   -2.2002   23.7070 C   0  0  1  0  0  0  0  0  0  0  0  0
  -15.5515   -1.2052   24.4805 O   0  0  0  0  0  0  0  0  0  0  0  0
  -16.9635   -1.3826   22.6012 C   0  0  1  0  0  0  0  0  0  0  0  0
  -18.2022   -0.9789   23.1279 O   0  0  0  0  0  0  0  0  0  0  0  0
  -19.5067   -1.1427   22.2259 P   0  0  1  0  0  0  0  0  0  0  0  0
  -20.4688   -1.9883   22.8955 O   0  0  0  0  0  0  0  0  0  0  0  0
  -19.8551    0.3103   22.3054 O   0  0  0  0  0  0  0  0  0  0  0  0
  -19.0616   -1.6568   20.7886 O   0  0  0  0  0  0  0  0  0  0  0  0
  -15.9986   -0.2110   22.4088 C   0  0  1  0  0  0  0  0  0  0  0  0
  -16.5725    0.8531   21.6803 O   0  0  0  0  0  0  0  0  0  0  0  0
  -15.6499    0.0625   23.8746 C   0  0  2  0  0  0  0  0  0  0  0  0
  -14.3939    0.7684   24.1097 N   0  0  0  0  0  0  0  0  0  0  0  0
  -14.1850    2.0078   24.6690 C   0  0  0  0  0  0  0  0  0  0  0  0
  -12.9196    2.3417   24.7478 N   0  0  0  0  0  0  0  0  0  0  0  0
  -12.2477    1.2759   24.1657 C   0  0  0  0  0  0  0  0  0  0  0  0
  -13.1351    0.2999   23.7701 C   0  0  0  0  0  0  0  0  0  0  0  0
  -12.8235   -0.8592   23.1681 N   0  0  0  0  0  0  0  0  0  0  0  0
  -11.5022   -0.9898   23.0206 C   0  0  0  0  0  0  0  0  0  0  0  0
  -10.5246   -0.1370   23.3673 N   0  0  0  0  0  0  0  0  0  0  0  0
  -10.8694    1.0309   23.9455 C   0  0  0  0  0  0  0  0  0  0  0  0
   -9.9230    1.8890   24.2919 N   0  0  0  0  0  0  0  0  0  0  0  0
  -11.9875   -5.6361   33.8823 H   0  0  0  0  0  0  0  0  0  0  0  0
  -12.6797   -6.5876   32.5251 H   0  0  0  0  0  0  0  0  0  0  0  0
  -12.8114   -4.7961   32.5251 H   0  0  0  0  0  0  0  0  0  0  0  0
  -14.1244   -6.5417   35.9378 H   0  0  0  0  0  0  0  0  0  0  0  0
  -15.0103   -7.5798   34.7697 H   0  0  0  0  0  0  0  0  0  0  0  0
  -13.2141   -7.5584   34.7697 H   0  0  0  0  0  0  0  0  0  0  0  0
  -14.2581   -4.7017   35.5750 H   0  0  0  0  0  0  0  0  0  0  0  0
  -18.0992   -6.0122   31.7624 H   0  0  0  0  0  0  0  0  0  0  0  0
  -16.9874   -7.2170   31.0188 H   0  0  0  0  0  0  0  0  0  0  0  0
  -18.2498   -9.0582   32.1040 H   0  0  0  0  0  0  0  0  0  0  0  0
  -19.3587   -7.8581   32.8544 H   0  0  0  0  0  0  0  0  0  0  0  0
  -19.2349   -7.4723   29.9865 H   0  0  0  0  0  0  0  0  0  0  0  0
  -22.5248   -8.3527   29.7461 H   0  0  0  0  0  0  0  0  0  0  0  0
  -21.1003   -7.6923   28.8843 H   0  0  0  0  0  0  0  0  0  0  0  0
  -21.4376  -10.6992   29.2121 H   0  0  0  0  0  0  0  0  0  0  0  0
  -22.3297   -9.7878   27.9095 H   0  0  0  0  0  0  0  0  0  0  0  0
  -20.1744   -9.1346   26.9758 H   0  0  0  0  0  0  0  0  0  0  0  0
  -18.3445   -9.6582   26.3412 H   0  0  0  0  0  0  0  0  0  0  0  0
  -17.2449  -12.2966   27.0726 H   0  0  0  0  0  0  0  0  0  0  0  0
  -16.5740  -10.5983   29.9005 H   0  0  0  0  0  0  0  0  0  0  0  0
  -17.0332  -11.8956   28.7460 H   0  0  0  0  0  0  0  0  0  0  0  0
  -15.3590  -11.2446   28.7460 H   0  0  0  0  0  0  0  0  0  0  0  0
  -17.1591   -8.7901   29.6657 H   0  0  0  0  0  0  0  0  0  0  0  0
  -16.4957   -7.8427   28.2913 H   0  0  0  0  0  0  0  0  0  0  0  0
  -18.2229   -8.3363   28.2913 H   0  0  0  0  0  0  0  0  0  0  0  0
  -14.7149   -9.9489   27.4647 H   0  0  0  0  0  0  0  0  0  0  0  0
  -15.7509  -10.2063   26.0184 H   0  0  0  0  0  0  0  0  0  0  0  0
  -14.3799   -2.9915   23.1110 H   0  0  0  0  0  0  0  0  0  0  0  0
  -15.8172   -3.7842   22.3443 H   0  0  0  0  0  0  0  0  0  0  0  0
  -17.0600   -2.7404   24.2765 H   0  0  0  0  0  0  0  0  0  0  0  0
  -17.1500   -1.8938   21.6452 H   0  0  0  0  0  0  0  0  0  0  0  0
  -15.1101   -0.3939   21.7866 H   0  0  0  0  0  0  0  0  0  0  0  0
  -16.9353    1.5259   22.3094 H   0  0  0  0  0  0  0  0  0  0  0  0
  -16.4299    0.7232   24.2810 H   0  0  0  0  0  0  0  0  0  0  0  0
  -15.0021    2.6569   25.0170 H   0  0  0  0  0  0  0  0  0  0  0  0
  -11.1686   -1.9262   22.5495 H   0  0  0  0  0  0  0  0  0  0  0  0
   -8.9339    1.6656   24.1109 H   0  0  0  0  0  0  0  0  0  0  0  0
  -10.1755    2.7800   24.7426 H   0  0  0  0  0  0  0  0  0  0  0  0
  2  1  1  0
  2  3  1  0
  2  4  1  1
  2  5  1  0
  5  6  2  0
  5  7  1  0
  7  8  1  0
  8  9  1  0
  9 10  1  0
 10 11  1  0
 11 12  2  0
 11 13  1  0
 13 14  1  0
 14 15  1  0
 15 16  1  0
 16 17  2  0
 16 18  1  0
 18 19  1  0
 18 20  1  0
 20 21  1  1
 20 22  1  0
 20 23  1  0
 23 24  1  0
 24 25  1  0
 25 26  1  6
 25 27  2  0
 25 28  1  0
 28 29  1  0
 29 30  2  0
 29 31  1  6
 29 32  1  0
 32 33  1  0
 34 33  1  0
 34 35  1  0
 34 36  1  0
 35 44  1  0
 36 37  1  0
 36 42  1  0
 37 38  1  0
 38 39  2  0
 38 40  1  6
 38 41  1  0
 42 43  1  0
 42 44  1  0
 44 45  1  0
 45 46  1  0
 45 49  1  0
 46 47  2  0
 47 48  1  0
 48 49  2  0
 48 53  1  0
 49 50  1  0
 50 51  2  0
 51 52  1  0
 52 53  2  0
 53 54  1  0
  1 55  1  0
  1 56  1  0
  1 57  1  0
  3 58  1  0
  3 59  1  0
  3 60  1  0
  4 61  1  0
  8 62  1  0
  8 63  1  0
  9 64  1  0
  9 65  1  0
 10 66  1  0
 13 67  1  0
 13 68  1  0
 14 69  1  0
 14 70  1  0
 15 71  1  0
 18 72  1  6
 19 73  1  0
 21 74  1  0
 21 75  1  0
 21 76  1  0
 22 77  1  0
 22 78  1  0
 22 79  1  0
 23 80  1  0
 23 81  1  0
 33 82  1  0
 33 83  1  0
 34 84  1  1
 36 85  1  6
 42 86  1  6
 43 87  1  0
 44 88  1  1
 46 89  1  0
 51 90  1  0
 54 91  1  0
 54 92  1  0
M  CHG  4  26  -1  31  -1  40  -1  41  -1
M  END
>  <filename_input>  (24) 
7PT3_3KK_docked.sdf

>  <pdb_id>  (24) 
7PT3_3KK

>  <pose_rank>  (24) 
23

>  <num_atoms_heavy>  (24) 
54

>  <num_torsions>  (24) 
21

>  <pose>  (24) 
[-14.12105845701164, -7.570805677116542, 26.458309574002644, -0.43836721603970324, 0.08837084391521609, -2.078699177068296, 43.574241598140404, 6.070818333073994, 6.937977252319788, 6.205907170422414, 3.6856612221047444, 7.025911055994226, 1.774984050674541, -2.276206938831682, 4.565042758074545, 4.323577291356194, -0.9824360434801218, 0.1506930261485864, 1.178717738718686, -25.690529271652327, -77.41602522737682, -11.43133407228978, -12.263899470392989, -53.886714820286606, 8.947696400389551, 0.19079719644001164, 1.127827576262101]

>  <energy>  (24) 
-445.67044077963885

>  <inter_energy>  (24) 
-463.39846916837774

>  <intra_energy>  (24) 
24.949608415984038

>  <rmsd>  (24) 
14.9743

>  <sdf_rank>  (24) 
0

$$$$

     RDKit          3D

 92 94  0  0  0  0  0  0  0  0999 V2000
  -19.1182  -11.4448   28.2574 C   0  0  0  0  0  0  0  0  0  0  0  0
  -19.2304   -9.9641   28.5753 C   0  0  1  0  0  0  0  0  0  0  0  0
  -17.9423   -9.4345   29.2365 C   0  0  0  0  0  0  0  0  0  0  0  0
  -19.4225   -9.3090   27.3028 O   0  0  0  0  0  0  0  0  0  0  0  0
  -20.4668   -9.7427   29.4983 C   0  0  0  0  0  0  0  0  0  0  0  0
  -21.5313  -10.3114   29.3592 O   0  0  0  0  0  0  0  0  0  0  0  0
  -20.2145   -8.5983   30.8215 S   0  0  0  0  0  0  0  0  0  0  0  0
  -21.9414   -8.2357   31.2508 C   0  0  0  0  0  0  0  0  0  0  0  0
  -22.0226   -6.9184   32.0260 C   0  0  0  0  0  0  0  0  0  0  0  0
  -23.3858   -6.4217   32.0053 N   0  0  0  0  0  0  0  0  0  0  0  0
  -24.2040   -6.5635   33.0541 C   0  0  0  0  0  0  0  0  0  0  0  0
  -23.8946   -7.2094   34.0782 O   0  0  0  0  0  0  0  0  0  0  0  0
  -25.5292   -5.8423   32.9779 C   0  0  0  0  0  0  0  0  0  0  0  0
  -25.4526   -4.7841   31.8672 C   0  0  0  0  0  0  0  0  0  0  0  0
  -26.7390   -4.1602   31.5857 N   0  0  0  0  0  0  0  0  0  0  0  0
  -26.9848   -3.4025   30.5395 C   0  0  0  0  0  0  0  0  0  0  0  0
  -26.2985   -3.4356   29.5128 O   0  0  0  0  0  0  0  0  0  0  0  0
  -28.2778   -2.5756   30.6000 C   0  0  2  0  0  0  0  0  0  0  0  0
  -28.7618   -2.5038   31.9491 O   0  0  0  0  0  0  0  0  0  0  0  0
  -29.4859   -3.0967   29.7826 C   0  0  2  0  0  0  0  0  0  0  0  0
  -30.0233   -1.9767   28.8918 C   0  0  0  0  0  0  0  0  0  0  0  0
  -30.5942   -3.5964   30.7136 C   0  0  0  0  0  0  0  0  0  0  0  0
  -29.0622   -4.2604   28.8987 C   0  0  0  0  0  0  0  0  0  0  0  0
  -28.8255   -3.7799   27.5266 O   0  0  0  0  0  0  0  0  0  0  0  0
  -27.9133   -4.7170   26.5893 P   0  0  2  0  0  0  0  0  0  0  0  0
  -27.8629   -6.0031   27.3695 O   0  0  0  0  0  0  0  0  0  0  0  0
  -26.6606   -4.0180   26.1738 O   0  0  0  0  0  0  0  0  0  0  0  0
  -28.9102   -4.7436   25.3399 O   0  0  0  0  0  0  0  0  0  0  0  0
  -28.9846   -4.0774   23.8839 P   0  0  2  0  0  0  0  0  0  0  0  0
  -29.1758   -2.6457   24.2653 O   0  0  0  0  0  0  0  0  0  0  0  0
  -29.8841   -4.8482   23.0143 O   0  0  0  0  0  0  0  0  0  0  0  0
  -27.4573   -4.3056   23.4137 O   0  0  0  0  0  0  0  0  0  0  0  0
  -26.8065   -3.4637   22.4418 C   0  0  0  0  0  0  0  0  0  0  0  0
  -27.1401   -3.8933   21.0166 C   0  0  1  0  0  0  0  0  0  0  0  0
  -26.2070   -3.3360   20.0413 O   0  0  0  0  0  0  0  0  0  0  0  0
  -27.1321   -5.3956   20.7187 C   0  0  1  0  0  0  0  0  0  0  0  0
  -28.1330   -5.5974   19.7532 O   0  0  0  0  0  0  0  0  0  0  0  0
  -29.1879   -6.7714   19.9791 P   0  0  1  0  0  0  0  0  0  0  0  0
  -28.9066   -7.4581   21.2194 O   0  0  0  0  0  0  0  0  0  0  0  0
  -30.3478   -5.8320   20.0848 O   0  0  0  0  0  0  0  0  0  0  0  0
  -29.1843   -7.7039   18.6912 O   0  0  0  0  0  0  0  0  0  0  0  0
  -25.7256   -5.6238   20.1614 C   0  0  1  0  0  0  0  0  0  0  0  0
  -25.5957   -6.8653   19.5026 O   0  0  0  0  0  0  0  0  0  0  0  0
  -25.5969   -4.3654   19.2983 C   0  0  2  0  0  0  0  0  0  0  0  0
  -24.2347   -3.9436   18.9861 N   0  0  0  0  0  0  0  0  0  0  0  0
  -23.5973   -3.8962   17.7678 C   0  0  0  0  0  0  0  0  0  0  0  0
  -22.3664   -3.4498   17.8363 N   0  0  0  0  0  0  0  0  0  0  0  0
  -22.1583   -3.2267   19.1903 C   0  0  0  0  0  0  0  0  0  0  0  0
  -23.2939   -3.5217   19.9114 C   0  0  0  0  0  0  0  0  0  0  0  0
  -23.4359   -3.4243   21.2431 N   0  0  0  0  0  0  0  0  0  0  0  0
  -22.3247   -2.9547   21.8169 C   0  0  0  0  0  0  0  0  0  0  0  0
  -21.1580   -2.6137   21.2461 N   0  0  0  0  0  0  0  0  0  0  0  0
  -21.0358   -2.7477   19.9104 C   0  0  0  0  0  0  0  0  0  0  0  0
  -19.8935   -2.4216   19.3263 N   0  0  0  0  0  0  0  0  0  0  0  0
  -19.0747  -12.0188   29.1947 H   0  0  0  0  0  0  0  0  0  0  0  0
  -19.9949  -11.7619   27.6736 H   0  0  0  0  0  0  0  0  0  0  0  0
  -18.2037  -11.6262   27.6736 H   0  0  0  0  0  0  0  0  0  0  0  0
  -18.0473   -9.4777   30.3306 H   0  0  0  0  0  0  0  0  0  0  0  0
  -17.0888  -10.0547   28.9253 H   0  0  0  0  0  0  0  0  0  0  0  0
  -17.7718   -8.3933   28.9253 H   0  0  0  0  0  0  0  0  0  0  0  0
  -19.6979   -8.3701   27.4533 H   0  0  0  0  0  0  0  0  0  0  0  0
  -22.5363   -8.1534   30.3292 H   0  0  0  0  0  0  0  0  0  0  0  0
  -22.3360   -9.0487   31.8780 H   0  0  0  0  0  0  0  0  0  0  0  0
  -21.7107   -7.0871   33.0673 H   0  0  0  0  0  0  0  0  0  0  0  0
  -21.3581   -6.1781   31.5566 H   0  0  0  0  0  0  0  0  0  0  0  0
  -23.7331   -5.9469   31.1598 H   0  0  0  0  0  0  0  0  0  0  0  0
  -26.3292   -6.5617   32.7489 H   0  0  0  0  0  0  0  0  0  0  0  0
  -25.7476   -5.3583   33.9412 H   0  0  0  0  0  0  0  0  0  0  0  0
  -24.7438   -4.0019   32.1765 H   0  0  0  0  0  0  0  0  0  0  0  0
  -25.1262   -5.2941   30.9488 H   0  0  0  0  0  0  0  0  0  0  0  0
  -27.5078   -4.3238   32.2513 H   0  0  0  0  0  0  0  0  0  0  0  0
  -27.9577   -1.6167   30.1664 H   0  0  0  0  0  0  0  0  0  0  0  0
  -28.0051   -2.6160   32.5775 H   0  0  0  0  0  0  0  0  0  0  0  0
  -30.4137   -1.1632   29.5210 H   0  0  0  0  0  0  0  0  0  0  0  0
  -29.2118   -1.5919   28.2568 H   0  0  0  0  0  0  0  0  0  0  0  0
  -30.8313   -2.3690   28.2568 H   0  0  0  0  0  0  0  0  0  0  0  0
  -30.2847   -3.4568   31.7599 H   0  0  0  0  0  0  0  0  0  0  0  0
  -31.5162   -3.0269   30.5248 H   0  0  0  0  0  0  0  0  0  0  0  0
  -30.7778   -4.6644   30.5248 H   0  0  0  0  0  0  0  0  0  0  0  0
  -28.1370   -4.7035   29.2959 H   0  0  0  0  0  0  0  0  0  0  0  0
  -29.8590   -5.0187   28.8872 H   0  0  0  0  0  0  0  0  0  0  0  0
  -27.1384   -2.4254   22.5890 H   0  0  0  0  0  0  0  0  0  0  0  0
  -25.7191   -3.5512   22.5828 H   0  0  0  0  0  0  0  0  0  0  0  0
  -28.1693   -3.5145   20.9308 H   0  0  0  0  0  0  0  0  0  0  0  0
  -27.3307   -6.0731   21.5622 H   0  0  0  0  0  0  0  0  0  0  0  0
  -24.9099   -5.7241   20.8925 H   0  0  0  0  0  0  0  0  0  0  0  0
  -25.5200   -7.5889   20.1740 H   0  0  0  0  0  0  0  0  0  0  0  0
  -26.0588   -4.5852   18.3245 H   0  0  0  0  0  0  0  0  0  0  0  0
  -24.0750   -4.2036   16.8258 H   0  0  0  0  0  0  0  0  0  0  0  0
  -22.3719   -2.8301   22.9088 H   0  0  0  0  0  0  0  0  0  0  0  0
  -19.1051   -2.0777   19.8930 H   0  0  0  0  0  0  0  0  0  0  0  0
  -19.7931   -2.5118   18.3052 H   0  0  0  0  0  0  0  0  0  0  0  0
  2  1  1  0
  2  3  1  0
  2  4  1  6
  2  5  1  0
  5  6  2  0
  5  7  1  0
  7  8  1  0
  8  9  1  0
  9 10  1  0
 10 11  1  0
 11 12  2  0
 11 13  1  0
 13 14  1  0
 14 15  1  0
 15 16  1  0
 16 17  2  0
 16 18  1  0
 18 19  1  0
 18 20  1  0
 20 21  1  6
 20 22  1  0
 20 23  1  0
 23 24  1  0
 24 25  1  0
 25 26  1  1
 25 27  2  0
 25 28  1  0
 28 29  1  0
 29 30  2  0
 29 31  1  6
 29 32  1  0
 32 33  1  0
 34 33  1  0
 34 35  1  0
 34 36  1  0
 35 44  1  0
 36 37  1  0
 36 42  1  0
 37 38  1  0
 38 39  2  0
 38 40  1  1
 38 41  1  0
 42 43  1  0
 42 44  1  0
 44 45  1  0
 45 46  1  0
 45 49  1  0
 46 47  2  0
 47 48  1  0
 48 49  2  0
 48 53  1  0
 49 50  1  0
 50 51  2  0
 51 52  1  0
 52 53  2  0
 53 54  1  0
  1 55  1  0
  1 56  1  0
  1 57  1  0
  3 58  1  0
  3 59  1  0
  3 60  1  0
  4 61  1  0
  8 62  1  0
  8 63  1  0
  9 64  1  0
  9 65  1  0
 10 66  1  0
 13 67  1  0
 13 68  1  0
 14 69  1  0
 14 70  1  0
 15 71  1  0
 18 72  1  6
 19 73  1  0
 21 74  1  0
 21 75  1  0
 21 76  1  0
 22 77  1  0
 22 78  1  0
 22 79  1  0
 23 80  1  0
 23 81  1  0
 33 82  1  0
 33 83  1  0
 34 84  1  6
 36 85  1  1
 42 86  1  1
 43 87  1  0
 44 88  1  6
 46 89  1  0
 51 90  1  0
 54 91  1  0
 54 92  1  0
M  CHG  4  26  -1  31  -1  40  -1  41  -1
M  END
>  <filename_input>  (25) 
7PT3_3KK_docked.sdf

>  <pdb_id>  (25) 
7PT3_3KK

>  <pose_rank>  (25) 
24

>  <num_atoms_heavy>  (25) 
54

>  <num_torsions>  (25) 
21

>  <pose>  (25) 
[-27.91325748689094, -4.71697324723119, 26.589284083809435, 2.1984801587681684, 0.9975029951744878, 2.2225848748392703, 5.364136342881218, 12.56811701203147, 16.050885740618952, 2.8950382426244077, -6.1519933509544975, -10.488933811423466, -0.055384815807463614, -4.527029884059434, -3.2198410885687916, -2.2643932967528864, -0.42368138107642617, -0.20979565892855795, 1.0544779650779281, 3.335847671719672, -10.576736847958855, 1.7643515770425036, 8.124013939460504, 4.5568192125571425, -3.647702874046486, 0.2271145684306703, -0.9862741513864095]

>  <energy>  (25) 
-398.8283340192849

>  <inter_energy>  (25) 
-435.7568346520083

>  <intra_energy>  (25) 
39.04217854665482

>  <rmsd>  (25) 
10.6324

>  <sdf_rank>  (25) 
0

$$$$

     RDKit          3D

 92 94  0  0  0  0  0  0  0  0999 V2000
  -13.5640   -7.0800   28.0730 C   0  0  0  0  0  0  0  0  0  0  0  0
  -13.7840   -7.9330   26.8360 C   0  0  1  0  0  0  0  0  0  0  0  0
  -14.4670   -7.1260   25.7140 C   0  0  0  0  0  0  0  0  0  0  0  0
  -12.4660   -8.3360   26.4050 O   0  0  0  0  0  0  0  0  0  0  0  0
  -14.6360   -9.1770   27.2310 C   0  0  0  0  0  0  0  0  0  0  0  0
  -14.1760  -10.2850   27.4220 O   0  0  0  0  0  0  0  0  0  0  0  0
  -16.3660   -8.8670   27.4190 S   0  0  0  0  0  0  0  0  0  0  0  0
  -16.9570  -10.5630   27.6880 C   0  0  0  0  0  0  0  0  0  0  0  0
  -18.2210  -10.8140   26.8620 C   0  0  0  0  0  0  0  0  0  0  0  0
  -19.3130  -10.0130   27.3830 N   0  0  0  0  0  0  0  0  0  0  0  0
  -19.9300  -10.3220   28.5290 C   0  0  0  0  0  0  0  0  0  0  0  0
  -19.6830  -11.3610   29.1780 O   0  0  0  0  0  0  0  0  0  0  0  0
  -20.9200   -9.3100   29.0560 C   0  0  0  0  0  0  0  0  0  0  0  0
  -20.4170   -8.7850   30.4090 C   0  0  0  0  0  0  0  0  0  0  0  0
  -21.2470   -7.7160   30.9490 N   0  0  0  0  0  0  0  0  0  0  0  0
  -22.4440   -7.8920   31.4640 C   0  0  0  0  0  0  0  0  0  0  0  0
  -22.8380   -8.9850   31.8840 O   0  0  0  0  0  0  0  0  0  0  0  0
  -23.2820   -6.6200   31.6620 C   0  0  2  0  0  0  0  0  0  0  0  0
  -22.6440   -5.4990   31.0330 O   0  0  0  0  0  0  0  0  0  0  0  0
  -23.5270   -6.1580   33.1200 C   0  0  2  0  0  0  0  0  0  0  0  0
  -22.2030   -5.7260   33.7500 C   0  0  0  0  0  0  0  0  0  0  0  0
  -24.1520   -7.2850   33.9470 C   0  0  0  0  0  0  0  0  0  0  0  0
  -24.4860   -4.9770   33.1450 C   0  0  0  0  0  0  0  0  0  0  0  0
  -25.7820   -5.3790   32.5720 O   0  0  0  0  0  0  0  0  0  0  0  0
  -27.0480   -4.4640   32.9580 P   0  0  2  0  0  0  0  0  0  0  0  0
  -26.7150   -3.1550   32.2940 O   0  0  0  0  0  0  0  0  0  0  0  0
  -27.3450   -4.5330   34.4200 O   0  0  0  0  0  0  0  0  0  0  0  0
  -28.1410   -5.3360   32.1830 O   0  0  0  0  0  0  0  0  0  0  0  0
  -28.7270   -5.4290   30.6940 P   0  0  2  0  0  0  0  0  0  0  0  0
  -29.7010   -6.5480   30.8700 O   0  0  0  0  0  0  0  0  0  0  0  0
  -27.6340   -5.4060   29.7120 O   0  0  0  0  0  0  0  0  0  0  0  0
  -29.5270   -4.0280   30.6400 O   0  0  0  0  0  0  0  0  0  0  0  0
  -29.0430   -2.8810   29.9140 C   0  0  0  0  0  0  0  0  0  0  0  0
  -30.0890   -1.7720   29.8580 C   0  0  1  0  0  0  0  0  0  0  0  0
  -31.2810   -2.1770   29.1180 O   0  0  0  0  0  0  0  0  0  0  0  0
  -30.6390   -1.2610   31.1930 C   0  0  1  0  0  0  0  0  0  0  0  0
  -30.8960    0.1070   31.0000 O   0  0  0  0  0  0  0  0  0  0  0  0
  -30.6510    1.1100   32.2150 P   0  0  1  0  0  0  0  0  0  0  0  0
  -29.2860    1.0030   32.6780 O   0  0  0  0  0  0  0  0  0  0  0  0
  -30.8870    2.3270   31.3770 O   0  0  0  0  0  0  0  0  0  0  0  0
  -31.7510    0.8280   33.3280 O   0  0  0  0  0  0  0  0  0  0  0  0
  -31.9200   -2.0790   31.3680 C   0  0  1  0  0  0  0  0  0  0  0  0
  -32.7750   -1.5470   32.3570 O   0  0  0  0  0  0  0  0  0  0  0  0
  -32.4290   -2.0490   29.9240 C   0  0  2  0  0  0  0  0  0  0  0  0
  -33.3560   -3.1140   29.5530 N   0  0  0  0  0  0  0  0  0  0  0  0
  -33.3680   -4.4320   29.9470 C   0  0  0  0  0  0  0  0  0  0  0  0
  -34.3570   -5.1240   29.4350 N   0  0  0  0  0  0  0  0  0  0  0  0
  -35.0190   -4.2200   28.6160 C   0  0  0  0  0  0  0  0  0  0  0  0
  -34.4210   -2.9810   28.6770 C   0  0  0  0  0  0  0  0  0  0  0  0
  -34.8020   -1.8820   28.0060 N   0  0  0  0  0  0  0  0  0  0  0  0
  -35.8920   -2.1160   27.2700 C   0  0  0  0  0  0  0  0  0  0  0  0
  -36.5850   -3.2570   27.1250 N   0  0  0  0  0  0  0  0  0  0  0  0
  -36.1630   -4.3510   27.7900 C   0  0  0  0  0  0  0  0  0  0  0  0
  -36.8280   -5.4880   27.6590 N   0  0  0  0  0  0  0  0  0  0  0  0
  -13.7219   -7.6920   28.9732 H   0  0  0  0  0  0  0  0  0  0  0  0
  -12.5357   -6.6893   28.0709 H   0  0  0  0  0  0  0  0  0  0  0  0
  -14.2751   -6.2407   28.0709 H   0  0  0  0  0  0  0  0  0  0  0  0
  -15.1171   -6.3579   26.1584 H   0  0  0  0  0  0  0  0  0  0  0  0
  -13.7001   -6.6419   25.0915 H   0  0  0  0  0  0  0  0  0  0  0  0
  -15.0712   -7.8023   25.0915 H   0  0  0  0  0  0  0  0  0  0  0  0
  -11.8984   -8.5095   27.1973 H   0  0  0  0  0  0  0  0  0  0  0  0
  -16.1751  -11.2739   27.3826 H   0  0  0  0  0  0  0  0  0  0  0  0
  -17.1895  -10.6995   28.7544 H   0  0  0  0  0  0  0  0  0  0  0  0
  -18.0334  -10.5386   25.8137 H   0  0  0  0  0  0  0  0  0  0  0  0
  -18.4897  -11.8790   26.9219 H   0  0  0  0  0  0  0  0  0  0  0  0
  -19.6216   -9.1836   26.8559 H   0  0  0  0  0  0  0  0  0  0  0  0
  -21.0092   -8.4751   28.3453 H   0  0  0  0  0  0  0  0  0  0  0  0
  -21.9061   -9.7812   29.1807 H   0  0  0  0  0  0  0  0  0  0  0  0
  -20.4078   -9.6184   31.1269 H   0  0  0  0  0  0  0  0  0  0  0  0
  -19.4108   -8.3709   30.2478 H   0  0  0  0  0  0  0  0  0  0  0  0
  -20.8706   -6.7575   30.9257 H   0  0  0  0  0  0  0  0  0  0  0  0
  -24.2492   -6.9122   31.2271 H   0  0  0  0  0  0  0  0  0  0  0  0
  -22.2949   -4.8856   31.7273 H   0  0  0  0  0  0  0  0  0  0  0  0
  -22.2918   -5.7550   34.8460 H   0  0  0  0  0  0  0  0  0  0  0  0
  -21.4036   -6.4099   33.4287 H   0  0  0  0  0  0  0  0  0  0  0  0
  -21.9608   -4.7022   33.4287 H   0  0  0  0  0  0  0  0  0  0  0  0
  -24.0300   -7.0650   35.0178 H   0  0  0  0  0  0  0  0  0  0  0  0
  -25.2229   -7.3642   33.7086 H   0  0  0  0  0  0  0  0  0  0  0  0
  -23.6520   -8.2354   33.7086 H   0  0  0  0  0  0  0  0  0  0  0  0
  -24.6321   -4.6463   34.1839 H   0  0  0  0  0  0  0  0  0  0  0  0
  -24.0647   -4.1524   32.5512 H   0  0  0  0  0  0  0  0  0  0  0  0
  -28.1411   -2.4967   30.4130 H   0  0  0  0  0  0  0  0  0  0  0  0
  -28.8174   -3.1947   28.8841 H   0  0  0  0  0  0  0  0  0  0  0  0
  -29.5051   -0.9722   29.3791 H   0  0  0  0  0  0  0  0  0  0  0  0
  -29.9882   -1.3646   32.0737 H   0  0  0  0  0  0  0  0  0  0  0  0
  -31.8093   -3.1010   31.7594 H   0  0  0  0  0  0  0  0  0  0  0  0
  -32.4196   -1.7681   33.2542 H   0  0  0  0  0  0  0  0  0  0  0  0
  -32.9979   -1.1165   29.7946 H   0  0  0  0  0  0  0  0  0  0  0  0
  -32.6191   -4.8642   30.6269 H   0  0  0  0  0  0  0  0  0  0  0  0
  -36.2752   -1.2541   26.7040 H   0  0  0  0  0  0  0  0  0  0  0  0
  -37.6545   -5.5335   27.0461 H   0  0  0  0  0  0  0  0  0  0  0  0
  -36.5189   -6.3272   28.1700 H   0  0  0  0  0  0  0  0  0  0  0  0
  2  1  1  0
  2  3  1  0
  2  4  1  6
  2  5  1  0
  5  6  2  0
  5  7  1  0
  7  8  1  0
  8  9  1  0
  9 10  1  0
 10 11  1  0
 11 12  2  0
 11 13  1  0
 13 14  1  0
 14 15  1  0
 15 16  1  0
 16 17  2  0
 16 18  1  0
 18 19  1  0
 18 20  1  0
 20 21  1  1
 20 22  1  0
 20 23  1  0
 23 24  1  0
 24 25  1  0
 25 26  1  6
 25 27  2  0
 25 28  1  0
 28 29  1  0
 29 30  2  0
 29 31  1  6
 29 32  1  0
 32 33  1  0
 34 33  1  0
 34 35  1  0
 34 36  1  0
 35 44  1  0
 36 37  1  0
 36 42  1  0
 37 38  1  0
 38 39  2  0
 38 40  1  6
 38 41  1  0
 42 43  1  0
 42 44  1  0
 44 45  1  0
 45 46  1  0
 45 49  1  0
 46 47  2  0
 47 48  1  0
 48 49  2  0
 48 53  1  0
 49 50  1  0
 50 51  2  0
 51 52  1  0
 52 53  2  0
 53 54  1  0
  1 55  1  0
  1 56  1  0
  1 57  1  0
  3 58  1  0
  3 59  1  0
  3 60  1  0
  4 61  1  0
  8 62  1  0
  8 63  1  0
  9 64  1  0
  9 65  1  0
 10 66  1  0
 13 67  1  0
 13 68  1  0
 14 69  1  0
 14 70  1  0
 15 71  1  0
 18 72  1  6
 19 73  1  0
 21 74  1  0
 21 75  1  0
 21 76  1  0
 22 77  1  0
 22 78  1  0
 22 79  1  0
 23 80  1  0
 23 81  1  0
 33 82  1  0
 33 83  1  0
 34 84  1  6
 36 85  1  1
 42 86  1  1
 43 87  1  0
 44 88  1  6
 46 89  1  0
 51 90  1  0
 54 91  1  0
 54 92  1  0
M  CHG  4  26  -1  31  -1  40  -1  41  -1
M  END
>  <filename_input>  (26) 
7PT3_3KK_docked.sdf

>  <pdb_id>  (26) 
7PT3_3KK

>  <pose_rank>  (26) 
25

>  <num_atoms_heavy>  (26) 
54

>  <num_torsions>  (26) 
21

>  <pose>  (26) 
[-27.048, -4.464, 32.958, 1e-06, 1e-06, 1e-06, 0.0, 0.0, 0.0, 0.0, 0.0, 0.0, 0.0, 0.0, 0.0, 0.0, 0.0, 0.0, 0.0, 0.0, 0.0, 0.0, 0.0, 0.0, 0.0, 0.0, 0.0]

>  <energy>  (26) 
-854.7200399191665

>  <inter_energy>  (26) 
-891.9027505102254

>  <intra_energy>  (26) 
42.29434307103722

>  <rmsd>  (26) 
0.0

>  <sdf_rank>  (26) 
0

$$$$
