
     RDKit          3D

 36 37  0  0  0  0  0  0  0  0999 V2000
   27.9215    7.0243   12.8100 O   0  0  0  0  0  0  0  0  0  0  0  0
   27.9904    7.0214   11.3330 S   0  0  2  0  0  0  0  0  0  0  0  0
   29.2222    6.5072   10.7286 O   0  0  0  0  0  0  0  0  0  0  0  0
   27.8170    8.6828   10.9187 C   0  0  0  0  0  0  0  0  0  0  0  0
   28.0833    9.7521   11.7709 C   0  0  0  0  0  0  0  0  0  0  0  0
   27.8682   11.1075   11.4007 C   0  0  0  0  0  0  0  0  0  0  0  0
   27.3735   11.3263   10.1225 C   0  0  0  0  0  0  0  0  0  0  0  0
   27.1749   10.2718    9.2785 C   0  0  0  0  0  0  0  0  0  0  0  0
   27.3183    8.9115    9.6635 C   0  0  0  0  0  0  0  0  0  0  0  0
   26.6455    5.9622   10.8066 C   0  0  0  0  0  0  0  0  0  0  0  0
   26.8777    5.2532    9.6362 C   0  0  0  0  0  0  0  0  0  0  0  0
   25.4708    5.8729   11.5757 C   0  0  0  0  0  0  0  0  0  0  0  0
   25.0083    6.7113   12.7292 C   0  0  0  0  0  0  0  0  0  0  0  0
   24.3518    7.7955   12.2708 O   0  0  0  0  0  0  0  0  0  0  0  0
   24.6175    9.0887   12.6703 C   0  0  0  0  0  0  0  0  0  0  0  0
   24.9582    6.4726   13.8623 O   0  0  0  0  0  0  0  0  0  0  0  0
   24.5952    4.8347   11.2001 C   0  0  0  0  0  0  0  0  0  0  0  0
   24.6720    4.0914    9.9885 C   0  0  0  0  0  0  0  0  0  0  0  0
   25.8621    4.3303    9.2714 C   0  0  0  0  0  0  0  0  0  0  0  0
   26.1986    3.4888    7.7908 Cl  0  0  0  0  0  0  0  0  0  0  0  0
   23.6691    2.6884    9.7245 S   0  0  2  0  0  0  0  0  0  0  0  0
   24.4704    1.3774    9.6688 O   0  0  0  0  0  0  0  0  0  0  0  0
   22.9596    2.7033    8.3602 O   0  0  0  0  0  0  0  0  0  0  0  0
   22.3868    2.3855   10.8996 N   0  0  0  0  0  0  0  0  0  0  0  0
   28.4777    9.5380   12.7752 H   0  0  0  0  0  0  0  0  0  0  0  0
   28.0822   11.9378   12.0897 H   0  0  0  0  0  0  0  0  0  0  0  0
   27.1417   12.3488    9.7897 H   0  0  0  0  0  0  0  0  0  0  0  0
   26.8869   10.4879    8.2391 H   0  0  0  0  0  0  0  0  0  0  0  0
   27.0436    8.0865    8.9898 H   0  0  0  0  0  0  0  0  0  0  0  0
   27.7861    5.3964    9.0326 H   0  0  0  0  0  0  0  0  0  0  0  0
   24.6277    9.1382   13.7691 H   0  0  0  0  0  0  0  0  0  0  0  0
   25.5981    9.3988   12.2802 H   0  0  0  0  0  0  0  0  0  0  0  0
   23.8386    9.7603   12.2802 H   0  0  0  0  0  0  0  0  0  0  0  0
   23.7865    4.5777   11.9001 H   0  0  0  0  0  0  0  0  0  0  0  0
   22.7665    2.4752   11.8529 H   0  0  0  0  0  0  0  0  0  0  0  0
   21.6295    3.0707   10.7658 H   0  0  0  0  0  0  0  0  0  0  0  0
  1  2  2  0
  2  3  2  0
  2  4  1  6
  2 10  1  0
  4  5  2  0
  4  9  1  0
  5  6  1  0
  6  7  2  0
  7  8  1  0
  8  9  2  0
 10 11  2  0
 10 12  1  0
 11 19  1  0
 12 13  1  0
 12 17  2  0
 13 14  1  0
 13 16  2  0
 14 15  1  0
 17 18  1  0
 18 19  2  0
 18 21  1  0
 19 20  1  0
 21 22  2  0
 21 23  2  0
 21 24  1  1
  5 25  1  0
  6 26  1  0
  7 27  1  0
  8 28  1  0
  9 29  1  0
 11 30  1  0
 15 31  1  0
 15 32  1  0
 15 33  1  0
 17 34  1  0
 24 35  1  0
 24 36  1  0
M  END
>  <filename_input>  (1) 
7PUV_84Z_docked.sdf

>  <pdb_id>  (1) 
7PUV_84Z

>  <pose_rank>  (1) 
0

>  <num_atoms_heavy>  (1) 
24

>  <num_torsions>  (1) 
5

>  <pose>  (1) 
[26.645524417055533, 5.962161144733864, 10.806589516179567, -0.7520419177431239, 2.060255894864012, 5.789773575030417, 0.0844391952350886, 6.361227112667689, 0.4904717617587551, 0.6504992423505201, 0.9519352696555292]

>  <energy>  (1) 
-1268.867286083096

>  <inter_energy>  (1) 
-1254.1290945322025

>  <intra_energy>  (1) 
17.85400355918872

>  <rmsd>  (1) 
0.500916

>  <sdf_rank>  (1) 
0

$$$$

     RDKit          3D

 36 37  0  0  0  0  0  0  0  0999 V2000
   27.8058    7.0922   12.7315 O   0  0  0  0  0  0  0  0  0  0  0  0
   27.8633    7.1336   11.2546 S   0  0  2  0  0  0  0  0  0  0  0  0
   29.1134    6.6957   10.6281 O   0  0  0  0  0  0  0  0  0  0  0  0
   27.6080    8.7957   10.8883 C   0  0  0  0  0  0  0  0  0  0  0  0
   27.3741    9.7958   11.8295 C   0  0  0  0  0  0  0  0  0  0  0  0
   27.1104   11.1462   11.4728 C   0  0  0  0  0  0  0  0  0  0  0  0
   27.0992   11.4343   10.1151 C   0  0  0  0  0  0  0  0  0  0  0  0
   27.3897   10.4561    9.2082 C   0  0  0  0  0  0  0  0  0  0  0  0
   27.5830    9.0907    9.5508 C   0  0  0  0  0  0  0  0  0  0  0  0
   26.5662    6.0265   10.7073 C   0  0  0  0  0  0  0  0  0  0  0  0
   26.8881    5.2385    9.6110 C   0  0  0  0  0  0  0  0  0  0  0  0
   25.3379    5.9805   11.3917 C   0  0  0  0  0  0  0  0  0  0  0  0
   24.7869    6.8941   12.4449 C   0  0  0  0  0  0  0  0  0  0  0  0
   24.9457    6.3359   13.6615 O   0  0  0  0  0  0  0  0  0  0  0  0
   24.0064    5.5327   14.2740 C   0  0  0  0  0  0  0  0  0  0  0  0
   24.4624    8.0051   12.3844 O   0  0  0  0  0  0  0  0  0  0  0  0
   24.4974    4.9097   11.0276 C   0  0  0  0  0  0  0  0  0  0  0  0
   24.6676    4.0831    9.8814 C   0  0  0  0  0  0  0  0  0  0  0  0
   25.9067    4.2821    9.2390 C   0  0  0  0  0  0  0  0  0  0  0  0
   26.3564    3.3409    7.8514 Cl  0  0  0  0  0  0  0  0  0  0  0  0
   23.6935    2.6550    9.6449 S   0  0  2  0  0  0  0  0  0  0  0  0
   24.5256    1.3643    9.5697 O   0  0  0  0  0  0  0  0  0  0  0  0
   22.9487    2.6500    8.2996 O   0  0  0  0  0  0  0  0  0  0  0  0
   22.4501    2.3222   10.8533 N   0  0  0  0  0  0  0  0  0  0  0  0
   27.3945    9.5285   12.8963 H   0  0  0  0  0  0  0  0  0  0  0  0
   26.9252   11.9209   12.2315 H   0  0  0  0  0  0  0  0  0  0  0  0
   26.8563   12.4501    9.7700 H   0  0  0  0  0  0  0  0  0  0  0  0
   27.4795   10.7418    8.1498 H   0  0  0  0  0  0  0  0  0  0  0  0
   27.7061    8.3124    8.7833 H   0  0  0  0  0  0  0  0  0  0  0  0
   27.8383    5.3475    9.0676 H   0  0  0  0  0  0  0  0  0  0  0  0
   24.1068    5.6185   15.3661 H   0  0  0  0  0  0  0  0  0  0  0  0
   22.9980    5.8520   13.9723 H   0  0  0  0  0  0  0  0  0  0  0  0
   24.1655    4.4869   13.9723 H   0  0  0  0  0  0  0  0  0  0  0  0
   23.6399    4.6952   11.6825 H   0  0  0  0  0  0  0  0  0  0  0  0
   22.8504    2.4293   11.7963 H   0  0  0  0  0  0  0  0  0  0  0  0
   21.6698    2.9839   10.7343 H   0  0  0  0  0  0  0  0  0  0  0  0
  1  2  2  0
  2  3  2  0
  2  4  1  6
  2 10  1  0
  4  5  2  0
  4  9  1  0
  5  6  1  0
  6  7  2  0
  7  8  1  0
  8  9  2  0
 10 11  2  0
 10 12  1  0
 11 19  1  0
 12 13  1  0
 12 17  2  0
 13 14  1  0
 13 16  2  0
 14 15  1  0
 17 18  1  0
 18 19  2  0
 18 21  1  0
 19 20  1  0
 21 22  2  0
 21 23  2  0
 21 24  1  1
  5 25  1  0
  6 26  1  0
  7 27  1  0
  8 28  1  0
  9 29  1  0
 11 30  1  0
 15 31  1  0
 15 32  1  0
 15 33  1  0
 17 34  1  0
 24 35  1  0
 24 36  1  0
M  END
>  <filename_input>  (2) 
7PUV_84Z_docked.sdf

>  <pdb_id>  (2) 
7PUV_84Z

>  <pose_rank>  (2) 
1

>  <num_atoms_heavy>  (2) 
24

>  <num_torsions>  (2) 
5

>  <pose>  (2) 
[26.566191792796555, 6.026507756604338, 10.70727814766678, 2.4190012717663114, 4.588913655982065, 3.2825724745875777, -0.039260622146776676, 0.2127470787262122, 0.08137207448125378, -2.6093823663172415, 1.6233624240644031]

>  <energy>  (2) 
-1249.700789960454

>  <inter_energy>  (2) 
-1256.3044217664758

>  <intra_energy>  (2) 
21.8975046305267

>  <rmsd>  (2) 
1.00885

>  <sdf_rank>  (2) 
0

$$$$

     RDKit          3D

 36 37  0  0  0  0  0  0  0  0999 V2000
   27.8500    6.9847   12.7899 O   0  0  0  0  0  0  0  0  0  0  0  0
   27.7719    7.1539   11.3231 S   0  0  2  0  0  0  0  0  0  0  0  0
   28.9772    6.8326   10.5543 O   0  0  0  0  0  0  0  0  0  0  0  0
   27.4159    8.8265   11.1292 C   0  0  0  0  0  0  0  0  0  0  0  0
   27.1307    9.4485    9.9157 C   0  0  0  0  0  0  0  0  0  0  0  0
   26.9004   10.8463    9.7992 C   0  0  0  0  0  0  0  0  0  0  0  0
   26.9694   11.5825   10.9738 C   0  0  0  0  0  0  0  0  0  0  0  0
   27.1900   10.9495   12.1632 C   0  0  0  0  0  0  0  0  0  0  0  0
   27.4923    9.5660   12.2797 C   0  0  0  0  0  0  0  0  0  0  0  0
   26.4775    6.0348   10.7940 C   0  0  0  0  0  0  0  0  0  0  0  0
   26.6837    5.4381    9.5580 C   0  0  0  0  0  0  0  0  0  0  0  0
   25.3661    5.7943   11.6224 C   0  0  0  0  0  0  0  0  0  0  0  0
   24.9199    6.5027   12.8659 C   0  0  0  0  0  0  0  0  0  0  0  0
   24.6793    5.6042   13.8414 O   0  0  0  0  0  0  0  0  0  0  0  0
   25.4568    5.4606   14.9717 C   0  0  0  0  0  0  0  0  0  0  0  0
   24.9511    7.6271   13.1453 O   0  0  0  0  0  0  0  0  0  0  0  0
   24.5470    4.7217   11.2169 C   0  0  0  0  0  0  0  0  0  0  0  0
   24.5985    4.0817    9.9464 C   0  0  0  0  0  0  0  0  0  0  0  0
   25.7175    4.4682    9.1810 C   0  0  0  0  0  0  0  0  0  0  0  0
   26.0169    3.7717    7.6193 Cl  0  0  0  0  0  0  0  0  0  0  0  0
   23.6872    2.6279    9.6298 S   0  0  2  0  0  0  0  0  0  0  0  0
   24.5619    1.3639    9.5987 O   0  0  0  0  0  0  0  0  0  0  0  0
   23.0359    2.6167    8.2369 O   0  0  0  0  0  0  0  0  0  0  0  0
   22.3755    2.2433   10.7473 N   0  0  0  0  0  0  0  0  0  0  0  0
   27.0816    8.8304    9.0072 H   0  0  0  0  0  0  0  0  0  0  0  0
   26.6794   11.3189    8.8308 H   0  0  0  0  0  0  0  0  0  0  0  0
   26.8464   12.6752   10.9465 H   0  0  0  0  0  0  0  0  0  0  0  0
   27.1301   11.5457   13.0856 H   0  0  0  0  0  0  0  0  0  0  0  0
   27.7726    9.1132   13.2422 H   0  0  0  0  0  0  0  0  0  0  0  0
   27.5371    5.6985    8.9146 H   0  0  0  0  0  0  0  0  0  0  0  0
   24.8278    5.5768   15.8666 H   0  0  0  0  0  0  0  0  0  0  0  0
   25.9181    4.4620   14.9749 H   0  0  0  0  0  0  0  0  0  0  0  0
   26.2444    6.2284   14.9749 H   0  0  0  0  0  0  0  0  0  0  0  0
   23.8076    4.3487   11.9409 H   0  0  0  0  0  0  0  0  0  0  0  0
   22.7102    2.3414   11.7164 H   0  0  0  0  0  0  0  0  0  0  0  0
   21.5889    2.8890   10.5887 H   0  0  0  0  0  0  0  0  0  0  0  0
  1  2  2  0
  2  3  2  0
  2  4  1  1
  2 10  1  0
  4  5  2  0
  4  9  1  0
  5  6  1  0
  6  7  2  0
  7  8  1  0
  8  9  2  0
 10 11  2  0
 10 12  1  0
 11 19  1  0
 12 13  1  0
 12 17  2  0
 13 14  1  0
 13 16  2  0
 14 15  1  0
 17 18  1  0
 18 19  2  0
 18 21  1  0
 19 20  1  0
 21 22  2  0
 21 23  2  0
 21 24  1  1
  5 25  1  0
  6 26  1  0
  7 27  1  0
  8 28  1  0
  9 29  1  0
 11 30  1  0
 15 31  1  0
 15 32  1  0
 15 33  1  0
 17 34  1  0
 24 35  1  0
 24 36  1  0
M  END
>  <filename_input>  (3) 
7PUV_84Z_docked.sdf

>  <pdb_id>  (3) 
7PUV_84Z

>  <pose_rank>  (3) 
2

>  <num_atoms_heavy>  (3) 
24

>  <num_torsions>  (3) 
5

>  <pose>  (3) 
[26.477470422542986, 6.034843297941015, 10.793955707797396, -5.6870132906010715, -2.34018642883016, 0.6766589806649398, 0.2131890871787589, 0.1293279487985544, 3.351394205492323, -9.406580370218709, -1.1383245792656151]

>  <energy>  (3) 
-1203.5820407334281

>  <inter_energy>  (3) 
-1197.0639655836621

>  <intra_energy>  (3) 
25.351843890046794

>  <rmsd>  (3) 
1.19916

>  <sdf_rank>  (3) 
0

$$$$

     RDKit          3D

 36 37  0  0  0  0  0  0  0  0999 V2000
   27.2185    7.5824   12.7082 O   0  0  0  0  0  0  0  0  0  0  0  0
   27.6352    7.2220   11.3361 S   0  0  2  0  0  0  0  0  0  0  0  0
   28.9371    6.5657   11.1903 O   0  0  0  0  0  0  0  0  0  0  0  0
   27.6787    8.7356   10.5181 C   0  0  0  0  0  0  0  0  0  0  0  0
   28.7394    9.1946    9.7402 C   0  0  0  0  0  0  0  0  0  0  0  0
   28.7521   10.4791    9.1317 C   0  0  0  0  0  0  0  0  0  0  0  0
   27.6352   11.2744    9.3470 C   0  0  0  0  0  0  0  0  0  0  0  0
   26.5787   10.7871   10.0611 C   0  0  0  0  0  0  0  0  0  0  0  0
   26.5868    9.5347   10.7322 C   0  0  0  0  0  0  0  0  0  0  0  0
   26.3844    6.0795   10.7549 C   0  0  0  0  0  0  0  0  0  0  0  0
   26.7537    5.3079    9.6620 C   0  0  0  0  0  0  0  0  0  0  0  0
   25.1435    5.9925   11.4122 C   0  0  0  0  0  0  0  0  0  0  0  0
   24.5424    6.8830   12.4577 C   0  0  0  0  0  0  0  0  0  0  0  0
   24.7990    6.3849   13.6835 O   0  0  0  0  0  0  0  0  0  0  0  0
   24.3059    6.9190   14.8558 C   0  0  0  0  0  0  0  0  0  0  0  0
   24.1071    7.9541   12.3761 O   0  0  0  0  0  0  0  0  0  0  0  0
   24.3438    4.8990   11.0244 C   0  0  0  0  0  0  0  0  0  0  0  0
   24.5638    4.0844    9.8779 C   0  0  0  0  0  0  0  0  0  0  0  0
   25.8100    4.3244    9.2638 C   0  0  0  0  0  0  0  0  0  0  0  0
   26.3180    3.4052    7.8815 Cl  0  0  0  0  0  0  0  0  0  0  0  0
   23.6388    2.6290    9.6129 S   0  0  2  0  0  0  0  0  0  0  0  0
   24.5110    1.3644    9.5503 O   0  0  0  0  0  0  0  0  0  0  0  0
   22.9245    2.6089    8.2513 O   0  0  0  0  0  0  0  0  0  0  0  0
   22.3795    2.2524   10.7917 N   0  0  0  0  0  0  0  0  0  0  0  0
   29.6056    8.5335    9.5902 H   0  0  0  0  0  0  0  0  0  0  0  0
   29.6011   10.8242    8.5233 H   0  0  0  0  0  0  0  0  0  0  0  0
   27.6013   12.2967    8.9424 H   0  0  0  0  0  0  0  0  0  0  0  0
   25.6673   11.4002   10.1205 H   0  0  0  0  0  0  0  0  0  0  0  0
   25.7607    9.2234   11.3885 H   0  0  0  0  0  0  0  0  0  0  0  0
   27.7117    5.4485    9.1400 H   0  0  0  0  0  0  0  0  0  0  0  0
   24.7727    6.4134   15.7140 H   0  0  0  0  0  0  0  0  0  0  0  0
   24.5358    7.9940   14.8942 H   0  0  0  0  0  0  0  0  0  0  0  0
   23.2160    6.7755   14.8942 H   0  0  0  0  0  0  0  0  0  0  0  0
   23.4793    4.6549   11.6592 H   0  0  0  0  0  0  0  0  0  0  0  0
   22.7558    2.3649   11.7439 H   0  0  0  0  0  0  0  0  0  0  0  0
   21.5831    2.8920   10.6594 H   0  0  0  0  0  0  0  0  0  0  0  0
  1  2  2  0
  2  3  2  0
  2  4  1  6
  2 10  1  0
  4  5  2  0
  4  9  1  0
  5  6  1  0
  6  7  2  0
  7  8  1  0
  8  9  2  0
 10 11  2  0
 10 12  1  0
 11 19  1  0
 12 13  1  0
 12 17  2  0
 13 14  1  0
 13 16  2  0
 14 15  1  0
 17 18  1  0
 18 19  2  0
 18 21  1  0
 19 20  1  0
 21 22  2  0
 21 23  2  0
 21 24  1  1
  5 25  1  0
  6 26  1  0
  7 27  1  0
  8 28  1  0
  9 29  1  0
 11 30  1  0
 15 31  1  0
 15 32  1  0
 15 33  1  0
 17 34  1  0
 24 35  1  0
 24 36  1  0
M  END
>  <filename_input>  (4) 
7PUV_84Z_docked.sdf

>  <pdb_id>  (4) 
7PUV_84Z

>  <pose_rank>  (4) 
3

>  <num_atoms_heavy>  (4) 
24

>  <num_torsions>  (4) 
5

>  <pose>  (4) 
[26.38436160209978, 6.0794869803137255, 10.754924031297206, 2.0428917038264847, 5.430316178314612, 1.9970742770519125, -0.038638256298643855, -0.16547278718171302, -3.8965111121126013, 3.7719202525714923, 0.1554993017705746]

>  <energy>  (4) 
-1195.764507602571

>  <inter_energy>  (4) 
-1199.2960754624403

>  <intra_energy>  (4) 
34.9890374314064

>  <rmsd>  (4) 
0.998377

>  <sdf_rank>  (4) 
0

$$$$

     RDKit          3D

 36 37  0  0  0  0  0  0  0  0999 V2000
   27.4688    7.7057   12.5162 O   0  0  0  0  0  0  0  0  0  0  0  0
   27.9990    7.0306   11.3124 S   0  0  2  0  0  0  0  0  0  0  0  0
   29.1914    6.1979   11.4912 O   0  0  0  0  0  0  0  0  0  0  0  0
   28.3823    8.3341   10.2559 C   0  0  0  0  0  0  0  0  0  0  0  0
   29.6718    8.7245    9.9018 C   0  0  0  0  0  0  0  0  0  0  0  0
   29.9388    9.8463    9.0707 C   0  0  0  0  0  0  0  0  0  0  0  0
   28.8342   10.5509    8.6125 C   0  0  0  0  0  0  0  0  0  0  0  0
   27.5756   10.1198    8.9189 C   0  0  0  0  0  0  0  0  0  0  0  0
   27.3009    9.0446    9.8062 C   0  0  0  0  0  0  0  0  0  0  0  0
   26.6724    5.9646   10.7543 C   0  0  0  0  0  0  0  0  0  0  0  0
   26.9539    5.2200    9.6174 C   0  0  0  0  0  0  0  0  0  0  0  0
   25.4623    5.9053   11.4696 C   0  0  0  0  0  0  0  0  0  0  0  0
   24.9526    6.7802   12.5750 C   0  0  0  0  0  0  0  0  0  0  0  0
   24.3553    7.8708   12.0551 O   0  0  0  0  0  0  0  0  0  0  0  0
   24.2645    9.0865   12.7005 C   0  0  0  0  0  0  0  0  0  0  0  0
   24.8262    6.5675   13.7074 O   0  0  0  0  0  0  0  0  0  0  0  0
   24.5975    4.8618   11.0836 C   0  0  0  0  0  0  0  0  0  0  0  0
   24.7254    4.0827    9.8992 C   0  0  0  0  0  0  0  0  0  0  0  0
   25.9496    4.2930    9.2323 C   0  0  0  0  0  0  0  0  0  0  0  0
   26.3488    3.4061    7.7943 Cl  0  0  0  0  0  0  0  0  0  0  0  0
   23.7255    2.6786    9.6293 S   0  0  2  0  0  0  0  0  0  0  0  0
   24.5312    1.3714    9.5530 O   0  0  0  0  0  0  0  0  0  0  0  0
   23.0041    2.7050    8.2715 O   0  0  0  0  0  0  0  0  0  0  0  0
   22.4547    2.3586   10.8124 N   0  0  0  0  0  0  0  0  0  0  0  0
   30.5214    8.1386   10.2825 H   0  0  0  0  0  0  0  0  0  0  0  0
   30.9650   10.1401    8.8050 H   0  0  0  0  0  0  0  0  0  0  0  0
   28.9728   11.4560    8.0030 H   0  0  0  0  0  0  0  0  0  0  0  0
   26.7238   10.6354    8.4511 H   0  0  0  0  0  0  0  0  0  0  0  0
   26.2749    8.7961   10.1155 H   0  0  0  0  0  0  0  0  0  0  0  0
   27.8906    5.3398    9.0533 H   0  0  0  0  0  0  0  0  0  0  0  0
   24.2765    8.9258   13.7886 H   0  0  0  0  0  0  0  0  0  0  0  0
   25.1180    9.7185   12.4137 H   0  0  0  0  0  0  0  0  0  0  0  0
   23.3267    9.5847   12.4137 H   0  0  0  0  0  0  0  0  0  0  0  0
   23.7550    4.6306   11.7520 H   0  0  0  0  0  0  0  0  0  0  0  0
   22.8386    2.4553   11.7633 H   0  0  0  0  0  0  0  0  0  0  0  0
   21.6867    3.0325   10.6821 H   0  0  0  0  0  0  0  0  0  0  0  0
  1  2  2  0
  2  3  2  0
  2  4  1  6
  2 10  1  0
  4  5  2  0
  4  9  1  0
  5  6  1  0
  6  7  2  0
  7  8  1  0
  8  9  2  0
 10 11  2  0
 10 12  1  0
 11 19  1  0
 12 13  1  0
 12 17  2  0
 13 14  1  0
 13 16  2  0
 14 15  1  0
 17 18  1  0
 18 19  2  0
 18 21  1  0
 19 20  1  0
 21 22  2  0
 21 23  2  0
 21 24  1  1
  5 25  1  0
  6 26  1  0
  7 27  1  0
  8 28  1  0
  9 29  1  0
 11 30  1  0
 15 31  1  0
 15 32  1  0
 15 33  1  0
 17 34  1  0
 24 35  1  0
 24 36  1  0
M  END
>  <filename_input>  (5) 
7PUV_84Z_docked.sdf

>  <pdb_id>  (5) 
7PUV_84Z

>  <pose_rank>  (5) 
4

>  <num_atoms_heavy>  (5) 
24

>  <num_torsions>  (5) 
5

>  <pose>  (5) 
[26.672412772305726, 5.96462712803262, 10.754346357592649, 0.8193504244376668, 3.9725734737174356, 4.6372150191451285, 0.015159496947243204, -0.48066201739932146, 2.032725446837498, 0.6242947743130897, 0.5515151996492517]

>  <energy>  (5) 
-1190.587836395653

>  <inter_energy>  (5) 
-1208.316652284145

>  <intra_energy>  (5) 
31.94514988246686

>  <rmsd>  (5) 
1.18001

>  <sdf_rank>  (5) 
0

$$$$

     RDKit          3D

 36 37  0  0  0  0  0  0  0  0999 V2000
   28.1572    7.4449   12.8655 O   0  0  0  0  0  0  0  0  0  0  0  0
   28.4131    7.3310   11.4137 S   0  0  2  0  0  0  0  0  0  0  0  0
   29.7200    6.8047   11.0110 O   0  0  0  0  0  0  0  0  0  0  0  0
   28.2666    8.9508   10.8508 C   0  0  0  0  0  0  0  0  0  0  0  0
   28.3668   10.0877   11.6497 C   0  0  0  0  0  0  0  0  0  0  0  0
   28.1798   11.4041   11.1472 C   0  0  0  0  0  0  0  0  0  0  0  0
   27.8899   11.5121    9.7941 C   0  0  0  0  0  0  0  0  0  0  0  0
   27.8548   10.3931    9.0130 C   0  0  0  0  0  0  0  0  0  0  0  0
   27.9689    9.0702    9.5191 C   0  0  0  0  0  0  0  0  0  0  0  0
   27.1635    6.1998   10.8083 C   0  0  0  0  0  0  0  0  0  0  0  0
   27.4428    5.6159    9.5806 C   0  0  0  0  0  0  0  0  0  0  0  0
   26.0131    5.9382   11.5748 C   0  0  0  0  0  0  0  0  0  0  0  0
   25.4924    6.6306   12.7982 C   0  0  0  0  0  0  0  0  0  0  0  0
   25.0788    7.8729   12.4781 O   0  0  0  0  0  0  0  0  0  0  0  0
   24.7677    8.8483   13.4024 C   0  0  0  0  0  0  0  0  0  0  0  0
   25.2256    6.2118   13.8455 O   0  0  0  0  0  0  0  0  0  0  0  0
   25.2309    4.8586   11.1184 C   0  0  0  0  0  0  0  0  0  0  0  0
   25.3580    4.2297    9.8477 C   0  0  0  0  0  0  0  0  0  0  0  0
   26.5108    4.6369    9.1456 C   0  0  0  0  0  0  0  0  0  0  0  0
   26.9016    3.9570    7.5968 Cl  0  0  0  0  0  0  0  0  0  0  0  0
   24.4841    2.7670    9.4724 S   0  0  2  0  0  0  0  0  0  0  0  0
   25.3620    1.5067    9.5416 O   0  0  0  0  0  0  0  0  0  0  0  0
   23.9632    2.7310    8.0260 O   0  0  0  0  0  0  0  0  0  0  0  0
   23.0769    2.3939   10.4711 N   0  0  0  0  0  0  0  0  0  0  0  0
   28.6012    9.9610   12.7169 H   0  0  0  0  0  0  0  0  0  0  0  0
   28.2603   12.2892   11.7954 H   0  0  0  0  0  0  0  0  0  0  0  0
   27.6886   12.4988    9.3515 H   0  0  0  0  0  0  0  0  0  0  0  0
   27.7310   10.5231    7.9278 H   0  0  0  0  0  0  0  0  0  0  0  0
   27.8258    8.1894    8.8760 H   0  0  0  0  0  0  0  0  0  0  0  0
   28.3254    5.8926    8.9853 H   0  0  0  0  0  0  0  0  0  0  0  0
   24.8962    8.4456   14.4179 H   0  0  0  0  0  0  0  0  0  0  0  0
   25.4351    9.7116   13.2632 H   0  0  0  0  0  0  0  0  0  0  0  0
   23.7237    9.1658   13.2632 H   0  0  0  0  0  0  0  0  0  0  0  0
   24.4593    4.4702   11.7994 H   0  0  0  0  0  0  0  0  0  0  0  0
   23.3342    2.4621   11.4661 H   0  0  0  0  0  0  0  0  0  0  0  0
   22.3222    3.0638   10.2649 H   0  0  0  0  0  0  0  0  0  0  0  0
  1  2  2  0
  2  3  2  0
  2  4  1  6
  2 10  1  0
  4  5  2  0
  4  9  1  0
  5  6  1  0
  6  7  2  0
  7  8  1  0
  8  9  2  0
 10 11  2  0
 10 12  1  0
 11 19  1  0
 12 13  1  0
 12 17  2  0
 13 14  1  0
 13 16  2  0
 14 15  1  0
 17 18  1  0
 18 19  2  0
 18 21  1  0
 19 20  1  0
 21 22  2  0
 21 23  2  0
 21 24  1  1
  5 25  1  0
  6 26  1  0
  7 27  1  0
  8 28  1  0
  9 29  1  0
 11 30  1  0
 15 31  1  0
 15 32  1  0
 15 33  1  0
 17 34  1  0
 24 35  1  0
 24 36  1  0
M  END
>  <filename_input>  (6) 
7PUV_84Z_docked.sdf

>  <pdb_id>  (6) 
7PUV_84Z

>  <pose_rank>  (6) 
5

>  <num_atoms_heavy>  (6) 
24

>  <num_torsions>  (6) 
5

>  <pose>  (6) 
[27.163478459273115, 6.19982611073761, 10.808327211237554, -6.095148577013244, 1.0035845877254737, -0.3159719911953811, -6.0237400688433045, -0.14602993256573074, 0.45636623482541533, 0.33676580098812514, 0.2824214911840679]

>  <energy>  (6) 
-860.2674328439747

>  <inter_energy>  (6) 
-891.7065983724458

>  <intra_energy>  (6) 
28.155329467737722

>  <rmsd>  (6) 
0.870603

>  <sdf_rank>  (6) 
0

$$$$

     RDKit          3D

 36 37  0  0  0  0  0  0  0  0999 V2000
   26.3885    8.8475   12.4137 O   0  0  0  0  0  0  0  0  0  0  0  0
   27.1010    7.5578   12.5361 S   0  0  2  0  0  0  0  0  0  0  0  0
   27.2204    6.9924   13.8827 O   0  0  0  0  0  0  0  0  0  0  0  0
   28.6756    7.9094   11.9370 C   0  0  0  0  0  0  0  0  0  0  0  0
   28.9789    8.2078   10.6105 C   0  0  0  0  0  0  0  0  0  0  0  0
   30.3056    8.4339   10.1531 C   0  0  0  0  0  0  0  0  0  0  0  0
   31.3098    8.3465   11.1072 C   0  0  0  0  0  0  0  0  0  0  0  0
   30.9905    8.1131   12.4138 C   0  0  0  0  0  0  0  0  0  0  0  0
   29.6771    7.8150   12.8668 C   0  0  0  0  0  0  0  0  0  0  0  0
   26.1510    6.4057   11.5471 C   0  0  0  0  0  0  0  0  0  0  0  0
   26.6574    6.1620   10.2781 C   0  0  0  0  0  0  0  0  0  0  0  0
   24.9970    5.8002   12.0773 C   0  0  0  0  0  0  0  0  0  0  0  0
   24.2350    6.1109   13.3303 C   0  0  0  0  0  0  0  0  0  0  0  0
   24.2841    7.4349   13.5777 O   0  0  0  0  0  0  0  0  0  0  0  0
   24.1418    7.9951   14.8302 C   0  0  0  0  0  0  0  0  0  0  0  0
   23.5002    5.4601   13.9466 O   0  0  0  0  0  0  0  0  0  0  0  0
   24.4792    4.7390   11.3082 C   0  0  0  0  0  0  0  0  0  0  0  0
   24.8496    4.4375    9.9673 C   0  0  0  0  0  0  0  0  0  0  0  0
   25.9724    5.1689    9.5292 C   0  0  0  0  0  0  0  0  0  0  0  0
   26.6383    4.9222    7.9451 Cl  0  0  0  0  0  0  0  0  0  0  0  0
   24.3049    2.9751    9.1869 S   0  0  2  0  0  0  0  0  0  0  0  0
   25.1189    1.7361    9.5944 O   0  0  0  0  0  0  0  0  0  0  0  0
   24.4847    3.0044    7.6600 O   0  0  0  0  0  0  0  0  0  0  0  0
   22.6197    2.5117    9.4367 N   0  0  0  0  0  0  0  0  0  0  0  0
   28.1549    8.2713    9.8845 H   0  0  0  0  0  0  0  0  0  0  0  0
   30.5245    8.6654    9.1003 H   0  0  0  0  0  0  0  0  0  0  0  0
   32.3624    8.4654   10.8107 H   0  0  0  0  0  0  0  0  0  0  0  0
   31.7975    8.1584   13.1599 H   0  0  0  0  0  0  0  0  0  0  0  0
   29.4754    7.5240   13.9083 H   0  0  0  0  0  0  0  0  0  0  0  0
   27.5295    6.7012    9.8797 H   0  0  0  0  0  0  0  0  0  0  0  0
   24.3358    7.2313   15.5976 H   0  0  0  0  0  0  0  0  0  0  0  0
   24.8585    8.8215   14.9458 H   0  0  0  0  0  0  0  0  0  0  0  0
   23.1175    8.3792   14.9458 H   0  0  0  0  0  0  0  0  0  0  0  0
   23.7276    4.0910   11.7828 H   0  0  0  0  0  0  0  0  0  0  0  0
   22.4244    2.4580   10.4466 H   0  0  0  0  0  0  0  0  0  0  0  0
   22.0027    3.2143    9.0046 H   0  0  0  0  0  0  0  0  0  0  0  0
  1  2  2  0
  2  3  2  0
  2  4  1  6
  2 10  1  0
  4  5  2  0
  4  9  1  0
  5  6  1  0
  6  7  2  0
  7  8  1  0
  8  9  2  0
 10 11  2  0
 10 12  1  0
 11 19  1  0
 12 13  1  0
 12 17  2  0
 13 14  1  0
 13 16  2  0
 14 15  1  0
 17 18  1  0
 18 19  2  0
 18 21  1  0
 19 20  1  0
 21 22  2  0
 21 23  2  0
 21 24  1  6
  5 25  1  0
  6 26  1  0
  7 27  1  0
  8 28  1  0
  9 29  1  0
 11 30  1  0
 15 31  1  0
 15 32  1  0
 15 33  1  0
 17 34  1  0
 24 35  1  0
 24 36  1  0
M  END
>  <filename_input>  (7) 
7PUV_84Z_docked.sdf

>  <pdb_id>  (7) 
7PUV_84Z

>  <pose_rank>  (7) 
6

>  <num_atoms_heavy>  (7) 
24

>  <num_torsions>  (7) 
5

>  <pose>  (7) 
[26.15104219462824, 6.405721449539706, 11.547136778747658, 0.31263535900722783, -0.13054745327480838, 0.18432572342357922, -5.621977941009572, 4.394901878344021, -1.0838741893466042, -0.2689328414923589, 0.5112956830729138]

>  <energy>  (7) 
-841.9390993689008

>  <inter_energy>  (7) 
-907.5491603000962

>  <intra_energy>  (7) 
64.81910054151498

>  <rmsd>  (7) 
2.37789

>  <sdf_rank>  (7) 
0

$$$$

     RDKit          3D

 36 37  0  0  0  0  0  0  0  0999 V2000
   28.9954    6.3731   11.3756 O   0  0  0  0  0  0  0  0  0  0  0  0
   27.7799    7.2032   11.2350 S   0  0  2  0  0  0  0  0  0  0  0  0
   27.8432    8.3140   10.2815 O   0  0  0  0  0  0  0  0  0  0  0  0
   27.5411    7.8385   12.8166 C   0  0  0  0  0  0  0  0  0  0  0  0
   27.2573    7.0792   13.9495 C   0  0  0  0  0  0  0  0  0  0  0  0
   27.0101    7.6566   15.2247 C   0  0  0  0  0  0  0  0  0  0  0  0
   27.0687    9.0414   15.2962 C   0  0  0  0  0  0  0  0  0  0  0  0
   27.4074    9.7675   14.1908 C   0  0  0  0  0  0  0  0  0  0  0  0
   27.5850    9.2053   12.8980 C   0  0  0  0  0  0  0  0  0  0  0  0
   26.5090    6.0751   10.6691 C   0  0  0  0  0  0  0  0  0  0  0  0
   26.8779    5.2549    9.6120 C   0  0  0  0  0  0  0  0  0  0  0  0
   25.2536    6.0459   11.3033 C   0  0  0  0  0  0  0  0  0  0  0  0
   24.6574    6.9896   12.3040 C   0  0  0  0  0  0  0  0  0  0  0  0
   24.3902    6.3310   13.4492 O   0  0  0  0  0  0  0  0  0  0  0  0
   23.5843    6.8217   14.4555 C   0  0  0  0  0  0  0  0  0  0  0  0
   24.5933    8.1469   12.3038 O   0  0  0  0  0  0  0  0  0  0  0  0
   24.4313    4.9614   10.9382 C   0  0  0  0  0  0  0  0  0  0  0  0
   24.6507    4.1004    9.8260 C   0  0  0  0  0  0  0  0  0  0  0  0
   25.9149    4.2839    9.2296 C   0  0  0  0  0  0  0  0  0  0  0  0
   26.4238    3.3020    7.8915 Cl  0  0  0  0  0  0  0  0  0  0  0  0
   23.6905    2.6623    9.5939 S   0  0  2  0  0  0  0  0  0  0  0  0
   24.5289    1.3735    9.5853 O   0  0  0  0  0  0  0  0  0  0  0  0
   22.9957    2.6168    8.2228 O   0  0  0  0  0  0  0  0  0  0  0  0
   22.4045    2.3579   10.7647 N   0  0  0  0  0  0  0  0  0  0  0  0
   27.2228    5.9840   13.8530 H   0  0  0  0  0  0  0  0  0  0  0  0
   26.7847    7.0394   16.1069 H   0  0  0  0  0  0  0  0  0  0  0  0
   26.8424    9.5537   16.2430 H   0  0  0  0  0  0  0  0  0  0  0  0
   27.5514   10.8517   14.3079 H   0  0  0  0  0  0  0  0  0  0  0  0
   27.7488    9.8338   12.0102 H   0  0  0  0  0  0  0  0  0  0  0  0
   27.8495    5.3503    9.1052 H   0  0  0  0  0  0  0  0  0  0  0  0
   24.0162    6.5587   15.4323 H   0  0  0  0  0  0  0  0  0  0  0  0
   23.5141    7.9160   14.3682 H   0  0  0  0  0  0  0  0  0  0  0  0
   22.5799    6.3818   14.3682 H   0  0  0  0  0  0  0  0  0  0  0  0
   23.5480    4.7641   11.5633 H   0  0  0  0  0  0  0  0  0  0  0  0
   22.7811    2.4470   11.7192 H   0  0  0  0  0  0  0  0  0  0  0  0
   21.6474    3.0429   10.6290 H   0  0  0  0  0  0  0  0  0  0  0  0
  1  2  2  0
  2  3  2  0
  2  4  1  1
  2 10  1  0
  4  5  2  0
  4  9  1  0
  5  6  1  0
  6  7  2  0
  7  8  1  0
  8  9  2  0
 10 11  2  0
 10 12  1  0
 11 19  1  0
 12 13  1  0
 12 17  2  0
 13 14  1  0
 13 16  2  0
 14 15  1  0
 17 18  1  0
 18 19  2  0
 18 21  1  0
 19 20  1  0
 21 22  2  0
 21 23  2  0
 21 24  1  1
  5 25  1  0
  6 26  1  0
  7 27  1  0
  8 28  1  0
  9 29  1  0
 11 30  1  0
 15 31  1  0
 15 32  1  0
 15 33  1  0
 17 34  1  0
 24 35  1  0
 24 36  1  0
M  END
>  <filename_input>  (8) 
7PUV_84Z_docked.sdf

>  <pdb_id>  (8) 
7PUV_84Z

>  <pose_rank>  (8) 
7

>  <num_atoms_heavy>  (8) 
24

>  <num_torsions>  (8) 
5

>  <pose>  (8) 
[26.509049262569576, 6.0751325872543545, 10.669076871246807, 2.782604296029161, 4.8687542491875, 2.387042040169749, -0.04488976029545971, 1.8265529163147352, -7.291401628008821, -2.9358664538438806, 0.3306830250644865]

>  <energy>  (8) 
-1087.7313187411837

>  <inter_energy>  (8) 
-1145.8289980418392

>  <intra_energy>  (8) 
70.1199435286656

>  <rmsd>  (8) 
2.528

>  <sdf_rank>  (8) 
0

$$$$

     RDKit          3D

 36 37  0  0  0  0  0  0  0  0999 V2000
   28.0854    7.7216   12.3655 O   0  0  0  0  0  0  0  0  0  0  0  0
   28.2937    7.5666   10.9099 S   0  0  2  0  0  0  0  0  0  0  0  0
   29.5613    6.9686   10.4823 O   0  0  0  0  0  0  0  0  0  0  0  0
   28.2101    9.1802   10.3172 C   0  0  0  0  0  0  0  0  0  0  0  0
   27.2666    9.6502    9.4064 C   0  0  0  0  0  0  0  0  0  0  0  0
   27.2749   10.9790    8.9017 C   0  0  0  0  0  0  0  0  0  0  0  0
   28.2842   11.8095    9.3685 C   0  0  0  0  0  0  0  0  0  0  0  0
   29.1644   11.3519   10.3063 C   0  0  0  0  0  0  0  0  0  0  0  0
   29.2080   10.0067   10.7618 C   0  0  0  0  0  0  0  0  0  0  0  0
   26.9736    6.4866   10.3634 C   0  0  0  0  0  0  0  0  0  0  0  0
   27.1818    5.8777    9.1337 C   0  0  0  0  0  0  0  0  0  0  0  0
   25.8412    6.2853   11.1736 C   0  0  0  0  0  0  0  0  0  0  0  0
   25.3967    7.0135   12.4063 C   0  0  0  0  0  0  0  0  0  0  0  0
   25.5303    6.2127   13.4823 O   0  0  0  0  0  0  0  0  0  0  0  0
   24.6118    6.1338   14.5084 C   0  0  0  0  0  0  0  0  0  0  0  0
   25.1717    8.1374   12.5781 O   0  0  0  0  0  0  0  0  0  0  0  0
   24.9955    5.2373   10.7587 C   0  0  0  0  0  0  0  0  0  0  0  0
   25.0482    4.5899    9.4920 C   0  0  0  0  0  0  0  0  0  0  0  0
   26.1918    4.9372    8.7443 C   0  0  0  0  0  0  0  0  0  0  0  0
   26.4955    4.2240    7.1909 Cl  0  0  0  0  0  0  0  0  0  0  0  0
   24.0968    3.1643    9.1660 S   0  0  2  0  0  0  0  0  0  0  0  0
   23.6648    3.0522    7.6947 O   0  0  0  0  0  0  0  0  0  0  0  0
   22.7509    3.1553    9.9098 O   0  0  0  0  0  0  0  0  0  0  0  0
   24.8334    1.6043    9.5415 N   0  0  0  0  0  0  0  0  0  0  0  0
   26.4801    8.9624    9.0624 H   0  0  0  0  0  0  0  0  0  0  0  0
   26.5223   11.3300    8.1803 H   0  0  0  0  0  0  0  0  0  0  0  0
   28.3747   12.8358    8.9831 H   0  0  0  0  0  0  0  0  0  0  0  0
   29.8823   12.0668   10.7347 H   0  0  0  0  0  0  0  0  0  0  0  0
   30.0005    9.6482   11.4351 H   0  0  0  0  0  0  0  0  0  0  0  0
   28.0539    6.1079    8.5039 H   0  0  0  0  0  0  0  0  0  0  0  0
   25.1364    6.1789   15.4742 H   0  0  0  0  0  0  0  0  0  0  0  0
   23.9065    6.9746   14.4346 H   0  0  0  0  0  0  0  0  0  0  0  0
   24.0603    5.1849   14.4346 H   0  0  0  0  0  0  0  0  0  0  0  0
   24.2325    4.8914   11.4715 H   0  0  0  0  0  0  0  0  0  0  0  0
   24.8884    1.4877   10.5634 H   0  0  0  0  0  0  0  0  0  0  0  0
   24.2602    0.8485    9.1401 H   0  0  0  0  0  0  0  0  0  0  0  0
  1  2  2  0
  2  3  2  0
  2  4  1  6
  2 10  1  0
  4  5  2  0
  4  9  1  0
  5  6  1  0
  6  7  2  0
  7  8  1  0
  8  9  2  0
 10 11  2  0
 10 12  1  0
 11 19  1  0
 12 13  1  0
 12 17  2  0
 13 14  1  0
 13 16  2  0
 14 15  1  0
 17 18  1  0
 18 19  2  0
 18 21  1  0
 19 20  1  0
 21 22  2  0
 21 23  2  0
 21 24  1  1
  5 25  1  0
  6 26  1  0
  7 27  1  0
  8 28  1  0
  9 29  1  0
 11 30  1  0
 15 31  1  0
 15 32  1  0
 15 33  1  0
 17 34  1  0
 24 35  1  0
 24 36  1  0
M  END
>  <filename_input>  (9) 
7PUV_84Z_docked.sdf

>  <pdb_id>  (9) 
7PUV_84Z

>  <pose_rank>  (9) 
8

>  <num_atoms_heavy>  (9) 
24

>  <num_torsions>  (9) 
5

>  <pose>  (9) 
[26.973609191314004, 6.486602811754068, 10.363402938825207, -5.4573736961202535, -1.155709982211323, 2.6761088703640663, 4.640756036592103, -6.441795249160669, 4.323701811419977, 3.5081000583818613, 0.7830040191875978]

>  <energy>  (9) 
-851.9913953240945

>  <inter_energy>  (9) 
-898.5567510509724

>  <intra_energy>  (9) 
32.85508822044391

>  <rmsd>  (9) 
1.5885

>  <sdf_rank>  (9) 
0

$$$$

     RDKit          3D

 36 37  0  0  0  0  0  0  0  0999 V2000
   27.8447    7.2719   12.7000 O   0  0  0  0  0  0  0  0  0  0  0  0
   27.8740    7.2539   11.2218 S   0  0  2  0  0  0  0  0  0  0  0  0
   29.1211    6.8158   10.5894 O   0  0  0  0  0  0  0  0  0  0  0  0
   27.5774    8.8941   10.7933 C   0  0  0  0  0  0  0  0  0  0  0  0
   27.2217    9.9027   11.6861 C   0  0  0  0  0  0  0  0  0  0  0  0
   26.9297   11.2315   11.2744 C   0  0  0  0  0  0  0  0  0  0  0  0
   27.0197   11.4891    9.9136 C   0  0  0  0  0  0  0  0  0  0  0  0
   27.4280   10.5058    9.0591 C   0  0  0  0  0  0  0  0  0  0  0  0
   27.6517    9.1585    9.4512 C   0  0  0  0  0  0  0  0  0  0  0  0
   26.5903    6.0996   10.7450 C   0  0  0  0  0  0  0  0  0  0  0  0
   26.7772    5.4864    9.5140 C   0  0  0  0  0  0  0  0  0  0  0  0
   25.5059    5.8501   11.6060 C   0  0  0  0  0  0  0  0  0  0  0  0
   25.0771    6.5701   12.8490 C   0  0  0  0  0  0  0  0  0  0  0  0
   24.6333    7.8027   12.5321 O   0  0  0  0  0  0  0  0  0  0  0  0
   24.0176    8.6574   13.4226 C   0  0  0  0  0  0  0  0  0  0  0  0
   24.8939    6.1758   13.9234 O   0  0  0  0  0  0  0  0  0  0  0  0
   24.6994    4.7542   11.2396 C   0  0  0  0  0  0  0  0  0  0  0  0
   24.7317    4.0940    9.9789 C   0  0  0  0  0  0  0  0  0  0  0  0
   25.8222    4.4905    9.1783 C   0  0  0  0  0  0  0  0  0  0  0  0
   26.0959    3.7740    7.6209 Cl  0  0  0  0  0  0  0  0  0  0  0  0
   23.8434    2.6165    9.7101 S   0  0  2  0  0  0  0  0  0  0  0  0
   23.0134    2.6401    8.4160 O   0  0  0  0  0  0  0  0  0  0  0  0
   22.7765    2.3510   10.7852 O   0  0  0  0  0  0  0  0  0  0  0  0
   24.7792    1.1221    9.6204 N   0  0  0  0  0  0  0  0  0  0  0  0
   27.1644    9.6599   12.7574 H   0  0  0  0  0  0  0  0  0  0  0  0
   26.6477   12.0131   11.9952 H   0  0  0  0  0  0  0  0  0  0  0  0
   26.7621   12.4850    9.5238 H   0  0  0  0  0  0  0  0  0  0  0  0
   27.5935   10.7722    8.0047 H   0  0  0  0  0  0  0  0  0  0  0  0
   27.8728    8.3702    8.7166 H   0  0  0  0  0  0  0  0  0  0  0  0
   27.6080    5.7535    8.8444 H   0  0  0  0  0  0  0  0  0  0  0  0
   24.2453    8.3414   14.4513 H   0  0  0  0  0  0  0  0  0  0  0  0
   24.3870    9.6813   13.2633 H   0  0  0  0  0  0  0  0  0  0  0  0
   22.9295    8.6313   13.2633 H   0  0  0  0  0  0  0  0  0  0  0  0
   23.9870    4.3783   11.9887 H   0  0  0  0  0  0  0  0  0  0  0  0
   24.9874    0.7897   10.5728 H   0  0  0  0  0  0  0  0  0  0  0  0
   24.2354    0.4061    9.1181 H   0  0  0  0  0  0  0  0  0  0  0  0
  1  2  2  0
  2  3  2  0
  2  4  1  6
  2 10  1  0
  4  5  2  0
  4  9  1  0
  5  6  1  0
  6  7  2  0
  7  8  1  0
  8  9  2  0
 10 11  2  0
 10 12  1  0
 11 19  1  0
 12 13  1  0
 12 17  2  0
 13 14  1  0
 13 16  2  0
 14 15  1  0
 17 18  1  0
 18 19  2  0
 18 21  1  0
 19 20  1  0
 21 22  2  0
 21 23  2  0
 21 24  1  6
  5 25  1  0
  6 26  1  0
  7 27  1  0
  8 28  1  0
  9 29  1  0
 11 30  1  0
 15 31  1  0
 15 32  1  0
 15 33  1  0
 17 34  1  0
 24 35  1  0
 24 36  1  0
M  END
>  <filename_input>  (10) 
7PUV_84Z_docked.sdf

>  <pdb_id>  (10) 
7PUV_84Z

>  <pose_rank>  (10) 
9

>  <num_atoms_heavy>  (10) 
24

>  <num_torsions>  (10) 
5

>  <pose>  (10) 
[26.590266783762008, 6.0995623345718055, 10.745024767932097, -4.614257044654814, -4.082217477188068, -0.5726002098129728, -1.9369642769671185, -0.024391871654302778, -0.025281293975328835, 0.3331832089644881, -0.06876679899195731]

>  <energy>  (10) 
-1092.5306015798747

>  <inter_energy>  (10) 
-1093.682174808648

>  <intra_energy>  (10) 
19.122099417746007

>  <rmsd>  (10) 
0.807129

>  <sdf_rank>  (10) 
0

$$$$

     RDKit          3D

 36 37  0  0  0  0  0  0  0  0999 V2000
   26.3046    8.7208   11.9209 O   0  0  0  0  0  0  0  0  0  0  0  0
   27.1961    7.5554   11.7388 S   0  0  2  0  0  0  0  0  0  0  0  0
   27.8375    7.0179   12.9417 O   0  0  0  0  0  0  0  0  0  0  0  0
   28.4130    8.1422   10.6726 C   0  0  0  0  0  0  0  0  0  0  0  0
   28.7145    9.4864   10.4649 C   0  0  0  0  0  0  0  0  0  0  0  0
   29.6904    9.9236    9.5284 C   0  0  0  0  0  0  0  0  0  0  0  0
   30.3487    8.9314    8.8154 C   0  0  0  0  0  0  0  0  0  0  0  0
   30.0848    7.6171    9.0737 C   0  0  0  0  0  0  0  0  0  0  0  0
   29.0619    7.1730    9.9543 C   0  0  0  0  0  0  0  0  0  0  0  0
   26.1488    6.2694   11.0628 C   0  0  0  0  0  0  0  0  0  0  0  0
   26.5093    5.8192    9.8004 C   0  0  0  0  0  0  0  0  0  0  0  0
   25.0673    5.7696   11.8111 C   0  0  0  0  0  0  0  0  0  0  0  0
   24.4504    6.2861   13.0760 C   0  0  0  0  0  0  0  0  0  0  0  0
   24.3657    5.2912   13.9814 O   0  0  0  0  0  0  0  0  0  0  0  0
   25.3277    5.0260   14.9337 C   0  0  0  0  0  0  0  0  0  0  0  0
   24.2467    7.3718   13.4268 O   0  0  0  0  0  0  0  0  0  0  0  0
   24.4736    4.6041   11.2870 C   0  0  0  0  0  0  0  0  0  0  0  0
   24.6913    4.0866    9.9789 C   0  0  0  0  0  0  0  0  0  0  0  0
   25.7512    4.7259    9.3040 C   0  0  0  0  0  0  0  0  0  0  0  0
   26.2345    4.2203    7.7152 Cl  0  0  0  0  0  0  0  0  0  0  0  0
   24.0727    2.5237    9.5113 S   0  0  2  0  0  0  0  0  0  0  0  0
   25.1521    1.4289    9.4961 O   0  0  0  0  0  0  0  0  0  0  0  0
   23.5458    2.4920    8.0670 O   0  0  0  0  0  0  0  0  0  0  0  0
   22.7626    1.8540   10.4872 N   0  0  0  0  0  0  0  0  0  0  0  0
   28.1733   10.2431   11.0518 H   0  0  0  0  0  0  0  0  0  0  0  0
   29.9118   10.9904    9.3771 H   0  0  0  0  0  0  0  0  0  0  0  0
   31.0825    9.2038    8.0425 H   0  0  0  0  0  0  0  0  0  0  0  0
   30.7005    6.8570    8.5705 H   0  0  0  0  0  0  0  0  0  0  0  0
   28.8050    6.1081   10.0539 H   0  0  0  0  0  0  0  0  0  0  0  0
   27.3263    6.2778    9.2239 H   0  0  0  0  0  0  0  0  0  0  0  0
   24.8932    5.1458   15.9372 H   0  0  0  0  0  0  0  0  0  0  0  0
   25.6898    3.9945   14.8117 H   0  0  0  0  0  0  0  0  0  0  0  0
   26.1672    5.7262   14.8117 H   0  0  0  0  0  0  0  0  0  0  0  0
   23.7859    4.0490   11.9419 H   0  0  0  0  0  0  0  0  0  0  0  0
   22.9858    1.9681   11.4862 H   0  0  0  0  0  0  0  0  0  0  0  0
   21.8861    2.3505   10.2723 H   0  0  0  0  0  0  0  0  0  0  0  0
  1  2  2  0
  2  3  2  0
  2  4  1  6
  2 10  1  0
  4  5  2  0
  4  9  1  0
  5  6  1  0
  6  7  2  0
  7  8  1  0
  8  9  2  0
 10 11  2  0
 10 12  1  0
 11 19  1  0
 12 13  1  0
 12 17  2  0
 13 14  1  0
 13 16  2  0
 14 15  1  0
 17 18  1  0
 18 19  2  0
 18 21  1  0
 19 20  1  0
 21 22  2  0
 21 23  2  0
 21 24  1  1
  5 25  1  0
  6 26  1  0
  7 27  1  0
  8 28  1  0
  9 29  1  0
 11 30  1  0
 15 31  1  0
 15 32  1  0
 15 33  1  0
 17 34  1  0
 24 35  1  0
 24 36  1  0
M  END
>  <filename_input>  (11) 
7PUV_84Z_docked.sdf

>  <pdb_id>  (11) 
7PUV_84Z

>  <pose_rank>  (11) 
10

>  <num_atoms_heavy>  (11) 
24

>  <num_torsions>  (11) 
5

>  <pose>  (11) 
[26.148770540796125, 6.269429855311288, 11.062753462568065, 0.16105927091640163, -0.0024083009508514795, 0.17397058536903964, 0.25636815076858566, -1.5592607165697454, 0.4631017174145719, 3.183642961885269, -1.4457611490041615]

>  <energy>  (11) 
-987.3759017143278

>  <inter_energy>  (11) 
-1011.9452294812985

>  <intra_energy>  (11) 
41.48978589058822

>  <rmsd>  (11) 
2.09246

>  <sdf_rank>  (11) 
0

$$$$

     RDKit          3D

 36 37  0  0  0  0  0  0  0  0999 V2000
   27.4415    7.3114   12.6784 O   0  0  0  0  0  0  0  0  0  0  0  0
   27.6820    7.0583   11.2416 S   0  0  2  0  0  0  0  0  0  0  0  0
   28.9830    6.4906   10.8779 O   0  0  0  0  0  0  0  0  0  0  0  0
   27.5347    8.6175   10.5281 C   0  0  0  0  0  0  0  0  0  0  0  0
   26.3321    9.2252   10.1742 C   0  0  0  0  0  0  0  0  0  0  0  0
   26.2658   10.4919    9.5327 C   0  0  0  0  0  0  0  0  0  0  0  0
   27.4782   11.1146    9.2710 C   0  0  0  0  0  0  0  0  0  0  0  0
   28.6448   10.5340    9.6782 C   0  0  0  0  0  0  0  0  0  0  0  0
   28.7251    9.2375   10.2541 C   0  0  0  0  0  0  0  0  0  0  0  0
   26.4226    5.8796   10.7597 C   0  0  0  0  0  0  0  0  0  0  0  0
   26.6903    5.1754    9.5940 C   0  0  0  0  0  0  0  0  0  0  0  0
   25.2765    5.7015   11.5560 C   0  0  0  0  0  0  0  0  0  0  0  0
   24.7680    6.5146   12.7082 C   0  0  0  0  0  0  0  0  0  0  0  0
   24.2951    7.6946   12.2603 O   0  0  0  0  0  0  0  0  0  0  0  0
   24.0198    8.7768   13.0701 C   0  0  0  0  0  0  0  0  0  0  0  0
   24.5517    6.2132   13.8063 O   0  0  0  0  0  0  0  0  0  0  0  0
   24.4859    4.5863   11.2140 C   0  0  0  0  0  0  0  0  0  0  0  0
   24.6009    3.8340   10.0111 C   0  0  0  0  0  0  0  0  0  0  0  0
   25.7505    4.1633    9.2644 C   0  0  0  0  0  0  0  0  0  0  0  0
   26.1270    3.3312    7.7880 Cl  0  0  0  0  0  0  0  0  0  0  0  0
   23.7173    2.3461    9.7883 S   0  0  2  0  0  0  0  0  0  0  0  0
   22.8167    1.9959   10.9842 O   0  0  0  0  0  0  0  0  0  0  0  0
   24.6303    1.1129    9.6865 O   0  0  0  0  0  0  0  0  0  0  0  0
   22.6584    2.2445    8.3792 N   0  0  0  0  0  0  0  0  0  0  0  0
   25.3918    8.7014   10.4013 H   0  0  0  0  0  0  0  0  0  0  0  0
   25.3057   10.9536    9.2586 H   0  0  0  0  0  0  0  0  0  0  0  0
   27.4992   12.0754    8.7358 H   0  0  0  0  0  0  0  0  0  0  0  0
   29.5775   11.1034    9.5532 H   0  0  0  0  0  0  0  0  0  0  0  0
   29.6913    8.7574   10.4684 H   0  0  0  0  0  0  0  0  0  0  0  0
   27.5700    5.3869    8.9684 H   0  0  0  0  0  0  0  0  0  0  0  0
   24.0967    8.4744   14.1249 H   0  0  0  0  0  0  0  0  0  0  0  0
   24.7419    9.5810   12.8656 H   0  0  0  0  0  0  0  0  0  0  0  0
   23.0011    9.1380   12.8656 H   0  0  0  0  0  0  0  0  0  0  0  0
   23.7174    4.2716   11.9353 H   0  0  0  0  0  0  0  0  0  0  0  0
   21.6810    2.1507    8.6903 H   0  0  0  0  0  0  0  0  0  0  0  0
   22.7579    3.0989    7.8127 H   0  0  0  0  0  0  0  0  0  0  0  0
  1  2  2  0
  2  3  2  0
  2  4  1  6
  2 10  1  0
  4  5  2  0
  4  9  1  0
  5  6  1  0
  6  7  2  0
  7  8  1  0
  8  9  2  0
 10 11  2  0
 10 12  1  0
 11 19  1  0
 12 13  1  0
 12 17  2  0
 13 14  1  0
 13 16  2  0
 14 15  1  0
 17 18  1  0
 18 19  2  0
 18 21  1  0
 19 20  1  0
 21 22  2  0
 21 23  2  0
 21 24  1  6
  5 25  1  0
  6 26  1  0
  7 27  1  0
  8 28  1  0
  9 29  1  0
 11 30  1  0
 15 31  1  0
 15 32  1  0
 15 33  1  0
 17 34  1  0
 24 35  1  0
 24 36  1  0
M  END
>  <filename_input>  (12) 
7PUV_84Z_docked.sdf

>  <pdb_id>  (12) 
7PUV_84Z

>  <pose_rank>  (12) 
11

>  <num_atoms_heavy>  (12) 
24

>  <num_torsions>  (12) 
5

>  <pose>  (12) 
[26.422639279185454, 5.879622495858354, 10.759658932755645, -1.875026928464452, -6.003328048500706, 0.20114142472362664, -4.20827920534658, -6.424131826971026, -1.334545576101348, -5.892040659374033, 0.3243274166197662]

>  <energy>  (12) 
-1060.749465888755

>  <inter_energy>  (12) 
-1068.1068017676914

>  <intra_energy>  (12) 
26.02049510491369

>  <rmsd>  (12) 
1.05589

>  <sdf_rank>  (12) 
0

$$$$

     RDKit          3D

 36 37  0  0  0  0  0  0  0  0999 V2000
   27.3234    7.5634   13.0144 O   0  0  0  0  0  0  0  0  0  0  0  0
   27.6415    7.3947   11.5803 S   0  0  2  0  0  0  0  0  0  0  0  0
   28.9772    6.8887   11.2533 O   0  0  0  0  0  0  0  0  0  0  0  0
   27.4752    8.9840   10.9414 C   0  0  0  0  0  0  0  0  0  0  0  0
   27.1526    9.2856    9.6201 C   0  0  0  0  0  0  0  0  0  0  0  0
   27.0843   10.6166    9.1259 C   0  0  0  0  0  0  0  0  0  0  0  0
   27.3552   11.6274   10.0376 C   0  0  0  0  0  0  0  0  0  0  0  0
   27.6103   11.3181   11.3426 C   0  0  0  0  0  0  0  0  0  0  0  0
   27.7514    9.9905   11.8287 C   0  0  0  0  0  0  0  0  0  0  0  0
   26.4481    6.2037   10.9761 C   0  0  0  0  0  0  0  0  0  0  0  0
   26.7699    5.6110    9.7630 C   0  0  0  0  0  0  0  0  0  0  0  0
   25.2973    5.9085   11.7297 C   0  0  0  0  0  0  0  0  0  0  0  0
   24.7300    6.5997   12.9329 C   0  0  0  0  0  0  0  0  0  0  0  0
   24.7139    7.9319   12.7284 O   0  0  0  0  0  0  0  0  0  0  0  0
   24.1222    8.8398   13.5817 C   0  0  0  0  0  0  0  0  0  0  0  0
   24.1608    6.1740   13.8484 O   0  0  0  0  0  0  0  0  0  0  0  0
   24.5665    4.7905   11.2805 C   0  0  0  0  0  0  0  0  0  0  0  0
   24.7388    4.1461   10.0230 C   0  0  0  0  0  0  0  0  0  0  0  0
   25.8851    4.5878    9.3313 C   0  0  0  0  0  0  0  0  0  0  0  0
   26.3272    3.8984    7.8006 Cl  0  0  0  0  0  0  0  0  0  0  0  0
   23.9306    2.6430    9.6602 S   0  0  2  0  0  0  0  0  0  0  0  0
   23.1733    2.6743    8.3225 O   0  0  0  0  0  0  0  0  0  0  0  0
   22.8182    2.2995   10.6648 O   0  0  0  0  0  0  0  0  0  0  0  0
   24.9328    1.1918    9.5790 N   0  0  0  0  0  0  0  0  0  0  0  0
   26.9413    8.4568    8.9285 H   0  0  0  0  0  0  0  0  0  0  0  0
   26.8306   10.8337    8.0778 H   0  0  0  0  0  0  0  0  0  0  0  0
   27.3643   12.6771    9.7088 H   0  0  0  0  0  0  0  0  0  0  0  0
   27.7126   12.1456   12.0601 H   0  0  0  0  0  0  0  0  0  0  0  0
   28.0656    9.7820   12.8620 H   0  0  0  0  0  0  0  0  0  0  0  0
   27.6499    5.9132    9.1763 H   0  0  0  0  0  0  0  0  0  0  0  0
   24.3152    8.5437   14.6234 H   0  0  0  0  0  0  0  0  0  0  0  0
   24.5421    9.8403   13.4011 H   0  0  0  0  0  0  0  0  0  0  0  0
   23.0373    8.8595   13.4011 H   0  0  0  0  0  0  0  0  0  0  0  0
   23.8006    4.3827   11.9566 H   0  0  0  0  0  0  0  0  0  0  0  0
   25.1531    0.8728   10.5333 H   0  0  0  0  0  0  0  0  0  0  0  0
   24.4230    0.4500    9.0782 H   0  0  0  0  0  0  0  0  0  0  0  0
  1  2  2  0
  2  3  2  0
  2  4  1  6
  2 10  1  0
  4  5  2  0
  4  9  1  0
  5  6  1  0
  6  7  2  0
  7  8  1  0
  8  9  2  0
 10 11  2  0
 10 12  1  0
 11 19  1  0
 12 13  1  0
 12 17  2  0
 13 14  1  0
 13 16  2  0
 14 15  1  0
 17 18  1  0
 18 19  2  0
 18 21  1  0
 19 20  1  0
 21 22  2  0
 21 23  2  0
 21 24  1  6
  5 25  1  0
  6 26  1  0
  7 27  1  0
  8 28  1  0
  9 29  1  0
 11 30  1  0
 15 31  1  0
 15 32  1  0
 15 33  1  0
 17 34  1  0
 24 35  1  0
 24 36  1  0
M  END
>  <filename_input>  (13) 
7PUV_84Z_docked.sdf

>  <pdb_id>  (13) 
7PUV_84Z

>  <pose_rank>  (13) 
12

>  <num_atoms_heavy>  (13) 
24

>  <num_torsions>  (13) 
5

>  <pose>  (13) 
[26.44809738264072, 6.203675447640915, 10.976081175407034, -5.097645975045167, 1.870229105312235, -2.964794186637156, -1.9809082713565127, -0.1846063485595445, -2.5686021644518418, -0.042728374172207824, -0.05190839728461822]

>  <energy>  (13) 
-1039.8261921569501

>  <inter_energy>  (13) 
-1090.7281256820236

>  <intra_energy>  (13) 
47.056339767048954

>  <rmsd>  (13) 
0.86174

>  <sdf_rank>  (13) 
0

$$$$

     RDKit          3D

 36 37  0  0  0  0  0  0  0  0999 V2000
   27.4450    8.1763   12.2358 O   0  0  0  0  0  0  0  0  0  0  0  0
   27.6974    7.8041   10.8272 S   0  0  2  0  0  0  0  0  0  0  0  0
   29.0440    7.3284   10.4991 O   0  0  0  0  0  0  0  0  0  0  0  0
   27.3956    9.2628    9.9652 C   0  0  0  0  0  0  0  0  0  0  0  0
   28.3682   10.1879    9.5924 C   0  0  0  0  0  0  0  0  0  0  0  0
   28.0610   11.4083    8.9316 C   0  0  0  0  0  0  0  0  0  0  0  0
   26.7196   11.6435    8.6636 C   0  0  0  0  0  0  0  0  0  0  0  0
   25.7853   10.7001    8.9810 C   0  0  0  0  0  0  0  0  0  0  0  0
   26.0740    9.5120    9.7050 C   0  0  0  0  0  0  0  0  0  0  0  0
   26.5532    6.4691   10.4865 C   0  0  0  0  0  0  0  0  0  0  0  0
   26.8647    5.6951    9.3773 C   0  0  0  0  0  0  0  0  0  0  0  0
   25.4490    6.2493   11.3301 C   0  0  0  0  0  0  0  0  0  0  0  0
   24.8866    7.1062   12.4241 C   0  0  0  0  0  0  0  0  0  0  0  0
   25.2319    6.5988   13.6241 O   0  0  0  0  0  0  0  0  0  0  0  0
   24.3509    6.4114   14.6688 C   0  0  0  0  0  0  0  0  0  0  0  0
   24.4157    8.1646   12.3861 O   0  0  0  0  0  0  0  0  0  0  0  0
   24.7677    5.0358   11.1090 C   0  0  0  0  0  0  0  0  0  0  0  0
   24.9313    4.1958    9.9715 C   0  0  0  0  0  0  0  0  0  0  0  0
   26.0249    4.5701    9.1643 C   0  0  0  0  0  0  0  0  0  0  0  0
   26.4506    3.6529    7.7532 Cl  0  0  0  0  0  0  0  0  0  0  0  0
   24.1979    2.6141    9.9036 S   0  0  2  0  0  0  0  0  0  0  0  0
   22.6725    2.6493   10.0928 O   0  0  0  0  0  0  0  0  0  0  0  0
   24.6538    1.6894   11.0446 O   0  0  0  0  0  0  0  0  0  0  0  0
   24.4497    1.6750    8.4300 N   0  0  0  0  0  0  0  0  0  0  0  0
   29.4210    9.9639    9.8195 H   0  0  0  0  0  0  0  0  0  0  0  0
   28.8437   12.1273    8.6482 H   0  0  0  0  0  0  0  0  0  0  0  0
   26.4095   12.5895    8.1957 H   0  0  0  0  0  0  0  0  0  0  0  0
   24.7478   10.8697    8.6572 H   0  0  0  0  0  0  0  0  0  0  0  0
   25.2789    8.8289   10.0385 H   0  0  0  0  0  0  0  0  0  0  0  0
   27.7044    5.9367    8.7091 H   0  0  0  0  0  0  0  0  0  0  0  0
   24.8850    6.5250   15.6238 H   0  0  0  0  0  0  0  0  0  0  0  0
   23.5457    7.1583   14.6079 H   0  0  0  0  0  0  0  0  0  0  0  0
   23.9195    5.4013   14.6079 H   0  0  0  0  0  0  0  0  0  0  0  0
   24.0511    4.7112   11.8779 H   0  0  0  0  0  0  0  0  0  0  0  0
   24.7086    0.7094    8.6783 H   0  0  0  0  0  0  0  0  0  0  0  0
   23.5814    1.6659    7.8760 H   0  0  0  0  0  0  0  0  0  0  0  0
  1  2  2  0
  2  3  2  0
  2  4  1  6
  2 10  1  0
  4  5  2  0
  4  9  1  0
  5  6  1  0
  6  7  2  0
  7  8  1  0
  8  9  2  0
 10 11  2  0
 10 12  1  0
 11 19  1  0
 12 13  1  0
 12 17  2  0
 13 14  1  0
 13 16  2  0
 14 15  1  0
 17 18  1  0
 18 19  2  0
 18 21  1  0
 19 20  1  0
 21 22  2  0
 21 23  2  0
 21 24  1  6
  5 25  1  0
  6 26  1  0
  7 27  1  0
  8 28  1  0
  9 29  1  0
 11 30  1  0
 15 31  1  0
 15 32  1  0
 15 33  1  0
 17 34  1  0
 24 35  1  0
 24 36  1  0
M  END
>  <filename_input>  (14) 
7PUV_84Z_docked.sdf

>  <pdb_id>  (14) 
7PUV_84Z

>  <pose_rank>  (14) 
13

>  <num_atoms_heavy>  (14) 
24

>  <num_torsions>  (14) 
5

>  <pose>  (14) 
[26.55321911568807, 6.469074944058468, 10.486528004884802, -4.211656796065412, 0.8326207979641486, 4.771950110226995, -3.239833994851014, 12.405541480054964, -10.797168640794771, 9.897741854005334, -5.3769921414686355]

>  <energy>  (14) 
-850.5003133498477

>  <inter_energy>  (14) 
-884.6285382746904

>  <intra_energy>  (14) 
44.096604327332344

>  <rmsd>  (14) 
1.47237

>  <sdf_rank>  (14) 
0

$$$$

     RDKit          3D

 36 37  0  0  0  0  0  0  0  0999 V2000
   26.9126    7.7753   12.9785 O   0  0  0  0  0  0  0  0  0  0  0  0
   27.4089    7.9564   11.5975 S   0  0  2  0  0  0  0  0  0  0  0  0
   28.8484    7.7862   11.3835 O   0  0  0  0  0  0  0  0  0  0  0  0
   26.9776    9.5802   11.2245 C   0  0  0  0  0  0  0  0  0  0  0  0
   26.1999   10.4073   12.0319 C   0  0  0  0  0  0  0  0  0  0  0  0
   25.8215   11.7237   11.6522 C   0  0  0  0  0  0  0  0  0  0  0  0
   26.2733   12.1625   10.4154 C   0  0  0  0  0  0  0  0  0  0  0  0
   27.0843   11.3627    9.6629 C   0  0  0  0  0  0  0  0  0  0  0  0
   27.4078   10.0210   10.0009 C   0  0  0  0  0  0  0  0  0  0  0  0
   26.5660    6.7050   10.6324 C   0  0  0  0  0  0  0  0  0  0  0  0
   27.2553    6.2618    9.5122 C   0  0  0  0  0  0  0  0  0  0  0  0
   25.3089    6.2227   11.0403 C   0  0  0  0  0  0  0  0  0  0  0  0
   24.3742    6.7384   12.0928 C   0  0  0  0  0  0  0  0  0  0  0  0
   24.3470    5.8856   13.1362 O   0  0  0  0  0  0  0  0  0  0  0  0
   23.1946    5.4844   13.7793 C   0  0  0  0  0  0  0  0  0  0  0  0
   23.8765    7.7779   12.2151 O   0  0  0  0  0  0  0  0  0  0  0  0
   24.8616    5.0787   10.3497 C   0  0  0  0  0  0  0  0  0  0  0  0
   25.4251    4.5723    9.1446 C   0  0  0  0  0  0  0  0  0  0  0  0
   26.6439    5.1937    8.8039 C   0  0  0  0  0  0  0  0  0  0  0  0
   27.5409    4.6962    7.4034 Cl  0  0  0  0  0  0  0  0  0  0  0  0
   24.9301    3.0310    8.4939 S   0  0  2  0  0  0  0  0  0  0  0  0
   25.0911    2.9422    6.9674 O   0  0  0  0  0  0  0  0  0  0  0  0
   23.4310    2.7488    8.6877 O   0  0  0  0  0  0  0  0  0  0  0  0
   25.7466    1.5960    9.1194 N   0  0  0  0  0  0  0  0  0  0  0  0
   25.8637   10.0245   13.0068 H   0  0  0  0  0  0  0  0  0  0  0  0
   25.2041   12.3601   12.3032 H   0  0  0  0  0  0  0  0  0  0  0  0
   25.9780   13.1540   10.0417 H   0  0  0  0  0  0  0  0  0  0  0  0
   27.5127   11.7816    8.7404 H   0  0  0  0  0  0  0  0  0  0  0  0
   27.9734    9.3713    9.3169 H   0  0  0  0  0  0  0  0  0  0  0  0
   28.2096    6.7073    9.1949 H   0  0  0  0  0  0  0  0  0  0  0  0
   23.3449    5.5367   14.8677 H   0  0  0  0  0  0  0  0  0  0  0  0
   22.3646    6.1464   13.4915 H   0  0  0  0  0  0  0  0  0  0  0  0
   22.9553    4.4500   13.4915 H   0  0  0  0  0  0  0  0  0  0  0  0
   24.0075    4.5326   10.7766 H   0  0  0  0  0  0  0  0  0  0  0  0
   25.7353    1.6159   10.1491 H   0  0  0  0  0  0  0  0  0  0  0  0
   25.2595    0.7515    8.7869 H   0  0  0  0  0  0  0  0  0  0  0  0
  1  2  2  0
  2  3  2  0
  2  4  1  6
  2 10  1  0
  4  5  2  0
  4  9  1  0
  5  6  1  0
  6  7  2  0
  7  8  1  0
  8  9  2  0
 10 11  2  0
 10 12  1  0
 11 19  1  0
 12 13  1  0
 12 17  2  0
 13 14  1  0
 13 16  2  0
 14 15  1  0
 17 18  1  0
 18 19  2  0
 18 21  1  0
 19 20  1  0
 21 22  2  0
 21 23  2  0
 21 24  1  1
  5 25  1  0
  6 26  1  0
  7 27  1  0
  8 28  1  0
  9 29  1  0
 11 30  1  0
 15 31  1  0
 15 32  1  0
 15 33  1  0
 17 34  1  0
 24 35  1  0
 24 36  1  0
M  END
>  <filename_input>  (15) 
7PUV_84Z_docked.sdf

>  <pdb_id>  (15) 
7PUV_84Z

>  <pose_rank>  (15) 
14

>  <num_atoms_heavy>  (15) 
24

>  <num_torsions>  (15) 
5

>  <pose>  (15) 
[26.566014368083128, 6.705034894169797, 10.632393085696709, -2.4327025093702668, 4.617638823224555, -2.784871248287327, 4.714006213970916, 0.009088943970685187, -0.010870840163108842, -2.7668593121688247, 0.846156856541629]

>  <energy>  (15) 
-763.0459047323038

>  <inter_energy>  (15) 
-776.6443997207119

>  <intra_energy>  (15) 
25.797592784603534

>  <rmsd>  (15) 
1.74282

>  <sdf_rank>  (15) 
0

$$$$

     RDKit          3D

 36 37  0  0  0  0  0  0  0  0999 V2000
   26.2776    9.1140   11.7207 O   0  0  0  0  0  0  0  0  0  0  0  0
   27.1013    7.8886   11.7985 S   0  0  2  0  0  0  0  0  0  0  0  0
   27.5300    7.4625   13.1334 O   0  0  0  0  0  0  0  0  0  0  0  0
   28.4927    8.2789   10.8639 C   0  0  0  0  0  0  0  0  0  0  0  0
   29.7633    8.5190   11.3822 C   0  0  0  0  0  0  0  0  0  0  0  0
   30.8694    8.8959   10.5729 C   0  0  0  0  0  0  0  0  0  0  0  0
   30.6256    9.0138    9.2117 C   0  0  0  0  0  0  0  0  0  0  0  0
   29.3904    8.7165    8.7121 C   0  0  0  0  0  0  0  0  0  0  0  0
   28.2624    8.4096    9.5199 C   0  0  0  0  0  0  0  0  0  0  0  0
   26.0698    6.5908   11.1208 C   0  0  0  0  0  0  0  0  0  0  0  0
   26.5357    6.0226    9.9433 C   0  0  0  0  0  0  0  0  0  0  0  0
   24.8959    6.1968   11.7887 C   0  0  0  0  0  0  0  0  0  0  0  0
   24.1781    6.8408   12.9365 C   0  0  0  0  0  0  0  0  0  0  0  0
   24.2344    6.0382   14.0178 O   0  0  0  0  0  0  0  0  0  0  0  0
   23.9955    6.4598   15.3093 C   0  0  0  0  0  0  0  0  0  0  0  0
   23.7962    7.9265   13.0732 O   0  0  0  0  0  0  0  0  0  0  0  0
   24.3052    5.0146   11.2997 C   0  0  0  0  0  0  0  0  0  0  0  0
   24.6307    4.3811   10.0673 C   0  0  0  0  0  0  0  0  0  0  0  0
   25.7822    4.9208    9.4588 C   0  0  0  0  0  0  0  0  0  0  0  0
   26.4007    4.2655    7.9750 Cl  0  0  0  0  0  0  0  0  0  0  0  0
   23.9912    2.8088    9.6634 S   0  0  2  0  0  0  0  0  0  0  0  0
   25.0401    1.6889    9.7616 O   0  0  0  0  0  0  0  0  0  0  0  0
   23.5284    2.7044    8.2006 O   0  0  0  0  0  0  0  0  0  0  0  0
   22.6213    2.2306   10.6152 N   0  0  0  0  0  0  0  0  0  0  0  0
   29.9175    8.4121   12.4661 H   0  0  0  0  0  0  0  0  0  0  0  0
   31.8646    9.0840   11.0022 H   0  0  0  0  0  0  0  0  0  0  0  0
   31.4271    9.3466    8.5358 H   0  0  0  0  0  0  0  0  0  0  0  0
   29.2606    8.7144    7.6198 H   0  0  0  0  0  0  0  0  0  0  0  0
   27.2581    8.2837    9.0891 H   0  0  0  0  0  0  0  0  0  0  0  0
   27.4273    6.4000    9.4212 H   0  0  0  0  0  0  0  0  0  0  0  0
   24.4107    5.7272   16.0170 H   0  0  0  0  0  0  0  0  0  0  0  0
   24.4739    7.4371   15.4704 H   0  0  0  0  0  0  0  0  0  0  0  0
   22.9112    6.5514   15.4704 H   0  0  0  0  0  0  0  0  0  0  0  0
   23.5296    4.5429   11.9209 H   0  0  0  0  0  0  0  0  0  0  0  0
   22.8373    2.3217   11.6182 H   0  0  0  0  0  0  0  0  0  0  0  0
   21.7867    2.7911   10.3914 H   0  0  0  0  0  0  0  0  0  0  0  0
  1  2  2  0
  2  3  2  0
  2  4  1  6
  2 10  1  0
  4  5  2  0
  4  9  1  0
  5  6  1  0
  6  7  2  0
  7  8  1  0
  8  9  2  0
 10 11  2  0
 10 12  1  0
 11 19  1  0
 12 13  1  0
 12 17  2  0
 13 14  1  0
 13 16  2  0
 14 15  1  0
 17 18  1  0
 18 19  2  0
 18 21  1  0
 19 20  1  0
 21 22  2  0
 21 23  2  0
 21 24  1  1
  5 25  1  0
  6 26  1  0
  7 27  1  0
  8 28  1  0
  9 29  1  0
 11 30  1  0
 15 31  1  0
 15 32  1  0
 15 33  1  0
 17 34  1  0
 24 35  1  0
 24 36  1  0
M  END
>  <filename_input>  (16) 
7PUV_84Z_docked.sdf

>  <pdb_id>  (16) 
7PUV_84Z

>  <pose_rank>  (16) 
15

>  <num_atoms_heavy>  (16) 
24

>  <num_torsions>  (16) 
5

>  <pose>  (16) 
[26.069783003968187, 6.590759316930457, 11.120815535843033, -2.2796281853622924, 3.3250042960341832, -4.57340814222523, 0.19130863786779212, -1.6139764379327897, -4.285143735084898, 3.4365532293435357, -0.23690457929424902]

>  <energy>  (16) 
-906.78284321474

>  <inter_energy>  (16) 
-937.3780386777654

>  <intra_energy>  (16) 
29.457133514939084

>  <rmsd>  (16) 
2.05921

>  <sdf_rank>  (16) 
0

$$$$

     RDKit          3D

 36 37  0  0  0  0  0  0  0  0999 V2000
   27.3883    7.4064   12.8540 O   0  0  0  0  0  0  0  0  0  0  0  0
   27.7700    7.0617   11.4678 S   0  0  2  0  0  0  0  0  0  0  0  0
   29.0620    6.3957   11.2828 O   0  0  0  0  0  0  0  0  0  0  0  0
   27.8090    8.5863   10.6701 C   0  0  0  0  0  0  0  0  0  0  0  0
   28.8942    9.0875    9.9545 C   0  0  0  0  0  0  0  0  0  0  0  0
   28.8987   10.3794    9.3619 C   0  0  0  0  0  0  0  0  0  0  0  0
   27.7477   11.1373    9.5267 C   0  0  0  0  0  0  0  0  0  0  0  0
   26.6709   10.6087   10.1786 C   0  0  0  0  0  0  0  0  0  0  0  0
   26.6830    9.3487   10.8352 C   0  0  0  0  0  0  0  0  0  0  0  0
   26.4955    5.9390   10.8997 C   0  0  0  0  0  0  0  0  0  0  0  0
   26.7841    5.2694    9.7187 C   0  0  0  0  0  0  0  0  0  0  0  0
   25.3174    5.7665   11.6491 C   0  0  0  0  0  0  0  0  0  0  0  0
   24.7917    6.5524   12.8125 C   0  0  0  0  0  0  0  0  0  0  0  0
   24.1911    7.6752   12.3704 O   0  0  0  0  0  0  0  0  0  0  0  0
   24.0211    8.8138   13.1302 C   0  0  0  0  0  0  0  0  0  0  0  0
   24.6569    6.2544   13.9244 O   0  0  0  0  0  0  0  0  0  0  0  0
   24.5080    4.6882   11.2394 C   0  0  0  0  0  0  0  0  0  0  0  0
   24.6440    3.9765   10.0142 C   0  0  0  0  0  0  0  0  0  0  0  0
   25.8282    4.2980    9.3200 C   0  0  0  0  0  0  0  0  0  0  0  0
   26.2328    3.5087    7.8277 Cl  0  0  0  0  0  0  0  0  0  0  0  0
   23.7269    2.5244    9.7065 S   0  0  2  0  0  0  0  0  0  0  0  0
   22.9526    2.5713    8.3791 O   0  0  0  0  0  0  0  0  0  0  0  0
   22.6092    2.2885   10.7360 O   0  0  0  0  0  0  0  0  0  0  0  0
   24.6237    1.0045    9.6539 N   0  0  0  0  0  0  0  0  0  0  0  0
   29.7874    8.4551    9.8431 H   0  0  0  0  0  0  0  0  0  0  0  0
   29.7672   10.7580    8.8030 H   0  0  0  0  0  0  0  0  0  0  0  0
   27.7031   12.1632    9.1323 H   0  0  0  0  0  0  0  0  0  0  0  0
   25.7390   11.1928   10.1966 H   0  0  0  0  0  0  0  0  0  0  0  0
   25.8337    9.0039   11.4434 H   0  0  0  0  0  0  0  0  0  0  0  0
   27.6910    5.4770    9.1319 H   0  0  0  0  0  0  0  0  0  0  0  0
   24.0603    8.5514   14.1978 H   0  0  0  0  0  0  0  0  0  0  0  0
   24.8221    9.5315   12.8994 H   0  0  0  0  0  0  0  0  0  0  0  0
   23.0455    9.2664   12.8994 H   0  0  0  0  0  0  0  0  0  0  0  0
   23.7058    4.3707   11.9218 H   0  0  0  0  0  0  0  0  0  0  0  0
   24.8128    0.6840   10.6143 H   0  0  0  0  0  0  0  0  0  0  0  0
   24.0665    0.2940    9.1583 H   0  0  0  0  0  0  0  0  0  0  0  0
  1  2  2  0
  2  3  2  0
  2  4  1  6
  2 10  1  0
  4  5  2  0
  4  9  1  0
  5  6  1  0
  6  7  2  0
  7  8  1  0
  8  9  2  0
 10 11  2  0
 10 12  1  0
 11 19  1  0
 12 13  1  0
 12 17  2  0
 13 14  1  0
 13 16  2  0
 14 15  1  0
 17 18  1  0
 18 19  2  0
 18 21  1  0
 19 20  1  0
 21 22  2  0
 21 23  2  0
 21 24  1  6
  5 25  1  0
  6 26  1  0
  7 27  1  0
  8 28  1  0
  9 29  1  0
 11 30  1  0
 15 31  1  0
 15 32  1  0
 15 33  1  0
 17 34  1  0
 24 35  1  0
 24 36  1  0
M  END
>  <filename_input>  (17) 
7PUV_84Z_docked.sdf

>  <pdb_id>  (17) 
7PUV_84Z

>  <pose_rank>  (17) 
16

>  <num_atoms_heavy>  (17) 
24

>  <num_torsions>  (17) 
5

>  <pose>  (17) 
[26.495494500448103, 5.938950424073352, 10.899736543291398, -3.346350445575769, 4.372348487625954, 2.89565140745553, -2.01322271091465, 6.019588268715762, -3.982233012284344, 0.5478762550244878, 0.48671564607540024]

>  <energy>  (17) 
-1092.6891211384143

>  <inter_energy>  (17) 
-1090.780870373175

>  <intra_energy>  (17) 
28.856698110573184

>  <rmsd>  (17) 
0.995492

>  <sdf_rank>  (17) 
0

$$$$

     RDKit          3D

 36 37  0  0  0  0  0  0  0  0999 V2000
   27.7526    7.2384   12.5780 O   0  0  0  0  0  0  0  0  0  0  0  0
   27.7871    7.2109   11.1001 S   0  0  2  0  0  0  0  0  0  0  0  0
   29.0265    6.7411   10.4753 O   0  0  0  0  0  0  0  0  0  0  0  0
   27.5294    8.8549   10.6609 C   0  0  0  0  0  0  0  0  0  0  0  0
   27.0933    9.8556   11.5265 C   0  0  0  0  0  0  0  0  0  0  0  0
   26.8388   11.1879   11.1018 C   0  0  0  0  0  0  0  0  0  0  0  0
   27.0519   11.4576    9.7570 C   0  0  0  0  0  0  0  0  0  0  0  0
   27.5370   10.4819    8.9346 C   0  0  0  0  0  0  0  0  0  0  0  0
   27.7252    9.1312    9.3336 C   0  0  0  0  0  0  0  0  0  0  0  0
   26.4794    6.0832   10.6250 C   0  0  0  0  0  0  0  0  0  0  0  0
   26.6830    5.4178    9.4241 C   0  0  0  0  0  0  0  0  0  0  0  0
   25.3608    5.9032   11.4591 C   0  0  0  0  0  0  0  0  0  0  0  0
   24.9190    6.6839   12.6602 C   0  0  0  0  0  0  0  0  0  0  0  0
   25.1931    5.9889   13.7821 O   0  0  0  0  0  0  0  0  0  0  0  0
   24.5948    4.7923   14.1181 C   0  0  0  0  0  0  0  0  0  0  0  0
   24.5947    7.7920   12.7616 O   0  0  0  0  0  0  0  0  0  0  0  0
   24.5285    4.8219   11.1075 C   0  0  0  0  0  0  0  0  0  0  0  0
   24.5768    4.1136    9.8737 C   0  0  0  0  0  0  0  0  0  0  0  0
   25.7048    4.4426    9.0946 C   0  0  0  0  0  0  0  0  0  0  0  0
   26.0016    3.6587    7.5744 Cl  0  0  0  0  0  0  0  0  0  0  0  0
   23.6464    2.6577    9.6309 S   0  0  2  0  0  0  0  0  0  0  0  0
   22.6243    2.4027   10.7508 O   0  0  0  0  0  0  0  0  0  0  0  0
   24.5042    1.3819    9.6660 O   0  0  0  0  0  0  0  0  0  0  0  0
   22.7173    2.5390    8.1344 N   0  0  0  0  0  0  0  0  0  0  0  0
   26.9390    9.6033   12.5861 H   0  0  0  0  0  0  0  0  0  0  0  0
   26.4919   11.9632   11.8008 H   0  0  0  0  0  0  0  0  0  0  0  0
   26.8301   12.4569    9.3543 H   0  0  0  0  0  0  0  0  0  0  0  0
   27.7974   10.7576    7.9020 H   0  0  0  0  0  0  0  0  0  0  0  0
   28.0127    8.3494    8.6152 H   0  0  0  0  0  0  0  0  0  0  0  0
   27.5430    5.6312    8.7723 H   0  0  0  0  0  0  0  0  0  0  0  0
   24.5487    4.7002   15.2132 H   0  0  0  0  0  0  0  0  0  0  0  0
   23.5759    4.7629   13.7044 H   0  0  0  0  0  0  0  0  0  0  0  0
   25.1826    3.9596   13.7044 H   0  0  0  0  0  0  0  0  0  0  0  0
   23.7805    4.4989   11.8465 H   0  0  0  0  0  0  0  0  0  0  0  0
   21.7201    2.4115    8.3586 H   0  0  0  0  0  0  0  0  0  0  0  0
   22.8382    3.4023    7.5857 H   0  0  0  0  0  0  0  0  0  0  0  0
  1  2  2  0
  2  3  2  0
  2  4  1  6
  2 10  1  0
  4  5  2  0
  4  9  1  0
  5  6  1  0
  6  7  2  0
  7  8  1  0
  8  9  2  0
 10 11  2  0
 10 12  1  0
 11 19  1  0
 12 13  1  0
 12 17  2  0
 13 14  1  0
 13 16  2  0
 14 15  1  0
 17 18  1  0
 18 19  2  0
 18 21  1  0
 19 20  1  0
 21 22  2  0
 21 23  2  0
 21 24  1  6
  5 25  1  0
  6 26  1  0
  7 27  1  0
  8 28  1  0
  9 29  1  0
 11 30  1  0
 15 31  1  0
 15 32  1  0
 15 33  1  0
 17 34  1  0
 24 35  1  0
 24 36  1  0
M  END
>  <filename_input>  (18) 
7PUV_84Z_docked.sdf

>  <pdb_id>  (18) 
7PUV_84Z

>  <pose_rank>  (18) 
17

>  <num_atoms_heavy>  (18) 
24

>  <num_torsions>  (18) 
5

>  <pose>  (18) 
[26.479428294197564, 6.083184977731265, 10.625005066659636, -4.120307920092928, -3.5894537090839087, 2.9926581473854683, 2.2314237373101595, 0.019235541940065132, -0.1165749112723878, -2.6774381375965652, 2.0675351484695934]

>  <energy>  (18) 
-1045.3457811588207

>  <inter_energy>  (18) 
-1087.9295676066881

>  <intra_energy>  (18) 
38.70426850835346

>  <rmsd>  (18) 
1.33797

>  <sdf_rank>  (18) 
0

$$$$

     RDKit          3D

 36 37  0  0  0  0  0  0  0  0999 V2000
   27.0036    7.6739   12.8552 O   0  0  0  0  0  0  0  0  0  0  0  0
   27.6390    7.0433   11.6785 S   0  0  2  0  0  0  0  0  0  0  0  0
   28.8613    6.2720   11.9197 O   0  0  0  0  0  0  0  0  0  0  0  0
   28.0141    8.3788   10.6596 C   0  0  0  0  0  0  0  0  0  0  0  0
   28.9285    8.3517    9.6089 C   0  0  0  0  0  0  0  0  0  0  0  0
   29.2474    9.4986    8.8323 C   0  0  0  0  0  0  0  0  0  0  0  0
   28.5909   10.6739    9.1702 C   0  0  0  0  0  0  0  0  0  0  0  0
   27.6535   10.6701   10.1626 C   0  0  0  0  0  0  0  0  0  0  0  0
   27.3812    9.5477   10.9904 C   0  0  0  0  0  0  0  0  0  0  0  0
   26.4061    5.9166   11.0319 C   0  0  0  0  0  0  0  0  0  0  0  0
   26.7401    5.3033    9.8324 C   0  0  0  0  0  0  0  0  0  0  0  0
   25.2140    5.6865   11.7426 C   0  0  0  0  0  0  0  0  0  0  0  0
   24.6408    6.4113   12.9230 C   0  0  0  0  0  0  0  0  0  0  0  0
   24.9544    5.7550   14.0577 O   0  0  0  0  0  0  0  0  0  0  0  0
   24.1030    5.6179   15.1343 C   0  0  0  0  0  0  0  0  0  0  0  0
   24.1850    7.4737   13.0068 O   0  0  0  0  0  0  0  0  0  0  0  0
   24.4409    4.6081   11.2681 C   0  0  0  0  0  0  0  0  0  0  0  0
   24.6245    3.9511   10.0187 C   0  0  0  0  0  0  0  0  0  0  0  0
   25.8178    4.3280    9.3694 C   0  0  0  0  0  0  0  0  0  0  0  0
   26.2784    3.6107    7.8571 Cl  0  0  0  0  0  0  0  0  0  0  0  0
   23.7501    2.4927    9.6281 S   0  0  2  0  0  0  0  0  0  0  0  0
   23.0206    2.5717    8.2770 O   0  0  0  0  0  0  0  0  0  0  0  0
   22.6034    2.1969   10.6090 O   0  0  0  0  0  0  0  0  0  0  0  0
   24.6809    0.9944    9.5529 N   0  0  0  0  0  0  0  0  0  0  0  0
   29.4259    7.4002    9.3697 H   0  0  0  0  0  0  0  0  0  0  0  0
   29.9748    9.4571    8.0083 H   0  0  0  0  0  0  0  0  0  0  0  0
   28.8259   11.6079    8.6387 H   0  0  0  0  0  0  0  0  0  0  0  0
   27.0748   11.5902   10.3315 H   0  0  0  0  0  0  0  0  0  0  0  0
   26.6988    9.6140   11.8506 H   0  0  0  0  0  0  0  0  0  0  0  0
   27.6563    5.5556    9.2784 H   0  0  0  0  0  0  0  0  0  0  0  0
   24.6758    5.7101   16.0688 H   0  0  0  0  0  0  0  0  0  0  0  0
   23.3343    6.4038   15.0963 H   0  0  0  0  0  0  0  0  0  0  0  0
   23.6200    4.6303   15.0963 H   0  0  0  0  0  0  0  0  0  0  0  0
   23.6296    4.2445   11.9158 H   0  0  0  0  0  0  0  0  0  0  0  0
   24.8838    0.6679   10.5085 H   0  0  0  0  0  0  0  0  0  0  0  0
   24.1367    0.2768    9.0532 H   0  0  0  0  0  0  0  0  0  0  0  0
  1  2  2  0
  2  3  2  0
  2  4  1  6
  2 10  1  0
  4  5  2  0
  4  9  1  0
  5  6  1  0
  6  7  2  0
  7  8  1  0
  8  9  2  0
 10 11  2  0
 10 12  1  0
 11 19  1  0
 12 13  1  0
 12 17  2  0
 13 14  1  0
 13 16  2  0
 14 15  1  0
 17 18  1  0
 18 19  2  0
 18 21  1  0
 19 20  1  0
 21 22  2  0
 21 23  2  0
 21 24  1  6
  5 25  1  0
  6 26  1  0
  7 27  1  0
  8 28  1  0
  9 29  1  0
 11 30  1  0
 15 31  1  0
 15 32  1  0
 15 33  1  0
 17 34  1  0
 24 35  1  0
 24 36  1  0
M  END
>  <filename_input>  (19) 
7PUV_84Z_docked.sdf

>  <pdb_id>  (19) 
7PUV_84Z

>  <pose_rank>  (19) 
18

>  <num_atoms_heavy>  (19) 
24

>  <num_torsions>  (19) 
5

>  <pose>  (19) 
[26.40614815985846, 5.916560004253298, 11.031884675888596, -4.576089874040069, 4.137799368045726, 0.37908150973987703, 10.563726472227543, -6.871980016211454, -3.351318817571026, 10.01613829577622, -5.5430540089504765]

>  <energy>  (19) 
-1041.8458455173416

>  <inter_energy>  (19) 
-1068.9658705214943

>  <intra_energy>  (19) 
39.16851073615585

>  <rmsd>  (19) 
1.52864

>  <sdf_rank>  (19) 
0

$$$$

     RDKit          3D

 36 37  0  0  0  0  0  0  0  0999 V2000
   27.9044    7.6707   12.6625 O   0  0  0  0  0  0  0  0  0  0  0  0
   28.1067    7.4952   11.2084 S   0  0  2  0  0  0  0  0  0  0  0  0
   29.3885    6.9276   10.7818 O   0  0  0  0  0  0  0  0  0  0  0  0
   27.9704    9.0944   10.5871 C   0  0  0  0  0  0  0  0  0  0  0  0
   26.7933    9.8383   10.5435 C   0  0  0  0  0  0  0  0  0  0  0  0
   26.7197   11.1351    9.9661 C   0  0  0  0  0  0  0  0  0  0  0  0
   27.8988   11.6428    9.4384 C   0  0  0  0  0  0  0  0  0  0  0  0
   29.0564   10.9268    9.5430 C   0  0  0  0  0  0  0  0  0  0  0  0
   29.1249    9.6022   10.0527 C   0  0  0  0  0  0  0  0  0  0  0  0
   26.8156    6.3664   10.6919 C   0  0  0  0  0  0  0  0  0  0  0  0
   27.0521    5.7104    9.4919 C   0  0  0  0  0  0  0  0  0  0  0  0
   25.6768    6.1764   11.4959 C   0  0  0  0  0  0  0  0  0  0  0  0
   25.2016    6.9468   12.6909 C   0  0  0  0  0  0  0  0  0  0  0  0
   24.8688    8.2000   12.3230 O   0  0  0  0  0  0  0  0  0  0  0  0
   24.5948    9.2209   13.2091 C   0  0  0  0  0  0  0  0  0  0  0  0
   24.9083    6.5860   13.7526 O   0  0  0  0  0  0  0  0  0  0  0  0
   24.8576    5.0948   11.1154 C   0  0  0  0  0  0  0  0  0  0  0  0
   24.9400    4.3957    9.8782 C   0  0  0  0  0  0  0  0  0  0  0  0
   26.0863    4.7343    9.1306 C   0  0  0  0  0  0  0  0  0  0  0  0
   26.4246    3.9625    7.6128 Cl  0  0  0  0  0  0  0  0  0  0  0  0
   24.0214    2.9384    9.6013 S   0  0  2  0  0  0  0  0  0  0  0  0
   23.4790    2.8321    8.1666 O   0  0  0  0  0  0  0  0  0  0  0  0
   22.7400    2.8641   10.4482 O   0  0  0  0  0  0  0  0  0  0  0  0
   24.8450    1.4035    9.8887 N   0  0  0  0  0  0  0  0  0  0  0  0
   25.8801    9.4028   10.9752 H   0  0  0  0  0  0  0  0  0  0  0  0
   25.7795   11.7053    9.9390 H   0  0  0  0  0  0  0  0  0  0  0  0
   27.9005   12.6215    8.9362 H   0  0  0  0  0  0  0  0  0  0  0  0
   29.9914   11.4034    9.2132 H   0  0  0  0  0  0  0  0  0  0  0  0
   30.0552    9.0160   10.0199 H   0  0  0  0  0  0  0  0  0  0  0  0
   27.9277    5.9316    8.8638 H   0  0  0  0  0  0  0  0  0  0  0  0
   24.6947    8.8488   14.2395 H   0  0  0  0  0  0  0  0  0  0  0  0
   25.3030   10.0469   13.0473 H   0  0  0  0  0  0  0  0  0  0  0  0
   23.5682    9.5812   13.0473 H   0  0  0  0  0  0  0  0  0  0  0  0
   24.0922    4.7639   11.8328 H   0  0  0  0  0  0  0  0  0  0  0  0
   24.9305    1.2443   10.9028 H   0  0  0  0  0  0  0  0  0  0  0  0
   24.3015    0.6377    9.4655 H   0  0  0  0  0  0  0  0  0  0  0  0
  1  2  2  0
  2  3  2  0
  2  4  1  6
  2 10  1  0
  4  5  2  0
  4  9  1  0
  5  6  1  0
  6  7  2  0
  7  8  1  0
  8  9  2  0
 10 11  2  0
 10 12  1  0
 11 19  1  0
 12 13  1  0
 12 17  2  0
 13 14  1  0
 13 16  2  0
 14 15  1  0
 17 18  1  0
 18 19  2  0
 18 21  1  0
 19 20  1  0
 21 22  2  0
 21 23  2  0
 21 24  1  1
  5 25  1  0
  6 26  1  0
  7 27  1  0
  8 28  1  0
  9 29  1  0
 11 30  1  0
 15 31  1  0
 15 32  1  0
 15 33  1  0
 17 34  1  0
 24 35  1  0
 24 36  1  0
M  END
>  <filename_input>  (20) 
7PUV_84Z_docked.sdf

>  <pdb_id>  (20) 
7PUV_84Z

>  <pose_rank>  (20) 
19

>  <num_atoms_heavy>  (20) 
24

>  <num_torsions>  (20) 
5

>  <pose>  (20) 
[26.815621551475896, 6.366382197840616, 10.691949696639497, -5.542892436567818, -0.6664714405039207, 2.7772057773307908, -1.7534554690467403, 6.157599590145844, 5.182341768507266, -5.9943661016829255, 0.2586813963251047]

>  <energy>  (20) 
-936.3043272621741

>  <inter_energy>  (20) 
-959.3235724810307

>  <intra_energy>  (20) 
36.20115286650936

>  <rmsd>  (20) 
1.09505

>  <sdf_rank>  (20) 
0

$$$$

     RDKit          3D

 36 37  0  0  0  0  0  0  0  0999 V2000
   26.3688    8.8356   12.1080 O   0  0  0  0  0  0  0  0  0  0  0  0
   27.0092    7.5496   12.4575 S   0  0  2  0  0  0  0  0  0  0  0  0
   27.0029    7.1696   13.8726 O   0  0  0  0  0  0  0  0  0  0  0  0
   28.6383    7.7583   11.9432 C   0  0  0  0  0  0  0  0  0  0  0  0
   29.2181    7.1264   10.8453 C   0  0  0  0  0  0  0  0  0  0  0  0
   30.5864    7.2867   10.4952 C   0  0  0  0  0  0  0  0  0  0  0  0
   31.3375    8.1221   11.3102 C   0  0  0  0  0  0  0  0  0  0  0  0
   30.7405    8.7810   12.3460 C   0  0  0  0  0  0  0  0  0  0  0  0
   29.3933    8.5716   12.7464 C   0  0  0  0  0  0  0  0  0  0  0  0
   26.0815    6.3086   11.5591 C   0  0  0  0  0  0  0  0  0  0  0  0
   26.4986    6.0922   10.2532 C   0  0  0  0  0  0  0  0  0  0  0  0
   25.0320    5.6145   12.1885 C   0  0  0  0  0  0  0  0  0  0  0  0
   24.3541    5.8757   13.4999 C   0  0  0  0  0  0  0  0  0  0  0  0
   24.3521    4.7520   14.2442 O   0  0  0  0  0  0  0  0  0  0  0  0
   25.0847    4.5877   15.4013 C   0  0  0  0  0  0  0  0  0  0  0  0
   24.0450    6.8729   14.0033 O   0  0  0  0  0  0  0  0  0  0  0  0
   24.5440    4.5034   11.4723 C   0  0  0  0  0  0  0  0  0  0  0  0
   24.8250    4.2169   10.1065 C   0  0  0  0  0  0  0  0  0  0  0  0
   25.8405    5.0351    9.5708 C   0  0  0  0  0  0  0  0  0  0  0  0
   26.3898    4.8252    7.9374 Cl  0  0  0  0  0  0  0  0  0  0  0  0
   24.3437    2.7038    9.3835 S   0  0  2  0  0  0  0  0  0  0  0  0
   22.9239    2.2701    9.7834 O   0  0  0  0  0  0  0  0  0  0  0  0
   25.1991    1.5142    9.8501 O   0  0  0  0  0  0  0  0  0  0  0  0
   24.3646    2.6139    7.6204 N   0  0  0  0  0  0  0  0  0  0  0  0
   28.5890    6.4744   10.2216 H   0  0  0  0  0  0  0  0  0  0  0  0
   31.0260    6.7763    9.6255 H   0  0  0  0  0  0  0  0  0  0  0  0
   32.4133    8.2531   11.1215 H   0  0  0  0  0  0  0  0  0  0  0  0
   31.3375    9.5176   12.9037 H   0  0  0  0  0  0  0  0  0  0  0  0
   28.9789    9.0375   13.6526 H   0  0  0  0  0  0  0  0  0  0  0  0
   27.2850    6.6980    9.7793 H   0  0  0  0  0  0  0  0  0  0  0  0
   24.4305    4.7344   16.2734 H   0  0  0  0  0  0  0  0  0  0  0  0
   25.5073    3.5724   15.4267 H   0  0  0  0  0  0  0  0  0  0  0  0
   25.9005    5.3251   15.4267 H   0  0  0  0  0  0  0  0  0  0  0  0
   23.8930    3.8003   12.0124 H   0  0  0  0  0  0  0  0  0  0  0  0
   24.5885    1.6519    7.3282 H   0  0  0  0  0  0  0  0  0  0  0  0
   23.4397    2.8781    7.2521 H   0  0  0  0  0  0  0  0  0  0  0  0
  1  2  2  0
  2  3  2  0
  2  4  1  6
  2 10  1  0
  4  5  2  0
  4  9  1  0
  5  6  1  0
  6  7  2  0
  7  8  1  0
  8  9  2  0
 10 11  2  0
 10 12  1  0
 11 19  1  0
 12 13  1  0
 12 17  2  0
 13 14  1  0
 13 16  2  0
 14 15  1  0
 17 18  1  0
 18 19  2  0
 18 21  1  0
 19 20  1  0
 21 22  2  0
 21 23  2  0
 21 24  1  6
  5 25  1  0
  6 26  1  0
  7 27  1  0
  8 28  1  0
  9 29  1  0
 11 30  1  0
 15 31  1  0
 15 32  1  0
 15 33  1  0
 17 34  1  0
 24 35  1  0
 24 36  1  0
M  END
>  <filename_input>  (21) 
7PUV_84Z_docked.sdf

>  <pdb_id>  (21) 
7PUV_84Z

>  <pose_rank>  (21) 
20

>  <num_atoms_heavy>  (21) 
24

>  <num_torsions>  (21) 
5

>  <pose>  (21) 
[26.081531326908927, 6.308563277612137, 11.559133817925426, -4.5545874984620935, 0.47172769293645306, -3.680954426998802, 2.794830790555879, 10.437219944784799, 4.494337830845665, 3.198570834549426, -1.1244475531045925]

>  <energy>  (21) 
-849.4134985117248

>  <inter_energy>  (21) 
-894.2483884803111

>  <intra_energy>  (21) 
50.78118915093774

>  <rmsd>  (21) 
2.76171

>  <sdf_rank>  (21) 
0

$$$$

     RDKit          3D

 36 37  0  0  0  0  0  0  0  0999 V2000
   27.2999    7.4545   12.9071 O   0  0  0  0  0  0  0  0  0  0  0  0
   27.7451    7.0072   11.5700 S   0  0  2  0  0  0  0  0  0  0  0  0
   28.9971    6.2484   11.5085 O   0  0  0  0  0  0  0  0  0  0  0  0
   27.9408    8.4781   10.6981 C   0  0  0  0  0  0  0  0  0  0  0  0
   27.0806    9.5715   10.7700 C   0  0  0  0  0  0  0  0  0  0  0  0
   27.2532   10.7435    9.9845 C   0  0  0  0  0  0  0  0  0  0  0  0
   28.3430   10.7547    9.1252 C   0  0  0  0  0  0  0  0  0  0  0  0
   29.2105    9.7007    9.1105 C   0  0  0  0  0  0  0  0  0  0  0  0
   29.0065    8.4971    9.8376 C   0  0  0  0  0  0  0  0  0  0  0  0
   26.4350    5.9401   10.9762 C   0  0  0  0  0  0  0  0  0  0  0  0
   26.5584    5.5357    9.6543 C   0  0  0  0  0  0  0  0  0  0  0  0
   25.3937    5.5494   11.8379 C   0  0  0  0  0  0  0  0  0  0  0  0
   25.0297    6.0562   13.2010 C   0  0  0  0  0  0  0  0  0  0  0  0
   24.2843    7.1735   13.0882 O   0  0  0  0  0  0  0  0  0  0  0  0
   23.8844    7.9494   14.1563 C   0  0  0  0  0  0  0  0  0  0  0  0
   25.1151    5.5511   14.2406 O   0  0  0  0  0  0  0  0  0  0  0  0
   24.5660    4.5240   11.3387 C   0  0  0  0  0  0  0  0  0  0  0  0
   24.5333    4.0774    9.9875 C   0  0  0  0  0  0  0  0  0  0  0  0
   25.5843    4.6034    9.2090 C   0  0  0  0  0  0  0  0  0  0  0  0
   25.7779    4.1505    7.5443 Cl  0  0  0  0  0  0  0  0  0  0  0  0
   23.6273    2.6594    9.5266 S   0  0  2  0  0  0  0  0  0  0  0  0
   22.2806    2.5410   10.2590 O   0  0  0  0  0  0  0  0  0  0  0  0
   24.3300    1.3456    9.9072 O   0  0  0  0  0  0  0  0  0  0  0  0
   23.2291    2.4821    7.8157 N   0  0  0  0  0  0  0  0  0  0  0  0
   26.2297    9.5259   11.4657 H   0  0  0  0  0  0  0  0  0  0  0  0
   26.5607   11.5954   10.0539 H   0  0  0  0  0  0  0  0  0  0  0  0
   28.5077   11.6123    8.4563 H   0  0  0  0  0  0  0  0  0  0  0  0
   30.1212    9.7883    8.4997 H   0  0  0  0  0  0  0  0  0  0  0  0
   29.6688    7.6272    9.7161 H   0  0  0  0  0  0  0  0  0  0  0  0
   27.3561    5.9116    8.9967 H   0  0  0  0  0  0  0  0  0  0  0  0
   24.1460    7.4418   15.0965 H   0  0  0  0  0  0  0  0  0  0  0  0
   24.3926    8.9240   14.1120 H   0  0  0  0  0  0  0  0  0  0  0  0
   22.7959    8.1012   14.1120 H   0  0  0  0  0  0  0  0  0  0  0  0
   23.8902    4.0284   12.0512 H   0  0  0  0  0  0  0  0  0  0  0  0
   22.2920    2.0649    7.7228 H   0  0  0  0  0  0  0  0  0  0  0  0
   23.2394    3.4073    7.3632 H   0  0  0  0  0  0  0  0  0  0  0  0
  1  2  2  0
  2  3  2  0
  2  4  1  6
  2 10  1  0
  4  5  2  0
  4  9  1  0
  5  6  1  0
  6  7  2  0
  7  8  1  0
  8  9  2  0
 10 11  2  0
 10 12  1  0
 11 19  1  0
 12 13  1  0
 12 17  2  0
 13 14  1  0
 13 16  2  0
 14 15  1  0
 17 18  1  0
 18 19  2  0
 18 21  1  0
 19 20  1  0
 21 22  2  0
 21 23  2  0
 21 24  1  6
  5 25  1  0
  6 26  1  0
  7 27  1  0
  8 28  1  0
  9 29  1  0
 11 30  1  0
 15 31  1  0
 15 32  1  0
 15 33  1  0
 17 34  1  0
 24 35  1  0
 24 36  1  0
M  END
>  <filename_input>  (22) 
7PUV_84Z_docked.sdf

>  <pdb_id>  (22) 
7PUV_84Z

>  <pose_rank>  (22) 
21

>  <num_atoms_heavy>  (22) 
24

>  <num_torsions>  (22) 
5

>  <pose>  (22) 
[26.43503302428459, 5.940068279287063, 10.976248165673073, 0.23480810716991798, 0.11218232990837895, 0.012551800283245415, -3.5518995887226907, -0.6204509150386194, -0.6013855311710156, 0.592199509529362, 0.17598704814282237]

>  <energy>  (22) 
-998.7768251412956

>  <inter_energy>  (22) 
-1012.4672143208337

>  <intra_energy>  (22) 
39.40280058329428

>  <rmsd>  (22) 
1.22653

>  <sdf_rank>  (22) 
0

$$$$

     RDKit          3D

 36 37  0  0  0  0  0  0  0  0999 V2000
   27.4025    7.2047   12.8799 O   0  0  0  0  0  0  0  0  0  0  0  0
   27.7984    7.0072   11.4691 S   0  0  2  0  0  0  0  0  0  0  0  0
   29.1086    6.3970   11.2282 O   0  0  0  0  0  0  0  0  0  0  0  0
   27.7991    8.6028   10.8240 C   0  0  0  0  0  0  0  0  0  0  0  0
   27.5666    8.9264    9.4891 C   0  0  0  0  0  0  0  0  0  0  0  0
   27.6359   10.2567    8.9931 C   0  0  0  0  0  0  0  0  0  0  0  0
   27.9487   11.2438    9.9174 C   0  0  0  0  0  0  0  0  0  0  0  0
   28.1142   10.9182   11.2328 C   0  0  0  0  0  0  0  0  0  0  0  0
   28.1180    9.5850   11.7242 C   0  0  0  0  0  0  0  0  0  0  0  0
   26.5568    5.9118   10.7863 C   0  0  0  0  0  0  0  0  0  0  0  0
   26.8099    5.4659    9.4966 C   0  0  0  0  0  0  0  0  0  0  0  0
   25.4382    5.5415   11.5552 C   0  0  0  0  0  0  0  0  0  0  0  0
   24.9412    6.0894   12.8591 C   0  0  0  0  0  0  0  0  0  0  0  0
   24.2880    5.1264   13.5392 O   0  0  0  0  0  0  0  0  0  0  0  0
   23.2494    5.3648   14.4151 C   0  0  0  0  0  0  0  0  0  0  0  0
   25.1973    7.0774   13.4083 O   0  0  0  0  0  0  0  0  0  0  0  0
   24.6673    4.4945   11.0120 C   0  0  0  0  0  0  0  0  0  0  0  0
   24.7680    4.0042    9.6795 C   0  0  0  0  0  0  0  0  0  0  0  0
   25.8876    4.5125    8.9897 C   0  0  0  0  0  0  0  0  0  0  0  0
   26.2441    4.0075    7.3675 Cl  0  0  0  0  0  0  0  0  0  0  0  0
   23.9171    2.5654    9.1796 S   0  0  2  0  0  0  0  0  0  0  0  0
   22.7149    2.2339   10.0789 O   0  0  0  0  0  0  0  0  0  0  0  0
   24.7730    1.2922    9.2851 O   0  0  0  0  0  0  0  0  0  0  0  0
   23.2724    2.5441    7.5362 N   0  0  0  0  0  0  0  0  0  0  0  0
   27.3182    8.1164    8.7877 H   0  0  0  0  0  0  0  0  0  0  0  0
   27.4517   10.4911    7.9343 H   0  0  0  0  0  0  0  0  0  0  0  0
   28.0631   12.2877    9.5902 H   0  0  0  0  0  0  0  0  0  0  0  0
   28.2527   11.7363   11.9550 H   0  0  0  0  0  0  0  0  0  0  0  0
   28.3639    9.3539   12.7712 H   0  0  0  0  0  0  0  0  0  0  0  0
   27.6661    5.8262    8.9075 H   0  0  0  0  0  0  0  0  0  0  0  0
   23.6152    5.2808   15.4491 H   0  0  0  0  0  0  0  0  0  0  0  0
   22.8534    6.3772   14.2474 H   0  0  0  0  0  0  0  0  0  0  0  0
   22.4515    4.6264   14.2474 H   0  0  0  0  0  0  0  0  0  0  0  0
   23.9274    4.0172   11.6714 H   0  0  0  0  0  0  0  0  0  0  0  0
   22.2436    2.5101    7.5714 H   0  0  0  0  0  0  0  0  0  0  0  0
   23.5710    3.3954    7.0392 H   0  0  0  0  0  0  0  0  0  0  0  0
  1  2  2  0
  2  3  2  0
  2  4  1  6
  2 10  1  0
  4  5  2  0
  4  9  1  0
  5  6  1  0
  6  7  2  0
  7  8  1  0
  8  9  2  0
 10 11  2  0
 10 12  1  0
 11 19  1  0
 12 13  1  0
 12 17  2  0
 13 14  1  0
 13 16  2  0
 14 15  1  0
 17 18  1  0
 18 19  2  0
 18 21  1  0
 19 20  1  0
 21 22  2  0
 21 23  2  0
 21 24  1  6
  5 25  1  0
  6 26  1  0
  7 27  1  0
  8 28  1  0
  9 29  1  0
 11 30  1  0
 15 31  1  0
 15 32  1  0
 15 33  1  0
 17 34  1  0
 24 35  1  0
 24 36  1  0
M  END
>  <filename_input>  (23) 
7PUV_84Z_docked.sdf

>  <pdb_id>  (23) 
7PUV_84Z

>  <pose_rank>  (23) 
22

>  <num_atoms_heavy>  (23) 
24

>  <num_torsions>  (23) 
5

>  <pose>  (23) 
[26.55679100918867, 5.911815668171328, 10.786337238500613, 0.20088197107117295, 0.016143192855359673, 0.027847549634859737, 2.427210856395011, -0.3623264518356216, -2.549986406147382, 2.790704002288917, 0.5961677429862902]

>  <energy>  (23) 
-930.9475963201367

>  <inter_energy>  (23) 
-1010.4391200072764

>  <intra_energy>  (23) 
73.01800084961597

>  <rmsd>  (23) 
1.46259

>  <sdf_rank>  (23) 
0

$$$$

     RDKit          3D

 36 37  0  0  0  0  0  0  0  0999 V2000
   27.5679    7.6235   12.4781 O   0  0  0  0  0  0  0  0  0  0  0  0
   27.7028    7.4981   11.0110 S   0  0  2  0  0  0  0  0  0  0  0  0
   28.9877    7.0098   10.5034 O   0  0  0  0  0  0  0  0  0  0  0  0
   27.4535    9.1042   10.4451 C   0  0  0  0  0  0  0  0  0  0  0  0
   28.3419    9.8170    9.6430 C   0  0  0  0  0  0  0  0  0  0  0  0
   28.1174   11.1642    9.2494 C   0  0  0  0  0  0  0  0  0  0  0  0
   26.9460   11.7527    9.7055 C   0  0  0  0  0  0  0  0  0  0  0  0
   26.0572   11.0219   10.4402 C   0  0  0  0  0  0  0  0  0  0  0  0
   26.3062    9.7001   10.8981 C   0  0  0  0  0  0  0  0  0  0  0  0
   26.4454    6.3179   10.5274 C   0  0  0  0  0  0  0  0  0  0  0  0
   26.7081    5.6252    9.3538 C   0  0  0  0  0  0  0  0  0  0  0  0
   25.3057    6.1276   11.3300 C   0  0  0  0  0  0  0  0  0  0  0  0
   24.8015    6.9283   12.4928 C   0  0  0  0  0  0  0  0  0  0  0  0
   25.1535    6.3278   13.6470 O   0  0  0  0  0  0  0  0  0  0  0  0
   24.9495    6.8727   14.8976 C   0  0  0  0  0  0  0  0  0  0  0  0
   24.3712    8.0036   12.5377 O   0  0  0  0  0  0  0  0  0  0  0  0
   24.5177    5.0119   10.9837 C   0  0  0  0  0  0  0  0  0  0  0  0
   24.6277    4.2706    9.7735 C   0  0  0  0  0  0  0  0  0  0  0  0
   25.7706    4.6116    9.0218 C   0  0  0  0  0  0  0  0  0  0  0  0
   26.1406    3.7943    7.5356 Cl  0  0  0  0  0  0  0  0  0  0  0  0
   23.7493    2.7807    9.5438 S   0  0  2  0  0  0  0  0  0  0  0  0
   22.8955    2.7762    8.2651 O   0  0  0  0  0  0  0  0  0  0  0  0
   22.7051    2.5217   10.6424 O   0  0  0  0  0  0  0  0  0  0  0  0
   24.6981    1.2942    9.4598 N   0  0  0  0  0  0  0  0  0  0  0  0
   29.2580    9.3147    9.2988 H   0  0  0  0  0  0  0  0  0  0  0  0
   28.8331   11.7108    8.6177 H   0  0  0  0  0  0  0  0  0  0  0  0
   26.7340   12.8072    9.4752 H   0  0  0  0  0  0  0  0  0  0  0  0
   25.0912   11.4837   10.6925 H   0  0  0  0  0  0  0  0  0  0  0  0
   25.6148    9.1830   11.5797 H   0  0  0  0  0  0  0  0  0  0  0  0
   27.5825    5.8461    8.7240 H   0  0  0  0  0  0  0  0  0  0  0  0
   25.2249    6.1369   15.6675 H   0  0  0  0  0  0  0  0  0  0  0  0
   25.5716    7.7728   15.0114 H   0  0  0  0  0  0  0  0  0  0  0  0
   23.8893    7.1430   15.0114 H   0  0  0  0  0  0  0  0  0  0  0  0
   23.7556    4.6873   11.7075 H   0  0  0  0  0  0  0  0  0  0  0  0
   24.9074    0.9661   10.4134 H   0  0  0  0  0  0  0  0  0  0  0  0
   24.1612    0.5721    8.9584 H   0  0  0  0  0  0  0  0  0  0  0  0
  1  2  2  0
  2  3  2  0
  2  4  1  6
  2 10  1  0
  4  5  2  0
  4  9  1  0
  5  6  1  0
  6  7  2  0
  7  8  1  0
  8  9  2  0
 10 11  2  0
 10 12  1  0
 11 19  1  0
 12 13  1  0
 12 17  2  0
 13 14  1  0
 13 16  2  0
 14 15  1  0
 17 18  1  0
 18 19  2  0
 18 21  1  0
 19 20  1  0
 21 22  2  0
 21 23  2  0
 21 24  1  6
  5 25  1  0
  6 26  1  0
  7 27  1  0
  8 28  1  0
  9 29  1  0
 11 30  1  0
 15 31  1  0
 15 32  1  0
 15 33  1  0
 17 34  1  0
 24 35  1  0
 24 36  1  0
M  END
>  <filename_input>  (24) 
7PUV_84Z_docked.sdf

>  <pdb_id>  (24) 
7PUV_84Z

>  <pose_rank>  (24) 
23

>  <num_atoms_heavy>  (24) 
24

>  <num_torsions>  (24) 
5

>  <pose>  (24) 
[26.445410871189925, 6.317905954978264, 10.527394003292903, 4.747537464539219, -1.6088630002086821, 3.801391068529836, 4.247688144467795, -0.03449705829129233, -4.001789140521271, -2.591524658080012, -0.03403802840843164]

>  <energy>  (24) 
-985.8459133066265

>  <inter_energy>  (24) 
-1021.2163680173035

>  <intra_energy>  (24) 
34.85985378371862

>  <rmsd>  (24) 
1.23733

>  <sdf_rank>  (24) 
0

$$$$

     RDKit          3D

 36 37  0  0  0  0  0  0  0  0999 V2000
   29.0091    7.5744    9.0343 O   0  0  0  0  0  0  0  0  0  0  0  0
   27.9413    7.9631    9.9803 S   0  0  2  0  0  0  0  0  0  0  0  0
   27.3187    9.2735    9.7743 O   0  0  0  0  0  0  0  0  0  0  0  0
   28.7346    7.9563   11.5076 C   0  0  0  0  0  0  0  0  0  0  0  0
   28.6460    8.9693   12.4598 C   0  0  0  0  0  0  0  0  0  0  0  0
   29.3680    8.9444   13.6839 C   0  0  0  0  0  0  0  0  0  0  0  0
   30.1814    7.8403   13.8976 C   0  0  0  0  0  0  0  0  0  0  0  0
   30.2107    6.8278   12.9823 C   0  0  0  0  0  0  0  0  0  0  0  0
   29.5497    6.8771   11.7255 C   0  0  0  0  0  0  0  0  0  0  0  0
   26.6672    6.7205    9.7799 C   0  0  0  0  0  0  0  0  0  0  0  0
   26.8132    5.9010    8.6693 C   0  0  0  0  0  0  0  0  0  0  0  0
   25.6301    6.6099   10.7242 C   0  0  0  0  0  0  0  0  0  0  0  0
   25.2402    7.5325   11.8396 C   0  0  0  0  0  0  0  0  0  0  0  0
   24.7950    6.8153   12.8903 O   0  0  0  0  0  0  0  0  0  0  0  0
   24.8585    7.2398   14.2012 C   0  0  0  0  0  0  0  0  0  0  0  0
   25.4459    8.6633   11.9894 O   0  0  0  0  0  0  0  0  0  0  0  0
   24.8361    5.4526   10.5983 C   0  0  0  0  0  0  0  0  0  0  0  0
   24.8276    4.5789    9.4745 C   0  0  0  0  0  0  0  0  0  0  0  0
   25.8698    4.8450    8.5632 C   0  0  0  0  0  0  0  0  0  0  0  0
   26.0903    3.8672    7.1458 Cl  0  0  0  0  0  0  0  0  0  0  0  0
   23.9662    3.0622    9.5161 S   0  0  2  0  0  0  0  0  0  0  0  0
   24.8968    1.8396    9.4606 O   0  0  0  0  0  0  0  0  0  0  0  0
   23.0625    2.8489    8.2903 O   0  0  0  0  0  0  0  0  0  0  0  0
   22.9194    2.7713   10.9078 N   0  0  0  0  0  0  0  0  0  0  0  0
   27.9880    9.8268   12.2552 H   0  0  0  0  0  0  0  0  0  0  0  0
   29.2866    9.7561   14.4219 H   0  0  0  0  0  0  0  0  0  0  0  0
   30.8021    7.7810   14.8038 H   0  0  0  0  0  0  0  0  0  0  0  0
   30.7796    5.9202   13.2325 H   0  0  0  0  0  0  0  0  0  0  0  0
   29.6852    6.0910   10.9681 H   0  0  0  0  0  0  0  0  0  0  0  0
   27.6054    6.0586    7.9226 H   0  0  0  0  0  0  0  0  0  0  0  0
   24.7295    6.3780   14.8724 H   0  0  0  0  0  0  0  0  0  0  0  0
   25.8366    7.7070   14.3883 H   0  0  0  0  0  0  0  0  0  0  0  0
   24.0602    7.9730   14.3883 H   0  0  0  0  0  0  0  0  0  0  0  0
   24.1686    5.2041   11.4365 H   0  0  0  0  0  0  0  0  0  0  0  0
   23.4534    2.9197   11.7760 H   0  0  0  0  0  0  0  0  0  0  0  0
   22.1220    3.4226   10.8797 H   0  0  0  0  0  0  0  0  0  0  0  0
  1  2  2  0
  2  3  2  0
  2  4  1  1
  2 10  1  0
  4  5  2  0
  4  9  1  0
  5  6  1  0
  6  7  2  0
  7  8  1  0
  8  9  2  0
 10 11  2  0
 10 12  1  0
 11 19  1  0
 12 13  1  0
 12 17  2  0
 13 14  1  0
 13 16  2  0
 14 15  1  0
 17 18  1  0
 18 19  2  0
 18 21  1  0
 19 20  1  0
 21 22  2  0
 21 23  2  0
 21 24  1  1
  5 25  1  0
  6 26  1  0
  7 27  1  0
  8 28  1  0
  9 29  1  0
 11 30  1  0
 15 31  1  0
 15 32  1  0
 15 33  1  0
 17 34  1  0
 24 35  1  0
 24 36  1  0
M  END
>  <filename_input>  (25) 
7PUV_84Z_docked.sdf

>  <pdb_id>  (25) 
7PUV_84Z

>  <pose_rank>  (25) 
24

>  <num_atoms_heavy>  (25) 
24

>  <num_torsions>  (25) 
5

>  <pose>  (25) 
[26.667152022243897, 6.72047229321903, 9.779905225433028, 4.1939969739462715, -4.374400443941423, -0.8944118529021262, 0.07227264516136975, 2.4401775288505303, 2.4235911993054544, 2.8972926311243223, -0.3942872706064235]

>  <energy>  (25) 
-892.9936802904085

>  <inter_energy>  (25) 
-914.0893515973081

>  <intra_energy>  (25) 
20.744129634661203

>  <rmsd>  (25) 
2.61987

>  <sdf_rank>  (25) 
0

$$$$

     RDKit          3D

 36 37  0  0  0  0  0  0  0  0999 V2000
   27.5690    7.3830   12.7280 O   0  0  0  0  0  0  0  0  0  0  0  0
   27.6680    7.2850   11.2560 S   0  0  2  0  0  0  0  0  0  0  0  0
   28.9420    6.8120   10.7080 O   0  0  0  0  0  0  0  0  0  0  0  0
   27.3980    8.9000   10.7260 C   0  0  0  0  0  0  0  0  0  0  0  0
   27.0320    9.9620   11.5500 C   0  0  0  0  0  0  0  0  0  0  0  0
   26.7630   11.2670   11.0550 C   0  0  0  0  0  0  0  0  0  0  0  0
   26.8870   11.4440    9.6840 C   0  0  0  0  0  0  0  0  0  0  0  0
   27.3050   10.4090    8.8980 C   0  0  0  0  0  0  0  0  0  0  0  0
   27.5060    9.0850    9.3730 C   0  0  0  0  0  0  0  0  0  0  0  0
   26.4040    6.1080   10.7820 C   0  0  0  0  0  0  0  0  0  0  0  0
   26.6610    5.4070    9.6120 C   0  0  0  0  0  0  0  0  0  0  0  0
   25.2650    5.9280   11.5880 C   0  0  0  0  0  0  0  0  0  0  0  0
   24.7670    6.7380   12.7470 C   0  0  0  0  0  0  0  0  0  0  0  0
   24.7540    8.0450   12.4180 O   0  0  0  0  0  0  0  0  0  0  0  0
   24.2690    9.0450   13.2350 C   0  0  0  0  0  0  0  0  0  0  0  0
   24.2410    6.4090   13.7260 O   0  0  0  0  0  0  0  0  0  0  0  0
   24.4710    4.8140   11.2500 C   0  0  0  0  0  0  0  0  0  0  0  0
   24.5750    4.0650   10.0440 C   0  0  0  0  0  0  0  0  0  0  0  0
   25.7180    4.3960    9.2880 C   0  0  0  0  0  0  0  0  0  0  0  0
   26.0810    3.5680    7.8060 Cl  0  0  0  0  0  0  0  0  0  0  0  0
   23.6890    2.5780    9.8250 S   0  0  2  0  0  0  0  0  0  0  0  0
   24.6020    1.3550    9.6390 O   0  0  0  0  0  0  0  0  0  0  0  0
   22.8460    2.5630    8.5390 O   0  0  0  0  0  0  0  0  0  0  0  0
   22.5680    2.1150   11.1080 N   0  0  0  0  0  0  0  0  0  0  0  0
   26.9474    9.7826   12.6320 H   0  0  0  0  0  0  0  0  0  0  0  0
   26.4723   12.0918   11.7223 H   0  0  0  0  0  0  0  0  0  0  0  0
   26.6486   12.4176    9.2310 H   0  0  0  0  0  0  0  0  0  0  0  0
   27.4976   10.6120    7.8342 H   0  0  0  0  0  0  0  0  0  0  0  0
   27.7360    8.2532    8.6909 H   0  0  0  0  0  0  0  0  0  0  0  0
   27.5352    5.6200    8.9792 H   0  0  0  0  0  0  0  0  0  0  0  0
   24.4081    8.7581   14.2878 H   0  0  0  0  0  0  0  0  0  0  0  0
   24.8142    9.9791   13.0344 H   0  0  0  0  0  0  0  0  0  0  0  0
   23.1979    9.1952   13.0344 H   0  0  0  0  0  0  0  0  0  0  0  0
   23.7088    4.4974   11.9773 H   0  0  0  0  0  0  0  0  0  0  0  0
   23.0023    2.2944   12.0246 H   0  0  0  0  0  0  0  0  0  0  0  0
   21.7028    2.6676   11.0239 H   0  0  0  0  0  0  0  0  0  0  0  0
  1  2  2  0
  2  3  2  0
  2  4  1  6
  2 10  1  0
  4  5  2  0
  4  9  1  0
  5  6  1  0
  6  7  2  0
  7  8  1  0
  8  9  2  0
 10 11  2  0
 10 12  1  0
 11 19  1  0
 12 13  1  0
 12 17  2  0
 13 14  1  0
 13 16  2  0
 14 15  1  0
 17 18  1  0
 18 19  2  0
 18 21  1  0
 19 20  1  0
 21 22  2  0
 21 23  2  0
 21 24  1  1
  5 25  1  0
  6 26  1  0
  7 27  1  0
  8 28  1  0
  9 29  1  0
 11 30  1  0
 15 31  1  0
 15 32  1  0
 15 33  1  0
 17 34  1  0
 24 35  1  0
 24 36  1  0
M  END
>  <filename_input>  (26) 
7PUV_84Z_docked.sdf

>  <pdb_id>  (26) 
7PUV_84Z

>  <pose_rank>  (26) 
25

>  <num_atoms_heavy>  (26) 
24

>  <num_torsions>  (26) 
5

>  <pose>  (26) 
[26.404, 6.108, 10.782, 1e-06, 1e-06, 1e-06, 0.0, 0.0, 0.0, 0.0, 0.0]

>  <energy>  (26) 
-1124.831976962601

>  <inter_energy>  (26) 
-1180.1161844819449

>  <intra_energy>  (26) 
48.673382308904344

>  <rmsd>  (26) 
0.0

>  <sdf_rank>  (26) 
0

$$$$
