
     RDKit          3D

 64 65  0  0  0  0  0  0  0  0999 V2000
  -54.0977   97.5789   19.9408 C   0  0  0  0  0  0  0  0  0  0  0  0
  -53.3634   95.1982   20.4137 C   0  0  0  0  0  0  0  0  0  0  0  0
  -54.2682   96.4070   20.6486 C   0  0  0  0  0  0  0  0  0  0  0  0
  -54.9411   98.6719   20.1655 C   0  0  0  0  0  0  0  0  0  0  0  0
  -55.9439   98.5398   21.1049 C   0  0  0  0  0  0  0  0  0  0  0  0
  -56.0995   97.3873   21.8315 C   0  0  0  0  0  0  0  0  0  0  0  0
  -55.2777   96.3070   21.5976 C   0  0  0  0  0  0  0  0  0  0  0  0
  -50.8250   93.9740   26.2895 C   0  0  2  0  0  0  0  0  0  0  0  0
  -51.9452   93.7019   27.2037 C   0  0  0  0  0  0  0  0  0  0  0  0
  -49.5179   93.5304   26.9490 C   0  0  0  0  0  0  0  0  0  0  0  0
  -51.3462   99.5357   23.1850 C   0  0  0  0  0  0  0  0  0  0  0  0
  -52.7439   99.3987   23.7995 C   0  0  0  0  0  0  0  0  0  0  0  0
  -52.9926   98.0477   24.4354 C   0  0  0  0  0  0  0  0  0  0  0  0
  -51.7145   97.3932   24.9731 C   0  0  0  0  0  0  0  0  0  0  0  0
  -51.7676   95.8636   25.0742 C   0  0  1  0  0  0  0  0  0  0  0  0
  -51.5677   95.2339   23.7184 C   0  0  0  0  0  0  0  0  0  0  0  0
  -52.1669   95.0729   21.3155 C   0  0  1  0  0  0  0  0  0  0  0  0
  -50.9779   95.7707   20.6718 C   0  0  0  0  0  0  0  0  0  0  0  0
  -49.2639   92.0567   26.7066 C   0  0  0  0  0  0  0  0  0  0  0  0
  -48.5402   91.3389   27.8584 C   0  0  0  0  0  0  0  0  0  0  0  0
  -47.4937   91.9907   28.4798 C   0  0  0  0  0  0  0  0  0  0  0  0
  -46.8405   91.3576   29.5386 C   0  0  0  0  0  0  0  0  0  0  0  0
  -47.2297   90.0943   29.9259 C   0  0  0  0  0  0  0  0  0  0  0  0
  -48.2696   89.4380   29.3051 C   0  0  0  0  0  0  0  0  0  0  0  0
  -48.9280   90.0679   28.2619 C   0  0  0  0  0  0  0  0  0  0  0  0
  -52.3903   95.6440   22.6375 N   0  0  0  0  0  0  0  0  0  0  0  0
  -50.7185   95.4221   26.0134 N   0  0  0  0  0  0  0  0  0  0  0  0
  -50.3248   96.6692   21.3061 O   0  0  0  0  0  0  0  0  0  0  0  0
  -50.6787   95.4867   19.5014 O   0  0  0  0  0  0  0  0  0  0  0  0
  -56.8109   99.6252   21.3566 O   0  0  0  0  0  0  0  0  0  0  0  0
  -50.7290   94.3793   23.5258 O   0  0  0  0  0  0  0  0  0  0  0  0
  -52.2334   94.2808   28.3823 O   0  0  0  0  0  0  0  0  0  0  0  0
  -52.7756   92.7041   27.0659 O   0  0  0  0  0  0  0  0  0  0  0  0
  -53.2929   97.6542   19.1947 H   0  0  0  0  0  0  0  0  0  0  0  0
  -53.9748   94.2927   20.5412 H   0  0  0  0  0  0  0  0  0  0  0  0
  -52.9535   95.3326   19.4018 H   0  0  0  0  0  0  0  0  0  0  0  0
  -54.8088   99.6112   19.6086 H   0  0  0  0  0  0  0  0  0  0  0  0
  -56.8818   97.3254   22.6023 H   0  0  0  0  0  0  0  0  0  0  0  0
  -55.4198   95.3715   22.1585 H   0  0  0  0  0  0  0  0  0  0  0  0
  -51.0038   93.4273   25.3519 H   0  0  0  0  0  0  0  0  0  0  0  0
  -48.6858   94.1135   26.5277 H   0  0  0  0  0  0  0  0  0  0  0  0
  -49.5955   93.7003   28.0330 H   0  0  0  0  0  0  0  0  0  0  0  0
  -50.5981   99.6091   23.9881 H   0  0  0  0  0  0  0  0  0  0  0  0
  -51.1311   98.6544   22.5630 H   0  0  0  0  0  0  0  0  0  0  0  0
  -51.3064  100.4421   22.5630 H   0  0  0  0  0  0  0  0  0  0  0  0
  -52.8630  100.1741   24.5706 H   0  0  0  0  0  0  0  0  0  0  0  0
  -53.4703   99.5104   22.9810 H   0  0  0  0  0  0  0  0  0  0  0  0
  -53.6974   98.1776   25.2699 H   0  0  0  0  0  0  0  0  0  0  0  0
  -53.3970   97.3865   23.6549 H   0  0  0  0  0  0  0  0  0  0  0  0
  -50.8844   97.6632   24.3038 H   0  0  0  0  0  0  0  0  0  0  0  0
  -51.5842   97.7666   25.9995 H   0  0  0  0  0  0  0  0  0  0  0  0
  -52.7546   95.5482   25.4433 H   0  0  0  0  0  0  0  0  0  0  0  0
  -51.9740   93.9981   21.4487 H   0  0  0  0  0  0  0  0  0  0  0  0
  -50.2336   91.5620   26.5481 H   0  0  0  0  0  0  0  0  0  0  0  0
  -48.6015   91.9922   25.8308 H   0  0  0  0  0  0  0  0  0  0  0  0
  -47.1802   92.9910   28.1465 H   0  0  0  0  0  0  0  0  0  0  0  0
  -46.0175   91.8661   30.0621 H   0  0  0  0  0  0  0  0  0  0  0  0
  -46.6974   89.5977   30.7506 H   0  0  0  0  0  0  0  0  0  0  0  0
  -48.5716   88.4320   29.6319 H   0  0  0  0  0  0  0  0  0  0  0  0
  -49.7599   89.5602   27.7518 H   0  0  0  0  0  0  0  0  0  0  0  0
  -53.1371   96.3378   22.7855 H   0  0  0  0  0  0  0  0  0  0  0  0
  -50.8186   95.9412   26.8974 H   0  0  0  0  0  0  0  0  0  0  0  0
  -49.7994   95.6066   25.5867 H   0  0  0  0  0  0  0  0  0  0  0  0
  -57.5321   99.5370   22.0290 H   0  0  0  0  0  0  0  0  0  0  0  0
  1  3  2  0
  1  4  1  0
  2  3  1  0
 17  2  1  0
  3  7  1  0
  4  5  2  0
  5  6  1  0
  5 30  1  0
  6  7  2  0
  8  9  1  0
  8 10  1  0
  8 27  1  0
  9 32  2  0
  9 33  1  0
 10 19  1  0
 11 12  1  0
 12 13  1  0
 13 14  1  0
 15 14  1  0
 15 16  1  0
 15 27  1  0
 16 26  1  0
 16 31  2  0
 17 18  1  0
 17 26  1  0
 18 28  2  0
 18 29  1  0
 19 20  1  0
 20 21  2  0
 20 25  1  0
 21 22  1  0
 22 23  2  0
 23 24  1  0
 24 25  2  0
  1 34  1  0
  2 35  1  0
  2 36  1  0
  4 37  1  0
  6 38  1  0
  7 39  1  0
  8 40  1  6
 10 41  1  0
 10 42  1  0
 11 43  1  0
 11 44  1  0
 11 45  1  0
 12 46  1  0
 12 47  1  0
 13 48  1  0
 13 49  1  0
 14 50  1  0
 14 51  1  0
 15 52  1  1
 17 53  1  1
 19 54  1  0
 19 55  1  0
 21 56  1  0
 22 57  1  0
 23 58  1  0
 24 59  1  0
 25 60  1  0
 26 61  1  0
 27 62  1  0
 27 63  1  0
 30 64  1  0
M  CHG  3  27   1  29  -1  33  -1
M  END
>  <filename_input>  (1) 
7Q25_8J9_docked.sdf

>  <pdb_id>  (1) 
7Q25_8J9

>  <pose_rank>  (1) 
0

>  <num_atoms_heavy>  (1) 
33

>  <num_torsions>  (1) 
14

>  <pose>  (1) 
[-51.76756474907299, 95.8636001294942, 25.07417221214267, 0.5916236788543103, -0.9547038020739191, -5.958192318641035, 0.6804827622049732, -0.30091836228676544, -5.770394307183808, 6.198680650726624, 0.0780810906019369, 0.30944880592430213, 15.026879601099502, 3.869527905720059, 18.8771602940327, -19.139410688586803, 9.524665018587193, 12.694088892743336, 13.263951719197983, 2.7880240756512804]

>  <energy>  (1) 
-1045.8135930068136

>  <inter_energy>  (1) 
-1104.3346171583382

>  <intra_energy>  (1) 
56.18054496310429

>  <rmsd>  (1) 
0.830037

>  <sdf_rank>  (1) 
0

$$$$

     RDKit          3D

 64 65  0  0  0  0  0  0  0  0999 V2000
  -48.0940   92.7251   28.4533 C   0  0  0  0  0  0  0  0  0  0  0  0
  -49.7745   93.8921   26.9551 C   0  0  0  0  0  0  0  0  0  0  0  0
  -49.1710   92.6425   27.5950 C   0  0  0  0  0  0  0  0  0  0  0  0
  -47.5605   91.5701   29.0345 C   0  0  0  0  0  0  0  0  0  0  0  0
  -48.1442   90.3569   28.7294 C   0  0  0  0  0  0  0  0  0  0  0  0
  -49.1964   90.2664   27.8547 C   0  0  0  0  0  0  0  0  0  0  0  0
  -49.7299   91.4065   27.2957 C   0  0  0  0  0  0  0  0  0  0  0  0
  -53.2072   95.9203   21.7612 C   0  0  2  0  0  0  0  0  0  0  0  0
  -52.2081   96.7624   21.0848 C   0  0  0  0  0  0  0  0  0  0  0  0
  -54.5994   96.2654   21.2293 C   0  0  0  0  0  0  0  0  0  0  0  0
  -52.6586  100.1770   23.8425 C   0  0  0  0  0  0  0  0  0  0  0  0
  -51.1655   99.8606   23.6993 C   0  0  0  0  0  0  0  0  0  0  0  0
  -50.7345   98.6286   24.4662 C   0  0  0  0  0  0  0  0  0  0  0  0
  -51.8704   97.6185   24.6663 C   0  0  0  0  0  0  0  0  0  0  0  0
  -51.8381   96.4160   23.7146 C   0  0  1  0  0  0  0  0  0  0  0  0
  -51.3097   95.1928   24.4212 C   0  0  0  0  0  0  0  0  0  0  0  0
  -51.1858   93.7706   26.4512 C   0  0  1  0  0  0  0  0  0  0  0  0
  -52.1114   93.4651   27.6196 C   0  0  0  0  0  0  0  0  0  0  0  0
  -55.5194   96.6855   22.3572 C   0  0  0  0  0  0  0  0  0  0  0  0
  -56.0414   98.1281   22.2473 C   0  0  0  0  0  0  0  0  0  0  0  0
  -56.6961   98.5000   21.0900 C   0  0  0  0  0  0  0  0  0  0  0  0
  -57.1907   99.8010   20.9852 C   0  0  0  0  0  0  0  0  0  0  0  0
  -56.9970  100.6923   22.0175 C   0  0  0  0  0  0  0  0  0  0  0  0
  -56.3395  100.3274   23.1716 C   0  0  0  0  0  0  0  0  0  0  0  0
  -55.8577   99.0336   23.2842 C   0  0  0  0  0  0  0  0  0  0  0  0
  -51.6547   94.9763   25.7804 N   0  0  0  0  0  0  0  0  0  0  0  0
  -53.2067   96.1792   23.2164 N   0  0  0  0  0  0  0  0  0  0  0  0
  -51.8999   93.9769   28.7727 O   0  0  0  0  0  0  0  0  0  0  0  0
  -53.0511   92.6731   27.4477 O   0  0  0  0  0  0  0  0  0  0  0  0
  -47.6282   89.1722   29.2981 O   0  0  0  0  0  0  0  0  0  0  0  0
  -50.5899   94.3914   23.8640 O   0  0  0  0  0  0  0  0  0  0  0  0
  -52.3044   98.0489   20.7070 O   0  0  0  0  0  0  0  0  0  0  0  0
  -51.0847   96.3133   20.5945 O   0  0  0  0  0  0  0  0  0  0  0  0
  -47.6518   93.7059   28.6821 H   0  0  0  0  0  0  0  0  0  0  0  0
  -49.7555   94.6952   27.7066 H   0  0  0  0  0  0  0  0  0  0  0  0
  -49.1617   94.0882   26.0629 H   0  0  0  0  0  0  0  0  0  0  0  0
  -46.6990   91.6270   29.7162 H   0  0  0  0  0  0  0  0  0  0  0  0
  -49.6149   89.2818   27.5990 H   0  0  0  0  0  0  0  0  0  0  0  0
  -50.5928   91.3388   26.6168 H   0  0  0  0  0  0  0  0  0  0  0  0
  -52.9573   94.8664   21.5694 H   0  0  0  0  0  0  0  0  0  0  0  0
  -54.5148   97.0907   20.5070 H   0  0  0  0  0  0  0  0  0  0  0  0
  -55.0220   95.3729   20.7446 H   0  0  0  0  0  0  0  0  0  0  0  0
  -52.9209  100.2326   24.9093 H   0  0  0  0  0  0  0  0  0  0  0  0
  -52.8769  101.1414   23.3605 H   0  0  0  0  0  0  0  0  0  0  0  0
  -53.2493   99.3841   23.3605 H   0  0  0  0  0  0  0  0  0  0  0  0
  -50.9433   99.7031   22.6335 H   0  0  0  0  0  0  0  0  0  0  0  0
  -50.6117  100.7136   24.1184 H   0  0  0  0  0  0  0  0  0  0  0  0
  -49.9220   98.1369   23.9112 H   0  0  0  0  0  0  0  0  0  0  0  0
  -50.4094   98.9595   25.4637 H   0  0  0  0  0  0  0  0  0  0  0  0
  -51.8139   97.2401   25.6976 H   0  0  0  0  0  0  0  0  0  0  0  0
  -52.8050   98.1575   24.4518 H   0  0  0  0  0  0  0  0  0  0  0  0
  -51.1656   96.6267   22.8700 H   0  0  0  0  0  0  0  0  0  0  0  0
  -51.1956   92.9565   25.7115 H   0  0  0  0  0  0  0  0  0  0  0  0
  -56.3846   96.0063   22.3666 H   0  0  0  0  0  0  0  0  0  0  0  0
  -54.9255   96.6360   23.2818 H   0  0  0  0  0  0  0  0  0  0  0  0
  -56.8255   97.7837   20.2653 H   0  0  0  0  0  0  0  0  0  0  0  0
  -57.7336  100.1136   20.0810 H   0  0  0  0  0  0  0  0  0  0  0  0
  -57.3763  101.7200   21.9178 H   0  0  0  0  0  0  0  0  0  0  0  0
  -56.1996  101.0502   23.9889 H   0  0  0  0  0  0  0  0  0  0  0  0
  -55.3283   98.7226   24.1969 H   0  0  0  0  0  0  0  0  0  0  0  0
  -52.2303   95.6638   26.2874 H   0  0  0  0  0  0  0  0  0  0  0  0
  -53.7835   97.0103   23.4102 H   0  0  0  0  0  0  0  0  0  0  0  0
  -53.5902   95.3520   23.6955 H   0  0  0  0  0  0  0  0  0  0  0  0
  -48.0422   88.2990   29.0834 H   0  0  0  0  0  0  0  0  0  0  0  0
  1  3  2  0
  1  4  1  0
  2  3  1  0
 17  2  1  0
  3  7  1  0
  4  5  2  0
  5  6  1  0
  5 30  1  0
  6  7  2  0
  8  9  1  0
  8 10  1  0
  8 27  1  0
  9 32  2  0
  9 33  1  0
 10 19  1  0
 11 12  1  0
 12 13  1  0
 13 14  1  0
 15 14  1  0
 15 16  1  0
 15 27  1  0
 16 26  1  0
 16 31  2  0
 17 18  1  0
 17 26  1  0
 18 28  2  0
 18 29  1  0
 19 20  1  0
 20 21  2  0
 20 25  1  0
 21 22  1  0
 22 23  2  0
 23 24  1  0
 24 25  2  0
  1 34  1  0
  2 35  1  0
  2 36  1  0
  4 37  1  0
  6 38  1  0
  7 39  1  0
  8 40  1  1
 10 41  1  0
 10 42  1  0
 11 43  1  0
 11 44  1  0
 11 45  1  0
 12 46  1  0
 12 47  1  0
 13 48  1  0
 13 49  1  0
 14 50  1  0
 14 51  1  0
 15 52  1  6
 17 53  1  6
 19 54  1  0
 19 55  1  0
 21 56  1  0
 22 57  1  0
 23 58  1  0
 24 59  1  0
 25 60  1  0
 26 61  1  0
 27 62  1  0
 27 63  1  0
 30 64  1  0
M  CHG  3  27   1  29  -1  33  -1
M  END
>  <filename_input>  (2) 
7Q25_8J9_docked.sdf

>  <pdb_id>  (2) 
7Q25_8J9

>  <pose_rank>  (2) 
1

>  <num_atoms_heavy>  (2) 
33

>  <num_torsions>  (2) 
14

>  <pose>  (2) 
[-51.83808879106885, 96.41595739338297, 23.714636805362236, -0.026237799179264935, -2.4517866386538874, -0.6923144888054783, 2.2557386088144114, 4.634101272560258, -1.0616983348227196, 2.596160063440811, 1.9492748174303958, 0.7395331252909371, 0.658703293979448, -2.455347346120321, 11.948276880197342, -5.906778680635943, -3.577837406143782, 9.058557815384969, -0.9636702029096974, -1.8040120823920984]

>  <energy>  (2) 
-884.6975107190744

>  <inter_energy>  (2) 
-910.7923689402071

>  <intra_energy>  (2) 
29.541143698309284

>  <rmsd>  (2) 
9.30167

>  <sdf_rank>  (2) 
0

$$$$

     RDKit          3D

 64 65  0  0  0  0  0  0  0  0999 V2000
  -51.8094  100.2239   20.6194 C   0  0  0  0  0  0  0  0  0  0  0  0
  -51.5114   97.7066   20.5536 C   0  0  0  0  0  0  0  0  0  0  0  0
  -52.3123   98.9815   20.2924 C   0  0  0  0  0  0  0  0  0  0  0  0
  -52.5552  101.3797   20.3657 C   0  0  0  0  0  0  0  0  0  0  0  0
  -53.7963  101.2394   19.7779 C   0  0  0  0  0  0  0  0  0  0  0  0
  -54.3128  100.0051   19.4774 C   0  0  0  0  0  0  0  0  0  0  0  0
  -53.5702   98.8694   19.7138 C   0  0  0  0  0  0  0  0  0  0  0  0
  -51.0680   94.0023   25.7352 C   0  0  2  0  0  0  0  0  0  0  0  0
  -52.0391   93.9472   26.8391 C   0  0  0  0  0  0  0  0  0  0  0  0
  -49.7636   93.3373   26.1786 C   0  0  0  0  0  0  0  0  0  0  0  0
  -54.2677  100.3939   23.8669 C   0  0  0  0  0  0  0  0  0  0  0  0
  -53.0542   99.6217   24.3972 C   0  0  0  0  0  0  0  0  0  0  0  0
  -53.3409   98.1598   24.6660 C   0  0  0  0  0  0  0  0  0  0  0  0
  -52.1414   97.4125   25.2605 C   0  0  0  0  0  0  0  0  0  0  0  0
  -51.8788   96.0289   24.6528 C   0  0  1  0  0  0  0  0  0  0  0  0
  -51.5573   96.1456   23.1839 C   0  0  0  0  0  0  0  0  0  0  0  0
  -52.3072   96.4634   20.8397 C   0  0  1  0  0  0  0  0  0  0  0  0
  -51.5264   95.2471   20.3642 C   0  0  0  0  0  0  0  0  0  0  0  0
  -50.0428   92.0985   27.0045 C   0  0  0  0  0  0  0  0  0  0  0  0
  -48.8644   91.6399   27.8803 C   0  0  0  0  0  0  0  0  0  0  0  0
  -48.7505   90.2950   28.1708 C   0  0  0  0  0  0  0  0  0  0  0  0
  -47.6753   89.8636   28.9494 C   0  0  0  0  0  0  0  0  0  0  0  0
  -46.7682   90.7809   29.4324 C   0  0  0  0  0  0  0  0  0  0  0  0
  -46.8811   92.1243   29.1498 C   0  0  0  0  0  0  0  0  0  0  0  0
  -47.9401   92.5548   28.3675 C   0  0  0  0  0  0  0  0  0  0  0  0
  -52.6178   96.3014   22.2542 N   0  0  0  0  0  0  0  0  0  0  0  0
  -50.7590   95.4042   25.3831 N   0  0  0  0  0  0  0  0  0  0  0  0
  -51.7869   94.0821   20.8236 O   0  0  0  0  0  0  0  0  0  0  0  0
  -50.5993   95.4095   19.5554 O   0  0  0  0  0  0  0  0  0  0  0  0
  -54.5749  102.3863   19.5105 O   0  0  0  0  0  0  0  0  0  0  0  0
  -50.4176   96.1015   22.7716 O   0  0  0  0  0  0  0  0  0  0  0  0
  -52.9933   93.0314   27.0797 O   0  0  0  0  0  0  0  0  0  0  0  0
  -52.2206   94.9098   27.7020 O   0  0  0  0  0  0  0  0  0  0  0  0
  -50.8152  100.3062   21.0827 H   0  0  0  0  0  0  0  0  0  0  0  0
  -50.8939   97.5113   19.6644 H   0  0  0  0  0  0  0  0  0  0  0  0
  -50.9388   97.9044   21.4717 H   0  0  0  0  0  0  0  0  0  0  0  0
  -52.1634  102.3736   20.6276 H   0  0  0  0  0  0  0  0  0  0  0  0
  -55.3216   99.9218   19.0470 H   0  0  0  0  0  0  0  0  0  0  0  0
  -53.9705   97.8804   19.4463 H   0  0  0  0  0  0  0  0  0  0  0  0
  -51.5030   93.4864   24.8665 H   0  0  0  0  0  0  0  0  0  0  0  0
  -49.1830   93.0536   25.2884 H   0  0  0  0  0  0  0  0  0  0  0  0
  -49.1969   94.0507   26.7950 H   0  0  0  0  0  0  0  0  0  0  0  0
  -54.8606  100.7712   24.7131 H   0  0  0  0  0  0  0  0  0  0  0  0
  -53.9244  101.2400   23.2535 H   0  0  0  0  0  0  0  0  0  0  0  0
  -54.8887   99.7246   23.2535 H   0  0  0  0  0  0  0  0  0  0  0  0
  -52.2469   99.6874   23.6530 H   0  0  0  0  0  0  0  0  0  0  0  0
  -52.7735  100.0789   25.3575 H   0  0  0  0  0  0  0  0  0  0  0  0
  -54.1814   98.0917   25.3724 H   0  0  0  0  0  0  0  0  0  0  0  0
  -53.5762   97.6882   23.7005 H   0  0  0  0  0  0  0  0  0  0  0  0
  -51.2438   98.0295   25.1070 H   0  0  0  0  0  0  0  0  0  0  0  0
  -52.3769   97.2445   26.3218 H   0  0  0  0  0  0  0  0  0  0  0  0
  -52.7791   95.4037   24.7459 H   0  0  0  0  0  0  0  0  0  0  0  0
  -53.2616   96.5598   20.3013 H   0  0  0  0  0  0  0  0  0  0  0  0
  -50.8988   92.3093   27.6624 H   0  0  0  0  0  0  0  0  0  0  0  0
  -50.2401   91.2840   26.2920 H   0  0  0  0  0  0  0  0  0  0  0  0
  -49.4938   89.5763   27.7955 H   0  0  0  0  0  0  0  0  0  0  0  0
  -47.5527   88.7943   29.1765 H   0  0  0  0  0  0  0  0  0  0  0  0
  -45.9339   90.4323   30.0588 H   0  0  0  0  0  0  0  0  0  0  0  0
  -46.1437   92.8422   29.5382 H   0  0  0  0  0  0  0  0  0  0  0  0
  -48.0492   93.6236   28.1317 H   0  0  0  0  0  0  0  0  0  0  0  0
  -53.5964   96.2999   22.5756 H   0  0  0  0  0  0  0  0  0  0  0  0
  -50.5824   95.9366   26.2469 H   0  0  0  0  0  0  0  0  0  0  0  0
  -49.9275   95.4127   24.7754 H   0  0  0  0  0  0  0  0  0  0  0  0
  -55.4659  102.2925   19.0891 H   0  0  0  0  0  0  0  0  0  0  0  0
  1  3  2  0
  1  4  1  0
  2  3  1  0
 17  2  1  0
  3  7  1  0
  4  5  2  0
  5  6  1  0
  5 30  1  0
  6  7  2  0
  8  9  1  0
  8 10  1  0
  8 27  1  0
  9 32  2  0
  9 33  1  0
 10 19  1  0
 11 12  1  0
 12 13  1  0
 13 14  1  0
 15 14  1  0
 15 16  1  0
 15 27  1  0
 16 26  1  0
 16 31  2  0
 17 18  1  0
 17 26  1  0
 18 28  2  0
 18 29  1  0
 19 20  1  0
 20 21  2  0
 20 25  1  0
 21 22  1  0
 22 23  2  0
 23 24  1  0
 24 25  2  0
  1 34  1  0
  2 35  1  0
  2 36  1  0
  4 37  1  0
  6 38  1  0
  7 39  1  0
  8 40  1  6
 10 41  1  0
 10 42  1  0
 11 43  1  0
 11 44  1  0
 11 45  1  0
 12 46  1  0
 12 47  1  0
 13 48  1  0
 13 49  1  0
 14 50  1  0
 14 51  1  0
 15 52  1  6
 17 53  1  6
 19 54  1  0
 19 55  1  0
 21 56  1  0
 22 57  1  0
 23 58  1  0
 24 59  1  0
 25 60  1  0
 26 61  1  0
 27 62  1  0
 27 63  1  0
 30 64  1  0
M  CHG  3  27   1  29  -1  33  -1
M  END
>  <filename_input>  (3) 
7Q25_8J9_docked.sdf

>  <pdb_id>  (3) 
7Q25_8J9

>  <pose_rank>  (3) 
2

>  <num_atoms_heavy>  (3) 
33

>  <num_torsions>  (3) 
14

>  <pose>  (3) 
[-51.878812343820286, 96.02887134451451, 24.65280471422624, -4.09591826509131, 0.6144081176617425, -3.8621376971148487, 6.491480081972106, 14.675529728204458, 1.100093063019326, 10.41751729618987, 7.340832514093788, 0.030514867727978394, -3.490680193252174, 0.2677455332785702, 5.628927035470077, -12.82865417867215, 0.4170771500639963, -25.802899912943456, -12.100732836328547, 0.8815628314613608]

>  <energy>  (3) 
-846.1067856009064

>  <inter_energy>  (3) 
-912.3135401025205

>  <intra_energy>  (3) 
62.65006289628971

>  <rmsd>  (3) 
2.15202

>  <sdf_rank>  (3) 
0

$$$$

     RDKit          3D

 64 65  0  0  0  0  0  0  0  0999 V2000
  -54.0883   97.9503   23.0897 C   0  0  0  0  0  0  0  0  0  0  0  0
  -51.7834   96.9004   22.9660 C   0  0  0  0  0  0  0  0  0  0  0  0
  -52.9359   97.7083   22.3709 C   0  0  0  0  0  0  0  0  0  0  0  0
  -55.1292   98.6983   22.5298 C   0  0  0  0  0  0  0  0  0  0  0  0
  -54.9657   99.1871   21.2492 C   0  0  0  0  0  0  0  0  0  0  0  0
  -53.8344   98.9251   20.5199 C   0  0  0  0  0  0  0  0  0  0  0  0
  -52.8044   98.2015   21.0789 C   0  0  0  0  0  0  0  0  0  0  0  0
  -50.1679   93.0708   27.9125 C   0  0  2  0  0  0  0  0  0  0  0  0
  -51.3815   93.6468   28.5127 C   0  0  0  0  0  0  0  0  0  0  0  0
  -49.1350   92.8160   29.0118 C   0  0  0  0  0  0  0  0  0  0  0  0
  -52.3431   90.1733   26.3742 C   0  0  0  0  0  0  0  0  0  0  0  0
  -50.9370   90.1134   26.9817 C   0  0  0  0  0  0  0  0  0  0  0  0
  -50.2234   91.4485   26.9816 C   0  0  0  0  0  0  0  0  0  0  0  0
  -50.0870   92.0559   25.5804 C   0  0  0  0  0  0  0  0  0  0  0  0
  -49.7839   93.5593   25.5567 C   0  0  1  0  0  0  0  0  0  0  0  0
  -50.9183   94.3204   24.9176 C   0  0  0  0  0  0  0  0  0  0  0  0
  -51.9238   95.4041   22.9243 C   0  0  1  0  0  0  0  0  0  0  0  0
  -52.0267   94.9497   21.4757 C   0  0  0  0  0  0  0  0  0  0  0  0
  -47.7810   92.4907   28.4153 C   0  0  0  0  0  0  0  0  0  0  0  0
  -47.2717   91.0740   28.7306 C   0  0  0  0  0  0  0  0  0  0  0  0
  -48.1777   90.0326   28.7030 C   0  0  0  0  0  0  0  0  0  0  0  0
  -47.7246   88.7395   28.9693 C   0  0  0  0  0  0  0  0  0  0  0  0
  -46.3988   88.5285   29.2778 C   0  0  0  0  0  0  0  0  0  0  0  0
  -45.4925   89.5653   29.3120 C   0  0  0  0  0  0  0  0  0  0  0  0
  -45.9360   90.8483   29.0366 C   0  0  0  0  0  0  0  0  0  0  0  0
  -50.8092   94.7115   23.5581 N   0  0  0  0  0  0  0  0  0  0  0  0
  -49.5685   94.0130   26.9442 N   0  0  0  0  0  0  0  0  0  0  0  0
  -51.1184   95.2550   20.6285 O   0  0  0  0  0  0  0  0  0  0  0  0
  -53.0312   94.3154   21.1172 O   0  0  0  0  0  0  0  0  0  0  0  0
  -55.9985   99.9441   20.6547 O   0  0  0  0  0  0  0  0  0  0  0  0
  -51.9195   94.6166   25.5346 O   0  0  0  0  0  0  0  0  0  0  0  0
  -52.3184   94.4243   27.9427 O   0  0  0  0  0  0  0  0  0  0  0  0
  -51.6556   93.6078   29.7885 O   0  0  0  0  0  0  0  0  0  0  0  0
  -54.1893   97.5523   24.1102 H   0  0  0  0  0  0  0  0  0  0  0  0
  -50.8691   97.1661   22.4151 H   0  0  0  0  0  0  0  0  0  0  0  0
  -51.7642   97.1622   24.0342 H   0  0  0  0  0  0  0  0  0  0  0  0
  -56.0531   98.8918   23.0947 H   0  0  0  0  0  0  0  0  0  0  0  0
  -53.7494   99.2933   19.4869 H   0  0  0  0  0  0  0  0  0  0  0  0
  -51.8838   98.0154   20.5062 H   0  0  0  0  0  0  0  0  0  0  0  0
  -50.4451   92.1367   27.4020 H   0  0  0  0  0  0  0  0  0  0  0  0
  -49.0460   93.7159   29.6381 H   0  0  0  0  0  0  0  0  0  0  0  0
  -49.4683   91.9593   29.6159 H   0  0  0  0  0  0  0  0  0  0  0  0
  -53.0901   90.2051   27.1810 H   0  0  0  0  0  0  0  0  0  0  0  0
  -52.4359   91.0762   25.7528 H   0  0  0  0  0  0  0  0  0  0  0  0
  -52.5124   89.2815   25.7528 H   0  0  0  0  0  0  0  0  0  0  0  0
  -51.0211   89.7634   28.0211 H   0  0  0  0  0  0  0  0  0  0  0  0
  -50.3434   89.4285   26.3584 H   0  0  0  0  0  0  0  0  0  0  0  0
  -50.7898   92.1486   27.6133 H   0  0  0  0  0  0  0  0  0  0  0  0
  -49.2070   91.2778   27.3661 H   0  0  0  0  0  0  0  0  0  0  0  0
  -49.2707   91.5341   25.0594 H   0  0  0  0  0  0  0  0  0  0  0  0
  -51.0647   91.9298   25.0923 H   0  0  0  0  0  0  0  0  0  0  0  0
  -48.8802   93.7481   24.9586 H   0  0  0  0  0  0  0  0  0  0  0  0
  -52.8337   95.1492   23.4875 H   0  0  0  0  0  0  0  0  0  0  0  0
  -47.8522   92.5956   27.3226 H   0  0  0  0  0  0  0  0  0  0  0  0
  -47.0625   93.1905   28.8672 H   0  0  0  0  0  0  0  0  0  0  0  0
  -49.2377   90.2186   28.4753 H   0  0  0  0  0  0  0  0  0  0  0  0
  -48.4242   87.8914   28.9328 H   0  0  0  0  0  0  0  0  0  0  0  0
  -46.0556   87.5078   29.5023 H   0  0  0  0  0  0  0  0  0  0  0  0
  -44.4359   89.3778   29.5536 H   0  0  0  0  0  0  0  0  0  0  0  0
  -45.2286   91.6904   29.0603 H   0  0  0  0  0  0  0  0  0  0  0  0
  -49.9517   94.5082   23.0249 H   0  0  0  0  0  0  0  0  0  0  0  0
  -50.0006   94.9401   27.0657 H   0  0  0  0  0  0  0  0  0  0  0  0
  -48.5545   94.0599   27.1189 H   0  0  0  0  0  0  0  0  0  0  0  0
  -55.8876  100.2975   19.7366 H   0  0  0  0  0  0  0  0  0  0  0  0
  1  3  2  0
  1  4  1  0
  2  3  1  0
 17  2  1  0
  3  7  1  0
  4  5  2  0
  5  6  1  0
  5 30  1  0
  6  7  2  0
  8  9  1  0
  8 10  1  0
  8 27  1  0
  9 32  2  0
  9 33  1  0
 10 19  1  0
 11 12  1  0
 12 13  1  0
 13 14  1  0
 15 14  1  0
 15 16  1  0
 15 27  1  0
 16 26  1  0
 16 31  2  0
 17 18  1  0
 17 26  1  0
 18 28  2  0
 18 29  1  0
 19 20  1  0
 20 21  2  0
 20 25  1  0
 21 22  1  0
 22 23  2  0
 23 24  1  0
 24 25  2  0
  1 34  1  0
  2 35  1  0
  2 36  1  0
  4 37  1  0
  6 38  1  0
  7 39  1  0
  8 40  1  6
 10 41  1  0
 10 42  1  0
 11 43  1  0
 11 44  1  0
 11 45  1  0
 12 46  1  0
 12 47  1  0
 13 48  1  0
 13 49  1  0
 14 50  1  0
 14 51  1  0
 15 52  1  6
 17 53  1  1
 19 54  1  0
 19 55  1  0
 21 56  1  0
 22 57  1  0
 23 58  1  0
 24 59  1  0
 25 60  1  0
 26 61  1  0
 27 62  1  0
 27 63  1  0
 30 64  1  0
M  CHG  3  27   1  29  -1  33  -1
M  END
>  <filename_input>  (4) 
7Q25_8J9_docked.sdf

>  <pdb_id>  (4) 
7Q25_8J9

>  <pose_rank>  (4) 
3

>  <num_atoms_heavy>  (4) 
33

>  <num_torsions>  (4) 
14

>  <pose>  (4) 
[-49.783890149449086, 93.55925101062354, 25.55670316732072, 1.4008787404053427, -0.24045458084020305, 2.8674628562588786, -0.12062524613205608, -1.4313783236700206, -0.7092511410906048, -3.711644319928104, -0.143777087459648, -3.078777090761927, 1.711982507522233, 2.3540222989473407, -3.3454705096764883, 5.443230400857199, -1.5241805160441864, 1.978599939967063, 1.2320075826156973, -2.0661493342126973]

>  <energy>  (4) 
-503.50394695543065

>  <inter_energy>  (4) 
-779.4153225211861

>  <intra_energy>  (4) 
280.80016346328676

>  <rmsd>  (4) 
3.65988

>  <sdf_rank>  (4) 
0

$$$$

     RDKit          3D

 64 65  0  0  0  0  0  0  0  0999 V2000
  -47.2287   98.6492   21.2886 C   0  0  0  0  0  0  0  0  0  0  0  0
  -49.1762   97.0816   20.8641 C   0  0  0  0  0  0  0  0  0  0  0  0
  -48.5755   98.4748   21.0458 C   0  0  0  0  0  0  0  0  0  0  0  0
  -46.6969   99.9333   21.4449 C   0  0  0  0  0  0  0  0  0  0  0  0
  -47.5536  101.0110   21.3437 C   0  0  0  0  0  0  0  0  0  0  0  0
  -48.8978  100.8419   21.1313 C   0  0  0  0  0  0  0  0  0  0  0  0
  -49.4166   99.5773   20.9622 C   0  0  0  0  0  0  0  0  0  0  0  0
  -51.2197   94.8042   25.8301 C   0  0  2  0  0  0  0  0  0  0  0  0
  -52.0763   94.6383   27.0148 C   0  0  0  0  0  0  0  0  0  0  0  0
  -49.8706   94.1300   26.0859 C   0  0  0  0  0  0  0  0  0  0  0  0
  -54.2569   99.5992   22.4030 C   0  0  0  0  0  0  0  0  0  0  0  0
  -54.1769   98.4092   23.3660 C   0  0  0  0  0  0  0  0  0  0  0  0
  -53.4271   98.7181   24.6444 C   0  0  0  0  0  0  0  0  0  0  0  0
  -51.9691   98.2445   24.6143 C   0  0  0  0  0  0  0  0  0  0  0  0
  -51.7869   96.7304   24.4502 C   0  0  1  0  0  0  0  0  0  0  0  0
  -51.1337   96.4137   23.1282 C   0  0  0  0  0  0  0  0  0  0  0  0
  -50.6744   97.0069   20.7626 C   0  0  1  0  0  0  0  0  0  0  0  0
  -51.0767   95.6190   20.2860 C   0  0  0  0  0  0  0  0  0  0  0  0
  -50.0354   92.6312   26.2329 C   0  0  0  0  0  0  0  0  0  0  0  0
  -49.1965   92.0075   27.3612 C   0  0  0  0  0  0  0  0  0  0  0  0
  -48.0947   92.7032   27.8176 C   0  0  0  0  0  0  0  0  0  0  0  0
  -47.3358   92.1566   28.8537 C   0  0  0  0  0  0  0  0  0  0  0  0
  -47.6796   90.9316   29.3817 C   0  0  0  0  0  0  0  0  0  0  0  0
  -48.7747   90.2314   28.9256 C   0  0  0  0  0  0  0  0  0  0  0  0
  -49.5373   90.7762   27.9056 C   0  0  0  0  0  0  0  0  0  0  0  0
  -51.3434   97.2839   22.0273 N   0  0  0  0  0  0  0  0  0  0  0  0
  -50.9627   96.2363   25.5701 N   0  0  0  0  0  0  0  0  0  0  0  0
  -50.2100   94.6829   20.1924 O   0  0  0  0  0  0  0  0  0  0  0  0
  -52.2532   95.4209   19.9448 O   0  0  0  0  0  0  0  0  0  0  0  0
  -47.0486  102.3202   21.4985 O   0  0  0  0  0  0  0  0  0  0  0  0
  -50.4403   95.4306   22.9750 O   0  0  0  0  0  0  0  0  0  0  0  0
  -53.0783   93.7653   27.2170 O   0  0  0  0  0  0  0  0  0  0  0  0
  -52.0851   95.4574   28.0312 O   0  0  0  0  0  0  0  0  0  0  0  0
  -46.5685   97.7722   21.3596 H   0  0  0  0  0  0  0  0  0  0  0  0
  -48.7566   96.6541   19.9415 H   0  0  0  0  0  0  0  0  0  0  0  0
  -48.9178   96.5305   21.7804 H   0  0  0  0  0  0  0  0  0  0  0  0
  -45.6250  100.0806   21.6432 H   0  0  0  0  0  0  0  0  0  0  0  0
  -49.5626  101.7175   21.0959 H   0  0  0  0  0  0  0  0  0  0  0  0
  -50.4897   99.4412   20.7623 H   0  0  0  0  0  0  0  0  0  0  0  0
  -51.7328   94.3543   24.9673 H   0  0  0  0  0  0  0  0  0  0  0  0
  -49.1981   94.3373   25.2405 H   0  0  0  0  0  0  0  0  0  0  0  0
  -49.4485   94.5307   27.0194 H   0  0  0  0  0  0  0  0  0  0  0  0
  -54.3197  100.5339   22.9795 H   0  0  0  0  0  0  0  0  0  0  0  0
  -53.3580   99.6190   21.7692 H   0  0  0  0  0  0  0  0  0  0  0  0
  -55.1503   99.4985   21.7692 H   0  0  0  0  0  0  0  0  0  0  0  0
  -55.2005   98.1032   23.6277 H   0  0  0  0  0  0  0  0  0  0  0  0
  -53.6228   97.6112   22.8500 H   0  0  0  0  0  0  0  0  0  0  0  0
  -53.4388   99.8065   24.8031 H   0  0  0  0  0  0  0  0  0  0  0  0
  -53.9312   98.1783   25.4596 H   0  0  0  0  0  0  0  0  0  0  0  0
  -51.4650   98.7429   23.7731 H   0  0  0  0  0  0  0  0  0  0  0  0
  -51.5397   98.5034   25.5933 H   0  0  0  0  0  0  0  0  0  0  0  0
  -52.7680   96.2332   24.4622 H   0  0  0  0  0  0  0  0  0  0  0  0
  -50.9886   97.7808   20.0467 H   0  0  0  0  0  0  0  0  0  0  0  0
  -51.0957   92.4199   26.4353 H   0  0  0  0  0  0  0  0  0  0  0  0
  -49.6806   92.1827   25.2932 H   0  0  0  0  0  0  0  0  0  0  0  0
  -47.8199   93.6709   27.3727 H   0  0  0  0  0  0  0  0  0  0  0  0
  -46.4657   92.7025   29.2475 H   0  0  0  0  0  0  0  0  0  0  0  0
  -47.0650   90.5023   30.1866 H   0  0  0  0  0  0  0  0  0  0  0  0
  -49.0387   89.2575   29.3634 H   0  0  0  0  0  0  0  0  0  0  0  0
  -50.4148   90.2323   27.5259 H   0  0  0  0  0  0  0  0  0  0  0  0
  -51.9617   98.1024   22.1209 H   0  0  0  0  0  0  0  0  0  0  0  0
  -51.1874   96.7774   26.4172 H   0  0  0  0  0  0  0  0  0  0  0  0
  -49.9700   96.3499   25.3200 H   0  0  0  0  0  0  0  0  0  0  0  0
  -47.6577  103.0974   21.4271 H   0  0  0  0  0  0  0  0  0  0  0  0
  1  3  2  0
  1  4  1  0
  2  3  1  0
 17  2  1  0
  3  7  1  0
  4  5  2  0
  5  6  1  0
  5 30  1  0
  6  7  2  0
  8  9  1  0
  8 10  1  0
  8 27  1  0
  9 32  2  0
  9 33  1  0
 10 19  1  0
 11 12  1  0
 12 13  1  0
 13 14  1  0
 15 14  1  0
 15 16  1  0
 15 27  1  0
 16 26  1  0
 16 31  2  0
 17 18  1  0
 17 26  1  0
 18 28  2  0
 18 29  1  0
 19 20  1  0
 20 21  2  0
 20 25  1  0
 21 22  1  0
 22 23  2  0
 23 24  1  0
 24 25  2  0
  1 34  1  0
  2 35  1  0
  2 36  1  0
  4 37  1  0
  6 38  1  0
  7 39  1  0
  8 40  1  6
 10 41  1  0
 10 42  1  0
 11 43  1  0
 11 44  1  0
 11 45  1  0
 12 46  1  0
 12 47  1  0
 13 48  1  0
 13 49  1  0
 14 50  1  0
 14 51  1  0
 15 52  1  6
 17 53  1  6
 19 54  1  0
 19 55  1  0
 21 56  1  0
 22 57  1  0
 23 58  1  0
 24 59  1  0
 25 60  1  0
 26 61  1  0
 27 62  1  0
 27 63  1  0
 30 64  1  0
M  CHG  3  27   1  29  -1  33  -1
M  END
>  <filename_input>  (5) 
7Q25_8J9_docked.sdf

>  <pdb_id>  (5) 
7Q25_8J9

>  <pose_rank>  (5) 
4

>  <num_atoms_heavy>  (5) 
33

>  <num_torsions>  (5) 
14

>  <pose>  (5) 
[-51.78687829394372, 96.730436446085, 24.450188351653217, -1.6057109859868273, 3.3418233735385434, -4.479351497020536, 1.094430746686908, -4.189342739013856, -1.539211195113795, -1.8481440977585417, 1.4664570223538342, 0.9358937873734848, -2.1864451839908376, 1.6450855695638105, 6.003269777212183, -7.052099533196927, -5.988003774306341, -0.22577505018763042, 0.848319934973006, -3.1359353453433667]

>  <energy>  (5) 
-758.4621074378208

>  <inter_energy>  (5) 
-824.3708293324844

>  <intra_energy>  (5) 
66.23685989979501

>  <rmsd>  (5) 
4.05729

>  <sdf_rank>  (5) 
0

$$$$

     RDKit          3D

 64 65  0  0  0  0  0  0  0  0999 V2000
  -54.7328   99.5355   21.1116 C   0  0  0  0  0  0  0  0  0  0  0  0
  -55.8928   97.2984   20.8280 C   0  0  0  0  0  0  0  0  0  0  0  0
  -55.9024   98.8215   20.9510 C   0  0  0  0  0  0  0  0  0  0  0  0
  -54.7621  100.9300   21.2153 C   0  0  0  0  0  0  0  0  0  0  0  0
  -55.9865  101.5638   21.1464 C   0  0  0  0  0  0  0  0  0  0  0  0
  -57.1543  100.8568   21.0159 C   0  0  0  0  0  0  0  0  0  0  0  0
  -57.1217   99.4849   20.8985 C   0  0  0  0  0  0  0  0  0  0  0  0
  -52.2081   95.3189   26.0991 C   0  0  2  0  0  0  0  0  0  0  0  0
  -50.7831   95.6260   25.8997 C   0  0  0  0  0  0  0  0  0  0  0  0
  -52.3373   94.1103   27.0280 C   0  0  0  0  0  0  0  0  0  0  0  0
  -50.4574   98.3724   20.7125 C   0  0  0  0  0  0  0  0  0  0  0  0
  -50.3990   97.1017   21.5679 C   0  0  0  0  0  0  0  0  0  0  0  0
  -51.6054   96.2035   21.3956 C   0  0  0  0  0  0  0  0  0  0  0  0
  -51.8595   95.3006   22.6084 C   0  0  0  0  0  0  0  0  0  0  0  0
  -52.5691   95.9849   23.7835 C   0  0  1  0  0  0  0  0  0  0  0  0
  -53.8459   96.6427   23.3235 C   0  0  0  0  0  0  0  0  0  0  0  0
  -56.0078   96.5229   22.1109 C   0  0  1  0  0  0  0  0  0  0  0  0
  -57.0597   95.4356   21.9474 C   0  0  0  0  0  0  0  0  0  0  0  0
  -51.7905   92.8612   26.3679 C   0  0  0  0  0  0  0  0  0  0  0  0
  -50.5040   92.3147   27.0098 C   0  0  0  0  0  0  0  0  0  0  0  0
  -50.2827   92.5687   28.3487 C   0  0  0  0  0  0  0  0  0  0  0  0
  -49.1279   92.0628   28.9476 C   0  0  0  0  0  0  0  0  0  0  0  0
  -48.2233   91.3471   28.1945 C   0  0  0  0  0  0  0  0  0  0  0  0
  -48.4372   91.0962   26.8571 C   0  0  0  0  0  0  0  0  0  0  0  0
  -49.5880   91.5864   26.2620 C   0  0  0  0  0  0  0  0  0  0  0  0
  -54.7511   95.9064   22.5161 N   0  0  0  0  0  0  0  0  0  0  0  0
  -52.8496   94.9674   24.8148 N   0  0  0  0  0  0  0  0  0  0  0  0
  -57.9506   95.2472   22.8457 O   0  0  0  0  0  0  0  0  0  0  0  0
  -57.0122   94.7021   20.9476 O   0  0  0  0  0  0  0  0  0  0  0  0
  -56.0505  102.9703   21.2497 O   0  0  0  0  0  0  0  0  0  0  0  0
  -54.1187   97.7876   23.6161 O   0  0  0  0  0  0  0  0  0  0  0  0
  -49.7100   94.8564   26.1512 O   0  0  0  0  0  0  0  0  0  0  0  0
  -50.3277   96.8058   25.5761 O   0  0  0  0  0  0  0  0  0  0  0  0
  -53.7707   99.0044   21.1585 H   0  0  0  0  0  0  0  0  0  0  0  0
  -56.7375   97.0094   20.1854 H   0  0  0  0  0  0  0  0  0  0  0  0
  -54.9028   97.0446   20.4211 H   0  0  0  0  0  0  0  0  0  0  0  0
  -53.8345  101.5062   21.3480 H   0  0  0  0  0  0  0  0  0  0  0  0
  -58.1185  101.3862   21.0050 H   0  0  0  0  0  0  0  0  0  0  0  0
  -58.0550   98.9184   20.7640 H   0  0  0  0  0  0  0  0  0  0  0  0
  -52.6957   96.2061   26.5295 H   0  0  0  0  0  0  0  0  0  0  0  0
  -51.7745   94.3049   27.9529 H   0  0  0  0  0  0  0  0  0  0  0  0
  -53.4024   93.9518   27.2530 H   0  0  0  0  0  0  0  0  0  0  0  0
  -50.4979   99.2545   21.3685 H   0  0  0  0  0  0  0  0  0  0  0  0
  -49.5609   98.4285   20.0776 H   0  0  0  0  0  0  0  0  0  0  0  0
  -51.3553   98.3461   20.0776 H   0  0  0  0  0  0  0  0  0  0  0  0
  -49.4993   96.5341   21.2880 H   0  0  0  0  0  0  0  0  0  0  0  0
  -50.3797   97.4201   22.6206 H   0  0  0  0  0  0  0  0  0  0  0  0
  -52.4923   96.8347   21.2368 H   0  0  0  0  0  0  0  0  0  0  0  0
  -51.4073   95.5488   20.5342 H   0  0  0  0  0  0  0  0  0  0  0  0
  -52.4801   94.4538   22.2803 H   0  0  0  0  0  0  0  0  0  0  0  0
  -50.8699   94.9959   22.9798 H   0  0  0  0  0  0  0  0  0  0  0  0
  -51.9238   96.7713   24.2021 H   0  0  0  0  0  0  0  0  0  0  0  0
  -56.2928   97.2383   22.8963 H   0  0  0  0  0  0  0  0  0  0  0  0
  -52.5612   92.0781   26.4216 H   0  0  0  0  0  0  0  0  0  0  0  0
  -51.5327   93.1389   25.3353 H   0  0  0  0  0  0  0  0  0  0  0  0
  -51.0036   93.1593   28.9331 H   0  0  0  0  0  0  0  0  0  0  0  0
  -48.9406   92.2349   30.0178 H   0  0  0  0  0  0  0  0  0  0  0  0
  -47.3084   90.9671   28.6724 H   0  0  0  0  0  0  0  0  0  0  0  0
  -47.7075   90.5170   26.2722 H   0  0  0  0  0  0  0  0  0  0  0  0
  -49.7767   91.3985   25.1948 H   0  0  0  0  0  0  0  0  0  0  0  0
  -54.5224   94.9469   22.2197 H   0  0  0  0  0  0  0  0  0  0  0  0
  -52.4876   94.0572   24.4962 H   0  0  0  0  0  0  0  0  0  0  0  0
  -53.8682   94.9217   24.9601 H   0  0  0  0  0  0  0  0  0  0  0  0
  -56.9254  103.4310   21.2011 H   0  0  0  0  0  0  0  0  0  0  0  0
  1  3  2  0
  1  4  1  0
  2  3  1  0
 17  2  1  0
  3  7  1  0
  4  5  2  0
  5  6  1  0
  5 30  1  0
  6  7  2  0
  8  9  1  0
  8 10  1  0
  8 27  1  0
  9 32  2  0
  9 33  1  0
 10 19  1  0
 11 12  1  0
 12 13  1  0
 13 14  1  0
 15 14  1  0
 15 16  1  0
 15 27  1  0
 16 26  1  0
 16 31  2  0
 17 18  1  0
 17 26  1  0
 18 28  2  0
 18 29  1  0
 19 20  1  0
 20 21  2  0
 20 25  1  0
 21 22  1  0
 22 23  2  0
 23 24  1  0
 24 25  2  0
  1 34  1  0
  2 35  1  0
  2 36  1  0
  4 37  1  0
  6 38  1  0
  7 39  1  0
  8 40  1  1
 10 41  1  0
 10 42  1  0
 11 43  1  0
 11 44  1  0
 11 45  1  0
 12 46  1  0
 12 47  1  0
 13 48  1  0
 13 49  1  0
 14 50  1  0
 14 51  1  0
 15 52  1  1
 17 53  1  1
 19 54  1  0
 19 55  1  0
 21 56  1  0
 22 57  1  0
 23 58  1  0
 24 59  1  0
 25 60  1  0
 26 61  1  0
 27 62  1  0
 27 63  1  0
 30 64  1  0
M  CHG  3  27   1  29  -1  33  -1
M  END
>  <filename_input>  (6) 
7Q25_8J9_docked.sdf

>  <pdb_id>  (6) 
7Q25_8J9

>  <pose_rank>  (6) 
5

>  <num_atoms_heavy>  (6) 
33

>  <num_torsions>  (6) 
14

>  <pose>  (6) 
[-52.56908062456402, 95.98489129588712, 23.783528803044497, -0.3816881978865866, 0.9160227094070987, -1.8946397008645643, 2.450117562933156, -1.538442794943759, -4.01828582022259, 3.8181344970418674, 0.015746963822470122, -0.121677474678869, 0.2817583125941528, -5.635170275835909, 5.408911394955115, 0.13969606584533625, -3.942219505852932, -2.5217632553808174, -1.0697112556875368, -2.289715400576131]

>  <energy>  (6) 
-668.97764136309

>  <inter_energy>  (6) 
-743.2598168615604

>  <intra_energy>  (6) 
73.29574180283616

>  <rmsd>  (6) 
3.62499

>  <sdf_rank>  (6) 
0

$$$$

     RDKit          3D

 64 65  0  0  0  0  0  0  0  0999 V2000
  -48.1627  100.4231   21.9368 C   0  0  0  0  0  0  0  0  0  0  0  0
  -49.5313   98.3408   21.4660 C   0  0  0  0  0  0  0  0  0  0  0  0
  -48.2533   99.1721   21.3621 C   0  0  0  0  0  0  0  0  0  0  0  0
  -46.9814  101.1654   21.8367 C   0  0  0  0  0  0  0  0  0  0  0  0
  -45.9171  100.6091   21.1559 C   0  0  0  0  0  0  0  0  0  0  0  0
  -46.0116   99.3785   20.5583 C   0  0  0  0  0  0  0  0  0  0  0  0
  -47.1704   98.6428   20.6714 C   0  0  0  0  0  0  0  0  0  0  0  0
  -51.1479   93.8913   25.4267 C   0  0  2  0  0  0  0  0  0  0  0  0
  -51.7128   93.9343   26.7846 C   0  0  0  0  0  0  0  0  0  0  0  0
  -49.7417   93.2919   25.4853 C   0  0  0  0  0  0  0  0  0  0  0  0
  -54.2604   98.2960   23.3883 C   0  0  0  0  0  0  0  0  0  0  0  0
  -54.9618   97.1071   22.7217 C   0  0  0  0  0  0  0  0  0  0  0  0
  -54.0936   95.8704   22.6284 C   0  0  0  0  0  0  0  0  0  0  0  0
  -53.2236   95.6529   23.8721 C   0  0  0  0  0  0  0  0  0  0  0  0
  -51.7450   95.3663   23.5818 C   0  0  1  0  0  0  0  0  0  0  0  0
  -51.1476   96.4615   22.7343 C   0  0  0  0  0  0  0  0  0  0  0  0
  -50.5908   98.8567   22.3997 C   0  0  1  0  0  0  0  0  0  0  0  0
  -51.6694   99.5646   21.5929 C   0  0  0  0  0  0  0  0  0  0  0  0
  -49.0564   93.6492   26.7883 C   0  0  0  0  0  0  0  0  0  0  0  0
  -48.5202   92.4418   27.5760 C   0  0  0  0  0  0  0  0  0  0  0  0
  -49.2360   91.2620   27.5311 C   0  0  0  0  0  0  0  0  0  0  0  0
  -48.7504   90.1536   28.2268 C   0  0  0  0  0  0  0  0  0  0  0  0
  -47.5898   90.2607   28.9610 C   0  0  0  0  0  0  0  0  0  0  0  0
  -46.8755   91.4373   29.0132 C   0  0  0  0  0  0  0  0  0  0  0  0
  -47.3478   92.5360   28.3144 C   0  0  0  0  0  0  0  0  0  0  0  0
  -51.2102   97.8028   23.1930 N   0  0  0  0  0  0  0  0  0  0  0  0
  -51.0308   95.2547   24.8682 N   0  0  0  0  0  0  0  0  0  0  0  0
  -51.7484   99.4062   20.3261 O   0  0  0  0  0  0  0  0  0  0  0  0
  -52.4452  100.3363   22.1781 O   0  0  0  0  0  0  0  0  0  0  0  0
  -44.7114  101.3335   21.0352 O   0  0  0  0  0  0  0  0  0  0  0  0
  -50.6219   96.2309   21.6660 O   0  0  0  0  0  0  0  0  0  0  0  0
  -52.0104   95.0042   27.5420 O   0  0  0  0  0  0  0  0  0  0  0  0
  -51.8717   92.8844   27.5439 O   0  0  0  0  0  0  0  0  0  0  0  0
  -49.0253  100.8395   22.4775 H   0  0  0  0  0  0  0  0  0  0  0  0
  -49.9728   98.2790   20.4604 H   0  0  0  0  0  0  0  0  0  0  0  0
  -49.2173   97.3740   21.8862 H   0  0  0  0  0  0  0  0  0  0  0  0
  -46.9027  102.1654   22.2881 H   0  0  0  0  0  0  0  0  0  0  0  0
  -45.1606   98.9783   19.9877 H   0  0  0  0  0  0  0  0  0  0  0  0
  -47.2380   97.6429   20.2180 H   0  0  0  0  0  0  0  0  0  0  0  0
  -51.8135   93.2849   24.7948 H   0  0  0  0  0  0  0  0  0  0  0  0
  -49.8129   92.1972   25.4041 H   0  0  0  0  0  0  0  0  0  0  0  0
  -49.1500   93.7008   24.6530 H   0  0  0  0  0  0  0  0  0  0  0  0
  -54.3217   98.1920   24.4816 H   0  0  0  0  0  0  0  0  0  0  0  0
  -53.2045   98.3182   23.0808 H   0  0  0  0  0  0  0  0  0  0  0  0
  -54.7516   99.2310   23.0808 H   0  0  0  0  0  0  0  0  0  0  0  0
  -55.8595   96.8592   23.3071 H   0  0  0  0  0  0  0  0  0  0  0  0
  -55.2061   97.4100   21.6929 H   0  0  0  0  0  0  0  0  0  0  0  0
  -54.7453   94.9938   22.4990 H   0  0  0  0  0  0  0  0  0  0  0  0
  -53.4157   96.0086   21.7732 H   0  0  0  0  0  0  0  0  0  0  0  0
  -53.2809   96.5594   24.4924 H   0  0  0  0  0  0  0  0  0  0  0  0
  -53.6195   94.7574   24.3736 H   0  0  0  0  0  0  0  0  0  0  0  0
  -51.6508   94.4249   23.0206 H   0  0  0  0  0  0  0  0  0  0  0  0
  -50.0970   99.5483   23.0981 H   0  0  0  0  0  0  0  0  0  0  0  0
  -48.2106   94.3148   26.5610 H   0  0  0  0  0  0  0  0  0  0  0  0
  -49.8180   94.1253   27.4233 H   0  0  0  0  0  0  0  0  0  0  0  0
  -50.1723   91.1967   26.9574 H   0  0  0  0  0  0  0  0  0  0  0  0
  -49.2929   89.1974   28.1888 H   0  0  0  0  0  0  0  0  0  0  0  0
  -47.2248   89.3858   29.5189 H   0  0  0  0  0  0  0  0  0  0  0  0
  -45.9468   91.5031   29.5990 H   0  0  0  0  0  0  0  0  0  0  0  0
  -46.7931   93.4854   28.3444 H   0  0  0  0  0  0  0  0  0  0  0  0
  -51.6881   98.0290   24.0769 H   0  0  0  0  0  0  0  0  0  0  0  0
  -51.4340   95.9273   25.5360 H   0  0  0  0  0  0  0  0  0  0  0  0
  -50.0339   95.4572   24.7069 H   0  0  0  0  0  0  0  0  0  0  0  0
  -43.9443  100.9403   20.5483 H   0  0  0  0  0  0  0  0  0  0  0  0
  1  3  2  0
  1  4  1  0
  2  3  1  0
 17  2  1  0
  3  7  1  0
  4  5  2  0
  5  6  1  0
  5 30  1  0
  6  7  2  0
  8  9  1  0
  8 10  1  0
  8 27  1  0
  9 32  2  0
  9 33  1  0
 10 19  1  0
 11 12  1  0
 12 13  1  0
 13 14  1  0
 15 14  1  0
 15 16  1  0
 15 27  1  0
 16 26  1  0
 16 31  2  0
 17 18  1  0
 17 26  1  0
 18 28  2  0
 18 29  1  0
 19 20  1  0
 20 21  2  0
 20 25  1  0
 21 22  1  0
 22 23  2  0
 23 24  1  0
 24 25  2  0
  1 34  1  0
  2 35  1  0
  2 36  1  0
  4 37  1  0
  6 38  1  0
  7 39  1  0
  8 40  1  6
 10 41  1  0
 10 42  1  0
 11 43  1  0
 11 44  1  0
 11 45  1  0
 12 46  1  0
 12 47  1  0
 13 48  1  0
 13 49  1  0
 14 50  1  0
 14 51  1  0
 15 52  1  6
 17 53  1  1
 19 54  1  0
 19 55  1  0
 21 56  1  0
 22 57  1  0
 23 58  1  0
 24 59  1  0
 25 60  1  0
 26 61  1  0
 27 62  1  0
 27 63  1  0
 30 64  1  0
M  CHG  3  27   1  29  -1  33  -1
M  END
>  <filename_input>  (7) 
7Q25_8J9_docked.sdf

>  <pdb_id>  (7) 
7Q25_8J9

>  <pose_rank>  (7) 
6

>  <num_atoms_heavy>  (7) 
33

>  <num_torsions>  (7) 
14

>  <pose>  (7) 
[-51.74502518836871, 95.36628756342246, 23.58175835593826, 0.6817274378019786, -0.6299309864448023, 1.4654528528164577, -9.973927328236757, 2.8219731149424065, -1.419279523171062, 3.2653716174155765, -1.7202036477161167, -6.3703587879003285, 2.877645151338628, 4.037173716711069, 11.047967219194863, 5.146201927803142, -2.2541533864072907, 4.352617480739799, -0.8217496415384872, -3.374405226488798]

>  <energy>  (7) 
-688.3978602746957

>  <inter_energy>  (7) 
-783.4667860302512

>  <intra_energy>  (7) 
97.21970652518426

>  <rmsd>  (7) 
4.90755

>  <sdf_rank>  (7) 
0

$$$$

     RDKit          3D

 64 65  0  0  0  0  0  0  0  0999 V2000
  -54.9662   97.4902   19.4258 C   0  0  0  0  0  0  0  0  0  0  0  0
  -54.0116   95.2440   20.1141 C   0  0  0  0  0  0  0  0  0  0  0  0
  -55.0144   96.3884   20.2548 C   0  0  0  0  0  0  0  0  0  0  0  0
  -55.8976   98.5242   19.5661 C   0  0  0  0  0  0  0  0  0  0  0  0
  -56.8613   98.4055   20.5474 C   0  0  0  0  0  0  0  0  0  0  0  0
  -56.8958   97.3262   21.3926 C   0  0  0  0  0  0  0  0  0  0  0  0
  -55.9873   96.3020   21.2426 C   0  0  0  0  0  0  0  0  0  0  0  0
  -50.3370   99.1010   22.8569 C   0  0  2  0  0  0  0  0  0  0  0  0
  -49.4266   98.2980   22.0255 C   0  0  0  0  0  0  0  0  0  0  0  0
  -49.5375  100.1959   23.5656 C   0  0  0  0  0  0  0  0  0  0  0  0
  -55.4922  102.0775   23.0991 C   0  0  0  0  0  0  0  0  0  0  0  0
  -54.4138  101.2209   22.4257 C   0  0  0  0  0  0  0  0  0  0  0  0
  -54.1968   99.8842   23.1023 C   0  0  0  0  0  0  0  0  0  0  0  0
  -52.8722   99.2202   22.7081 C   0  0  0  0  0  0  0  0  0  0  0  0
  -52.4119   98.0955   23.6439 C   0  0  1  0  0  0  0  0  0  0  0  0
  -52.6928   96.7461   23.0317 C   0  0  0  0  0  0  0  0  0  0  0  0
  -52.8233   95.2787   21.0345 C   0  0  1  0  0  0  0  0  0  0  0  0
  -51.5783   94.8674   20.2625 C   0  0  0  0  0  0  0  0  0  0  0  0
  -49.3976  101.4192   22.6830 C   0  0  0  0  0  0  0  0  0  0  0  0
  -47.9625  101.9615   22.5719 C   0  0  0  0  0  0  0  0  0  0  0  0
  -47.4203  102.1225   21.3124 C   0  0  0  0  0  0  0  0  0  0  0  0
  -46.1256  102.6311   21.1973 C   0  0  0  0  0  0  0  0  0  0  0  0
  -45.4068  102.9369   22.3319 C   0  0  0  0  0  0  0  0  0  0  0  0
  -45.9416  102.7726   23.5906 C   0  0  0  0  0  0  0  0  0  0  0  0
  -47.2306  102.2794   23.7085 C   0  0  0  0  0  0  0  0  0  0  0  0
  -52.6003   96.5926   21.6242 N   0  0  0  0  0  0  0  0  0  0  0  0
  -50.9678   98.2621   23.8975 N   0  0  0  0  0  0  0  0  0  0  0  0
  -50.9892   93.7600   20.5133 O   0  0  0  0  0  0  0  0  0  0  0  0
  -51.1151   95.6462   19.4146 O   0  0  0  0  0  0  0  0  0  0  0  0
  -57.8149   99.4328   20.7160 O   0  0  0  0  0  0  0  0  0  0  0  0
  -53.0046   95.7881   23.7069 O   0  0  0  0  0  0  0  0  0  0  0  0
  -48.8660   98.6093   20.8440 O   0  0  0  0  0  0  0  0  0  0  0  0
  -49.1396   97.0455   22.2555 O   0  0  0  0  0  0  0  0  0  0  0  0
  -54.1900   97.5559   18.6492 H   0  0  0  0  0  0  0  0  0  0  0  0
  -54.5502   94.3027   20.2985 H   0  0  0  0  0  0  0  0  0  0  0  0
  -53.5980   95.3413   19.0995 H   0  0  0  0  0  0  0  0  0  0  0  0
  -55.8632   99.4080   18.9121 H   0  0  0  0  0  0  0  0  0  0  0  0
  -57.6503   97.2784   22.1917 H   0  0  0  0  0  0  0  0  0  0  0  0
  -56.0317   95.4216   21.9006 H   0  0  0  0  0  0  0  0  0  0  0  0
  -51.1110   99.5316   22.2045 H   0  0  0  0  0  0  0  0  0  0  0  0
  -50.0571  100.4783   24.4931 H   0  0  0  0  0  0  0  0  0  0  0  0
  -48.5331   99.8081   23.7911 H   0  0  0  0  0  0  0  0  0  0  0  0
  -55.3935  101.9990   24.1918 H   0  0  0  0  0  0  0  0  0  0  0  0
  -55.3699  103.1273   22.7943 H   0  0  0  0  0  0  0  0  0  0  0  0
  -56.4871  101.7207   22.7943 H   0  0  0  0  0  0  0  0  0  0  0  0
  -54.7139  101.0392   21.3832 H   0  0  0  0  0  0  0  0  0  0  0  0
  -53.4674  101.7772   22.4958 H   0  0  0  0  0  0  0  0  0  0  0  0
  -54.2011  100.0380   24.1915 H   0  0  0  0  0  0  0  0  0  0  0  0
  -55.0085   99.2162   22.7782 H   0  0  0  0  0  0  0  0  0  0  0  0
  -52.9878   98.7992   21.6985 H   0  0  0  0  0  0  0  0  0  0  0  0
  -52.1036  100.0049   22.7664 H   0  0  0  0  0  0  0  0  0  0  0  0
  -52.9654   98.1500   24.5930 H   0  0  0  0  0  0  0  0  0  0  0  0
  -53.0314   94.5789   21.8573 H   0  0  0  0  0  0  0  0  0  0  0  0
  -49.7453  101.1564   21.6730 H   0  0  0  0  0  0  0  0  0  0  0  0
  -49.9982  102.2137   23.1500 H   0  0  0  0  0  0  0  0  0  0  0  0
  -47.9984  101.8547   20.4157 H   0  0  0  0  0  0  0  0  0  0  0  0
  -45.6806  102.7872   20.2035 H   0  0  0  0  0  0  0  0  0  0  0  0
  -44.3812  103.3215   22.2303 H   0  0  0  0  0  0  0  0  0  0  0  0
  -45.3558  103.0284   24.4858 H   0  0  0  0  0  0  0  0  0  0  0  0
  -47.6755  102.1392   24.7047 H   0  0  0  0  0  0  0  0  0  0  0  0
  -52.3780   97.4009   21.0257 H   0  0  0  0  0  0  0  0  0  0  0  0
  -50.5180   97.3355   23.9008 H   0  0  0  0  0  0  0  0  0  0  0  0
  -50.8477   98.7267   24.8089 H   0  0  0  0  0  0  0  0  0  0  0  0
  -58.5086   99.3538   21.4179 H   0  0  0  0  0  0  0  0  0  0  0  0
  1  3  2  0
  1  4  1  0
  2  3  1  0
 17  2  1  0
  3  7  1  0
  4  5  2  0
  5  6  1  0
  5 30  1  0
  6  7  2  0
  8  9  1  0
  8 10  1  0
  8 27  1  0
  9 32  2  0
  9 33  1  0
 10 19  1  0
 11 12  1  0
 12 13  1  0
 13 14  1  0
 15 14  1  0
 15 16  1  0
 15 27  1  0
 16 26  1  0
 16 31  2  0
 17 18  1  0
 17 26  1  0
 18 28  2  0
 18 29  1  0
 19 20  1  0
 20 21  2  0
 20 25  1  0
 21 22  1  0
 22 23  2  0
 23 24  1  0
 24 25  2  0
  1 34  1  0
  2 35  1  0
  2 36  1  0
  4 37  1  0
  6 38  1  0
  7 39  1  0
  8 40  1  6
 10 41  1  0
 10 42  1  0
 11 43  1  0
 11 44  1  0
 11 45  1  0
 12 46  1  0
 12 47  1  0
 13 48  1  0
 13 49  1  0
 14 50  1  0
 14 51  1  0
 15 52  1  1
 17 53  1  1
 19 54  1  0
 19 55  1  0
 21 56  1  0
 22 57  1  0
 23 58  1  0
 24 59  1  0
 25 60  1  0
 26 61  1  0
 27 62  1  0
 27 63  1  0
 30 64  1  0
M  CHG  3  27   1  29  -1  33  -1
M  END
>  <filename_input>  (8) 
7Q25_8J9_docked.sdf

>  <pdb_id>  (8) 
7Q25_8J9

>  <pose_rank>  (8) 
7

>  <num_atoms_heavy>  (8) 
33

>  <num_torsions>  (8) 
14

>  <pose>  (8) 
[-52.41193052668507, 98.09545644454904, 23.643945167910083, 3.3763911663579425, -3.677846322026061, -1.7444200521904591, -4.0833699574001665, -1.0362835756857223, -3.6292783409375278, 5.362758450663332, 0.13275276698268754, 0.7335721706550967, 1.7342095972872509, 0.5169972859718033, -3.33703056253141, -0.9167306045202657, 0.7379628302827274, 0.13592687525076283, 0.9738893804975258, -0.5775779716169555]

>  <energy>  (8) 
-658.0214527937316

>  <inter_energy>  (8) 
-672.4290505903158

>  <intra_energy>  (8) 
10.860608640834213

>  <rmsd>  (8) 
6.75994

>  <sdf_rank>  (8) 
0

$$$$

     RDKit          3D

 64 65  0  0  0  0  0  0  0  0999 V2000
  -49.0604   92.4934   28.5132 C   0  0  0  0  0  0  0  0  0  0  0  0
  -49.4819   94.2103   26.6953 C   0  0  0  0  0  0  0  0  0  0  0  0
  -48.5668   93.2869   27.4983 C   0  0  0  0  0  0  0  0  0  0  0  0
  -48.2075   91.6494   29.2320 C   0  0  0  0  0  0  0  0  0  0  0  0
  -46.8695   91.6315   28.8927 C   0  0  0  0  0  0  0  0  0  0  0  0
  -46.3688   92.4393   27.9042 C   0  0  0  0  0  0  0  0  0  0  0  0
  -47.2131   93.2581   27.1875 C   0  0  0  0  0  0  0  0  0  0  0  0
  -51.3192   97.4818   23.7799 C   0  0  2  0  0  0  0  0  0  0  0  0
  -50.9215   97.4093   25.1945 C   0  0  0  0  0  0  0  0  0  0  0  0
  -51.3764   98.9482   23.3477 C   0  0  0  0  0  0  0  0  0  0  0  0
  -55.3758   97.7265   20.4261 C   0  0  0  0  0  0  0  0  0  0  0  0
  -54.2164   96.7707   20.1224 C   0  0  0  0  0  0  0  0  0  0  0  0
  -54.1150   95.6176   21.0980 C   0  0  0  0  0  0  0  0  0  0  0  0
  -52.6980   95.4213   21.6497 C   0  0  0  0  0  0  0  0  0  0  0  0
  -52.5865   95.4900   23.1779 C   0  0  1  0  0  0  0  0  0  0  0  0
  -51.2920   94.8729   23.6448 C   0  0  0  0  0  0  0  0  0  0  0  0
  -49.9874   93.6760   25.3840 C   0  0  1  0  0  0  0  0  0  0  0  0
  -50.2272   92.1788   25.5110 C   0  0  0  0  0  0  0  0  0  0  0  0
  -51.1060   99.0845   21.8633 C   0  0  0  0  0  0  0  0  0  0  0  0
  -49.6144   99.1140   21.4894 C   0  0  0  0  0  0  0  0  0  0  0  0
  -49.2103   98.4324   20.3588 C   0  0  0  0  0  0  0  0  0  0  0  0
  -47.8623   98.4666   19.9983 C   0  0  0  0  0  0  0  0  0  0  0  0
  -46.9609   99.1515   20.7831 C   0  0  0  0  0  0  0  0  0  0  0  0
  -47.3586   99.8282   21.9151 C   0  0  0  0  0  0  0  0  0  0  0  0
  -48.6975   99.8066   22.2694 C   0  0  0  0  0  0  0  0  0  0  0  0
  -51.2218   94.3164   24.9482 N   0  0  0  0  0  0  0  0  0  0  0  0
  -52.6665   96.9053   23.5877 N   0  0  0  0  0  0  0  0  0  0  0  0
  -51.3153   91.7310   26.0127 O   0  0  0  0  0  0  0  0  0  0  0  0
  -49.3292   91.3969   25.1615 O   0  0  0  0  0  0  0  0  0  0  0  0
  -45.9820   90.7920   29.6002 O   0  0  0  0  0  0  0  0  0  0  0  0
  -50.3043   94.8457   22.9415 O   0  0  0  0  0  0  0  0  0  0  0  0
  -49.6932   97.5045   25.7326 O   0  0  0  0  0  0  0  0  0  0  0  0
  -51.7280   97.0734   26.1645 O   0  0  0  0  0  0  0  0  0  0  0  0
  -50.1322   92.5247   28.7589 H   0  0  0  0  0  0  0  0  0  0  0  0
  -50.3561   94.4422   27.3214 H   0  0  0  0  0  0  0  0  0  0  0  0
  -48.8627   95.0818   26.4363 H   0  0  0  0  0  0  0  0  0  0  0  0
  -48.5925   91.0171   30.0456 H   0  0  0  0  0  0  0  0  0  0  0  0
  -45.2912   92.4335   27.6834 H   0  0  0  0  0  0  0  0  0  0  0  0
  -46.8183   93.8850   26.3744 H   0  0  0  0  0  0  0  0  0  0  0  0
  -50.5842   96.9196   23.1852 H   0  0  0  0  0  0  0  0  0  0  0  0
  -52.3755   99.3507   23.5704 H   0  0  0  0  0  0  0  0  0  0  0  0
  -50.6057   99.5075   23.8984 H   0  0  0  0  0  0  0  0  0  0  0  0
  -55.4946   97.8245   21.5152 H   0  0  0  0  0  0  0  0  0  0  0  0
  -55.1610   98.7135   19.9904 H   0  0  0  0  0  0  0  0  0  0  0  0
  -56.3037   97.3275   19.9904 H   0  0  0  0  0  0  0  0  0  0  0  0
  -54.3586   96.3605   19.1117 H   0  0  0  0  0  0  0  0  0  0  0  0
  -53.2862   97.3515   20.2091 H   0  0  0  0  0  0  0  0  0  0  0  0
  -54.7954   95.8106   21.9405 H   0  0  0  0  0  0  0  0  0  0  0  0
  -54.3853   94.7012   20.5528 H   0  0  0  0  0  0  0  0  0  0  0  0
  -52.3381   94.4339   21.3245 H   0  0  0  0  0  0  0  0  0  0  0  0
  -52.0955   96.2540   21.2579 H   0  0  0  0  0  0  0  0  0  0  0  0
  -53.4087   94.9221   23.6378 H   0  0  0  0  0  0  0  0  0  0  0  0
  -49.2182   93.8938   24.6284 H   0  0  0  0  0  0  0  0  0  0  0  0
  -51.5729   98.2316   21.3489 H   0  0  0  0  0  0  0  0  0  0  0  0
  -51.5262  100.0533   21.5553 H   0  0  0  0  0  0  0  0  0  0  0  0
  -49.9378   97.8724   19.7528 H   0  0  0  0  0  0  0  0  0  0  0  0
  -47.5207   97.9481   19.0903 H   0  0  0  0  0  0  0  0  0  0  0  0
  -45.8982   99.1583   20.4991 H   0  0  0  0  0  0  0  0  0  0  0  0
  -46.6263  100.3758   22.5265 H   0  0  0  0  0  0  0  0  0  0  0  0
  -49.0354  100.3392   23.1706 H   0  0  0  0  0  0  0  0  0  0  0  0
  -52.0344   94.3645   25.5793 H   0  0  0  0  0  0  0  0  0  0  0  0
  -53.1892   96.9700   24.4728 H   0  0  0  0  0  0  0  0  0  0  0  0
  -53.1451   97.4340   22.8445 H   0  0  0  0  0  0  0  0  0  0  0  0
  -45.0213   90.7744   29.3619 H   0  0  0  0  0  0  0  0  0  0  0  0
  1  3  2  0
  1  4  1  0
  2  3  1  0
 17  2  1  0
  3  7  1  0
  4  5  2  0
  5  6  1  0
  5 30  1  0
  6  7  2  0
  8  9  1  0
  8 10  1  0
  8 27  1  0
  9 32  2  0
  9 33  1  0
 10 19  1  0
 11 12  1  0
 12 13  1  0
 13 14  1  0
 15 14  1  0
 15 16  1  0
 15 27  1  0
 16 26  1  0
 16 31  2  0
 17 18  1  0
 17 26  1  0
 18 28  2  0
 18 29  1  0
 19 20  1  0
 20 21  2  0
 20 25  1  0
 21 22  1  0
 22 23  2  0
 23 24  1  0
 24 25  2  0
  1 34  1  0
  2 35  1  0
  2 36  1  0
  4 37  1  0
  6 38  1  0
  7 39  1  0
  8 40  1  6
 10 41  1  0
 10 42  1  0
 11 43  1  0
 11 44  1  0
 11 45  1  0
 12 46  1  0
 12 47  1  0
 13 48  1  0
 13 49  1  0
 14 50  1  0
 14 51  1  0
 15 52  1  1
 17 53  1  6
 19 54  1  0
 19 55  1  0
 21 56  1  0
 22 57  1  0
 23 58  1  0
 24 59  1  0
 25 60  1  0
 26 61  1  0
 27 62  1  0
 27 63  1  0
 30 64  1  0
M  CHG  3  27   1  29  -1  33  -1
M  END
>  <filename_input>  (9) 
7Q25_8J9_docked.sdf

>  <pdb_id>  (9) 
7Q25_8J9

>  <pose_rank>  (9) 
8

>  <num_atoms_heavy>  (9) 
33

>  <num_torsions>  (9) 
14

>  <pose>  (9) 
[-52.5864734159048, 95.48996449891929, 23.17791106621783, 3.594968038393903, 1.0620200402327846, -2.335495231401284, -1.0660138449737526, -0.8591149232327289, -0.23901774310736168, 2.1221536703976525, 3.043647675701054, 1.778112061267437, -5.256894464185992, 1.0769643986933803, 1.611906751887248, -0.6311322481318057, 0.6602279586063191, 1.294257885003181, 1.8045331531436168, -0.32491205767176895]

>  <energy>  (9) 
-644.1334341940026

>  <inter_energy>  (9) 
-721.3092476072208

>  <intra_energy>  (9) 
74.409727762816

>  <rmsd>  (9) 
8.46274

>  <sdf_rank>  (9) 
0

$$$$

     RDKit          3D

 64 65  0  0  0  0  0  0  0  0999 V2000
  -50.3997   94.0841   24.5384 C   0  0  0  0  0  0  0  0  0  0  0  0
  -51.7469   94.8770   22.5416 C   0  0  0  0  0  0  0  0  0  0  0  0
  -51.5122   94.7338   24.0448 C   0  0  0  0  0  0  0  0  0  0  0  0
  -50.1993   93.9698   25.9179 C   0  0  0  0  0  0  0  0  0  0  0  0
  -51.1384   94.5278   26.7620 C   0  0  0  0  0  0  0  0  0  0  0  0
  -52.2603   95.1493   26.2767 C   0  0  0  0  0  0  0  0  0  0  0  0
  -52.4477   95.2742   24.9180 C   0  0  0  0  0  0  0  0  0  0  0  0
  -51.5815  100.0068   23.8438 C   0  0  2  0  0  0  0  0  0  0  0  0
  -52.5080   99.1336   24.5812 C   0  0  0  0  0  0  0  0  0  0  0  0
  -52.0500  100.1263   22.3924 C   0  0  0  0  0  0  0  0  0  0  0  0
  -49.6268  102.9702   21.2381 C   0  0  0  0  0  0  0  0  0  0  0  0
  -48.4338  102.0122   21.1424 C   0  0  0  0  0  0  0  0  0  0  0  0
  -48.0340  101.4131   22.4740 C   0  0  0  0  0  0  0  0  0  0  0  0
  -48.2108   99.8909   22.5243 C   0  0  0  0  0  0  0  0  0  0  0  0
  -49.6656   99.4089   22.4625 C   0  0  1  0  0  0  0  0  0  0  0  0
  -49.7416   98.0213   21.8766 C   0  0  0  0  0  0  0  0  0  0  0  0
  -50.7988   95.7774   21.7993 C   0  0  1  0  0  0  0  0  0  0  0  0
  -51.2684   95.9226   20.3592 C   0  0  0  0  0  0  0  0  0  0  0  0
  -53.1865  101.1207   22.2721 C   0  0  0  0  0  0  0  0  0  0  0  0
  -54.4466  100.5655   21.5868 C   0  0  0  0  0  0  0  0  0  0  0  0
  -54.5125   99.2086   21.3403 C   0  0  0  0  0  0  0  0  0  0  0  0
  -55.6584   98.6896   20.7356 C   0  0  0  0  0  0  0  0  0  0  0  0
  -56.6844   99.5347   20.3742 C   0  0  0  0  0  0  0  0  0  0  0  0
  -56.6206  100.8898   20.6130 C   0  0  0  0  0  0  0  0  0  0  0  0
  -55.4900  101.4070   21.2238 C   0  0  0  0  0  0  0  0  0  0  0  0
  -50.6899   97.1024   22.3960 N   0  0  0  0  0  0  0  0  0  0  0  0
  -50.2214   99.4285   23.8293 N   0  0  0  0  0  0  0  0  0  0  0  0
  -52.3330   96.5748   20.0810 O   0  0  0  0  0  0  0  0  0  0  0  0
  -50.6258   95.3580   19.4602 O   0  0  0  0  0  0  0  0  0  0  0  0
  -50.9664   94.4280   28.1597 O   0  0  0  0  0  0  0  0  0  0  0  0
  -49.0089   97.6634   20.9789 O   0  0  0  0  0  0  0  0  0  0  0  0
  -53.5341   98.4028   24.1119 O   0  0  0  0  0  0  0  0  0  0  0  0
  -52.5627   99.0593   25.8834 O   0  0  0  0  0  0  0  0  0  0  0  0
  -49.6652   93.6531   23.8422 H   0  0  0  0  0  0  0  0  0  0  0  0
  -51.6751   93.8744   22.0948 H   0  0  0  0  0  0  0  0  0  0  0  0
  -52.7353   95.3498   22.4442 H   0  0  0  0  0  0  0  0  0  0  0  0
  -49.3173   93.4494   26.3194 H   0  0  0  0  0  0  0  0  0  0  0  0
  -53.0118   95.5486   26.9738 H   0  0  0  0  0  0  0  0  0  0  0  0
  -53.3322   95.7984   24.5269 H   0  0  0  0  0  0  0  0  0  0  0  0
  -51.5644  100.9888   24.3391 H   0  0  0  0  0  0  0  0  0  0  0  0
  -51.2088  100.4633   21.7688 H   0  0  0  0  0  0  0  0  0  0  0  0
  -52.4070   99.1417   22.0558 H   0  0  0  0  0  0  0  0  0  0  0  0
  -49.8616  103.1588   22.2961 H   0  0  0  0  0  0  0  0  0  0  0  0
  -49.3750  103.9199   20.7435 H   0  0  0  0  0  0  0  0  0  0  0  0
  -50.4997  102.5193   20.7435 H   0  0  0  0  0  0  0  0  0  0  0  0
  -48.6986  101.1933   20.4573 H   0  0  0  0  0  0  0  0  0  0  0  0
  -47.5761  102.5977   20.7798 H   0  0  0  0  0  0  0  0  0  0  0  0
  -46.9761  101.6493   22.6609 H   0  0  0  0  0  0  0  0  0  0  0  0
  -48.6936  101.8460   23.2404 H   0  0  0  0  0  0  0  0  0  0  0  0
  -47.6697   99.4553   21.6714 H   0  0  0  0  0  0  0  0  0  0  0  0
  -47.8186   99.5661   23.4994 H   0  0  0  0  0  0  0  0  0  0  0  0
  -50.2519  100.0752   21.8125 H   0  0  0  0  0  0  0  0  0  0  0  0
  -49.8041   95.3104   21.8490 H   0  0  0  0  0  0  0  0  0  0  0  0
  -53.4627  101.4516   23.2841 H   0  0  0  0  0  0  0  0  0  0  0  0
  -52.8198  101.9413   21.6379 H   0  0  0  0  0  0  0  0  0  0  0  0
  -53.6769   98.5484   21.6157 H   0  0  0  0  0  0  0  0  0  0  0  0
  -55.7420   97.6089   20.5482 H   0  0  0  0  0  0  0  0  0  0  0  0
  -57.5760   99.1175   19.8831 H   0  0  0  0  0  0  0  0  0  0  0  0
  -57.4522  101.5492   20.3239 H   0  0  0  0  0  0  0  0  0  0  0  0
  -55.4186  102.4867   21.4218 H   0  0  0  0  0  0  0  0  0  0  0  0
  -51.2947   97.3690   23.1860 H   0  0  0  0  0  0  0  0  0  0  0  0
  -49.6088   99.9950   24.4332 H   0  0  0  0  0  0  0  0  0  0  0  0
  -50.2748   98.4594   24.1741 H   0  0  0  0  0  0  0  0  0  0  0  0
  -51.6362   94.8260   28.7705 H   0  0  0  0  0  0  0  0  0  0  0  0
  1  3  2  0
  1  4  1  0
  2  3  1  0
 17  2  1  0
  3  7  1  0
  4  5  2  0
  5  6  1  0
  5 30  1  0
  6  7  2  0
  8  9  1  0
  8 10  1  0
  8 27  1  0
  9 32  2  0
  9 33  1  0
 10 19  1  0
 11 12  1  0
 12 13  1  0
 13 14  1  0
 15 14  1  0
 15 16  1  0
 15 27  1  0
 16 26  1  0
 16 31  2  0
 17 18  1  0
 17 26  1  0
 18 28  2  0
 18 29  1  0
 19 20  1  0
 20 21  2  0
 20 25  1  0
 21 22  1  0
 22 23  2  0
 23 24  1  0
 24 25  2  0
  1 34  1  0
  2 35  1  0
  2 36  1  0
  4 37  1  0
  6 38  1  0
  7 39  1  0
  8 40  1  1
 10 41  1  0
 10 42  1  0
 11 43  1  0
 11 44  1  0
 11 45  1  0
 12 46  1  0
 12 47  1  0
 13 48  1  0
 13 49  1  0
 14 50  1  0
 14 51  1  0
 15 52  1  6
 17 53  1  6
 19 54  1  0
 19 55  1  0
 21 56  1  0
 22 57  1  0
 23 58  1  0
 24 59  1  0
 25 60  1  0
 26 61  1  0
 27 62  1  0
 27 63  1  0
 30 64  1  0
M  CHG  3  27   1  29  -1  33  -1
M  END
>  <filename_input>  (10) 
7Q25_8J9_docked.sdf

>  <pdb_id>  (10) 
7Q25_8J9

>  <pose_rank>  (10) 
9

>  <num_atoms_heavy>  (10) 
33

>  <num_torsions>  (10) 
14

>  <pose>  (10) 
[-49.66563973530849, 99.40893433925113, 22.462481385166676, 2.2812746704823583, 2.844740663894903, 3.3003305810712598, -2.1830012391107863, -0.040026498653910655, -0.46830323222884407, -1.5259016468809838, 3.5320570017267006, 1.6206101508355748, -2.2812368149853324, -0.8947798974268977, -0.6159142234065813, 3.3061583442984404, 2.1781035713329593, 0.02461886016075227, 1.0655553142939127, -2.598951374520443]

>  <energy>  (10) 
-636.9397522628229

>  <inter_energy>  (10) 
-683.2255823723181

>  <intra_energy>  (10) 
50.88640294243802

>  <rmsd>  (10) 
7.97513

>  <sdf_rank>  (10) 
0

$$$$

     RDKit          3D

 64 65  0  0  0  0  0  0  0  0999 V2000
  -54.1631   99.9959   21.8044 C   0  0  0  0  0  0  0  0  0  0  0  0
  -53.0093   98.3710   23.3725 C   0  0  0  0  0  0  0  0  0  0  0  0
  -53.5838   98.7610   22.0113 C   0  0  0  0  0  0  0  0  0  0  0  0
  -54.6770  100.3366   20.5490 C   0  0  0  0  0  0  0  0  0  0  0  0
  -54.5816   99.4087   19.5313 C   0  0  0  0  0  0  0  0  0  0  0  0
  -54.0329   98.1693   19.7393 C   0  0  0  0  0  0  0  0  0  0  0  0
  -53.5136   97.8418   20.9721 C   0  0  0  0  0  0  0  0  0  0  0  0
  -51.4328   92.9437   27.1590 C   0  0  2  0  0  0  0  0  0  0  0  0
  -51.2757   93.6812   28.4224 C   0  0  0  0  0  0  0  0  0  0  0  0
  -50.0928   92.3143   26.7736 C   0  0  0  0  0  0  0  0  0  0  0  0
  -46.0113   94.5103   27.3240 C   0  0  0  0  0  0  0  0  0  0  0  0
  -47.1583   94.7831   26.3441 C   0  0  0  0  0  0  0  0  0  0  0  0
  -48.4543   94.1021   26.7291 C   0  0  0  0  0  0  0  0  0  0  0  0
  -49.4436   93.9917   25.5630 C   0  0  0  0  0  0  0  0  0  0  0  0
  -50.7377   94.7964   25.7377 C   0  0  1  0  0  0  0  0  0  0  0  0
  -51.0591   95.5658   24.4810 C   0  0  0  0  0  0  0  0  0  0  0  0
  -51.6654   97.6969   23.3631 C   0  0  1  0  0  0  0  0  0  0  0  0
  -50.5781   98.7475   23.1920 C   0  0  0  0  0  0  0  0  0  0  0  0
  -50.0020   90.8879   27.2759 C   0  0  0  0  0  0  0  0  0  0  0  0
  -49.0762   90.6997   28.4897 C   0  0  0  0  0  0  0  0  0  0  0  0
  -48.9825   89.4420   29.0514 C   0  0  0  0  0  0  0  0  0  0  0  0
  -48.1317   89.2538   30.1419 C   0  0  0  0  0  0  0  0  0  0  0  0
  -47.4259   90.3213   30.6517 C   0  0  0  0  0  0  0  0  0  0  0  0
  -47.5206   91.5790   30.0980 C   0  0  0  0  0  0  0  0  0  0  0  0
  -48.3547   91.7670   29.0082 C   0  0  0  0  0  0  0  0  0  0  0  0
  -51.4021   96.9391   24.5797 N   0  0  0  0  0  0  0  0  0  0  0  0
  -51.8283   93.8588   26.0678 N   0  0  0  0  0  0  0  0  0  0  0  0
  -50.7936   99.8063   22.5074 O   0  0  0  0  0  0  0  0  0  0  0  0
  -49.4607   98.5393   23.6900 O   0  0  0  0  0  0  0  0  0  0  0  0
  -55.0925   99.7210   18.2528 O   0  0  0  0  0  0  0  0  0  0  0  0
  -51.0419   95.0427   23.3870 O   0  0  0  0  0  0  0  0  0  0  0  0
  -52.2045   94.3394   29.1373 O   0  0  0  0  0  0  0  0  0  0  0  0
  -50.1237   93.9424   28.9782 O   0  0  0  0  0  0  0  0  0  0  0  0
  -54.2212  100.7176   22.6326 H   0  0  0  0  0  0  0  0  0  0  0  0
  -52.9193   99.2883   23.9729 H   0  0  0  0  0  0  0  0  0  0  0  0
  -53.7071   97.6254   23.7812 H   0  0  0  0  0  0  0  0  0  0  0  0
  -55.1445  101.3174   20.3771 H   0  0  0  0  0  0  0  0  0  0  0  0
  -54.0075   97.4356   18.9201 H   0  0  0  0  0  0  0  0  0  0  0  0
  -53.0464   96.8590   21.1329 H   0  0  0  0  0  0  0  0  0  0  0  0
  -52.2074   92.1757   27.3015 H   0  0  0  0  0  0  0  0  0  0  0  0
  -49.9952   92.3173   25.6779 H   0  0  0  0  0  0  0  0  0  0  0  0
  -49.2835   92.9011   27.2327 H   0  0  0  0  0  0  0  0  0  0  0  0
  -46.3819   94.5984   28.3559 H   0  0  0  0  0  0  0  0  0  0  0  0
  -45.6224   93.4946   27.1596 H   0  0  0  0  0  0  0  0  0  0  0  0
  -45.2067   95.2421   27.1596 H   0  0  0  0  0  0  0  0  0  0  0  0
  -47.3329   95.8684   26.3056 H   0  0  0  0  0  0  0  0  0  0  0  0
  -46.8551   94.3752   25.3686 H   0  0  0  0  0  0  0  0  0  0  0  0
  -48.2240   93.0889   27.0902 H   0  0  0  0  0  0  0  0  0  0  0  0
  -48.9304   94.7174   27.5068 H   0  0  0  0  0  0  0  0  0  0  0  0
  -48.9398   94.3478   24.6522 H   0  0  0  0  0  0  0  0  0  0  0  0
  -49.7418   92.9343   25.5094 H   0  0  0  0  0  0  0  0  0  0  0  0
  -50.6157   95.5269   26.5510 H   0  0  0  0  0  0  0  0  0  0  0  0
  -51.6671   96.9848   22.5247 H   0  0  0  0  0  0  0  0  0  0  0  0
  -51.0123   90.5580   27.5594 H   0  0  0  0  0  0  0  0  0  0  0  0
  -49.5708   90.2935   26.4569 H   0  0  0  0  0  0  0  0  0  0  0  0
  -49.5678   88.6031   28.6468 H   0  0  0  0  0  0  0  0  0  0  0  0
  -48.0253   88.2562   30.5928 H   0  0  0  0  0  0  0  0  0  0  0  0
  -46.7710   90.1655   31.5217 H   0  0  0  0  0  0  0  0  0  0  0  0
  -46.9444   92.4187   30.5137 H   0  0  0  0  0  0  0  0  0  0  0  0
  -48.4458   92.7640   28.5525 H   0  0  0  0  0  0  0  0  0  0  0  0
  -51.4642   97.3954   25.5010 H   0  0  0  0  0  0  0  0  0  0  0  0
  -52.0596   93.3042   25.2312 H   0  0  0  0  0  0  0  0  0  0  0  0
  -52.6450   94.4040   26.3786 H   0  0  0  0  0  0  0  0  0  0  0  0
  -55.0272   99.0600   17.5187 H   0  0  0  0  0  0  0  0  0  0  0  0
  1  3  2  0
  1  4  1  0
  2  3  1  0
 17  2  1  0
  3  7  1  0
  4  5  2  0
  5  6  1  0
  5 30  1  0
  6  7  2  0
  8  9  1  0
  8 10  1  0
  8 27  1  0
  9 32  2  0
  9 33  1  0
 10 19  1  0
 11 12  1  0
 12 13  1  0
 13 14  1  0
 15 14  1  0
 15 16  1  0
 15 27  1  0
 16 26  1  0
 16 31  2  0
 17 18  1  0
 17 26  1  0
 18 28  2  0
 18 29  1  0
 19 20  1  0
 20 21  2  0
 20 25  1  0
 21 22  1  0
 22 23  2  0
 23 24  1  0
 24 25  2  0
  1 34  1  0
  2 35  1  0
  2 36  1  0
  4 37  1  0
  6 38  1  0
  7 39  1  0
  8 40  1  1
 10 41  1  0
 10 42  1  0
 11 43  1  0
 11 44  1  0
 11 45  1  0
 12 46  1  0
 12 47  1  0
 13 48  1  0
 13 49  1  0
 14 50  1  0
 14 51  1  0
 15 52  1  1
 17 53  1  6
 19 54  1  0
 19 55  1  0
 21 56  1  0
 22 57  1  0
 23 58  1  0
 24 59  1  0
 25 60  1  0
 26 61  1  0
 27 62  1  0
 27 63  1  0
 30 64  1  0
M  CHG  3  27   1  29  -1  33  -1
M  END
>  <filename_input>  (11) 
7Q25_8J9_docked.sdf

>  <pdb_id>  (11) 
7Q25_8J9

>  <pose_rank>  (11) 
10

>  <num_atoms_heavy>  (11) 
33

>  <num_torsions>  (11) 
14

>  <pose>  (11) 
[-50.73769747999392, 94.79638801838863, 25.73767753684006, -1.2072598147547458, -0.6836397707167173, 4.08629167870375, -0.6974936873358052, 5.380916777654974, -2.2465973712044223, -3.388291817686356, 2.3640304645328984, -5.004345753730647, 3.167269652017193, 0.5423104006996782, 4.150763460637413, 2.209230381122886, -1.040985378380634, 0.279382239193456, 1.4154170205230012, 0.32148464699927376]

>  <energy>  (11) 
-397.037458693231

>  <inter_energy>  (11) 
-624.0539241187731

>  <intra_energy>  (11) 
223.2040608352545

>  <rmsd>  (11) 
3.60293

>  <sdf_rank>  (11) 
0

$$$$

     RDKit          3D

 64 65  0  0  0  0  0  0  0  0999 V2000
  -55.2366  102.0308   21.4361 C   0  0  0  0  0  0  0  0  0  0  0  0
  -53.6065  101.5159   19.5632 C   0  0  0  0  0  0  0  0  0  0  0  0
  -54.9214  101.2980   20.3105 C   0  0  0  0  0  0  0  0  0  0  0  0
  -56.4486  101.8213   22.1020 C   0  0  0  0  0  0  0  0  0  0  0  0
  -57.3139  100.8709   21.5984 C   0  0  0  0  0  0  0  0  0  0  0  0
  -56.9928  100.1197   20.4970 C   0  0  0  0  0  0  0  0  0  0  0  0
  -55.8057  100.3385   19.8338 C   0  0  0  0  0  0  0  0  0  0  0  0
  -50.6142   95.9421   22.1598 C   0  0  2  0  0  0  0  0  0  0  0  0
  -51.0530   95.3003   20.9107 C   0  0  0  0  0  0  0  0  0  0  0  0
  -51.4095   95.3613   23.3305 C   0  0  0  0  0  0  0  0  0  0  0  0
  -53.4213   99.5619   25.7792 C   0  0  0  0  0  0  0  0  0  0  0  0
  -54.3688   99.9108   24.6257 C   0  0  0  0  0  0  0  0  0  0  0  0
  -53.8992   99.3932   23.2829 C   0  0  0  0  0  0  0  0  0  0  0  0
  -52.6053   98.5757   23.3740 C   0  0  0  0  0  0  0  0  0  0  0  0
  -52.3239   97.6779   22.1627 C   0  0  1  0  0  0  0  0  0  0  0  0
  -52.7759   98.3467   20.8887 C   0  0  0  0  0  0  0  0  0  0  0  0
  -52.7429  100.3019   19.3607 C   0  0  1  0  0  0  0  0  0  0  0  0
  -51.4908  100.6991   18.5926 C   0  0  0  0  0  0  0  0  0  0  0  0
  -50.7383   95.6808   24.6505 C   0  0  0  0  0  0  0  0  0  0  0  0
  -50.7174   94.5132   25.6515 C   0  0  0  0  0  0  0  0  0  0  0  0
  -49.6764   93.6092   25.5797 C   0  0  0  0  0  0  0  0  0  0  0  0
  -49.6360   92.5555   26.4943 C   0  0  0  0  0  0  0  0  0  0  0  0
  -50.6397   92.4208   27.4282 C   0  0  0  0  0  0  0  0  0  0  0  0
  -51.6832   93.3170   27.4998 C   0  0  0  0  0  0  0  0  0  0  0  0
  -51.7203   94.3708   26.6016 C   0  0  0  0  0  0  0  0  0  0  0  0
  -52.3477   99.6712   20.6136 N   0  0  0  0  0  0  0  0  0  0  0  0
  -50.8761   97.3962   22.1178 N   0  0  0  0  0  0  0  0  0  0  0  0
  -50.4608  101.1449   19.2064 O   0  0  0  0  0  0  0  0  0  0  0  0
  -51.5003  100.6270   17.3538 O   0  0  0  0  0  0  0  0  0  0  0  0
  -58.5445  100.6340   22.2485 O   0  0  0  0  0  0  0  0  0  0  0  0
  -53.5031   97.7885   20.0947 O   0  0  0  0  0  0  0  0  0  0  0  0
  -50.6497   95.5402   19.6510 O   0  0  0  0  0  0  0  0  0  0  0  0
  -52.0571   94.4702   20.8287 O   0  0  0  0  0  0  0  0  0  0  0  0
  -54.5299  102.7851   21.8124 H   0  0  0  0  0  0  0  0  0  0  0  0
  -53.8493  101.9230   18.5705 H   0  0  0  0  0  0  0  0  0  0  0  0
  -53.0166  102.1908   20.2008 H   0  0  0  0  0  0  0  0  0  0  0  0
  -56.7054  102.3983   23.0027 H   0  0  0  0  0  0  0  0  0  0  0  0
  -57.6844   99.3412   20.1426 H   0  0  0  0  0  0  0  0  0  0  0  0
  -55.5595   99.7575   18.9329 H   0  0  0  0  0  0  0  0  0  0  0  0
  -49.5362   95.7603   22.2813 H   0  0  0  0  0  0  0  0  0  0  0  0
  -52.4217   95.7921   23.3274 H   0  0  0  0  0  0  0  0  0  0  0  0
  -51.4572   94.2684   23.2155 H   0  0  0  0  0  0  0  0  0  0  0  0
  -53.9270   99.7481   26.7382 H   0  0  0  0  0  0  0  0  0  0  0  0
  -53.1389   98.5008   25.7136 H   0  0  0  0  0  0  0  0  0  0  0  0
  -52.5182  100.1865   25.7136 H   0  0  0  0  0  0  0  0  0  0  0  0
  -55.3556   99.4751   24.8414 H   0  0  0  0  0  0  0  0  0  0  0  0
  -54.4043  101.0080   24.5559 H   0  0  0  0  0  0  0  0  0  0  0  0
  -54.6879   98.7547   22.8582 H   0  0  0  0  0  0  0  0  0  0  0  0
  -53.6917  100.2673   22.6481 H   0  0  0  0  0  0  0  0  0  0  0  0
  -51.7647   99.2768   23.4827 H   0  0  0  0  0  0  0  0  0  0  0  0
  -52.7245   97.9032   24.2363 H   0  0  0  0  0  0  0  0  0  0  0  0
  -52.8838   96.7359   22.2586 H   0  0  0  0  0  0  0  0  0  0  0  0
  -53.3408   99.5705   18.7973 H   0  0  0  0  0  0  0  0  0  0  0  0
  -49.6989   95.9766   24.4452 H   0  0  0  0  0  0  0  0  0  0  0  0
  -51.3284   96.4836   25.1166 H   0  0  0  0  0  0  0  0  0  0  0  0
  -48.8927   93.7175   24.8155 H   0  0  0  0  0  0  0  0  0  0  0  0
  -48.8053   91.8349   26.4693 H   0  0  0  0  0  0  0  0  0  0  0  0
  -50.6070   91.5773   28.1335 H   0  0  0  0  0  0  0  0  0  0  0  0
  -52.4727   93.1981   28.2565 H   0  0  0  0  0  0  0  0  0  0  0  0
  -52.5460   95.0966   26.6409 H   0  0  0  0  0  0  0  0  0  0  0  0
  -51.7640  100.1812   21.2919 H   0  0  0  0  0  0  0  0  0  0  0  0
  -50.4215   97.8432   22.9268 H   0  0  0  0  0  0  0  0  0  0  0  0
  -50.4976   97.7710   21.2363 H   0  0  0  0  0  0  0  0  0  0  0  0
  -59.1695   99.9538   21.8925 H   0  0  0  0  0  0  0  0  0  0  0  0
  1  3  2  0
  1  4  1  0
  2  3  1  0
 17  2  1  0
  3  7  1  0
  4  5  2  0
  5  6  1  0
  5 30  1  0
  6  7  2  0
  8  9  1  0
  8 10  1  0
  8 27  1  0
  9 32  2  0
  9 33  1  0
 10 19  1  0
 11 12  1  0
 12 13  1  0
 13 14  1  0
 15 14  1  0
 15 16  1  0
 15 27  1  0
 16 26  1  0
 16 31  2  0
 17 18  1  0
 17 26  1  0
 18 28  2  0
 18 29  1  0
 19 20  1  0
 20 21  2  0
 20 25  1  0
 21 22  1  0
 22 23  2  0
 23 24  1  0
 24 25  2  0
  1 34  1  0
  2 35  1  0
  2 36  1  0
  4 37  1  0
  6 38  1  0
  7 39  1  0
  8 40  1  1
 10 41  1  0
 10 42  1  0
 11 43  1  0
 11 44  1  0
 11 45  1  0
 12 46  1  0
 12 47  1  0
 13 48  1  0
 13 49  1  0
 14 50  1  0
 14 51  1  0
 15 52  1  1
 17 53  1  6
 19 54  1  0
 19 55  1  0
 21 56  1  0
 22 57  1  0
 23 58  1  0
 24 59  1  0
 25 60  1  0
 26 61  1  0
 27 62  1  0
 27 63  1  0
 30 64  1  0
M  CHG  3  27   1  29  -1  33  -1
M  END
>  <filename_input>  (12) 
7Q25_8J9_docked.sdf

>  <pdb_id>  (12) 
7Q25_8J9

>  <pose_rank>  (12) 
11

>  <num_atoms_heavy>  (12) 
33

>  <num_torsions>  (12) 
14

>  <pose>  (12) 
[-52.32393711945874, 97.67786276464182, 22.162653604737788, 0.9493661003438164, 0.3636571475309332, 0.6632643610384059, 8.788407366997225, 17.80764877056106, -0.17936307027189738, -14.20983617000913, 6.908074488842042, 5.856126405866261, 1.7120528477941568, 3.404713528568082, -7.137734070512228, -10.330281141694343, 5.158769306218253, 7.775786622056429, 0.8539516631694093, -1.2538125867201442]

>  <energy>  (12) 
-605.340891175741

>  <inter_energy>  (12) 
-642.0535348015579

>  <intra_energy>  (12) 
25.163928602511547

>  <rmsd>  (12) 
4.53555

>  <sdf_rank>  (12) 
0

$$$$

     RDKit          3D

 64 65  0  0  0  0  0  0  0  0999 V2000
  -46.8523  100.1727   21.0531 C   0  0  0  0  0  0  0  0  0  0  0  0
  -49.0468   99.2619   21.9392 C   0  0  0  0  0  0  0  0  0  0  0  0
  -48.1026  100.4102   21.5857 C   0  0  0  0  0  0  0  0  0  0  0  0
  -46.0055  101.2378   20.7295 C   0  0  0  0  0  0  0  0  0  0  0  0
  -46.4588  102.5225   20.9524 C   0  0  0  0  0  0  0  0  0  0  0  0
  -47.6890  102.7633   21.5083 C   0  0  0  0  0  0  0  0  0  0  0  0
  -48.5273  101.7134   21.8117 C   0  0  0  0  0  0  0  0  0  0  0  0
  -51.7608   95.9909   24.5508 C   0  0  2  0  0  0  0  0  0  0  0  0
  -51.5146   94.8800   23.6181 C   0  0  0  0  0  0  0  0  0  0  0  0
  -51.8662   95.4394   25.9738 C   0  0  0  0  0  0  0  0  0  0  0  0
  -57.1549   99.8405   21.9759 C   0  0  0  0  0  0  0  0  0  0  0  0
  -55.6722   99.4990   21.7896 C   0  0  0  0  0  0  0  0  0  0  0  0
  -55.0990   98.6681   22.9178 C   0  0  0  0  0  0  0  0  0  0  0  0
  -54.5810   97.3017   22.4536 C   0  0  0  0  0  0  0  0  0  0  0  0
  -53.1155   97.0154   22.8040 C   0  0  1  0  0  0  0  0  0  0  0  0
  -52.2529   98.2158   22.5049 C   0  0  0  0  0  0  0  0  0  0  0  0
  -50.3828   99.2578   21.2496 C   0  0  1  0  0  0  0  0  0  0  0  0
  -50.1705   99.3040   19.7436 C   0  0  0  0  0  0  0  0  0  0  0  0
  -52.1054   93.9436   25.9567 C   0  0  0  0  0  0  0  0  0  0  0  0
  -51.2563   93.1529   26.9664 C   0  0  0  0  0  0  0  0  0  0  0  0
  -50.1478   93.7688   27.5122 C   0  0  0  0  0  0  0  0  0  0  0  0
  -49.3793   93.0685   28.4435 C   0  0  0  0  0  0  0  0  0  0  0  0
  -49.7208   91.7772   28.7805 C   0  0  0  0  0  0  0  0  0  0  0  0
  -50.8226   91.1568   28.2342 C   0  0  0  0  0  0  0  0  0  0  0  0
  -51.5946   91.8528   27.3186 C   0  0  0  0  0  0  0  0  0  0  0  0
  -51.1871   98.0875   21.5772 N   0  0  0  0  0  0  0  0  0  0  0  0
  -53.0390   96.6624   24.2348 N   0  0  0  0  0  0  0  0  0  0  0  0
  -49.4774   98.4056   19.1530 O   0  0  0  0  0  0  0  0  0  0  0  0
  -50.6431  100.2547   19.1012 O   0  0  0  0  0  0  0  0  0  0  0  0
  -45.6275  103.6195   20.6383 O   0  0  0  0  0  0  0  0  0  0  0  0
  -52.4378   99.2877   23.0414 O   0  0  0  0  0  0  0  0  0  0  0  0
  -52.3406   94.3493   22.6999 O   0  0  0  0  0  0  0  0  0  0  0  0
  -50.4582   94.1140   23.6559 O   0  0  0  0  0  0  0  0  0  0  0  0
  -46.5191   99.1384   20.8817 H   0  0  0  0  0  0  0  0  0  0  0  0
  -48.5373   98.3202   21.6871 H   0  0  0  0  0  0  0  0  0  0  0  0
  -49.2707   99.3868   23.0089 H   0  0  0  0  0  0  0  0  0  0  0  0
  -45.0055  101.0567   20.3087 H   0  0  0  0  0  0  0  0  0  0  0  0
  -48.0069  103.7964   21.7122 H   0  0  0  0  0  0  0  0  0  0  0  0
  -49.5263  101.9056   22.2302 H   0  0  0  0  0  0  0  0  0  0  0  0
  -50.9307   96.7072   24.4615 H   0  0  0  0  0  0  0  0  0  0  0  0
  -50.9295   95.6483   26.5115 H   0  0  0  0  0  0  0  0  0  0  0  0
  -52.7146   95.9256   26.4776 H   0  0  0  0  0  0  0  0  0  0  0  0
  -57.3868   99.8939   23.0499 H   0  0  0  0  0  0  0  0  0  0  0  0
  -57.3694  100.8116   21.5058 H   0  0  0  0  0  0  0  0  0  0  0  0
  -57.7726   99.0611   21.5058 H   0  0  0  0  0  0  0  0  0  0  0  0
  -55.5593   98.9369   20.8508 H   0  0  0  0  0  0  0  0  0  0  0  0
  -55.1198  100.4501   21.7745 H   0  0  0  0  0  0  0  0  0  0  0  0
  -54.2651   99.2228   23.3728 H   0  0  0  0  0  0  0  0  0  0  0  0
  -55.9114   98.4847   23.6365 H   0  0  0  0  0  0  0  0  0  0  0  0
  -55.2027   96.5236   22.9206 H   0  0  0  0  0  0  0  0  0  0  0  0
  -54.6414   97.3050   21.3552 H   0  0  0  0  0  0  0  0  0  0  0  0
  -52.7426   96.1796   22.1938 H   0  0  0  0  0  0  0  0  0  0  0  0
  -50.9310  100.1440   21.6022 H   0  0  0  0  0  0  0  0  0  0  0  0
  -53.1665   93.7623   26.1829 H   0  0  0  0  0  0  0  0  0  0  0  0
  -51.8139   93.5904   24.9566 H   0  0  0  0  0  0  0  0  0  0  0  0
  -49.8751   94.7932   27.2184 H   0  0  0  0  0  0  0  0  0  0  0  0
  -48.5036   93.5464   28.9070 H   0  0  0  0  0  0  0  0  0  0  0  0
  -49.0988   91.2285   29.5030 H   0  0  0  0  0  0  0  0  0  0  0  0
  -51.0846   90.1273   28.5198 H   0  0  0  0  0  0  0  0  0  0  0  0
  -52.4776   91.3747   26.8694 H   0  0  0  0  0  0  0  0  0  0  0  0
  -50.9840   97.1773   21.1400 H   0  0  0  0  0  0  0  0  0  0  0  0
  -53.8177   96.0294   24.4670 H   0  0  0  0  0  0  0  0  0  0  0  0
  -53.0985   97.5288   24.7886 H   0  0  0  0  0  0  0  0  0  0  0  0
  -45.9466  104.5434   20.7958 H   0  0  0  0  0  0  0  0  0  0  0  0
  1  3  2  0
  1  4  1  0
  2  3  1  0
 17  2  1  0
  3  7  1  0
  4  5  2  0
  5  6  1  0
  5 30  1  0
  6  7  2  0
  8  9  1  0
  8 10  1  0
  8 27  1  0
  9 32  2  0
  9 33  1  0
 10 19  1  0
 11 12  1  0
 12 13  1  0
 13 14  1  0
 15 14  1  0
 15 16  1  0
 15 27  1  0
 16 26  1  0
 16 31  2  0
 17 18  1  0
 17 26  1  0
 18 28  2  0
 18 29  1  0
 19 20  1  0
 20 21  2  0
 20 25  1  0
 21 22  1  0
 22 23  2  0
 23 24  1  0
 24 25  2  0
  1 34  1  0
  2 35  1  0
  2 36  1  0
  4 37  1  0
  6 38  1  0
  7 39  1  0
  8 40  1  1
 10 41  1  0
 10 42  1  0
 11 43  1  0
 11 44  1  0
 11 45  1  0
 12 46  1  0
 12 47  1  0
 13 48  1  0
 13 49  1  0
 14 50  1  0
 14 51  1  0
 15 52  1  6
 17 53  1  1
 19 54  1  0
 19 55  1  0
 21 56  1  0
 22 57  1  0
 23 58  1  0
 24 59  1  0
 25 60  1  0
 26 61  1  0
 27 62  1  0
 27 63  1  0
 30 64  1  0
M  CHG  3  27   1  29  -1  33  -1
M  END
>  <filename_input>  (13) 
7Q25_8J9_docked.sdf

>  <pdb_id>  (13) 
7Q25_8J9

>  <pose_rank>  (13) 
12

>  <num_atoms_heavy>  (13) 
33

>  <num_torsions>  (13) 
14

>  <pose>  (13) 
[-53.11548885915035, 97.01536147837076, 22.80401762557847, -1.0156939401349456, 2.388784284464475, -3.397257317709134, -0.4933396596539283, -1.2897429730357646, -0.6831624504955255, 2.4680185864368367, 2.6109866766281717, 4.449575344004601, 1.0573547011063245, -0.8501124514698993, -0.1438471918857996, 0.14360759299552667, 3.9660651322003053, -1.6613405733199915, -0.6499251507512352, -3.064712365188582]

>  <energy>  (13) 
-547.5405107521326

>  <inter_energy>  (13) 
-616.4365442939398

>  <intra_energy>  (13) 
68.0880405999108

>  <rmsd>  (13) 
5.50556

>  <sdf_rank>  (13) 
0

$$$$

     RDKit          3D

 64 65  0  0  0  0  0  0  0  0999 V2000
  -50.1307   93.1858   25.0808 C   0  0  0  0  0  0  0  0  0  0  0  0
  -52.0319   94.7680   24.5218 C   0  0  0  0  0  0  0  0  0  0  0  0
  -51.2012   93.9452   25.5057 C   0  0  0  0  0  0  0  0  0  0  0  0
  -49.3783   92.4451   25.9983 C   0  0  0  0  0  0  0  0  0  0  0  0
  -49.7342   92.5023   27.3308 C   0  0  0  0  0  0  0  0  0  0  0  0
  -50.8149   93.2325   27.7544 C   0  0  0  0  0  0  0  0  0  0  0  0
  -51.5447   93.9733   26.8515 C   0  0  0  0  0  0  0  0  0  0  0  0
  -54.2288   99.0972   20.6745 C   0  0  2  0  0  0  0  0  0  0  0  0
  -53.0171   98.9838   19.8477 C   0  0  0  0  0  0  0  0  0  0  0  0
  -53.8735   99.7781   21.9976 C   0  0  0  0  0  0  0  0  0  0  0  0
  -58.1857   94.5022   22.5978 C   0  0  0  0  0  0  0  0  0  0  0  0
  -57.4074   95.1251   21.4332 C   0  0  0  0  0  0  0  0  0  0  0  0
  -57.0400   96.5758   21.6616 C   0  0  0  0  0  0  0  0  0  0  0  0
  -56.0519   96.7696   22.8179 C   0  0  0  0  0  0  0  0  0  0  0  0
  -54.7618   97.5110   22.4453 C   0  0  1  0  0  0  0  0  0  0  0  0
  -53.5512   96.7032   22.8407 C   0  0  0  0  0  0  0  0  0  0  0  0
  -51.7097   96.2341   24.4369 C   0  0  1  0  0  0  0  0  0  0  0  0
  -50.5757   96.4421   23.4438 C   0  0  0  0  0  0  0  0  0  0  0  0
  -53.5215  101.2350   21.7775 C   0  0  0  0  0  0  0  0  0  0  0  0
  -52.0140  101.5376   21.8192 C   0  0  0  0  0  0  0  0  0  0  0  0
  -51.2058  100.7272   22.5914 C   0  0  0  0  0  0  0  0  0  0  0  0
  -49.8334  100.9800   22.6232 C   0  0  0  0  0  0  0  0  0  0  0  0
  -49.3157  102.0395   21.9111 C   0  0  0  0  0  0  0  0  0  0  0  0
  -50.1191  102.8540   21.1439 C   0  0  0  0  0  0  0  0  0  0  0  0
  -51.4799  102.5990   21.1003 C   0  0  0  0  0  0  0  0  0  0  0  0
  -52.8504   97.0430   24.0267 N   0  0  0  0  0  0  0  0  0  0  0  0
  -54.7704   97.7588   20.9907 N   0  0  0  0  0  0  0  0  0  0  0  0
  -49.9087   97.5335   23.4319 O   0  0  0  0  0  0  0  0  0  0  0  0
  -50.3370   95.5520   22.6128 O   0  0  0  0  0  0  0  0  0  0  0  0
  -48.9962   91.7647   28.2819 O   0  0  0  0  0  0  0  0  0  0  0  0
  -53.1524   95.7754   22.1692 O   0  0  0  0  0  0  0  0  0  0  0  0
  -51.8112   98.4913   20.1797 O   0  0  0  0  0  0  0  0  0  0  0  0
  -52.8900   99.5112   18.6604 O   0  0  0  0  0  0  0  0  0  0  0  0
  -49.8669   93.1627   24.0132 H   0  0  0  0  0  0  0  0  0  0  0  0
  -51.8895   94.3356   23.5204 H   0  0  0  0  0  0  0  0  0  0  0  0
  -53.0644   94.7172   24.8976 H   0  0  0  0  0  0  0  0  0  0  0  0
  -48.5261   91.8336   25.6669 H   0  0  0  0  0  0  0  0  0  0  0  0
  -51.0992   93.2265   28.8170 H   0  0  0  0  0  0  0  0  0  0  0  0
  -52.3939   94.5831   27.1936 H   0  0  0  0  0  0  0  0  0  0  0  0
  -54.9756   99.6795   20.1147 H   0  0  0  0  0  0  0  0  0  0  0  0
  -54.7352   99.7145   22.6783 H   0  0  0  0  0  0  0  0  0  0  0  0
  -53.0019   99.2674   22.4330 H   0  0  0  0  0  0  0  0  0  0  0  0
  -57.7567   94.8455   23.5507 H   0  0  0  0  0  0  0  0  0  0  0  0
  -59.2406   94.8083   22.5391 H   0  0  0  0  0  0  0  0  0  0  0  0
  -58.1182   93.4058   22.5391 H   0  0  0  0  0  0  0  0  0  0  0  0
  -56.4813   94.5501   21.2859 H   0  0  0  0  0  0  0  0  0  0  0  0
  -58.0630   95.0918   20.5505 H   0  0  0  0  0  0  0  0  0  0  0  0
  -56.5846   96.9709   20.7416 H   0  0  0  0  0  0  0  0  0  0  0  0
  -57.9639   97.1111   21.9258 H   0  0  0  0  0  0  0  0  0  0  0  0
  -56.5589   97.3416   23.6089 H   0  0  0  0  0  0  0  0  0  0  0  0
  -55.7480   95.7617   23.1372 H   0  0  0  0  0  0  0  0  0  0  0  0
  -54.7123   98.4678   22.9858 H   0  0  0  0  0  0  0  0  0  0  0  0
  -51.4200   96.5602   25.4467 H   0  0  0  0  0  0  0  0  0  0  0  0
  -53.9059  101.5368   20.7920 H   0  0  0  0  0  0  0  0  0  0  0  0
  -53.9775  101.7968   22.6060 H   0  0  0  0  0  0  0  0  0  0  0  0
  -51.6357   99.8972   23.1712 H   0  0  0  0  0  0  0  0  0  0  0  0
  -49.1672  100.3351   23.2150 H   0  0  0  0  0  0  0  0  0  0  0  0
  -48.2351  102.2400   21.9563 H   0  0  0  0  0  0  0  0  0  0  0  0
  -49.6878  103.6917   20.5761 H   0  0  0  0  0  0  0  0  0  0  0  0
  -52.1390  103.2387   20.4950 H   0  0  0  0  0  0  0  0  0  0  0  0
  -53.1446   97.8525   24.5916 H   0  0  0  0  0  0  0  0  0  0  0  0
  -55.7388   97.6978   20.6450 H   0  0  0  0  0  0  0  0  0  0  0  0
  -54.1774   97.0505   20.5351 H   0  0  0  0  0  0  0  0  0  0  0  0
  -49.2462   91.8014   29.2391 H   0  0  0  0  0  0  0  0  0  0  0  0
  1  3  2  0
  1  4  1  0
  2  3  1  0
 17  2  1  0
  3  7  1  0
  4  5  2  0
  5  6  1  0
  5 30  1  0
  6  7  2  0
  8  9  1  0
  8 10  1  0
  8 27  1  0
  9 32  2  0
  9 33  1  0
 10 19  1  0
 11 12  1  0
 12 13  1  0
 13 14  1  0
 15 14  1  0
 15 16  1  0
 15 27  1  0
 16 26  1  0
 16 31  2  0
 17 18  1  0
 17 26  1  0
 18 28  2  0
 18 29  1  0
 19 20  1  0
 20 21  2  0
 20 25  1  0
 21 22  1  0
 22 23  2  0
 23 24  1  0
 24 25  2  0
  1 34  1  0
  2 35  1  0
  2 36  1  0
  4 37  1  0
  6 38  1  0
  7 39  1  0
  8 40  1  6
 10 41  1  0
 10 42  1  0
 11 43  1  0
 11 44  1  0
 11 45  1  0
 12 46  1  0
 12 47  1  0
 13 48  1  0
 13 49  1  0
 14 50  1  0
 14 51  1  0
 15 52  1  1
 17 53  1  1
 19 54  1  0
 19 55  1  0
 21 56  1  0
 22 57  1  0
 23 58  1  0
 24 59  1  0
 25 60  1  0
 26 61  1  0
 27 62  1  0
 27 63  1  0
 30 64  1  0
M  CHG  3  27   1  29  -1  33  -1
M  END
>  <filename_input>  (14) 
7Q25_8J9_docked.sdf

>  <pdb_id>  (14) 
7Q25_8J9

>  <pose_rank>  (14) 
13

>  <num_atoms_heavy>  (14) 
33

>  <num_torsions>  (14) 
14

>  <pose>  (14) 
[-54.76184976705308, 97.51102436454073, 22.44533019124033, 2.200879764799764, -1.9604668837998802, -1.5705680962102238, 12.411019964032851, 21.1235394916635, -4.529835087863719, -3.2732728914721907, -3.2871946459922037, -3.25351469196032, 7.335052471562924, -1.7798762371739043, 12.032601146381403, -3.195450763965646, 2.9410946982946142, -0.1591319492404846, 1.4641584252868125, 3.0175837917952273]

>  <energy>  (14) 
-607.1935199539062

>  <inter_energy>  (14) 
-665.8524864929745

>  <intra_energy>  (14) 
63.72176939079569

>  <rmsd>  (14) 
8.61251

>  <sdf_rank>  (14) 
0

$$$$

     RDKit          3D

 64 65  0  0  0  0  0  0  0  0999 V2000
  -55.3240   97.3307   20.7297 C   0  0  0  0  0  0  0  0  0  0  0  0
  -53.9351   95.2525   21.1570 C   0  0  0  0  0  0  0  0  0  0  0  0
  -54.4119   96.4026   20.2711 C   0  0  0  0  0  0  0  0  0  0  0  0
  -55.7427   98.3804   19.9056 C   0  0  0  0  0  0  0  0  0  0  0  0
  -55.2146   98.4609   18.6326 C   0  0  0  0  0  0  0  0  0  0  0  0
  -54.3299   97.5248   18.1621 C   0  0  0  0  0  0  0  0  0  0  0  0
  -53.9073   96.5009   18.9806 C   0  0  0  0  0  0  0  0  0  0  0  0
  -50.5005   98.8956   22.4756 C   0  0  2  0  0  0  0  0  0  0  0  0
  -49.6428   98.7907   23.6664 C   0  0  0  0  0  0  0  0  0  0  0  0
  -49.8204   99.7970   21.4434 C   0  0  0  0  0  0  0  0  0  0  0  0
  -56.8416  100.5983   23.6643 C   0  0  0  0  0  0  0  0  0  0  0  0
  -55.7888   99.8753   22.8165 C   0  0  0  0  0  0  0  0  0  0  0  0
  -54.3698  100.3043   23.1235 C   0  0  0  0  0  0  0  0  0  0  0  0
  -53.7480   99.5294   24.2913 C   0  0  0  0  0  0  0  0  0  0  0  0
  -52.4281   98.8201   23.9636 C   0  0  1  0  0  0  0  0  0  0  0  0
  -52.6715   97.3677   23.6385 C   0  0  0  0  0  0  0  0  0  0  0  0
  -52.7108   95.5130   21.9901 C   0  0  1  0  0  0  0  0  0  0  0  0
  -51.4826   95.0036   21.2502 C   0  0  0  0  0  0  0  0  0  0  0  0
  -50.8405  100.6452   20.7120 C   0  0  0  0  0  0  0  0  0  0  0  0
  -50.2356  101.6438   19.7106 C   0  0  0  0  0  0  0  0  0  0  0  0
  -50.7381  102.9294   19.6851 C   0  0  0  0  0  0  0  0  0  0  0  0
  -50.1853  103.8503   18.7936 C   0  0  0  0  0  0  0  0  0  0  0  0
  -49.1746  103.4585   17.9436 C   0  0  0  0  0  0  0  0  0  0  0  0
  -48.6740  102.1753   17.9617 C   0  0  0  0  0  0  0  0  0  0  0  0
  -49.2119  101.2619   18.8533 C   0  0  0  0  0  0  0  0  0  0  0  0
  -52.5240   96.9249   22.2985 N   0  0  0  0  0  0  0  0  0  0  0  0
  -51.7988   99.5112   22.8218 N   0  0  0  0  0  0  0  0  0  0  0  0
  -51.6003   94.1923   20.2683 O   0  0  0  0  0  0  0  0  0  0  0  0
  -50.3589   95.3526   21.6442 O   0  0  0  0  0  0  0  0  0  0  0  0
  -55.6181   99.5074   17.7753 O   0  0  0  0  0  0  0  0  0  0  0  0
  -52.9988   96.5666   24.4882 O   0  0  0  0  0  0  0  0  0  0  0  0
  -48.4831   99.4173   23.9300 O   0  0  0  0  0  0  0  0  0  0  0  0
  -49.8178   97.9149   24.6186 O   0  0  0  0  0  0  0  0  0  0  0  0
  -55.7247   97.2445   21.7505 H   0  0  0  0  0  0  0  0  0  0  0  0
  -54.7567   94.9945   21.8414 H   0  0  0  0  0  0  0  0  0  0  0  0
  -53.6502   94.4481   20.4630 H   0  0  0  0  0  0  0  0  0  0  0  0
  -56.4729   99.1217   20.2621 H   0  0  0  0  0  0  0  0  0  0  0  0
  -53.9572   97.5917   17.1293 H   0  0  0  0  0  0  0  0  0  0  0  0
  -53.1751   95.7659   18.6149 H   0  0  0  0  0  0  0  0  0  0  0  0
  -50.6618   97.8835   22.0759 H   0  0  0  0  0  0  0  0  0  0  0  0
  -49.1051  100.4564   21.9567 H   0  0  0  0  0  0  0  0  0  0  0  0
  -49.3002   99.1626   20.7107 H   0  0  0  0  0  0  0  0  0  0  0  0
  -56.6206  100.4465   24.7312 H   0  0  0  0  0  0  0  0  0  0  0  0
  -56.8214  101.6739   23.4351 H   0  0  0  0  0  0  0  0  0  0  0  0
  -57.8383  100.1932   23.4351 H   0  0  0  0  0  0  0  0  0  0  0  0
  -55.8740   98.7944   23.0024 H   0  0  0  0  0  0  0  0  0  0  0  0
  -55.9855  100.1338   21.7656 H   0  0  0  0  0  0  0  0  0  0  0  0
  -53.7530  100.1418   22.2273 H   0  0  0  0  0  0  0  0  0  0  0  0
  -54.4026  101.3649   23.4132 H   0  0  0  0  0  0  0  0  0  0  0  0
  -53.5609  100.2385   25.1112 H   0  0  0  0  0  0  0  0  0  0  0  0
  -54.4664   98.7394   24.5555 H   0  0  0  0  0  0  0  0  0  0  0  0
  -51.7587   98.8564   24.8357 H   0  0  0  0  0  0  0  0  0  0  0  0
  -52.8501   94.9825   22.9436 H   0  0  0  0  0  0  0  0  0  0  0  0
  -51.5161   99.9733   20.1623 H   0  0  0  0  0  0  0  0  0  0  0  0
  -51.3586  101.2424   21.4768 H   0  0  0  0  0  0  0  0  0  0  0  0
  -51.5595  103.2228   20.3553 H   0  0  0  0  0  0  0  0  0  0  0  0
  -50.5556  104.8858   18.7699 H   0  0  0  0  0  0  0  0  0  0  0  0
  -48.7573  104.1876   17.2336 H   0  0  0  0  0  0  0  0  0  0  0  0
  -47.8618  101.8814   17.2805 H   0  0  0  0  0  0  0  0  0  0  0  0
  -48.8274  100.2317   18.8824 H   0  0  0  0  0  0  0  0  0  0  0  0
  -52.2876   97.5941   21.5521 H   0  0  0  0  0  0  0  0  0  0  0  0
  -51.6470  100.4995   23.0691 H   0  0  0  0  0  0  0  0  0  0  0  0
  -52.4248   99.4332   22.0075 H   0  0  0  0  0  0  0  0  0  0  0  0
  -55.2433   99.5708   16.8612 H   0  0  0  0  0  0  0  0  0  0  0  0
  1  3  2  0
  1  4  1  0
  2  3  1  0
 17  2  1  0
  3  7  1  0
  4  5  2  0
  5  6  1  0
  5 30  1  0
  6  7  2  0
  8  9  1  0
  8 10  1  0
  8 27  1  0
  9 32  2  0
  9 33  1  0
 10 19  1  0
 11 12  1  0
 12 13  1  0
 13 14  1  0
 15 14  1  0
 15 16  1  0
 15 27  1  0
 16 26  1  0
 16 31  2  0
 17 18  1  0
 17 26  1  0
 18 28  2  0
 18 29  1  0
 19 20  1  0
 20 21  2  0
 20 25  1  0
 21 22  1  0
 22 23  2  0
 23 24  1  0
 24 25  2  0
  1 34  1  0
  2 35  1  0
  2 36  1  0
  4 37  1  0
  6 38  1  0
  7 39  1  0
  8 40  1  6
 10 41  1  0
 10 42  1  0
 11 43  1  0
 11 44  1  0
 11 45  1  0
 12 46  1  0
 12 47  1  0
 13 48  1  0
 13 49  1  0
 14 50  1  0
 14 51  1  0
 15 52  1  1
 17 53  1  1
 19 54  1  0
 19 55  1  0
 21 56  1  0
 22 57  1  0
 23 58  1  0
 24 59  1  0
 25 60  1  0
 26 61  1  0
 27 62  1  0
 27 63  1  0
 30 64  1  0
M  CHG  3  27   1  29  -1  33  -1
M  END
>  <filename_input>  (15) 
7Q25_8J9_docked.sdf

>  <pdb_id>  (15) 
7Q25_8J9

>  <pose_rank>  (15) 
14

>  <num_atoms_heavy>  (15) 
33

>  <num_torsions>  (15) 
14

>  <pose>  (15) 
[-52.42812551435357, 98.82011391610162, 23.96363500013669, -0.4983406857444011, 1.6707811693110108, 1.1467719466197988, 3.5072874154994422, -1.1261798954185713, -1.9701778948998947, -0.15195741571154667, -3.13561699496703, 3.5294004180121576, 1.0540574513108656, -1.423551345444044, 0.12850502109229672, 0.12273607978450471, 2.1312925930779425, -3.8618796218507057, 0.06080076466863912, 1.1357242524755318]

>  <energy>  (15) 
-479.6838416723617

>  <inter_energy>  (15) 
-545.2109405580973

>  <intra_energy>  (15) 
77.60243675474757

>  <rmsd>  (15) 
7.65282

>  <sdf_rank>  (15) 
0

$$$$

     RDKit          3D

 64 65  0  0  0  0  0  0  0  0999 V2000
  -55.9049   99.2235   23.5471 C   0  0  0  0  0  0  0  0  0  0  0  0
  -55.8779   96.9731   22.3787 C   0  0  0  0  0  0  0  0  0  0  0  0
  -56.1731   98.4718   22.4218 C   0  0  0  0  0  0  0  0  0  0  0  0
  -56.1758  100.5956   23.5642 C   0  0  0  0  0  0  0  0  0  0  0  0
  -56.7096  101.1694   22.4278 C   0  0  0  0  0  0  0  0  0  0  0  0
  -57.0048  100.4215   21.3169 C   0  0  0  0  0  0  0  0  0  0  0  0
  -56.7228   99.0735   21.2969 C   0  0  0  0  0  0  0  0  0  0  0  0
  -50.4333   98.7078   23.7692 C   0  0  2  0  0  0  0  0  0  0  0  0
  -51.7413   99.0014   24.3755 C   0  0  0  0  0  0  0  0  0  0  0  0
  -49.7081  100.0225   23.4758 C   0  0  0  0  0  0  0  0  0  0  0  0
  -51.3640   94.6112   27.1579 C   0  0  0  0  0  0  0  0  0  0  0  0
  -50.4374   94.5708   25.9373 C   0  0  0  0  0  0  0  0  0  0  0  0
  -51.1473   94.8611   24.6321 C   0  0  0  0  0  0  0  0  0  0  0  0
  -51.0614   96.3346   24.2173 C   0  0  0  0  0  0  0  0  0  0  0  0
  -50.9313   96.5722   22.7075 C   0  0  1  0  0  0  0  0  0  0  0  0
  -52.2111   96.2050   21.9992 C   0  0  0  0  0  0  0  0  0  0  0  0
  -54.6405   96.5561   21.6334 C   0  0  1  0  0  0  0  0  0  0  0  0
  -54.6137   97.2479   20.2784 C   0  0  0  0  0  0  0  0  0  0  0  0
  -50.3244  100.7245   22.2832 C   0  0  0  0  0  0  0  0  0  0  0  0
  -49.3119  101.4470   21.3784 C   0  0  0  0  0  0  0  0  0  0  0  0
  -49.7912  102.1428   20.2865 C   0  0  0  0  0  0  0  0  0  0  0  0
  -48.8844  102.8180   19.4679 C   0  0  0  0  0  0  0  0  0  0  0  0
  -47.5363  102.7585   19.7449 C   0  0  0  0  0  0  0  0  0  0  0  0
  -47.0531  102.0609   20.8299 C   0  0  0  0  0  0  0  0  0  0  0  0
  -47.9510  101.3994   21.6514 C   0  0  0  0  0  0  0  0  0  0  0  0
  -53.4121   96.8743   22.3500 N   0  0  0  0  0  0  0  0  0  0  0  0
  -50.6028   97.9937   22.4863 N   0  0  0  0  0  0  0  0  0  0  0  0
  -53.7827   98.1911   20.0418 O   0  0  0  0  0  0  0  0  0  0  0  0
  -55.4437   96.9130   19.4188 O   0  0  0  0  0  0  0  0  0  0  0  0
  -56.9962  102.5517   22.4134 O   0  0  0  0  0  0  0  0  0  0  0  0
  -52.2465   95.3468   21.1431 O   0  0  0  0  0  0  0  0  0  0  0  0
  -52.8703   99.4274   23.7832 O   0  0  0  0  0  0  0  0  0  0  0  0
  -51.9593   99.0372   25.6622 O   0  0  0  0  0  0  0  0  0  0  0  0
  -55.4751   98.7405   24.4370 H   0  0  0  0  0  0  0  0  0  0  0  0
  -55.7779   96.6218   23.4163 H   0  0  0  0  0  0  0  0  0  0  0  0
  -56.7168   96.5261   21.8250 H   0  0  0  0  0  0  0  0  0  0  0  0
  -55.9691  101.2011   24.4590 H   0  0  0  0  0  0  0  0  0  0  0  0
  -57.4675  100.8989   20.4406 H   0  0  0  0  0  0  0  0  0  0  0  0
  -56.9315   98.4775   20.3962 H   0  0  0  0  0  0  0  0  0  0  0  0
  -49.8596   98.0843   24.4707 H   0  0  0  0  0  0  0  0  0  0  0  0
  -49.7799  100.6779   24.3563 H   0  0  0  0  0  0  0  0  0  0  0  0
  -48.6552   99.8001   23.2477 H   0  0  0  0  0  0  0  0  0  0  0  0
  -50.7606   94.5849   28.0773 H   0  0  0  0  0  0  0  0  0  0  0  0
  -51.9590   95.5361   27.1361 H   0  0  0  0  0  0  0  0  0  0  0  0
  -52.0372   93.7415   27.1361 H   0  0  0  0  0  0  0  0  0  0  0  0
  -49.6444   95.3202   26.0768 H   0  0  0  0  0  0  0  0  0  0  0  0
  -50.0368   93.5486   25.8681 H   0  0  0  0  0  0  0  0  0  0  0  0
  -50.6915   94.2473   23.8413 H   0  0  0  0  0  0  0  0  0  0  0  0
  -52.2112   94.6218   24.7765 H   0  0  0  0  0  0  0  0  0  0  0  0
  -51.9731   96.8418   24.5660 H   0  0  0  0  0  0  0  0  0  0  0  0
  -50.1422   96.7312   24.6731 H   0  0  0  0  0  0  0  0  0  0  0  0
  -50.1322   95.9372   22.2976 H   0  0  0  0  0  0  0  0  0  0  0  0
  -54.6836   95.4627   21.5219 H   0  0  0  0  0  0  0  0  0  0  0  0
  -50.8527   99.9737   21.6772 H   0  0  0  0  0  0  0  0  0  0  0  0
  -50.9939  101.4987   22.6860 H   0  0  0  0  0  0  0  0  0  0  0  0
  -50.8686  102.1647   20.0655 H   0  0  0  0  0  0  0  0  0  0  0  0
  -49.2451  103.3959   18.6043 H   0  0  0  0  0  0  0  0  0  0  0  0
  -46.8288  103.2805   19.0838 H   0  0  0  0  0  0  0  0  0  0  0  0
  -45.9738  102.0296   21.0401 H   0  0  0  0  0  0  0  0  0  0  0  0
  -47.5854  100.8352   22.5220 H   0  0  0  0  0  0  0  0  0  0  0  0
  -53.4157   97.5773   23.1028 H   0  0  0  0  0  0  0  0  0  0  0  0
  -51.3653   98.4360   21.9535 H   0  0  0  0  0  0  0  0  0  0  0  0
  -49.7170   98.0467   21.9634 H   0  0  0  0  0  0  0  0  0  0  0  0
  -57.3791  102.9694   21.6016 H   0  0  0  0  0  0  0  0  0  0  0  0
  1  3  2  0
  1  4  1  0
  2  3  1  0
 17  2  1  0
  3  7  1  0
  4  5  2  0
  5  6  1  0
  5 30  1  0
  6  7  2  0
  8  9  1  0
  8 10  1  0
  8 27  1  0
  9 32  2  0
  9 33  1  0
 10 19  1  0
 11 12  1  0
 12 13  1  0
 13 14  1  0
 15 14  1  0
 15 16  1  0
 15 27  1  0
 16 26  1  0
 16 31  2  0
 17 18  1  0
 17 26  1  0
 18 28  2  0
 18 29  1  0
 19 20  1  0
 20 21  2  0
 20 25  1  0
 21 22  1  0
 22 23  2  0
 23 24  1  0
 24 25  2  0
  1 34  1  0
  2 35  1  0
  2 36  1  0
  4 37  1  0
  6 38  1  0
  7 39  1  0
  8 40  1  1
 10 41  1  0
 10 42  1  0
 11 43  1  0
 11 44  1  0
 11 45  1  0
 12 46  1  0
 12 47  1  0
 13 48  1  0
 13 49  1  0
 14 50  1  0
 14 51  1  0
 15 52  1  6
 17 53  1  6
 19 54  1  0
 19 55  1  0
 21 56  1  0
 22 57  1  0
 23 58  1  0
 24 59  1  0
 25 60  1  0
 26 61  1  0
 27 62  1  0
 27 63  1  0
 30 64  1  0
M  CHG  3  27   1  29  -1  33  -1
M  END
>  <filename_input>  (16) 
7Q25_8J9_docked.sdf

>  <pdb_id>  (16) 
7Q25_8J9

>  <pose_rank>  (16) 
15

>  <num_atoms_heavy>  (16) 
33

>  <num_torsions>  (16) 
14

>  <pose>  (16) 
[-50.93128755587632, 96.57223641887084, 22.707537774488724, -1.6227348823676713, -1.93586682310815, -2.6519654906577674, 2.647645087188468, 6.0100178344102355, 0.2023497186258424, 0.6675100699915947, -3.343579449224049, 6.435516191454373, -4.884356912682989, -1.271390919680313, -9.217585737917302, -6.6000983375047735, 3.400486959156276, -15.217084503728305, -18.086974493552592, 0.4017378179061036]

>  <energy>  (16) 
-492.25347139582755

>  <inter_energy>  (16) 
-599.2408145931938

>  <intra_energy>  (16) 
105.01081715756297

>  <rmsd>  (16) 
7.21779

>  <sdf_rank>  (16) 
0

$$$$

     RDKit          3D

 64 65  0  0  0  0  0  0  0  0999 V2000
  -46.5987  100.5547   22.6623 C   0  0  0  0  0  0  0  0  0  0  0  0
  -48.5897   98.9878   22.5587 C   0  0  0  0  0  0  0  0  0  0  0  0
  -47.9427  100.3339   22.8819 C   0  0  0  0  0  0  0  0  0  0  0  0
  -46.0267  101.7964   22.9581 C   0  0  0  0  0  0  0  0  0  0  0  0
  -46.8434  102.7865   23.4663 C   0  0  0  0  0  0  0  0  0  0  0  0
  -48.1736  102.5630   23.7134 C   0  0  0  0  0  0  0  0  0  0  0  0
  -48.7380  101.3446   23.4069 C   0  0  0  0  0  0  0  0  0  0  0  0
  -53.3267   95.5734   21.7789 C   0  0  2  0  0  0  0  0  0  0  0  0
  -52.7542   94.7553   20.6982 C   0  0  0  0  0  0  0  0  0  0  0  0
  -53.6874   96.9542   21.2277 C   0  0  0  0  0  0  0  0  0  0  0  0
  -52.3293   94.2288   26.6216 C   0  0  0  0  0  0  0  0  0  0  0  0
  -51.0172   94.7879   26.0596 C   0  0  0  0  0  0  0  0  0  0  0  0
  -51.1222   96.2275   25.6034 C   0  0  0  0  0  0  0  0  0  0  0  0
  -52.5345   96.6105   25.1457 C   0  0  0  0  0  0  0  0  0  0  0  0
  -52.6549   96.9693   23.6593 C   0  0  1  0  0  0  0  0  0  0  0  0
  -51.7205   98.0998   23.3079 C   0  0  0  0  0  0  0  0  0  0  0  0
  -49.9261   99.0356   21.8715 C   0  0  1  0  0  0  0  0  0  0  0  0
  -49.7167   99.0113   20.3646 C   0  0  0  0  0  0  0  0  0  0  0  0
  -55.1901   97.1254   21.1418 C   0  0  0  0  0  0  0  0  0  0  0  0
  -55.6967   98.5135   21.5688 C   0  0  0  0  0  0  0  0  0  0  0  0
  -54.7639   99.4824   21.8803 C   0  0  0  0  0  0  0  0  0  0  0  0
  -55.2104  100.7517   22.2516 C   0  0  0  0  0  0  0  0  0  0  0  0
  -56.5620  101.0074   22.3257 C   0  0  0  0  0  0  0  0  0  0  0  0
  -57.4963  100.0421   22.0213 C   0  0  0  0  0  0  0  0  0  0  0  0
  -57.0568   98.7848   21.6409 C   0  0  0  0  0  0  0  0  0  0  0  0
  -50.7964   97.9280   22.2449 N   0  0  0  0  0  0  0  0  0  0  0  0
  -52.3410   95.7673   22.8630 N   0  0  0  0  0  0  0  0  0  0  0  0
  -50.5956   99.5001   19.5741 O   0  0  0  0  0  0  0  0  0  0  0  0
  -48.6981   98.4671   19.9104 O   0  0  0  0  0  0  0  0  0  0  0  0
  -46.2965  104.0503   23.7771 O   0  0  0  0  0  0  0  0  0  0  0  0
  -51.7291   99.1504   23.9136 O   0  0  0  0  0  0  0  0  0  0  0  0
  -53.3890   94.0464   19.7488 O   0  0  0  0  0  0  0  0  0  0  0  0
  -51.4858   94.4645   20.5948 O   0  0  0  0  0  0  0  0  0  0  0  0
  -45.9726   99.7488   22.2519 H   0  0  0  0  0  0  0  0  0  0  0  0
  -47.8986   98.4320   21.9080 H   0  0  0  0  0  0  0  0  0  0  0  0
  -48.7792   98.5135   23.5330 H   0  0  0  0  0  0  0  0  0  0  0  0
  -44.9550  101.9790   22.7902 H   0  0  0  0  0  0  0  0  0  0  0  0
  -48.7909  103.3581   24.1570 H   0  0  0  0  0  0  0  0  0  0  0  0
  -49.8112  101.1730   23.5767 H   0  0  0  0  0  0  0  0  0  0  0  0
  -54.2151   95.0561   22.1701 H   0  0  0  0  0  0  0  0  0  0  0  0
  -53.2742   97.7268   21.8929 H   0  0  0  0  0  0  0  0  0  0  0  0
  -53.2639   97.0512   20.2172 H   0  0  0  0  0  0  0  0  0  0  0  0
  -52.2933   94.2442   27.7209 H   0  0  0  0  0  0  0  0  0  0  0  0
  -53.1700   94.8469   26.2736 H   0  0  0  0  0  0  0  0  0  0  0  0
  -52.4659   93.1943   26.2736 H   0  0  0  0  0  0  0  0  0  0  0  0
  -50.2480   94.7260   26.8435 H   0  0  0  0  0  0  0  0  0  0  0  0
  -50.7604   94.1856   25.1757 H   0  0  0  0  0  0  0  0  0  0  0  0
  -50.8354   96.8819   26.4398 H   0  0  0  0  0  0  0  0  0  0  0  0
  -50.4526   96.3480   24.7390 H   0  0  0  0  0  0  0  0  0  0  0  0
  -53.2018   95.7595   25.3473 H   0  0  0  0  0  0  0  0  0  0  0  0
  -52.8057   97.5175   25.7058 H   0  0  0  0  0  0  0  0  0  0  0  0
  -53.6787   97.3054   23.4385 H   0  0  0  0  0  0  0  0  0  0  0  0
  -50.4201   99.9654   22.1903 H   0  0  0  0  0  0  0  0  0  0  0  0
  -55.4970   96.9528   20.0996 H   0  0  0  0  0  0  0  0  0  0  0  0
  -55.6293   96.4013   21.8436 H   0  0  0  0  0  0  0  0  0  0  0  0
  -53.6879   99.2582   21.8367 H   0  0  0  0  0  0  0  0  0  0  0  0
  -54.4853  101.5454   22.4843 H   0  0  0  0  0  0  0  0  0  0  0  0
  -56.9033  102.0062   22.6354 H   0  0  0  0  0  0  0  0  0  0  0  0
  -58.5718  100.2657   22.0792 H   0  0  0  0  0  0  0  0  0  0  0  0
  -57.7868   97.9994   21.3953 H   0  0  0  0  0  0  0  0  0  0  0  0
  -50.7413   97.0304   21.7428 H   0  0  0  0  0  0  0  0  0  0  0  0
  -52.3533   94.9426   23.4800 H   0  0  0  0  0  0  0  0  0  0  0  0
  -51.4099   95.8897   22.4399 H   0  0  0  0  0  0  0  0  0  0  0  0
  -46.8768  104.7647   24.1419 H   0  0  0  0  0  0  0  0  0  0  0  0
  1  3  2  0
  1  4  1  0
  2  3  1  0
 17  2  1  0
  3  7  1  0
  4  5  2  0
  5  6  1  0
  5 30  1  0
  6  7  2  0
  8  9  1  0
  8 10  1  0
  8 27  1  0
  9 32  2  0
  9 33  1  0
 10 19  1  0
 11 12  1  0
 12 13  1  0
 13 14  1  0
 15 14  1  0
 15 16  1  0
 15 27  1  0
 16 26  1  0
 16 31  2  0
 17 18  1  0
 17 26  1  0
 18 28  2  0
 18 29  1  0
 19 20  1  0
 20 21  2  0
 20 25  1  0
 21 22  1  0
 22 23  2  0
 23 24  1  0
 24 25  2  0
  1 34  1  0
  2 35  1  0
  2 36  1  0
  4 37  1  0
  6 38  1  0
  7 39  1  0
  8 40  1  1
 10 41  1  0
 10 42  1  0
 11 43  1  0
 11 44  1  0
 11 45  1  0
 12 46  1  0
 12 47  1  0
 13 48  1  0
 13 49  1  0
 14 50  1  0
 14 51  1  0
 15 52  1  1
 17 53  1  6
 19 54  1  0
 19 55  1  0
 21 56  1  0
 22 57  1  0
 23 58  1  0
 24 59  1  0
 25 60  1  0
 26 61  1  0
 27 62  1  0
 27 63  1  0
 30 64  1  0
M  CHG  3  27   1  29  -1  33  -1
M  END
>  <filename_input>  (17) 
7Q25_8J9_docked.sdf

>  <pdb_id>  (17) 
7Q25_8J9

>  <pose_rank>  (17) 
16

>  <num_atoms_heavy>  (17) 
33

>  <num_torsions>  (17) 
14

>  <pose>  (17) 
[-52.65486770962406, 96.96929879710818, 23.659339829698567, 1.6891500045921881, -0.5665385718370683, -0.3880097059242853, -2.484508113490785, -1.449699469382354, 1.8878970211717214, -3.1826665761408277, 2.340697329137539, -2.0498681179253135, -3.122052881899205, 2.8669810916917564, -0.6431793610904866, -2.509502332726904, 0.6176684948358829, 0.542005210660863, -0.5903102794102195, -2.683084129388151]

>  <energy>  (17) 
-619.3021214679591

>  <inter_energy>  (17) 
-640.2345731156433

>  <intra_energy>  (17) 
28.377472251091728

>  <rmsd>  (17) 
8.47374

>  <sdf_rank>  (17) 
0

$$$$

     RDKit          3D

 64 65  0  0  0  0  0  0  0  0999 V2000
  -48.9278   99.2386   24.5673 C   0  0  0  0  0  0  0  0  0  0  0  0
  -50.8553   97.5909   24.5843 C   0  0  0  0  0  0  0  0  0  0  0  0
  -49.6895   98.3025   23.8989 C   0  0  0  0  0  0  0  0  0  0  0  0
  -47.8603   99.8738   23.9244 C   0  0  0  0  0  0  0  0  0  0  0  0
  -47.5920   99.5330   22.6139 C   0  0  0  0  0  0  0  0  0  0  0  0
  -48.3638   98.6245   21.9361 C   0  0  0  0  0  0  0  0  0  0  0  0
  -49.4047   97.9889   22.5759 C   0  0  0  0  0  0  0  0  0  0  0  0
  -54.0723   99.1249   19.8968 C   0  0  2  0  0  0  0  0  0  0  0  0
  -52.8641   99.9545   19.7671 C   0  0  0  0  0  0  0  0  0  0  0  0
  -54.6700   99.3207   21.2913 C   0  0  0  0  0  0  0  0  0  0  0  0
  -58.2541   95.4622   22.4101 C   0  0  0  0  0  0  0  0  0  0  0  0
  -56.8130   95.0860   22.0474 C   0  0  0  0  0  0  0  0  0  0  0  0
  -56.3135   95.7599   20.7872 C   0  0  0  0  0  0  0  0  0  0  0  0
  -54.7918   95.6705   20.6217 C   0  0  0  0  0  0  0  0  0  0  0  0
  -54.0276   96.9482   20.9904 C   0  0  1  0  0  0  0  0  0  0  0  0
  -52.7508   96.6124   21.7195 C   0  0  0  0  0  0  0  0  0  0  0  0
  -51.4685   96.4393   23.8372 C   0  0  1  0  0  0  0  0  0  0  0  0
  -51.7932   95.3213   24.8170 C   0  0  0  0  0  0  0  0  0  0  0  0
  -55.1247  100.7524   21.4876 C   0  0  0  0  0  0  0  0  0  0  0  0
  -56.4700  100.8970   22.2190 C   0  0  0  0  0  0  0  0  0  0  0  0
  -56.4844  100.7643   23.5932 C   0  0  0  0  0  0  0  0  0  0  0  0
  -57.6959  100.9115   24.2707 C   0  0  0  0  0  0  0  0  0  0  0  0
  -58.8510  101.1587   23.5620 C   0  0  0  0  0  0  0  0  0  0  0  0
  -58.8422  101.2863   22.1905 C   0  0  0  0  0  0  0  0  0  0  0  0
  -57.6399  101.1527   21.5157 C   0  0  0  0  0  0  0  0  0  0  0  0
  -52.6840   96.8087   23.1232 N   0  0  0  0  0  0  0  0  0  0  0  0
  -53.7385   97.6926   19.7495 N   0  0  0  0  0  0  0  0  0  0  0  0
  -50.8841   94.5121   25.2107 O   0  0  0  0  0  0  0  0  0  0  0  0
  -52.9667   95.1778   25.1941 O   0  0  0  0  0  0  0  0  0  0  0  0
  -46.5225  100.1573   21.9360 O   0  0  0  0  0  0  0  0  0  0  0  0
  -51.7743   96.1870   21.1396 O   0  0  0  0  0  0  0  0  0  0  0  0
  -51.9022  100.1935   20.6753 O   0  0  0  0  0  0  0  0  0  0  0  0
  -52.6203  100.7375   18.7514 O   0  0  0  0  0  0  0  0  0  0  0  0
  -49.1616   99.4872   25.6130 H   0  0  0  0  0  0  0  0  0  0  0  0
  -50.4926   97.2083   25.5497 H   0  0  0  0  0  0  0  0  0  0  0  0
  -51.6520   98.3452   24.6632 H   0  0  0  0  0  0  0  0  0  0  0  0
  -47.2510  100.6246   24.4489 H   0  0  0  0  0  0  0  0  0  0  0  0
  -48.1512   98.4030   20.8798 H   0  0  0  0  0  0  0  0  0  0  0  0
  -50.0066   97.2381   22.0429 H   0  0  0  0  0  0  0  0  0  0  0  0
  -54.7831   99.4252   19.1128 H   0  0  0  0  0  0  0  0  0  0  0  0
  -55.5329   98.6490   21.4110 H   0  0  0  0  0  0  0  0  0  0  0  0
  -53.8979   99.0910   22.0404 H   0  0  0  0  0  0  0  0  0  0  0  0
  -58.3614   95.4902   23.5045 H   0  0  0  0  0  0  0  0  0  0  0  0
  -58.4907   96.4522   21.9931 H   0  0  0  0  0  0  0  0  0  0  0  0
  -58.9444   94.7142   21.9931 H   0  0  0  0  0  0  0  0  0  0  0  0
  -56.1568   95.3760   22.8812 H   0  0  0  0  0  0  0  0  0  0  0  0
  -56.7976   94.0017   21.8630 H   0  0  0  0  0  0  0  0  0  0  0  0
  -56.7891   95.2782   19.9202 H   0  0  0  0  0  0  0  0  0  0  0  0
  -56.5741   96.8262   20.8593 H   0  0  0  0  0  0  0  0  0  0  0  0
  -54.4254   94.8556   21.2633 H   0  0  0  0  0  0  0  0  0  0  0  0
  -54.6068   95.4975   19.5513 H   0  0  0  0  0  0  0  0  0  0  0  0
  -54.6393   97.5680   21.6625 H   0  0  0  0  0  0  0  0  0  0  0  0
  -50.7326   96.1116   23.0882 H   0  0  0  0  0  0  0  0  0  0  0  0
  -54.3568  101.2802   22.0721 H   0  0  0  0  0  0  0  0  0  0  0  0
  -55.2663  101.1774   20.4829 H   0  0  0  0  0  0  0  0  0  0  0  0
  -55.5577  100.5464   24.1443 H   0  0  0  0  0  0  0  0  0  0  0  0
  -57.7282  100.8304   25.3672 H   0  0  0  0  0  0  0  0  0  0  0  0
  -59.8030  101.2565   24.1042 H   0  0  0  0  0  0  0  0  0  0  0  0
  -59.7731  101.4906   21.6411 H   0  0  0  0  0  0  0  0  0  0  0  0
  -57.6117  101.2494   20.4203 H   0  0  0  0  0  0  0  0  0  0  0  0
  -53.4857   97.2079   23.6319 H   0  0  0  0  0  0  0  0  0  0  0  0
  -54.2969   97.2946   18.9809 H   0  0  0  0  0  0  0  0  0  0  0  0
  -52.7320   97.6110   19.5465 H   0  0  0  0  0  0  0  0  0  0  0  0
  -46.3248   99.9174   20.9960 H   0  0  0  0  0  0  0  0  0  0  0  0
  1  3  2  0
  1  4  1  0
  2  3  1  0
 17  2  1  0
  3  7  1  0
  4  5  2  0
  5  6  1  0
  5 30  1  0
  6  7  2  0
  8  9  1  0
  8 10  1  0
  8 27  1  0
  9 32  2  0
  9 33  1  0
 10 19  1  0
 11 12  1  0
 12 13  1  0
 13 14  1  0
 15 14  1  0
 15 16  1  0
 15 27  1  0
 16 26  1  0
 16 31  2  0
 17 18  1  0
 17 26  1  0
 18 28  2  0
 18 29  1  0
 19 20  1  0
 20 21  2  0
 20 25  1  0
 21 22  1  0
 22 23  2  0
 23 24  1  0
 24 25  2  0
  1 34  1  0
  2 35  1  0
  2 36  1  0
  4 37  1  0
  6 38  1  0
  7 39  1  0
  8 40  1  6
 10 41  1  0
 10 42  1  0
 11 43  1  0
 11 44  1  0
 11 45  1  0
 12 46  1  0
 12 47  1  0
 13 48  1  0
 13 49  1  0
 14 50  1  0
 14 51  1  0
 15 52  1  1
 17 53  1  6
 19 54  1  0
 19 55  1  0
 21 56  1  0
 22 57  1  0
 23 58  1  0
 24 59  1  0
 25 60  1  0
 26 61  1  0
 27 62  1  0
 27 63  1  0
 30 64  1  0
M  CHG  3  27   1  29  -1  33  -1
M  END
>  <filename_input>  (18) 
7Q25_8J9_docked.sdf

>  <pdb_id>  (18) 
7Q25_8J9

>  <pose_rank>  (18) 
17

>  <num_atoms_heavy>  (18) 
33

>  <num_torsions>  (18) 
14

>  <pose>  (18) 
[-54.0275726691364, 96.94823766567819, 20.990381385654374, -2.3476127681034016, 0.8428228599531081, 1.188573971216739, -0.21603035498036777, 5.330675417224492, -3.0995852520384317, 3.9500759745481235, 1.7519733934392807, 1.3935156240988857, 3.394998614570875, -0.035678783271431924, 5.61845881061316, -3.217124490093473, 2.7486207921098162, 6.029797628663249, -0.5990595537641376, -1.3914811867209074]

>  <energy>  (18) 
-604.4820947962437

>  <inter_energy>  (18) 
-614.7224710028406

>  <intra_energy>  (18) 
11.674711164812777

>  <rmsd>  (18) 
9.15517

>  <sdf_rank>  (18) 
0

$$$$

     RDKit          3D

 64 65  0  0  0  0  0  0  0  0999 V2000
  -55.3074   98.7228   22.7921 C   0  0  0  0  0  0  0  0  0  0  0  0
  -55.3578   96.7834   21.1591 C   0  0  0  0  0  0  0  0  0  0  0  0
  -55.8354   98.1478   21.6546 C   0  0  0  0  0  0  0  0  0  0  0  0
  -55.7529   99.9758   23.2254 C   0  0  0  0  0  0  0  0  0  0  0  0
  -56.7244  100.6156   22.4821 C   0  0  0  0  0  0  0  0  0  0  0  0
  -57.2730  100.0358   21.3670 C   0  0  0  0  0  0  0  0  0  0  0  0
  -56.8218   98.8088   20.9336 C   0  0  0  0  0  0  0  0  0  0  0  0
  -49.8346   98.7180   22.1367 C   0  0  2  0  0  0  0  0  0  0  0  0
  -50.4440   99.5332   21.0743 C   0  0  0  0  0  0  0  0  0  0  0  0
  -48.4257   99.2393   22.4255 C   0  0  0  0  0  0  0  0  0  0  0  0
  -50.0311   94.1380   25.4649 C   0  0  0  0  0  0  0  0  0  0  0  0
  -51.1808   95.0690   25.0629 C   0  0  0  0  0  0  0  0  0  0  0  0
  -50.7784   96.5266   24.9907 C   0  0  0  0  0  0  0  0  0  0  0  0
  -51.1652   97.1907   23.6640 C   0  0  0  0  0  0  0  0  0  0  0  0
  -50.6847   96.4510   22.4091 C   0  0  1  0  0  0  0  0  0  0  0  0
  -51.8486   96.1185   21.5095 C   0  0  0  0  0  0  0  0  0  0  0  0
  -54.0167   96.7501   20.4803 C   0  0  1  0  0  0  0  0  0  0  0  0
  -54.0049   97.7602   19.3423 C   0  0  0  0  0  0  0  0  0  0  0  0
  -47.5621   99.1781   21.1824 C   0  0  0  0  0  0  0  0  0  0  0  0
  -46.2578   99.9881   21.2744 C   0  0  0  0  0  0  0  0  0  0  0  0
  -46.0242  100.9612   20.3232 C   0  0  0  0  0  0  0  0  0  0  0  0
  -44.8529  101.7158   20.4062 C   0  0  0  0  0  0  0  0  0  0  0  0
  -43.9452  101.4626   21.4109 C   0  0  0  0  0  0  0  0  0  0  0  0
  -44.1714  100.4890   22.3587 C   0  0  0  0  0  0  0  0  0  0  0  0
  -45.3383   99.7462   22.2866 C   0  0  0  0  0  0  0  0  0  0  0  0
  -52.9145   97.0469   21.3862 N   0  0  0  0  0  0  0  0  0  0  0  0
  -49.7117   97.3094   21.7063 N   0  0  0  0  0  0  0  0  0  0  0  0
  -53.4039   98.8821   19.4699 O   0  0  0  0  0  0  0  0  0  0  0  0
  -54.6280   97.4971   18.3019 O   0  0  0  0  0  0  0  0  0  0  0  0
  -57.1969  101.8807   22.8936 O   0  0  0  0  0  0  0  0  0  0  0  0
  -51.9053   95.0752   20.8938 O   0  0  0  0  0  0  0  0  0  0  0  0
  -50.3924   99.3600   19.7422 O   0  0  0  0  0  0  0  0  0  0  0  0
  -51.0242  100.6847   21.2780 O   0  0  0  0  0  0  0  0  0  0  0  0
  -54.5307   98.1921   23.3624 H   0  0  0  0  0  0  0  0  0  0  0  0
  -55.3101   96.1100   22.0276 H   0  0  0  0  0  0  0  0  0  0  0  0
  -56.0827   96.4826   20.3884 H   0  0  0  0  0  0  0  0  0  0  0  0
  -55.3403  100.4390   24.1338 H   0  0  0  0  0  0  0  0  0  0  0  0
  -58.0746  100.5514   20.8179 H   0  0  0  0  0  0  0  0  0  0  0  0
  -57.2396   98.3553   20.0227 H   0  0  0  0  0  0  0  0  0  0  0  0
  -50.4736   98.7811   23.0299 H   0  0  0  0  0  0  0  0  0  0  0  0
  -48.4907  100.2826   22.7680 H   0  0  0  0  0  0  0  0  0  0  0  0
  -47.9694   98.6080   23.2022 H   0  0  0  0  0  0  0  0  0  0  0  0
  -49.9675   94.0864   26.5618 H   0  0  0  0  0  0  0  0  0  0  0  0
  -50.2157   93.1317   25.0606 H   0  0  0  0  0  0  0  0  0  0  0  0
  -49.0853   94.5277   25.0606 H   0  0  0  0  0  0  0  0  0  0  0  0
  -51.5499   94.7599   24.0739 H   0  0  0  0  0  0  0  0  0  0  0  0
  -51.9537   94.9842   25.8410 H   0  0  0  0  0  0  0  0  0  0  0  0
  -51.2732   97.0677   25.8107 H   0  0  0  0  0  0  0  0  0  0  0  0
  -49.6823   96.5693   25.0723 H   0  0  0  0  0  0  0  0  0  0  0  0
  -52.2623   97.2580   23.6222 H   0  0  0  0  0  0  0  0  0  0  0  0
  -50.6689   98.1724   23.6533 H   0  0  0  0  0  0  0  0  0  0  0  0
  -50.2062   95.5028   22.6954 H   0  0  0  0  0  0  0  0  0  0  0  0
  -53.8695   95.7263   20.1060 H   0  0  0  0  0  0  0  0  0  0  0  0
  -47.3011   98.1258   20.9962 H   0  0  0  0  0  0  0  0  0  0  0  0
  -48.1519   99.6241   20.3680 H   0  0  0  0  0  0  0  0  0  0  0  0
  -46.7483  101.1386   19.5143 H   0  0  0  0  0  0  0  0  0  0  0  0
  -44.6553  102.5103   19.6716 H   0  0  0  0  0  0  0  0  0  0  0  0
  -43.0175  102.0519   21.4574 H   0  0  0  0  0  0  0  0  0  0  0  0
  -43.4388  100.3048   23.1583 H   0  0  0  0  0  0  0  0  0  0  0  0
  -45.5371   98.9628   23.0328 H   0  0  0  0  0  0  0  0  0  0  0  0
  -52.9093   97.9211   21.9310 H   0  0  0  0  0  0  0  0  0  0  0  0
  -49.8832   97.2515   20.6923 H   0  0  0  0  0  0  0  0  0  0  0  0
  -48.7623   96.9803   21.9328 H   0  0  0  0  0  0  0  0  0  0  0  0
  -57.8936  102.3448   22.3650 H   0  0  0  0  0  0  0  0  0  0  0  0
  1  3  2  0
  1  4  1  0
  2  3  1  0
 17  2  1  0
  3  7  1  0
  4  5  2  0
  5  6  1  0
  5 30  1  0
  6  7  2  0
  8  9  1  0
  8 10  1  0
  8 27  1  0
  9 32  2  0
  9 33  1  0
 10 19  1  0
 11 12  1  0
 12 13  1  0
 13 14  1  0
 15 14  1  0
 15 16  1  0
 15 27  1  0
 16 26  1  0
 16 31  2  0
 17 18  1  0
 17 26  1  0
 18 28  2  0
 18 29  1  0
 19 20  1  0
 20 21  2  0
 20 25  1  0
 21 22  1  0
 22 23  2  0
 23 24  1  0
 24 25  2  0
  1 34  1  0
  2 35  1  0
  2 36  1  0
  4 37  1  0
  6 38  1  0
  7 39  1  0
  8 40  1  1
 10 41  1  0
 10 42  1  0
 11 43  1  0
 11 44  1  0
 11 45  1  0
 12 46  1  0
 12 47  1  0
 13 48  1  0
 13 49  1  0
 14 50  1  0
 14 51  1  0
 15 52  1  1
 17 53  1  6
 19 54  1  0
 19 55  1  0
 21 56  1  0
 22 57  1  0
 23 58  1  0
 24 59  1  0
 25 60  1  0
 26 61  1  0
 27 62  1  0
 27 63  1  0
 30 64  1  0
M  CHG  3  27   1  29  -1  33  -1
M  END
>  <filename_input>  (19) 
7Q25_8J9_docked.sdf

>  <pdb_id>  (19) 
7Q25_8J9

>  <pose_rank>  (19) 
18

>  <num_atoms_heavy>  (19) 
33

>  <num_torsions>  (19) 
14

>  <pose>  (19) 
[-50.68467258303363, 96.45103028692758, 22.40912755075408, -1.7019703066817247, -2.9236870236217465, -2.770709781837602, -4.027360115881862, -13.476303990772552, 0.11624439181600621, -5.721301961920322, 3.40835256160325, 19.94865257591127, 10.53557563285503, -0.6836151966710853, 21.816970189776907, 17.99817387123567, -2.6707962324171732, 22.735347395092514, -6.412529684749506, 1.3663584619432647]

>  <energy>  (19) 
-573.0915770381897

>  <inter_energy>  (19) 
-598.9488279388937

>  <intra_energy>  (19) 
26.786396992535813

>  <rmsd>  (19) 
6.98477

>  <sdf_rank>  (19) 
0

$$$$

     RDKit          3D

 64 65  0  0  0  0  0  0  0  0999 V2000
  -57.2262   98.7896   20.2097 C   0  0  0  0  0  0  0  0  0  0  0  0
  -55.1756   97.6423   21.1631 C   0  0  0  0  0  0  0  0  0  0  0  0
  -56.1689   98.8016   21.0959 C   0  0  0  0  0  0  0  0  0  0  0  0
  -58.1287   99.8574   20.1685 C   0  0  0  0  0  0  0  0  0  0  0  0
  -57.9331  100.9109   21.0387 C   0  0  0  0  0  0  0  0  0  0  0  0
  -56.8675  100.9410   21.9013 C   0  0  0  0  0  0  0  0  0  0  0  0
  -55.9889   99.8814   21.9510 C   0  0  0  0  0  0  0  0  0  0  0  0
  -50.3691   98.0688   22.3945 C   0  0  2  0  0  0  0  0  0  0  0  0
  -49.7366   97.1188   21.4658 C   0  0  0  0  0  0  0  0  0  0  0  0
  -49.2892   98.9477   23.0282 C   0  0  0  0  0  0  0  0  0  0  0  0
  -50.3435   93.8881   27.2774 C   0  0  0  0  0  0  0  0  0  0  0  0
  -51.4239   94.8372   26.7464 C   0  0  0  0  0  0  0  0  0  0  0  0
  -51.0046   95.5918   25.5029 C   0  0  0  0  0  0  0  0  0  0  0  0
  -51.7488   95.1333   24.2432 C   0  0  0  0  0  0  0  0  0  0  0  0
  -51.5724   96.0456   23.0229 C   0  0  1  0  0  0  0  0  0  0  0  0
  -52.8815   96.2180   22.2942 C   0  0  0  0  0  0  0  0  0  0  0  0
  -55.3136   96.7101   22.3346 C   0  0  1  0  0  0  0  0  0  0  0  0
  -55.8422   95.3685   21.8489 C   0  0  0  0  0  0  0  0  0  0  0  0
  -49.3829  100.3708   22.5172 C   0  0  0  0  0  0  0  0  0  0  0  0
  -48.5064  100.6632   21.2876 C   0  0  0  0  0  0  0  0  0  0  0  0
  -47.4422   99.8226   21.0287 C   0  0  0  0  0  0  0  0  0  0  0  0
  -46.6500  100.0664   19.9056 C   0  0  0  0  0  0  0  0  0  0  0  0
  -46.9241  101.1465   19.0958 C   0  0  0  0  0  0  0  0  0  0  0  0
  -47.9813  101.9911   19.3534 C   0  0  0  0  0  0  0  0  0  0  0  0
  -48.7770  101.7454   20.4603 C   0  0  0  0  0  0  0  0  0  0  0  0
  -54.0566   96.4947   23.0398 N   0  0  0  0  0  0  0  0  0  0  0  0
  -51.0584   97.3490   23.4860 N   0  0  0  0  0  0  0  0  0  0  0  0
  -55.2922   94.7669   20.8631 O   0  0  0  0  0  0  0  0  0  0  0  0
  -56.8466   94.8871   22.3961 O   0  0  0  0  0  0  0  0  0  0  0  0
  -58.8253  102.0049   21.0209 O   0  0  0  0  0  0  0  0  0  0  0  0
  -52.9620   96.1183   21.0883 O   0  0  0  0  0  0  0  0  0  0  0  0
  -48.7196   96.2688   21.6898 O   0  0  0  0  0  0  0  0  0  0  0  0
  -49.9859   97.0722   20.1853 O   0  0  0  0  0  0  0  0  0  0  0  0
  -57.3603   97.9345   19.5308 H   0  0  0  0  0  0  0  0  0  0  0  0
  -55.2939   97.0467   20.2459 H   0  0  0  0  0  0  0  0  0  0  0  0
  -54.1871   98.1111   21.2779 H   0  0  0  0  0  0  0  0  0  0  0  0
  -58.9716   99.8575   19.4617 H   0  0  0  0  0  0  0  0  0  0  0  0
  -56.7142  101.8126   22.5546 H   0  0  0  0  0  0  0  0  0  0  0  0
  -55.1505   99.8903   22.6630 H   0  0  0  0  0  0  0  0  0  0  0  0
  -51.0941   98.6732   21.8296 H   0  0  0  0  0  0  0  0  0  0  0  0
  -49.4198   98.9478   24.1204 H   0  0  0  0  0  0  0  0  0  0  0  0
  -48.3028   98.5418   22.7596 H   0  0  0  0  0  0  0  0  0  0  0  0
  -50.3550   93.8981   28.3773 H   0  0  0  0  0  0  0  0  0  0  0  0
  -50.5429   92.8678   26.9179 H   0  0  0  0  0  0  0  0  0  0  0  0
  -49.3574   94.2173   26.9179 H   0  0  0  0  0  0  0  0  0  0  0  0
  -52.3210   94.2463   26.5095 H   0  0  0  0  0  0  0  0  0  0  0  0
  -51.6129   95.5846   27.5310 H   0  0  0  0  0  0  0  0  0  0  0  0
  -51.2053   96.6622   25.6583 H   0  0  0  0  0  0  0  0  0  0  0  0
  -49.9346   95.3932   25.3431 H   0  0  0  0  0  0  0  0  0  0  0  0
  -51.3837   94.1306   23.9763 H   0  0  0  0  0  0  0  0  0  0  0  0
  -52.8200   95.1537   24.4923 H   0  0  0  0  0  0  0  0  0  0  0  0
  -50.8588   95.5928   22.3188 H   0  0  0  0  0  0  0  0  0  0  0  0
  -56.0121   97.1813   23.0418 H   0  0  0  0  0  0  0  0  0  0  0  0
  -50.4305  100.5716   22.2485 H   0  0  0  0  0  0  0  0  0  0  0  0
  -49.0158  101.0197   23.3260 H   0  0  0  0  0  0  0  0  0  0  0  0
  -47.2225   98.9758   21.6955 H   0  0  0  0  0  0  0  0  0  0  0  0
  -45.8093   99.3980   19.6679 H   0  0  0  0  0  0  0  0  0  0  0  0
  -46.2835  101.3391   18.2226 H   0  0  0  0  0  0  0  0  0  0  0  0
  -48.1899  102.8450   18.6922 H   0  0  0  0  0  0  0  0  0  0  0  0
  -49.6251  102.4090   20.6846 H   0  0  0  0  0  0  0  0  0  0  0  0
  -54.0216   96.5429   24.0681 H   0  0  0  0  0  0  0  0  0  0  0  0
  -50.3945   97.1935   24.2580 H   0  0  0  0  0  0  0  0  0  0  0  0
  -51.8548   97.9205   23.8023 H   0  0  0  0  0  0  0  0  0  0  0  0
  -58.6906  102.7636   21.6425 H   0  0  0  0  0  0  0  0  0  0  0  0
  1  3  2  0
  1  4  1  0
  2  3  1  0
 17  2  1  0
  3  7  1  0
  4  5  2  0
  5  6  1  0
  5 30  1  0
  6  7  2  0
  8  9  1  0
  8 10  1  0
  8 27  1  0
  9 32  2  0
  9 33  1  0
 10 19  1  0
 11 12  1  0
 12 13  1  0
 13 14  1  0
 15 14  1  0
 15 16  1  0
 15 27  1  0
 16 26  1  0
 16 31  2  0
 17 18  1  0
 17 26  1  0
 18 28  2  0
 18 29  1  0
 19 20  1  0
 20 21  2  0
 20 25  1  0
 21 22  1  0
 22 23  2  0
 23 24  1  0
 24 25  2  0
  1 34  1  0
  2 35  1  0
  2 36  1  0
  4 37  1  0
  6 38  1  0
  7 39  1  0
  8 40  1  6
 10 41  1  0
 10 42  1  0
 11 43  1  0
 11 44  1  0
 11 45  1  0
 12 46  1  0
 12 47  1  0
 13 48  1  0
 13 49  1  0
 14 50  1  0
 14 51  1  0
 15 52  1  6
 17 53  1  1
 19 54  1  0
 19 55  1  0
 21 56  1  0
 22 57  1  0
 23 58  1  0
 24 59  1  0
 25 60  1  0
 26 61  1  0
 27 62  1  0
 27 63  1  0
 30 64  1  0
M  CHG  3  27   1  29  -1  33  -1
M  END
>  <filename_input>  (20) 
7Q25_8J9_docked.sdf

>  <pdb_id>  (20) 
7Q25_8J9

>  <pose_rank>  (20) 
19

>  <num_atoms_heavy>  (20) 
33

>  <num_torsions>  (20) 
14

>  <pose>  (20) 
[-51.572370677262725, 96.04560863944326, 23.022887413229583, -1.8503900515486154, -1.0592408966948854, -2.788758357423846, 2.4082957618386374, 2.392244840469299, -0.8060575788525507, -2.86413204706439, 2.9001292916778665, -3.471459199655992, 1.824581123702053, -1.0070306366434876, -6.52417341243602, 0.482511354176409, 2.9743896400343215, 0.5577019169977857, 1.652038434938212, -3.12477153476666]

>  <energy>  (20) 
-487.436377321186

>  <inter_energy>  (20) 
-554.8582455619035

>  <intra_energy>  (20) 
70.41955651476407

>  <rmsd>  (20) 
7.19903

>  <sdf_rank>  (20) 
0

$$$$

     RDKit          3D

 64 65  0  0  0  0  0  0  0  0999 V2000
  -49.4960   93.9026   26.0110 C   0  0  0  0  0  0  0  0  0  0  0  0
  -51.4540   95.5132   25.9589 C   0  0  0  0  0  0  0  0  0  0  0  0
  -50.7850   94.2103   26.3946 C   0  0  0  0  0  0  0  0  0  0  0  0
  -48.8988   92.7080   26.4263 C   0  0  0  0  0  0  0  0  0  0  0  0
  -49.6312   91.8573   27.2297 C   0  0  0  0  0  0  0  0  0  0  0  0
  -50.9227   92.1448   27.5900 C   0  0  0  0  0  0  0  0  0  0  0  0
  -51.5034   93.3289   27.1927 C   0  0  0  0  0  0  0  0  0  0  0  0
  -49.0654   99.5050   22.3760 C   0  0  2  0  0  0  0  0  0  0  0  0
  -48.7666  100.3124   23.5692 C   0  0  0  0  0  0  0  0  0  0  0  0
  -48.0452   99.8264   21.2824 C   0  0  0  0  0  0  0  0  0  0  0  0
  -56.2424   98.7045   21.3871 C   0  0  0  0  0  0  0  0  0  0  0  0
  -55.3260   99.3298   22.4449 C   0  0  0  0  0  0  0  0  0  0  0  0
  -53.9624   98.6768   22.5227 C   0  0  0  0  0  0  0  0  0  0  0  0
  -52.8258   99.6064   22.0816 C   0  0  0  0  0  0  0  0  0  0  0  0
  -51.4681   99.3187   22.7345 C   0  0  1  0  0  0  0  0  0  0  0  0
  -51.2944   97.8392   22.9704 C   0  0  0  0  0  0  0  0  0  0  0  0
  -51.2960   95.8955   24.5134 C   0  0  1  0  0  0  0  0  0  0  0  0
  -52.3530   95.1786   23.6862 C   0  0  0  0  0  0  0  0  0  0  0  0
  -48.2406  101.2344   20.7587 C   0  0  0  0  0  0  0  0  0  0  0  0
  -47.2144  101.6655   19.6971 C   0  0  0  0  0  0  0  0  0  0  0  0
  -45.8959  101.2964   19.8747 C   0  0  0  0  0  0  0  0  0  0  0  0
  -44.9580  101.6657   18.9092 C   0  0  0  0  0  0  0  0  0  0  0  0
  -45.3542  102.4075   17.8183 C   0  0  0  0  0  0  0  0  0  0  0  0
  -46.6675  102.7828   17.6398 C   0  0  0  0  0  0  0  0  0  0  0  0
  -47.6034  102.4079   18.5898 C   0  0  0  0  0  0  0  0  0  0  0  0
  -51.4148   97.3305   24.2896 N   0  0  0  0  0  0  0  0  0  0  0  0
  -50.4064   99.8330   21.8480 N   0  0  0  0  0  0  0  0  0  0  0  0
  -52.0191   94.3057   22.8128 O   0  0  0  0  0  0  0  0  0  0  0  0
  -53.5449   95.4878   23.8400 O   0  0  0  0  0  0  0  0  0  0  0  0
  -49.0578   90.6426   27.6643 O   0  0  0  0  0  0  0  0  0  0  0  0
  -51.0457   97.0707   22.0659 O   0  0  0  0  0  0  0  0  0  0  0  0
  -47.6321  100.9586   23.8893 O   0  0  0  0  0  0  0  0  0  0  0  0
  -49.5489  100.3948   24.6110 O   0  0  0  0  0  0  0  0  0  0  0  0
  -48.9341   94.6017   25.3742 H   0  0  0  0  0  0  0  0  0  0  0  0
  -52.5307   95.4217   26.1650 H   0  0  0  0  0  0  0  0  0  0  0  0
  -50.9468   96.3063   26.5278 H   0  0  0  0  0  0  0  0  0  0  0  0
  -47.8731   92.4533   26.1210 H   0  0  0  0  0  0  0  0  0  0  0  0
  -51.4959   91.4287   28.1972 H   0  0  0  0  0  0  0  0  0  0  0  0
  -52.5289   93.5749   27.5052 H   0  0  0  0  0  0  0  0  0  0  0  0
  -49.0251   98.4428   22.6589 H   0  0  0  0  0  0  0  0  0  0  0  0
  -47.0308   99.7339   21.6976 H   0  0  0  0  0  0  0  0  0  0  0  0
  -48.1857   99.1194   20.4514 H   0  0  0  0  0  0  0  0  0  0  0  0
  -57.0527   98.1515   21.8846 H   0  0  0  0  0  0  0  0  0  0  0  0
  -56.6722   99.4985   20.7587 H   0  0  0  0  0  0  0  0  0  0  0  0
  -55.6598   98.0147   20.7587 H   0  0  0  0  0  0  0  0  0  0  0  0
  -55.1893  100.3940   22.2024 H   0  0  0  0  0  0  0  0  0  0  0  0
  -55.8113   99.1843   23.4212 H   0  0  0  0  0  0  0  0  0  0  0  0
  -53.7800   98.3696   23.5631 H   0  0  0  0  0  0  0  0  0  0  0  0
  -53.9698   97.8178   21.8357 H   0  0  0  0  0  0  0  0  0  0  0  0
  -52.7086   99.5102   20.9921 H   0  0  0  0  0  0  0  0  0  0  0  0
  -53.1136  100.6193   22.3999 H   0  0  0  0  0  0  0  0  0  0  0  0
  -51.4112   99.8187   23.7127 H   0  0  0  0  0  0  0  0  0  0  0  0
  -50.2819   95.5970   24.2093 H   0  0  0  0  0  0  0  0  0  0  0  0
  -49.2443  101.2997   20.3135 H   0  0  0  0  0  0  0  0  0  0  0  0
  -48.1074  101.9098   21.6167 H   0  0  0  0  0  0  0  0  0  0  0  0
  -45.5901  100.7216   20.7613 H   0  0  0  0  0  0  0  0  0  0  0  0
  -43.9056  101.3652   19.0192 H   0  0  0  0  0  0  0  0  0  0  0  0
  -44.6040  102.7074   17.0718 H   0  0  0  0  0  0  0  0  0  0  0  0
  -46.9677  103.3694   16.7591 H   0  0  0  0  0  0  0  0  0  0  0  0
  -48.6570  102.6990   18.4669 H   0  0  0  0  0  0  0  0  0  0  0  0
  -51.5843   97.9686   25.0802 H   0  0  0  0  0  0  0  0  0  0  0  0
  -50.4973  100.8563   21.7733 H   0  0  0  0  0  0  0  0  0  0  0  0
  -50.5105   99.3913   20.9234 H   0  0  0  0  0  0  0  0  0  0  0  0
  -49.5778   90.0281   28.2406 H   0  0  0  0  0  0  0  0  0  0  0  0
  1  3  2  0
  1  4  1  0
  2  3  1  0
 17  2  1  0
  3  7  1  0
  4  5  2  0
  5  6  1  0
  5 30  1  0
  6  7  2  0
  8  9  1  0
  8 10  1  0
  8 27  1  0
  9 32  2  0
  9 33  1  0
 10 19  1  0
 11 12  1  0
 12 13  1  0
 13 14  1  0
 15 14  1  0
 15 16  1  0
 15 27  1  0
 16 26  1  0
 16 31  2  0
 17 18  1  0
 17 26  1  0
 18 28  2  0
 18 29  1  0
 19 20  1  0
 20 21  2  0
 20 25  1  0
 21 22  1  0
 22 23  2  0
 23 24  1  0
 24 25  2  0
  1 34  1  0
  2 35  1  0
  2 36  1  0
  4 37  1  0
  6 38  1  0
  7 39  1  0
  8 40  1  1
 10 41  1  0
 10 42  1  0
 11 43  1  0
 11 44  1  0
 11 45  1  0
 12 46  1  0
 12 47  1  0
 13 48  1  0
 13 49  1  0
 14 50  1  0
 14 51  1  0
 15 52  1  1
 17 53  1  6
 19 54  1  0
 19 55  1  0
 21 56  1  0
 22 57  1  0
 23 58  1  0
 24 59  1  0
 25 60  1  0
 26 61  1  0
 27 62  1  0
 27 63  1  0
 30 64  1  0
M  CHG  3  27   1  29  -1  33  -1
M  END
>  <filename_input>  (21) 
7Q25_8J9_docked.sdf

>  <pdb_id>  (21) 
7Q25_8J9

>  <pose_rank>  (21) 
20

>  <num_atoms_heavy>  (21) 
33

>  <num_torsions>  (21) 
14

>  <pose>  (21) 
[-51.46807760147044, 99.3186857828219, 22.73454541913121, -1.183422760683006, 1.346638478763121, 0.7586927283842018, -0.2305257698077171, 0.0646689365635763, 2.5917937572646803, 2.9728054418213192, -0.7697233186617545, -0.45754853655562633, 1.5373270045543626, -0.9426922415286316, 0.22140344694248576, -0.21893379303512558, 1.7497136112659364, 3.720913112048103, -6.208486878771119, 2.8107265859634976]

>  <energy>  (21) 
-544.0260289498993

>  <inter_energy>  (21) 
-598.198177319988

>  <intra_energy>  (21) 
57.098955520330634

>  <rmsd>  (21) 
9.02159

>  <sdf_rank>  (21) 
0

$$$$

     RDKit          3D

 64 65  0  0  0  0  0  0  0  0999 V2000
  -56.4212   99.5809   20.4969 C   0  0  0  0  0  0  0  0  0  0  0  0
  -56.8631   97.7597   22.2052 C   0  0  0  0  0  0  0  0  0  0  0  0
  -56.6453   99.2194   21.8093 C   0  0  0  0  0  0  0  0  0  0  0  0
  -56.2311  100.9235   20.1539 C   0  0  0  0  0  0  0  0  0  0  0  0
  -56.2804  101.8672   21.1602 C   0  0  0  0  0  0  0  0  0  0  0  0
  -56.4740  101.5103   22.4700 C   0  0  0  0  0  0  0  0  0  0  0  0
  -56.6764  100.1894   22.8033 C   0  0  0  0  0  0  0  0  0  0  0  0
  -50.4734   97.7575   22.6951 C   0  0  2  0  0  0  0  0  0  0  0  0
  -49.2134   98.3574   22.2290 C   0  0  0  0  0  0  0  0  0  0  0  0
  -50.4038   96.2396   22.5181 C   0  0  0  0  0  0  0  0  0  0  0  0
  -51.1744  102.4406   20.2758 C   0  0  0  0  0  0  0  0  0  0  0  0
  -52.3935  101.6636   19.7660 C   0  0  0  0  0  0  0  0  0  0  0  0
  -52.5636  100.3106   20.4235 C   0  0  0  0  0  0  0  0  0  0  0  0
  -52.7650  100.4019   21.9407 C   0  0  0  0  0  0  0  0  0  0  0  0
  -52.5088   99.0965   22.7042 C   0  0  1  0  0  0  0  0  0  0  0  0
  -53.8066   98.3812   22.9849 C   0  0  0  0  0  0  0  0  0  0  0  0
  -55.6402   96.8855   22.2369 C   0  0  1  0  0  0  0  0  0  0  0  0
  -55.7950   95.7687   21.2150 C   0  0  0  0  0  0  0  0  0  0  0  0
  -51.5955   95.5653   23.1664 C   0  0  0  0  0  0  0  0  0  0  0  0
  -51.3124   94.9763   24.5587 C   0  0  0  0  0  0  0  0  0  0  0  0
  -50.1589   94.2382   24.7339 C   0  0  0  0  0  0  0  0  0  0  0  0
  -49.8812   93.7136   25.9972 C   0  0  0  0  0  0  0  0  0  0  0  0
  -50.7667   93.9167   27.0327 C   0  0  0  0  0  0  0  0  0  0  0  0
  -51.9215   94.6477   26.8611 C   0  0  0  0  0  0  0  0  0  0  0  0
  -52.1946   95.1800   25.6117 C   0  0  0  0  0  0  0  0  0  0  0  0
  -54.4121   97.6171   21.9539 N   0  0  0  0  0  0  0  0  0  0  0  0
  -51.6127   98.2504   21.8927 N   0  0  0  0  0  0  0  0  0  0  0  0
  -56.6912   94.8679   21.3613 O   0  0  0  0  0  0  0  0  0  0  0  0
  -55.0061   95.7190   20.2584 O   0  0  0  0  0  0  0  0  0  0  0  0
  -56.0906  103.2307   20.8473 O   0  0  0  0  0  0  0  0  0  0  0  0
  -54.3541   98.4468   24.0650 O   0  0  0  0  0  0  0  0  0  0  0  0
  -48.3882   99.1984   22.8762 O   0  0  0  0  0  0  0  0  0  0  0  0
  -48.7732   98.2737   21.0029 O   0  0  0  0  0  0  0  0  0  0  0  0
  -56.3917   98.8079   19.7149 H   0  0  0  0  0  0  0  0  0  0  0  0
  -57.3083   97.7486   23.2110 H   0  0  0  0  0  0  0  0  0  0  0  0
  -57.5043   97.3363   21.4181 H   0  0  0  0  0  0  0  0  0  0  0  0
  -56.0474  101.2194   19.1105 H   0  0  0  0  0  0  0  0  0  0  0  0
  -56.4678  102.2802   23.2556 H   0  0  0  0  0  0  0  0  0  0  0  0
  -56.8614   99.9044   23.8495 H   0  0  0  0  0  0  0  0  0  0  0  0
  -50.6153   98.0294   23.7515 H   0  0  0  0  0  0  0  0  0  0  0  0
  -50.3957   96.0021   21.4441 H   0  0  0  0  0  0  0  0  0  0  0  0
  -49.4861   95.8709   22.9997 H   0  0  0  0  0  0  0  0  0  0  0  0
  -51.1737  102.4411   21.3758 H   0  0  0  0  0  0  0  0  0  0  0  0
  -50.2547  101.9618   19.9087 H   0  0  0  0  0  0  0  0  0  0  0  0
  -51.2201  103.4766   19.9087 H   0  0  0  0  0  0  0  0  0  0  0  0
  -53.2953  102.2622   19.9622 H   0  0  0  0  0  0  0  0  0  0  0  0
  -52.2380  101.4848   18.6918 H   0  0  0  0  0  0  0  0  0  0  0  0
  -53.4411   99.8148   19.9828 H   0  0  0  0  0  0  0  0  0  0  0  0
  -51.6387   99.7415   20.2484 H   0  0  0  0  0  0  0  0  0  0  0  0
  -52.0781  101.1671   22.3315 H   0  0  0  0  0  0  0  0  0  0  0  0
  -53.8254  100.6489   22.0976 H   0  0  0  0  0  0  0  0  0  0  0  0
  -52.0365   99.3174   23.6727 H   0  0  0  0  0  0  0  0  0  0  0  0
  -55.5570   96.4833   23.2573 H   0  0  0  0  0  0  0  0  0  0  0  0
  -52.4002   96.3089   23.2645 H   0  0  0  0  0  0  0  0  0  0  0  0
  -51.8695   94.7203   22.5177 H   0  0  0  0  0  0  0  0  0  0  0  0
  -49.4709   94.0665   23.8929 H   0  0  0  0  0  0  0  0  0  0  0  0
  -48.9579   93.1397   26.1655 H   0  0  0  0  0  0  0  0  0  0  0  0
  -50.5464   93.4849   28.0201 H   0  0  0  0  0  0  0  0  0  0  0  0
  -52.6142   94.8058   27.7008 H   0  0  0  0  0  0  0  0  0  0  0  0
  -53.1124   95.7653   25.4533 H   0  0  0  0  0  0  0  0  0  0  0  0
  -53.9882   97.5799   21.0159 H   0  0  0  0  0  0  0  0  0  0  0  0
  -51.2526   98.8037   21.1021 H   0  0  0  0  0  0  0  0  0  0  0  0
  -52.1484   97.4388   21.5532 H   0  0  0  0  0  0  0  0  0  0  0  0
  -56.1247  103.9125   21.5643 H   0  0  0  0  0  0  0  0  0  0  0  0
  1  3  2  0
  1  4  1  0
  2  3  1  0
 17  2  1  0
  3  7  1  0
  4  5  2  0
  5  6  1  0
  5 30  1  0
  6  7  2  0
  8  9  1  0
  8 10  1  0
  8 27  1  0
  9 32  2  0
  9 33  1  0
 10 19  1  0
 11 12  1  0
 12 13  1  0
 13 14  1  0
 15 14  1  0
 15 16  1  0
 15 27  1  0
 16 26  1  0
 16 31  2  0
 17 18  1  0
 17 26  1  0
 18 28  2  0
 18 29  1  0
 19 20  1  0
 20 21  2  0
 20 25  1  0
 21 22  1  0
 22 23  2  0
 23 24  1  0
 24 25  2  0
  1 34  1  0
  2 35  1  0
  2 36  1  0
  4 37  1  0
  6 38  1  0
  7 39  1  0
  8 40  1  1
 10 41  1  0
 10 42  1  0
 11 43  1  0
 11 44  1  0
 11 45  1  0
 12 46  1  0
 12 47  1  0
 13 48  1  0
 13 49  1  0
 14 50  1  0
 14 51  1  0
 15 52  1  1
 17 53  1  1
 19 54  1  0
 19 55  1  0
 21 56  1  0
 22 57  1  0
 23 58  1  0
 24 59  1  0
 25 60  1  0
 26 61  1  0
 27 62  1  0
 27 63  1  0
 30 64  1  0
M  CHG  3  27   1  29  -1  33  -1
M  END
>  <filename_input>  (22) 
7Q25_8J9_docked.sdf

>  <pdb_id>  (22) 
7Q25_8J9

>  <pose_rank>  (22) 
21

>  <num_atoms_heavy>  (22) 
33

>  <num_torsions>  (22) 
14

>  <pose>  (22) 
[-52.508834345727905, 99.09645220433622, 22.70419301183426, -0.29284021697455165, 1.7033159336824661, -0.16653951068192444, -3.28457016405429, 4.594710572951917, -2.842267211338519, 5.734266149257754, -0.23824628387761634, 9.798436340146003, -3.9365756776566903, 4.423033914699946, -0.7190300459366898, -32.3495636259792, -0.1593018455309011, -29.779871432527862, 14.096375715362182, 2.7172817563289455]

>  <energy>  (22) 
-542.4506350906465

>  <inter_energy>  (22) 
-581.1487892754003

>  <intra_energy>  (22) 
41.04620643663966

>  <rmsd>  (22) 
5.03213

>  <sdf_rank>  (22) 
0

$$$$

     RDKit          3D

 64 65  0  0  0  0  0  0  0  0999 V2000
  -49.0674  102.6299   22.0000 C   0  0  0  0  0  0  0  0  0  0  0  0
  -51.0027  100.9989   21.8426 C   0  0  0  0  0  0  0  0  0  0  0  0
  -50.1559  102.1500   21.3013 C   0  0  0  0  0  0  0  0  0  0  0  0
  -48.3005  103.6797   21.4842 C   0  0  0  0  0  0  0  0  0  0  0  0
  -48.6607  104.2115   20.2622 C   0  0  0  0  0  0  0  0  0  0  0  0
  -49.7586  103.7575   19.5774 C   0  0  0  0  0  0  0  0  0  0  0  0
  -50.5030  102.7134   20.0799 C   0  0  0  0  0  0  0  0  0  0  0  0
  -53.5582   96.3785   21.5358 C   0  0  2  0  0  0  0  0  0  0  0  0
  -52.6376   95.3454   21.0359 C   0  0  0  0  0  0  0  0  0  0  0  0
  -54.3009   95.8408   22.7604 C   0  0  0  0  0  0  0  0  0  0  0  0
  -57.9420  101.1204   23.1605 C   0  0  0  0  0  0  0  0  0  0  0  0
  -56.5405  100.5134   23.0291 C   0  0  0  0  0  0  0  0  0  0  0  0
  -56.2931   99.8533   21.6894 C   0  0  0  0  0  0  0  0  0  0  0  0
  -55.3449   98.6517   21.7785 C   0  0  0  0  0  0  0  0  0  0  0  0
  -54.7835   98.1730   20.4338 C   0  0  1  0  0  0  0  0  0  0  0  0
  -53.4933   98.8849   20.1125 C   0  0  0  0  0  0  0  0  0  0  0  0
  -51.3649   99.9169   20.8635 C   0  0  1  0  0  0  0  0  0  0  0  0
  -50.2676   98.8628   20.8516 C   0  0  0  0  0  0  0  0  0  0  0  0
  -53.3348   95.5355   23.8866 C   0  0  0  0  0  0  0  0  0  0  0  0
  -52.4529   96.7236   24.3067 C   0  0  0  0  0  0  0  0  0  0  0  0
  -51.1345   96.4758   24.6329 C   0  0  0  0  0  0  0  0  0  0  0  0
  -50.3188   97.5480   24.9981 C   0  0  0  0  0  0  0  0  0  0  0  0
  -50.8439   98.8204   25.0519 C   0  0  0  0  0  0  0  0  0  0  0  0
  -52.1601   99.0715   24.7328 C   0  0  0  0  0  0  0  0  0  0  0  0
  -52.9696   98.0117   24.3583 C   0  0  0  0  0  0  0  0  0  0  0  0
  -52.6348   99.2727   21.1736 N   0  0  0  0  0  0  0  0  0  0  0  0
  -54.5688   96.7151   20.5111 N   0  0  0  0  0  0  0  0  0  0  0  0
  -49.5001   98.7063   21.8629 O   0  0  0  0  0  0  0  0  0  0  0  0
  -50.0986   98.1861   19.8253 O   0  0  0  0  0  0  0  0  0  0  0  0
  -47.9084  105.2733   19.7149 O   0  0  0  0  0  0  0  0  0  0  0  0
  -53.1709   99.1444   18.9726 O   0  0  0  0  0  0  0  0  0  0  0  0
  -51.2950   95.3112   21.0931 O   0  0  0  0  0  0  0  0  0  0  0  0
  -53.0045   94.3364   20.2932 O   0  0  0  0  0  0  0  0  0  0  0  0
  -48.8007  102.1837   22.9695 H   0  0  0  0  0  0  0  0  0  0  0  0
  -50.4439  100.5311   22.6665 H   0  0  0  0  0  0  0  0  0  0  0  0
  -51.9584  101.4546   22.1409 H   0  0  0  0  0  0  0  0  0  0  0  0
  -47.4339  104.0710   22.0372 H   0  0  0  0  0  0  0  0  0  0  0  0
  -50.0452  104.2281   18.6253 H   0  0  0  0  0  0  0  0  0  0  0  0
  -51.3666  102.3282   19.5179 H   0  0  0  0  0  0  0  0  0  0  0  0
  -52.9696   97.2729   21.7877 H   0  0  0  0  0  0  0  0  0  0  0  0
  -55.0257   96.5946   23.1018 H   0  0  0  0  0  0  0  0  0  0  0  0
  -54.8176   94.9116   22.4785 H   0  0  0  0  0  0  0  0  0  0  0  0
  -58.1956  101.2303   24.2252 H   0  0  0  0  0  0  0  0  0  0  0  0
  -57.9610  102.1075   22.6753 H   0  0  0  0  0  0  0  0  0  0  0  0
  -58.6750  100.4592   22.6753 H   0  0  0  0  0  0  0  0  0  0  0  0
  -55.7995  101.3149   23.1647 H   0  0  0  0  0  0  0  0  0  0  0  0
  -56.4528   99.7309   23.7972 H   0  0  0  0  0  0  0  0  0  0  0  0
  -57.2566   99.5099   21.2848 H   0  0  0  0  0  0  0  0  0  0  0  0
  -55.8164  100.6005   21.0379 H   0  0  0  0  0  0  0  0  0  0  0  0
  -54.4981   98.9313   22.4226 H   0  0  0  0  0  0  0  0  0  0  0  0
  -55.9393   97.8178   22.1800 H   0  0  0  0  0  0  0  0  0  0  0  0
  -55.4973   98.4021   19.6288 H   0  0  0  0  0  0  0  0  0  0  0  0
  -51.4693  100.3946   19.8781 H   0  0  0  0  0  0  0  0  0  0  0  0
  -53.9177   95.2132   24.7620 H   0  0  0  0  0  0  0  0  0  0  0  0
  -52.6543   94.7557   23.5138 H   0  0  0  0  0  0  0  0  0  0  0  0
  -50.7339   95.4517   24.6054 H   0  0  0  0  0  0  0  0  0  0  0  0
  -49.2599   97.3775   25.2422 H   0  0  0  0  0  0  0  0  0  0  0  0
  -50.1966   99.6559   25.3569 H   0  0  0  0  0  0  0  0  0  0  0  0
  -52.5611  100.0949   24.7746 H   0  0  0  0  0  0  0  0  0  0  0  0
  -54.0240   98.1907   24.1013 H   0  0  0  0  0  0  0  0  0  0  0  0
  -52.9061   99.1008   22.1523 H   0  0  0  0  0  0  0  0  0  0  0  0
  -54.2449   96.3740   19.5947 H   0  0  0  0  0  0  0  0  0  0  0  0
  -55.4591   96.2671   20.7708 H   0  0  0  0  0  0  0  0  0  0  0  0
  -48.1614  105.6592   18.8390 H   0  0  0  0  0  0  0  0  0  0  0  0
  1  3  2  0
  1  4  1  0
  2  3  1  0
 17  2  1  0
  3  7  1  0
  4  5  2  0
  5  6  1  0
  5 30  1  0
  6  7  2  0
  8  9  1  0
  8 10  1  0
  8 27  1  0
  9 32  2  0
  9 33  1  0
 10 19  1  0
 11 12  1  0
 12 13  1  0
 13 14  1  0
 15 14  1  0
 15 16  1  0
 15 27  1  0
 16 26  1  0
 16 31  2  0
 17 18  1  0
 17 26  1  0
 18 28  2  0
 18 29  1  0
 19 20  1  0
 20 21  2  0
 20 25  1  0
 21 22  1  0
 22 23  2  0
 23 24  1  0
 24 25  2  0
  1 34  1  0
  2 35  1  0
  2 36  1  0
  4 37  1  0
  6 38  1  0
  7 39  1  0
  8 40  1  1
 10 41  1  0
 10 42  1  0
 11 43  1  0
 11 44  1  0
 11 45  1  0
 12 46  1  0
 12 47  1  0
 13 48  1  0
 13 49  1  0
 14 50  1  0
 14 51  1  0
 15 52  1  6
 17 53  1  6
 19 54  1  0
 19 55  1  0
 21 56  1  0
 22 57  1  0
 23 58  1  0
 24 59  1  0
 25 60  1  0
 26 61  1  0
 27 62  1  0
 27 63  1  0
 30 64  1  0
M  CHG  3  27   1  29  -1  33  -1
M  END
>  <filename_input>  (23) 
7Q25_8J9_docked.sdf

>  <pdb_id>  (23) 
7Q25_8J9

>  <pose_rank>  (23) 
22

>  <num_atoms_heavy>  (23) 
33

>  <num_torsions>  (23) 
14

>  <pose>  (23) 
[-54.78347527813258, 98.1729937446639, 20.433806882990798, -3.467674084059888, 3.118036830667138, -0.09983784274132615, 2.170453782614323, -0.5922809309339891, -1.2635208613053202, 3.0463373410941452, 2.3741940628369838, 0.5149885150146071, 2.2886906978087667, 0.7790589047871216, 2.1939601901691437, -1.3645369863576817, 0.1601723495434154, -0.26989403892584307, -2.0474360871425668, 1.0498317557041628]

>  <energy>  (23) 
-549.0952949378793

>  <inter_energy>  (23) 
-590.2098950660145

>  <intra_energy>  (23) 
41.391571973577456

>  <rmsd>  (23) 
6.98364

>  <sdf_rank>  (23) 
0

$$$$

     RDKit          3D

 64 65  0  0  0  0  0  0  0  0999 V2000
  -50.2107   94.7319   24.5068 C   0  0  0  0  0  0  0  0  0  0  0  0
  -51.7228   96.6152   23.7341 C   0  0  0  0  0  0  0  0  0  0  0  0
  -51.3434   95.4949   24.7017 C   0  0  0  0  0  0  0  0  0  0  0  0
  -49.8768   93.7155   25.4079 C   0  0  0  0  0  0  0  0  0  0  0  0
  -50.7059   93.5062   26.4917 C   0  0  0  0  0  0  0  0  0  0  0  0
  -51.8482   94.2426   26.6742 C   0  0  0  0  0  0  0  0  0  0  0  0
  -52.1667   95.2531   25.7942 C   0  0  0  0  0  0  0  0  0  0  0  0
  -54.5455   99.1835   21.8878 C   0  0  2  0  0  0  0  0  0  0  0  0
  -55.2363   97.9906   21.3734 C   0  0  0  0  0  0  0  0  0  0  0  0
  -55.5791  100.1585   22.4545 C   0  0  0  0  0  0  0  0  0  0  0  0
  -48.6917  100.3961   22.0994 C   0  0  0  0  0  0  0  0  0  0  0  0
  -49.6123  101.5826   22.4074 C   0  0  0  0  0  0  0  0  0  0  0  0
  -50.6559  101.8285   21.3387 C   0  0  0  0  0  0  0  0  0  0  0  0
  -52.0348  101.2679   21.7064 C   0  0  0  0  0  0  0  0  0  0  0  0
  -52.3733   99.9170   21.0636 C   0  0  1  0  0  0  0  0  0  0  0  0
  -51.9650   98.7809   21.9675 C   0  0  0  0  0  0  0  0  0  0  0  0
  -51.3965   96.3861   22.2844 C   0  0  1  0  0  0  0  0  0  0  0  0
  -52.0538   95.0948   21.8200 C   0  0  0  0  0  0  0  0  0  0  0  0
  -56.7241  100.3567   21.4825 C   0  0  0  0  0  0  0  0  0  0  0  0
  -56.3203  101.0106   20.1502 C   0  0  0  0  0  0  0  0  0  0  0  0
  -56.5547  100.3129   18.9821 C   0  0  0  0  0  0  0  0  0  0  0  0
  -56.2096  100.9030   17.7652 C   0  0  0  0  0  0  0  0  0  0  0  0
  -55.6225  102.1491   17.7506 C   0  0  0  0  0  0  0  0  0  0  0  0
  -55.3816  102.8464   18.9138 C   0  0  0  0  0  0  0  0  0  0  0  0
  -55.7336  102.2691   20.1227 C   0  0  0  0  0  0  0  0  0  0  0  0
  -51.8380   97.4763   21.4242 N   0  0  0  0  0  0  0  0  0  0  0  0
  -53.8246   99.8772   20.7998 N   0  0  0  0  0  0  0  0  0  0  0  0
  -51.3883   94.2212   21.1642 O   0  0  0  0  0  0  0  0  0  0  0  0
  -53.2613   94.9220   22.0482 O   0  0  0  0  0  0  0  0  0  0  0  0
  -50.3979   92.4869   27.4186 O   0  0  0  0  0  0  0  0  0  0  0  0
  -51.7501   98.9475   23.1494 O   0  0  0  0  0  0  0  0  0  0  0  0
  -55.3455   97.5590   20.1049 O   0  0  0  0  0  0  0  0  0  0  0  0
  -56.0090   97.2249   22.0951 O   0  0  0  0  0  0  0  0  0  0  0  0
  -49.5656   94.9240   23.6368 H   0  0  0  0  0  0  0  0  0  0  0  0
  -52.8089   96.7710   23.8121 H   0  0  0  0  0  0  0  0  0  0  0  0
  -51.1152   97.4807   24.0369 H   0  0  0  0  0  0  0  0  0  0  0  0
  -48.9779   93.0997   25.2572 H   0  0  0  0  0  0  0  0  0  0  0  0
  -52.5112   94.0260   27.5248 H   0  0  0  0  0  0  0  0  0  0  0  0
  -53.0669   95.8644   25.9552 H   0  0  0  0  0  0  0  0  0  0  0  0
  -53.8334   98.8629   22.6625 H   0  0  0  0  0  0  0  0  0  0  0  0
  -55.9740   99.7561   23.3991 H   0  0  0  0  0  0  0  0  0  0  0  0
  -55.0906  101.1291   22.6253 H   0  0  0  0  0  0  0  0  0  0  0  0
  -48.3438   99.9477   23.0417 H   0  0  0  0  0  0  0  0  0  0  0  0
  -49.2450   99.6440   21.5178 H   0  0  0  0  0  0  0  0  0  0  0  0
  -47.8258  100.7452   21.5178 H   0  0  0  0  0  0  0  0  0  0  0  0
  -50.1277  101.3859   23.3590 H   0  0  0  0  0  0  0  0  0  0  0  0
  -48.9788  102.4806   22.4547 H   0  0  0  0  0  0  0  0  0  0  0  0
  -50.7490  102.9135   21.1830 H   0  0  0  0  0  0  0  0  0  0  0  0
  -50.3224  101.3096   20.4280 H   0  0  0  0  0  0  0  0  0  0  0  0
  -52.0744  101.1463   22.7989 H   0  0  0  0  0  0  0  0  0  0  0  0
  -52.7734  101.9869   21.3222 H   0  0  0  0  0  0  0  0  0  0  0  0
  -51.8200   99.8041   20.1196 H   0  0  0  0  0  0  0  0  0  0  0  0
  -50.3009   96.3265   22.2055 H   0  0  0  0  0  0  0  0  0  0  0  0
  -57.1637   99.3725   21.2634 H   0  0  0  0  0  0  0  0  0  0  0  0
  -57.4324  101.0443   21.9678 H   0  0  0  0  0  0  0  0  0  0  0  0
  -57.0054   99.3099   19.0100 H   0  0  0  0  0  0  0  0  0  0  0  0
  -56.4060  100.3746   16.8206 H   0  0  0  0  0  0  0  0  0  0  0  0
  -55.3393  102.5979   16.7871 H   0  0  0  0  0  0  0  0  0  0  0  0
  -54.9180  103.8435   18.8832 H   0  0  0  0  0  0  0  0  0  0  0  0
  -55.5481  102.8087   21.0632 H   0  0  0  0  0  0  0  0  0  0  0  0
  -52.0556   97.3018   20.4326 H   0  0  0  0  0  0  0  0  0  0  0  0
  -53.9918   99.3784   19.9143 H   0  0  0  0  0  0  0  0  0  0  0  0
  -54.1729  100.8448   20.7423 H   0  0  0  0  0  0  0  0  0  0  0  0
  -50.9884   92.3316   28.1979 H   0  0  0  0  0  0  0  0  0  0  0  0
  1  3  2  0
  1  4  1  0
  2  3  1  0
 17  2  1  0
  3  7  1  0
  4  5  2  0
  5  6  1  0
  5 30  1  0
  6  7  2  0
  8  9  1  0
  8 10  1  0
  8 27  1  0
  9 32  2  0
  9 33  1  0
 10 19  1  0
 11 12  1  0
 12 13  1  0
 13 14  1  0
 15 14  1  0
 15 16  1  0
 15 27  1  0
 16 26  1  0
 16 31  2  0
 17 18  1  0
 17 26  1  0
 18 28  2  0
 18 29  1  0
 19 20  1  0
 20 21  2  0
 20 25  1  0
 21 22  1  0
 22 23  2  0
 23 24  1  0
 24 25  2  0
  1 34  1  0
  2 35  1  0
  2 36  1  0
  4 37  1  0
  6 38  1  0
  7 39  1  0
  8 40  1  1
 10 41  1  0
 10 42  1  0
 11 43  1  0
 11 44  1  0
 11 45  1  0
 12 46  1  0
 12 47  1  0
 13 48  1  0
 13 49  1  0
 14 50  1  0
 14 51  1  0
 15 52  1  6
 17 53  1  1
 19 54  1  0
 19 55  1  0
 21 56  1  0
 22 57  1  0
 23 58  1  0
 24 59  1  0
 25 60  1  0
 26 61  1  0
 27 62  1  0
 27 63  1  0
 30 64  1  0
M  CHG  3  27   1  29  -1  33  -1
M  END
>  <filename_input>  (24) 
7Q25_8J9_docked.sdf

>  <pdb_id>  (24) 
7Q25_8J9

>  <pose_rank>  (24) 
23

>  <num_atoms_heavy>  (24) 
33

>  <num_torsions>  (24) 
14

>  <pose>  (24) 
[-52.37329276351592, 99.91703466635889, 21.063563486840458, -0.3968284434426088, -2.395475864135642, -0.4781540437761582, -1.2256372061643708, 3.662777530853589, 2.2937990711663674, 2.491443415244934, -0.9533058785412459, 0.5490653575128239, -2.851251661155865, -1.1742575823356358, 1.6127749725525964, -1.042510508640494, 4.037226342522408, -2.2013873122157004, 2.146815523178256, -0.6621519311134246]

>  <energy>  (24) 
-546.2696909881613

>  <inter_energy>  (24) 
-665.8120256924911

>  <intra_energy>  (24) 
128.4263351254702

>  <rmsd>  (24) 
9.19894

>  <sdf_rank>  (24) 
0

$$$$

     RDKit          3D

 64 65  0  0  0  0  0  0  0  0999 V2000
  -45.1832   99.5936   22.8798 C   0  0  0  0  0  0  0  0  0  0  0  0
  -46.8677   99.3484   21.0002 C   0  0  0  0  0  0  0  0  0  0  0  0
  -45.4772   99.1571   21.6045 C   0  0  0  0  0  0  0  0  0  0  0  0
  -43.9063   99.4027   23.4177 C   0  0  0  0  0  0  0  0  0  0  0  0
  -42.9600   98.7644   22.6412 C   0  0  0  0  0  0  0  0  0  0  0  0
  -43.2386   98.3546   21.3626 C   0  0  0  0  0  0  0  0  0  0  0  0
  -44.5012   98.5296   20.8408 C   0  0  0  0  0  0  0  0  0  0  0  0
  -52.9277   96.9534   24.0407 C   0  0  2  0  0  0  0  0  0  0  0  0
  -52.2264   95.9665   24.8767 C   0  0  0  0  0  0  0  0  0  0  0  0
  -53.1521   96.3638   22.6470 C   0  0  0  0  0  0  0  0  0  0  0  0
  -53.3113  102.5643   21.2285 C   0  0  0  0  0  0  0  0  0  0  0  0
  -52.4593  101.3158   20.9731 C   0  0  0  0  0  0  0  0  0  0  0  0
  -52.7038  100.2049   21.9721 C   0  0  0  0  0  0  0  0  0  0  0  0
  -52.0923   98.8662   21.5424 C   0  0  0  0  0  0  0  0  0  0  0  0
  -51.3167   98.1298   22.6419 C   0  0  1  0  0  0  0  0  0  0  0  0
  -49.9636   98.7617   22.8523 C   0  0  0  0  0  0  0  0  0  0  0  0
  -47.9365   99.8553   21.9282 C   0  0  1  0  0  0  0  0  0  0  0  0
  -48.1090  101.3533   21.7245 C   0  0  0  0  0  0  0  0  0  0  0  0
  -54.6259   96.1205   22.3947 C   0  0  0  0  0  0  0  0  0  0  0  0
  -55.3621   97.3025   21.7416 C   0  0  0  0  0  0  0  0  0  0  0  0
  -56.2032   98.0639   22.5284 C   0  0  0  0  0  0  0  0  0  0  0  0
  -56.8631   99.1505   21.9521 C   0  0  0  0  0  0  0  0  0  0  0  0
  -56.6866   99.4277   20.6144 C   0  0  0  0  0  0  0  0  0  0  0  0
  -55.8528   98.6674   19.8243 C   0  0  0  0  0  0  0  0  0  0  0  0
  -55.1870   97.5954   20.3954 C   0  0  0  0  0  0  0  0  0  0  0  0
  -49.2222   99.2002   21.7247 N   0  0  0  0  0  0  0  0  0  0  0  0
  -52.1121   98.1761   23.8839 N   0  0  0  0  0  0  0  0  0  0  0  0
  -47.6411  102.1871   22.5742 O   0  0  0  0  0  0  0  0  0  0  0  0
  -48.7524  101.7536   20.7418 O   0  0  0  0  0  0  0  0  0  0  0  0
  -41.6610   98.5581   23.1541 O   0  0  0  0  0  0  0  0  0  0  0  0
  -49.4850   98.8987   23.9583 O   0  0  0  0  0  0  0  0  0  0  0  0
  -52.5776   94.7011   25.1640 O   0  0  0  0  0  0  0  0  0  0  0  0
  -51.1883   96.2425   25.6185 O   0  0  0  0  0  0  0  0  0  0  0  0
  -45.9584  100.0951   23.4778 H   0  0  0  0  0  0  0  0  0  0  0  0
  -46.7765  100.0658   20.1714 H   0  0  0  0  0  0  0  0  0  0  0  0
  -47.1958   98.3427   20.6986 H   0  0  0  0  0  0  0  0  0  0  0  0
  -43.6626   99.7518   24.4319 H   0  0  0  0  0  0  0  0  0  0  0  0
  -42.4526   97.8853   20.7528 H   0  0  0  0  0  0  0  0  0  0  0  0
  -44.7350   98.1750   19.8261 H   0  0  0  0  0  0  0  0  0  0  0  0
  -53.8827   97.2014   24.5269 H   0  0  0  0  0  0  0  0  0  0  0  0
  -52.7685   97.0664   21.8925 H   0  0  0  0  0  0  0  0  0  0  0  0
  -52.6207   95.4028   22.5819 H   0  0  0  0  0  0  0  0  0  0  0  0
  -53.4177  102.7202   22.3122 H   0  0  0  0  0  0  0  0  0  0  0  0
  -52.8220  103.4405   20.7783 H   0  0  0  0  0  0  0  0  0  0  0  0
  -54.3057  102.4280   20.7783 H   0  0  0  0  0  0  0  0  0  0  0  0
  -52.6899  100.9364   19.9667 H   0  0  0  0  0  0  0  0  0  0  0  0
  -51.4058  101.6161   21.0736 H   0  0  0  0  0  0  0  0  0  0  0  0
  -52.2633  100.4978   22.9365 H   0  0  0  0  0  0  0  0  0  0  0  0
  -53.7920  100.0612   22.0438 H   0  0  0  0  0  0  0  0  0  0  0  0
  -52.9078   98.2113   21.2018 H   0  0  0  0  0  0  0  0  0  0  0  0
  -51.3630   99.0987   20.7523 H   0  0  0  0  0  0  0  0  0  0  0  0
  -51.1509   97.0838   22.3446 H   0  0  0  0  0  0  0  0  0  0  0  0
  -47.6088   99.6276   22.9533 H   0  0  0  0  0  0  0  0  0  0  0  0
  -54.7221   95.2472   21.7328 H   0  0  0  0  0  0  0  0  0  0  0  0
  -55.0916   95.9657   23.3791 H   0  0  0  0  0  0  0  0  0  0  0  0
  -56.3506   97.8186   23.5905 H   0  0  0  0  0  0  0  0  0  0  0  0
  -57.5221   99.7837   22.5644 H   0  0  0  0  0  0  0  0  0  0  0  0
  -57.2242  100.2763   20.1664 H   0  0  0  0  0  0  0  0  0  0  0  0
  -55.7183   98.9071   18.7592 H   0  0  0  0  0  0  0  0  0  0  0  0
  -54.5179   96.9747   19.7813 H   0  0  0  0  0  0  0  0  0  0  0  0
  -49.5888   99.0571   20.7729 H   0  0  0  0  0  0  0  0  0  0  0  0
  -52.7363   98.9948   23.8530 H   0  0  0  0  0  0  0  0  0  0  0  0
  -51.4661   98.2425   24.6833 H   0  0  0  0  0  0  0  0  0  0  0  0
  -40.9778   98.1010   22.6024 H   0  0  0  0  0  0  0  0  0  0  0  0
  1  3  2  0
  1  4  1  0
  2  3  1  0
 17  2  1  0
  3  7  1  0
  4  5  2  0
  5  6  1  0
  5 30  1  0
  6  7  2  0
  8  9  1  0
  8 10  1  0
  8 27  1  0
  9 32  2  0
  9 33  1  0
 10 19  1  0
 11 12  1  0
 12 13  1  0
 13 14  1  0
 15 14  1  0
 15 16  1  0
 15 27  1  0
 16 26  1  0
 16 31  2  0
 17 18  1  0
 17 26  1  0
 18 28  2  0
 18 29  1  0
 19 20  1  0
 20 21  2  0
 20 25  1  0
 21 22  1  0
 22 23  2  0
 23 24  1  0
 24 25  2  0
  1 34  1  0
  2 35  1  0
  2 36  1  0
  4 37  1  0
  6 38  1  0
  7 39  1  0
  8 40  1  1
 10 41  1  0
 10 42  1  0
 11 43  1  0
 11 44  1  0
 11 45  1  0
 12 46  1  0
 12 47  1  0
 13 48  1  0
 13 49  1  0
 14 50  1  0
 14 51  1  0
 15 52  1  6
 17 53  1  1
 19 54  1  0
 19 55  1  0
 21 56  1  0
 22 57  1  0
 23 58  1  0
 24 59  1  0
 25 60  1  0
 26 61  1  0
 27 62  1  0
 27 63  1  0
 30 64  1  0
M  CHG  3  27   1  29  -1  33  -1
M  END
>  <filename_input>  (25) 
7Q25_8J9_docked.sdf

>  <pdb_id>  (25) 
7Q25_8J9

>  <pose_rank>  (25) 
24

>  <num_atoms_heavy>  (25) 
33

>  <num_torsions>  (25) 
14

>  <pose>  (25) 
[-51.31668712297977, 98.12980363241925, 22.64185133823662, -0.35702996276172383, -1.3839657917108568, 1.3946249202230545, 0.9091599747544491, -0.7278661746837419, 2.7760670205140014, -3.047118743513221, -1.701048943602573, -2.3931892027352606, 1.2259228249374927, -0.002216595806033119, -1.3262922542640112, -3.599322230029669, 1.0832035056745997, 0.5947371805584952, -1.434456394635863, 1.6740796477431297]

>  <energy>  (25) 
-586.6965922172521

>  <inter_energy>  (25) 
-601.3358682574936

>  <intra_energy>  (25) 
26.944964775858317

>  <rmsd>  (25) 
8.89831

>  <sdf_rank>  (25) 
0

$$$$

     RDKit          3D

 64 65  0  0  0  0  0  0  0  0999 V2000
  -54.4320   97.3920   20.0260 C   0  0  0  0  0  0  0  0  0  0  0  0
  -53.5110   95.0820   20.5220 C   0  0  0  0  0  0  0  0  0  0  0  0
  -54.4730   96.2400   20.7840 C   0  0  0  0  0  0  0  0  0  0  0  0
  -55.3260   98.4380   20.2770 C   0  0  0  0  0  0  0  0  0  0  0  0
  -56.2460   98.2800   21.2940 C   0  0  0  0  0  0  0  0  0  0  0  0
  -56.2720   97.1490   22.0690 C   0  0  0  0  0  0  0  0  0  0  0  0
  -55.4010   96.1140   21.8100 C   0  0  0  0  0  0  0  0  0  0  0  0
  -50.8340   94.3030   26.0240 C   0  0  2  0  0  0  0  0  0  0  0  0
  -52.2030   94.2940   26.5630 C   0  0  0  0  0  0  0  0  0  0  0  0
  -49.8820   93.6990   27.0580 C   0  0  0  0  0  0  0  0  0  0  0  0
  -54.0310   99.8440   23.5290 C   0  0  0  0  0  0  0  0  0  0  0  0
  -53.2190   98.7660   24.2560 C   0  0  0  0  0  0  0  0  0  0  0  0
  -51.7740   98.6970   23.8100 C   0  0  0  0  0  0  0  0  0  0  0  0
  -50.9000   97.8440   24.7370 C   0  0  0  0  0  0  0  0  0  0  0  0
  -51.2830   96.3600   24.7980 C   0  0  1  0  0  0  0  0  0  0  0  0
  -51.1730   95.7260   23.4340 C   0  0  0  0  0  0  0  0  0  0  0  0
  -52.2000   95.1220   21.2570 C   0  0  1  0  0  0  0  0  0  0  0  0
  -51.2010   95.9450   20.4570 C   0  0  0  0  0  0  0  0  0  0  0  0
  -49.9760   92.1870   27.0600 C   0  0  0  0  0  0  0  0  0  0  0  0
  -48.9350   91.4870   27.9500 C   0  0  0  0  0  0  0  0  0  0  0  0
  -49.1980   90.2000   28.3750 C   0  0  0  0  0  0  0  0  0  0  0  0
  -48.2530   89.5470   29.1680 C   0  0  0  0  0  0  0  0  0  0  0  0
  -47.0960   90.2000   29.5320 C   0  0  0  0  0  0  0  0  0  0  0  0
  -46.8320   91.4860   29.1150 C   0  0  0  0  0  0  0  0  0  0  0  0
  -47.7620   92.1330   28.3180 C   0  0  0  0  0  0  0  0  0  0  0  0
  -52.3160   95.6900   22.5940 N   0  0  0  0  0  0  0  0  0  0  0  0
  -50.3880   95.6870   25.7590 N   0  0  0  0  0  0  0  0  0  0  0  0
  -51.0060   97.1800   20.7270 O   0  0  0  0  0  0  0  0  0  0  0  0
  -50.6100   95.4100   19.5060 O   0  0  0  0  0  0  0  0  0  0  0  0
  -57.1610   99.3180   21.5740 O   0  0  0  0  0  0  0  0  0  0  0  0
  -50.1370   95.2370   23.0360 O   0  0  0  0  0  0  0  0  0  0  0  0
  -53.2900   93.6550   26.0970 O   0  0  0  0  0  0  0  0  0  0  0  0
  -52.6120   95.0660   27.5330 O   0  0  0  0  0  0  0  0  0  0  0  0
  -53.6911   97.4886   19.2187 H   0  0  0  0  0  0  0  0  0  0  0  0
  -54.0241   94.1506   20.8035 H   0  0  0  0  0  0  0  0  0  0  0  0
  -53.2503   95.1545   19.4558 H   0  0  0  0  0  0  0  0  0  0  0  0
  -55.2968   99.3615   19.6802 H   0  0  0  0  0  0  0  0  0  0  0  0
  -56.9896   97.0683   22.8988 H   0  0  0  0  0  0  0  0  0  0  0  0
  -55.4399   95.1938   22.4115 H   0  0  0  0  0  0  0  0  0  0  0  0
  -50.8271   93.7231   25.0893 H   0  0  0  0  0  0  0  0  0  0  0  0
  -48.8510   93.9956   26.8150 H   0  0  0  0  0  0  0  0  0  0  0  0
  -50.1635   94.0703   28.0545 H   0  0  0  0  0  0  0  0  0  0  0  0
  -54.5211  100.4947   24.2682 H   0  0  0  0  0  0  0  0  0  0  0  0
  -53.3599  100.4458   22.8986 H   0  0  0  0  0  0  0  0  0  0  0  0
  -54.7947   99.3650   22.8986 H   0  0  0  0  0  0  0  0  0  0  0  0
  -53.2409   98.9813   25.3345 H   0  0  0  0  0  0  0  0  0  0  0  0
  -53.6792   97.7962   24.0156 H   0  0  0  0  0  0  0  0  0  0  0  0
  -51.7395   98.2638   22.7995 H   0  0  0  0  0  0  0  0  0  0  0  0
  -51.3740   99.7215   23.8320 H   0  0  0  0  0  0  0  0  0  0  0  0
  -49.8596   97.9146   24.3868 H   0  0  0  0  0  0  0  0  0  0  0  0
  -51.0448   98.2427   25.7519 H   0  0  0  0  0  0  0  0  0  0  0  0
  -52.3275   96.2576   25.1273 H   0  0  0  0  0  0  0  0  0  0  0  0
  -51.8605   94.0817   21.3688 H   0  0  0  0  0  0  0  0  0  0  0  0
  -50.9780   91.9050   27.4156 H   0  0  0  0  0  0  0  0  0  0  0  0
  -49.7790   91.8588   26.0288 H   0  0  0  0  0  0  0  0  0  0  0  0
  -50.1355   89.6982   28.0937 H   0  0  0  0  0  0  0  0  0  0  0  0
  -48.4316   88.5140   29.5013 H   0  0  0  0  0  0  0  0  0  0  0  0
  -46.3655   89.6821   30.1709 H   0  0  0  0  0  0  0  0  0  0  0  0
  -45.8996   91.9900   29.4095 H   0  0  0  0  0  0  0  0  0  0  0  0
  -47.5710   93.1608   27.9758 H   0  0  0  0  0  0  0  0  0  0  0  0
  -53.2177   96.0612   22.9256 H   0  0  0  0  0  0  0  0  0  0  0  0
  -50.3864   96.2149   26.6434 H   0  0  0  0  0  0  0  0  0  0  0  0
  -49.4411   95.6534   25.3551 H   0  0  0  0  0  0  0  0  0  0  0  0
  -57.8233   99.2110   22.3020 H   0  0  0  0  0  0  0  0  0  0  0  0
  1  3  2  0
  1  4  1  0
  2  3  1  0
 17  2  1  0
  3  7  1  0
  4  5  2  0
  5  6  1  0
  5 30  1  0
  6  7  2  0
  8  9  1  0
  8 10  1  0
  8 27  1  0
  9 32  2  0
  9 33  1  0
 10 19  1  0
 11 12  1  0
 12 13  1  0
 13 14  1  0
 15 14  1  0
 15 16  1  0
 15 27  1  0
 16 26  1  0
 16 31  2  0
 17 18  1  0
 17 26  1  0
 18 28  2  0
 18 29  1  0
 19 20  1  0
 20 21  2  0
 20 25  1  0
 21 22  1  0
 22 23  2  0
 23 24  1  0
 24 25  2  0
  1 34  1  0
  2 35  1  0
  2 36  1  0
  4 37  1  0
  6 38  1  0
  7 39  1  0
  8 40  1  6
 10 41  1  0
 10 42  1  0
 11 43  1  0
 11 44  1  0
 11 45  1  0
 12 46  1  0
 12 47  1  0
 13 48  1  0
 13 49  1  0
 14 50  1  0
 14 51  1  0
 15 52  1  1
 17 53  1  1
 19 54  1  0
 19 55  1  0
 21 56  1  0
 22 57  1  0
 23 58  1  0
 24 59  1  0
 25 60  1  0
 26 61  1  0
 27 62  1  0
 27 63  1  0
 30 64  1  0
M  CHG  3  27   1  29  -1  33  -1
M  END
>  <filename_input>  (26) 
7Q25_8J9_docked.sdf

>  <pdb_id>  (26) 
7Q25_8J9

>  <pose_rank>  (26) 
25

>  <num_atoms_heavy>  (26) 
33

>  <num_torsions>  (26) 
14

>  <pose>  (26) 
[-51.283, 96.36, 24.798, 1e-06, 1e-06, 1e-06, 0.0, 0.0, 0.0, 0.0, 0.0, 0.0, 0.0, 0.0, 0.0, 0.0, 0.0, 0.0, 0.0, 0.0]

>  <energy>  (26) 
-1050.6183517152986

>  <inter_energy>  (26) 
-1100.8243386744496

>  <intra_energy>  (26) 
51.51791810898527

>  <rmsd>  (26) 
0.0

>  <sdf_rank>  (26) 
0

$$$$
