
     RDKit          3D

 67 69  0  0  0  0  0  0  0  0999 V2000
  -15.4390  -10.9516   22.9012 C   0  0  0  0  0  0  0  0  0  0  0  0
  -14.7646  -11.5523   21.5927 C   0  0  0  0  0  0  0  0  0  0  0  0
  -14.5899  -10.4301   20.5505 C   0  0  0  0  0  0  0  0  0  0  0  0
  -15.2462   -9.1284   21.0008 C   0  0  0  0  0  0  0  0  0  0  0  0
  -14.3182   -7.9307   20.8934 C   0  0  1  0  0  0  0  0  0  0  0  0
  -15.7261   -7.5529   25.6662 C   0  0  0  0  0  0  0  0  0  0  0  0
  -15.9735   -8.8748   26.0619 C   0  0  0  0  0  0  0  0  0  0  0  0
  -17.2860   -9.3062   26.2049 C   0  0  0  0  0  0  0  0  0  0  0  0
  -18.3480   -8.4446   25.9522 C   0  0  0  0  0  0  0  0  0  0  0  0
  -18.1116   -7.1381   25.5460 C   0  0  0  0  0  0  0  0  0  0  0  0
  -13.2154   -7.9679   21.9353 C   0  0  0  0  0  0  0  0  0  0  0  0
  -11.5070   -6.8260   18.8602 C   0  0  0  0  0  0  0  0  0  0  0  0
  -11.5312   -7.3367   17.4073 C   0  0  0  0  0  0  0  0  0  0  0  0
  -10.5690   -6.5924   16.4189 C   0  0  0  0  0  0  0  0  0  0  0  0
  -10.3507   -5.2582   16.6634 C   0  0  0  0  0  0  0  0  0  0  0  0
   -9.5165   -4.5303   15.8417 C   0  0  0  0  0  0  0  0  0  0  0  0
  -12.1690   -9.4113   24.5790 C   0  0  0  0  0  0  0  0  0  0  0  0
  -12.5594   -7.9722   24.3198 C   0  0  2  0  0  0  0  0  0  0  0  0
  -13.0742   -7.2915   25.6073 C   0  0  0  0  0  0  0  0  0  0  0  0
  -14.5416   -6.8190   25.4306 C   0  0  0  0  0  0  0  0  0  0  0  0
  -14.9636   -5.5522   25.0308 C   0  0  0  0  0  0  0  0  0  0  0  0
  -16.7825   -6.7004   25.3999 C   0  0  0  0  0  0  0  0  0  0  0  0
  -12.9570   -6.5980   19.3455 C   0  0  1  0  0  0  0  0  0  0  0  0
  -13.6937   -5.7776   18.3424 C   0  0  0  0  0  0  0  0  0  0  0  0
   -8.8975   -5.1646   14.7663 C   0  0  0  0  0  0  0  0  0  0  0  0
   -9.1142   -6.5164   14.5409 C   0  0  0  0  0  0  0  0  0  0  0  0
   -9.9646   -7.2256   15.3611 C   0  0  0  0  0  0  0  0  0  0  0  0
  -16.2844   -5.5149   25.0239 N   0  0  0  0  0  0  0  0  0  0  0  0
  -13.6185   -7.9408   23.3036 N   0  0  0  0  0  0  0  0  0  0  0  0
  -13.6342   -7.8877   19.5875 N   0  0  0  0  0  0  0  0  0  0  0  0
  -11.0342   -9.8977   24.2748 O   0  0  0  0  0  0  0  0  0  0  0  0
  -13.0067  -10.1882   25.1168 O   0  0  0  0  0  0  0  0  0  0  0  0
  -13.4727   -4.5690   18.3519 O   0  0  0  0  0  0  0  0  0  0  0  0
  -14.5257   -6.2576   17.5274 O   0  0  0  0  0  0  0  0  0  0  0  0
  -12.0571   -7.9696   21.6551 O   0  0  0  0  0  0  0  0  0  0  0  0
  -14.9572  -11.3808   23.7920 H   0  0  0  0  0  0  0  0  0  0  0  0
  -15.3157   -9.8585   22.9084 H   0  0  0  0  0  0  0  0  0  0  0  0
  -16.5106  -11.1998   22.9084 H   0  0  0  0  0  0  0  0  0  0  0  0
  -13.7812  -11.9747   21.8467 H   0  0  0  0  0  0  0  0  0  0  0  0
  -15.4049  -12.3448   21.1780 H   0  0  0  0  0  0  0  0  0  0  0  0
  -13.5154  -10.2519   20.3965 H   0  0  0  0  0  0  0  0  0  0  0  0
  -15.0761  -10.7522   19.6178 H   0  0  0  0  0  0  0  0  0  0  0  0
  -16.1300   -8.9451   20.3721 H   0  0  0  0  0  0  0  0  0  0  0  0
  -15.5149   -9.2438   22.0612 H   0  0  0  0  0  0  0  0  0  0  0  0
  -14.9666   -7.0537   21.0369 H   0  0  0  0  0  0  0  0  0  0  0  0
  -15.1376   -9.5626   26.2570 H   0  0  0  0  0  0  0  0  0  0  0  0
  -17.4875  -10.3402   26.5214 H   0  0  0  0  0  0  0  0  0  0  0  0
  -19.3816   -8.8004   26.0749 H   0  0  0  0  0  0  0  0  0  0  0  0
  -18.9502   -6.4561   25.3416 H   0  0  0  0  0  0  0  0  0  0  0  0
  -11.0170   -7.5716   19.5037 H   0  0  0  0  0  0  0  0  0  0  0  0
  -10.9488   -5.8795   18.9090 H   0  0  0  0  0  0  0  0  0  0  0  0
  -11.2523   -8.4007   17.4165 H   0  0  0  0  0  0  0  0  0  0  0  0
  -12.5502   -7.1510   17.0369 H   0  0  0  0  0  0  0  0  0  0  0  0
  -10.8428   -4.7693   17.5171 H   0  0  0  0  0  0  0  0  0  0  0  0
   -9.3415   -3.4612   16.0327 H   0  0  0  0  0  0  0  0  0  0  0  0
  -11.6703   -7.4267   23.9709 H   0  0  0  0  0  0  0  0  0  0  0  0
  -13.0239   -8.0090   26.4396 H   0  0  0  0  0  0  0  0  0  0  0  0
  -12.4442   -6.4151   25.8193 H   0  0  0  0  0  0  0  0  0  0  0  0
  -14.3016   -4.7154   24.7632 H   0  0  0  0  0  0  0  0  0  0  0  0
  -12.9398   -6.0521   20.3003 H   0  0  0  0  0  0  0  0  0  0  0  0
   -8.2375   -4.5940   14.0965 H   0  0  0  0  0  0  0  0  0  0  0  0
   -8.6066   -7.0226   13.7066 H   0  0  0  0  0  0  0  0  0  0  0  0
  -10.1578   -8.2915   15.1697 H   0  0  0  0  0  0  0  0  0  0  0  0
  -16.8494   -4.6931   24.7667 H   0  0  0  0  0  0  0  0  0  0  0  0
  -14.6131   -7.9007   23.5680 H   0  0  0  0  0  0  0  0  0  0  0  0
  -12.9316   -8.6403   19.5579 H   0  0  0  0  0  0  0  0  0  0  0  0
  -14.3492   -8.0077   18.8559 H   0  0  0  0  0  0  0  0  0  0  0  0
  1  2  1  0
  2  3  1  0
  3  4  1  0
  5  4  1  0
  5 11  1  0
  5 30  1  0
  6  7  2  0
  6 20  1  0
  6 22  1  0
  7  8  1  0
  8  9  2  0
  9 10  1  0
 10 22  2  0
 11 29  1  0
 11 35  2  0
 12 13  1  0
 23 12  1  0
 13 14  1  0
 14 15  2  0
 14 27  1  0
 15 16  1  0
 16 25  2  0
 17 18  1  0
 17 31  2  0
 17 32  1  0
 18 19  1  0
 18 29  1  0
 19 20  1  0
 20 21  2  0
 21 28  1  0
 22 28  1  0
 23 24  1  0
 23 30  1  0
 24 33  2  0
 24 34  1  0
 25 26  1  0
 26 27  2  0
  1 36  1  0
  1 37  1  0
  1 38  1  0
  2 39  1  0
  2 40  1  0
  3 41  1  0
  3 42  1  0
  4 43  1  0
  4 44  1  0
  5 45  1  1
  7 46  1  0
  8 47  1  0
  9 48  1  0
 10 49  1  0
 12 50  1  0
 12 51  1  0
 13 52  1  0
 13 53  1  0
 15 54  1  0
 16 55  1  0
 18 56  1  6
 19 57  1  0
 19 58  1  0
 21 59  1  0
 23 60  1  1
 25 61  1  0
 26 62  1  0
 27 63  1  0
 28 64  1  0
 29 65  1  0
 30 66  1  0
 30 67  1  0
M  CHG  3  30   1  32  -1  34  -1
M  END
>  <filename_input>  (1) 
7Q27_8KC_docked.sdf

>  <pdb_id>  (1) 
7Q27_8KC

>  <pose_rank>  (1) 
0

>  <num_atoms_heavy>  (1) 
35

>  <num_torsions>  (1) 
14

>  <pose>  (1) 
[-14.318210480458706, -7.930688504119225, 20.893411112054007, -5.2375721564093505, 0.5484234402869016, 3.1767848864782438, -6.176113817220988, -0.37161165948304464, -4.070669065860661, -0.8284729555504527, -3.028054552888376, -0.28693311808735106, -0.7580359948397616, 3.0995505540221653, -25.090763101734456, 17.955650507227517, 0.539660663059419, 42.04174902689205, 49.58592077806792, 2.6963426760314677]

>  <energy>  (1) 
-1019.7248397569866

>  <inter_energy>  (1) 
-1070.5789689814408

>  <intra_energy>  (1) 
53.15625220089925

>  <rmsd>  (1) 
1.68875

>  <sdf_rank>  (1) 
0

$$$$

     RDKit          3D

 67 69  0  0  0  0  0  0  0  0999 V2000
  -15.2832   -5.3382   25.5246 C   0  0  0  0  0  0  0  0  0  0  0  0
  -15.5052   -6.4241   24.3848 C   0  0  0  0  0  0  0  0  0  0  0  0
  -14.1938   -6.6074   23.5957 C   0  0  0  0  0  0  0  0  0  0  0  0
  -14.4534   -6.8948   22.1200 C   0  0  0  0  0  0  0  0  0  0  0  0
  -13.3205   -7.6605   21.4587 C   0  0  1  0  0  0  0  0  0  0  0  0
  -15.8758   -9.8241   25.5663 C   0  0  0  0  0  0  0  0  0  0  0  0
  -17.2188   -9.4974   25.3328 C   0  0  0  0  0  0  0  0  0  0  0  0
  -17.8716   -8.6412   26.2102 C   0  0  0  0  0  0  0  0  0  0  0  0
  -17.2045   -8.1037   27.3057 C   0  0  0  0  0  0  0  0  0  0  0  0
  -15.8702   -8.4109   27.5361 C   0  0  0  0  0  0  0  0  0  0  0  0
  -13.1327   -9.0388   22.0654 C   0  0  0  0  0  0  0  0  0  0  0  0
  -12.5218   -7.4903   17.8103 C   0  0  0  0  0  0  0  0  0  0  0  0
  -10.9961   -7.3671   17.6392 C   0  0  0  0  0  0  0  0  0  0  0  0
  -10.5206   -6.2487   16.6493 C   0  0  0  0  0  0  0  0  0  0  0  0
   -9.9465   -6.6724   15.4752 C   0  0  0  0  0  0  0  0  0  0  0  0
   -9.5022   -5.7524   14.5494 C   0  0  0  0  0  0  0  0  0  0  0  0
  -14.1247  -12.3037   21.4708 C   0  0  0  0  0  0  0  0  0  0  0  0
  -14.0704  -11.2698   22.5747 C   0  0  2  0  0  0  0  0  0  0  0  0
  -15.1835  -11.5073   23.6190 C   0  0  0  0  0  0  0  0  0  0  0  0
  -14.9455  -10.6399   24.8834 C   0  0  0  0  0  0  0  0  0  0  0  0
  -13.7579  -10.5321   25.6050 C   0  0  0  0  0  0  0  0  0  0  0  0
  -15.2078   -9.2773   26.6473 C   0  0  0  0  0  0  0  0  0  0  0  0
  -12.9350   -6.8730   19.1661 C   0  0  1  0  0  0  0  0  0  0  0  0
  -13.8354   -5.7090   18.9285 C   0  0  0  0  0  0  0  0  0  0  0  0
   -9.6460   -4.3926   14.8181 C   0  0  0  0  0  0  0  0  0  0  0  0
  -10.2425   -3.9792   16.0007 C   0  0  0  0  0  0  0  0  0  0  0  0
  -10.6653   -4.9111   16.9234 C   0  0  0  0  0  0  0  0  0  0  0  0
  -13.9454   -9.7258   26.6348 N   0  0  0  0  0  0  0  0  0  0  0  0
  -14.2399   -9.9351   21.9872 N   0  0  0  0  0  0  0  0  0  0  0  0
  -13.5805   -7.8862   20.0247 N   0  0  0  0  0  0  0  0  0  0  0  0
  -14.6541  -12.0917   20.3342 O   0  0  0  0  0  0  0  0  0  0  0  0
  -13.6313  -13.4479   21.6754 O   0  0  0  0  0  0  0  0  0  0  0  0
  -14.7644   -5.8840   18.1436 O   0  0  0  0  0  0  0  0  0  0  0  0
  -13.6712   -4.5816   19.4659 O   0  0  0  0  0  0  0  0  0  0  0  0
  -12.1371   -9.3693   22.6310 O   0  0  0  0  0  0  0  0  0  0  0  0
  -15.3809   -5.8161   26.5105 H   0  0  0  0  0  0  0  0  0  0  0  0
  -14.2776   -4.9034   25.4260 H   0  0  0  0  0  0  0  0  0  0  0  0
  -16.0374   -4.5436   25.4260 H   0  0  0  0  0  0  0  0  0  0  0  0
  -15.7969   -7.3816   24.8410 H   0  0  0  0  0  0  0  0  0  0  0  0
  -16.3015   -6.0877   23.7045 H   0  0  0  0  0  0  0  0  0  0  0  0
  -13.5969   -5.6873   23.6791 H   0  0  0  0  0  0  0  0  0  0  0  0
  -13.6572   -7.4681   24.0214 H   0  0  0  0  0  0  0  0  0  0  0  0
  -15.3752   -7.4890   22.0350 H   0  0  0  0  0  0  0  0  0  0  0  0
  -14.5418   -5.9265   21.6056 H   0  0  0  0  0  0  0  0  0  0  0  0
  -12.4272   -7.0372   21.6123 H   0  0  0  0  0  0  0  0  0  0  0  0
  -17.7498   -9.9144   24.4644 H   0  0  0  0  0  0  0  0  0  0  0  0
  -18.9274   -8.3856   26.0368 H   0  0  0  0  0  0  0  0  0  0  0  0
  -17.7373   -7.4309   27.9939 H   0  0  0  0  0  0  0  0  0  0  0  0
  -15.3395   -7.9836   28.3996 H   0  0  0  0  0  0  0  0  0  0  0  0
  -13.0277   -6.9550   16.9933 H   0  0  0  0  0  0  0  0  0  0  0  0
  -12.8112   -8.5513   17.7848 H   0  0  0  0  0  0  0  0  0  0  0  0
  -10.5596   -7.1552   18.6263 H   0  0  0  0  0  0  0  0  0  0  0  0
  -10.6612   -8.3204   17.2042 H   0  0  0  0  0  0  0  0  0  0  0  0
   -9.8411   -7.7485   15.2732 H   0  0  0  0  0  0  0  0  0  0  0  0
   -9.0395   -6.0878   13.6095 H   0  0  0  0  0  0  0  0  0  0  0  0
  -13.0971  -11.3505   23.0809 H   0  0  0  0  0  0  0  0  0  0  0  0
  -16.1553  -11.2420   23.1771 H   0  0  0  0  0  0  0  0  0  0  0  0
  -15.1730  -12.5677   23.9112 H   0  0  0  0  0  0  0  0  0  0  0  0
  -12.8136  -11.0384   25.3564 H   0  0  0  0  0  0  0  0  0  0  0  0
  -12.0370   -6.5195   19.6940 H   0  0  0  0  0  0  0  0  0  0  0  0
   -9.2869   -3.6474   14.0931 H   0  0  0  0  0  0  0  0  0  0  0  0
  -10.3779   -2.9063   16.2018 H   0  0  0  0  0  0  0  0  0  0  0  0
  -11.1157   -4.5857   17.8727 H   0  0  0  0  0  0  0  0  0  0  0  0
  -13.2250   -9.4777   27.3279 H   0  0  0  0  0  0  0  0  0  0  0  0
  -15.1232   -9.6569   21.5364 H   0  0  0  0  0  0  0  0  0  0  0  0
  -13.2205   -8.8159   19.7661 H   0  0  0  0  0  0  0  0  0  0  0  0
  -14.5977   -7.8191   19.8770 H   0  0  0  0  0  0  0  0  0  0  0  0
  1  2  1  0
  2  3  1  0
  3  4  1  0
  5  4  1  0
  5 11  1  0
  5 30  1  0
  6  7  2  0
  6 20  1  0
  6 22  1  0
  7  8  1  0
  8  9  2  0
  9 10  1  0
 10 22  2  0
 11 29  1  0
 11 35  2  0
 12 13  1  0
 23 12  1  0
 13 14  1  0
 14 15  2  0
 14 27  1  0
 15 16  1  0
 16 25  2  0
 17 18  1  0
 17 31  2  0
 17 32  1  0
 18 19  1  0
 18 29  1  0
 19 20  1  0
 20 21  2  0
 21 28  1  0
 22 28  1  0
 23 24  1  0
 23 30  1  0
 24 33  2  0
 24 34  1  0
 25 26  1  0
 26 27  2  0
  1 36  1  0
  1 37  1  0
  1 38  1  0
  2 39  1  0
  2 40  1  0
  3 41  1  0
  3 42  1  0
  4 43  1  0
  4 44  1  0
  5 45  1  6
  7 46  1  0
  8 47  1  0
  9 48  1  0
 10 49  1  0
 12 50  1  0
 12 51  1  0
 13 52  1  0
 13 53  1  0
 15 54  1  0
 16 55  1  0
 18 56  1  1
 19 57  1  0
 19 58  1  0
 21 59  1  0
 23 60  1  1
 25 61  1  0
 26 62  1  0
 27 63  1  0
 28 64  1  0
 29 65  1  0
 30 66  1  0
 30 67  1  0
M  CHG  3  30   1  32  -1  34  -1
M  END
>  <filename_input>  (2) 
7Q27_8KC_docked.sdf

>  <pdb_id>  (2) 
7Q27_8KC

>  <pose_rank>  (2) 
1

>  <num_atoms_heavy>  (2) 
35

>  <num_torsions>  (2) 
14

>  <pose>  (2) 
[-13.320466609441706, -7.660479824965347, 21.458715169038715, -0.41274140842246965, -0.9712622262377262, 4.505951332075739, 2.2320679478193703, -0.8890605828867781, -0.11937529958043701, 4.187966855252922, 4.029024698254749, -4.224643680418761, 0.5626305281404138, 0.6710353865917158, -1.208376285705564, -0.6102040912384118, -3.5382794643293907, 0.9819449405033744, 1.4950402929199564, 1.3191485607428626]

>  <energy>  (2) 
-949.0820983928588

>  <inter_energy>  (2) 
-946.4851103037382

>  <intra_energy>  (2) 
6.662266187716002

>  <rmsd>  (2) 
3.19133

>  <sdf_rank>  (2) 
0

$$$$

     RDKit          3D

 67 69  0  0  0  0  0  0  0  0999 V2000
  -16.3868   -6.7519   26.0471 C   0  0  0  0  0  0  0  0  0  0  0  0
  -14.8023   -6.7702   26.1768 C   0  0  0  0  0  0  0  0  0  0  0  0
  -14.1821   -7.0243   24.7886 C   0  0  0  0  0  0  0  0  0  0  0  0
  -15.0908   -7.8753   23.9067 C   0  0  0  0  0  0  0  0  0  0  0  0
  -14.3850   -8.4095   22.6724 C   0  0  1  0  0  0  0  0  0  0  0  0
  -10.4780   -6.4849   16.6436 C   0  0  0  0  0  0  0  0  0  0  0  0
  -10.3476   -7.6992   15.9554 C   0  0  0  0  0  0  0  0  0  0  0  0
   -9.9662   -7.6850   14.6200 C   0  0  0  0  0  0  0  0  0  0  0  0
   -9.7070   -6.4840   13.9684 C   0  0  0  0  0  0  0  0  0  0  0  0
   -9.8199   -5.2779   14.6468 C   0  0  0  0  0  0  0  0  0  0  0  0
  -13.8276   -7.2948   21.8063 C   0  0  0  0  0  0  0  0  0  0  0  0
  -14.9202   -9.9359   24.7208 C   0  0  0  0  0  0  0  0  0  0  0  0
  -15.1795  -11.0108   25.7929 C   0  0  0  0  0  0  0  0  0  0  0  0
  -16.3836  -10.7224   26.7541 C   0  0  0  0  0  0  0  0  0  0  0  0
  -17.6289  -11.0895   26.3045 C   0  0  0  0  0  0  0  0  0  0  0  0
  -18.7413  -10.8717   27.0895 C   0  0  0  0  0  0  0  0  0  0  0  0
  -13.5920   -6.2018   18.7907 C   0  0  0  0  0  0  0  0  0  0  0  0
  -12.5459   -6.6134   19.8041 C   0  0  2  0  0  0  0  0  0  0  0  0
  -11.2638   -7.1227   19.1094 C   0  0  0  0  0  0  0  0  0  0  0  0
  -10.8348   -6.1588   17.9716 C   0  0  0  0  0  0  0  0  0  0  0  0
  -10.7531   -4.7694   18.0470 C   0  0  0  0  0  0  0  0  0  0  0  0
  -10.2053   -5.2912   15.9999 C   0  0  0  0  0  0  0  0  0  0  0  0
  -13.4351   -9.9879   24.2945 C   0  0  1  0  0  0  0  0  0  0  0  0
  -13.0017  -11.4091   24.1752 C   0  0  0  0  0  0  0  0  0  0  0  0
  -18.5854  -10.2799   28.3415 C   0  0  0  0  0  0  0  0  0  0  0  0
  -17.3199   -9.9293   28.7895 C   0  0  0  0  0  0  0  0  0  0  0  0
  -16.2204  -10.1376   27.9856 C   0  0  0  0  0  0  0  0  0  0  0  0
  -10.3820   -4.2904   16.8728 N   0  0  0  0  0  0  0  0  0  0  0  0
  -13.0931   -7.6837   20.6468 N   0  0  0  0  0  0  0  0  0  0  0  0
  -13.2304   -9.2549   23.0290 N   0  0  0  0  0  0  0  0  0  0  0  0
  -13.8741   -6.8834   17.7549 O   0  0  0  0  0  0  0  0  0  0  0  0
  -14.2216   -5.1207   18.9616 O   0  0  0  0  0  0  0  0  0  0  0  0
  -13.2384  -11.9681   23.1070 O   0  0  0  0  0  0  0  0  0  0  0  0
  -12.4416  -12.0459   25.1067 O   0  0  0  0  0  0  0  0  0  0  0  0
  -13.9390   -6.1408   22.0820 O   0  0  0  0  0  0  0  0  0  0  0  0
  -16.8367   -6.7467   27.0509 H   0  0  0  0  0  0  0  0  0  0  0  0
  -16.6995   -5.8501   25.5004 H   0  0  0  0  0  0  0  0  0  0  0  0
  -16.7203   -7.6463   25.5004 H   0  0  0  0  0  0  0  0  0  0  0  0
  -14.4538   -5.8013   26.5635 H   0  0  0  0  0  0  0  0  0  0  0  0
  -14.4978   -7.5691   26.8689 H   0  0  0  0  0  0  0  0  0  0  0  0
  -14.0103   -6.0571   24.2935 H   0  0  0  0  0  0  0  0  0  0  0  0
  -13.2377   -7.5698   24.9317 H   0  0  0  0  0  0  0  0  0  0  0  0
  -15.4563   -8.7275   24.4985 H   0  0  0  0  0  0  0  0  0  0  0  0
  -15.9145   -7.2320   23.5635 H   0  0  0  0  0  0  0  0  0  0  0  0
  -15.1517   -8.9832   22.1312 H   0  0  0  0  0  0  0  0  0  0  0  0
  -10.5450   -8.6526   16.4673 H   0  0  0  0  0  0  0  0  0  0  0  0
   -9.8682   -8.6337   14.0719 H   0  0  0  0  0  0  0  0  0  0  0  0
   -9.4107   -6.4897   12.9091 H   0  0  0  0  0  0  0  0  0  0  0  0
   -9.6115   -4.3270   14.1345 H   0  0  0  0  0  0  0  0  0  0  0  0
  -15.5604  -10.1265   23.8468 H   0  0  0  0  0  0  0  0  0  0  0  0
  -15.1512   -8.9420   25.1318 H   0  0  0  0  0  0  0  0  0  0  0  0
  -15.3760  -11.9631   25.2786 H   0  0  0  0  0  0  0  0  0  0  0  0
  -14.2815  -11.0296   26.4279 H   0  0  0  0  0  0  0  0  0  0  0  0
  -17.7387  -11.5584   25.3155 H   0  0  0  0  0  0  0  0  0  0  0  0
  -19.7402  -11.1617   26.7316 H   0  0  0  0  0  0  0  0  0  0  0  0
  -12.2850   -5.7351   20.4128 H   0  0  0  0  0  0  0  0  0  0  0  0
  -10.4538   -7.1890   19.8507 H   0  0  0  0  0  0  0  0  0  0  0  0
  -11.4669   -8.1128   18.6754 H   0  0  0  0  0  0  0  0  0  0  0  0
  -10.9644   -4.1667   18.9426 H   0  0  0  0  0  0  0  0  0  0  0  0
  -12.8186   -9.4965   25.0616 H   0  0  0  0  0  0  0  0  0  0  0  0
  -19.4651  -10.0909   28.9742 H   0  0  0  0  0  0  0  0  0  0  0  0
  -17.1943   -9.4844   29.7877 H   0  0  0  0  0  0  0  0  0  0  0  0
  -15.2190   -9.8376   28.3280 H   0  0  0  0  0  0  0  0  0  0  0  0
  -10.2478   -3.2917   16.6595 H   0  0  0  0  0  0  0  0  0  0  0  0
  -12.9522   -8.6763   20.4103 H   0  0  0  0  0  0  0  0  0  0  0  0
  -13.0751   -9.9375   22.2735 H   0  0  0  0  0  0  0  0  0  0  0  0
  -12.4165   -8.6362   23.1541 H   0  0  0  0  0  0  0  0  0  0  0  0
  1  2  1  0
  2  3  1  0
  3  4  1  0
  5  4  1  0
  5 11  1  0
  5 30  1  0
  6  7  2  0
  6 20  1  0
  6 22  1  0
  7  8  1  0
  8  9  2  0
  9 10  1  0
 10 22  2  0
 11 29  1  0
 11 35  2  0
 12 13  1  0
 23 12  1  0
 13 14  1  0
 14 15  2  0
 14 27  1  0
 15 16  1  0
 16 25  2  0
 17 18  1  0
 17 31  2  0
 17 32  1  0
 18 19  1  0
 18 29  1  0
 19 20  1  0
 20 21  2  0
 21 28  1  0
 22 28  1  0
 23 24  1  0
 23 30  1  0
 24 33  2  0
 24 34  1  0
 25 26  1  0
 26 27  2  0
  1 36  1  0
  1 37  1  0
  1 38  1  0
  2 39  1  0
  2 40  1  0
  3 41  1  0
  3 42  1  0
  4 43  1  0
  4 44  1  0
  5 45  1  6
  7 46  1  0
  8 47  1  0
  9 48  1  0
 10 49  1  0
 12 50  1  0
 12 51  1  0
 13 52  1  0
 13 53  1  0
 15 54  1  0
 16 55  1  0
 18 56  1  1
 19 57  1  0
 19 58  1  0
 21 59  1  0
 23 60  1  1
 25 61  1  0
 26 62  1  0
 27 63  1  0
 28 64  1  0
 29 65  1  0
 30 66  1  0
 30 67  1  0
M  CHG  3  30   1  32  -1  34  -1
M  END
>  <filename_input>  (3) 
7Q27_8KC_docked.sdf

>  <pdb_id>  (3) 
7Q27_8KC

>  <pose_rank>  (3) 
2

>  <num_atoms_heavy>  (3) 
35

>  <num_torsions>  (3) 
14

>  <pose>  (3) 
[-14.38497038176083, -8.409452261555998, 22.67239072557412, -2.0000084459628016, -0.13288934532369637, 0.5190306666448508, -2.0082864311237723, -6.703619086877981, -1.0908139416680347, 8.350292110438838, -0.5748855645121117, -6.352589078328115, -12.213456786857257, 2.6852307461518303, -2.3271176045112782, 9.614313690443595, 3.3838756488043527, -6.631676307621459, -6.551653944123569, -1.550167984935411]

>  <energy>  (3) 
-754.7176296453152

>  <inter_energy>  (3) 
-921.3510115321628

>  <intra_energy>  (3) 
157.9368733310499

>  <rmsd>  (3) 
10.1179

>  <sdf_rank>  (3) 
0

$$$$

     RDKit          3D

 67 69  0  0  0  0  0  0  0  0999 V2000
  -15.0069  -13.8684   22.7317 C   0  0  0  0  0  0  0  0  0  0  0  0
  -14.5352  -12.7736   21.6798 C   0  0  0  0  0  0  0  0  0  0  0  0
  -15.2816  -11.4527   21.9524 C   0  0  0  0  0  0  0  0  0  0  0  0
  -14.6400  -10.2759   21.2235 C   0  0  0  0  0  0  0  0  0  0  0  0
  -13.6178   -9.5407   22.0730 C   0  0  1  0  0  0  0  0  0  0  0  0
  -11.1457   -6.2115   16.6053 C   0  0  0  0  0  0  0  0  0  0  0  0
  -11.0860   -4.8182   16.7477 C   0  0  0  0  0  0  0  0  0  0  0  0
  -10.0118   -4.1257   16.2042 C   0  0  0  0  0  0  0  0  0  0  0  0
   -9.0070   -4.7991   15.5179 C   0  0  0  0  0  0  0  0  0  0  0  0
   -9.0659   -6.1773   15.3600 C   0  0  0  0  0  0  0  0  0  0  0  0
  -13.0243   -8.3476   21.3468 C   0  0  0  0  0  0  0  0  0  0  0  0
  -14.2762   -9.5198   25.7355 C   0  0  0  0  0  0  0  0  0  0  0  0
  -15.6391   -8.8276   25.5469 C   0  0  0  0  0  0  0  0  0  0  0  0
  -15.6284   -7.2691   25.7138 C   0  0  0  0  0  0  0  0  0  0  0  0
  -16.7349   -6.5956   25.2558 C   0  0  0  0  0  0  0  0  0  0  0  0
  -16.8056   -5.2231   25.3657 C   0  0  0  0  0  0  0  0  0  0  0  0
  -13.5856   -5.5900   19.9607 C   0  0  0  0  0  0  0  0  0  0  0  0
  -13.0228   -6.8639   19.3682 C   0  0  2  0  0  0  0  0  0  0  0  0
  -13.3642   -6.9810   17.8664 C   0  0  0  0  0  0  0  0  0  0  0  0
  -12.0775   -7.1880   17.0243 C   0  0  0  0  0  0  0  0  0  0  0  0
  -11.5830   -8.4009   16.5478 C   0  0  0  0  0  0  0  0  0  0  0  0
  -10.1542   -6.8796   15.9095 C   0  0  0  0  0  0  0  0  0  0  0  0
  -13.3893   -9.2462   24.4991 C   0  0  1  0  0  0  0  0  0  0  0  0
  -12.4630  -10.3948   24.2879 C   0  0  0  0  0  0  0  0  0  0  0  0
  -15.7454   -4.5315   25.9485 C   0  0  0  0  0  0  0  0  0  0  0  0
  -14.6414   -5.2262   26.4215 C   0  0  0  0  0  0  0  0  0  0  0  0
  -14.5785   -6.5962   26.2883 C   0  0  0  0  0  0  0  0  0  0  0  0
  -10.4526   -8.1857   15.8985 N   0  0  0  0  0  0  0  0  0  0  0  0
  -13.5922   -8.0140   20.0813 N   0  0  0  0  0  0  0  0  0  0  0  0
  -14.2220   -8.9999   23.3048 N   0  0  0  0  0  0  0  0  0  0  0  0
  -14.3875   -5.5677   20.9473 O   0  0  0  0  0  0  0  0  0  0  0  0
  -13.2598   -4.4802   19.4541 O   0  0  0  0  0  0  0  0  0  0  0  0
  -12.8941  -11.5087   24.5761 O   0  0  0  0  0  0  0  0  0  0  0  0
  -11.2843  -10.2685   23.8617 O   0  0  0  0  0  0  0  0  0  0  0  0
  -12.0952   -7.7293   21.7648 O   0  0  0  0  0  0  0  0  0  0  0  0
  -14.8442  -13.4907   23.7520 H   0  0  0  0  0  0  0  0  0  0  0  0
  -16.0763  -14.0806   22.5855 H   0  0  0  0  0  0  0  0  0  0  0  0
  -14.4266  -14.7913   22.5855 H   0  0  0  0  0  0  0  0  0  0  0  0
  -13.4518  -12.6110   21.7790 H   0  0  0  0  0  0  0  0  0  0  0  0
  -14.7593  -13.1206   20.6603 H   0  0  0  0  0  0  0  0  0  0  0  0
  -16.3229  -11.5560   21.6134 H   0  0  0  0  0  0  0  0  0  0  0  0
  -15.2345  -11.2511   23.0328 H   0  0  0  0  0  0  0  0  0  0  0  0
  -14.1391  -10.6537   20.3200 H   0  0  0  0  0  0  0  0  0  0  0  0
  -15.4409   -9.5624   20.9795 H   0  0  0  0  0  0  0  0  0  0  0  0
  -12.8441  -10.2891   22.2996 H   0  0  0  0  0  0  0  0  0  0  0  0
  -11.8811   -4.2794   17.2839 H   0  0  0  0  0  0  0  0  0  0  0  0
   -9.9551   -3.0330   16.3177 H   0  0  0  0  0  0  0  0  0  0  0  0
   -8.1604   -4.2365   15.0976 H   0  0  0  0  0  0  0  0  0  0  0  0
   -8.2744   -6.7116   14.8141 H   0  0  0  0  0  0  0  0  0  0  0  0
  -13.7841   -9.1234   26.6358 H   0  0  0  0  0  0  0  0  0  0  0  0
  -14.4258  -10.6036   25.8493 H   0  0  0  0  0  0  0  0  0  0  0  0
  -16.0000   -9.0583   24.5338 H   0  0  0  0  0  0  0  0  0  0  0  0
  -16.2894   -9.2143   26.3455 H   0  0  0  0  0  0  0  0  0  0  0  0
  -17.5666   -7.1530   24.8001 H   0  0  0  0  0  0  0  0  0  0  0  0
  -17.6886   -4.6802   24.9975 H   0  0  0  0  0  0  0  0  0  0  0  0
  -11.9281   -6.8444   19.4745 H   0  0  0  0  0  0  0  0  0  0  0  0
  -14.0363   -7.8386   17.7149 H   0  0  0  0  0  0  0  0  0  0  0  0
  -13.8526   -6.0504   17.5418 H   0  0  0  0  0  0  0  0  0  0  0  0
  -12.0588   -9.3824   16.6898 H   0  0  0  0  0  0  0  0  0  0  0  0
  -12.7903   -8.3403   24.6740 H   0  0  0  0  0  0  0  0  0  0  0  0
  -15.7838   -3.4355   26.0335 H   0  0  0  0  0  0  0  0  0  0  0  0
  -13.8154   -4.6826   26.9034 H   0  0  0  0  0  0  0  0  0  0  0  0
  -13.6934   -7.1468   26.6397 H   0  0  0  0  0  0  0  0  0  0  0  0
   -9.8829   -8.9165   15.4487 H   0  0  0  0  0  0  0  0  0  0  0  0
  -14.3708   -8.5584   19.6836 H   0  0  0  0  0  0  0  0  0  0  0  0
  -14.3465   -7.9836   23.1929 H   0  0  0  0  0  0  0  0  0  0  0  0
  -15.1228   -9.4785   23.4475 H   0  0  0  0  0  0  0  0  0  0  0  0
  1  2  1  0
  2  3  1  0
  3  4  1  0
  5  4  1  0
  5 11  1  0
  5 30  1  0
  6  7  2  0
  6 20  1  0
  6 22  1  0
  7  8  1  0
  8  9  2  0
  9 10  1  0
 10 22  2  0
 11 29  1  0
 11 35  2  0
 12 13  1  0
 23 12  1  0
 13 14  1  0
 14 15  2  0
 14 27  1  0
 15 16  1  0
 16 25  2  0
 17 18  1  0
 17 31  2  0
 17 32  1  0
 18 19  1  0
 18 29  1  0
 19 20  1  0
 20 21  2  0
 21 28  1  0
 22 28  1  0
 23 24  1  0
 23 30  1  0
 24 33  2  0
 24 34  1  0
 25 26  1  0
 26 27  2  0
  1 36  1  0
  1 37  1  0
  1 38  1  0
  2 39  1  0
  2 40  1  0
  3 41  1  0
  3 42  1  0
  4 43  1  0
  4 44  1  0
  5 45  1  1
  7 46  1  0
  8 47  1  0
  9 48  1  0
 10 49  1  0
 12 50  1  0
 12 51  1  0
 13 52  1  0
 13 53  1  0
 15 54  1  0
 16 55  1  0
 18 56  1  6
 19 57  1  0
 19 58  1  0
 21 59  1  0
 23 60  1  1
 25 61  1  0
 26 62  1  0
 27 63  1  0
 28 64  1  0
 29 65  1  0
 30 66  1  0
 30 67  1  0
M  CHG  3  30   1  32  -1  34  -1
M  END
>  <filename_input>  (4) 
7Q27_8KC_docked.sdf

>  <pdb_id>  (4) 
7Q27_8KC

>  <pose_rank>  (4) 
3

>  <num_atoms_heavy>  (4) 
35

>  <num_torsions>  (4) 
14

>  <pose>  (4) 
[-13.617797302295461, -9.54074664203899, 22.073004240488196, 2.0583028869655378, 1.9772910411871691, 0.5637574455581433, 1.2903352174371492, -0.28058984005691806, 0.27834907982956086, 3.4395611848407417, 0.32715327940845085, 4.126999377158135, 1.6406013092005531, -0.17759787457099707, -0.5257788282056336, 0.5723503300414139, 2.5017069569510735, 2.604238823854622, 2.022478901756933, -0.13509731340564538]

>  <energy>  (4) 
-904.590821334304

>  <inter_energy>  (4) 
-932.148499518855

>  <intra_energy>  (4) 
38.76877142165828

>  <rmsd>  (4) 
8.92108

>  <sdf_rank>  (4) 
0

$$$$

     RDKit          3D

 67 69  0  0  0  0  0  0  0  0999 V2000
  -16.5450   -7.6520   26.8572 C   0  0  0  0  0  0  0  0  0  0  0  0
  -16.8189   -6.8226   25.5287 C   0  0  0  0  0  0  0  0  0  0  0  0
  -15.5834   -6.9111   24.6111 C   0  0  0  0  0  0  0  0  0  0  0  0
  -15.8567   -7.7537   23.3689 C   0  0  0  0  0  0  0  0  0  0  0  0
  -14.5946   -8.0902   22.5936 C   0  0  1  0  0  0  0  0  0  0  0  0
  -10.7413   -6.3440   17.1537 C   0  0  0  0  0  0  0  0  0  0  0  0
  -10.2261   -5.0940   16.7833 C   0  0  0  0  0  0  0  0  0  0  0  0
   -9.6097   -4.9533   15.5467 C   0  0  0  0  0  0  0  0  0  0  0  0
   -9.5084   -6.0337   14.6769 C   0  0  0  0  0  0  0  0  0  0  0  0
  -10.0289   -7.2715   15.0302 C   0  0  0  0  0  0  0  0  0  0  0  0
  -14.0291   -6.8813   21.8712 C   0  0  0  0  0  0  0  0  0  0  0  0
  -12.9929  -10.9812   23.2372 C   0  0  0  0  0  0  0  0  0  0  0  0
  -13.9745  -11.8388   22.4168 C   0  0  0  0  0  0  0  0  0  0  0  0
  -14.2445  -13.2753   22.9828 C   0  0  0  0  0  0  0  0  0  0  0  0
  -14.8894  -14.1532   22.1454 C   0  0  0  0  0  0  0  0  0  0  0  0
  -15.1641  -15.4372   22.5659 C   0  0  0  0  0  0  0  0  0  0  0  0
  -13.9488   -5.7245   18.4092 C   0  0  0  0  0  0  0  0  0  0  0  0
  -13.2714   -5.8455   19.7572 C   0  0  2  0  0  0  0  0  0  0  0  0
  -11.7450   -6.0247   19.6022 C   0  0  0  0  0  0  0  0  0  0  0  0
  -11.4123   -6.8110   18.3066 C   0  0  0  0  0  0  0  0  0  0  0  0
  -11.6924   -8.1529   18.0545 C   0  0  0  0  0  0  0  0  0  0  0  0
  -10.6543   -7.4148   16.2823 C   0  0  0  0  0  0  0  0  0  0  0  0
  -13.7843   -9.9121   24.0251 C   0  0  1  0  0  0  0  0  0  0  0  0
  -13.4307   -9.9969   25.4707 C   0  0  0  0  0  0  0  0  0  0  0  0
  -14.7771  -15.8319   23.8451 C   0  0  0  0  0  0  0  0  0  0  0  0
  -14.1121  -14.9398   24.6740 C   0  0  0  0  0  0  0  0  0  0  0  0
  -13.8606  -13.6547   24.2452 C   0  0  0  0  0  0  0  0  0  0  0  0
  -11.2337   -8.4765   16.8584 N   0  0  0  0  0  0  0  0  0  0  0  0
  -13.8220   -7.0076   20.4653 N   0  0  0  0  0  0  0  0  0  0  0  0
  -13.5189   -8.5639   23.4844 N   0  0  0  0  0  0  0  0  0  0  0  0
  -13.8727   -4.6895   17.6743 O   0  0  0  0  0  0  0  0  0  0  0  0
  -14.6396   -6.6902   17.9795 O   0  0  0  0  0  0  0  0  0  0  0  0
  -12.3406   -9.5341   25.7979 O   0  0  0  0  0  0  0  0  0  0  0  0
  -14.1728  -10.5297   26.3380 O   0  0  0  0  0  0  0  0  0  0  0  0
  -13.7163   -5.8773   22.4318 O   0  0  0  0  0  0  0  0  0  0  0  0
  -16.7536   -7.0204   27.7333 H   0  0  0  0  0  0  0  0  0  0  0  0
  -17.1988   -8.5363   26.8787 H   0  0  0  0  0  0  0  0  0  0  0  0
  -15.4931   -7.9731   26.8787 H   0  0  0  0  0  0  0  0  0  0  0  0
  -17.6938   -7.2397   25.0086 H   0  0  0  0  0  0  0  0  0  0  0  0
  -17.0146   -5.7707   25.7840 H   0  0  0  0  0  0  0  0  0  0  0  0
  -15.3004   -5.8956   24.2968 H   0  0  0  0  0  0  0  0  0  0  0  0
  -14.7719   -7.3915   25.1772 H   0  0  0  0  0  0  0  0  0  0  0  0
  -16.3381   -8.6924   23.6804 H   0  0  0  0  0  0  0  0  0  0  0  0
  -16.5043   -7.1624   22.7048 H   0  0  0  0  0  0  0  0  0  0  0  0
  -14.8979   -8.8699   21.8794 H   0  0  0  0  0  0  0  0  0  0  0  0
  -10.3090   -4.2343   17.4645 H   0  0  0  0  0  0  0  0  0  0  0  0
   -9.1973   -3.9770   15.2522 H   0  0  0  0  0  0  0  0  0  0  0  0
   -9.0129   -5.9068   13.7031 H   0  0  0  0  0  0  0  0  0  0  0  0
   -9.9534   -8.1263   14.3421 H   0  0  0  0  0  0  0  0  0  0  0  0
  -12.4427  -11.6236   23.9404 H   0  0  0  0  0  0  0  0  0  0  0  0
  -12.2799  -10.4876   22.5603 H   0  0  0  0  0  0  0  0  0  0  0  0
  -14.9355  -11.3054   22.3714 H   0  0  0  0  0  0  0  0  0  0  0  0
  -13.5033  -11.9832   21.4334 H   0  0  0  0  0  0  0  0  0  0  0  0
  -15.1873  -13.8308   21.1368 H   0  0  0  0  0  0  0  0  0  0  0  0
  -15.6827  -16.1420   21.8993 H   0  0  0  0  0  0  0  0  0  0  0  0
  -13.4561   -4.9216   20.3249 H   0  0  0  0  0  0  0  0  0  0  0  0
  -11.2683   -5.0345   19.5558 H   0  0  0  0  0  0  0  0  0  0  0  0
  -11.3667   -6.5912   20.4659 H   0  0  0  0  0  0  0  0  0  0  0  0
  -12.2131   -8.8349   18.7427 H   0  0  0  0  0  0  0  0  0  0  0  0
  -14.8621  -10.1030   23.9160 H   0  0  0  0  0  0  0  0  0  0  0  0
  -14.9988  -16.8500   24.1976 H   0  0  0  0  0  0  0  0  0  0  0  0
  -13.7852  -15.2589   25.6747 H   0  0  0  0  0  0  0  0  0  0  0  0
  -13.3559  -12.9379   24.9096 H   0  0  0  0  0  0  0  0  0  0  0  0
  -11.3105   -9.4104   16.4306 H   0  0  0  0  0  0  0  0  0  0  0  0
  -14.0497   -7.8797   19.9668 H   0  0  0  0  0  0  0  0  0  0  0  0
  -12.6370   -8.5889   22.9529 H   0  0  0  0  0  0  0  0  0  0  0  0
  -13.4630   -7.9130   24.2808 H   0  0  0  0  0  0  0  0  0  0  0  0
  1  2  1  0
  2  3  1  0
  3  4  1  0
  5  4  1  0
  5 11  1  0
  5 30  1  0
  6  7  2  0
  6 20  1  0
  6 22  1  0
  7  8  1  0
  8  9  2  0
  9 10  1  0
 10 22  2  0
 11 29  1  0
 11 35  2  0
 12 13  1  0
 23 12  1  0
 13 14  1  0
 14 15  2  0
 14 27  1  0
 15 16  1  0
 16 25  2  0
 17 18  1  0
 17 31  2  0
 17 32  1  0
 18 19  1  0
 18 29  1  0
 19 20  1  0
 20 21  2  0
 21 28  1  0
 22 28  1  0
 23 24  1  0
 23 30  1  0
 24 33  2  0
 24 34  1  0
 25 26  1  0
 26 27  2  0
  1 36  1  0
  1 37  1  0
  1 38  1  0
  2 39  1  0
  2 40  1  0
  3 41  1  0
  3 42  1  0
  4 43  1  0
  4 44  1  0
  5 45  1  6
  7 46  1  0
  8 47  1  0
  9 48  1  0
 10 49  1  0
 12 50  1  0
 12 51  1  0
 13 52  1  0
 13 53  1  0
 15 54  1  0
 16 55  1  0
 18 56  1  1
 19 57  1  0
 19 58  1  0
 21 59  1  0
 23 60  1  1
 25 61  1  0
 26 62  1  0
 27 63  1  0
 28 64  1  0
 29 65  1  0
 30 66  1  0
 30 67  1  0
M  CHG  3  30   1  32  -1  34  -1
M  END
>  <filename_input>  (5) 
7Q27_8KC_docked.sdf

>  <pdb_id>  (5) 
7Q27_8KC

>  <pose_rank>  (5) 
4

>  <num_atoms_heavy>  (5) 
35

>  <num_torsions>  (5) 
14

>  <pose>  (5) 
[-14.59460041964243, -8.090204662738811, 22.59361267238985, -2.160752040784638, -0.6666193637865608, 0.27330835098920125, 30.41415834604558, 55.189522662323704, -3.137278375154602, 50.950633771158046, 16.27156766356006, -0.3014824308769392, -5.961473871162763, -7.433247189393664, 23.490604245730346, -1.4421271823725017, -3.053544071322542, 1.13790414546693, 1.4809801125733792, 0.3434012074272555]

>  <energy>  (5) 
-877.0401006139413

>  <inter_energy>  (5) 
-896.2463304782011

>  <intra_energy>  (5) 
32.54380178936815

>  <rmsd>  (5) 
9.24659

>  <sdf_rank>  (5) 
0

$$$$

     RDKit          3D

 67 69  0  0  0  0  0  0  0  0999 V2000
  -12.6361  -10.2523   25.0711 C   0  0  0  0  0  0  0  0  0  0  0  0
  -11.9141   -9.8876   23.7023 C   0  0  0  0  0  0  0  0  0  0  0  0
  -11.8727   -8.3549   23.5427 C   0  0  0  0  0  0  0  0  0  0  0  0
  -12.1162   -7.9267   22.0987 C   0  0  0  0  0  0  0  0  0  0  0  0
  -13.4381   -8.4324   21.5472 C   0  0  1  0  0  0  0  0  0  0  0  0
  -17.2924   -9.6082   27.0250 C   0  0  0  0  0  0  0  0  0  0  0  0
  -18.2347   -8.7385   27.5914 C   0  0  0  0  0  0  0  0  0  0  0  0
  -18.4391   -8.7603   28.9650 C   0  0  0  0  0  0  0  0  0  0  0  0
  -17.7149   -9.6268   29.7767 C   0  0  0  0  0  0  0  0  0  0  0  0
  -16.7696  -10.4812   29.2254 C   0  0  0  0  0  0  0  0  0  0  0  0
  -14.6274   -7.8159   22.2603 C   0  0  0  0  0  0  0  0  0  0  0  0
  -11.7371   -7.2982   18.6792 C   0  0  0  0  0  0  0  0  0  0  0  0
  -10.8439   -6.0787   18.3835 C   0  0  0  0  0  0  0  0  0  0  0  0
  -10.3933   -5.9240   16.8903 C   0  0  0  0  0  0  0  0  0  0  0  0
  -10.1048   -4.6496   16.4656 C   0  0  0  0  0  0  0  0  0  0  0  0
   -9.7001   -4.4268   15.1665 C   0  0  0  0  0  0  0  0  0  0  0  0
  -15.9230   -7.2257   25.1441 C   0  0  0  0  0  0  0  0  0  0  0  0
  -16.4155   -8.0237   23.9561 C   0  0  2  0  0  0  0  0  0  0  0  0
  -17.3668   -9.1572   24.3991 C   0  0  0  0  0  0  0  0  0  0  0  0
  -16.8533   -9.8292   25.7000 C   0  0  0  0  0  0  0  0  0  0  0  0
  -15.8705  -10.8131   25.7943 C   0  0  0  0  0  0  0  0  0  0  0  0
  -16.5611  -10.4592   27.8341 C   0  0  0  0  0  0  0  0  0  0  0  0
  -12.8008   -6.9088   19.7313 C   0  0  1  0  0  0  0  0  0  0  0  0
  -13.6636   -5.8218   19.1870 C   0  0  0  0  0  0  0  0  0  0  0  0
   -9.5848   -5.5079   14.2948 C   0  0  0  0  0  0  0  0  0  0  0  0
   -9.8636   -6.7914   14.7419 C   0  0  0  0  0  0  0  0  0  0  0  0
  -10.2838   -6.9951   16.0383 C   0  0  0  0  0  0  0  0  0  0  0  0
  -15.7234  -11.1621   27.0602 N   0  0  0  0  0  0  0  0  0  0  0  0
  -15.2613   -8.6088   23.2628 N   0  0  0  0  0  0  0  0  0  0  0  0
  -13.6015   -8.0861   20.1230 N   0  0  0  0  0  0  0  0  0  0  0  0
  -16.6365   -6.3757   25.7648 O   0  0  0  0  0  0  0  0  0  0  0  0
  -14.7384   -7.3928   25.5484 O   0  0  0  0  0  0  0  0  0  0  0  0
  -13.4557   -4.6889   19.6148 O   0  0  0  0  0  0  0  0  0  0  0  0
  -14.5843   -6.0180   18.3500 O   0  0  0  0  0  0  0  0  0  0  0  0
  -15.0654   -6.7426   21.9841 O   0  0  0  0  0  0  0  0  0  0  0  0
  -12.0056   -9.9338   25.9143 H   0  0  0  0  0  0  0  0  0  0  0  0
  -13.6060   -9.7361   25.1229 H   0  0  0  0  0  0  0  0  0  0  0  0
  -12.7960  -11.3394   25.1229 H   0  0  0  0  0  0  0  0  0  0  0  0
  -10.8882  -10.2843   23.7106 H   0  0  0  0  0  0  0  0  0  0  0  0
  -12.4690  -10.3314   22.8626 H   0  0  0  0  0  0  0  0  0  0  0  0
  -12.6497   -7.9097   24.1815 H   0  0  0  0  0  0  0  0  0  0  0  0
  -10.8710   -8.0084   23.8368 H   0  0  0  0  0  0  0  0  0  0  0  0
  -12.1145   -6.8276   22.0535 H   0  0  0  0  0  0  0  0  0  0  0  0
  -11.3141   -8.3629   21.4853 H   0  0  0  0  0  0  0  0  0  0  0  0
  -13.4109   -9.5220   21.6956 H   0  0  0  0  0  0  0  0  0  0  0  0
  -18.8058   -8.0464   26.9551 H   0  0  0  0  0  0  0  0  0  0  0  0
  -19.1815   -8.0852   29.4155 H   0  0  0  0  0  0  0  0  0  0  0  0
  -17.8922   -9.6352   30.8623 H   0  0  0  0  0  0  0  0  0  0  0  0
  -16.1928  -11.1645   29.8660 H   0  0  0  0  0  0  0  0  0  0  0  0
  -12.2364   -7.6211   17.7538 H   0  0  0  0  0  0  0  0  0  0  0  0
  -11.1197   -8.1220   19.0667 H   0  0  0  0  0  0  0  0  0  0  0  0
  -11.4011   -5.1732   18.6658 H   0  0  0  0  0  0  0  0  0  0  0  0
   -9.9224   -6.2288   18.9651 H   0  0  0  0  0  0  0  0  0  0  0  0
  -10.1969   -3.8047   17.1639 H   0  0  0  0  0  0  0  0  0  0  0  0
   -9.4710   -3.4076   14.8221 H   0  0  0  0  0  0  0  0  0  0  0  0
  -16.9688   -7.3483   23.2871 H   0  0  0  0  0  0  0  0  0  0  0  0
  -18.3676   -8.7382   24.5802 H   0  0  0  0  0  0  0  0  0  0  0  0
  -17.4078   -9.9150   23.6028 H   0  0  0  0  0  0  0  0  0  0  0  0
  -15.3063  -11.2327   24.9484 H   0  0  0  0  0  0  0  0  0  0  0  0
  -12.2986   -6.5375   20.6368 H   0  0  0  0  0  0  0  0  0  0  0  0
   -9.2728   -5.3438   13.2528 H   0  0  0  0  0  0  0  0  0  0  0  0
   -9.7492   -7.6475   14.0606 H   0  0  0  0  0  0  0  0  0  0  0  0
  -10.5296   -8.0086   16.3881 H   0  0  0  0  0  0  0  0  0  0  0  0
  -15.0604  -11.8720   27.4025 H   0  0  0  0  0  0  0  0  0  0  0  0
  -14.9226   -9.5544   23.4910 H   0  0  0  0  0  0  0  0  0  0  0  0
  -13.3068   -8.8908   19.5515 H   0  0  0  0  0  0  0  0  0  0  0  0
  -14.5934   -7.8550   19.9691 H   0  0  0  0  0  0  0  0  0  0  0  0
  1  2  1  0
  2  3  1  0
  3  4  1  0
  5  4  1  0
  5 11  1  0
  5 30  1  0
  6  7  2  0
  6 20  1  0
  6 22  1  0
  7  8  1  0
  8  9  2  0
  9 10  1  0
 10 22  2  0
 11 29  1  0
 11 35  2  0
 12 13  1  0
 23 12  1  0
 13 14  1  0
 14 15  2  0
 14 27  1  0
 15 16  1  0
 16 25  2  0
 17 18  1  0
 17 31  2  0
 17 32  1  0
 18 19  1  0
 18 29  1  0
 19 20  1  0
 20 21  2  0
 21 28  1  0
 22 28  1  0
 23 24  1  0
 23 30  1  0
 24 33  2  0
 24 34  1  0
 25 26  1  0
 26 27  2  0
  1 36  1  0
  1 37  1  0
  1 38  1  0
  2 39  1  0
  2 40  1  0
  3 41  1  0
  3 42  1  0
  4 43  1  0
  4 44  1  0
  5 45  1  6
  7 46  1  0
  8 47  1  0
  9 48  1  0
 10 49  1  0
 12 50  1  0
 12 51  1  0
 13 52  1  0
 13 53  1  0
 15 54  1  0
 16 55  1  0
 18 56  1  6
 19 57  1  0
 19 58  1  0
 21 59  1  0
 23 60  1  1
 25 61  1  0
 26 62  1  0
 27 63  1  0
 28 64  1  0
 29 65  1  0
 30 66  1  0
 30 67  1  0
M  CHG  3  30   1  32  -1  34  -1
M  END
>  <filename_input>  (6) 
7Q27_8KC_docked.sdf

>  <pdb_id>  (6) 
7Q27_8KC

>  <pose_rank>  (6) 
5

>  <num_atoms_heavy>  (6) 
35

>  <num_torsions>  (6) 
14

>  <pose>  (6) 
[-13.438060283556895, -8.432410676996387, 21.547163603133303, 0.5056371170297521, 0.008705751208440379, -3.753349577112518, -0.5703460565492022, -0.420035884908154, -3.17423608984693, -5.733411372476993, 3.467712357477567, -4.184396348846528, -2.0217600853878, 0.7460847307477958, -3.3107061226785564, 5.12747447444439, 0.09241495785526685, 6.294723900350977, 0.8198132197203757, -0.341230550509642]

>  <energy>  (6) 
-787.2947115895533

>  <inter_energy>  (6) 
-845.870837077281

>  <intra_energy>  (6) 
46.23894328076692

>  <rmsd>  (6) 
2.93977

>  <sdf_rank>  (6) 
0

$$$$

     RDKit          3D

 67 69  0  0  0  0  0  0  0  0999 V2000
  -15.4096   -7.7303   26.4295 C   0  0  0  0  0  0  0  0  0  0  0  0
  -15.8337   -7.5375   24.9095 C   0  0  0  0  0  0  0  0  0  0  0  0
  -14.9608   -6.4370   24.2744 C   0  0  0  0  0  0  0  0  0  0  0  0
  -13.8196   -7.0223   23.4481 C   0  0  0  0  0  0  0  0  0  0  0  0
  -14.3021   -7.9570   22.3524 C   0  0  1  0  0  0  0  0  0  0  0  0
  -10.7273   -7.3363   16.6940 C   0  0  0  0  0  0  0  0  0  0  0  0
  -10.9586   -8.6877   16.4020 C   0  0  0  0  0  0  0  0  0  0  0  0
  -10.5237   -9.2040   15.1882 C   0  0  0  0  0  0  0  0  0  0  0  0
   -9.8582   -8.3975   14.2712 C   0  0  0  0  0  0  0  0  0  0  0  0
   -9.6124   -7.0616   14.5588 C   0  0  0  0  0  0  0  0  0  0  0  0
  -13.6547   -7.6504   21.0145 C   0  0  0  0  0  0  0  0  0  0  0  0
  -14.7871  -10.7339   24.5513 C   0  0  0  0  0  0  0  0  0  0  0  0
  -15.2905  -11.5060   23.3173 C   0  0  0  0  0  0  0  0  0  0  0  0
  -14.6751  -12.9344   23.1231 C   0  0  0  0  0  0  0  0  0  0  0  0
  -14.4546  -13.6675   24.2640 C   0  0  0  0  0  0  0  0  0  0  0  0
  -13.9169  -14.9344   24.1808 C   0  0  0  0  0  0  0  0  0  0  0  0
  -14.0453   -6.1533   18.2165 C   0  0  0  0  0  0  0  0  0  0  0  0
  -13.0142   -5.9766   19.3103 C   0  0  2  0  0  0  0  0  0  0  0  0
  -11.8042   -6.9123   19.0950 C   0  0  0  0  0  0  0  0  0  0  0  0
  -11.0290   -6.5218   17.8088 C   0  0  0  0  0  0  0  0  0  0  0  0
  -10.5089   -5.2656   17.5018 C   0  0  0  0  0  0  0  0  0  0  0  0
  -10.0518   -6.5379   15.7885 C   0  0  0  0  0  0  0  0  0  0  0  0
  -13.8206   -9.6168   24.0954 C   0  0  1  0  0  0  0  0  0  0  0  0
  -12.4219   -9.9972   24.4433 C   0  0  0  0  0  0  0  0  0  0  0  0
  -13.6047  -15.4602   22.9286 C   0  0  0  0  0  0  0  0  0  0  0  0
  -13.8479  -14.7150   21.7838 C   0  0  0  0  0  0  0  0  0  0  0  0
  -14.3695  -13.4437   21.8852 C   0  0  0  0  0  0  0  0  0  0  0  0
   -9.9425   -5.3082   16.3088 N   0  0  0  0  0  0  0  0  0  0  0  0
  -13.6344   -6.2839   20.6049 N   0  0  0  0  0  0  0  0  0  0  0  0
  -13.9647   -9.3619   22.6481 N   0  0  0  0  0  0  0  0  0  0  0  0
  -15.2707   -5.8403   18.3482 O   0  0  0  0  0  0  0  0  0  0  0  0
  -13.6891   -6.6461   17.1098 O   0  0  0  0  0  0  0  0  0  0  0  0
  -11.8025  -10.6434   23.6016 O   0  0  0  0  0  0  0  0  0  0  0  0
  -11.8763   -9.7112   25.5421 O   0  0  0  0  0  0  0  0  0  0  0  0
  -13.2197   -8.4948   20.2949 O   0  0  0  0  0  0  0  0  0  0  0  0
  -16.2144   -7.3643   27.0840 H   0  0  0  0  0  0  0  0  0  0  0  0
  -15.2323   -8.7976   26.6282 H   0  0  0  0  0  0  0  0  0  0  0  0
  -14.4887   -7.1625   26.6282 H   0  0  0  0  0  0  0  0  0  0  0  0
  -15.6887   -8.4820   24.3646 H   0  0  0  0  0  0  0  0  0  0  0  0
  -16.8928   -7.2454   24.8559 H   0  0  0  0  0  0  0  0  0  0  0  0
  -15.5911   -5.8161   23.6208 H   0  0  0  0  0  0  0  0  0  0  0  0
  -14.5218   -5.8390   25.0866 H   0  0  0  0  0  0  0  0  0  0  0  0
  -13.2624   -6.1952   22.9838 H   0  0  0  0  0  0  0  0  0  0  0  0
  -13.1869   -7.6106   24.1290 H   0  0  0  0  0  0  0  0  0  0  0  0
  -15.3908   -7.8057   22.3074 H   0  0  0  0  0  0  0  0  0  0  0  0
  -11.4787   -9.3320   17.1261 H   0  0  0  0  0  0  0  0  0  0  0  0
  -10.7076  -10.2620   14.9496 H   0  0  0  0  0  0  0  0  0  0  0  0
   -9.5246   -8.8206   13.3122 H   0  0  0  0  0  0  0  0  0  0  0  0
   -9.0827   -6.4229   13.8367 H   0  0  0  0  0  0  0  0  0  0  0  0
  -15.6424  -10.2870   25.0793 H   0  0  0  0  0  0  0  0  0  0  0  0
  -14.2609  -11.4232   25.2280 H   0  0  0  0  0  0  0  0  0  0  0  0
  -16.3814  -11.6153   23.4067 H   0  0  0  0  0  0  0  0  0  0  0  0
  -14.9764  -10.9182   22.4422 H   0  0  0  0  0  0  0  0  0  0  0  0
  -14.7078  -13.2426   25.2465 H   0  0  0  0  0  0  0  0  0  0  0  0
  -13.7363  -15.5232   25.0922 H   0  0  0  0  0  0  0  0  0  0  0  0
  -12.6565   -4.9366   19.2882 H   0  0  0  0  0  0  0  0  0  0  0  0
  -11.1296   -6.8347   19.9604 H   0  0  0  0  0  0  0  0  0  0  0  0
  -12.1704   -7.9439   18.9869 H   0  0  0  0  0  0  0  0  0  0  0  0
  -10.5615   -4.3788   18.1504 H   0  0  0  0  0  0  0  0  0  0  0  0
  -14.0706   -8.6827   24.6196 H   0  0  0  0  0  0  0  0  0  0  0  0
  -13.1657  -16.4656   22.8478 H   0  0  0  0  0  0  0  0  0  0  0  0
  -13.6240  -15.1396   20.7940 H   0  0  0  0  0  0  0  0  0  0  0  0
  -14.5399  -12.8411   20.9809 H   0  0  0  0  0  0  0  0  0  0  0  0
   -9.4833   -4.5110   15.8457 H   0  0  0  0  0  0  0  0  0  0  0  0
  -14.0390   -5.5423   21.1942 H   0  0  0  0  0  0  0  0  0  0  0  0
  -14.7131   -9.9659   22.2793 H   0  0  0  0  0  0  0  0  0  0  0  0
  -13.0588   -9.5663   22.2027 H   0  0  0  0  0  0  0  0  0  0  0  0
  1  2  1  0
  2  3  1  0
  3  4  1  0
  5  4  1  0
  5 11  1  0
  5 30  1  0
  6  7  2  0
  6 20  1  0
  6 22  1  0
  7  8  1  0
  8  9  2  0
  9 10  1  0
 10 22  2  0
 11 29  1  0
 11 35  2  0
 12 13  1  0
 23 12  1  0
 13 14  1  0
 14 15  2  0
 14 27  1  0
 15 16  1  0
 16 25  2  0
 17 18  1  0
 17 31  2  0
 17 32  1  0
 18 19  1  0
 18 29  1  0
 19 20  1  0
 20 21  2  0
 21 28  1  0
 22 28  1  0
 23 24  1  0
 23 30  1  0
 24 33  2  0
 24 34  1  0
 25 26  1  0
 26 27  2  0
  1 36  1  0
  1 37  1  0
  1 38  1  0
  2 39  1  0
  2 40  1  0
  3 41  1  0
  3 42  1  0
  4 43  1  0
  4 44  1  0
  5 45  1  6
  7 46  1  0
  8 47  1  0
  9 48  1  0
 10 49  1  0
 12 50  1  0
 12 51  1  0
 13 52  1  0
 13 53  1  0
 15 54  1  0
 16 55  1  0
 18 56  1  1
 19 57  1  0
 19 58  1  0
 21 59  1  0
 23 60  1  1
 25 61  1  0
 26 62  1  0
 27 63  1  0
 28 64  1  0
 29 65  1  0
 30 66  1  0
 30 67  1  0
M  CHG  3  30   1  32  -1  34  -1
M  END
>  <filename_input>  (7) 
7Q27_8KC_docked.sdf

>  <pdb_id>  (7) 
7Q27_8KC

>  <pose_rank>  (7) 
6

>  <num_atoms_heavy>  (7) 
35

>  <num_torsions>  (7) 
14

>  <pose>  (7) 
[-14.302147993363132, -7.956985913155131, 22.352423722249554, -1.9137415251341865, 0.996827249389284, 0.43953876076184445, 0.34762740003210435, 2.6037048317329683, 0.8933213091862319, 2.399049228723308, -0.43444809051720207, 3.2594471253639035, -2.029130817722766, -1.3289916500267738, 3.8461947992012497, -1.0455177240954252, 3.4636297308248243, 3.35578041295463, -1.1200663304991085, -2.3668580338626026]

>  <energy>  (7) 
-744.8313727662779

>  <inter_energy>  (7) 
-851.5712052553024

>  <intra_energy>  (7) 
116.65980266856992

>  <rmsd>  (7) 
9.26602

>  <sdf_rank>  (7) 
0

$$$$

     RDKit          3D

 67 69  0  0  0  0  0  0  0  0999 V2000
  -14.8260  -12.2431   20.7842 C   0  0  0  0  0  0  0  0  0  0  0  0
  -16.0981  -11.3450   20.4636 C   0  0  0  0  0  0  0  0  0  0  0  0
  -15.7452   -9.8628   20.6972 C   0  0  0  0  0  0  0  0  0  0  0  0
  -14.2456   -9.6586   20.8898 C   0  0  0  0  0  0  0  0  0  0  0  0
  -13.9169   -8.4094   21.6888 C   0  0  1  0  0  0  0  0  0  0  0  0
  -10.5029   -4.9644   16.6459 C   0  0  0  0  0  0  0  0  0  0  0  0
  -10.5033   -3.9747   17.6387 C   0  0  0  0  0  0  0  0  0  0  0  0
  -10.1710   -2.6702   17.2968 C   0  0  0  0  0  0  0  0  0  0  0  0
   -9.8485   -2.3403   15.9849 C   0  0  0  0  0  0  0  0  0  0  0  0
   -9.8597   -3.3117   14.9929 C   0  0  0  0  0  0  0  0  0  0  0  0
  -13.3044   -7.3232   20.8238 C   0  0  0  0  0  0  0  0  0  0  0  0
  -15.6254   -8.9358   24.4464 C   0  0  0  0  0  0  0  0  0  0  0  0
  -17.1495   -8.7621   24.5846 C   0  0  0  0  0  0  0  0  0  0  0  0
  -17.6933   -8.7577   26.0547 C   0  0  0  0  0  0  0  0  0  0  0  0
  -18.9772   -8.3018   26.2323 C   0  0  0  0  0  0  0  0  0  0  0  0
  -19.5318   -8.2664   27.4942 C   0  0  0  0  0  0  0  0  0  0  0  0
  -13.4150   -6.1154   17.6879 C   0  0  0  0  0  0  0  0  0  0  0  0
  -12.3628   -6.6384   18.6419 C   0  0  2  0  0  0  0  0  0  0  0  0
  -11.1609   -7.2351   17.8769 C   0  0  0  0  0  0  0  0  0  0  0  0
  -10.7889   -6.3483   16.6591 C   0  0  0  0  0  0  0  0  0  0  0  0
  -10.6362   -6.7711   15.3398 C   0  0  0  0  0  0  0  0  0  0  0  0
  -10.1971   -4.6333   15.3380 C   0  0  0  0  0  0  0  0  0  0  0  0
  -15.0301   -7.6882   23.7542 C   0  0  1  0  0  0  0  0  0  0  0  0
  -13.6175   -7.5030   24.1927 C   0  0  0  0  0  0  0  0  0  0  0  0
  -18.7767   -8.7009   28.5818 C   0  0  0  0  0  0  0  0  0  0  0  0
  -17.4872   -9.1741   28.3855 C   0  0  0  0  0  0  0  0  0  0  0  0
  -16.9414   -9.1866   27.1204 C   0  0  0  0  0  0  0  0  0  0  0  0
  -10.2876   -5.7408   14.5896 N   0  0  0  0  0  0  0  0  0  0  0  0
  -12.9599   -7.6805   19.4862 N   0  0  0  0  0  0  0  0  0  0  0  0
  -15.1258   -7.8117   22.2858 N   0  0  0  0  0  0  0  0  0  0  0  0
  -14.2685   -6.8576   17.1068 O   0  0  0  0  0  0  0  0  0  0  0  0
  -13.4559   -4.8788   17.4358 O   0  0  0  0  0  0  0  0  0  0  0  0
  -13.1741   -6.3580   24.1489 O   0  0  0  0  0  0  0  0  0  0  0  0
  -12.8772   -8.4492   24.5715 O   0  0  0  0  0  0  0  0  0  0  0  0
  -13.0643   -6.2285   21.2289 O   0  0  0  0  0  0  0  0  0  0  0  0
  -14.7035  -12.3296   21.8740 H   0  0  0  0  0  0  0  0  0  0  0  0
  -14.9652  -13.2443   20.3503 H   0  0  0  0  0  0  0  0  0  0  0  0
  -13.9292  -11.7769   20.3503 H   0  0  0  0  0  0  0  0  0  0  0  0
  -16.3965  -11.4911   19.4150 H   0  0  0  0  0  0  0  0  0  0  0  0
  -16.9301  -11.6347   21.1223 H   0  0  0  0  0  0  0  0  0  0  0  0
  -16.0749   -9.2771   19.8264 H   0  0  0  0  0  0  0  0  0  0  0  0
  -16.2549   -9.5314   21.6140 H   0  0  0  0  0  0  0  0  0  0  0  0
  -13.8377  -10.5318   21.4200 H   0  0  0  0  0  0  0  0  0  0  0  0
  -13.7978   -9.5397   19.8921 H   0  0  0  0  0  0  0  0  0  0  0  0
  -13.2094   -8.7432   22.4621 H   0  0  0  0  0  0  0  0  0  0  0  0
  -10.7638   -4.2284   18.6768 H   0  0  0  0  0  0  0  0  0  0  0  0
  -10.1629   -1.8897   18.0720 H   0  0  0  0  0  0  0  0  0  0  0  0
   -9.5829   -1.3034   15.7315 H   0  0  0  0  0  0  0  0  0  0  0  0
   -9.6089   -3.0522   13.9538 H   0  0  0  0  0  0  0  0  0  0  0  0
  -15.1768   -9.0517   25.4441 H   0  0  0  0  0  0  0  0  0  0  0  0
  -15.4095   -9.8302   23.8436 H   0  0  0  0  0  0  0  0  0  0  0  0
  -17.4262   -7.8055   24.1172 H   0  0  0  0  0  0  0  0  0  0  0  0
  -17.6007   -9.6384   24.0963 H   0  0  0  0  0  0  0  0  0  0  0  0
  -19.5642   -7.9642   25.3655 H   0  0  0  0  0  0  0  0  0  0  0  0
  -20.5584   -7.8994   27.6406 H   0  0  0  0  0  0  0  0  0  0  0  0
  -12.0014   -5.8007   19.2564 H   0  0  0  0  0  0  0  0  0  0  0  0
  -10.2969   -7.2979   18.5548 H   0  0  0  0  0  0  0  0  0  0  0  0
  -11.4355   -8.2364   17.5136 H   0  0  0  0  0  0  0  0  0  0  0  0
  -10.7827   -7.8002   14.9799 H   0  0  0  0  0  0  0  0  0  0  0  0
  -15.6076   -6.7989   24.0470 H   0  0  0  0  0  0  0  0  0  0  0  0
  -19.2027   -8.6687   29.5955 H   0  0  0  0  0  0  0  0  0  0  0  0
  -16.9001   -9.5396   29.2408 H   0  0  0  0  0  0  0  0  0  0  0  0
  -15.9105   -9.5376   26.9654 H   0  0  0  0  0  0  0  0  0  0  0  0
  -10.1110   -5.7830   13.5758 H   0  0  0  0  0  0  0  0  0  0  0  0
  -13.1237   -8.6318   19.1271 H   0  0  0  0  0  0  0  0  0  0  0  0
  -15.2634   -6.8735   21.8838 H   0  0  0  0  0  0  0  0  0  0  0  0
  -15.9190   -8.4342   22.0754 H   0  0  0  0  0  0  0  0  0  0  0  0
  1  2  1  0
  2  3  1  0
  3  4  1  0
  5  4  1  0
  5 11  1  0
  5 30  1  0
  6  7  2  0
  6 20  1  0
  6 22  1  0
  7  8  1  0
  8  9  2  0
  9 10  1  0
 10 22  2  0
 11 29  1  0
 11 35  2  0
 12 13  1  0
 23 12  1  0
 13 14  1  0
 14 15  2  0
 14 27  1  0
 15 16  1  0
 16 25  2  0
 17 18  1  0
 17 31  2  0
 17 32  1  0
 18 19  1  0
 18 29  1  0
 19 20  1  0
 20 21  2  0
 21 28  1  0
 22 28  1  0
 23 24  1  0
 23 30  1  0
 24 33  2  0
 24 34  1  0
 25 26  1  0
 26 27  2  0
  1 36  1  0
  1 37  1  0
  1 38  1  0
  2 39  1  0
  2 40  1  0
  3 41  1  0
  3 42  1  0
  4 43  1  0
  4 44  1  0
  5 45  1  1
  7 46  1  0
  8 47  1  0
  9 48  1  0
 10 49  1  0
 12 50  1  0
 12 51  1  0
 13 52  1  0
 13 53  1  0
 15 54  1  0
 16 55  1  0
 18 56  1  1
 19 57  1  0
 19 58  1  0
 21 59  1  0
 23 60  1  1
 25 61  1  0
 26 62  1  0
 27 63  1  0
 28 64  1  0
 29 65  1  0
 30 66  1  0
 30 67  1  0
M  CHG  3  30   1  32  -1  34  -1
M  END
>  <filename_input>  (8) 
7Q27_8KC_docked.sdf

>  <pdb_id>  (8) 
7Q27_8KC

>  <pose_rank>  (8) 
7

>  <num_atoms_heavy>  (8) 
35

>  <num_torsions>  (8) 
14

>  <pose>  (8) 
[-13.916923418911066, -8.409356625309094, 21.688823076339528, -2.083319035344274, -3.1057571725353066, -0.9805380651083947, 1.0302378080852745, -0.6871298218629728, 5.828232526725566, 1.9735320732296473, -3.6192526134460197, -13.511167777778816, -5.728067140489658, -2.873721539578892, 11.82248336046679, -11.08433945216096, -0.7806711481400901, 7.874439276359923, 1.2408189216933783, -0.13528819181614624]

>  <energy>  (8) 
-767.3457615369889

>  <inter_energy>  (8) 
-832.3562087953264

>  <intra_energy>  (8) 
63.865280679940966

>  <rmsd>  (8) 
9.86855

>  <sdf_rank>  (8) 
0

$$$$

     RDKit          3D

 67 69  0  0  0  0  0  0  0  0999 V2000
  -18.2336   -7.4189   26.6809 C   0  0  0  0  0  0  0  0  0  0  0  0
  -17.2348   -6.3587   26.0437 C   0  0  0  0  0  0  0  0  0  0  0  0
  -15.9021   -7.0557   25.7060 C   0  0  0  0  0  0  0  0  0  0  0  0
  -15.8405   -8.4707   26.2731 C   0  0  0  0  0  0  0  0  0  0  0  0
  -15.1192   -9.4439   25.3567 C   0  0  1  0  0  0  0  0  0  0  0  0
  -12.2660   -6.2715   19.1183 C   0  0  0  0  0  0  0  0  0  0  0  0
  -10.9064   -6.5797   18.9713 C   0  0  0  0  0  0  0  0  0  0  0  0
  -10.2581   -6.2436   17.7899 C   0  0  0  0  0  0  0  0  0  0  0  0
  -10.9414   -5.6010   16.7631 C   0  0  0  0  0  0  0  0  0  0  0  0
  -12.2844   -5.2793   16.9064 C   0  0  0  0  0  0  0  0  0  0  0  0
  -15.2309   -9.0432   23.8972 C   0  0  0  0  0  0  0  0  0  0  0  0
  -14.4206  -11.7538   26.3761 C   0  0  0  0  0  0  0  0  0  0  0  0
  -14.6219  -11.7308   27.9029 C   0  0  0  0  0  0  0  0  0  0  0  0
  -16.0787  -11.4070   28.3823 C   0  0  0  0  0  0  0  0  0  0  0  0
  -17.0403  -12.3468   28.1002 C   0  0  0  0  0  0  0  0  0  0  0  0
  -18.3471  -12.1396   28.4883 C   0  0  0  0  0  0  0  0  0  0  0  0
  -14.1975   -9.3237   21.0240 C   0  0  0  0  0  0  0  0  0  0  0  0
  -14.1691   -8.0779   21.8830 C   0  0  2  0  0  0  0  0  0  0  0  0
  -12.9653   -7.1787   21.5250 C   0  0  0  0  0  0  0  0  0  0  0  0
  -13.1950   -6.4678   20.1651 C   0  0  0  0  0  0  0  0  0  0  0  0
  -14.3896   -5.9127   19.7096 C   0  0  0  0  0  0  0  0  0  0  0  0
  -12.9419   -5.6185   18.1032 C   0  0  0  0  0  0  0  0  0  0  0  0
  -13.2186  -10.8548   26.0060 C   0  0  1  0  0  0  0  0  0  0  0  0
  -12.4533  -11.4823   24.8913 C   0  0  0  0  0  0  0  0  0  0  0  0
  -18.6769  -10.9704   29.1709 C   0  0  0  0  0  0  0  0  0  0  0  0
  -17.6925  -10.0375   29.4635 C   0  0  0  0  0  0  0  0  0  0  0  0
  -16.3945  -10.2515   29.0533 C   0  0  0  0  0  0  0  0  0  0  0  0
  -14.2078   -5.4233   18.4958 N   0  0  0  0  0  0  0  0  0  0  0  0
  -14.0708   -8.4730   23.2935 N   0  0  0  0  0  0  0  0  0  0  0  0
  -13.6745   -9.4967   25.6481 N   0  0  0  0  0  0  0  0  0  0  0  0
  -13.6021  -10.4042   21.3324 O   0  0  0  0  0  0  0  0  0  0  0  0
  -14.8337   -9.3040   19.9335 O   0  0  0  0  0  0  0  0  0  0  0  0
  -12.8955  -12.5392   24.4477 O   0  0  0  0  0  0  0  0  0  0  0  0
  -11.3909  -10.9981   24.4181 O   0  0  0  0  0  0  0  0  0  0  0  0
  -16.2408   -9.1416   23.2722 O   0  0  0  0  0  0  0  0  0  0  0  0
  -18.1790   -7.3609   27.7780 H   0  0  0  0  0  0  0  0  0  0  0  0
  -19.2602   -7.1988   26.3527 H   0  0  0  0  0  0  0  0  0  0  0  0
  -17.9528   -8.4305   26.3527 H   0  0  0  0  0  0  0  0  0  0  0  0
  -17.6758   -5.9436   25.1254 H   0  0  0  0  0  0  0  0  0  0  0  0
  -17.0542   -5.5443   26.7608 H   0  0  0  0  0  0  0  0  0  0  0  0
  -15.7941   -7.1059   24.6124 H   0  0  0  0  0  0  0  0  0  0  0  0
  -15.0874   -6.4713   26.1585 H   0  0  0  0  0  0  0  0  0  0  0  0
  -15.3124   -8.4397   27.2375 H   0  0  0  0  0  0  0  0  0  0  0  0
  -16.8752   -8.8271   26.3843 H   0  0  0  0  0  0  0  0  0  0  0  0
  -15.6016  -10.4160   25.5365 H   0  0  0  0  0  0  0  0  0  0  0  0
  -10.3592   -7.0822   19.7825 H   0  0  0  0  0  0  0  0  0  0  0  0
   -9.1930   -6.4883   17.6650 H   0  0  0  0  0  0  0  0  0  0  0  0
  -10.4146   -5.3460   15.8317 H   0  0  0  0  0  0  0  0  0  0  0  0
  -12.8258   -4.7674   16.0972 H   0  0  0  0  0  0  0  0  0  0  0  0
  -14.2236  -12.7848   26.0469 H   0  0  0  0  0  0  0  0  0  0  0  0
  -15.3277  -11.3796   25.8790 H   0  0  0  0  0  0  0  0  0  0  0  0
  -14.3467  -12.7203   28.2968 H   0  0  0  0  0  0  0  0  0  0  0  0
  -13.9892  -10.9141   28.2805 H   0  0  0  0  0  0  0  0  0  0  0  0
  -16.7670  -13.2671   27.5632 H   0  0  0  0  0  0  0  0  0  0  0  0
  -19.1202  -12.8885   28.2617 H   0  0  0  0  0  0  0  0  0  0  0  0
  -15.0929   -7.5085   21.7028 H   0  0  0  0  0  0  0  0  0  0  0  0
  -12.8351   -6.4203   22.3111 H   0  0  0  0  0  0  0  0  0  0  0  0
  -12.0660   -7.8073   21.4473 H   0  0  0  0  0  0  0  0  0  0  0  0
  -15.3347   -5.8861   20.2719 H   0  0  0  0  0  0  0  0  0  0  0  0
  -12.5538  -10.7589   26.8772 H   0  0  0  0  0  0  0  0  0  0  0  0
  -19.7173  -10.7871   29.4777 H   0  0  0  0  0  0  0  0  0  0  0  0
  -17.9484   -9.1260   30.0235 H   0  0  0  0  0  0  0  0  0  0  0  0
  -15.6170   -9.5019   29.2619 H   0  0  0  0  0  0  0  0  0  0  0  0
  -14.9345   -4.9588   17.9327 H   0  0  0  0  0  0  0  0  0  0  0  0
  -13.1988   -8.3436   23.8261 H   0  0  0  0  0  0  0  0  0  0  0  0
  -13.1577   -9.1840   24.8138 H   0  0  0  0  0  0  0  0  0  0  0  0
  -13.4959   -8.8837   26.4563 H   0  0  0  0  0  0  0  0  0  0  0  0
  1  2  1  0
  2  3  1  0
  3  4  1  0
  5  4  1  0
  5 11  1  0
  5 30  1  0
  6  7  2  0
  6 20  1  0
  6 22  1  0
  7  8  1  0
  8  9  2  0
  9 10  1  0
 10 22  2  0
 11 29  1  0
 11 35  2  0
 12 13  1  0
 23 12  1  0
 13 14  1  0
 14 15  2  0
 14 27  1  0
 15 16  1  0
 16 25  2  0
 17 18  1  0
 17 31  2  0
 17 32  1  0
 18 19  1  0
 18 29  1  0
 19 20  1  0
 20 21  2  0
 21 28  1  0
 22 28  1  0
 23 24  1  0
 23 30  1  0
 24 33  2  0
 24 34  1  0
 25 26  1  0
 26 27  2  0
  1 36  1  0
  1 37  1  0
  1 38  1  0
  2 39  1  0
  2 40  1  0
  3 41  1  0
  3 42  1  0
  4 43  1  0
  4 44  1  0
  5 45  1  6
  7 46  1  0
  8 47  1  0
  9 48  1  0
 10 49  1  0
 12 50  1  0
 12 51  1  0
 13 52  1  0
 13 53  1  0
 15 54  1  0
 16 55  1  0
 18 56  1  1
 19 57  1  0
 19 58  1  0
 21 59  1  0
 23 60  1  1
 25 61  1  0
 26 62  1  0
 27 63  1  0
 28 64  1  0
 29 65  1  0
 30 66  1  0
 30 67  1  0
M  CHG  3  30   1  32  -1  34  -1
M  END
>  <filename_input>  (9) 
7Q27_8KC_docked.sdf

>  <pdb_id>  (9) 
7Q27_8KC

>  <pose_rank>  (9) 
8

>  <num_atoms_heavy>  (9) 
35

>  <num_torsions>  (9) 
14

>  <pose>  (9) 
[-15.119238897696755, -9.443909917063374, 25.356688439799353, -2.5186344604334296, -0.2264737490568717, 1.2186534703752907, -3.27045758337088, -6.439001139445169, -0.3054394297739824, 8.812474770225844, -0.6831693735854801, -5.823614830495987, -13.083044553695967, 3.052681160086006, -0.7662865514302986, 9.088716199325981, 1.935896225653165, -4.863872754671661, -7.005624711308976, -1.8491930849750111]

>  <energy>  (9) 
-703.1933498456851

>  <inter_energy>  (9) 
-739.430076095888

>  <intra_energy>  (9) 
36.26245472212979

>  <rmsd>  (9) 
9.76113

>  <sdf_rank>  (9) 
0

$$$$

     RDKit          3D

 67 69  0  0  0  0  0  0  0  0999 V2000
  -14.5867  -13.7224   22.4047 C   0  0  0  0  0  0  0  0  0  0  0  0
  -13.9905  -12.2747   22.1285 C   0  0  0  0  0  0  0  0  0  0  0  0
  -14.7449  -11.2421   22.9892 C   0  0  0  0  0  0  0  0  0  0  0  0
  -15.3488  -10.1270   22.1409 C   0  0  0  0  0  0  0  0  0  0  0  0
  -15.3851   -8.7902   22.8610 C   0  0  1  0  0  0  0  0  0  0  0  0
  -15.8586  -11.3912   26.6557 C   0  0  0  0  0  0  0  0  0  0  0  0
  -16.4278  -12.4232   25.8968 C   0  0  0  0  0  0  0  0  0  0  0  0
  -15.6702  -13.5510   25.6084 C   0  0  0  0  0  0  0  0  0  0  0  0
  -14.3637  -13.6658   26.0709 C   0  0  0  0  0  0  0  0  0  0  0  0
  -13.7973  -12.6545   26.8352 C   0  0  0  0  0  0  0  0  0  0  0  0
  -16.6182   -8.6452   23.7337 C   0  0  0  0  0  0  0  0  0  0  0  0
  -12.9432   -7.3447   22.0720 C   0  0  0  0  0  0  0  0  0  0  0  0
  -13.4836   -7.7917   20.7008 C   0  0  0  0  0  0  0  0  0  0  0  0
  -12.8086   -7.1119   19.4601 C   0  0  0  0  0  0  0  0  0  0  0  0
  -13.6493   -6.4927   18.5671 C   0  0  0  0  0  0  0  0  0  0  0  0
  -13.1359   -5.8697   17.4494 C   0  0  0  0  0  0  0  0  0  0  0  0
  -17.4372   -6.9977   26.8260 C   0  0  0  0  0  0  0  0  0  0  0  0
  -17.5876   -8.2382   25.9722 C   0  0  2  0  0  0  0  0  0  0  0  0
  -17.7317   -9.5043   26.8452 C   0  0  0  0  0  0  0  0  0  0  0  0
  -16.3453  -10.1466   27.1156 C   0  0  0  0  0  0  0  0  0  0  0  0
  -15.2996   -9.5872   27.8479 C   0  0  0  0  0  0  0  0  0  0  0  0
  -14.5643  -11.5121   27.1287 C   0  0  0  0  0  0  0  0  0  0  0  0
  -12.9489   -8.5498   23.0405 C   0  0  1  0  0  0  0  0  0  0  0  0
  -11.7985   -8.4366   23.9816 C   0  0  0  0  0  0  0  0  0  0  0  0
  -11.7581   -5.8736   17.2406 C   0  0  0  0  0  0  0  0  0  0  0  0
  -10.9197   -6.4886   18.1592 C   0  0  0  0  0  0  0  0  0  0  0  0
  -11.4499   -7.1219   19.2621 C   0  0  0  0  0  0  0  0  0  0  0  0
  -14.2684  -10.4132   27.8356 N   0  0  0  0  0  0  0  0  0  0  0  0
  -16.4017   -8.3763   25.1180 N   0  0  0  0  0  0  0  0  0  0  0  0
  -14.2323   -8.6285   23.7666 N   0  0  0  0  0  0  0  0  0  0  0  0
  -18.1589   -6.7530   27.8440 O   0  0  0  0  0  0  0  0  0  0  0  0
  -16.5592   -6.1434   26.5198 O   0  0  0  0  0  0  0  0  0  0  0  0
  -11.3088   -9.4906   24.3803 O   0  0  0  0  0  0  0  0  0  0  0  0
  -11.3393   -7.3367   24.3895 O   0  0  0  0  0  0  0  0  0  0  0  0
  -17.7265   -8.7927   23.3215 O   0  0  0  0  0  0  0  0  0  0  0  0
  -14.6556  -13.8897   23.4897 H   0  0  0  0  0  0  0  0  0  0  0  0
  -15.5890  -13.7975   21.9577 H   0  0  0  0  0  0  0  0  0  0  0  0
  -13.9281  -14.4816   21.9577 H   0  0  0  0  0  0  0  0  0  0  0  0
  -12.9221  -12.2610   22.3900 H   0  0  0  0  0  0  0  0  0  0  0  0
  -14.1078  -12.0240   21.0639 H   0  0  0  0  0  0  0  0  0  0  0  0
  -15.5536  -11.7540   23.5315 H   0  0  0  0  0  0  0  0  0  0  0  0
  -14.0252  -10.7884   23.6865 H   0  0  0  0  0  0  0  0  0  0  0  0
  -14.7475  -10.0169   21.2264 H   0  0  0  0  0  0  0  0  0  0  0  0
  -16.3880  -10.4092   21.9160 H   0  0  0  0  0  0  0  0  0  0  0  0
  -15.3772   -8.0350   22.0612 H   0  0  0  0  0  0  0  0  0  0  0  0
  -17.4629  -12.3408   25.5338 H   0  0  0  0  0  0  0  0  0  0  0  0
  -16.1083  -14.3619   25.0079 H   0  0  0  0  0  0  0  0  0  0  0  0
  -13.7754  -14.5634   25.8296 H   0  0  0  0  0  0  0  0  0  0  0  0
  -12.7655  -12.7450   27.2054 H   0  0  0  0  0  0  0  0  0  0  0  0
  -11.9154   -6.9700   21.9577 H   0  0  0  0  0  0  0  0  0  0  0  0
  -13.5801   -6.5440   22.4761 H   0  0  0  0  0  0  0  0  0  0  0  0
  -13.3355   -8.8783   20.6151 H   0  0  0  0  0  0  0  0  0  0  0  0
  -14.5403   -7.4872   20.6766 H   0  0  0  0  0  0  0  0  0  0  0  0
  -14.7349   -6.4940   18.7444 H   0  0  0  0  0  0  0  0  0  0  0  0
  -13.8062   -5.3754   16.7308 H   0  0  0  0  0  0  0  0  0  0  0  0
  -18.4962   -8.1333   25.3610 H   0  0  0  0  0  0  0  0  0  0  0  0
  -18.1957   -9.2304   27.8042 H   0  0  0  0  0  0  0  0  0  0  0  0
  -18.3597  -10.2322   26.3106 H   0  0  0  0  0  0  0  0  0  0  0  0
  -15.3283   -8.6120   28.3559 H   0  0  0  0  0  0  0  0  0  0  0  0
  -12.8402   -9.4805   22.4643 H   0  0  0  0  0  0  0  0  0  0  0  0
  -11.3355   -5.3892   16.3479 H   0  0  0  0  0  0  0  0  0  0  0  0
   -9.8305   -6.4706   18.0068 H   0  0  0  0  0  0  0  0  0  0  0  0
  -10.7894   -7.6320   19.9788 H   0  0  0  0  0  0  0  0  0  0  0  0
  -13.3671  -10.2376   28.3023 H   0  0  0  0  0  0  0  0  0  0  0  0
  -15.4509   -8.2827   25.5029 H   0  0  0  0  0  0  0  0  0  0  0  0
  -14.3580   -7.7625   24.3098 H   0  0  0  0  0  0  0  0  0  0  0  0
  -14.1958   -9.4571   24.3773 H   0  0  0  0  0  0  0  0  0  0  0  0
  1  2  1  0
  2  3  1  0
  3  4  1  0
  5  4  1  0
  5 11  1  0
  5 30  1  0
  6  7  2  0
  6 20  1  0
  6 22  1  0
  7  8  1  0
  8  9  2  0
  9 10  1  0
 10 22  2  0
 11 29  1  0
 11 35  2  0
 12 13  1  0
 23 12  1  0
 13 14  1  0
 14 15  2  0
 14 27  1  0
 15 16  1  0
 16 25  2  0
 17 18  1  0
 17 31  2  0
 17 32  1  0
 18 19  1  0
 18 29  1  0
 19 20  1  0
 20 21  2  0
 21 28  1  0
 22 28  1  0
 23 24  1  0
 23 30  1  0
 24 33  2  0
 24 34  1  0
 25 26  1  0
 26 27  2  0
  1 36  1  0
  1 37  1  0
  1 38  1  0
  2 39  1  0
  2 40  1  0
  3 41  1  0
  3 42  1  0
  4 43  1  0
  4 44  1  0
  5 45  1  6
  7 46  1  0
  8 47  1  0
  9 48  1  0
 10 49  1  0
 12 50  1  0
 12 51  1  0
 13 52  1  0
 13 53  1  0
 15 54  1  0
 16 55  1  0
 18 56  1  6
 19 57  1  0
 19 58  1  0
 21 59  1  0
 23 60  1  6
 25 61  1  0
 26 62  1  0
 27 63  1  0
 28 64  1  0
 29 65  1  0
 30 66  1  0
 30 67  1  0
M  CHG  3  30   1  32  -1  34  -1
M  END
>  <filename_input>  (10) 
7Q27_8KC_docked.sdf

>  <pdb_id>  (10) 
7Q27_8KC

>  <pose_rank>  (10) 
9

>  <num_atoms_heavy>  (10) 
35

>  <num_torsions>  (10) 
14

>  <pose>  (10) 
[-15.385062675644594, -8.790166416798249, 22.861031464777643, 0.007427569122572246, 4.489358660173195, -0.44808419681578804, 9.611409620095174, 5.078825045000528, 3.637957626964412, -0.3468729071836532, 6.0348406878462075, -6.813311206857131, 0.6870798212629835, 1.0470267486318676, -1.7334564746782422, -14.7086144355279, -0.6901886021290743, 1.4972431982402294, -5.491403103000681, -5.21559757537464]

>  <energy>  (10) 
-681.3549582184661

>  <inter_energy>  (10) 
-742.0276109974317

>  <intra_energy>  (10) 
55.36518004905697

>  <rmsd>  (10) 
4.71975

>  <sdf_rank>  (10) 
0

$$$$

     RDKit          3D

 67 69  0  0  0  0  0  0  0  0999 V2000
  -19.1332   -7.5508   25.0426 C   0  0  0  0  0  0  0  0  0  0  0  0
  -17.7929   -8.3542   24.7499 C   0  0  0  0  0  0  0  0  0  0  0  0
  -16.5825   -7.4408   25.0273 C   0  0  0  0  0  0  0  0  0  0  0  0
  -15.4581   -7.6652   24.0207 C   0  0  0  0  0  0  0  0  0  0  0  0
  -14.1064   -7.1956   24.5301 C   0  0  1  0  0  0  0  0  0  0  0  0
  -16.2616  -10.6728   27.3552 C   0  0  0  0  0  0  0  0  0  0  0  0
  -16.3079   -9.5338   28.1711 C   0  0  0  0  0  0  0  0  0  0  0  0
  -17.5413   -9.0117   28.5385 C   0  0  0  0  0  0  0  0  0  0  0  0
  -18.7215   -9.6114   28.1125 C   0  0  0  0  0  0  0  0  0  0  0  0
  -18.6844  -10.7481   27.3161 C   0  0  0  0  0  0  0  0  0  0  0  0
  -13.2810   -8.3374   25.0941 C   0  0  0  0  0  0  0  0  0  0  0  0
  -13.4483   -5.9620   21.0542 C   0  0  0  0  0  0  0  0  0  0  0  0
  -13.4541   -6.5955   19.6504 C   0  0  0  0  0  0  0  0  0  0  0  0
  -12.2426   -6.2074   18.7346 C   0  0  0  0  0  0  0  0  0  0  0  0
  -12.5005   -5.3160   17.7214 C   0  0  0  0  0  0  0  0  0  0  0  0
  -11.4893   -4.9214   16.8712 C   0  0  0  0  0  0  0  0  0  0  0  0
  -13.0858  -11.8958   24.6037 C   0  0  0  0  0  0  0  0  0  0  0  0
  -13.0740  -10.7507   25.5933 C   0  0  2  0  0  0  0  0  0  0  0  0
  -13.6760  -11.1777   26.9503 C   0  0  0  0  0  0  0  0  0  0  0  0
  -15.2002  -11.4364   26.8187 C   0  0  0  0  0  0  0  0  0  0  0  0
  -15.8089  -12.4695   26.1081 C   0  0  0  0  0  0  0  0  0  0  0  0
  -17.4355  -11.2784   26.9441 C   0  0  0  0  0  0  0  0  0  0  0  0
  -13.7195   -7.0582   22.1101 C   0  0  1  0  0  0  0  0  0  0  0  0
  -13.0240   -8.3150   21.7117 C   0  0  0  0  0  0  0  0  0  0  0  0
  -10.2067   -5.4342   17.0551 C   0  0  0  0  0  0  0  0  0  0  0  0
   -9.9571   -6.3211   18.0926 C   0  0  0  0  0  0  0  0  0  0  0  0
  -10.9824   -6.7189   18.9227 C   0  0  0  0  0  0  0  0  0  0  0  0
  -17.1213  -12.3478   26.2007 N   0  0  0  0  0  0  0  0  0  0  0  0
  -13.8623   -9.6395   25.0466 N   0  0  0  0  0  0  0  0  0  0  0  0
  -13.2921   -6.6081   23.4499 N   0  0  0  0  0  0  0  0  0  0  0  0
  -13.6426  -11.8330   23.4622 O   0  0  0  0  0  0  0  0  0  0  0  0
  -12.5257  -12.9837   24.9158 O   0  0  0  0  0  0  0  0  0  0  0  0
  -11.8052   -8.3410   21.8653 O   0  0  0  0  0  0  0  0  0  0  0  0
  -13.6161   -9.3107   21.2169 O   0  0  0  0  0  0  0  0  0  0  0  0
  -12.2157   -8.1786   25.6041 O   0  0  0  0  0  0  0  0  0  0  0  0
  -19.2786   -7.4637   26.1295 H   0  0  0  0  0  0  0  0  0  0  0  0
  -19.0625   -6.5461   24.6005 H   0  0  0  0  0  0  0  0  0  0  0  0
  -19.9860   -8.0868   24.6005 H   0  0  0  0  0  0  0  0  0  0  0  0
  -17.7438   -9.2380   25.4029 H   0  0  0  0  0  0  0  0  0  0  0  0
  -17.7783   -8.6773   23.6986 H   0  0  0  0  0  0  0  0  0  0  0  0
  -16.9079   -6.3917   24.9690 H   0  0  0  0  0  0  0  0  0  0  0  0
  -16.1964   -7.6811   26.0289 H   0  0  0  0  0  0  0  0  0  0  0  0
  -15.3953   -8.7407   23.7986 H   0  0  0  0  0  0  0  0  0  0  0  0
  -15.6959   -7.0751   23.1233 H   0  0  0  0  0  0  0  0  0  0  0  0
  -14.3370   -6.4538   25.3089 H   0  0  0  0  0  0  0  0  0  0  0  0
  -15.3777   -9.0590   28.5165 H   0  0  0  0  0  0  0  0  0  0  0  0
  -17.5851   -8.1143   29.1732 H   0  0  0  0  0  0  0  0  0  0  0  0
  -19.6903   -9.1825   28.4083 H   0  0  0  0  0  0  0  0  0  0  0  0
  -19.6167  -11.2264   26.9813 H   0  0  0  0  0  0  0  0  0  0  0  0
  -12.4677   -5.5019   21.2457 H   0  0  0  0  0  0  0  0  0  0  0  0
  -14.2305   -5.1910   21.1140 H   0  0  0  0  0  0  0  0  0  0  0  0
  -13.4522   -7.6888   19.7710 H   0  0  0  0  0  0  0  0  0  0  0  0
  -14.3521   -6.2089   19.1463 H   0  0  0  0  0  0  0  0  0  0  0  0
  -13.5165   -4.9160   17.5882 H   0  0  0  0  0  0  0  0  0  0  0  0
  -11.6927   -4.2101   16.0572 H   0  0  0  0  0  0  0  0  0  0  0  0
  -12.0310  -10.4426   25.7583 H   0  0  0  0  0  0  0  0  0  0  0  0
  -13.1816  -12.0996   27.2902 H   0  0  0  0  0  0  0  0  0  0  0  0
  -13.5168  -10.3679   27.6775 H   0  0  0  0  0  0  0  0  0  0  0  0
  -15.2801  -13.2612   25.5572 H   0  0  0  0  0  0  0  0  0  0  0  0
  -14.8004   -7.2564   22.1598 H   0  0  0  0  0  0  0  0  0  0  0  0
   -9.3926   -5.1361   16.3782 H   0  0  0  0  0  0  0  0  0  0  0  0
   -8.9396   -6.7071   18.2525 H   0  0  0  0  0  0  0  0  0  0  0  0
  -10.7927   -7.4412   19.7304 H   0  0  0  0  0  0  0  0  0  0  0  0
  -17.8044  -12.9834   25.7644 H   0  0  0  0  0  0  0  0  0  0  0  0
  -14.7980   -9.7937   24.6447 H   0  0  0  0  0  0  0  0  0  0  0  0
  -13.3738   -5.5824   23.4954 H   0  0  0  0  0  0  0  0  0  0  0  0
  -12.3193   -6.9173   23.5881 H   0  0  0  0  0  0  0  0  0  0  0  0
  1  2  1  0
  2  3  1  0
  3  4  1  0
  5  4  1  0
  5 11  1  0
  5 30  1  0
  6  7  2  0
  6 20  1  0
  6 22  1  0
  7  8  1  0
  8  9  2  0
  9 10  1  0
 10 22  2  0
 11 29  1  0
 11 35  2  0
 12 13  1  0
 23 12  1  0
 13 14  1  0
 14 15  2  0
 14 27  1  0
 15 16  1  0
 16 25  2  0
 17 18  1  0
 17 31  2  0
 17 32  1  0
 18 19  1  0
 18 29  1  0
 19 20  1  0
 20 21  2  0
 21 28  1  0
 22 28  1  0
 23 24  1  0
 23 30  1  0
 24 33  2  0
 24 34  1  0
 25 26  1  0
 26 27  2  0
  1 36  1  0
  1 37  1  0
  1 38  1  0
  2 39  1  0
  2 40  1  0
  3 41  1  0
  3 42  1  0
  4 43  1  0
  4 44  1  0
  5 45  1  1
  7 46  1  0
  8 47  1  0
  9 48  1  0
 10 49  1  0
 12 50  1  0
 12 51  1  0
 13 52  1  0
 13 53  1  0
 15 54  1  0
 16 55  1  0
 18 56  1  1
 19 57  1  0
 19 58  1  0
 21 59  1  0
 23 60  1  1
 25 61  1  0
 26 62  1  0
 27 63  1  0
 28 64  1  0
 29 65  1  0
 30 66  1  0
 30 67  1  0
M  CHG  3  30   1  32  -1  34  -1
M  END
>  <filename_input>  (11) 
7Q27_8KC_docked.sdf

>  <pdb_id>  (11) 
7Q27_8KC

>  <pose_rank>  (11) 
10

>  <num_atoms_heavy>  (11) 
35

>  <num_torsions>  (11) 
14

>  <pose>  (11) 
[-14.106406726617212, -7.195623985875358, 24.530088378403, 0.8330012269800474, 0.009211237701880174, -0.5455049865386168, 1.1949979732881755, -1.2018223058712438, 0.30179945157560284, 0.05340192797596136, -0.2060409133611367, -3.6183341202777486, 0.48891856941036504, 0.7269496377590251, 3.01764889247342, -0.5817037156344902, 3.2104179516554314, -0.3974012072302817, 1.0122668925683105, 1.4209397270067752]

>  <energy>  (11) 
-764.4923280106412

>  <inter_energy>  (11) 
-783.4283273743861

>  <intra_energy>  (11) 
37.4887339738663

>  <rmsd>  (11) 
3.76304

>  <sdf_rank>  (11) 
0

$$$$

     RDKit          3D

 67 69  0  0  0  0  0  0  0  0999 V2000
  -16.6554   -6.2377   25.8766 C   0  0  0  0  0  0  0  0  0  0  0  0
  -15.1754   -5.6768   26.0270 C   0  0  0  0  0  0  0  0  0  0  0  0
  -14.2062   -6.5851   25.2449 C   0  0  0  0  0  0  0  0  0  0  0  0
  -14.1314   -6.2008   23.7703 C   0  0  0  0  0  0  0  0  0  0  0  0
  -14.0257   -7.4049   22.8504 C   0  0  1  0  0  0  0  0  0  0  0  0
  -16.2863  -11.1448   26.3491 C   0  0  0  0  0  0  0  0  0  0  0  0
  -16.3167   -9.7775   26.6569 C   0  0  0  0  0  0  0  0  0  0  0  0
  -17.0022   -9.3512   27.7871 C   0  0  0  0  0  0  0  0  0  0  0  0
  -17.6467  -10.2655   28.6134 C   0  0  0  0  0  0  0  0  0  0  0  0
  -17.6093  -11.6228   28.3235 C   0  0  0  0  0  0  0  0  0  0  0  0
  -14.3280   -8.7042   23.5739 C   0  0  0  0  0  0  0  0  0  0  0  0
  -12.9705   -7.5369   20.3131 C   0  0  0  0  0  0  0  0  0  0  0  0
  -12.8538   -6.1988   19.5595 C   0  0  0  0  0  0  0  0  0  0  0  0
  -12.0291   -6.2491   18.2275 C   0  0  0  0  0  0  0  0  0  0  0  0
  -10.6649   -6.3517   18.3543 C   0  0  0  0  0  0  0  0  0  0  0  0
   -9.8663   -6.4030   17.2315 C   0  0  0  0  0  0  0  0  0  0  0  0
  -12.4141  -11.8273   24.2057 C   0  0  0  0  0  0  0  0  0  0  0  0
  -13.5063  -10.8314   24.5311 C   0  0  2  0  0  0  0  0  0  0  0  0
  -14.8905  -11.3544   24.0880 C   0  0  0  0  0  0  0  0  0  0  0  0
  -15.6918  -11.8885   25.3047 C   0  0  0  0  0  0  0  0  0  0  0  0
  -16.0024  -13.2203   25.5746 C   0  0  0  0  0  0  0  0  0  0  0  0
  -16.9143  -12.0558   27.1794 C   0  0  0  0  0  0  0  0  0  0  0  0
  -14.4641   -7.8969   20.4860 C   0  0  1  0  0  0  0  0  0  0  0  0
  -14.6257   -9.3783   20.4487 C   0  0  0  0  0  0  0  0  0  0  0  0
  -10.4596   -6.3531   15.9716 C   0  0  0  0  0  0  0  0  0  0  0  0
  -11.8397   -6.2660   15.8584 C   0  0  0  0  0  0  0  0  0  0  0  0
  -12.6225   -6.1981   16.9904 C   0  0  0  0  0  0  0  0  0  0  0  0
  -16.7214  -13.2844   26.6812 N   0  0  0  0  0  0  0  0  0  0  0  0
  -13.2244   -9.5698   23.8353 N   0  0  0  0  0  0  0  0  0  0  0  0
  -14.9949   -7.3291   21.7414 N   0  0  0  0  0  0  0  0  0  0  0  0
  -12.4222  -12.5669   23.1714 O   0  0  0  0  0  0  0  0  0  0  0  0
  -11.4390  -11.9510   24.9985 O   0  0  0  0  0  0  0  0  0  0  0  0
  -13.8291  -10.0007   19.7505 O   0  0  0  0  0  0  0  0  0  0  0  0
  -15.5340   -9.9945   21.0669 O   0  0  0  0  0  0  0  0  0  0  0  0
  -15.4313   -9.0367   23.8780 O   0  0  0  0  0  0  0  0  0  0  0  0
  -17.0885   -6.4019   26.8744 H   0  0  0  0  0  0  0  0  0  0  0  0
  -17.2692   -5.5099   25.3257 H   0  0  0  0  0  0  0  0  0  0  0  0
  -16.6325   -7.1896   25.3257 H   0  0  0  0  0  0  0  0  0  0  0  0
  -15.1270   -4.6543   25.6243 H   0  0  0  0  0  0  0  0  0  0  0  0
  -14.8921   -5.6631   27.0898 H   0  0  0  0  0  0  0  0  0  0  0  0
  -13.2025   -6.4978   25.6865 H   0  0  0  0  0  0  0  0  0  0  0  0
  -14.5794   -7.6178   25.3096 H   0  0  0  0  0  0  0  0  0  0  0  0
  -15.0389   -5.6373   23.5079 H   0  0  0  0  0  0  0  0  0  0  0  0
  -13.2213   -5.5987   23.6318 H   0  0  0  0  0  0  0  0  0  0  0  0
  -12.9897   -7.3914   22.4808 H   0  0  0  0  0  0  0  0  0  0  0  0
  -15.8034   -9.0504   26.0105 H   0  0  0  0  0  0  0  0  0  0  0  0
  -17.0358   -8.2792   28.0312 H   0  0  0  0  0  0  0  0  0  0  0  0
  -18.1894   -9.9112   29.5022 H   0  0  0  0  0  0  0  0  0  0  0  0
  -18.1149  -12.3481   28.9780 H   0  0  0  0  0  0  0  0  0  0  0  0
  -12.4660   -8.3276   19.7385 H   0  0  0  0  0  0  0  0  0  0  0  0
  -12.4965   -7.4458   21.3016 H   0  0  0  0  0  0  0  0  0  0  0  0
  -13.8704   -5.8558   19.3168 H   0  0  0  0  0  0  0  0  0  0  0  0
  -12.3072   -5.5191   20.2298 H   0  0  0  0  0  0  0  0  0  0  0  0
  -10.2086   -6.3931   19.3543 H   0  0  0  0  0  0  0  0  0  0  0  0
   -8.7735   -6.4823   17.3291 H   0  0  0  0  0  0  0  0  0  0  0  0
  -13.5259  -10.6781   25.6202 H   0  0  0  0  0  0  0  0  0  0  0  0
  -15.4526  -10.5341   23.6178 H   0  0  0  0  0  0  0  0  0  0  0  0
  -14.7446  -12.1772   23.3727 H   0  0  0  0  0  0  0  0  0  0  0  0
  -15.6970  -14.0819   24.9628 H   0  0  0  0  0  0  0  0  0  0  0  0
  -15.0420   -7.4603   19.6581 H   0  0  0  0  0  0  0  0  0  0  0  0
   -9.8341   -6.3828   15.0672 H   0  0  0  0  0  0  0  0  0  0  0  0
  -12.3095   -6.2511   14.8639 H   0  0  0  0  0  0  0  0  0  0  0  0
  -13.7150   -6.1037   16.9035 H   0  0  0  0  0  0  0  0  0  0  0  0
  -17.0817  -14.1535   27.1004 H   0  0  0  0  0  0  0  0  0  0  0  0
  -12.2677   -9.3195   23.5472 H   0  0  0  0  0  0  0  0  0  0  0  0
  -15.8424   -7.8506   22.0073 H   0  0  0  0  0  0  0  0  0  0  0  0
  -15.1997   -6.3339   21.5725 H   0  0  0  0  0  0  0  0  0  0  0  0
  1  2  1  0
  2  3  1  0
  3  4  1  0
  5  4  1  0
  5 11  1  0
  5 30  1  0
  6  7  2  0
  6 20  1  0
  6 22  1  0
  7  8  1  0
  8  9  2  0
  9 10  1  0
 10 22  2  0
 11 29  1  0
 11 35  2  0
 12 13  1  0
 23 12  1  0
 13 14  1  0
 14 15  2  0
 14 27  1  0
 15 16  1  0
 16 25  2  0
 17 18  1  0
 17 31  2  0
 17 32  1  0
 18 19  1  0
 18 29  1  0
 19 20  1  0
 20 21  2  0
 21 28  1  0
 22 28  1  0
 23 24  1  0
 23 30  1  0
 24 33  2  0
 24 34  1  0
 25 26  1  0
 26 27  2  0
  1 36  1  0
  1 37  1  0
  1 38  1  0
  2 39  1  0
  2 40  1  0
  3 41  1  0
  3 42  1  0
  4 43  1  0
  4 44  1  0
  5 45  1  6
  7 46  1  0
  8 47  1  0
  9 48  1  0
 10 49  1  0
 12 50  1  0
 12 51  1  0
 13 52  1  0
 13 53  1  0
 15 54  1  0
 16 55  1  0
 18 56  1  1
 19 57  1  0
 19 58  1  0
 21 59  1  0
 23 60  1  6
 25 61  1  0
 26 62  1  0
 27 63  1  0
 28 64  1  0
 29 65  1  0
 30 66  1  0
 30 67  1  0
M  CHG  3  30   1  32  -1  34  -1
M  END
>  <filename_input>  (12) 
7Q27_8KC_docked.sdf

>  <pdb_id>  (12) 
7Q27_8KC

>  <pose_rank>  (12) 
11

>  <num_atoms_heavy>  (12) 
35

>  <num_torsions>  (12) 
14

>  <pose>  (12) 
[-14.025668249080914, -7.404894884399234, 22.85039208159229, 0.37329995809476696, -1.130520265895355, 3.7446146421456232, -0.7042569426385162, 3.835319958960485, -1.2472009880488057, 3.037450349702098, 2.974795372665997, 1.175566412723906, 0.7840288039572295, -1.5910536634356207, -0.3554505601199399, 2.416798779386768, 1.3621516958473618, 1.5065467914236457, 1.1803350183888588, 1.9729839216752163]

>  <energy>  (12) 
-691.3223349955281

>  <inter_energy>  (12) 
-778.7090245474311

>  <intra_energy>  (12) 
100.37497687113974

>  <rmsd>  (12) 
3.85761

>  <sdf_rank>  (12) 
0

$$$$

     RDKit          3D

 67 69  0  0  0  0  0  0  0  0999 V2000
  -10.3930   -6.0344   17.9339 C   0  0  0  0  0  0  0  0  0  0  0  0
  -11.6277   -7.0095   18.1621 C   0  0  0  0  0  0  0  0  0  0  0  0
  -12.1001   -6.8969   19.6251 C   0  0  0  0  0  0  0  0  0  0  0  0
  -13.1944   -7.9095   19.9490 C   0  0  0  0  0  0  0  0  0  0  0  0
  -13.3480   -8.1571   21.4398 C   0  0  1  0  0  0  0  0  0  0  0  0
  -17.1798   -8.5018   26.7979 C   0  0  0  0  0  0  0  0  0  0  0  0
  -18.4864   -8.1192   27.1318 C   0  0  0  0  0  0  0  0  0  0  0  0
  -18.9713   -8.3978   28.4031 C   0  0  0  0  0  0  0  0  0  0  0  0
  -18.1728   -9.0415   29.3422 C   0  0  0  0  0  0  0  0  0  0  0  0
  -16.8727   -9.4110   29.0242 C   0  0  0  0  0  0  0  0  0  0  0  0
  -14.6484   -7.5923   21.9812 C   0  0  0  0  0  0  0  0  0  0  0  0
  -13.3845  -11.3721   23.4938 C   0  0  0  0  0  0  0  0  0  0  0  0
  -14.8906  -11.6941   23.4794 C   0  0  0  0  0  0  0  0  0  0  0  0
  -15.2752  -13.0741   22.8434 C   0  0  0  0  0  0  0  0  0  0  0  0
  -15.7564  -14.0325   23.7022 C   0  0  0  0  0  0  0  0  0  0  0  0
  -16.1187  -15.2735   23.2231 C   0  0  0  0  0  0  0  0  0  0  0  0
  -15.5815   -5.7170   25.0622 C   0  0  0  0  0  0  0  0  0  0  0  0
  -15.8955   -6.5933   23.8688 C   0  0  2  0  0  0  0  0  0  0  0  0
  -16.8266   -7.7614   24.2619 C   0  0  0  0  0  0  0  0  0  0  0  0
  -16.4021   -8.3682   25.6254 C   0  0  0  0  0  0  0  0  0  0  0  0
  -15.1646   -8.9297   25.9353 C   0  0  0  0  0  0  0  0  0  0  0  0
  -16.3802   -9.1283   27.7370 C   0  0  0  0  0  0  0  0  0  0  0  0
  -13.1807   -9.8700   23.1899 C   0  0  1  0  0  0  0  0  0  0  0  0
  -11.8234   -9.4512   23.6418 C   0  0  0  0  0  0  0  0  0  0  0  0
  -15.9940  -15.5402   21.8610 C   0  0  0  0  0  0  0  0  0  0  0  0
  -15.5219  -14.5575   21.0029 C   0  0  0  0  0  0  0  0  0  0  0  0
  -15.1475  -13.3281   21.5001 C   0  0  0  0  0  0  0  0  0  0  0  0
  -15.1846   -9.3674   27.1818 N   0  0  0  0  0  0  0  0  0  0  0  0
  -14.6416   -7.1379   23.3336 N   0  0  0  0  0  0  0  0  0  0  0  0
  -13.3767   -9.5983   21.7518 N   0  0  0  0  0  0  0  0  0  0  0  0
  -14.4154   -5.5888   25.5530 O   0  0  0  0  0  0  0  0  0  0  0  0
  -16.5178   -5.0790   25.6196 O   0  0  0  0  0  0  0  0  0  0  0  0
  -10.8919  -10.1964   23.3477 O   0  0  0  0  0  0  0  0  0  0  0  0
  -11.6051   -8.4079   24.3133 O   0  0  0  0  0  0  0  0  0  0  0  0
  -15.6571   -7.5622   21.3474 O   0  0  0  0  0  0  0  0  0  0  0  0
   -9.9913   -5.7173   18.9076 H   0  0  0  0  0  0  0  0  0  0  0  0
   -9.6100   -6.5605   17.3681 H   0  0  0  0  0  0  0  0  0  0  0  0
  -10.7232   -5.1508   17.3681 H   0  0  0  0  0  0  0  0  0  0  0  0
  -12.4493   -6.7266   17.4876 H   0  0  0  0  0  0  0  0  0  0  0  0
  -11.3240   -8.0454   17.9510 H   0  0  0  0  0  0  0  0  0  0  0  0
  -11.2425   -7.0750   20.2905 H   0  0  0  0  0  0  0  0  0  0  0  0
  -12.5140   -5.8886   19.7731 H   0  0  0  0  0  0  0  0  0  0  0  0
  -14.1497   -7.5318   19.5557 H   0  0  0  0  0  0  0  0  0  0  0  0
  -12.9089   -8.8644   19.4835 H   0  0  0  0  0  0  0  0  0  0  0  0
  -12.4808   -7.6627   21.9019 H   0  0  0  0  0  0  0  0  0  0  0  0
  -19.1204   -7.6040   26.3952 H   0  0  0  0  0  0  0  0  0  0  0  0
  -19.9979   -8.1063   28.6699 H   0  0  0  0  0  0  0  0  0  0  0  0
  -18.5736   -9.2593   30.3432 H   0  0  0  0  0  0  0  0  0  0  0  0
  -16.2380   -9.9166   29.7668 H   0  0  0  0  0  0  0  0  0  0  0  0
  -12.9681  -11.6064   24.4846 H   0  0  0  0  0  0  0  0  0  0  0  0
  -12.8712  -11.9756   22.7307 H   0  0  0  0  0  0  0  0  0  0  0  0
  -15.2493  -11.6876   24.5193 H   0  0  0  0  0  0  0  0  0  0  0  0
  -15.3595  -10.9265   22.8463 H   0  0  0  0  0  0  0  0  0  0  0  0
  -15.8530  -13.8090   24.7749 H   0  0  0  0  0  0  0  0  0  0  0  0
  -16.5018  -16.0443   23.9081 H   0  0  0  0  0  0  0  0  0  0  0  0
  -16.4075   -5.9815   23.1115 H   0  0  0  0  0  0  0  0  0  0  0  0
  -17.8591   -7.3899   24.3380 H   0  0  0  0  0  0  0  0  0  0  0  0
  -16.7573   -8.5429   23.4908 H   0  0  0  0  0  0  0  0  0  0  0  0
  -14.3067   -8.9978   25.2502 H   0  0  0  0  0  0  0  0  0  0  0  0
  -13.9303   -9.2822   23.7400 H   0  0  0  0  0  0  0  0  0  0  0  0
  -16.2697  -16.5293   21.4664 H   0  0  0  0  0  0  0  0  0  0  0  0
  -15.4463  -14.7600   19.9243 H   0  0  0  0  0  0  0  0  0  0  0  0
  -14.7493  -12.5557   20.8257 H   0  0  0  0  0  0  0  0  0  0  0  0
  -14.3949   -9.8263   27.6580 H   0  0  0  0  0  0  0  0  0  0  0  0
  -13.7906   -7.1898   23.9115 H   0  0  0  0  0  0  0  0  0  0  0  0
  -14.2892   -9.9801   21.4649 H   0  0  0  0  0  0  0  0  0  0  0  0
  -12.6016  -10.0444   21.2407 H   0  0  0  0  0  0  0  0  0  0  0  0
  1  2  1  0
  2  3  1  0
  3  4  1  0
  5  4  1  0
  5 11  1  0
  5 30  1  0
  6  7  2  0
  6 20  1  0
  6 22  1  0
  7  8  1  0
  8  9  2  0
  9 10  1  0
 10 22  2  0
 11 29  1  0
 11 35  2  0
 12 13  1  0
 23 12  1  0
 13 14  1  0
 14 15  2  0
 14 27  1  0
 15 16  1  0
 16 25  2  0
 17 18  1  0
 17 31  2  0
 17 32  1  0
 18 19  1  0
 18 29  1  0
 19 20  1  0
 20 21  2  0
 21 28  1  0
 22 28  1  0
 23 24  1  0
 23 30  1  0
 24 33  2  0
 24 34  1  0
 25 26  1  0
 26 27  2  0
  1 36  1  0
  1 37  1  0
  1 38  1  0
  2 39  1  0
  2 40  1  0
  3 41  1  0
  3 42  1  0
  4 43  1  0
  4 44  1  0
  5 45  1  1
  7 46  1  0
  8 47  1  0
  9 48  1  0
 10 49  1  0
 12 50  1  0
 12 51  1  0
 13 52  1  0
 13 53  1  0
 15 54  1  0
 16 55  1  0
 18 56  1  6
 19 57  1  0
 19 58  1  0
 21 59  1  0
 23 60  1  1
 25 61  1  0
 26 62  1  0
 27 63  1  0
 28 64  1  0
 29 65  1  0
 30 66  1  0
 30 67  1  0
M  CHG  3  30   1  32  -1  34  -1
M  END
>  <filename_input>  (13) 
7Q27_8KC_docked.sdf

>  <pdb_id>  (13) 
7Q27_8KC

>  <pose_rank>  (13) 
12

>  <num_atoms_heavy>  (13) 
35

>  <num_torsions>  (13) 
14

>  <pose>  (13) 
[-13.347997027853848, -8.157130740602279, 21.439754969642586, -8.618813316610879e-05, -1.9487611269328324, -1.6575261946500979, -1.4207497040844372, -1.6643797911516793, -6.130652054399063, -5.758178472988073, -2.4214379205481738, 2.8791878592448814, -0.22152337699158017, 0.17034500652458995, 0.0014970477107753158, -0.16559804053047675, 2.700451902959701, 8.029530064593615, -0.5024846610204574, -1.0826425698836555]

>  <energy>  (13) 
-749.0341144339864

>  <inter_energy>  (13) 
-775.782260375809

>  <intra_energy>  (13) 
40.02526701946073

>  <rmsd>  (13) 
6.81709

>  <sdf_rank>  (13) 
0

$$$$

     RDKit          3D

 67 69  0  0  0  0  0  0  0  0999 V2000
  -18.3004   -7.5855   28.1410 C   0  0  0  0  0  0  0  0  0  0  0  0
  -18.8009   -8.0237   26.6970 C   0  0  0  0  0  0  0  0  0  0  0  0
  -18.4336   -6.9271   25.6778 C   0  0  0  0  0  0  0  0  0  0  0  0
  -16.9249   -6.8178   25.4788 C   0  0  0  0  0  0  0  0  0  0  0  0
  -16.3231   -8.0530   24.8312 C   0  0  1  0  0  0  0  0  0  0  0  0
  -12.3947   -6.4290   19.3383 C   0  0  0  0  0  0  0  0  0  0  0  0
  -11.0809   -6.7274   19.7257 C   0  0  0  0  0  0  0  0  0  0  0  0
  -10.0785   -6.7505   18.7647 C   0  0  0  0  0  0  0  0  0  0  0  0
  -10.3657   -6.4737   17.4324 C   0  0  0  0  0  0  0  0  0  0  0  0
  -11.6616   -6.1631   17.0428 C   0  0  0  0  0  0  0  0  0  0  0  0
  -15.1272   -7.7155   23.9600 C   0  0  0  0  0  0  0  0  0  0  0  0
  -15.3314  -11.3792   25.2757 C   0  0  0  0  0  0  0  0  0  0  0  0
  -15.4537  -12.6281   26.1686 C   0  0  0  0  0  0  0  0  0  0  0  0
  -14.7322  -13.9110   25.6297 C   0  0  0  0  0  0  0  0  0  0  0  0
  -14.8976  -14.1927   24.2951 C   0  0  0  0  0  0  0  0  0  0  0  0
  -14.2954  -15.3024   23.7411 C   0  0  0  0  0  0  0  0  0  0  0  0
  -12.5982   -8.5032   22.5853 C   0  0  0  0  0  0  0  0  0  0  0  0
  -13.8642   -8.0890   21.8668 C   0  0  2  0  0  0  0  0  0  0  0  0
  -13.8628   -6.5755   21.5581 C   0  0  0  0  0  0  0  0  0  0  0  0
  -13.6122   -6.3225   20.0479 C   0  0  0  0  0  0  0  0  0  0  0  0
  -14.5666   -5.9688   19.0956 C   0  0  0  0  0  0  0  0  0  0  0  0
  -12.6777   -6.1385   18.0157 C   0  0  0  0  0  0  0  0  0  0  0  0
  -16.4157  -10.3541   25.6804 C   0  0  1  0  0  0  0  0  0  0  0  0
  -17.0838  -10.8060   26.9339 C   0  0  0  0  0  0  0  0  0  0  0  0
  -13.5170  -16.1290   24.5492 C   0  0  0  0  0  0  0  0  0  0  0  0
  -13.3454  -15.8233   25.8916 C   0  0  0  0  0  0  0  0  0  0  0  0
  -13.9682  -14.7202   26.4338 C   0  0  0  0  0  0  0  0  0  0  0  0
  -13.9861   -5.8697   17.9128 N   0  0  0  0  0  0  0  0  0  0  0  0
  -15.0196   -8.4048   22.7156 N   0  0  0  0  0  0  0  0  0  0  0  0
  -15.8276   -9.0090   25.8389 N   0  0  0  0  0  0  0  0  0  0  0  0
  -12.3683   -9.6910   22.9767 O   0  0  0  0  0  0  0  0  0  0  0  0
  -11.7155   -7.6330   22.8264 O   0  0  0  0  0  0  0  0  0  0  0  0
  -18.2090  -11.2850   26.8150 O   0  0  0  0  0  0  0  0  0  0  0  0
  -16.5652  -10.6968   28.0767 O   0  0  0  0  0  0  0  0  0  0  0  0
  -14.2752   -6.9521   24.2941 O   0  0  0  0  0  0  0  0  0  0  0  0
  -18.8937   -8.1049   28.9079 H   0  0  0  0  0  0  0  0  0  0  0  0
  -17.2390   -7.8501   28.2571 H   0  0  0  0  0  0  0  0  0  0  0  0
  -18.4221   -6.4985   28.2571 H   0  0  0  0  0  0  0  0  0  0  0  0
  -18.3163   -8.9688   26.4109 H   0  0  0  0  0  0  0  0  0  0  0  0
  -19.8918   -8.1639   26.7112 H   0  0  0  0  0  0  0  0  0  0  0  0
  -18.9031   -7.1670   24.7125 H   0  0  0  0  0  0  0  0  0  0  0  0
  -18.7967   -5.9644   26.0670 H   0  0  0  0  0  0  0  0  0  0  0  0
  -16.7175   -5.9487   24.8372 H   0  0  0  0  0  0  0  0  0  0  0  0
  -16.4676   -6.7106   26.4735 H   0  0  0  0  0  0  0  0  0  0  0  0
  -17.1375   -8.4863   24.2320 H   0  0  0  0  0  0  0  0  0  0  0  0
  -10.8466   -6.9409   20.7790 H   0  0  0  0  0  0  0  0  0  0  0  0
   -9.0465   -6.9903   19.0604 H   0  0  0  0  0  0  0  0  0  0  0  0
   -9.5612   -6.5009   16.6827 H   0  0  0  0  0  0  0  0  0  0  0  0
  -11.8904   -5.9398   15.9903 H   0  0  0  0  0  0  0  0  0  0  0  0
  -14.3352  -10.9309   25.4053 H   0  0  0  0  0  0  0  0  0  0  0  0
  -15.4684  -11.6643   24.2222 H   0  0  0  0  0  0  0  0  0  0  0  0
  -15.0257  -12.3856   27.1525 H   0  0  0  0  0  0  0  0  0  0  0  0
  -16.5254  -12.8738   26.2023 H   0  0  0  0  0  0  0  0  0  0  0  0
  -15.5121  -13.5311   23.6669 H   0  0  0  0  0  0  0  0  0  0  0  0
  -14.4278  -15.5327   22.6737 H   0  0  0  0  0  0  0  0  0  0  0  0
  -13.9205   -8.6370   20.9147 H   0  0  0  0  0  0  0  0  0  0  0  0
  -14.8372   -6.1491   21.8386 H   0  0  0  0  0  0  0  0  0  0  0  0
  -13.0564   -6.0985   22.1345 H   0  0  0  0  0  0  0  0  0  0  0  0
  -15.6346   -5.7991   19.2970 H   0  0  0  0  0  0  0  0  0  0  0  0
  -17.1714  -10.2900   24.8837 H   0  0  0  0  0  0  0  0  0  0  0  0
  -13.0390  -17.0233   24.1230 H   0  0  0  0  0  0  0  0  0  0  0  0
  -12.7113  -16.4622   26.5238 H   0  0  0  0  0  0  0  0  0  0  0  0
  -13.8542  -14.4896   27.5033 H   0  0  0  0  0  0  0  0  0  0  0  0
  -14.4697   -5.6215   17.0380 H   0  0  0  0  0  0  0  0  0  0  0  0
  -15.7248   -9.0968   22.4242 H   0  0  0  0  0  0  0  0  0  0  0  0
  -14.8042   -9.0832   25.7485 H   0  0  0  0  0  0  0  0  0  0  0  0
  -16.1014   -8.6553   26.7668 H   0  0  0  0  0  0  0  0  0  0  0  0
  1  2  1  0
  2  3  1  0
  3  4  1  0
  5  4  1  0
  5 11  1  0
  5 30  1  0
  6  7  2  0
  6 20  1  0
  6 22  1  0
  7  8  1  0
  8  9  2  0
  9 10  1  0
 10 22  2  0
 11 29  1  0
 11 35  2  0
 12 13  1  0
 23 12  1  0
 13 14  1  0
 14 15  2  0
 14 27  1  0
 15 16  1  0
 16 25  2  0
 17 18  1  0
 17 31  2  0
 17 32  1  0
 18 19  1  0
 18 29  1  0
 19 20  1  0
 20 21  2  0
 21 28  1  0
 22 28  1  0
 23 24  1  0
 23 30  1  0
 24 33  2  0
 24 34  1  0
 25 26  1  0
 26 27  2  0
  1 36  1  0
  1 37  1  0
  1 38  1  0
  2 39  1  0
  2 40  1  0
  3 41  1  0
  3 42  1  0
  4 43  1  0
  4 44  1  0
  5 45  1  6
  7 46  1  0
  8 47  1  0
  9 48  1  0
 10 49  1  0
 12 50  1  0
 12 51  1  0
 13 52  1  0
 13 53  1  0
 15 54  1  0
 16 55  1  0
 18 56  1  6
 19 57  1  0
 19 58  1  0
 21 59  1  0
 23 60  1  6
 25 61  1  0
 26 62  1  0
 27 63  1  0
 28 64  1  0
 29 65  1  0
 30 66  1  0
 30 67  1  0
M  CHG  3  30   1  32  -1  34  -1
M  END
>  <filename_input>  (14) 
7Q27_8KC_docked.sdf

>  <pdb_id>  (14) 
7Q27_8KC

>  <pose_rank>  (14) 
13

>  <num_atoms_heavy>  (14) 
35

>  <num_torsions>  (14) 
14

>  <pose>  (14) 
[-16.323145716144708, -8.052960088317, 24.83120391267553, 3.851511803999996, -0.39556648296621705, 0.1349228958713316, -1.2491714051221992, 2.2254872963659693, 1.2559683935574895, 3.1047962743906563, 0.41457695080117524, 3.5358912682864414, -1.869332374938311, -1.8927576127471568, -0.7118995874512972, -1.2006522987669095, 0.08539123999472024, -0.9093487952144264, -0.1318724918295119, 2.486593740743552]

>  <energy>  (14) 
-676.8144350784902

>  <inter_energy>  (14) 
-749.9195307968384

>  <intra_energy>  (14) 
84.14413843873122

>  <rmsd>  (14) 
9.18397

>  <sdf_rank>  (14) 
0

$$$$

     RDKit          3D

 67 69  0  0  0  0  0  0  0  0999 V2000
  -16.5506   -9.6768   28.3647 C   0  0  0  0  0  0  0  0  0  0  0  0
  -17.5094   -8.5578   27.7679 C   0  0  0  0  0  0  0  0  0  0  0  0
  -17.0289   -8.1792   26.3529 C   0  0  0  0  0  0  0  0  0  0  0  0
  -15.6420   -7.5440   26.3742 C   0  0  0  0  0  0  0  0  0  0  0  0
  -14.7681   -7.9937   25.2161 C   0  0  1  0  0  0  0  0  0  0  0  0
  -14.3692  -14.7005   24.0933 C   0  0  0  0  0  0  0  0  0  0  0  0
  -13.8951  -15.8887   24.6663 C   0  0  0  0  0  0  0  0  0  0  0  0
  -14.0037  -17.0762   23.9542 C   0  0  0  0  0  0  0  0  0  0  0  0
  -14.5678  -17.0928   22.6832 C   0  0  0  0  0  0  0  0  0  0  0  0
  -15.0267  -15.9179   22.1027 C   0  0  0  0  0  0  0  0  0  0  0  0
  -13.7798   -9.0682   25.6304 C   0  0  0  0  0  0  0  0  0  0  0  0
  -13.6782   -7.6328   22.8235 C   0  0  0  0  0  0  0  0  0  0  0  0
  -13.0539   -7.8220   21.4283 C   0  0  0  0  0  0  0  0  0  0  0  0
  -13.2486   -6.6226   20.4382 C   0  0  0  0  0  0  0  0  0  0  0  0
  -12.2252   -6.3858   19.5527 C   0  0  0  0  0  0  0  0  0  0  0  0
  -12.3178   -5.3502   18.6471 C   0  0  0  0  0  0  0  0  0  0  0  0
  -12.1080  -11.5937   24.6561 C   0  0  0  0  0  0  0  0  0  0  0  0
  -13.1774  -11.4652   25.7193 C   0  0  2  0  0  0  0  0  0  0  0  0
  -13.9431  -12.7936   25.9063 C   0  0  0  0  0  0  0  0  0  0  0  0
  -14.4054  -13.3593   24.5374 C   0  0  0  0  0  0  0  0  0  0  0  0
  -14.9796  -12.6380   23.4920 C   0  0  0  0  0  0  0  0  0  0  0  0
  -14.9163  -14.7143   22.8228 C   0  0  0  0  0  0  0  0  0  0  0  0
  -15.1484   -8.1100   22.7939 C   0  0  1  0  0  0  0  0  0  0  0  0
  -15.3041   -9.1765   21.7642 C   0  0  0  0  0  0  0  0  0  0  0  0
  -13.4604   -4.5525   18.6400 C   0  0  0  0  0  0  0  0  0  0  0  0
  -14.4932   -4.8134   19.5291 C   0  0  0  0  0  0  0  0  0  0  0  0
  -14.3776   -5.8412   20.4395 C   0  0  0  0  0  0  0  0  0  0  0  0
  -15.2688  -13.4626   22.5009 N   0  0  0  0  0  0  0  0  0  0  0  0
  -14.1245  -10.4173   25.3193 N   0  0  0  0  0  0  0  0  0  0  0  0
  -15.5690   -8.5843   24.1276 N   0  0  0  0  0  0  0  0  0  0  0  0
  -11.9186  -10.7309   23.7414 O   0  0  0  0  0  0  0  0  0  0  0  0
  -11.3604  -12.6114   24.6561 O   0  0  0  0  0  0  0  0  0  0  0  0
  -16.4527   -9.5306   21.5091 O   0  0  0  0  0  0  0  0  0  0  0  0
  -14.3328   -9.7279   21.1816 O   0  0  0  0  0  0  0  0  0  0  0  0
  -12.7788   -8.8326   26.2325 O   0  0  0  0  0  0  0  0  0  0  0  0
  -16.5828   -9.6393   29.4636 H   0  0  0  0  0  0  0  0  0  0  0  0
  -16.8849  -10.6671   28.0217 H   0  0  0  0  0  0  0  0  0  0  0  0
  -15.5208   -9.4983   28.0217 H   0  0  0  0  0  0  0  0  0  0  0  0
  -18.5379   -8.9444   27.7158 H   0  0  0  0  0  0  0  0  0  0  0  0
  -17.4872   -7.6689   28.4154 H   0  0  0  0  0  0  0  0  0  0  0  0
  -16.9944   -9.0880   25.7341 H   0  0  0  0  0  0  0  0  0  0  0  0
  -17.7344   -7.4439   25.9387 H   0  0  0  0  0  0  0  0  0  0  0  0
  -15.7557   -6.4510   26.3243 H   0  0  0  0  0  0  0  0  0  0  0  0
  -15.1474   -7.8620   27.3039 H   0  0  0  0  0  0  0  0  0  0  0  0
  -14.2455   -7.0847   24.8833 H   0  0  0  0  0  0  0  0  0  0  0  0
  -13.4421  -15.8808   25.6686 H   0  0  0  0  0  0  0  0  0  0  0  0
  -13.6397  -18.0135   24.4003 H   0  0  0  0  0  0  0  0  0  0  0  0
  -14.6509  -18.0424   22.1343 H   0  0  0  0  0  0  0  0  0  0  0  0
  -15.4696  -15.9281   21.0958 H   0  0  0  0  0  0  0  0  0  0  0  0
  -13.1149   -8.2230   23.5613 H   0  0  0  0  0  0  0  0  0  0  0  0
  -13.6413   -6.5694   23.1027 H   0  0  0  0  0  0  0  0  0  0  0  0
  -11.9735   -7.9830   21.5585 H   0  0  0  0  0  0  0  0  0  0  0  0
  -13.5759   -8.6778   20.9753 H   0  0  0  0  0  0  0  0  0  0  0  0
  -11.3295   -7.0242   19.5662 H   0  0  0  0  0  0  0  0  0  0  0  0
  -11.4991   -5.1559   17.9385 H   0  0  0  0  0  0  0  0  0  0  0  0
  -12.6928  -11.2072   26.6725 H   0  0  0  0  0  0  0  0  0  0  0  0
  -13.2824  -13.5252   26.3944 H   0  0  0  0  0  0  0  0  0  0  0  0
  -14.8305  -12.6051   26.5282 H   0  0  0  0  0  0  0  0  0  0  0  0
  -15.1631  -11.5534   23.4921 H   0  0  0  0  0  0  0  0  0  0  0  0
  -15.8000   -7.2655   22.5254 H   0  0  0  0  0  0  0  0  0  0  0  0
  -13.5435   -3.7166   17.9299 H   0  0  0  0  0  0  0  0  0  0  0  0
  -15.4053   -4.1989   19.5071 H   0  0  0  0  0  0  0  0  0  0  0  0
  -15.1842   -6.0343   21.1621 H   0  0  0  0  0  0  0  0  0  0  0  0
  -15.7027  -13.1833   21.6095 H   0  0  0  0  0  0  0  0  0  0  0  0
  -15.0031  -10.6469   24.8332 H   0  0  0  0  0  0  0  0  0  0  0  0
  -15.4671   -9.6087   24.1611 H   0  0  0  0  0  0  0  0  0  0  0  0
  -16.5478   -8.2960   24.2676 H   0  0  0  0  0  0  0  0  0  0  0  0
  1  2  1  0
  2  3  1  0
  3  4  1  0
  5  4  1  0
  5 11  1  0
  5 30  1  0
  6  7  2  0
  6 20  1  0
  6 22  1  0
  7  8  1  0
  8  9  2  0
  9 10  1  0
 10 22  2  0
 11 29  1  0
 11 35  2  0
 12 13  1  0
 23 12  1  0
 13 14  1  0
 14 15  2  0
 14 27  1  0
 15 16  1  0
 16 25  2  0
 17 18  1  0
 17 31  2  0
 17 32  1  0
 18 19  1  0
 18 29  1  0
 19 20  1  0
 20 21  2  0
 21 28  1  0
 22 28  1  0
 23 24  1  0
 23 30  1  0
 24 33  2  0
 24 34  1  0
 25 26  1  0
 26 27  2  0
  1 36  1  0
  1 37  1  0
  1 38  1  0
  2 39  1  0
  2 40  1  0
  3 41  1  0
  3 42  1  0
  4 43  1  0
  4 44  1  0
  5 45  1  6
  7 46  1  0
  8 47  1  0
  9 48  1  0
 10 49  1  0
 12 50  1  0
 12 51  1  0
 13 52  1  0
 13 53  1  0
 15 54  1  0
 16 55  1  0
 18 56  1  1
 19 57  1  0
 19 58  1  0
 21 59  1  0
 23 60  1  6
 25 61  1  0
 26 62  1  0
 27 63  1  0
 28 64  1  0
 29 65  1  0
 30 66  1  0
 30 67  1  0
M  CHG  3  30   1  32  -1  34  -1
M  END
>  <filename_input>  (15) 
7Q27_8KC_docked.sdf

>  <pdb_id>  (15) 
7Q27_8KC

>  <pose_rank>  (15) 
14

>  <num_atoms_heavy>  (15) 
35

>  <num_torsions>  (15) 
14

>  <pose>  (15) 
[-14.768121132313446, -7.993653789269492, 25.21607242967149, -0.42811901631921295, 0.657698004023789, -1.245530097486235, 2.9158973407052575, -0.3590255656313004, 0.4892649174123444, 6.674239057564146, -8.435245721465046, -0.7998632773846248, -0.5661981722852164, -4.188731550685874, 30.9005978187631, 16.078722760261353, -1.076883772446398, 55.98219942957418, 23.691978119340607, -0.4671617182326879]

>  <energy>  (15) 
-523.890354710442

>  <inter_energy>  (15) 
-628.7537281844376

>  <intra_energy>  (15) 
113.3161515867835

>  <rmsd>  (15) 
5.96736

>  <sdf_rank>  (15) 
0

$$$$

     RDKit          3D

 67 69  0  0  0  0  0  0  0  0999 V2000
  -19.0905   -8.0736   28.8557 C   0  0  0  0  0  0  0  0  0  0  0  0
  -19.0408   -7.1134   27.5896 C   0  0  0  0  0  0  0  0  0  0  0  0
  -18.1485   -7.7488   26.5050 C   0  0  0  0  0  0  0  0  0  0  0  0
  -17.5500   -9.0744   26.9656 C   0  0  0  0  0  0  0  0  0  0  0  0
  -16.5718   -9.6614   25.9628 C   0  0  1  0  0  0  0  0  0  0  0  0
  -13.6917   -6.8436   20.8512 C   0  0  0  0  0  0  0  0  0  0  0  0
  -13.5032   -5.4691   20.6504 C   0  0  0  0  0  0  0  0  0  0  0  0
  -13.2235   -5.0019   19.3727 C   0  0  0  0  0  0  0  0  0  0  0  0
  -13.1380   -5.8808   18.2983 C   0  0  0  0  0  0  0  0  0  0  0  0
  -13.3376   -7.2419   18.4862 C   0  0  0  0  0  0  0  0  0  0  0  0
  -15.6011   -8.6206   25.4359 C   0  0  0  0  0  0  0  0  0  0  0  0
  -15.5472  -13.1943   26.6190 C   0  0  0  0  0  0  0  0  0  0  0  0
  -14.5086  -12.8971   25.5212 C   0  0  0  0  0  0  0  0  0  0  0  0
  -14.9439  -13.2801   24.0650 C   0  0  0  0  0  0  0  0  0  0  0  0
  -15.4636  -14.5400   23.8916 C   0  0  0  0  0  0  0  0  0  0  0  0
  -15.8718  -14.9555   22.6419 C   0  0  0  0  0  0  0  0  0  0  0  0
  -12.8133   -7.3404   25.5973 C   0  0  0  0  0  0  0  0  0  0  0  0
  -13.4043   -8.0977   24.4277 C   0  0  2  0  0  0  0  0  0  0  0  0
  -14.1428   -7.1461   23.4607 C   0  0  0  0  0  0  0  0  0  0  0  0
  -13.9857   -7.6233   21.9926 C   0  0  0  0  0  0  0  0  0  0  0  0
  -14.0768   -8.9356   21.5318 C   0  0  0  0  0  0  0  0  0  0  0  0
  -13.6219   -7.7161   19.7800 C   0  0  0  0  0  0  0  0  0  0  0  0
  -16.4820  -11.9737   26.7814 C   0  0  1  0  0  0  0  0  0  0  0  0
  -17.1159  -12.0091   28.1300 C   0  0  0  0  0  0  0  0  0  0  0  0
  -15.7538  -14.0823   21.5622 C   0  0  0  0  0  0  0  0  0  0  0  0
  -15.2423  -12.8071   21.7550 C   0  0  0  0  0  0  0  0  0  0  0  0
  -14.8226  -12.4134   23.0070 C   0  0  0  0  0  0  0  0  0  0  0  0
  -13.8573   -8.9561   20.2290 N   0  0  0  0  0  0  0  0  0  0  0  0
  -14.3525   -9.0965   24.9361 N   0  0  0  0  0  0  0  0  0  0  0  0
  -15.7381  -10.7159   26.5693 N   0  0  0  0  0  0  0  0  0  0  0  0
  -11.7263   -6.6836   25.5327 O   0  0  0  0  0  0  0  0  0  0  0  0
  -13.4135   -7.3591   26.7081 O   0  0  0  0  0  0  0  0  0  0  0  0
  -18.3252  -11.7961   28.1747 O   0  0  0  0  0  0  0  0  0  0  0  0
  -16.4753  -12.2184   29.1943 O   0  0  0  0  0  0  0  0  0  0  0  0
  -15.8222   -7.4501   25.4704 O   0  0  0  0  0  0  0  0  0  0  0  0
  -19.0593   -7.4702   29.7749 H   0  0  0  0  0  0  0  0  0  0  0  0
  -20.0203   -8.6611   28.8341 H   0  0  0  0  0  0  0  0  0  0  0  0
  -18.2264   -8.7539   28.8341 H   0  0  0  0  0  0  0  0  0  0  0  0
  -20.0576   -6.9737   27.1939 H   0  0  0  0  0  0  0  0  0  0  0  0
  -18.6272   -6.1371   27.8827 H   0  0  0  0  0  0  0  0  0  0  0  0
  -18.7549   -7.9261   25.6046 H   0  0  0  0  0  0  0  0  0  0  0  0
  -17.3207   -7.0555   26.2953 H   0  0  0  0  0  0  0  0  0  0  0  0
  -17.0216   -8.9095   27.9162 H   0  0  0  0  0  0  0  0  0  0  0  0
  -18.3783   -9.7898   27.0765 H   0  0  0  0  0  0  0  0  0  0  0  0
  -17.1993  -10.0611   25.1526 H   0  0  0  0  0  0  0  0  0  0  0  0
  -13.5759   -4.7685   21.4952 H   0  0  0  0  0  0  0  0  0  0  0  0
  -13.0680   -3.9253   19.2088 H   0  0  0  0  0  0  0  0  0  0  0  0
  -12.9109   -5.4952   17.2934 H   0  0  0  0  0  0  0  0  0  0  0  0
  -13.2745   -7.9384   17.6371 H   0  0  0  0  0  0  0  0  0  0  0  0
  -16.1402  -14.0762   26.3349 H   0  0  0  0  0  0  0  0  0  0  0  0
  -15.0316  -13.3929   27.5702 H   0  0  0  0  0  0  0  0  0  0  0  0
  -14.2946  -11.8182   25.5392 H   0  0  0  0  0  0  0  0  0  0  0  0
  -13.6347  -13.5240   25.7520 H   0  0  0  0  0  0  0  0  0  0  0  0
  -15.5542  -15.2192   24.7521 H   0  0  0  0  0  0  0  0  0  0  0  0
  -16.2857  -15.9646   22.4987 H   0  0  0  0  0  0  0  0  0  0  0  0
  -12.5856   -8.5844   23.8774 H   0  0  0  0  0  0  0  0  0  0  0  0
  -15.2113   -7.1252   23.7210 H   0  0  0  0  0  0  0  0  0  0  0  0
  -13.7068   -6.1405   23.5535 H   0  0  0  0  0  0  0  0  0  0  0  0
  -14.2966   -9.8154   22.1544 H   0  0  0  0  0  0  0  0  0  0  0  0
  -17.2747  -12.0184   26.0201 H   0  0  0  0  0  0  0  0  0  0  0  0
  -16.0660  -14.4040   20.5577 H   0  0  0  0  0  0  0  0  0  0  0  0
  -15.1718  -12.1095   20.9074 H   0  0  0  0  0  0  0  0  0  0  0  0
  -14.3935  -11.4118   23.1578 H   0  0  0  0  0  0  0  0  0  0  0  0
  -13.8659   -9.8033   19.6432 H   0  0  0  0  0  0  0  0  0  0  0  0
  -14.1253  -10.1011   24.9320 H   0  0  0  0  0  0  0  0  0  0  0  0
  -14.9401  -10.9053   25.9461 H   0  0  0  0  0  0  0  0  0  0  0  0
  -15.4271  -10.3773   27.4910 H   0  0  0  0  0  0  0  0  0  0  0  0
  1  2  1  0
  2  3  1  0
  3  4  1  0
  5  4  1  0
  5 11  1  0
  5 30  1  0
  6  7  2  0
  6 20  1  0
  6 22  1  0
  7  8  1  0
  8  9  2  0
  9 10  1  0
 10 22  2  0
 11 29  1  0
 11 35  2  0
 12 13  1  0
 23 12  1  0
 13 14  1  0
 14 15  2  0
 14 27  1  0
 15 16  1  0
 16 25  2  0
 17 18  1  0
 17 31  2  0
 17 32  1  0
 18 19  1  0
 18 29  1  0
 19 20  1  0
 20 21  2  0
 21 28  1  0
 22 28  1  0
 23 24  1  0
 23 30  1  0
 24 33  2  0
 24 34  1  0
 25 26  1  0
 26 27  2  0
  1 36  1  0
  1 37  1  0
  1 38  1  0
  2 39  1  0
  2 40  1  0
  3 41  1  0
  3 42  1  0
  4 43  1  0
  4 44  1  0
  5 45  1  6
  7 46  1  0
  8 47  1  0
  9 48  1  0
 10 49  1  0
 12 50  1  0
 12 51  1  0
 13 52  1  0
 13 53  1  0
 15 54  1  0
 16 55  1  0
 18 56  1  6
 19 57  1  0
 19 58  1  0
 21 59  1  0
 23 60  1  6
 25 61  1  0
 26 62  1  0
 27 63  1  0
 28 64  1  0
 29 65  1  0
 30 66  1  0
 30 67  1  0
M  CHG  3  30   1  32  -1  34  -1
M  END
>  <filename_input>  (16) 
7Q27_8KC_docked.sdf

>  <pdb_id>  (16) 
7Q27_8KC

>  <pose_rank>  (16) 
15

>  <num_atoms_heavy>  (16) 
35

>  <num_torsions>  (16) 
14

>  <pose>  (16) 
[-16.571813200504806, -9.661407076321742, 25.962813183620973, 4.270655403680372, 0.38669232957237704, -0.16600013398321514, -27.518147140719062, -10.183491483713967, 3.03802314748113, 41.48741106786108, 37.05325931336919, 1.7506883286137467, 0.20690648923775404, 3.1857005748119045, 23.544026662347154, 18.231715678565102, -0.43317385485862947, -16.392335115632477, -10.802272070866785, 2.409648232066571]

>  <energy>  (16) 
-557.9491812818849

>  <inter_energy>  (16) 
-688.0540862343208

>  <intra_energy>  (16) 
124.55687507470681

>  <rmsd>  (16) 
8.51134

>  <sdf_rank>  (16) 
0

$$$$

     RDKit          3D

 67 69  0  0  0  0  0  0  0  0999 V2000
   -8.3940   -1.4499   14.5195 C   0  0  0  0  0  0  0  0  0  0  0  0
   -9.1448   -2.5426   15.3970 C   0  0  0  0  0  0  0  0  0  0  0  0
   -9.3011   -3.8359   14.5730 C   0  0  0  0  0  0  0  0  0  0  0  0
  -10.5120   -4.6507   15.0175 C   0  0  0  0  0  0  0  0  0  0  0  0
  -10.2218   -5.5330   16.2193 C   0  0  1  0  0  0  0  0  0  0  0  0
  -13.9874   -7.5561   22.4241 C   0  0  0  0  0  0  0  0  0  0  0  0
  -13.7396   -6.5948   23.4138 C   0  0  0  0  0  0  0  0  0  0  0  0
  -14.5242   -6.5824   24.5598 C   0  0  0  0  0  0  0  0  0  0  0  0
  -15.5408   -7.5152   24.7342 C   0  0  0  0  0  0  0  0  0  0  0  0
  -15.7835   -8.4796   23.7653 C   0  0  0  0  0  0  0  0  0  0  0  0
  -11.4903   -5.9521   16.9394 C   0  0  0  0  0  0  0  0  0  0  0  0
   -8.8247   -6.9927   13.4566 C   0  0  0  0  0  0  0  0  0  0  0  0
   -7.4621   -7.2233   14.1367 C   0  0  0  0  0  0  0  0  0  0  0  0
   -6.2190   -6.6883   13.3459 C   0  0  0  0  0  0  0  0  0  0  0  0
   -6.0073   -5.3312   13.3813 C   0  0  0  0  0  0  0  0  0  0  0  0
   -4.9352   -4.7793   12.7127 C   0  0  0  0  0  0  0  0  0  0  0  0
  -13.6117   -5.7162   18.8531 C   0  0  0  0  0  0  0  0  0  0  0  0
  -12.5712   -6.8064   18.9931 C   0  0  2  0  0  0  0  0  0  0  0  0
  -12.2333   -7.0701   20.4770 C   0  0  0  0  0  0  0  0  0  0  0  0
  -13.3870   -7.8370   21.1760 C   0  0  0  0  0  0  0  0  0  0  0  0
  -14.0728   -8.9421   20.6749 C   0  0  0  0  0  0  0  0  0  0  0  0
  -14.9886   -8.4936   22.6045 C   0  0  0  0  0  0  0  0  0  0  0  0
   -9.9554   -7.2447   14.4804 C   0  0  1  0  0  0  0  0  0  0  0  0
  -10.3095   -8.6927   14.4835 C   0  0  0  0  0  0  0  0  0  0  0  0
   -4.0707   -5.6137   12.0067 C   0  0  0  0  0  0  0  0  0  0  0  0
   -4.2874   -6.9841   11.9932 C   0  0  0  0  0  0  0  0  0  0  0  0
   -5.3734   -7.5181   12.6519 C   0  0  0  0  0  0  0  0  0  0  0  0
  -15.0071   -9.3027   21.5369 N   0  0  0  0  0  0  0  0  0  0  0  0
  -11.3509   -6.3947   18.2885 N   0  0  0  0  0  0  0  0  0  0  0  0
   -9.5523   -6.7865   15.8250 N   0  0  0  0  0  0  0  0  0  0  0  0
  -13.5633   -4.6129   19.4835 O   0  0  0  0  0  0  0  0  0  0  0  0
  -14.5934   -5.8990   18.0803 O   0  0  0  0  0  0  0  0  0  0  0  0
   -9.7413   -9.3992   13.6542 O   0  0  0  0  0  0  0  0  0  0  0  0
  -11.1598   -9.1990   15.2628 O   0  0  0  0  0  0  0  0  0  0  0  0
  -12.5598   -5.9690   16.4141 O   0  0  0  0  0  0  0  0  0  0  0  0
   -7.8967   -0.7261   15.1819 H   0  0  0  0  0  0  0  0  0  0  0  0
   -7.6428   -1.9425   13.8847 H   0  0  0  0  0  0  0  0  0  0  0  0
   -9.1232   -0.9252   13.8847 H   0  0  0  0  0  0  0  0  0  0  0  0
   -8.5582   -2.7527   16.3035 H   0  0  0  0  0  0  0  0  0  0  0  0
  -10.1375   -2.1662   15.6852 H   0  0  0  0  0  0  0  0  0  0  0  0
   -9.4215   -3.5696   13.5125 H   0  0  0  0  0  0  0  0  0  0  0  0
   -8.4016   -4.4497   14.7280 H   0  0  0  0  0  0  0  0  0  0  0  0
  -11.3248   -3.9573   15.2792 H   0  0  0  0  0  0  0  0  0  0  0  0
  -10.7901   -5.3109   14.1828 H   0  0  0  0  0  0  0  0  0  0  0  0
   -9.5808   -4.9231   16.8729 H   0  0  0  0  0  0  0  0  0  0  0  0
  -12.9327   -5.8585   23.2843 H   0  0  0  0  0  0  0  0  0  0  0  0
  -14.3396   -5.8268   25.3376 H   0  0  0  0  0  0  0  0  0  0  0  0
  -16.1565   -7.4888   25.6454 H   0  0  0  0  0  0  0  0  0  0  0  0
  -16.5844   -9.2209   23.9030 H   0  0  0  0  0  0  0  0  0  0  0  0
   -8.8829   -5.9564   13.0924 H   0  0  0  0  0  0  0  0  0  0  0  0
   -8.9349   -7.6839   12.6081 H   0  0  0  0  0  0  0  0  0  0  0  0
   -7.4824   -6.7235   15.1163 H   0  0  0  0  0  0  0  0  0  0  0  0
   -7.3351   -8.3141   14.2006 H   0  0  0  0  0  0  0  0  0  0  0  0
   -6.6951   -4.6833   13.9444 H   0  0  0  0  0  0  0  0  0  0  0  0
   -4.7641   -3.6929   12.7364 H   0  0  0  0  0  0  0  0  0  0  0  0
  -12.9760   -7.7329   18.5597 H   0  0  0  0  0  0  0  0  0  0  0  0
  -11.3132   -7.6701   20.5365 H   0  0  0  0  0  0  0  0  0  0  0  0
  -12.0933   -6.1042   20.9843 H   0  0  0  0  0  0  0  0  0  0  0  0
  -13.8685   -9.4362   19.7136 H   0  0  0  0  0  0  0  0  0  0  0  0
  -10.8451   -6.6668   14.1898 H   0  0  0  0  0  0  0  0  0  0  0  0
   -3.2171   -5.1861   11.4604 H   0  0  0  0  0  0  0  0  0  0  0  0
   -3.5912   -7.6450   11.4560 H   0  0  0  0  0  0  0  0  0  0  0  0
   -5.5617   -8.6014   12.6220 H   0  0  0  0  0  0  0  0  0  0  0  0
  -15.6561  -10.0919   21.4067 H   0  0  0  0  0  0  0  0  0  0  0  0
  -10.4305   -6.4243   18.7498 H   0  0  0  0  0  0  0  0  0  0  0  0
   -8.5339   -6.6327   15.8299 H   0  0  0  0  0  0  0  0  0  0  0  0
   -9.8289   -7.5143   16.4994 H   0  0  0  0  0  0  0  0  0  0  0  0
  1  2  1  0
  2  3  1  0
  3  4  1  0
  5  4  1  0
  5 11  1  0
  5 30  1  0
  6  7  2  0
  6 20  1  0
  6 22  1  0
  7  8  1  0
  8  9  2  0
  9 10  1  0
 10 22  2  0
 11 29  1  0
 11 35  2  0
 12 13  1  0
 23 12  1  0
 13 14  1  0
 14 15  2  0
 14 27  1  0
 15 16  1  0
 16 25  2  0
 17 18  1  0
 17 31  2  0
 17 32  1  0
 18 19  1  0
 18 29  1  0
 19 20  1  0
 20 21  2  0
 21 28  1  0
 22 28  1  0
 23 24  1  0
 23 30  1  0
 24 33  2  0
 24 34  1  0
 25 26  1  0
 26 27  2  0
  1 36  1  0
  1 37  1  0
  1 38  1  0
  2 39  1  0
  2 40  1  0
  3 41  1  0
  3 42  1  0
  4 43  1  0
  4 44  1  0
  5 45  1  1
  7 46  1  0
  8 47  1  0
  9 48  1  0
 10 49  1  0
 12 50  1  0
 12 51  1  0
 13 52  1  0
 13 53  1  0
 15 54  1  0
 16 55  1  0
 18 56  1  6
 19 57  1  0
 19 58  1  0
 21 59  1  0
 23 60  1  6
 25 61  1  0
 26 62  1  0
 27 63  1  0
 28 64  1  0
 29 65  1  0
 30 66  1  0
 30 67  1  0
M  CHG  3  30   1  32  -1  34  -1
M  END
>  <filename_input>  (17) 
7Q27_8KC_docked.sdf

>  <pdb_id>  (17) 
7Q27_8KC

>  <pose_rank>  (17) 
16

>  <num_atoms_heavy>  (17) 
35

>  <num_torsions>  (17) 
14

>  <pose>  (17) 
[-10.221792571497096, -5.533014041785865, 16.21934267649196, -0.9861143479517803, 2.424526549591109, 3.153003095363529, -1.615712077929818, 0.21675359375980907, -1.0500739141048956, -3.7423714192453494, -0.5994730955861101, -2.535299721711027, 1.8079376545795047, 0.5441457181652165, -3.4320893339266627, -1.3436926162276825, 1.8281725107410365, -2.5839632047087187, 0.41255108387477235, -1.6901413323090573]

>  <energy>  (17) 
-616.4051706056623

>  <inter_energy>  (17) 
-693.170901975041

>  <intra_energy>  (17) 
68.66020843691788

>  <rmsd>  (17) 
6.77619

>  <sdf_rank>  (17) 
0

$$$$

     RDKit          3D

 67 69  0  0  0  0  0  0  0  0999 V2000
  -16.2874   -5.7582   25.8979 C   0  0  0  0  0  0  0  0  0  0  0  0
  -16.8588   -6.8616   26.8897 C   0  0  0  0  0  0  0  0  0  0  0  0
  -16.9091   -8.2202   26.1632 C   0  0  0  0  0  0  0  0  0  0  0  0
  -17.2088   -8.0592   24.6760 C   0  0  0  0  0  0  0  0  0  0  0  0
  -16.0885   -8.5731   23.7883 C   0  0  1  0  0  0  0  0  0  0  0  0
  -14.0300  -13.0962   24.5996 C   0  0  0  0  0  0  0  0  0  0  0  0
  -14.7460  -13.1943   23.3984 C   0  0  0  0  0  0  0  0  0  0  0  0
  -15.7315  -14.1649   23.2728 C   0  0  0  0  0  0  0  0  0  0  0  0
  -16.0160  -15.0280   24.3255 C   0  0  0  0  0  0  0  0  0  0  0  0
  -15.3214  -14.9282   25.5235 C   0  0  0  0  0  0  0  0  0  0  0  0
  -14.9814   -9.2320   24.5903 C   0  0  0  0  0  0  0  0  0  0  0  0
  -15.1999   -8.1204   21.3941 C   0  0  0  0  0  0  0  0  0  0  0  0
  -13.8192   -8.4192   20.7804 C   0  0  0  0  0  0  0  0  0  0  0  0
  -13.4360   -7.5476   19.5353 C   0  0  0  0  0  0  0  0  0  0  0  0
  -14.4753   -6.9643   18.8517 C   0  0  0  0  0  0  0  0  0  0  0  0
  -14.2242   -6.1809   17.7452 C   0  0  0  0  0  0  0  0  0  0  0  0
  -11.3520   -8.8440   24.8174 C   0  0  0  0  0  0  0  0  0  0  0  0
  -12.5745   -9.7354   24.8540 C   0  0  2  0  0  0  0  0  0  0  0  0
  -12.2739  -11.1227   24.2452 C   0  0  0  0  0  0  0  0  0  0  0  0
  -12.9955  -12.2414   25.0424 C   0  0  0  0  0  0  0  0  0  0  0  0
  -12.7264  -12.6328   26.3529 C   0  0  0  0  0  0  0  0  0  0  0  0
  -14.3236  -13.9447   25.6521 C   0  0  0  0  0  0  0  0  0  0  0  0
  -16.0106   -9.4332   21.4907 C   0  0  1  0  0  0  0  0  0  0  0  0
  -15.1406  -10.5835   21.1139 C   0  0  0  0  0  0  0  0  0  0  0  0
  -12.9071   -5.9867   17.3337 C   0  0  0  0  0  0  0  0  0  0  0  0
  -11.8664   -6.5685   18.0433 C   0  0  0  0  0  0  0  0  0  0  0  0
  -12.1352   -7.3629   19.1365 C   0  0  0  0  0  0  0  0  0  0  0  0
  -13.5223  -13.6353   26.6803 N   0  0  0  0  0  0  0  0  0  0  0  0
  -13.6528   -9.0982   24.0881 N   0  0  0  0  0  0  0  0  0  0  0  0
  -16.5686   -9.6023   22.8473 N   0  0  0  0  0  0  0  0  0  0  0  0
  -10.2266   -9.1733   25.3093 O   0  0  0  0  0  0  0  0  0  0  0  0
  -11.4385   -7.7036   24.2820 O   0  0  0  0  0  0  0  0  0  0  0  0
  -15.6985  -11.5479   20.5958 O   0  0  0  0  0  0  0  0  0  0  0  0
  -13.8986  -10.6134   21.3218 O   0  0  0  0  0  0  0  0  0  0  0  0
  -15.1860   -9.8792   25.5698 O   0  0  0  0  0  0  0  0  0  0  0  0
  -15.8582   -4.9292   26.4798 H   0  0  0  0  0  0  0  0  0  0  0  0
  -15.5068   -6.2039   25.2639 H   0  0  0  0  0  0  0  0  0  0  0  0
  -17.1020   -5.3780   25.2639 H   0  0  0  0  0  0  0  0  0  0  0  0
  -16.2038   -6.9394   27.7700 H   0  0  0  0  0  0  0  0  0  0  0  0
  -17.8712   -6.5783   27.2134 H   0  0  0  0  0  0  0  0  0  0  0  0
  -15.9365   -8.7211   26.2778 H   0  0  0  0  0  0  0  0  0  0  0  0
  -17.7174   -8.8167   26.6113 H   0  0  0  0  0  0  0  0  0  0  0  0
  -18.1272   -8.6171   24.4406 H   0  0  0  0  0  0  0  0  0  0  0  0
  -17.3211   -6.9833   24.4764 H   0  0  0  0  0  0  0  0  0  0  0  0
  -15.7154   -7.6851   23.2570 H   0  0  0  0  0  0  0  0  0  0  0  0
  -14.5297  -12.5101   22.5646 H   0  0  0  0  0  0  0  0  0  0  0  0
  -16.2928  -14.2518   22.3308 H   0  0  0  0  0  0  0  0  0  0  0  0
  -16.7962  -15.7945   24.2082 H   0  0  0  0  0  0  0  0  0  0  0  0
  -15.5476  -15.6072   26.3588 H   0  0  0  0  0  0  0  0  0  0  0  0
  -15.0706   -7.6935   22.3995 H   0  0  0  0  0  0  0  0  0  0  0  0
  -15.7377   -7.4009   20.7591 H   0  0  0  0  0  0  0  0  0  0  0  0
  -13.0589   -8.2537   21.5579 H   0  0  0  0  0  0  0  0  0  0  0  0
  -13.8645   -9.4581   20.4217 H   0  0  0  0  0  0  0  0  0  0  0  0
  -15.5106   -7.1228   19.1880 H   0  0  0  0  0  0  0  0  0  0  0  0
  -15.0539   -5.7146   17.1937 H   0  0  0  0  0  0  0  0  0  0  0  0
  -12.8736   -9.8747   25.9034 H   0  0  0  0  0  0  0  0  0  0  0  0
  -12.6214  -11.1418   23.2017 H   0  0  0  0  0  0  0  0  0  0  0  0
  -11.1893  -11.3005   24.2903 H   0  0  0  0  0  0  0  0  0  0  0  0
  -11.9707  -12.1787   27.0107 H   0  0  0  0  0  0  0  0  0  0  0  0
  -16.8579   -9.3903   20.7904 H   0  0  0  0  0  0  0  0  0  0  0  0
  -12.6926   -5.3724   16.4467 H   0  0  0  0  0  0  0  0  0  0  0  0
  -10.8254   -6.3953   17.7327 H   0  0  0  0  0  0  0  0  0  0  0  0
  -11.3136   -7.8458   19.6858 H   0  0  0  0  0  0  0  0  0  0  0  0
  -13.5262  -14.1105   27.5941 H   0  0  0  0  0  0  0  0  0  0  0  0
  -13.4577   -8.5753   23.2224 H   0  0  0  0  0  0  0  0  0  0  0  0
  -16.2948  -10.5290   23.2038 H   0  0  0  0  0  0  0  0  0  0  0  0
  -17.5921   -9.5100   22.7783 H   0  0  0  0  0  0  0  0  0  0  0  0
  1  2  1  0
  2  3  1  0
  3  4  1  0
  5  4  1  0
  5 11  1  0
  5 30  1  0
  6  7  2  0
  6 20  1  0
  6 22  1  0
  7  8  1  0
  8  9  2  0
  9 10  1  0
 10 22  2  0
 11 29  1  0
 11 35  2  0
 12 13  1  0
 23 12  1  0
 13 14  1  0
 14 15  2  0
 14 27  1  0
 15 16  1  0
 16 25  2  0
 17 18  1  0
 17 31  2  0
 17 32  1  0
 18 19  1  0
 18 29  1  0
 19 20  1  0
 20 21  2  0
 21 28  1  0
 22 28  1  0
 23 24  1  0
 23 30  1  0
 24 33  2  0
 24 34  1  0
 25 26  1  0
 26 27  2  0
  1 36  1  0
  1 37  1  0
  1 38  1  0
  2 39  1  0
  2 40  1  0
  3 41  1  0
  3 42  1  0
  4 43  1  0
  4 44  1  0
  5 45  1  6
  7 46  1  0
  8 47  1  0
  9 48  1  0
 10 49  1  0
 12 50  1  0
 12 51  1  0
 13 52  1  0
 13 53  1  0
 15 54  1  0
 16 55  1  0
 18 56  1  1
 19 57  1  0
 19 58  1  0
 21 59  1  0
 23 60  1  6
 25 61  1  0
 26 62  1  0
 27 63  1  0
 28 64  1  0
 29 65  1  0
 30 66  1  0
 30 67  1  0
M  CHG  3  30   1  32  -1  34  -1
M  END
>  <filename_input>  (18) 
7Q27_8KC_docked.sdf

>  <pdb_id>  (18) 
7Q27_8KC

>  <pose_rank>  (18) 
17

>  <num_atoms_heavy>  (18) 
35

>  <num_torsions>  (18) 
14

>  <pose>  (18) 
[-16.088547734463926, -8.573077248711469, 23.78826714800297, 2.3296393389025516, -1.1462665599989754, 4.205163289663628, 4.901164126695131, 11.187074958863018, -2.806235351712761, 3.7249327375939205, -2.5605648935821597, 7.318917784894456, -0.95809919617169, -3.6491008801753027, 5.800980509446108, 2.979034181277591, -6.991457670630615, -26.080382267228106, -0.7604500973877428, -3.395456040659345]

>  <energy>  (18) 
-581.713991565446

>  <inter_energy>  (18) 
-705.4584770325735

>  <intra_energy>  (18) 
125.01470684075375

>  <rmsd>  (18) 
5.11988

>  <sdf_rank>  (18) 
0

$$$$

     RDKit          3D

 67 69  0  0  0  0  0  0  0  0999 V2000
  -14.9209  -17.2712   23.9697 C   0  0  0  0  0  0  0  0  0  0  0  0
  -14.2823  -16.0982   24.8322 C   0  0  0  0  0  0  0  0  0  0  0  0
  -14.5305  -14.7527   24.1221 C   0  0  0  0  0  0  0  0  0  0  0  0
  -13.4330  -13.7376   24.4271 C   0  0  0  0  0  0  0  0  0  0  0  0
  -13.8427  -12.3104   24.1072 C   0  0  1  0  0  0  0  0  0  0  0  0
  -12.6815   -7.2936   21.2344 C   0  0  0  0  0  0  0  0  0  0  0  0
  -11.7940   -7.4943   20.1680 C   0  0  0  0  0  0  0  0  0  0  0  0
  -12.1521   -7.0645   18.8968 C   0  0  0  0  0  0  0  0  0  0  0  0
  -13.3722   -6.4340   18.6780 C   0  0  0  0  0  0  0  0  0  0  0  0
  -14.2507   -6.2185   19.7314 C   0  0  0  0  0  0  0  0  0  0  0  0
  -12.7504  -11.3132   24.4475 C   0  0  0  0  0  0  0  0  0  0  0  0
  -16.0323  -10.9745   23.7472 C   0  0  0  0  0  0  0  0  0  0  0  0
  -16.1489   -9.4390   23.7714 C   0  0  0  0  0  0  0  0  0  0  0  0
  -16.8820   -8.8418   25.0215 C   0  0  0  0  0  0  0  0  0  0  0  0
  -17.5213   -9.7380   25.8437 C   0  0  0  0  0  0  0  0  0  0  0  0
  -18.1892   -9.2950   26.9656 C   0  0  0  0  0  0  0  0  0  0  0  0
  -12.6189   -7.8903   25.5938 C   0  0  0  0  0  0  0  0  0  0  0  0
  -12.0400   -8.9567   24.6891 C   0  0  2  0  0  0  0  0  0  0  0  0
  -11.4977   -8.3448   23.3787 C   0  0  0  0  0  0  0  0  0  0  0  0
  -12.6228   -7.5995   22.6129 C   0  0  0  0  0  0  0  0  0  0  0  0
  -13.8144   -7.1166   23.1510 C   0  0  0  0  0  0  0  0  0  0  0  0
  -13.8885   -6.6526   21.0197 C   0  0  0  0  0  0  0  0  0  0  0  0
  -15.3810  -11.4162   22.4164 C   0  0  1  0  0  0  0  0  0  0  0  0
  -15.1677  -10.2238   21.5477 C   0  0  0  0  0  0  0  0  0  0  0  0
  -18.2039   -7.9319   27.2549 C   0  0  0  0  0  0  0  0  0  0  0  0
  -17.5402   -7.0400   26.4247 C   0  0  0  0  0  0  0  0  0  0  0  0
  -16.8921   -7.4969   25.2978 C   0  0  0  0  0  0  0  0  0  0  0  0
  -14.5356   -6.5674   22.1897 N   0  0  0  0  0  0  0  0  0  0  0  0
  -13.0904   -9.9301   24.3660 N   0  0  0  0  0  0  0  0  0  0  0  0
  -14.1141  -12.1317   22.6687 N   0  0  0  0  0  0  0  0  0  0  0  0
  -13.6918   -8.0397   26.2597 O   0  0  0  0  0  0  0  0  0  0  0  0
  -12.0227   -6.7820   25.6972 O   0  0  0  0  0  0  0  0  0  0  0  0
  -16.0638   -9.3832   21.5383 O   0  0  0  0  0  0  0  0  0  0  0  0
  -14.1471  -10.0619   20.8272 O   0  0  0  0  0  0  0  0  0  0  0  0
  -11.6378  -11.6381   24.7248 O   0  0  0  0  0  0  0  0  0  0  0  0
  -15.3372  -18.0359   24.6421 H   0  0  0  0  0  0  0  0  0  0  0  0
  -15.7225  -16.8653   23.3352 H   0  0  0  0  0  0  0  0  0  0  0  0
  -14.1449  -17.7242   23.3352 H   0  0  0  0  0  0  0  0  0  0  0  0
  -14.7474  -16.0793   25.8288 H   0  0  0  0  0  0  0  0  0  0  0  0
  -13.2003  -16.2653   24.9388 H   0  0  0  0  0  0  0  0  0  0  0  0
  -14.5641  -14.9246   23.0361 H   0  0  0  0  0  0  0  0  0  0  0  0
  -15.4839  -14.3445   24.4886 H   0  0  0  0  0  0  0  0  0  0  0  0
  -13.1846  -13.8002   25.4968 H   0  0  0  0  0  0  0  0  0  0  0  0
  -12.5698  -13.9837   23.7913 H   0  0  0  0  0  0  0  0  0  0  0  0
  -14.7435  -12.1298   24.7120 H   0  0  0  0  0  0  0  0  0  0  0  0
  -10.8249   -7.9866   20.3362 H   0  0  0  0  0  0  0  0  0  0  0  0
  -11.4634   -7.2246   18.0541 H   0  0  0  0  0  0  0  0  0  0  0  0
  -13.6429   -6.1039   17.6642 H   0  0  0  0  0  0  0  0  0  0  0  0
  -15.2145   -5.7163   19.5613 H   0  0  0  0  0  0  0  0  0  0  0  0
  -15.4096  -11.3092   24.5900 H   0  0  0  0  0  0  0  0  0  0  0  0
  -17.0335  -11.4217   23.8338 H   0  0  0  0  0  0  0  0  0  0  0  0
  -15.1320   -9.0206   23.7420 H   0  0  0  0  0  0  0  0  0  0  0  0
  -16.7631   -9.1671   22.9003 H   0  0  0  0  0  0  0  0  0  0  0  0
  -17.5001  -10.8118   25.6062 H   0  0  0  0  0  0  0  0  0  0  0  0
  -18.7045  -10.0092   27.6246 H   0  0  0  0  0  0  0  0  0  0  0  0
  -11.2063   -9.4454   25.2147 H   0  0  0  0  0  0  0  0  0  0  0  0
  -10.6926   -7.6346   23.6182 H   0  0  0  0  0  0  0  0  0  0  0  0
  -11.1151   -9.1562   22.7421 H   0  0  0  0  0  0  0  0  0  0  0  0
  -14.1082   -7.1824   24.2090 H   0  0  0  0  0  0  0  0  0  0  0  0
  -16.0536  -12.1135   21.8957 H   0  0  0  0  0  0  0  0  0  0  0  0
  -18.7414   -7.5632   28.1410 H   0  0  0  0  0  0  0  0  0  0  0  0
  -17.5315   -5.9669   26.6664 H   0  0  0  0  0  0  0  0  0  0  0  0
  -16.3865   -6.7893   24.6244 H   0  0  0  0  0  0  0  0  0  0  0  0
  -15.4616   -6.1359   22.3209 H   0  0  0  0  0  0  0  0  0  0  0  0
  -14.0356   -9.6264   24.0914 H   0  0  0  0  0  0  0  0  0  0  0  0
  -13.3418  -11.5929   22.2513 H   0  0  0  0  0  0  0  0  0  0  0  0
  -14.1944  -13.0679   22.2469 H   0  0  0  0  0  0  0  0  0  0  0  0
  1  2  1  0
  2  3  1  0
  3  4  1  0
  5  4  1  0
  5 11  1  0
  5 30  1  0
  6  7  2  0
  6 20  1  0
  6 22  1  0
  7  8  1  0
  8  9  2  0
  9 10  1  0
 10 22  2  0
 11 29  1  0
 11 35  2  0
 12 13  1  0
 23 12  1  0
 13 14  1  0
 14 15  2  0
 14 27  1  0
 15 16  1  0
 16 25  2  0
 17 18  1  0
 17 31  2  0
 17 32  1  0
 18 19  1  0
 18 29  1  0
 19 20  1  0
 20 21  2  0
 21 28  1  0
 22 28  1  0
 23 24  1  0
 23 30  1  0
 24 33  2  0
 24 34  1  0
 25 26  1  0
 26 27  2  0
  1 36  1  0
  1 37  1  0
  1 38  1  0
  2 39  1  0
  2 40  1  0
  3 41  1  0
  3 42  1  0
  4 43  1  0
  4 44  1  0
  5 45  1  1
  7 46  1  0
  8 47  1  0
  9 48  1  0
 10 49  1  0
 12 50  1  0
 12 51  1  0
 13 52  1  0
 13 53  1  0
 15 54  1  0
 16 55  1  0
 18 56  1  1
 19 57  1  0
 19 58  1  0
 21 59  1  0
 23 60  1  6
 25 61  1  0
 26 62  1  0
 27 63  1  0
 28 64  1  0
 29 65  1  0
 30 66  1  0
 30 67  1  0
M  CHG  3  30   1  32  -1  34  -1
M  END
>  <filename_input>  (19) 
7Q27_8KC_docked.sdf

>  <pdb_id>  (19) 
7Q27_8KC

>  <pose_rank>  (19) 
18

>  <num_atoms_heavy>  (19) 
35

>  <num_torsions>  (19) 
14

>  <pose>  (19) 
[-13.842651426828152, -12.310385520494332, 24.10723204001598, -0.29665429665857507, -3.355608589411274, -4.132196324873448, -1.8139452411194197, -13.8088509788592, 6.852724373908679, 6.505075436766134, -1.0243758906167917, -14.7781141902974, -12.142313388040037, -5.70420182633075, -19.421469909951586, -34.54548973734344, 1.2077633368777778, 17.713229051861894, -6.181300852353785, -3.196236834189372]

>  <energy>  (19) 
-606.1735104909844

>  <inter_energy>  (19) 
-753.7078308535799

>  <intra_energy>  (19) 
152.47605962731842

>  <rmsd>  (19) 
7.5563

>  <sdf_rank>  (19) 
0

$$$$

     RDKit          3D

 67 69  0  0  0  0  0  0  0  0999 V2000
  -11.4338   -7.5001   17.0838 C   0  0  0  0  0  0  0  0  0  0  0  0
  -12.4033   -6.8371   18.1553 C   0  0  0  0  0  0  0  0  0  0  0  0
  -13.1507   -7.9477   18.9197 C   0  0  0  0  0  0  0  0  0  0  0  0
  -12.6312   -8.1053   20.3455 C   0  0  0  0  0  0  0  0  0  0  0  0
  -13.7293   -8.4367   21.3413 C   0  0  1  0  0  0  0  0  0  0  0  0
  -15.6627  -14.7389   24.1772 C   0  0  0  0  0  0  0  0  0  0  0  0
  -15.1559  -15.6431   23.2335 C   0  0  0  0  0  0  0  0  0  0  0  0
  -15.7545  -16.8890   23.0974 C   0  0  0  0  0  0  0  0  0  0  0  0
  -16.8498  -17.2395   23.8793 C   0  0  0  0  0  0  0  0  0  0  0  0
  -17.3669  -16.3443   24.8062 C   0  0  0  0  0  0  0  0  0  0  0  0
  -14.0698   -9.9156   21.3442 C   0  0  0  0  0  0  0  0  0  0  0  0
  -13.7172   -6.6437   24.6878 C   0  0  0  0  0  0  0  0  0  0  0  0
  -13.9232   -7.5680   25.9024 C   0  0  0  0  0  0  0  0  0  0  0  0
  -15.4102   -7.9665   26.1973 C   0  0  0  0  0  0  0  0  0  0  0  0
  -16.3225   -6.9402   26.2436 C   0  0  0  0  0  0  0  0  0  0  0  0
  -17.6517   -7.2054   26.4964 C   0  0  0  0  0  0  0  0  0  0  0  0
  -15.8996  -12.1740   22.2857 C   0  0  0  0  0  0  0  0  0  0  0  0
  -14.4356  -11.9980   22.6271 C   0  0  2  0  0  0  0  0  0  0  0  0
  -14.1132  -12.5757   24.0229 C   0  0  0  0  0  0  0  0  0  0  0  0
  -15.2976  -13.4264   24.5531 C   0  0  0  0  0  0  0  0  0  0  0  0
  -16.2125  -13.0543   25.5366 C   0  0  0  0  0  0  0  0  0  0  0  0
  -16.7618  -15.0817   24.9441 C   0  0  0  0  0  0  0  0  0  0  0  0
  -14.3339   -7.3041   23.4333 C   0  0  1  0  0  0  0  0  0  0  0  0
  -14.9053   -6.2505   22.5470 C   0  0  0  0  0  0  0  0  0  0  0  0
  -18.0561   -8.5233   26.6999 C   0  0  0  0  0  0  0  0  0  0  0  0
  -17.1266   -9.5513   26.6341 C   0  0  0  0  0  0  0  0  0  0  0  0
  -15.7990   -9.2680   26.3978 C   0  0  0  0  0  0  0  0  0  0  0  0
  -17.0580  -14.0482   25.7436 N   0  0  0  0  0  0  0  0  0  0  0  0
  -14.1112  -10.5664   22.6131 N   0  0  0  0  0  0  0  0  0  0  0  0
  -13.3256   -8.1160   22.7231 N   0  0  0  0  0  0  0  0  0  0  0  0
  -16.3476  -13.1359   21.5850 O   0  0  0  0  0  0  0  0  0  0  0  0
  -16.7346  -11.3234   22.7027 O   0  0  0  0  0  0  0  0  0  0  0  0
  -15.0301   -5.1299   23.0352 O   0  0  0  0  0  0  0  0  0  0  0  0
  -15.2758   -6.4643   21.3621 O   0  0  0  0  0  0  0  0  0  0  0  0
  -14.2503  -10.5424   20.3468 O   0  0  0  0  0  0  0  0  0  0  0  0
  -10.6333   -8.0475   17.6028 H   0  0  0  0  0  0  0  0  0  0  0  0
  -12.0057   -8.1971   16.4536 H   0  0  0  0  0  0  0  0  0  0  0  0
  -10.9917   -6.7143   16.4536 H   0  0  0  0  0  0  0  0  0  0  0  0
  -11.8133   -6.2365   18.8631 H   0  0  0  0  0  0  0  0  0  0  0  0
  -13.1295   -6.1878   17.6442 H   0  0  0  0  0  0  0  0  0  0  0  0
  -14.2208   -7.6956   18.9569 H   0  0  0  0  0  0  0  0  0  0  0  0
  -12.9851   -8.8972   18.3896 H   0  0  0  0  0  0  0  0  0  0  0  0
  -11.8874   -8.9156   20.3606 H   0  0  0  0  0  0  0  0  0  0  0  0
  -12.1932   -7.1419   20.6457 H   0  0  0  0  0  0  0  0  0  0  0  0
  -14.5931   -7.8339   21.0245 H   0  0  0  0  0  0  0  0  0  0  0  0
  -14.2938  -15.3690   22.6077 H   0  0  0  0  0  0  0  0  0  0  0  0
  -15.3580  -17.6060   22.3635 H   0  0  0  0  0  0  0  0  0  0  0  0
  -17.3094  -18.2321   23.7627 H   0  0  0  0  0  0  0  0  0  0  0  0
  -18.2357  -16.6180   25.4228 H   0  0  0  0  0  0  0  0  0  0  0  0
  -14.2089   -5.6774   24.8737 H   0  0  0  0  0  0  0  0  0  0  0  0
  -12.6414   -6.4802   24.5272 H   0  0  0  0  0  0  0  0  0  0  0  0
  -13.3523   -8.4918   25.7270 H   0  0  0  0  0  0  0  0  0  0  0  0
  -13.5817   -6.9982   26.7792 H   0  0  0  0  0  0  0  0  0  0  0  0
  -15.9916   -5.9043   26.0785 H   0  0  0  0  0  0  0  0  0  0  0  0
  -18.3846   -6.3860   26.5370 H   0  0  0  0  0  0  0  0  0  0  0  0
  -13.8357  -12.5394   21.8807 H   0  0  0  0  0  0  0  0  0  0  0  0
  -13.2167  -13.2093   23.9528 H   0  0  0  0  0  0  0  0  0  0  0  0
  -13.9385  -11.7415   24.7184 H   0  0  0  0  0  0  0  0  0  0  0  0
  -16.2281  -12.0859   26.0582 H   0  0  0  0  0  0  0  0  0  0  0  0
  -15.1443   -7.9818   23.7398 H   0  0  0  0  0  0  0  0  0  0  0  0
  -19.1115   -8.7485   26.9126 H   0  0  0  0  0  0  0  0  0  0  0  0
  -17.4499  -10.5938   26.7706 H   0  0  0  0  0  0  0  0  0  0  0  0
  -15.0560  -10.0786   26.3700 H   0  0  0  0  0  0  0  0  0  0  0  0
  -17.8331  -14.0311   26.4218 H   0  0  0  0  0  0  0  0  0  0  0  0
  -13.9210  -10.0520   23.4850 H   0  0  0  0  0  0  0  0  0  0  0  0
  -13.1872   -8.9964   23.2394 H   0  0  0  0  0  0  0  0  0  0  0  0
  -12.4571   -7.5643   22.6751 H   0  0  0  0  0  0  0  0  0  0  0  0
  1  2  1  0
  2  3  1  0
  3  4  1  0
  5  4  1  0
  5 11  1  0
  5 30  1  0
  6  7  2  0
  6 20  1  0
  6 22  1  0
  7  8  1  0
  8  9  2  0
  9 10  1  0
 10 22  2  0
 11 29  1  0
 11 35  2  0
 12 13  1  0
 23 12  1  0
 13 14  1  0
 14 15  2  0
 14 27  1  0
 15 16  1  0
 16 25  2  0
 17 18  1  0
 17 31  2  0
 17 32  1  0
 18 19  1  0
 18 29  1  0
 19 20  1  0
 20 21  2  0
 21 28  1  0
 22 28  1  0
 23 24  1  0
 23 30  1  0
 24 33  2  0
 24 34  1  0
 25 26  1  0
 26 27  2  0
  1 36  1  0
  1 37  1  0
  1 38  1  0
  2 39  1  0
  2 40  1  0
  3 41  1  0
  3 42  1  0
  4 43  1  0
  4 44  1  0
  5 45  1  6
  7 46  1  0
  8 47  1  0
  9 48  1  0
 10 49  1  0
 12 50  1  0
 12 51  1  0
 13 52  1  0
 13 53  1  0
 15 54  1  0
 16 55  1  0
 18 56  1  6
 19 57  1  0
 19 58  1  0
 21 59  1  0
 23 60  1  1
 25 61  1  0
 26 62  1  0
 27 63  1  0
 28 64  1  0
 29 65  1  0
 30 66  1  0
 30 67  1  0
M  CHG  3  30   1  32  -1  34  -1
M  END
>  <filename_input>  (20) 
7Q27_8KC_docked.sdf

>  <pdb_id>  (20) 
7Q27_8KC

>  <pose_rank>  (20) 
19

>  <num_atoms_heavy>  (20) 
35

>  <num_torsions>  (20) 
14

>  <pose>  (20) 
[-13.729258994262777, -8.436720491263422, 21.341332714124192, 1.6869166339761918, -1.755474378668938, 0.4134511193589455, 3.451040790421033, -0.13643270061711932, 2.7406088508223463, -4.827540925275847, 3.0680985624254706, -3.900738353865132, -0.5160486233034549, -1.202942044604661, -0.6239509827336782, 0.24567871795487894, 1.6752367015190497, 1.470924518182322, 2.333538067248976, 2.394644489368615]

>  <energy>  (20) 
-486.5217239904201

>  <inter_energy>  (20) 
-584.7304303180997

>  <intra_energy>  (20) 
105.95690274497882

>  <rmsd>  (20) 
7.81501

>  <sdf_rank>  (20) 
0

$$$$

     RDKit          3D

 67 69  0  0  0  0  0  0  0  0999 V2000
  -16.1717  -14.6453   20.5438 C   0  0  0  0  0  0  0  0  0  0  0  0
  -15.8995  -13.3020   21.3494 C   0  0  0  0  0  0  0  0  0  0  0  0
  -14.7811  -13.5467   22.3816 C   0  0  0  0  0  0  0  0  0  0  0  0
  -13.6666  -12.5108   22.2690 C   0  0  0  0  0  0  0  0  0  0  0  0
  -14.1462  -11.0950   22.5385 C   0  0  1  0  0  0  0  0  0  0  0  0
  -14.2467   -6.6162   25.6614 C   0  0  0  0  0  0  0  0  0  0  0  0
  -13.8230   -6.0398   24.4559 C   0  0  0  0  0  0  0  0  0  0  0  0
  -14.3958   -4.8464   24.0358 C   0  0  0  0  0  0  0  0  0  0  0  0
  -15.3735   -4.2201   24.8013 C   0  0  0  0  0  0  0  0  0  0  0  0
  -15.7885   -4.7769   26.0036 C   0  0  0  0  0  0  0  0  0  0  0  0
  -13.3974  -10.4481   23.6892 C   0  0  0  0  0  0  0  0  0  0  0  0
  -16.3587   -9.8694   21.7689 C   0  0  0  0  0  0  0  0  0  0  0  0
  -16.1870   -8.7855   22.8496 C   0  0  0  0  0  0  0  0  0  0  0  0
  -16.8979   -9.0814   24.2148 C   0  0  0  0  0  0  0  0  0  0  0  0
  -17.1503  -10.4011   24.5015 C   0  0  0  0  0  0  0  0  0  0  0  0
  -17.7715  -10.7473   25.6828 C   0  0  0  0  0  0  0  0  0  0  0  0
  -10.7392   -8.9438   24.5468 C   0  0  0  0  0  0  0  0  0  0  0  0
  -12.1823   -8.4893   24.5851 C   0  0  2  0  0  0  0  0  0  0  0  0
  -12.8550   -8.8745   25.9211 C   0  0  0  0  0  0  0  0  0  0  0  0
  -13.8751   -7.7893   26.3564 C   0  0  0  0  0  0  0  0  0  0  0  0
  -14.6460   -7.7923   27.5176 C   0  0  0  0  0  0  0  0  0  0  0  0
  -15.2082   -5.9854   26.4305 C   0  0  0  0  0  0  0  0  0  0  0  0
  -15.1939   -9.7707   20.7572 C   0  0  1  0  0  0  0  0  0  0  0  0
  -15.0898   -8.3714   20.2541 C   0  0  0  0  0  0  0  0  0  0  0  0
  -18.1351   -9.7447   26.5797 C   0  0  0  0  0  0  0  0  0  0  0  0
  -17.8593   -8.4174   26.2845 C   0  0  0  0  0  0  0  0  0  0  0  0
  -17.2537   -8.0866   25.0918 C   0  0  0  0  0  0  0  0  0  0  0  0
  -15.4185   -6.7205   27.5305 N   0  0  0  0  0  0  0  0  0  0  0  0
  -12.9117   -9.1231   23.4799 N   0  0  0  0  0  0  0  0  0  0  0  0
  -13.9286  -10.2160   21.3745 N   0  0  0  0  0  0  0  0  0  0  0  0
  -10.2919   -9.7951   23.7148 O   0  0  0  0  0  0  0  0  0  0  0  0
   -9.9230   -8.4699   25.3857 O   0  0  0  0  0  0  0  0  0  0  0  0
  -13.9572   -7.9051   20.1568 O   0  0  0  0  0  0  0  0  0  0  0  0
  -16.0883   -7.6630   19.9573 O   0  0  0  0  0  0  0  0  0  0  0  0
  -13.1669  -11.0126   24.7131 O   0  0  0  0  0  0  0  0  0  0  0  0
  -16.3388  -15.4702   21.2520 H   0  0  0  0  0  0  0  0  0  0  0  0
  -17.0626  -14.5192   19.9109 H   0  0  0  0  0  0  0  0  0  0  0  0
  -15.3020  -14.8759   19.9109 H   0  0  0  0  0  0  0  0  0  0  0  0
  -15.5889  -12.5109   20.6511 H   0  0  0  0  0  0  0  0  0  0  0  0
  -16.8182  -12.9897   21.8676 H   0  0  0  0  0  0  0  0  0  0  0  0
  -15.2126  -13.4964   23.3922 H   0  0  0  0  0  0  0  0  0  0  0  0
  -14.3465  -14.5378   22.1850 H   0  0  0  0  0  0  0  0  0  0  0  0
  -12.8810  -12.7600   22.9975 H   0  0  0  0  0  0  0  0  0  0  0  0
  -13.2910  -12.5411   21.2356 H   0  0  0  0  0  0  0  0  0  0  0  0
  -15.2164  -11.1959   22.7718 H   0  0  0  0  0  0  0  0  0  0  0  0
  -13.0455   -6.5273   23.8494 H   0  0  0  0  0  0  0  0  0  0  0  0
  -14.0729   -4.3918   23.0877 H   0  0  0  0  0  0  0  0  0  0  0  0
  -15.8208   -3.2777   24.4521 H   0  0  0  0  0  0  0  0  0  0  0  0
  -16.5588   -4.2812   26.6126 H   0  0  0  0  0  0  0  0  0  0  0  0
  -16.3524  -10.8631   22.2407 H   0  0  0  0  0  0  0  0  0  0  0  0
  -17.3149   -9.7204   21.2459 H   0  0  0  0  0  0  0  0  0  0  0  0
  -15.1109   -8.6683   23.0453 H   0  0  0  0  0  0  0  0  0  0  0  0
  -16.6638   -7.8788   22.4490 H   0  0  0  0  0  0  0  0  0  0  0  0
  -16.8560  -11.1837   23.7868 H   0  0  0  0  0  0  0  0  0  0  0  0
  -17.9778  -11.8027   25.9144 H   0  0  0  0  0  0  0  0  0  0  0  0
  -12.2060   -7.3938   24.4882 H   0  0  0  0  0  0  0  0  0  0  0  0
  -13.3792   -9.8337   25.7978 H   0  0  0  0  0  0  0  0  0  0  0  0
  -12.0785   -8.9600   26.6956 H   0  0  0  0  0  0  0  0  0  0  0  0
  -14.6160   -8.5651   28.2998 H   0  0  0  0  0  0  0  0  0  0  0  0
  -15.3949  -10.4358   19.9044 H   0  0  0  0  0  0  0  0  0  0  0  0
  -18.6405  -10.0055   27.5213 H   0  0  0  0  0  0  0  0  0  0  0  0
  -18.1245   -7.6282   27.0034 H   0  0  0  0  0  0  0  0  0  0  0  0
  -17.0566   -7.0332   24.8441 H   0  0  0  0  0  0  0  0  0  0  0  0
  -16.0862   -6.4843   28.2784 H   0  0  0  0  0  0  0  0  0  0  0  0
  -13.0667   -8.6306   22.5886 H   0  0  0  0  0  0  0  0  0  0  0  0
  -13.4008   -9.3864   21.6812 H   0  0  0  0  0  0  0  0  0  0  0  0
  -13.4088  -10.7558   20.6678 H   0  0  0  0  0  0  0  0  0  0  0  0
  1  2  1  0
  2  3  1  0
  3  4  1  0
  5  4  1  0
  5 11  1  0
  5 30  1  0
  6  7  2  0
  6 20  1  0
  6 22  1  0
  7  8  1  0
  8  9  2  0
  9 10  1  0
 10 22  2  0
 11 29  1  0
 11 35  2  0
 12 13  1  0
 23 12  1  0
 13 14  1  0
 14 15  2  0
 14 27  1  0
 15 16  1  0
 16 25  2  0
 17 18  1  0
 17 31  2  0
 17 32  1  0
 18 19  1  0
 18 29  1  0
 19 20  1  0
 20 21  2  0
 21 28  1  0
 22 28  1  0
 23 24  1  0
 23 30  1  0
 24 33  2  0
 24 34  1  0
 25 26  1  0
 26 27  2  0
  1 36  1  0
  1 37  1  0
  1 38  1  0
  2 39  1  0
  2 40  1  0
  3 41  1  0
  3 42  1  0
  4 43  1  0
  4 44  1  0
  5 45  1  1
  7 46  1  0
  8 47  1  0
  9 48  1  0
 10 49  1  0
 12 50  1  0
 12 51  1  0
 13 52  1  0
 13 53  1  0
 15 54  1  0
 16 55  1  0
 18 56  1  6
 19 57  1  0
 19 58  1  0
 21 59  1  0
 23 60  1  6
 25 61  1  0
 26 62  1  0
 27 63  1  0
 28 64  1  0
 29 65  1  0
 30 66  1  0
 30 67  1  0
M  CHG  3  30   1  32  -1  34  -1
M  END
>  <filename_input>  (21) 
7Q27_8KC_docked.sdf

>  <pdb_id>  (21) 
7Q27_8KC

>  <pose_rank>  (21) 
20

>  <num_atoms_heavy>  (21) 
35

>  <num_torsions>  (21) 
14

>  <pose>  (21) 
[-14.146178645175967, -11.095034322766558, 22.53853729663066, 0.3677920141447015, 0.03183651059229268, 0.9141340737702693, -53.051387978830405, -10.00648325795293, 12.7495560682686, -40.19707949201826, 1.773959189201142, -15.773794054944508, -1.9422843685156566, -13.404346615336786, -0.9133786980270382, 3.477941587669479, -1.9766675631859647, -39.6806786401843, 0.5812860058250569, 3.6733377087409975]

>  <energy>  (21) 
-570.5177416465554

>  <inter_energy>  (21) 
-705.6118762826007

>  <intra_energy>  (21) 
144.14979823145666

>  <rmsd>  (21) 
6.29286

>  <sdf_rank>  (21) 
0

$$$$

     RDKit          3D

 67 69  0  0  0  0  0  0  0  0999 V2000
  -15.9725   -9.7138   27.4807 C   0  0  0  0  0  0  0  0  0  0  0  0
  -16.4511  -10.7078   26.3359 C   0  0  0  0  0  0  0  0  0  0  0  0
  -15.5829  -10.4923   25.0806 C   0  0  0  0  0  0  0  0  0  0  0  0
  -15.4215  -11.7768   24.2732 C   0  0  0  0  0  0  0  0  0  0  0  0
  -15.1764  -11.5197   22.7964 C   0  0  1  0  0  0  0  0  0  0  0  0
  -12.8728   -6.5540   18.2773 C   0  0  0  0  0  0  0  0  0  0  0  0
  -13.9910   -6.1078   17.5592 C   0  0  0  0  0  0  0  0  0  0  0  0
  -13.8220   -5.6367   16.2636 C   0  0  0  0  0  0  0  0  0  0  0  0
  -12.5619   -5.6126   15.6757 C   0  0  0  0  0  0  0  0  0  0  0  0
  -11.4514   -6.0662   16.3749 C   0  0  0  0  0  0  0  0  0  0  0  0
  -14.0529  -10.5252   22.5690 C   0  0  0  0  0  0  0  0  0  0  0  0
  -16.1049  -14.2290   20.6017 C   0  0  0  0  0  0  0  0  0  0  0  0
  -17.0389  -15.4536   20.6210 C   0  0  0  0  0  0  0  0  0  0  0  0
  -17.1627  -16.2238   19.2615 C   0  0  0  0  0  0  0  0  0  0  0  0
  -18.3093  -16.9574   19.0745 C   0  0  0  0  0  0  0  0  0  0  0  0
  -18.4972  -17.6638   17.9054 C   0  0  0  0  0  0  0  0  0  0  0  0
  -12.9675   -7.6593   23.0309 C   0  0  0  0  0  0  0  0  0  0  0  0
  -13.3203   -8.3221   21.7168 C   0  0  2  0  0  0  0  0  0  0  0  0
  -13.7856   -7.2829   20.6731 C   0  0  0  0  0  0  0  0  0  0  0  0
  -12.7055   -7.0823   19.5773 C   0  0  0  0  0  0  0  0  0  0  0  0
  -11.3449   -7.3629   19.6912 C   0  0  0  0  0  0  0  0  0  0  0  0
  -11.6217   -6.5444   17.6871 C   0  0  0  0  0  0  0  0  0  0  0  0
  -15.8473  -13.7605   22.0524 C   0  0  1  0  0  0  0  0  0  0  0  0
  -15.5157  -14.9384   22.9036 C   0  0  0  0  0  0  0  0  0  0  0  0
  -17.5141  -17.6207   16.9187 C   0  0  0  0  0  0  0  0  0  0  0  0
  -16.3687  -16.8625   17.1144 C   0  0  0  0  0  0  0  0  0  0  0  0
  -16.1881  -16.1765   18.2956 C   0  0  0  0  0  0  0  0  0  0  0  0
  -10.7366   -7.0350   18.5651 N   0  0  0  0  0  0  0  0  0  0  0  0
  -14.4003   -9.2899   21.9453 N   0  0  0  0  0  0  0  0  0  0  0  0
  -14.7718  -12.7495   22.0900 N   0  0  0  0  0  0  0  0  0  0  0  0
  -11.8151   -7.7247   23.5644 O   0  0  0  0  0  0  0  0  0  0  0  0
  -13.8563   -7.0103   23.6501 O   0  0  0  0  0  0  0  0  0  0  0  0
  -14.4139  -15.4523   22.7257 O   0  0  0  0  0  0  0  0  0  0  0  0
  -16.3063  -15.4262   23.7544 O   0  0  0  0  0  0  0  0  0  0  0  0
  -12.9161  -10.7559   22.8420 O   0  0  0  0  0  0  0  0  0  0  0  0
  -16.1861  -10.1574   28.4644 H   0  0  0  0  0  0  0  0  0  0  0  0
  -14.8909   -9.5378   27.3849 H   0  0  0  0  0  0  0  0  0  0  0  0
  -16.5093   -8.7585   27.3849 H   0  0  0  0  0  0  0  0  0  0  0  0
  -16.3450  -11.7463   26.6826 H   0  0  0  0  0  0  0  0  0  0  0  0
  -17.5059  -10.5111   26.0935 H   0  0  0  0  0  0  0  0  0  0  0  0
  -16.0587   -9.7305   24.4455 H   0  0  0  0  0  0  0  0  0  0  0  0
  -14.5842  -10.1679   25.4083 H   0  0  0  0  0  0  0  0  0  0  0  0
  -14.5681  -12.3407   24.6778 H   0  0  0  0  0  0  0  0  0  0  0  0
  -16.3622  -12.3406   24.3585 H   0  0  0  0  0  0  0  0  0  0  0  0
  -16.1309  -11.1308   22.4123 H   0  0  0  0  0  0  0  0  0  0  0  0
  -14.9911   -6.1305   18.0167 H   0  0  0  0  0  0  0  0  0  0  0  0
  -14.6940   -5.2789   15.6965 H   0  0  0  0  0  0  0  0  0  0  0  0
  -12.4442   -5.2320   14.6504 H   0  0  0  0  0  0  0  0  0  0  0  0
  -10.4544   -6.0518   15.9104 H   0  0  0  0  0  0  0  0  0  0  0  0
  -15.1501  -14.5025   20.1288 H   0  0  0  0  0  0  0  0  0  0  0  0
  -16.5751  -13.4157   20.0296 H   0  0  0  0  0  0  0  0  0  0  0  0
  -16.6607  -16.1574   21.3770 H   0  0  0  0  0  0  0  0  0  0  0  0
  -18.0440  -15.0657   20.8432 H   0  0  0  0  0  0  0  0  0  0  0  0
  -19.0793  -16.9813   19.8596 H   0  0  0  0  0  0  0  0  0  0  0  0
  -19.4126  -18.2544   17.7533 H   0  0  0  0  0  0  0  0  0  0  0  0
  -12.4232   -8.8262   21.3281 H   0  0  0  0  0  0  0  0  0  0  0  0
  -14.7155   -7.6352   20.2028 H   0  0  0  0  0  0  0  0  0  0  0  0
  -13.9546   -6.3226   21.1822 H   0  0  0  0  0  0  0  0  0  0  0  0
  -10.8549   -7.7899   20.5787 H   0  0  0  0  0  0  0  0  0  0  0  0
  -16.7573  -13.2865   22.4489 H   0  0  0  0  0  0  0  0  0  0  0  0
  -17.6461  -18.1874   15.9852 H   0  0  0  0  0  0  0  0  0  0  0  0
  -15.6038  -16.8091   16.3256 H   0  0  0  0  0  0  0  0  0  0  0  0
  -15.2696  -15.5949   18.4636 H   0  0  0  0  0  0  0  0  0  0  0  0
   -9.7276   -7.1411   18.3878 H   0  0  0  0  0  0  0  0  0  0  0  0
  -15.3705   -9.0852   21.6665 H   0  0  0  0  0  0  0  0  0  0  0  0
  -14.5141  -12.5053   21.1231 H   0  0  0  0  0  0  0  0  0  0  0  0
  -13.9769  -13.1574   22.6025 H   0  0  0  0  0  0  0  0  0  0  0  0
  1  2  1  0
  2  3  1  0
  3  4  1  0
  5  4  1  0
  5 11  1  0
  5 30  1  0
  6  7  2  0
  6 20  1  0
  6 22  1  0
  7  8  1  0
  8  9  2  0
  9 10  1  0
 10 22  2  0
 11 29  1  0
 11 35  2  0
 12 13  1  0
 23 12  1  0
 13 14  1  0
 14 15  2  0
 14 27  1  0
 15 16  1  0
 16 25  2  0
 17 18  1  0
 17 31  2  0
 17 32  1  0
 18 19  1  0
 18 29  1  0
 19 20  1  0
 20 21  2  0
 21 28  1  0
 22 28  1  0
 23 24  1  0
 23 30  1  0
 24 33  2  0
 24 34  1  0
 25 26  1  0
 26 27  2  0
  1 36  1  0
  1 37  1  0
  1 38  1  0
  2 39  1  0
  2 40  1  0
  3 41  1  0
  3 42  1  0
  4 43  1  0
  4 44  1  0
  5 45  1  6
  7 46  1  0
  8 47  1  0
  9 48  1  0
 10 49  1  0
 12 50  1  0
 12 51  1  0
 13 52  1  0
 13 53  1  0
 15 54  1  0
 16 55  1  0
 18 56  1  6
 19 57  1  0
 19 58  1  0
 21 59  1  0
 23 60  1  1
 25 61  1  0
 26 62  1  0
 27 63  1  0
 28 64  1  0
 29 65  1  0
 30 66  1  0
 30 67  1  0
M  CHG  3  30   1  32  -1  34  -1
M  END
>  <filename_input>  (22) 
7Q27_8KC_docked.sdf

>  <pdb_id>  (22) 
7Q27_8KC

>  <pose_rank>  (22) 
21

>  <num_atoms_heavy>  (22) 
35

>  <num_torsions>  (22) 
14

>  <pose>  (22) 
[-15.17637469360272, -11.519745408743837, 22.796429708545777, 4.688711598273054, -1.586112328030021, -1.0177128382659633, -0.8457705870335868, -0.21390341152394873, 2.3273833721612425, -3.151178483277768, -1.774724430554722, 1.838164621321301, -0.3522278867745876, -0.4662032277959809, -1.735631459748548, 5.311129498540118, -3.1217974723652993, -0.25059148680854176, 0.38023107768836417, 0.5412514831934013]

>  <energy>  (22) 
-600.7929154321083

>  <inter_energy>  (22) 
-618.023396338284

>  <intra_energy>  (22) 
18.5791049394576

>  <rmsd>  (22) 
8.98609

>  <sdf_rank>  (22) 
0

$$$$

     RDKit          3D

 67 69  0  0  0  0  0  0  0  0999 V2000
  -19.0749   -7.8818   25.7112 C   0  0  0  0  0  0  0  0  0  0  0  0
  -17.5076   -8.1461   25.6753 C   0  0  0  0  0  0  0  0  0  0  0  0
  -16.9435   -7.6720   24.3213 C   0  0  0  0  0  0  0  0  0  0  0  0
  -16.7892   -8.8251   23.3343 C   0  0  0  0  0  0  0  0  0  0  0  0
  -15.3501   -9.2880   23.1864 C   0  0  1  0  0  0  0  0  0  0  0  0
  -14.4013  -15.4712   25.1934 C   0  0  0  0  0  0  0  0  0  0  0  0
  -15.4881  -16.3460   25.0570 C   0  0  0  0  0  0  0  0  0  0  0  0
  -15.5340  -17.4975   25.8322 C   0  0  0  0  0  0  0  0  0  0  0  0
  -14.5210  -17.7819   26.7416 C   0  0  0  0  0  0  0  0  0  0  0  0
  -13.4484  -16.9135   26.8931 C   0  0  0  0  0  0  0  0  0  0  0  0
  -15.2527  -10.7852   22.9589 C   0  0  0  0  0  0  0  0  0  0  0  0
  -12.7855   -7.9468   23.4462 C   0  0  0  0  0  0  0  0  0  0  0  0
  -12.9440   -7.0848   24.7127 C   0  0  0  0  0  0  0  0  0  0  0  0
  -13.6494   -7.7915   25.9208 C   0  0  0  0  0  0  0  0  0  0  0  0
  -14.2269   -6.9710   26.8594 C   0  0  0  0  0  0  0  0  0  0  0  0
  -14.8687   -7.5127   27.9528 C   0  0  0  0  0  0  0  0  0  0  0  0
  -14.1521  -13.0635   21.0594 C   0  0  0  0  0  0  0  0  0  0  0  0
  -13.8440  -12.7680   22.5114 C   0  0  2  0  0  0  0  0  0  0  0  0
  -14.8274  -13.4988   23.4520 C   0  0  0  0  0  0  0  0  0  0  0  0
  -14.0614  -14.2466   24.5751 C   0  0  0  0  0  0  0  0  0  0  0  0
  -12.8612  -13.8540   25.1652 C   0  0  0  0  0  0  0  0  0  0  0  0
  -13.4014  -15.7463   26.1089 C   0  0  0  0  0  0  0  0  0  0  0  0
  -13.8414   -7.5181   22.4014 C   0  0  1  0  0  0  0  0  0  0  0  0
  -13.1564   -6.9346   21.2130 C   0  0  0  0  0  0  0  0  0  0  0  0
  -14.9266   -8.8982   28.0905 C   0  0  0  0  0  0  0  0  0  0  0  0
  -14.3532   -9.7150   27.1265 C   0  0  0  0  0  0  0  0  0  0  0  0
  -13.7003   -9.1577   26.0487 C   0  0  0  0  0  0  0  0  0  0  0  0
  -12.5003  -14.7561   26.0606 N   0  0  0  0  0  0  0  0  0  0  0  0
  -13.9493  -11.3212   22.7367 N   0  0  0  0  0  0  0  0  0  0  0  0
  -14.6943   -8.6625   22.0229 N   0  0  0  0  0  0  0  0  0  0  0  0
  -14.0045  -12.2162   20.1227 O   0  0  0  0  0  0  0  0  0  0  0  0
  -14.5899  -14.2051   20.7438 O   0  0  0  0  0  0  0  0  0  0  0  0
  -13.7827   -6.0899   20.5774 O   0  0  0  0  0  0  0  0  0  0  0  0
  -12.0063   -7.2810   20.8336 O   0  0  0  0  0  0  0  0  0  0  0  0
  -16.2062  -11.4985   22.9128 O   0  0  0  0  0  0  0  0  0  0  0  0
  -19.4133   -7.8248   26.7563 H   0  0  0  0  0  0  0  0  0  0  0  0
  -19.2986   -6.9333   25.2011 H   0  0  0  0  0  0  0  0  0  0  0  0
  -19.5973   -8.7046   25.2011 H   0  0  0  0  0  0  0  0  0  0  0  0
  -17.0221   -7.5902   26.4909 H   0  0  0  0  0  0  0  0  0  0  0  0
  -17.3115   -9.2212   25.8008 H   0  0  0  0  0  0  0  0  0  0  0  0
  -17.6285   -6.9259   23.8924 H   0  0  0  0  0  0  0  0  0  0  0  0
  -15.9477   -7.2400   24.4993 H   0  0  0  0  0  0  0  0  0  0  0  0
  -17.3960   -9.6723   23.6865 H   0  0  0  0  0  0  0  0  0  0  0  0
  -17.1227   -8.4640   22.3501 H   0  0  0  0  0  0  0  0  0  0  0  0
  -14.8596   -8.9996   24.1278 H   0  0  0  0  0  0  0  0  0  0  0  0
  -16.2955  -16.1231   24.3440 H   0  0  0  0  0  0  0  0  0  0  0  0
  -16.3806  -18.1918   25.7258 H   0  0  0  0  0  0  0  0  0  0  0  0
  -14.5699  -18.7006   27.3447 H   0  0  0  0  0  0  0  0  0  0  0  0
  -12.6481  -17.1344   27.6147 H   0  0  0  0  0  0  0  0  0  0  0  0
  -11.7775   -7.8055   23.0292 H   0  0  0  0  0  0  0  0  0  0  0  0
  -12.9289   -9.0071   23.7015 H   0  0  0  0  0  0  0  0  0  0  0  0
  -11.9408   -6.7738   25.0396 H   0  0  0  0  0  0  0  0  0  0  0  0
  -13.5955   -6.2451   24.4292 H   0  0  0  0  0  0  0  0  0  0  0  0
  -14.1770   -5.8788   26.7381 H   0  0  0  0  0  0  0  0  0  0  0  0
  -15.3297   -6.8588   28.7077 H   0  0  0  0  0  0  0  0  0  0  0  0
  -12.8260  -13.1221   22.7313 H   0  0  0  0  0  0  0  0  0  0  0  0
  -15.5063  -12.7624   23.9068 H   0  0  0  0  0  0  0  0  0  0  0  0
  -15.3980  -14.2331   22.8645 H   0  0  0  0  0  0  0  0  0  0  0  0
  -12.3026  -12.9377   24.9236 H   0  0  0  0  0  0  0  0  0  0  0  0
  -14.4969   -6.7512   22.8399 H   0  0  0  0  0  0  0  0  0  0  0  0
  -15.4265   -9.3441   28.9630 H   0  0  0  0  0  0  0  0  0  0  0  0
  -14.4200  -10.8087   27.2228 H   0  0  0  0  0  0  0  0  0  0  0  0
  -13.2231   -9.8026   25.2962 H   0  0  0  0  0  0  0  0  0  0  0  0
  -11.6489  -14.7054   26.6381 H   0  0  0  0  0  0  0  0  0  0  0  0
  -13.1151  -10.7169   22.7345 H   0  0  0  0  0  0  0  0  0  0  0  0
  -14.1097   -9.3691   21.5540 H   0  0  0  0  0  0  0  0  0  0  0  0
  -15.4341   -8.3086   21.3997 H   0  0  0  0  0  0  0  0  0  0  0  0
  1  2  1  0
  2  3  1  0
  3  4  1  0
  5  4  1  0
  5 11  1  0
  5 30  1  0
  6  7  2  0
  6 20  1  0
  6 22  1  0
  7  8  1  0
  8  9  2  0
  9 10  1  0
 10 22  2  0
 11 29  1  0
 11 35  2  0
 12 13  1  0
 23 12  1  0
 13 14  1  0
 14 15  2  0
 14 27  1  0
 15 16  1  0
 16 25  2  0
 17 18  1  0
 17 31  2  0
 17 32  1  0
 18 19  1  0
 18 29  1  0
 19 20  1  0
 20 21  2  0
 21 28  1  0
 22 28  1  0
 23 24  1  0
 23 30  1  0
 24 33  2  0
 24 34  1  0
 25 26  1  0
 26 27  2  0
  1 36  1  0
  1 37  1  0
  1 38  1  0
  2 39  1  0
  2 40  1  0
  3 41  1  0
  3 42  1  0
  4 43  1  0
  4 44  1  0
  5 45  1  1
  7 46  1  0
  8 47  1  0
  9 48  1  0
 10 49  1  0
 12 50  1  0
 12 51  1  0
 13 52  1  0
 13 53  1  0
 15 54  1  0
 16 55  1  0
 18 56  1  1
 19 57  1  0
 19 58  1  0
 21 59  1  0
 23 60  1  1
 25 61  1  0
 26 62  1  0
 27 63  1  0
 28 64  1  0
 29 65  1  0
 30 66  1  0
 30 67  1  0
M  CHG  3  30   1  32  -1  34  -1
M  END
>  <filename_input>  (23) 
7Q27_8KC_docked.sdf

>  <pdb_id>  (23) 
7Q27_8KC

>  <pose_rank>  (23) 
22

>  <num_atoms_heavy>  (23) 
35

>  <num_torsions>  (23) 
14

>  <pose>  (23) 
[-15.350126821033907, -9.287950800172666, 23.18639316410723, -2.904243312474886, -0.8022942090590801, 3.417314695976261, -14.58455352574285, -22.588034343351467, 0.6756178892789998, -21.59408654317552, 30.59035729927655, -15.358346949709444, 7.745562076668357, 7.790820204075182, -7.42951296116463, -14.777695100566017, -0.7325304957285874, 0.9389135756085629, -1.166119845335331, 0.5087440315700847]

>  <energy>  (23) 
-607.1192291940408

>  <inter_energy>  (23) 
-664.1559852418316

>  <intra_energy>  (23) 
58.5971740000756

>  <rmsd>  (23) 
7.85564

>  <sdf_rank>  (23) 
0

$$$$

     RDKit          3D

 67 69  0  0  0  0  0  0  0  0999 V2000
  -18.5320   -7.3488   27.7249 C   0  0  0  0  0  0  0  0  0  0  0  0
  -18.9795   -8.5186   26.7456 C   0  0  0  0  0  0  0  0  0  0  0  0
  -18.7478   -8.0765   25.2872 C   0  0  0  0  0  0  0  0  0  0  0  0
  -17.3413   -7.5240   25.0769 C   0  0  0  0  0  0  0  0  0  0  0  0
  -16.3464   -8.5882   24.6472 C   0  0  1  0  0  0  0  0  0  0  0  0
  -12.4711   -6.4840   19.4114 C   0  0  0  0  0  0  0  0  0  0  0  0
  -11.1476   -6.7733   19.7717 C   0  0  0  0  0  0  0  0  0  0  0  0
  -10.1587   -6.7530   18.7968 C   0  0  0  0  0  0  0  0  0  0  0  0
  -10.4690   -6.4420   17.4773 C   0  0  0  0  0  0  0  0  0  0  0  0
  -11.7748   -6.1402   17.1148 C   0  0  0  0  0  0  0  0  0  0  0  0
  -15.1933   -8.0038   23.8521 C   0  0  0  0  0  0  0  0  0  0  0  0
  -15.1516  -11.5476   25.0274 C   0  0  0  0  0  0  0  0  0  0  0  0
  -15.0759  -12.9698   25.6138 C   0  0  0  0  0  0  0  0  0  0  0  0
  -15.2198  -14.1328   24.5728 C   0  0  0  0  0  0  0  0  0  0  0  0
  -15.5529  -13.7701   23.2902 C   0  0  0  0  0  0  0  0  0  0  0  0
  -15.6980  -14.7323   22.3133 C   0  0  0  0  0  0  0  0  0  0  0  0
  -12.3411   -8.3586   22.7554 C   0  0  0  0  0  0  0  0  0  0  0  0
  -13.6172   -8.2029   21.9567 C   0  0  2  0  0  0  0  0  0  0  0  0
  -13.9051   -6.7174   21.6460 C   0  0  0  0  0  0  0  0  0  0  0  0
  -13.6799   -6.4168   20.1405 C   0  0  0  0  0  0  0  0  0  0  0  0
  -14.6529   -6.0504   19.2122 C   0  0  0  0  0  0  0  0  0  0  0  0
  -12.7772   -6.1596   18.1019 C   0  0  0  0  0  0  0  0  0  0  0  0
  -16.0993  -10.6876   25.8947 C   0  0  1  0  0  0  0  0  0  0  0  0
  -16.0618  -11.1734   27.3035 C   0  0  0  0  0  0  0  0  0  0  0  0
  -15.4996  -16.0717   22.6426 C   0  0  0  0  0  0  0  0  0  0  0  0
  -15.1476  -16.4221   23.9382 C   0  0  0  0  0  0  0  0  0  0  0  0
  -15.0237  -15.4500   24.9069 C   0  0  0  0  0  0  0  0  0  0  0  0
  -14.0908   -5.9080   18.0250 N   0  0  0  0  0  0  0  0  0  0  0  0
  -14.7350   -8.7570   22.7304 N   0  0  0  0  0  0  0  0  0  0  0  0
  -15.7328   -9.2598   25.8080 N   0  0  0  0  0  0  0  0  0  0  0  0
  -11.8339   -9.4847   23.0579 O   0  0  0  0  0  0  0  0  0  0  0  0
  -11.7393   -7.3249   23.1602 O   0  0  0  0  0  0  0  0  0  0  0  0
  -17.0852  -11.7030   27.7296 O   0  0  0  0  0  0  0  0  0  0  0  0
  -15.0608  -11.0440   28.0573 O   0  0  0  0  0  0  0  0  0  0  0  0
  -14.6433   -6.9908   24.1547 O   0  0  0  0  0  0  0  0  0  0  0  0
  -18.6570   -7.6756   28.7677 H   0  0  0  0  0  0  0  0  0  0  0  0
  -17.4758   -7.1016   27.5422 H   0  0  0  0  0  0  0  0  0  0  0  0
  -19.1535   -6.4598   27.5422 H   0  0  0  0  0  0  0  0  0  0  0  0
  -18.3860   -9.4207   26.9551 H   0  0  0  0  0  0  0  0  0  0  0  0
  -20.0458   -8.7408   26.8990 H   0  0  0  0  0  0  0  0  0  0  0  0
  -18.8919   -8.9434   24.6256 H   0  0  0  0  0  0  0  0  0  0  0  0
  -19.4665   -7.2767   25.0551 H   0  0  0  0  0  0  0  0  0  0  0  0
  -17.3820   -6.7471   24.2992 H   0  0  0  0  0  0  0  0  0  0  0  0
  -16.9975   -7.1206   26.0408 H   0  0  0  0  0  0  0  0  0  0  0  0
  -16.9290   -9.2933   24.0362 H   0  0  0  0  0  0  0  0  0  0  0  0
  -10.8952   -7.0137   20.8151 H   0  0  0  0  0  0  0  0  0  0  0  0
   -9.1191   -6.9854   19.0711 H   0  0  0  0  0  0  0  0  0  0  0  0
   -9.6749   -6.4350   16.7161 H   0  0  0  0  0  0  0  0  0  0  0  0
  -12.0218   -5.8900   16.0725 H   0  0  0  0  0  0  0  0  0  0  0  0
  -14.1477  -11.0979   25.0233 H   0  0  0  0  0  0  0  0  0  0  0  0
  -15.5346  -11.5935   23.9973 H   0  0  0  0  0  0  0  0  0  0  0  0
  -14.1022  -13.0798   26.1136 H   0  0  0  0  0  0  0  0  0  0  0  0
  -15.9344  -13.0637   26.2950 H   0  0  0  0  0  0  0  0  0  0  0  0
  -15.7041  -12.7092   23.0419 H   0  0  0  0  0  0  0  0  0  0  0  0
  -15.9673  -14.4459   21.2860 H   0  0  0  0  0  0  0  0  0  0  0  0
  -13.5005   -8.7401   21.0040 H   0  0  0  0  0  0  0  0  0  0  0  0
  -14.9492   -6.4900   21.9071 H   0  0  0  0  0  0  0  0  0  0  0  0
  -13.2185   -6.0936   22.2371 H   0  0  0  0  0  0  0  0  0  0  0  0
  -15.7204   -5.9030   19.4332 H   0  0  0  0  0  0  0  0  0  0  0  0
  -17.1278  -10.7859   25.5173 H   0  0  0  0  0  0  0  0  0  0  0  0
  -15.6220  -16.8509   21.8759 H   0  0  0  0  0  0  0  0  0  0  0  0
  -14.9674  -17.4770   24.1923 H   0  0  0  0  0  0  0  0  0  0  0  0
  -14.7693  -15.7274   25.9405 H   0  0  0  0  0  0  0  0  0  0  0  0
  -14.5905   -5.6420   17.1645 H   0  0  0  0  0  0  0  0  0  0  0  0
  -15.1712   -9.6541   22.4736 H   0  0  0  0  0  0  0  0  0  0  0  0
  -14.7085   -9.1861   25.7287 H   0  0  0  0  0  0  0  0  0  0  0  0
  -16.0815   -8.7951   26.6585 H   0  0  0  0  0  0  0  0  0  0  0  0
  1  2  1  0
  2  3  1  0
  3  4  1  0
  5  4  1  0
  5 11  1  0
  5 30  1  0
  6  7  2  0
  6 20  1  0
  6 22  1  0
  7  8  1  0
  8  9  2  0
  9 10  1  0
 10 22  2  0
 11 29  1  0
 11 35  2  0
 12 13  1  0
 23 12  1  0
 13 14  1  0
 14 15  2  0
 14 27  1  0
 15 16  1  0
 16 25  2  0
 17 18  1  0
 17 31  2  0
 17 32  1  0
 18 19  1  0
 18 29  1  0
 19 20  1  0
 20 21  2  0
 21 28  1  0
 22 28  1  0
 23 24  1  0
 23 30  1  0
 24 33  2  0
 24 34  1  0
 25 26  1  0
 26 27  2  0
  1 36  1  0
  1 37  1  0
  1 38  1  0
  2 39  1  0
  2 40  1  0
  3 41  1  0
  3 42  1  0
  4 43  1  0
  4 44  1  0
  5 45  1  6
  7 46  1  0
  8 47  1  0
  9 48  1  0
 10 49  1  0
 12 50  1  0
 12 51  1  0
 13 52  1  0
 13 53  1  0
 15 54  1  0
 16 55  1  0
 18 56  1  6
 19 57  1  0
 19 58  1  0
 21 59  1  0
 23 60  1  6
 25 61  1  0
 26 62  1  0
 27 63  1  0
 28 64  1  0
 29 65  1  0
 30 66  1  0
 30 67  1  0
M  CHG  3  30   1  32  -1  34  -1
M  END
>  <filename_input>  (24) 
7Q27_8KC_docked.sdf

>  <pdb_id>  (24) 
7Q27_8KC

>  <pose_rank>  (24) 
23

>  <num_atoms_heavy>  (24) 
35

>  <num_torsions>  (24) 
14

>  <pose>  (24) 
[-16.346362354019337, -8.58820397085731, 24.6471517922786, 3.764040814102677, 0.23918395671541323, 0.14354433408338546, -1.2641100951549462, 2.3905054644086667, 1.3727353778382636, 3.1504922672095512, 0.600970278210037, 3.6370889740207106, -1.4274581093470415, -2.1990510009028155, -0.8869601266275322, -1.6986389170811653, -0.04818031911015181, -0.5448723762339901, -0.639410659606519, 3.131315672914619]

>  <energy>  (24) 
-656.4012330928011

>  <inter_energy>  (24) 
-726.2078260557117

>  <intra_energy>  (24) 
59.04378277272225

>  <rmsd>  (24) 
9.00532

>  <sdf_rank>  (24) 
0

$$$$

     RDKit          3D

 67 69  0  0  0  0  0  0  0  0999 V2000
  -15.7853  -14.7681   22.1761 C   0  0  0  0  0  0  0  0  0  0  0  0
  -15.2180  -13.7572   23.2641 C   0  0  0  0  0  0  0  0  0  0  0  0
  -16.3144  -13.4668   24.3080 C   0  0  0  0  0  0  0  0  0  0  0  0
  -15.7567  -13.4464   25.7280 C   0  0  0  0  0  0  0  0  0  0  0  0
  -15.2775  -12.0697   26.1550 C   0  0  1  0  0  0  0  0  0  0  0  0
  -16.4229   -7.8148   26.8764 C   0  0  0  0  0  0  0  0  0  0  0  0
  -17.3039   -7.5975   25.8079 C   0  0  0  0  0  0  0  0  0  0  0  0
  -16.8487   -6.9308   24.6776 C   0  0  0  0  0  0  0  0  0  0  0  0
  -15.5329   -6.4882   24.5962 C   0  0  0  0  0  0  0  0  0  0  0  0
  -14.6500   -6.7121   25.6442 C   0  0  0  0  0  0  0  0  0  0  0  0
  -15.8801  -11.6413   27.4803 C   0  0  0  0  0  0  0  0  0  0  0  0
  -12.3752  -11.3046   24.4627 C   0  0  0  0  0  0  0  0  0  0  0  0
  -13.2663  -10.0536   24.5760 C   0  0  0  0  0  0  0  0  0  0  0  0
  -13.6216   -9.3580   23.2170 C   0  0  0  0  0  0  0  0  0  0  0  0
  -12.6458   -8.5680   22.6589 C   0  0  0  0  0  0  0  0  0  0  0  0
  -12.8773   -7.9211   21.4635 C   0  0  0  0  0  0  0  0  0  0  0  0
  -19.1366  -11.2385   28.8493 C   0  0  0  0  0  0  0  0  0  0  0  0
  -17.7633  -10.6170   28.7134 C   0  0  2  0  0  0  0  0  0  0  0  0
  -17.8411   -9.0748   28.7487 C   0  0  0  0  0  0  0  0  0  0  0  0
  -16.5633   -8.4454   28.1333 C   0  0  0  0  0  0  0  0  0  0  0  0
  -15.3083   -8.3589   28.7337 C   0  0  0  0  0  0  0  0  0  0  0  0
  -15.1099   -7.3881   26.7892 C   0  0  0  0  0  0  0  0  0  0  0  0
  -13.0753  -12.4949   25.1577 C   0  0  1  0  0  0  0  0  0  0  0  0
  -12.0627  -13.5305   25.5099 C   0  0  0  0  0  0  0  0  0  0  0  0
  -14.1081   -8.0818   20.8300 C   0  0  0  0  0  0  0  0  0  0  0  0
  -15.0783   -8.8956   21.3969 C   0  0  0  0  0  0  0  0  0  0  0  0
  -14.8377   -9.5212   22.6008 C   0  0  0  0  0  0  0  0  0  0  0  0
  -14.4779   -7.7321   27.9193 N   0  0  0  0  0  0  0  0  0  0  0  0
  -17.1727  -11.0390   27.4374 N   0  0  0  0  0  0  0  0  0  0  0  0
  -13.8161  -12.0390   26.3510 N   0  0  0  0  0  0  0  0  0  0  0  0
  -20.2035  -10.5618   28.9942 O   0  0  0  0  0  0  0  0  0  0  0  0
  -19.2468  -12.4963   28.8300 O   0  0  0  0  0  0  0  0  0  0  0  0
  -12.3106  -14.6824   25.1616 O   0  0  0  0  0  0  0  0  0  0  0  0
  -11.0077  -13.2817   26.1516 O   0  0  0  0  0  0  0  0  0  0  0  0
  -15.3048  -11.7443   28.5189 O   0  0  0  0  0  0  0  0  0  0  0  0
  -16.2635  -15.6201   22.6813 H   0  0  0  0  0  0  0  0  0  0  0  0
  -16.5257  -14.2522   21.5470 H   0  0  0  0  0  0  0  0  0  0  0  0
  -14.9593  -15.1313   21.5470 H   0  0  0  0  0  0  0  0  0  0  0  0
  -14.3453  -14.2048   23.7622 H   0  0  0  0  0  0  0  0  0  0  0  0
  -14.9163  -12.8193   22.7749 H   0  0  0  0  0  0  0  0  0  0  0  0
  -16.7640  -12.4872   24.0884 H   0  0  0  0  0  0  0  0  0  0  0  0
  -17.0639  -14.2696   24.2476 H   0  0  0  0  0  0  0  0  0  0  0  0
  -16.5467  -13.7733   26.4201 H   0  0  0  0  0  0  0  0  0  0  0  0
  -14.8877  -14.1203   25.7511 H   0  0  0  0  0  0  0  0  0  0  0  0
  -15.5888  -11.3950   25.3440 H   0  0  0  0  0  0  0  0  0  0  0  0
  -18.3440   -7.9509   25.8640 H   0  0  0  0  0  0  0  0  0  0  0  0
  -17.5363   -6.7511   23.8380 H   0  0  0  0  0  0  0  0  0  0  0  0
  -15.1894   -5.9575   23.6960 H   0  0  0  0  0  0  0  0  0  0  0  0
  -13.6077   -6.3665   25.5803 H   0  0  0  0  0  0  0  0  0  0  0  0
  -12.2106  -11.5437   23.4016 H   0  0  0  0  0  0  0  0  0  0  0  0
  -11.4066  -11.1125   24.9474 H   0  0  0  0  0  0  0  0  0  0  0  0
  -14.2075  -10.3499   25.0622 H   0  0  0  0  0  0  0  0  0  0  0  0
  -12.6853   -9.3177   25.1513 H   0  0  0  0  0  0  0  0  0  0  0  0
  -11.6773   -8.4513   23.1672 H   0  0  0  0  0  0  0  0  0  0  0  0
  -12.0995   -7.2856   21.0151 H   0  0  0  0  0  0  0  0  0  0  0  0
  -17.1433  -10.9523   29.5579 H   0  0  0  0  0  0  0  0  0  0  0  0
  -18.7188   -8.7445   28.1738 H   0  0  0  0  0  0  0  0  0  0  0  0
  -17.9256   -8.7494   29.7961 H   0  0  0  0  0  0  0  0  0  0  0  0
  -15.0501   -8.7507   29.7286 H   0  0  0  0  0  0  0  0  0  0  0  0
  -13.8070  -12.9404   24.4676 H   0  0  0  0  0  0  0  0  0  0  0  0
  -14.3103   -7.5636   19.8810 H   0  0  0  0  0  0  0  0  0  0  0  0
  -16.0407   -9.0416   20.8847 H   0  0  0  0  0  0  0  0  0  0  0  0
  -15.6143  -10.1468   23.0650 H   0  0  0  0  0  0  0  0  0  0  0  0
  -13.4876   -7.5362   28.1238 H   0  0  0  0  0  0  0  0  0  0  0  0
  -17.6718  -10.9055   26.5463 H   0  0  0  0  0  0  0  0  0  0  0  0
  -13.5321  -11.0727   26.5667 H   0  0  0  0  0  0  0  0  0  0  0  0
  -13.5905  -12.6817   27.1236 H   0  0  0  0  0  0  0  0  0  0  0  0
  1  2  1  0
  2  3  1  0
  3  4  1  0
  5  4  1  0
  5 11  1  0
  5 30  1  0
  6  7  2  0
  6 20  1  0
  6 22  1  0
  7  8  1  0
  8  9  2  0
  9 10  1  0
 10 22  2  0
 11 29  1  0
 11 35  2  0
 12 13  1  0
 23 12  1  0
 13 14  1  0
 14 15  2  0
 14 27  1  0
 15 16  1  0
 16 25  2  0
 17 18  1  0
 17 31  2  0
 17 32  1  0
 18 19  1  0
 18 29  1  0
 19 20  1  0
 20 21  2  0
 21 28  1  0
 22 28  1  0
 23 24  1  0
 23 30  1  0
 24 33  2  0
 24 34  1  0
 25 26  1  0
 26 27  2  0
  1 36  1  0
  1 37  1  0
  1 38  1  0
  2 39  1  0
  2 40  1  0
  3 41  1  0
  3 42  1  0
  4 43  1  0
  4 44  1  0
  5 45  1  6
  7 46  1  0
  8 47  1  0
  9 48  1  0
 10 49  1  0
 12 50  1  0
 12 51  1  0
 13 52  1  0
 13 53  1  0
 15 54  1  0
 16 55  1  0
 18 56  1  1
 19 57  1  0
 19 58  1  0
 21 59  1  0
 23 60  1  6
 25 61  1  0
 26 62  1  0
 27 63  1  0
 28 64  1  0
 29 65  1  0
 30 66  1  0
 30 67  1  0
M  CHG  3  30   1  32  -1  34  -1
M  END
>  <filename_input>  (25) 
7Q27_8KC_docked.sdf

>  <pdb_id>  (25) 
7Q27_8KC

>  <pose_rank>  (25) 
24

>  <num_atoms_heavy>  (25) 
35

>  <num_torsions>  (25) 
14

>  <pose>  (25) 
[-15.277488674269753, -12.069746126892928, 26.155044250100417, 0.6721360087946321, 4.948608696962909, -0.6474034044586935, -0.29294821079974576, -1.095061977261733, -1.8756454850118893, -1.548065653778532, -2.7113060392869373, 3.1864515258573736, -1.460721443402776, -0.6586976936208836, 4.3598426912046175, 4.981373813127418, -0.35350907566720285, 2.4456011955983024, 1.1339105134171115, 1.8952351153853269]

>  <energy>  (25) 
-566.5670135016159

>  <inter_energy>  (25) 
-604.3527871959255

>  <intra_energy>  (25) 
40.663694889952026

>  <rmsd>  (25) 
6.99452

>  <sdf_rank>  (25) 
0

$$$$

     RDKit          3D

 67 69  0  0  0  0  0  0  0  0999 V2000
  -13.9880  -13.2360   21.9090 C   0  0  0  0  0  0  0  0  0  0  0  0
  -14.8880  -11.9260   21.9480 C   0  0  0  0  0  0  0  0  0  0  0  0
  -14.0380  -10.7130   21.5210 C   0  0  0  0  0  0  0  0  0  0  0  0
  -14.8690   -9.4360   21.4410 C   0  0  0  0  0  0  0  0  0  0  0  0
  -14.0270   -8.1980   21.1850 C   0  0  1  0  0  0  0  0  0  0  0  0
  -15.4470   -7.8010   26.0640 C   0  0  0  0  0  0  0  0  0  0  0  0
  -16.1510   -6.6940   25.5700 C   0  0  0  0  0  0  0  0  0  0  0  0
  -17.5380   -6.7410   25.5150 C   0  0  0  0  0  0  0  0  0  0  0  0
  -18.2280   -7.8670   25.9510 C   0  0  0  0  0  0  0  0  0  0  0  0
  -17.5390   -8.9620   26.4550 C   0  0  0  0  0  0  0  0  0  0  0  0
  -12.9160   -8.0420   22.2070 C   0  0  0  0  0  0  0  0  0  0  0  0
  -12.1940   -7.0430   18.0410 C   0  0  0  0  0  0  0  0  0  0  0  0
  -11.5550   -5.6900   17.6760 C   0  0  0  0  0  0  0  0  0  0  0  0
  -10.6690   -5.6940   16.3830 C   0  0  0  0  0  0  0  0  0  0  0  0
  -10.2060   -4.4740   15.9530 C   0  0  0  0  0  0  0  0  0  0  0  0
   -9.4190   -4.3900   14.8240 C   0  0  0  0  0  0  0  0  0  0  0  0
  -11.4990   -8.9080   24.6810 C   0  0  0  0  0  0  0  0  0  0  0  0
  -12.2410   -7.5960   24.5440 C   0  0  2  0  0  0  0  0  0  0  0  0
  -12.8650   -7.1630   25.8890 C   0  0  0  0  0  0  0  0  0  0  0  0
  -14.0720   -8.0680   26.2520 C   0  0  0  0  0  0  0  0  0  0  0  0
  -14.0150   -9.3440   26.8100 C   0  0  0  0  0  0  0  0  0  0  0  0
  -16.1340   -8.9150   26.5120 C   0  0  0  0  0  0  0  0  0  0  0  0
  -12.8230   -6.9470   19.4500 C   0  0  1  0  0  0  0  0  0  0  0  0
  -13.8850   -5.9010   19.4500 C   0  0  0  0  0  0  0  0  0  0  0  0
   -9.0980   -5.5550   14.1300 C   0  0  0  0  0  0  0  0  0  0  0  0
   -9.5590   -6.7820   14.5850 C   0  0  0  0  0  0  0  0  0  0  0  0
  -10.3590   -6.8470   15.7050 C   0  0  0  0  0  0  0  0  0  0  0  0
  -15.2420   -9.8140   26.9490 N   0  0  0  0  0  0  0  0  0  0  0  0
  -13.3080   -7.7530   23.5480 N   0  0  0  0  0  0  0  0  0  0  0  0
  -13.3580   -8.2570   19.8720 N   0  0  0  0  0  0  0  0  0  0  0  0
  -11.9320  -10.0120   24.2220 O   0  0  0  0  0  0  0  0  0  0  0  0
  -10.3930   -8.9280   25.2900 O   0  0  0  0  0  0  0  0  0  0  0  0
  -13.6380   -4.8670   20.0660 O   0  0  0  0  0  0  0  0  0  0  0  0
  -15.0000   -6.0420   18.8810 O   0  0  0  0  0  0  0  0  0  0  0  0
  -11.7600   -8.1030   21.9240 O   0  0  0  0  0  0  0  0  0  0  0  0
  -13.7660  -13.5591   22.9368 H   0  0  0  0  0  0  0  0  0  0  0  0
  -14.5279  -14.0362   21.3816 H   0  0  0  0  0  0  0  0  0  0  0  0
  -13.0474  -13.0191   21.3816 H   0  0  0  0  0  0  0  0  0  0  0  0
  -15.7363  -12.0420   21.2574 H   0  0  0  0  0  0  0  0  0  0  0  0
  -15.2682  -11.7696   22.9683 H   0  0  0  0  0  0  0  0  0  0  0  0
  -13.2320  -10.5674   22.2553 H   0  0  0  0  0  0  0  0  0  0  0  0
  -13.6303  -10.9177   20.5201 H   0  0  0  0  0  0  0  0  0  0  0  0
  -15.5963   -9.5412   20.6225 H   0  0  0  0  0  0  0  0  0  0  0  0
  -15.3643   -9.3029   22.4141 H   0  0  0  0  0  0  0  0  0  0  0  0
  -14.7333   -7.3564   21.2391 H   0  0  0  0  0  0  0  0  0  0  0  0
  -15.6110   -5.7981   25.2297 H   0  0  0  0  0  0  0  0  0  0  0  0
  -18.0966   -5.8785   25.1225 H   0  0  0  0  0  0  0  0  0  0  0  0
  -19.3264   -7.8903   25.8962 H   0  0  0  0  0  0  0  0  0  0  0  0
  -18.0829   -9.8521   26.8042 H   0  0  0  0  0  0  0  0  0  0  0  0
  -12.9742   -7.2911   17.3063 H   0  0  0  0  0  0  0  0  0  0  0  0
  -11.4238   -7.8283   18.0338 H   0  0  0  0  0  0  0  0  0  0  0  0
  -12.3649   -4.9600   17.5306 H   0  0  0  0  0  0  0  0  0  0  0  0
  -10.8791   -5.4392   18.5068 H   0  0  0  0  0  0  0  0  0  0  0  0
  -10.4639   -3.5618   16.5110 H   0  0  0  0  0  0  0  0  0  0  0  0
   -9.0488   -3.4147   14.4751 H   0  0  0  0  0  0  0  0  0  0  0  0
  -11.5260   -6.8219   24.2283 H   0  0  0  0  0  0  0  0  0  0  0  0
  -12.1052   -7.2401   26.6807 H   0  0  0  0  0  0  0  0  0  0  0  0
  -13.2172   -6.1250   25.7968 H   0  0  0  0  0  0  0  0  0  0  0  0
  -13.0938   -9.8758   27.0904 H   0  0  0  0  0  0  0  0  0  0  0  0
  -12.0480   -6.6598   20.1759 H   0  0  0  0  0  0  0  0  0  0  0  0
   -8.4795   -5.5019   13.2219 H   0  0  0  0  0  0  0  0  0  0  0  0
   -9.2855   -7.7040   14.0510 H   0  0  0  0  0  0  0  0  0  0  0  0
  -10.7465   -7.8157   16.0534 H   0  0  0  0  0  0  0  0  0  0  0  0
  -15.4786  -10.7382   27.3373 H   0  0  0  0  0  0  0  0  0  0  0  0
  -14.3004   -7.6583   23.8071 H   0  0  0  0  0  0  0  0  0  0  0  0
  -12.5795   -8.9291   19.9279 H   0  0  0  0  0  0  0  0  0  0  0  0
  -14.0598   -8.5471   19.1762 H   0  0  0  0  0  0  0  0  0  0  0  0
  1  2  1  0
  2  3  1  0
  3  4  1  0
  5  4  1  0
  5 11  1  0
  5 30  1  0
  6  7  2  0
  6 20  1  0
  6 22  1  0
  7  8  1  0
  8  9  2  0
  9 10  1  0
 10 22  2  0
 11 29  1  0
 11 35  2  0
 12 13  1  0
 23 12  1  0
 13 14  1  0
 14 15  2  0
 14 27  1  0
 15 16  1  0
 16 25  2  0
 17 18  1  0
 17 31  2  0
 17 32  1  0
 18 19  1  0
 18 29  1  0
 19 20  1  0
 20 21  2  0
 21 28  1  0
 22 28  1  0
 23 24  1  0
 23 30  1  0
 24 33  2  0
 24 34  1  0
 25 26  1  0
 26 27  2  0
  1 36  1  0
  1 37  1  0
  1 38  1  0
  2 39  1  0
  2 40  1  0
  3 41  1  0
  3 42  1  0
  4 43  1  0
  4 44  1  0
  5 45  1  6
  7 46  1  0
  8 47  1  0
  9 48  1  0
 10 49  1  0
 12 50  1  0
 12 51  1  0
 13 52  1  0
 13 53  1  0
 15 54  1  0
 16 55  1  0
 18 56  1  6
 19 57  1  0
 19 58  1  0
 21 59  1  0
 23 60  1  1
 25 61  1  0
 26 62  1  0
 27 63  1  0
 28 64  1  0
 29 65  1  0
 30 66  1  0
 30 67  1  0
M  CHG  3  30   1  32  -1  34  -1
M  END
>  <filename_input>  (26) 
7Q27_8KC_docked.sdf

>  <pdb_id>  (26) 
7Q27_8KC

>  <pose_rank>  (26) 
25

>  <num_atoms_heavy>  (26) 
35

>  <num_torsions>  (26) 
14

>  <pose>  (26) 
[-14.027, -8.198, 21.185, 1e-06, 1e-06, 1e-06, 0.0, 0.0, 0.0, 0.0, 0.0, 0.0, 0.0, 0.0, 0.0, 0.0, 0.0, 0.0, 0.0, 0.0]

>  <energy>  (26) 
-1017.2558186975391

>  <inter_energy>  (26) 
-1090.1133518639404

>  <intra_energy>  (26) 
65.89017414698469

>  <rmsd>  (26) 
0.0

>  <sdf_rank>  (26) 
0

$$$$
