
     RDKit          3D

 50 51  0  0  0  0  0  0  0  0999 V2000
   34.5273   23.3932   28.7334 N   0  0  0  0  0  0  0  0  0  0  0  0
   32.4350   20.9641   25.9706 C   0  0  1  0  0  0  0  0  0  0  0  0
   32.2823   20.8016   27.4968 C   0  0  1  0  0  0  0  0  0  0  0  0
   32.1471   19.3389   27.9014 C   0  0  0  0  0  0  0  0  0  0  0  0
   34.2424   23.8924   29.9373 C   0  0  0  0  0  0  0  0  0  0  0  0
   35.4294   24.4918   30.7039 C   0  0  0  0  0  0  0  0  0  0  0  0
   36.1251   25.4437   33.0108 C   0  0  0  0  0  0  0  0  0  0  0  0
   37.7229   26.7501   34.9415 C   0  0  0  0  0  0  0  0  0  0  0  0
   37.4139   25.8781   32.6666 C   0  0  0  0  0  0  0  0  0  0  0  0
   37.9374   27.6410   37.2307 C   0  0  0  0  0  0  0  0  0  0  0  0
   39.9126   27.6406   35.6098 C   0  0  0  0  0  0  0  0  0  0  0  0
   38.4823   27.4221   35.8819 N   0  0  0  0  0  0  0  0  0  0  0  0
   38.1898   26.5278   33.6286 C   0  0  0  0  0  0  0  0  0  0  0  0
   36.4394   26.2874   35.2685 C   0  0  0  0  0  0  0  0  0  0  0  0
   35.6623   25.6448   34.3057 C   0  0  0  0  0  0  0  0  0  0  0  0
   35.2181   24.8137   32.1484 C   0  0  0  0  0  0  0  0  0  0  0  0
   36.6649   24.4942   30.0520 C   0  0  0  0  0  0  0  0  0  0  0  0
   37.6490   24.3976   29.5356 N   0  0  0  0  0  0  0  0  0  0  0  0
   33.1098   23.9356   30.4012 O   0  0  0  0  0  0  0  0  0  0  0  0
   33.4672   22.8147   27.9015 C   0  0  2  0  0  0  0  0  0  0  0  0
   33.4296   21.3565   28.1689 O   0  0  0  0  0  0  0  0  0  0  0  0
   33.2231   18.5818   27.3437 O   0  0  0  0  0  0  0  0  0  0  0  0
   31.2421   20.5173   25.3188 O   0  0  0  0  0  0  0  0  0  0  0  0
   32.6755   22.4226   25.5950 C   0  0  2  0  0  0  0  0  0  0  0  0
   32.9746   22.5073   24.2084 O   0  0  0  0  0  0  0  0  0  0  0  0
   33.8168   23.0231   26.4400 C   0  0  1  0  0  0  0  0  0  0  0  0
   33.9307   24.4292   26.2069 O   0  0  0  0  0  0  0  0  0  0  0  0
   35.4969   23.4142   28.3865 H   0  0  0  0  0  0  0  0  0  0  0  0
   33.2990   20.3635   25.6500 H   0  0  0  0  0  0  0  0  0  0  0  0
   31.3659   21.3350   27.7894 H   0  0  0  0  0  0  0  0  0  0  0  0
   32.1743   19.2592   28.9981 H   0  0  0  0  0  0  0  0  0  0  0  0
   31.1917   18.9445   27.5250 H   0  0  0  0  0  0  0  0  0  0  0  0
   37.8075   25.7094   31.6533 H   0  0  0  0  0  0  0  0  0  0  0  0
   38.6839   27.3411   37.9808 H   0  0  0  0  0  0  0  0  0  0  0  0
   37.6952   28.7062   37.3598 H   0  0  0  0  0  0  0  0  0  0  0  0
   37.0256   27.0394   37.3598 H   0  0  0  0  0  0  0  0  0  0  0  0
   40.4583   27.7240   36.5612 H   0  0  0  0  0  0  0  0  0  0  0  0
   40.3097   26.7927   35.0324 H   0  0  0  0  0  0  0  0  0  0  0  0
   40.0383   28.5684   35.0324 H   0  0  0  0  0  0  0  0  0  0  0  0
   39.1962   26.8771   33.3546 H   0  0  0  0  0  0  0  0  0  0  0  0
   36.0458   26.4319   36.2855 H   0  0  0  0  0  0  0  0  0  0  0  0
   34.6579   25.2881   34.5777 H   0  0  0  0  0  0  0  0  0  0  0  0
   34.2481   24.5255   32.5798 H   0  0  0  0  0  0  0  0  0  0  0  0
   32.4990   23.2858   28.1265 H   0  0  0  0  0  0  0  0  0  0  0  0
   33.7694   18.1973   28.0743 H   0  0  0  0  0  0  0  0  0  0  0  0
   30.5688   20.2651   25.9993 H   0  0  0  0  0  0  0  0  0  0  0  0
   31.7656   23.0047   25.8031 H   0  0  0  0  0  0  0  0  0  0  0  0
   33.9205   22.7749   24.0906 H   0  0  0  0  0  0  0  0  0  0  0  0
   34.7660   22.5365   26.1713 H   0  0  0  0  0  0  0  0  0  0  0  0
   33.9693   24.9054   27.0740 H   0  0  0  0  0  0  0  0  0  0  0  0
  1  5  1  0
 20  1  1  0
  2  3  1  0
  2 23  1  0
  2 24  1  0
  3  4  1  0
  3 21  1  0
  4 22  1  0
  5  6  1  0
  5 19  2  0
  6 16  2  3
  6 17  1  0
  7  9  2  0
  7 15  1  0
  7 16  1  0
  8 12  1  0
  8 13  2  0
  8 14  1  0
  9 13  1  0
 10 12  1  0
 11 12  1  0
 14 15  2  0
 17 18  3  0
 20 21  1  0
 20 26  1  0
 24 25  1  0
 24 26  1  0
 26 27  1  0
  1 28  1  0
  2 29  1  6
  3 30  1  1
  4 31  1  0
  4 32  1  0
  9 33  1  0
 10 34  1  0
 10 35  1  0
 10 36  1  0
 11 37  1  0
 11 38  1  0
 11 39  1  0
 13 40  1  0
 14 41  1  0
 15 42  1  0
 16 43  1  0
 20 44  1  1
 22 45  1  0
 23 46  1  0
 24 47  1  6
 25 48  1  0
 26 49  1  6
 27 50  1  0
M  END
>  <filename_input>  (1) 
7Q5I_I0F_docked.sdf

>  <pdb_id>  (1) 
7Q5I_I0F

>  <pose_rank>  (1) 
0

>  <num_atoms_heavy>  (1) 
27

>  <num_torsions>  (1) 
6

>  <pose>  (1) 
[34.52730689219203, 23.39322263511304, 28.73341515857314, 4.7625445840296665, 1.4193247356848906, 3.7383983253847277, -0.06481890794221551, -0.03662622810542443, 0.05563259423025602, 0.06551052455242173, 3.0011578141810085, -1.5868457549282537]

>  <energy>  (1) 
-2205.1057826883825

>  <inter_energy>  (1) 
-2200.1713363510175

>  <intra_energy>  (1) 
19.877037461235187

>  <rmsd>  (1) 
0.154267

>  <sdf_rank>  (1) 
0

$$$$

     RDKit          3D

 50 51  0  0  0  0  0  0  0  0999 V2000
   34.5046   23.4268   28.7620 N   0  0  0  0  0  0  0  0  0  0  0  0
   32.4483   20.9720   25.9949 C   0  0  1  0  0  0  0  0  0  0  0  0
   32.2962   20.8060   27.5208 C   0  0  1  0  0  0  0  0  0  0  0  0
   32.1805   19.3413   27.9239 C   0  0  0  0  0  0  0  0  0  0  0  0
   34.2241   23.8644   29.9906 C   0  0  0  0  0  0  0  0  0  0  0  0
   35.3998   24.4856   30.7572 C   0  0  0  0  0  0  0  0  0  0  0  0
   37.9620   24.3101   31.0981 C   0  0  0  0  0  0  0  0  0  0  0  0
   40.5126   24.8300   32.1989 C   0  0  0  0  0  0  0  0  0  0  0  0
   38.0665   25.0221   32.3024 C   0  0  0  0  0  0  0  0  0  0  0  0
   42.0076   26.2654   33.5346 C   0  0  0  0  0  0  0  0  0  0  0  0
   42.7214   23.9292   32.7854 C   0  0  0  0  0  0  0  0  0  0  0  0
   41.7630   25.0462   32.7489 N   0  0  0  0  0  0  0  0  0  0  0  0
   39.3327   25.2662   32.8380 C   0  0  0  0  0  0  0  0  0  0  0  0
   40.3839   24.1390   30.9846 C   0  0  0  0  0  0  0  0  0  0  0  0
   39.1192   23.8895   30.4536 C   0  0  0  0  0  0  0  0  0  0  0  0
   36.7660   23.9569   30.4593 C   0  0  0  0  0  0  0  0  0  0  0  0
   35.1272   25.6292   31.5117 C   0  0  0  0  0  0  0  0  0  0  0  0
   34.9815   26.5140   32.1753 N   0  0  0  0  0  0  0  0  0  0  0  0
   33.1010   23.8381   30.4783 O   0  0  0  0  0  0  0  0  0  0  0  0
   33.4533   22.8347   27.9284 C   0  0  2  0  0  0  0  0  0  0  0  0
   33.4352   21.3758   28.1945 O   0  0  0  0  0  0  0  0  0  0  0  0
   30.8638   18.8644   27.6399 O   0  0  0  0  0  0  0  0  0  0  0  0
   31.2622   20.5096   25.3414 O   0  0  0  0  0  0  0  0  0  0  0  0
   32.6693   22.4340   25.6208 C   0  0  2  0  0  0  0  0  0  0  0  0
   32.9687   22.5239   24.2346 O   0  0  0  0  0  0  0  0  0  0  0  0
   33.8015   23.0491   26.4675 C   0  0  1  0  0  0  0  0  0  0  0  0
   33.8965   24.4569   26.2357 O   0  0  0  0  0  0  0  0  0  0  0  0
   35.4646   23.5051   28.3969 H   0  0  0  0  0  0  0  0  0  0  0  0
   33.3207   20.3835   25.6746 H   0  0  0  0  0  0  0  0  0  0  0  0
   31.3724   21.3267   27.8129 H   0  0  0  0  0  0  0  0  0  0  0  0
   32.9139   18.7477   27.3583 H   0  0  0  0  0  0  0  0  0  0  0  0
   32.3777   19.2442   29.0017 H   0  0  0  0  0  0  0  0  0  0  0  0
   37.1639   25.3828   32.8174 H   0  0  0  0  0  0  0  0  0  0  0  0
   41.9596   26.0261   34.6072 H   0  0  0  0  0  0  0  0  0  0  0  0
   43.0037   26.6642   33.2922 H   0  0  0  0  0  0  0  0  0  0  0  0
   41.2426   27.0176   33.2922 H   0  0  0  0  0  0  0  0  0  0  0  0
   42.9433   23.6705   33.8312 H   0  0  0  0  0  0  0  0  0  0  0  0
   42.2868   23.0564   32.2761 H   0  0  0  0  0  0  0  0  0  0  0  0
   43.6501   24.2261   32.2761 H   0  0  0  0  0  0  0  0  0  0  0  0
   39.4128   25.8156   33.7876 H   0  0  0  0  0  0  0  0  0  0  0  0
   41.2818   23.7937   30.4511 H   0  0  0  0  0  0  0  0  0  0  0  0
   39.0352   23.3463   29.5008 H   0  0  0  0  0  0  0  0  0  0  0  0
   36.8402   23.2117   29.6535 H   0  0  0  0  0  0  0  0  0  0  0  0
   32.4786   23.2923   28.1529 H   0  0  0  0  0  0  0  0  0  0  0  0
   30.3853   18.6911   28.4891 H   0  0  0  0  0  0  0  0  0  0  0  0
   30.5915   20.2482   26.0211 H   0  0  0  0  0  0  0  0  0  0  0  0
   31.7514   23.0034   25.8285 H   0  0  0  0  0  0  0  0  0  0  0  0
   33.9102   22.8068   24.1180 H   0  0  0  0  0  0  0  0  0  0  0  0
   34.7575   22.5757   26.1993 H   0  0  0  0  0  0  0  0  0  0  0  0
   33.9287   24.9327   27.1033 H   0  0  0  0  0  0  0  0  0  0  0  0
  1  5  1  0
 20  1  1  0
  2  3  1  0
  2 23  1  0
  2 24  1  0
  3  4  1  0
  3 21  1  0
  4 22  1  0
  5  6  1  0
  5 19  2  0
  6 16  2  3
  6 17  1  0
  7  9  2  0
  7 15  1  0
  7 16  1  0
  8 12  1  0
  8 13  2  0
  8 14  1  0
  9 13  1  0
 10 12  1  0
 11 12  1  0
 14 15  2  0
 17 18  3  0
 20 21  1  0
 20 26  1  0
 24 25  1  0
 24 26  1  0
 26 27  1  0
  1 28  1  0
  2 29  1  6
  3 30  1  1
  4 31  1  0
  4 32  1  0
  9 33  1  0
 10 34  1  0
 10 35  1  0
 10 36  1  0
 11 37  1  0
 11 38  1  0
 11 39  1  0
 13 40  1  0
 14 41  1  0
 15 42  1  0
 16 43  1  0
 20 44  1  1
 22 45  1  0
 23 46  1  0
 24 47  1  6
 25 48  1  0
 26 49  1  6
 27 50  1  0
M  END
>  <filename_input>  (2) 
7Q5I_I0F_docked.sdf

>  <pdb_id>  (2) 
7Q5I_I0F

>  <pose_rank>  (2) 
1

>  <num_atoms_heavy>  (2) 
27

>  <num_torsions>  (2) 
6

>  <pose>  (2) 
[34.50463356697303, 23.42675868116649, 28.761958872885305, 4.651186716672045, -2.9005240187899486, -3.045600015710453, -0.010165727719421072, -2.29842295526424, 2.45451836453404, 0.3106439813179434, 5.578028390990925, -4.107887783057255]

>  <energy>  (2) 
-1750.9289555385903

>  <inter_energy>  (2) 
-1756.483844546638

>  <intra_energy>  (2) 
25.685232296475725

>  <rmsd>  (2) 
2.84696

>  <sdf_rank>  (2) 
0

$$$$

     RDKit          3D

 50 51  0  0  0  0  0  0  0  0999 V2000
   33.3536   24.0873   29.4291 N   0  0  0  0  0  0  0  0  0  0  0  0
   31.4941   22.6330   25.9165 C   0  0  1  0  0  0  0  0  0  0  0  0
   32.0054   21.6968   27.0304 C   0  0  1  0  0  0  0  0  0  0  0  0
   32.6125   20.4193   26.4641 C   0  0  0  0  0  0  0  0  0  0  0  0
   33.0132   24.3377   30.6945 C   0  0  0  0  0  0  0  0  0  0  0  0
   34.1168   24.9487   31.5689 C   0  0  0  0  0  0  0  0  0  0  0  0
   36.6164   25.6296   31.5578 C   0  0  0  0  0  0  0  0  0  0  0  0
   38.8017   26.5876   33.0724 C   0  0  0  0  0  0  0  0  0  0  0  0
   37.8063   25.9906   30.9082 C   0  0  0  0  0  0  0  0  0  0  0  0
   39.9296   28.5373   34.0756 C   0  0  0  0  0  0  0  0  0  0  0  0
   40.6946   26.1513   34.5760 C   0  0  0  0  0  0  0  0  0  0  0  0
   39.8519   27.0910   33.8182 N   0  0  0  0  0  0  0  0  0  0  0  0
   38.8756   26.4683   31.6684 C   0  0  0  0  0  0  0  0  0  0  0  0
   37.6092   26.2000   33.7018 C   0  0  0  0  0  0  0  0  0  0  0  0
   36.5393   25.7294   32.9418 C   0  0  0  0  0  0  0  0  0  0  0  0
   35.4501   25.1715   30.9307 C   0  0  0  0  0  0  0  0  0  0  0  0
   33.7322   25.4381   32.8196 C   0  0  0  0  0  0  0  0  0  0  0  0
   33.4839   25.7606   33.8583 N   0  0  0  0  0  0  0  0  0  0  0  0
   31.8873   24.1564   31.1410 O   0  0  0  0  0  0  0  0  0  0  0  0
   32.3728   23.5239   28.4957 C   0  0  2  0  0  0  0  0  0  0  0  0
   33.0083   22.3685   27.8172 O   0  0  0  0  0  0  0  0  0  0  0  0
   32.3561   19.3281   27.3504 O   0  0  0  0  0  0  0  0  0  0  0  0
   30.4185   22.0015   25.2151 O   0  0  0  0  0  0  0  0  0  0  0  0
   30.9880   23.9502   26.4955 C   0  0  2  0  0  0  0  0  0  0  0  0
   30.6827   24.8435   25.4334 O   0  0  0  0  0  0  0  0  0  0  0  0
   32.0335   24.5660   27.4467 C   0  0  1  0  0  0  0  0  0  0  0  0
   31.4952   25.7098   28.1150 O   0  0  0  0  0  0  0  0  0  0  0  0
   34.3102   24.2908   29.1060 H   0  0  0  0  0  0  0  0  0  0  0  0
   32.3323   22.8390   25.2346 H   0  0  0  0  0  0  0  0  0  0  0  0
   31.1386   21.4300   27.6529 H   0  0  0  0  0  0  0  0  0  0  0  0
   32.1643   20.2057   25.4825 H   0  0  0  0  0  0  0  0  0  0  0  0
   33.6991   20.5508   26.3543 H   0  0  0  0  0  0  0  0  0  0  0  0
   37.8956   25.8986   29.8157 H   0  0  0  0  0  0  0  0  0  0  0  0
   39.9392   28.7166   35.1609 H   0  0  0  0  0  0  0  0  0  0  0  0
   40.8507   28.9402   33.6292 H   0  0  0  0  0  0  0  0  0  0  0  0
   39.0570   29.0365   33.6292 H   0  0  0  0  0  0  0  0  0  0  0  0
   40.5481   26.3146   35.6539 H   0  0  0  0  0  0  0  0  0  0  0  0
   40.4140   25.1189   34.3201 H   0  0  0  0  0  0  0  0  0  0  0  0
   41.7513   26.3181   34.3201 H   0  0  0  0  0  0  0  0  0  0  0  0
   39.8045   26.7607   31.1569 H   0  0  0  0  0  0  0  0  0  0  0  0
   37.5183   26.2674   34.7960 H   0  0  0  0  0  0  0  0  0  0  0  0
   35.6110   25.4296   33.4503 H   0  0  0  0  0  0  0  0  0  0  0  0
   35.5234   24.9527   29.8552 H   0  0  0  0  0  0  0  0  0  0  0  0
   31.4611   23.2192   29.0306 H   0  0  0  0  0  0  0  0  0  0  0  0
   32.4293   19.6396   28.2873 H   0  0  0  0  0  0  0  0  0  0  0  0
   29.7760   21.6242   25.8669 H   0  0  0  0  0  0  0  0  0  0  0  0
   30.0759   23.7616   27.0806 H   0  0  0  0  0  0  0  0  0  0  0  0
   30.3861   25.7111   25.8069 H   0  0  0  0  0  0  0  0  0  0  0  0
   32.9187   24.8711   26.8694 H   0  0  0  0  0  0  0  0  0  0  0  0
   31.5568   25.5790   29.0944 H   0  0  0  0  0  0  0  0  0  0  0  0
  1  5  1  0
 20  1  1  0
  2  3  1  0
  2 23  1  0
  2 24  1  0
  3  4  1  0
  3 21  1  0
  4 22  1  0
  5  6  1  0
  5 19  2  0
  6 16  2  3
  6 17  1  0
  7  9  2  0
  7 15  1  0
  7 16  1  0
  8 12  1  0
  8 13  2  0
  8 14  1  0
  9 13  1  0
 10 12  1  0
 11 12  1  0
 14 15  2  0
 17 18  3  0
 20 21  1  0
 20 26  1  0
 24 25  1  0
 24 26  1  0
 26 27  1  0
  1 28  1  0
  2 29  1  6
  3 30  1  1
  4 31  1  0
  4 32  1  0
  9 33  1  0
 10 34  1  0
 10 35  1  0
 10 36  1  0
 11 37  1  0
 11 38  1  0
 11 39  1  0
 13 40  1  0
 14 41  1  0
 15 42  1  0
 16 43  1  0
 20 44  1  1
 22 45  1  0
 23 46  1  0
 24 47  1  1
 25 48  1  0
 26 49  1  6
 27 50  1  0
M  END
>  <filename_input>  (3) 
7Q5I_I0F_docked.sdf

>  <pdb_id>  (3) 
7Q5I_I0F

>  <pose_rank>  (3) 
2

>  <num_atoms_heavy>  (3) 
27

>  <num_torsions>  (3) 
6

>  <pose>  (3) 
[33.35357764406914, 24.087302355538863, 29.429115053432838, -4.850602334977455, 0.802118769268503, -3.664968149569207, 5.564520678187043, 2.777094811013823, -3.3127926803317584, 3.3673132150546246, 1.4374287877224412, 1.598195271741666]

>  <energy>  (3) 
-716.6069400534905

>  <inter_energy>  (3) 
-741.5418397611825

>  <intra_energy>  (3) 
39.17248474475392

>  <rmsd>  (3) 
2.46918

>  <sdf_rank>  (3) 
0

$$$$

     RDKit          3D

 50 51  0  0  0  0  0  0  0  0999 V2000
   33.6983   23.7534   28.8618 N   0  0  0  0  0  0  0  0  0  0  0  0
   32.4466   20.9817   25.9186 C   0  0  1  0  0  0  0  0  0  0  0  0
   32.1361   20.7936   27.4177 C   0  0  1  0  0  0  0  0  0  0  0  0
   32.2203   19.3310   27.8358 C   0  0  0  0  0  0  0  0  0  0  0  0
   34.8738   24.2535   28.4775 C   0  0  0  0  0  0  0  0  0  0  0  0
   35.6562   25.0123   29.5582 C   0  0  0  0  0  0  0  0  0  0  0  0
   36.1093   25.0844   32.1080 C   0  0  0  0  0  0  0  0  0  0  0  0
   36.9426   26.2629   34.5378 C   0  0  0  0  0  0  0  0  0  0  0  0
   37.4014   25.6207   32.2123 C   0  0  0  0  0  0  0  0  0  0  0  0
   36.4250   26.8356   36.8796 C   0  0  0  0  0  0  0  0  0  0  0  0
   38.7333   27.2787   35.8777 C   0  0  0  0  0  0  0  0  0  0  0  0
   37.3276   26.8713   35.7186 N   0  0  0  0  0  0  0  0  0  0  0  0
   37.7975   26.2055   33.4167 C   0  0  0  0  0  0  0  0  0  0  0  0
   35.6629   25.7006   34.4165 C   0  0  0  0  0  0  0  0  0  0  0  0
   35.2653   25.1227   33.2115 C   0  0  0  0  0  0  0  0  0  0  0  0
   35.5571   24.5015   30.9597 C   0  0  0  0  0  0  0  0  0  0  0  0
   36.5577   25.9847   29.1188 C   0  0  0  0  0  0  0  0  0  0  0  0
   37.2414   26.7476   28.6771 N   0  0  0  0  0  0  0  0  0  0  0  0
   35.3485   24.0850   27.3612 O   0  0  0  0  0  0  0  0  0  0  0  0
   32.8741   22.9901   27.9191 C   0  0  2  0  0  0  0  0  0  0  0  0
   33.0697   21.5498   28.2131 O   0  0  0  0  0  0  0  0  0  0  0  0
   30.9056   18.7794   27.9321 O   0  0  0  0  0  0  0  0  0  0  0  0
   31.4462   20.3235   25.1352 O   0  0  0  0  0  0  0  0  0  0  0  0
   32.4622   22.4597   25.5422 C   0  0  2  0  0  0  0  0  0  0  0  0
   32.9121   22.5981   24.2015 O   0  0  0  0  0  0  0  0  0  0  0  0
   33.3600   23.2594   26.5074 C   0  0  1  0  0  0  0  0  0  0  0  0
   33.2439   24.6626   26.2580 O   0  0  0  0  0  0  0  0  0  0  0  0
   33.3679   23.9041   29.8256 H   0  0  0  0  0  0  0  0  0  0  0  0
   33.4388   20.5502   25.7205 H   0  0  0  0  0  0  0  0  0  0  0  0
   31.1085   21.1496   27.5830 H   0  0  0  0  0  0  0  0  0  0  0  0
   32.7980   18.7696   27.0867 H   0  0  0  0  0  0  0  0  0  0  0  0
   32.7166   19.2608   28.8149 H   0  0  0  0  0  0  0  0  0  0  0  0
   38.0926   25.5810   31.3575 H   0  0  0  0  0  0  0  0  0  0  0  0
   37.0179   26.8590   37.8058 H   0  0  0  0  0  0  0  0  0  0  0  0
   35.7556   27.7080   36.8506 H   0  0  0  0  0  0  0  0  0  0  0  0
   35.8265   25.9131   36.8506 H   0  0  0  0  0  0  0  0  0  0  0  0
   38.9758   27.3490   36.9484 H   0  0  0  0  0  0  0  0  0  0  0  0
   39.3873   26.5332   35.4018 H   0  0  0  0  0  0  0  0  0  0  0  0
   38.8872   28.2585   35.4018 H   0  0  0  0  0  0  0  0  0  0  0  0
   38.8072   26.6349   33.4940 H   0  0  0  0  0  0  0  0  0  0  0  0
   34.9726   25.7157   35.2728 H   0  0  0  0  0  0  0  0  0  0  0  0
   34.2587   24.6863   33.1324 H   0  0  0  0  0  0  0  0  0  0  0  0
   34.9910   23.5696   31.1047 H   0  0  0  0  0  0  0  0  0  0  0  0
   31.8158   23.2752   28.0124 H   0  0  0  0  0  0  0  0  0  0  0  0
   30.6600   18.6763   28.8856 H   0  0  0  0  0  0  0  0  0  0  0  0
   30.7887   19.8908   25.7356 H   0  0  0  0  0  0  0  0  0  0  0  0
   31.4427   22.8646   25.6234 H   0  0  0  0  0  0  0  0  0  0  0  0
   33.8584   22.8892   24.1993 H   0  0  0  0  0  0  0  0  0  0  0  0
   34.4081   22.9556   26.3688 H   0  0  0  0  0  0  0  0  0  0  0  0
   33.2038   25.1486   27.1196 H   0  0  0  0  0  0  0  0  0  0  0  0
  1  5  1  0
 20  1  1  0
  2  3  1  0
  2 23  1  0
  2 24  1  0
  3  4  1  0
  3 21  1  0
  4 22  1  0
  5  6  1  0
  5 19  2  0
  6 16  2  3
  6 17  1  0
  7  9  2  0
  7 15  1  0
  7 16  1  0
  8 12  1  0
  8 13  2  0
  8 14  1  0
  9 13  1  0
 10 12  1  0
 11 12  1  0
 14 15  2  0
 17 18  3  0
 20 21  1  0
 20 26  1  0
 24 25  1  0
 24 26  1  0
 26 27  1  0
  1 28  1  0
  2 29  1  1
  3 30  1  6
  4 31  1  0
  4 32  1  0
  9 33  1  0
 10 34  1  0
 10 35  1  0
 10 36  1  0
 11 37  1  0
 11 38  1  0
 11 39  1  0
 13 40  1  0
 14 41  1  0
 15 42  1  0
 16 43  1  0
 20 44  1  6
 22 45  1  0
 23 46  1  0
 24 47  1  6
 25 48  1  0
 26 49  1  1
 27 50  1  0
M  END
>  <filename_input>  (4) 
7Q5I_I0F_docked.sdf

>  <pdb_id>  (4) 
7Q5I_I0F

>  <pose_rank>  (4) 
3

>  <num_atoms_heavy>  (4) 
27

>  <num_torsions>  (4) 
6

>  <pose>  (4) 
[33.698291029638476, 23.75335588366718, 28.861797583177015, 2.171943165470129, 1.574146607625118, 2.034152521545651, 3.318314073955954, 3.5605686159622927, -2.6737647958884887, -0.6824153264297981, 3.0750342530020145, -0.30790747472235885]

>  <energy>  (4) 
-1550.019893221046

>  <inter_energy>  (4) 
-1644.0911264507495

>  <intra_energy>  (4) 
107.37565599536302

>  <rmsd>  (4) 
1.34802

>  <sdf_rank>  (4) 
0

$$$$

     RDKit          3D

 50 51  0  0  0  0  0  0  0  0999 V2000
   34.5789   23.4150   28.5751 N   0  0  0  0  0  0  0  0  0  0  0  0
   31.1165   21.4682   27.1147 C   0  0  1  0  0  0  0  0  0  0  0  0
   31.6526   22.7763   26.4979 C   0  0  1  0  0  0  0  0  0  0  0  0
   30.5244   23.7069   26.0710 C   0  0  0  0  0  0  0  0  0  0  0  0
   34.1548   23.9626   29.7153 C   0  0  0  0  0  0  0  0  0  0  0  0
   35.1981   24.7861   30.4829 C   0  0  0  0  0  0  0  0  0  0  0  0
   36.1546   25.2077   32.8534 C   0  0  0  0  0  0  0  0  0  0  0  0
   37.5576   26.6242   34.8565 C   0  0  0  0  0  0  0  0  0  0  0  0
   37.4407   25.6993   32.5845 C   0  0  0  0  0  0  0  0  0  0  0  0
   37.5170   27.7064   37.0717 C   0  0  0  0  0  0  0  0  0  0  0  0
   39.6827   27.4898   35.7333 C   0  0  0  0  0  0  0  0  0  0  0  0
   38.2205   27.3488   35.8303 N   0  0  0  0  0  0  0  0  0  0  0  0
   38.1197   26.4028   33.5814 C   0  0  0  0  0  0  0  0  0  0  0  0
   36.2792   26.1043   35.1092 C   0  0  0  0  0  0  0  0  0  0  0  0
   35.5988   25.4077   34.1114 C   0  0  0  0  0  0  0  0  0  0  0  0
   35.3375   24.5190   31.9472 C   0  0  0  0  0  0  0  0  0  0  0  0
   36.0729   25.5642   29.7208 C   0  0  0  0  0  0  0  0  0  0  0  0
   36.8237   26.1034   29.0962 N   0  0  0  0  0  0  0  0  0  0  0  0
   33.0013   23.8792   30.1181 O   0  0  0  0  0  0  0  0  0  0  0  0
   33.6621   22.6251   27.7467 C   0  0  2  0  0  0  0  0  0  0  0  0
   32.4787   23.4694   27.4534 O   0  0  0  0  0  0  0  0  0  0  0  0
   30.5829   23.9218   24.6595 O   0  0  0  0  0  0  0  0  0  0  0  0
   30.3949   20.7307   26.1232 O   0  0  0  0  0  0  0  0  0  0  0  0
   32.2567   20.5973   27.6322 C   0  0  2  0  0  0  0  0  0  0  0  0
   31.7173   19.4874   28.3367 O   0  0  0  0  0  0  0  0  0  0  0  0
   33.2009   21.4147   28.5363 C   0  0  1  0  0  0  0  0  0  0  0  0
   34.3551   20.6462   28.8853 O   0  0  0  0  0  0  0  0  0  0  0  0
   35.5553   23.5476   28.2751 H   0  0  0  0  0  0  0  0  0  0  0  0
   30.4577   21.7338   27.9546 H   0  0  0  0  0  0  0  0  0  0  0  0
   32.2375   22.4993   25.6084 H   0  0  0  0  0  0  0  0  0  0  0  0
   29.5573   23.2520   26.3315 H   0  0  0  0  0  0  0  0  0  0  0  0
   30.6320   24.6707   26.5902 H   0  0  0  0  0  0  0  0  0  0  0  0
   37.9075   25.5330   31.6024 H   0  0  0  0  0  0  0  0  0  0  0  0
   38.1219   27.3989   37.9375 H   0  0  0  0  0  0  0  0  0  0  0  0
   37.3586   28.7945   37.1030 H   0  0  0  0  0  0  0  0  0  0  0  0
   36.5446   27.1932   37.1030 H   0  0  0  0  0  0  0  0  0  0  0  0
   40.1149   27.5315   36.7439 H   0  0  0  0  0  0  0  0  0  0  0  0
   40.0991   26.6277   35.1917 H   0  0  0  0  0  0  0  0  0  0  0  0
   39.9267   28.4157   35.1917 H   0  0  0  0  0  0  0  0  0  0  0  0
   39.1239   26.7967   33.3659 H   0  0  0  0  0  0  0  0  0  0  0  0
   35.8134   26.2464   36.0955 H   0  0  0  0  0  0  0  0  0  0  0  0
   34.5971   25.0065   34.3252 H   0  0  0  0  0  0  0  0  0  0  0  0
   34.7349   23.6947   32.3563 H   0  0  0  0  0  0  0  0  0  0  0  0
   34.1597   22.3016   26.8205 H   0  0  0  0  0  0  0  0  0  0  0  0
   30.8386   24.8611   24.4791 H   0  0  0  0  0  0  0  0  0  0  0  0
   29.7762   20.0984   26.5676 H   0  0  0  0  0  0  0  0  0  0  0  0
   32.8472   20.2302   26.7798 H   0  0  0  0  0  0  0  0  0  0  0  0
   31.7943   19.6459   29.3109 H   0  0  0  0  0  0  0  0  0  0  0  0
   32.6695   21.7020   29.4556 H   0  0  0  0  0  0  0  0  0  0  0  0
   34.4319   20.5951   29.8710 H   0  0  0  0  0  0  0  0  0  0  0  0
  1  5  1  0
 20  1  1  0
  2  3  1  0
  2 23  1  0
  2 24  1  0
  3  4  1  0
  3 21  1  0
  4 22  1  0
  5  6  1  0
  5 19  2  0
  6 16  2  3
  6 17  1  0
  7  9  2  0
  7 15  1  0
  7 16  1  0
  8 12  1  0
  8 13  2  0
  8 14  1  0
  9 13  1  0
 10 12  1  0
 11 12  1  0
 14 15  2  0
 17 18  3  0
 20 21  1  0
 20 26  1  0
 24 25  1  0
 24 26  1  0
 26 27  1  0
  1 28  1  0
  2 29  1  1
  3 30  1  6
  4 31  1  0
  4 32  1  0
  9 33  1  0
 10 34  1  0
 10 35  1  0
 10 36  1  0
 11 37  1  0
 11 38  1  0
 11 39  1  0
 13 40  1  0
 14 41  1  0
 15 42  1  0
 16 43  1  0
 20 44  1  6
 22 45  1  0
 23 46  1  0
 24 47  1  6
 25 48  1  0
 26 49  1  1
 27 50  1  0
M  END
>  <filename_input>  (5) 
7Q5I_I0F_docked.sdf

>  <pdb_id>  (5) 
7Q5I_I0F

>  <pose_rank>  (5) 
4

>  <num_atoms_heavy>  (5) 
27

>  <num_torsions>  (5) 
6

>  <pose>  (5) 
[34.57889724259938, 23.414979081025837, 28.575082661340154, -0.13144616099330134, -0.07458601846209126, 0.1029963126383997, -3.761408706777497, 3.2688433904102085, -5.595102834104673, -0.5807896138879214, -3.4136767996546507, -1.846703502750254]

>  <energy>  (5) 
-1070.134602634174

>  <inter_energy>  (5) 
-1078.662304512546

>  <intra_energy>  (5) 
39.31388101939919

>  <rmsd>  (5) 
2.38502

>  <sdf_rank>  (5) 
0

$$$$

     RDKit          3D

 50 51  0  0  0  0  0  0  0  0999 V2000
   41.7769   22.8434   29.9293 N   0  0  0  0  0  0  0  0  0  0  0  0
   43.9306   20.6629   27.0107 C   0  0  1  0  0  0  0  0  0  0  0  0
   42.6326   20.1299   27.6511 C   0  0  1  0  0  0  0  0  0  0  0  0
   42.6921   18.6259   27.8872 C   0  0  0  0  0  0  0  0  0  0  0  0
   40.5734   23.4072   30.0457 C   0  0  0  0  0  0  0  0  0  0  0  0
   40.2678   24.0407   31.4100 C   0  0  0  0  0  0  0  0  0  0  0  0
   38.4917   25.4281   32.6877 C   0  0  0  0  0  0  0  0  0  0  0  0
   37.8722   26.9453   34.9902 C   0  0  0  0  0  0  0  0  0  0  0  0
   37.2140   25.3325   33.2591 C   0  0  0  0  0  0  0  0  0  0  0  0
   36.2121   27.7009   36.6494 C   0  0  0  0  0  0  0  0  0  0  0  0
   38.7110   28.1212   36.9771 C   0  0  0  0  0  0  0  0  0  0  0  0
   37.5910   27.6626   36.1387 N   0  0  0  0  0  0  0  0  0  0  0  0
   36.9239   26.0830   34.4002 C   0  0  0  0  0  0  0  0  0  0  0  0
   39.1359   27.0408   34.3883 C   0  0  0  0  0  0  0  0  0  0  0  0
   39.4276   26.2861   33.2528 C   0  0  0  0  0  0  0  0  0  0  0  0
   38.9422   24.7129   31.5701 C   0  0  0  0  0  0  0  0  0  0  0  0
   41.1574   23.7593   32.4497 C   0  0  0  0  0  0  0  0  0  0  0  0
   41.7921   23.4933   33.3277 N   0  0  0  0  0  0  0  0  0  0  0  0
   39.7686   23.4805   29.1256 O   0  0  0  0  0  0  0  0  0  0  0  0
   42.1867   22.2267   28.6635 C   0  0  2  0  0  0  0  0  0  0  0  0
   42.4031   20.7814   28.9155 O   0  0  0  0  0  0  0  0  0  0  0  0
   44.0097   18.2524   28.2952 O   0  0  0  0  0  0  0  0  0  0  0  0
   44.0890   20.0978   25.7056 O   0  0  0  0  0  0  0  0  0  0  0  0
   43.8949   22.1821   26.8801 C   0  0  2  0  0  0  0  0  0  0  0  0
   45.1651   22.6459   26.4432 O   0  0  0  0  0  0  0  0  0  0  0  0
   43.5033   22.8363   28.2201 C   0  0  1  0  0  0  0  0  0  0  0  0
   43.3082   24.2433   28.0563 O   0  0  0  0  0  0  0  0  0  0  0  0
   42.4215   22.8412   30.7326 H   0  0  0  0  0  0  0  0  0  0  0  0
   44.7715   20.3780   27.6601 H   0  0  0  0  0  0  0  0  0  0  0  0
   41.8131   20.3450   26.9495 H   0  0  0  0  0  0  0  0  0  0  0  0
   41.9744   18.3510   28.6742 H   0  0  0  0  0  0  0  0  0  0  0  0
   42.4379   18.1011   26.9545 H   0  0  0  0  0  0  0  0  0  0  0  0
   36.4517   24.6757   32.8145 H   0  0  0  0  0  0  0  0  0  0  0  0
   36.2283   27.7004   37.7493 H   0  0  0  0  0  0  0  0  0  0  0  0
   35.7132   28.6132   36.2905 H   0  0  0  0  0  0  0  0  0  0  0  0
   35.6635   26.8176   36.2905 H   0  0  0  0  0  0  0  0  0  0  0  0
   38.4434   28.0116   38.0384 H   0  0  0  0  0  0  0  0  0  0  0  0
   39.6035   27.5161   36.7596 H   0  0  0  0  0  0  0  0  0  0  0  0
   38.9228   29.1785   36.7596 H   0  0  0  0  0  0  0  0  0  0  0  0
   35.9250   25.9994   34.8533 H   0  0  0  0  0  0  0  0  0  0  0  0
   39.8974   27.7116   34.8127 H   0  0  0  0  0  0  0  0  0  0  0  0
   40.4231   26.3720   32.7929 H   0  0  0  0  0  0  0  0  0  0  0  0
   38.2470   24.6383   30.7209 H   0  0  0  0  0  0  0  0  0  0  0  0
   41.4205   22.3855   27.8904 H   0  0  0  0  0  0  0  0  0  0  0  0
   44.0576   18.2388   29.2839 H   0  0  0  0  0  0  0  0  0  0  0  0
   44.3553   19.1478   25.7875 H   0  0  0  0  0  0  0  0  0  0  0  0
   43.1340   22.4637   26.1373 H   0  0  0  0  0  0  0  0  0  0  0  0
   45.7296   22.8520   27.2300 H   0  0  0  0  0  0  0  0  0  0  0  0
   44.3026   22.6680   28.9569 H   0  0  0  0  0  0  0  0  0  0  0  0
   43.2485   24.6739   28.9457 H   0  0  0  0  0  0  0  0  0  0  0  0
  1  5  1  0
 20  1  1  0
  2  3  1  0
  2 23  1  0
  2 24  1  0
  3  4  1  0
  3 21  1  0
  4 22  1  0
  5  6  1  0
  5 19  2  0
  6 16  2  3
  6 17  1  0
  7  9  2  0
  7 15  1  0
  7 16  1  0
  8 12  1  0
  8 13  2  0
  8 14  1  0
  9 13  1  0
 10 12  1  0
 11 12  1  0
 14 15  2  0
 17 18  3  0
 20 21  1  0
 20 26  1  0
 24 25  1  0
 24 26  1  0
 26 27  1  0
  1 28  1  0
  2 29  1  1
  3 30  1  6
  4 31  1  0
  4 32  1  0
  9 33  1  0
 10 34  1  0
 10 35  1  0
 10 36  1  0
 11 37  1  0
 11 38  1  0
 11 39  1  0
 13 40  1  0
 14 41  1  0
 15 42  1  0
 16 43  1  0
 20 44  1  6
 22 45  1  0
 23 46  1  0
 24 47  1  6
 25 48  1  0
 26 49  1  1
 27 50  1  0
M  END
>  <filename_input>  (6) 
7Q5I_I0F_docked.sdf

>  <pdb_id>  (6) 
7Q5I_I0F

>  <pose_rank>  (6) 
5

>  <num_atoms_heavy>  (6) 
27

>  <num_torsions>  (6) 
6

>  <pose>  (6) 
[41.77688372819548, 22.84337692302132, 29.929287564702932, 0.24916389559694285, 5.002130013374764, 0.4043994960066016, -6.765586932974543, -0.30005420802457056, -0.17557465246564974, 16.54494992174997, -0.2960326025969522, -2.5161908063348664]

>  <energy>  (6) 
-502.67667227148115

>  <inter_energy>  (6) 
-488.00400806744113

>  <intra_energy>  (6) 
14.5502108514728

>  <rmsd>  (6) 
7.55492

>  <sdf_rank>  (6) 
0

$$$$

     RDKit          3D

 50 51  0  0  0  0  0  0  0  0999 V2000
   40.2888   24.0509   31.6495 N   0  0  0  0  0  0  0  0  0  0  0  0
   43.7990   21.6960   31.8601 C   0  0  1  0  0  0  0  0  0  0  0  0
   43.2078   22.1823   30.5211 C   0  0  1  0  0  0  0  0  0  0  0  0
   43.3432   21.1318   29.4259 C   0  0  0  0  0  0  0  0  0  0  0  0
   39.6641   24.3578   30.5114 C   0  0  0  0  0  0  0  0  0  0  0  0
   38.2047   24.8102   30.6579 C   0  0  0  0  0  0  0  0  0  0  0  0
   35.9633   24.9921   29.3715 C   0  0  0  0  0  0  0  0  0  0  0  0
   33.2766   25.6983   28.8518 C   0  0  0  0  0  0  0  0  0  0  0  0
   35.3005   25.8813   30.2307 C   0  0  0  0  0  0  0  0  0  0  0  0
   30.9930   26.1595   29.6595 C   0  0  0  0  0  0  0  0  0  0  0  0
   31.6745   26.6372   27.2438 C   0  0  0  0  0  0  0  0  0  0  0  0
   31.9743   26.0671   28.5676 N   0  0  0  0  0  0  0  0  0  0  0  0
   33.9753   26.2263   29.9582 C   0  0  0  0  0  0  0  0  0  0  0  0
   33.9533   24.7942   28.0193 C   0  0  0  0  0  0  0  0  0  0  0  0
   35.2787   24.4551   28.2878 C   0  0  0  0  0  0  0  0  0  0  0  0
   37.2977   24.5821   29.4917 C   0  0  0  0  0  0  0  0  0  0  0  0
   37.7914   25.2044   31.9328 C   0  0  0  0  0  0  0  0  0  0  0  0
   37.5559   25.5401   32.9703 N   0  0  0  0  0  0  0  0  0  0  0  0
   40.2096   24.3443   29.4151 O   0  0  0  0  0  0  0  0  0  0  0  0
   41.6927   23.6274   31.6330 C   0  0  2  0  0  0  0  0  0  0  0  0
   41.8107   22.4944   30.6835 O   0  0  0  0  0  0  0  0  0  0  0  0
   42.6299   21.5529   28.2614 O   0  0  0  0  0  0  0  0  0  0  0  0
   45.2095   21.5003   31.7190 O   0  0  0  0  0  0  0  0  0  0  0  0
   43.5596   22.7158   32.9687 C   0  0  2  0  0  0  0  0  0  0  0  0
   43.9682   22.1624   34.2121 O   0  0  0  0  0  0  0  0  0  0  0  0
   42.0763   23.1336   33.0153 C   0  0  1  0  0  0  0  0  0  0  0  0
   41.8838   24.2075   33.9396 O   0  0  0  0  0  0  0  0  0  0  0  0
   39.7825   24.1117   32.5444 H   0  0  0  0  0  0  0  0  0  0  0  0
   43.3024   20.7516   32.1276 H   0  0  0  0  0  0  0  0  0  0  0  0
   43.7732   23.0777   30.2234 H   0  0  0  0  0  0  0  0  0  0  0  0
   44.4062   21.0001   29.1754 H   0  0  0  0  0  0  0  0  0  0  0  0
   42.9260   20.1787   29.7829 H   0  0  0  0  0  0  0  0  0  0  0  0
   35.8175   26.3007   31.1064 H   0  0  0  0  0  0  0  0  0  0  0  0
   31.5148   26.1104   30.6266 H   0  0  0  0  0  0  0  0  0  0  0  0
   30.4493   27.1128   29.5842 H   0  0  0  0  0  0  0  0  0  0  0  0
   30.2810   25.3244   29.5842 H   0  0  0  0  0  0  0  0  0  0  0  0
   31.1657   27.6045   27.3678 H   0  0  0  0  0  0  0  0  0  0  0  0
   32.6118   26.7846   26.6872 H   0  0  0  0  0  0  0  0  0  0  0  0
   31.0220   25.9484   26.6872 H   0  0  0  0  0  0  0  0  0  0  0  0
   33.4599   26.9316   30.6267 H   0  0  0  0  0  0  0  0  0  0  0  0
   33.4376   24.3524   27.1539 H   0  0  0  0  0  0  0  0  0  0  0  0
   35.7954   23.7450   27.6254 H   0  0  0  0  0  0  0  0  0  0  0  0
   37.7229   24.0344   28.6377 H   0  0  0  0  0  0  0  0  0  0  0  0
   42.3449   24.4629   31.3387 H   0  0  0  0  0  0  0  0  0  0  0  0
   41.8102   22.0367   28.5336 H   0  0  0  0  0  0  0  0  0  0  0  0
   45.6259   21.4425   32.6153 H   0  0  0  0  0  0  0  0  0  0  0  0
   44.1535   23.6188   32.7641 H   0  0  0  0  0  0  0  0  0  0  0  0
   43.5780   22.6909   34.9527 H   0  0  0  0  0  0  0  0  0  0  0  0
   41.4641   22.2754   33.3294 H   0  0  0  0  0  0  0  0  0  0  0  0
   41.9458   23.8614   34.8650 H   0  0  0  0  0  0  0  0  0  0  0  0
  1  5  1  0
 20  1  1  0
  2  3  1  0
  2 23  1  0
  2 24  1  0
  3  4  1  0
  3 21  1  0
  4 22  1  0
  5  6  1  0
  5 19  2  0
  6 16  2  3
  6 17  1  0
  7  9  2  0
  7 15  1  0
  7 16  1  0
  8 12  1  0
  8 13  2  0
  8 14  1  0
  9 13  1  0
 10 12  1  0
 11 12  1  0
 14 15  2  0
 17 18  3  0
 20 21  1  0
 20 26  1  0
 24 25  1  0
 24 26  1  0
 26 27  1  0
  1 28  1  0
  2 29  1  1
  3 30  1  6
  4 31  1  0
  4 32  1  0
  9 33  1  0
 10 34  1  0
 10 35  1  0
 10 36  1  0
 11 37  1  0
 11 38  1  0
 11 39  1  0
 13 40  1  0
 14 41  1  0
 15 42  1  0
 16 43  1  0
 20 44  1  6
 22 45  1  0
 23 46  1  0
 24 47  1  6
 25 48  1  0
 26 49  1  1
 27 50  1  0
M  END
>  <filename_input>  (7) 
7Q5I_I0F_docked.sdf

>  <pdb_id>  (7) 
7Q5I_I0F

>  <pose_rank>  (7) 
6

>  <num_atoms_heavy>  (7) 
27

>  <num_torsions>  (7) 
6

>  <pose>  (7) 
[40.28881982412035, 24.050879881675115, 31.649522009255616, -0.18444837773281358, 3.839231136474947, -0.1698108507652368, 13.191451069579777, 2.055048621126158, 0.31488749340673167, 0.2716048907977204, -0.8880967278914349, -0.008589171076528408]

>  <energy>  (7) 
-386.0451853828099

>  <inter_energy>  (7) 
-400.3676298112095

>  <intra_energy>  (7) 
29.47963000223134

>  <rmsd>  (7) 
9.14818

>  <sdf_rank>  (7) 
0

$$$$

     RDKit          3D

 50 51  0  0  0  0  0  0  0  0999 V2000
   39.2875   24.5617   31.1275 N   0  0  0  0  0  0  0  0  0  0  0  0
   43.1436   22.8707   31.5546 C   0  0  1  0  0  0  0  0  0  0  0  0
   42.5605   23.2654   30.1823 C   0  0  1  0  0  0  0  0  0  0  0  0
   42.9516   22.2746   29.0930 C   0  0  0  0  0  0  0  0  0  0  0  0
   38.7510   25.4494   30.2885 C   0  0  0  0  0  0  0  0  0  0  0  0
   37.2196   25.5483   30.3191 C   0  0  0  0  0  0  0  0  0  0  0  0
   35.1413   25.8379   28.7996 C   0  0  0  0  0  0  0  0  0  0  0  0
   32.3440   25.9166   28.4047 C   0  0  0  0  0  0  0  0  0  0  0  0
   34.5343   27.0266   28.3673 C   0  0  0  0  0  0  0  0  0  0  0  0
   30.2405   27.1994   28.3055 C   0  0  0  0  0  0  0  0  0  0  0  0
   30.3555   24.7658   27.5353 C   0  0  0  0  0  0  0  0  0  0  0  0
   30.9798   25.9341   28.1779 N   0  0  0  0  0  0  0  0  0  0  0  0
   33.1522   27.0491   28.1702 C   0  0  0  0  0  0  0  0  0  0  0  0
   32.9707   24.7458   28.8574 C   0  0  0  0  0  0  0  0  0  0  0  0
   34.3516   24.7215   29.0476 C   0  0  0  0  0  0  0  0  0  0  0  0
   36.5146   25.6499   29.0048 C   0  0  0  0  0  0  0  0  0  0  0  0
   36.5975   25.3263   31.5500 C   0  0  0  0  0  0  0  0  0  0  0  0
   36.1853   25.1768   32.5758 N   0  0  0  0  0  0  0  0  0  0  0  0
   39.4133   26.1898   29.5723 O   0  0  0  0  0  0  0  0  0  0  0  0
   40.7429   24.3970   31.2004 C   0  0  2  0  0  0  0  0  0  0  0  0
   41.1225   23.3194   30.2549 O   0  0  0  0  0  0  0  0  0  0  0  0
   41.8324   21.4481   28.7669 O   0  0  0  0  0  0  0  0  0  0  0  0
   44.5723   22.9333   31.5048 O   0  0  0  0  0  0  0  0  0  0  0  0
   42.6551   23.8126   32.6504 C   0  0  2  0  0  0  0  0  0  0  0  0
   43.0772   23.3207   33.9149 O   0  0  0  0  0  0  0  0  0  0  0  0
   41.1209   23.9570   32.6022 C   0  0  1  0  0  0  0  0  0  0  0  0
   40.6803   24.9634   33.5174 O   0  0  0  0  0  0  0  0  0  0  0  0
   38.6764   23.9890   31.7271 H   0  0  0  0  0  0  0  0  0  0  0  0
   42.8091   21.8483   31.7844 H   0  0  0  0  0  0  0  0  0  0  0  0
   42.9732   24.2525   29.9266 H   0  0  0  0  0  0  0  0  0  0  0  0
   43.2726   22.8252   28.1965 H   0  0  0  0  0  0  0  0  0  0  0  0
   43.7764   21.6433   29.4550 H   0  0  0  0  0  0  0  0  0  0  0  0
   35.1385   27.9277   28.1861 H   0  0  0  0  0  0  0  0  0  0  0  0
   30.1016   27.4370   29.3705 H   0  0  0  0  0  0  0  0  0  0  0  0
   30.8090   28.0067   27.8207 H   0  0  0  0  0  0  0  0  0  0  0  0
   29.2580   27.1005   27.8207 H   0  0  0  0  0  0  0  0  0  0  0  0
   29.9867   24.0756   28.3083 H   0  0  0  0  0  0  0  0  0  0  0  0
   29.5146   25.0978   26.9087 H   0  0  0  0  0  0  0  0  0  0  0  0
   31.0989   24.2512   26.9087 H   0  0  0  0  0  0  0  0  0  0  0  0
   32.6787   27.9787   27.8214 H   0  0  0  0  0  0  0  0  0  0  0  0
   32.3719   23.8461   29.0625 H   0  0  0  0  0  0  0  0  0  0  0  0
   34.8280   23.7958   29.4028 H   0  0  0  0  0  0  0  0  0  0  0  0
   37.1400   25.5684   28.1035 H   0  0  0  0  0  0  0  0  0  0  0  0
   41.2514   25.3406   30.9534 H   0  0  0  0  0  0  0  0  0  0  0  0
   41.4026   21.1307   29.6004 H   0  0  0  0  0  0  0  0  0  0  0  0
   44.9343   22.9491   32.4261 H   0  0  0  0  0  0  0  0  0  0  0  0
   43.0886   24.8107   32.4894 H   0  0  0  0  0  0  0  0  0  0  0  0
   42.6342   23.8369   34.6343 H   0  0  0  0  0  0  0  0  0  0  0  0
   40.6544   22.9979   32.8715 H   0  0  0  0  0  0  0  0  0  0  0  0
   40.8182   24.6485   34.4457 H   0  0  0  0  0  0  0  0  0  0  0  0
  1  5  1  0
 20  1  1  0
  2  3  1  0
  2 23  1  0
  2 24  1  0
  3  4  1  0
  3 21  1  0
  4 22  1  0
  5  6  1  0
  5 19  2  0
  6 16  2  3
  6 17  1  0
  7  9  2  0
  7 15  1  0
  7 16  1  0
  8 12  1  0
  8 13  2  0
  8 14  1  0
  9 13  1  0
 10 12  1  0
 11 12  1  0
 14 15  2  0
 17 18  3  0
 20 21  1  0
 20 26  1  0
 24 25  1  0
 24 26  1  0
 26 27  1  0
  1 28  1  0
  2 29  1  1
  3 30  1  6
  4 31  1  0
  4 32  1  0
  9 33  1  0
 10 34  1  0
 10 35  1  0
 10 36  1  0
 11 37  1  0
 11 38  1  0
 11 39  1  0
 13 40  1  0
 14 41  1  0
 15 42  1  0
 16 43  1  0
 20 44  1  6
 22 45  1  0
 23 46  1  0
 24 47  1  6
 25 48  1  0
 26 49  1  1
 27 50  1  0
M  END
>  <filename_input>  (8) 
7Q5I_I0F_docked.sdf

>  <pdb_id>  (8) 
7Q5I_I0F

>  <pose_rank>  (8) 
7

>  <num_atoms_heavy>  (8) 
27

>  <num_torsions>  (8) 
6

>  <pose>  (8) 
[39.28753400614235, 24.561683589145883, 31.127460477424215, -0.8663034590046744, 3.3602584026853255, 0.8515272043901219, 12.518964894943279, 0.8775891670258321, 0.5939412160946295, 1.9320935287388106, -0.6288467926240815, -0.005508700363548485]

>  <energy>  (8) 
-412.8040989574354

>  <inter_energy>  (8) 
-386.6717613429059

>  <intra_energy>  (8) 
4.856619558100531

>  <rmsd>  (8) 
9.00084

>  <sdf_rank>  (8) 
0

$$$$

     RDKit          3D

 50 51  0  0  0  0  0  0  0  0999 V2000
   29.7277   26.7814   29.5444 N   0  0  0  0  0  0  0  0  0  0  0  0
   26.4331   29.4352   29.4245 C   0  0  1  0  0  0  0  0  0  0  0  0
   26.3768   28.0786   30.1563 C   0  0  1  0  0  0  0  0  0  0  0  0
   25.0171   27.4080   30.0051 C   0  0  0  0  0  0  0  0  0  0  0  0
   30.7653   26.5385   30.3469 C   0  0  0  0  0  0  0  0  0  0  0  0
   31.7697   25.4971   29.8345 C   0  0  0  0  0  0  0  0  0  0  0  0
   32.1034   23.6673   28.0311 C   0  0  0  0  0  0  0  0  0  0  0  0
   33.4144   21.6195   26.5906 C   0  0  0  0  0  0  0  0  0  0  0  0
   32.7887   22.6593   28.7256 C   0  0  0  0  0  0  0  0  0  0  0  0
   34.8475   19.6130   26.5875 C   0  0  0  0  0  0  0  0  0  0  0  0
   33.5922   20.3579   24.4904 C   0  0  0  0  0  0  0  0  0  0  0  0
   34.0205   20.6010   25.8778 N   0  0  0  0  0  0  0  0  0  0  0  0
   33.4265   21.6504   28.0012 C   0  0  0  0  0  0  0  0  0  0  0  0
   32.7411   22.6501   25.9176 C   0  0  0  0  0  0  0  0  0  0  0  0
   32.0985   23.6537   26.6413 C   0  0  0  0  0  0  0  0  0  0  0  0
   31.3873   24.7202   28.6159 C   0  0  0  0  0  0  0  0  0  0  0  0
   33.0391   25.5046   30.4177 C   0  0  0  0  0  0  0  0  0  0  0  0
   34.0854   25.4647   30.8025 N   0  0  0  0  0  0  0  0  0  0  0  0
   30.9600   27.1328   31.3999 O   0  0  0  0  0  0  0  0  0  0  0  0
   28.7161   27.7740   29.9212 C   0  0  2  0  0  0  0  0  0  0  0  0
   27.3834   27.1924   29.6298 O   0  0  0  0  0  0  0  0  0  0  0  0
   24.9771   26.6660   28.7846 O   0  0  0  0  0  0  0  0  0  0  0  0
   25.5112   30.3462   30.0309 O   0  0  0  0  0  0  0  0  0  0  0  0
   27.8312   30.0405   29.4968 C   0  0  2  0  0  0  0  0  0  0  0  0
   27.8842   31.1994   28.6762 O   0  0  0  0  0  0  0  0  0  0  0  0
   28.8946   29.0120   29.0628 C   0  0  1  0  0  0  0  0  0  0  0  0
   30.2112   29.5224   29.2881 O   0  0  0  0  0  0  0  0  0  0  0  0
   29.6366   26.2690   28.6555 H   0  0  0  0  0  0  0  0  0  0  0  0
   26.1702   29.2635   28.3702 H   0  0  0  0  0  0  0  0  0  0  0  0
   26.5554   28.2782   31.2232 H   0  0  0  0  0  0  0  0  0  0  0  0
   24.8495   26.7268   30.8524 H   0  0  0  0  0  0  0  0  0  0  0  0
   24.2318   28.1782   29.9883 H   0  0  0  0  0  0  0  0  0  0  0  0
   32.8230   22.6638   29.8251 H   0  0  0  0  0  0  0  0  0  0  0  0
   34.7325   19.7504   27.6728 H   0  0  0  0  0  0  0  0  0  0  0  0
   34.5256   18.5984   26.3102 H   0  0  0  0  0  0  0  0  0  0  0  0
   35.9030   19.7514   26.3102 H   0  0  0  0  0  0  0  0  0  0  0  0
   32.6356   19.8149   24.4917 H   0  0  0  0  0  0  0  0  0  0  0  0
   33.4672   21.3197   23.9714 H   0  0  0  0  0  0  0  0  0  0  0  0
   34.3539   19.7576   23.9714 H   0  0  0  0  0  0  0  0  0  0  0  0
   33.9548   20.8549   28.5472 H   0  0  0  0  0  0  0  0  0  0  0  0
   32.7201   22.6664   24.8179 H   0  0  0  0  0  0  0  0  0  0  0  0
   31.5748   24.4547   26.0989 H   0  0  0  0  0  0  0  0  0  0  0  0
   30.4442   25.0052   28.1267 H   0  0  0  0  0  0  0  0  0  0  0  0
   28.8112   28.0380   30.9848 H   0  0  0  0  0  0  0  0  0  0  0  0
   24.9249   25.6986   28.9881 H   0  0  0  0  0  0  0  0  0  0  0  0
   25.5800   30.2782   31.0162 H   0  0  0  0  0  0  0  0  0  0  0  0
   28.0488   30.3256   30.5367 H   0  0  0  0  0  0  0  0  0  0  0  0
   27.9211   32.0070   29.2476 H   0  0  0  0  0  0  0  0  0  0  0  0
   28.7739   28.7904   27.9921 H   0  0  0  0  0  0  0  0  0  0  0  0
   30.3779   29.5870   30.2619 H   0  0  0  0  0  0  0  0  0  0  0  0
  1  5  1  0
 20  1  1  0
  2  3  1  0
  2 23  1  0
  2 24  1  0
  3  4  1  0
  3 21  1  0
  4 22  1  0
  5  6  1  0
  5 19  2  0
  6 16  2  3
  6 17  1  0
  7  9  2  0
  7 15  1  0
  7 16  1  0
  8 12  1  0
  8 13  2  0
  8 14  1  0
  9 13  1  0
 10 12  1  0
 11 12  1  0
 14 15  2  0
 17 18  3  0
 20 21  1  0
 20 26  1  0
 24 25  1  0
 24 26  1  0
 26 27  1  0
  1 28  1  0
  2 29  1  6
  3 30  1  1
  4 31  1  0
  4 32  1  0
  9 33  1  0
 10 34  1  0
 10 35  1  0
 10 36  1  0
 11 37  1  0
 11 38  1  0
 11 39  1  0
 13 40  1  0
 14 41  1  0
 15 42  1  0
 16 43  1  0
 20 44  1  1
 22 45  1  0
 23 46  1  0
 24 47  1  1
 25 48  1  0
 26 49  1  6
 27 50  1  0
M  END
>  <filename_input>  (9) 
7Q5I_I0F_docked.sdf

>  <pdb_id>  (9) 
7Q5I_I0F

>  <pose_rank>  (9) 
8

>  <num_atoms_heavy>  (9) 
27

>  <num_torsions>  (9) 
6

>  <pose>  (9) 
[29.72768218483968, 26.78137746145552, 29.544393710743574, -0.26203880159066817, -2.916008892329692, 3.7566445534252253, -0.8128307900622694, 0.532569110648204, 2.833614122644974, 0.7575899214643401, -0.26551336288957106, 3.0842203740038507]

>  <energy>  (9) 
-325.6137785917713

>  <inter_energy>  (9) 
-330.8598826370615

>  <intra_energy>  (9) 
11.842595849277775

>  <rmsd>  (9) 
9.11326

>  <sdf_rank>  (9) 
0

$$$$

     RDKit          3D

 50 51  0  0  0  0  0  0  0  0999 V2000
   38.4230   29.6756   26.5120 N   0  0  0  0  0  0  0  0  0  0  0  0
   40.6849   32.8710   24.9044 C   0  0  1  0  0  0  0  0  0  0  0  0
   41.1732   32.0325   26.1033 C   0  0  1  0  0  0  0  0  0  0  0  0
   41.9017   32.8860   27.1339 C   0  0  0  0  0  0  0  0  0  0  0  0
   38.7543   28.5536   27.1530 C   0  0  0  0  0  0  0  0  0  0  0  0
   37.5990   27.8243   27.8525 C   0  0  0  0  0  0  0  0  0  0  0  0
   35.0909   27.2232   27.6077 C   0  0  0  0  0  0  0  0  0  0  0  0
   32.6395   26.3990   28.7473 C   0  0  0  0  0  0  0  0  0  0  0  0
   34.6557   25.9005   27.4367 C   0  0  0  0  0  0  0  0  0  0  0  0
   30.2223   25.9572   28.5429 C   0  0  0  0  0  0  0  0  0  0  0  0
   31.5161   25.3404   30.6582 C   0  0  0  0  0  0  0  0  0  0  0  0
   31.4574   25.9954   29.3409 N   0  0  0  0  0  0  0  0  0  0  0  0
   33.4457   25.5055   28.0107 C   0  0  0  0  0  0  0  0  0  0  0  0
   33.0849   27.7222   28.8864 C   0  0  0  0  0  0  0  0  0  0  0  0
   34.2964   28.1146   28.3188 C   0  0  0  0  0  0  0  0  0  0  0  0
   36.2942   27.7558   27.1262 C   0  0  0  0  0  0  0  0  0  0  0  0
   37.9139   27.1072   29.0092 C   0  0  0  0  0  0  0  0  0  0  0  0
   38.1178   26.4579   29.8932 N   0  0  0  0  0  0  0  0  0  0  0  0
   39.8847   28.0823   27.1522 O   0  0  0  0  0  0  0  0  0  0  0  0
   39.4415   30.4442   25.7891 C   0  0  2  0  0  0  0  0  0  0  0  0
   40.0532   31.3956   26.7482 O   0  0  0  0  0  0  0  0  0  0  0  0
   41.2936   34.1769   27.2094 O   0  0  0  0  0  0  0  0  0  0  0  0
   41.8113   33.4043   24.2012 O   0  0  0  0  0  0  0  0  0  0  0  0
   39.8672   32.0216   23.9368 C   0  0  2  0  0  0  0  0  0  0  0  0
   39.2999   32.8602   22.9398 O   0  0  0  0  0  0  0  0  0  0  0  0
   38.7692   31.2425   24.6880 C   0  0  1  0  0  0  0  0  0  0  0  0
   38.1131   30.3236   23.8107 O   0  0  0  0  0  0  0  0  0  0  0  0
   37.4467   30.0038   26.5248 H   0  0  0  0  0  0  0  0  0  0  0  0
   40.0520   33.6825   25.2929 H   0  0  0  0  0  0  0  0  0  0  0  0
   41.8729   31.2806   25.7094 H   0  0  0  0  0  0  0  0  0  0  0  0
   41.8456   32.3977   28.1180 H   0  0  0  0  0  0  0  0  0  0  0  0
   42.9545   32.9970   26.8351 H   0  0  0  0  0  0  0  0  0  0  0  0
   35.2591   25.1849   26.8589 H   0  0  0  0  0  0  0  0  0  0  0  0
   29.3521   25.9303   29.2151 H   0  0  0  0  0  0  0  0  0  0  0  0
   30.1679   26.8541   27.9083 H   0  0  0  0  0  0  0  0  0  0  0  0
   30.2234   25.0586   27.9083 H   0  0  0  0  0  0  0  0  0  0  0  0
   31.4479   26.1015   31.4494 H   0  0  0  0  0  0  0  0  0  0  0  0
   30.6775   24.6351   30.7546 H   0  0  0  0  0  0  0  0  0  0  0  0
   32.4666   24.7953   30.7546 H   0  0  0  0  0  0  0  0  0  0  0  0
   33.1105   24.4654   27.8847 H   0  0  0  0  0  0  0  0  0  0  0  0
   32.4777   28.4507   29.4436 H   0  0  0  0  0  0  0  0  0  0  0  0
   34.6318   29.1555   28.4369 H   0  0  0  0  0  0  0  0  0  0  0  0
   36.2768   28.1669   26.1061 H   0  0  0  0  0  0  0  0  0  0  0  0
   40.1981   29.7726   25.3572 H   0  0  0  0  0  0  0  0  0  0  0  0
   41.1741   34.4304   28.1589 H   0  0  0  0  0  0  0  0  0  0  0  0
   42.4856   33.7235   24.8520 H   0  0  0  0  0  0  0  0  0  0  0  0
   40.5273   31.2853   23.4549 H   0  0  0  0  0  0  0  0  0  0  0  0
   38.8012   33.5974   23.3733 H   0  0  0  0  0  0  0  0  0  0  0  0
   38.0272   31.9494   25.0876 H   0  0  0  0  0  0  0  0  0  0  0  0
   37.6289   29.6454   24.3453 H   0  0  0  0  0  0  0  0  0  0  0  0
  1  5  1  0
 20  1  1  0
  2  3  1  0
  2 23  1  0
  2 24  1  0
  3  4  1  0
  3 21  1  0
  4 22  1  0
  5  6  1  0
  5 19  2  0
  6 16  2  3
  6 17  1  0
  7  9  2  0
  7 15  1  0
  7 16  1  0
  8 12  1  0
  8 13  2  0
  8 14  1  0
  9 13  1  0
 10 12  1  0
 11 12  1  0
 14 15  2  0
 17 18  3  0
 20 21  1  0
 20 26  1  0
 24 25  1  0
 24 26  1  0
 26 27  1  0
  1 28  1  0
  2 29  1  1
  3 30  1  6
  4 31  1  0
  4 32  1  0
  9 33  1  0
 10 34  1  0
 10 35  1  0
 10 36  1  0
 11 37  1  0
 11 38  1  0
 11 39  1  0
 13 40  1  0
 14 41  1  0
 15 42  1  0
 16 43  1  0
 20 44  1  6
 22 45  1  0
 23 46  1  0
 24 47  1  6
 25 48  1  0
 26 49  1  1
 27 50  1  0
M  END
>  <filename_input>  (10) 
7Q5I_I0F_docked.sdf

>  <pdb_id>  (10) 
7Q5I_I0F

>  <pose_rank>  (10) 
9

>  <num_atoms_heavy>  (10) 
27

>  <num_torsions>  (10) 
6

>  <pose>  (10) 
[38.42297965564309, 29.675623053846483, 26.51197573180765, -0.4839846558839189, 1.036160234481193, -3.228068296380492, 0.024539213436012272, -0.3341997235031238, -2.582914018394606, -1.5305022147282064, -1.58888334919234, -2.7041333998175965]

>  <energy>  (10) 
-252.94410494584838

>  <inter_energy>  (10) 
-244.55984946679257

>  <intra_energy>  (10) 
1.9970759792222543

>  <rmsd>  (10) 
10.2489

>  <sdf_rank>  (10) 
0

$$$$

     RDKit          3D

 50 51  0  0  0  0  0  0  0  0999 V2000
   28.4536   28.9141   28.7808 N   0  0  0  0  0  0  0  0  0  0  0  0
   26.1816   32.4118   29.4987 C   0  0  1  0  0  0  0  0  0  0  0  0
   26.5407   31.4139   30.6187 C   0  0  1  0  0  0  0  0  0  0  0  0
   25.4016   31.2464   31.6165 C   0  0  0  0  0  0  0  0  0  0  0  0
   29.4737   28.2961   29.3785 C   0  0  0  0  0  0  0  0  0  0  0  0
   29.8148   26.9022   28.8338 C   0  0  0  0  0  0  0  0  0  0  0  0
   31.8023   25.3534   28.2314 C   0  0  0  0  0  0  0  0  0  0  0  0
   32.6676   22.9913   26.9434 C   0  0  0  0  0  0  0  0  0  0  0  0
   32.7881   24.5564   28.8321 C   0  0  0  0  0  0  0  0  0  0  0  0
   34.2417   21.0977   26.8151 C   0  0  0  0  0  0  0  0  0  0  0  0
   32.1220   21.1682   25.3902 C   0  0  0  0  0  0  0  0  0  0  0  0
   33.0568   21.8178   26.3237 N   0  0  0  0  0  0  0  0  0  0  0  0
   33.2015   23.3888   28.1875 C   0  0  0  0  0  0  0  0  0  0  0  0
   31.6987   23.8158   26.3518 C   0  0  0  0  0  0  0  0  0  0  0  0
   31.2813   24.9781   26.9988 C   0  0  0  0  0  0  0  0  0  0  0  0
   31.2606   26.5276   28.7710 C   0  0  0  0  0  0  0  0  0  0  0  0
   28.7472   26.0228   28.6382 C   0  0  0  0  0  0  0  0  0  0  0  0
   27.9483   25.2519   28.5283 N   0  0  0  0  0  0  0  0  0  0  0  0
   30.1476   28.8053   30.2653 O   0  0  0  0  0  0  0  0  0  0  0  0
   28.0526   30.2599   29.2034 C   0  0  2  0  0  0  0  0  0  0  0  0
   26.8436   30.1245   30.0515 O   0  0  0  0  0  0  0  0  0  0  0  0
   25.2748   32.4290   32.4084 O   0  0  0  0  0  0  0  0  0  0  0  0
   25.9968   33.7156   30.0588 O   0  0  0  0  0  0  0  0  0  0  0  0
   27.2897   32.4861   28.4533 C   0  0  2  0  0  0  0  0  0  0  0  0
   26.8526   33.2837   27.3615 O   0  0  0  0  0  0  0  0  0  0  0  0
   27.6865   31.0744   27.9770 C   0  0  1  0  0  0  0  0  0  0  0  0
   28.8331   31.1336   27.1248 O   0  0  0  0  0  0  0  0  0  0  0  0
   27.9450   28.4436   28.0187 H   0  0  0  0  0  0  0  0  0  0  0  0
   25.2562   32.0631   29.0170 H   0  0  0  0  0  0  0  0  0  0  0  0
   27.4158   31.8206   31.1467 H   0  0  0  0  0  0  0  0  0  0  0  0
   24.4624   31.0687   31.0722 H   0  0  0  0  0  0  0  0  0  0  0  0
   25.6166   30.3905   32.2732 H   0  0  0  0  0  0  0  0  0  0  0  0
   33.2291   24.8470   29.7970 H   0  0  0  0  0  0  0  0  0  0  0  0
   34.2409   21.0981   27.9151 H   0  0  0  0  0  0  0  0  0  0  0  0
   34.2186   20.0607   26.4489 H   0  0  0  0  0  0  0  0  0  0  0  0
   35.1515   21.5958   26.4489 H   0  0  0  0  0  0  0  0  0  0  0  0
   31.3491   20.6311   25.9596 H   0  0  0  0  0  0  0  0  0  0  0  0
   31.6466   21.9316   24.7567 H   0  0  0  0  0  0  0  0  0  0  0  0
   32.6717   20.4565   24.7567 H   0  0  0  0  0  0  0  0  0  0  0  0
   33.9672   22.7592   28.6645 H   0  0  0  0  0  0  0  0  0  0  0  0
   31.2680   23.5449   25.3765 H   0  0  0  0  0  0  0  0  0  0  0  0
   30.5207   25.6137   26.5220 H   0  0  0  0  0  0  0  0  0  0  0  0
   31.9747   27.2501   29.1929 H   0  0  0  0  0  0  0  0  0  0  0  0
   28.8697   30.7526   29.7508 H   0  0  0  0  0  0  0  0  0  0  0  0
   25.3007   32.1879   33.3682 H   0  0  0  0  0  0  0  0  0  0  0  0
   26.0054   33.6545   31.0469 H   0  0  0  0  0  0  0  0  0  0  0  0
   28.1809   32.9484   28.9027 H   0  0  0  0  0  0  0  0  0  0  0  0
   26.4064   34.0979   27.7054 H   0  0  0  0  0  0  0  0  0  0  0  0
   26.8491   30.6268   27.4215 H   0  0  0  0  0  0  0  0  0  0  0  0
   29.6533   31.1760   27.6776 H   0  0  0  0  0  0  0  0  0  0  0  0
  1  5  1  0
 20  1  1  0
  2  3  1  0
  2 23  1  0
  2 24  1  0
  3  4  1  0
  3 21  1  0
  4 22  1  0
  5  6  1  0
  5 19  2  0
  6 16  2  3
  6 17  1  0
  7  9  2  0
  7 15  1  0
  7 16  1  0
  8 12  1  0
  8 13  2  0
  8 14  1  0
  9 13  1  0
 10 12  1  0
 11 12  1  0
 14 15  2  0
 17 18  3  0
 20 21  1  0
 20 26  1  0
 24 25  1  0
 24 26  1  0
 26 27  1  0
  1 28  1  0
  2 29  1  6
  3 30  1  1
  4 31  1  0
  4 32  1  0
  9 33  1  0
 10 34  1  0
 10 35  1  0
 10 36  1  0
 11 37  1  0
 11 38  1  0
 11 39  1  0
 13 40  1  0
 14 41  1  0
 15 42  1  0
 16 43  1  0
 20 44  1  1
 22 45  1  0
 23 46  1  0
 24 47  1  1
 25 48  1  0
 26 49  1  6
 27 50  1  0
M  END
>  <filename_input>  (11) 
7Q5I_I0F_docked.sdf

>  <pdb_id>  (11) 
7Q5I_I0F

>  <pose_rank>  (11) 
10

>  <num_atoms_heavy>  (11) 
27

>  <num_torsions>  (11) 
6

>  <pose>  (11) 
[28.453592645146518, 28.91412193319214, 28.78083311157717, 0.056616799322563256, 1.088930990563945, -1.6817374646670344, -0.21845778789598314, -2.1985045735341555, -0.7980931976678357, -2.2683604717669765, -0.34810949582104617, -2.759118294585457]

>  <energy>  (11) 
-294.02020905646486

>  <inter_energy>  (11) 
-300.1168057261116

>  <intra_energy>  (11) 
22.783767784866995

>  <rmsd>  (11) 
10.5939

>  <sdf_rank>  (11) 
0

$$$$

     RDKit          3D

 50 51  0  0  0  0  0  0  0  0999 V2000
   36.6106   28.5048   26.5273 N   0  0  0  0  0  0  0  0  0  0  0  0
   38.4467   32.0640   25.1591 C   0  0  1  0  0  0  0  0  0  0  0  0
   38.0821   31.8376   26.6406 C   0  0  1  0  0  0  0  0  0  0  0  0
   37.5810   33.1146   27.3035 C   0  0  0  0  0  0  0  0  0  0  0  0
   36.6979   27.7763   27.6416 C   0  0  0  0  0  0  0  0  0  0  0  0
   35.6200   26.6973   27.8138 C   0  0  0  0  0  0  0  0  0  0  0  0
   34.8450   24.3948   26.9139 C   0  0  0  0  0  0  0  0  0  0  0  0
   33.0244   22.2792   26.4700 C   0  0  0  0  0  0  0  0  0  0  0  0
   34.1252   23.8603   27.9930 C   0  0  0  0  0  0  0  0  0  0  0  0
   32.4508   19.8841   26.5912 C   0  0  0  0  0  0  0  0  0  0  0  0
   30.7188   21.6373   25.9168 C   0  0  0  0  0  0  0  0  0  0  0  0
   32.1081   21.2700   26.2364 N   0  0  0  0  0  0  0  0  0  0  0  0
   33.2245   22.8196   27.7580 C   0  0  0  0  0  0  0  0  0  0  0  0
   33.7715   22.8153   25.4103 C   0  0  0  0  0  0  0  0  0  0  0  0
   34.6658   23.8591   25.6441 C   0  0  0  0  0  0  0  0  0  0  0  0
   35.7522   25.4602   26.9850 C   0  0  0  0  0  0  0  0  0  0  0  0
   34.7250   26.8632   28.8735 C   0  0  0  0  0  0  0  0  0  0  0  0
   34.0321   26.9034   29.7469 N   0  0  0  0  0  0  0  0  0  0  0  0
   37.5994   27.8989   28.4613 O   0  0  0  0  0  0  0  0  0  0  0  0
   37.6000   29.5501   26.2462 C   0  0  2  0  0  0  0  0  0  0  0  0
   37.0534   30.8345   26.7473 O   0  0  0  0  0  0  0  0  0  0  0  0
   36.6727   33.7883   26.4300 O   0  0  0  0  0  0  0  0  0  0  0  0
   39.5475   32.9739   25.0695 O   0  0  0  0  0  0  0  0  0  0  0  0
   38.8440   30.7547   24.4850 C   0  0  2  0  0  0  0  0  0  0  0  0
   39.0104   30.9757   23.0912 O   0  0  0  0  0  0  0  0  0  0  0  0
   37.7859   29.6638   24.7449 C   0  0  1  0  0  0  0  0  0  0  0  0
   38.2365   28.3978   24.2562 O   0  0  0  0  0  0  0  0  0  0  0  0
   35.8444   28.3321   25.8610 H   0  0  0  0  0  0  0  0  0  0  0  0
   37.5623   32.4757   24.6508 H   0  0  0  0  0  0  0  0  0  0  0  0
   38.9983   31.5096   27.1534 H   0  0  0  0  0  0  0  0  0  0  0  0
   37.0657   32.8612   28.2417 H   0  0  0  0  0  0  0  0  0  0  0  0
   38.4360   33.7730   27.5168 H   0  0  0  0  0  0  0  0  0  0  0  0
   34.2683   24.2555   29.0095 H   0  0  0  0  0  0  0  0  0  0  0  0
   32.4762   19.7816   27.6862 H   0  0  0  0  0  0  0  0  0  0  0  0
   31.6944   19.2017   26.1765 H   0  0  0  0  0  0  0  0  0  0  0  0
   33.4382   19.6329   26.1765 H   0  0  0  0  0  0  0  0  0  0  0  0
   30.1551   21.7864   26.8496 H   0  0  0  0  0  0  0  0  0  0  0  0
   30.7111   22.5684   25.3311 H   0  0  0  0  0  0  0  0  0  0  0  0
   30.2520   20.8317   25.3311 H   0  0  0  0  0  0  0  0  0  0  0  0
   32.6531   22.4083   28.6031 H   0  0  0  0  0  0  0  0  0  0  0  0
   33.6515   22.4118   24.3941 H   0  0  0  0  0  0  0  0  0  0  0  0
   35.2439   24.2686   24.8027 H   0  0  0  0  0  0  0  0  0  0  0  0
   36.6574   25.3777   26.3655 H   0  0  0  0  0  0  0  0  0  0  0  0
   38.5606   29.3121   26.7263 H   0  0  0  0  0  0  0  0  0  0  0  0
   36.0047   34.2838   26.9670 H   0  0  0  0  0  0  0  0  0  0  0  0
   39.8464   33.2209   25.9804 H   0  0  0  0  0  0  0  0  0  0  0  0
   39.7957   30.4032   24.9099 H   0  0  0  0  0  0  0  0  0  0  0  0
   39.5999   31.7583   22.9493 H   0  0  0  0  0  0  0  0  0  0  0  0
   36.8496   29.9332   24.2343 H   0  0  0  0  0  0  0  0  0  0  0  0
   38.4474   27.8051   25.0206 H   0  0  0  0  0  0  0  0  0  0  0  0
  1  5  1  0
 20  1  1  0
  2  3  1  0
  2 23  1  0
  2 24  1  0
  3  4  1  0
  3 21  1  0
  4 22  1  0
  5  6  1  0
  5 19  2  0
  6 16  2  3
  6 17  1  0
  7  9  2  0
  7 15  1  0
  7 16  1  0
  8 12  1  0
  8 13  2  0
  8 14  1  0
  9 13  1  0
 10 12  1  0
 11 12  1  0
 14 15  2  0
 17 18  3  0
 20 21  1  0
 20 26  1  0
 24 25  1  0
 24 26  1  0
 26 27  1  0
  1 28  1  0
  2 29  1  6
  3 30  1  1
  4 31  1  0
  4 32  1  0
  9 33  1  0
 10 34  1  0
 10 35  1  0
 10 36  1  0
 11 37  1  0
 11 38  1  0
 11 39  1  0
 13 40  1  0
 14 41  1  0
 15 42  1  0
 16 43  1  0
 20 44  1  1
 22 45  1  0
 23 46  1  0
 24 47  1  1
 25 48  1  0
 26 49  1  6
 27 50  1  0
M  END
>  <filename_input>  (12) 
7Q5I_I0F_docked.sdf

>  <pdb_id>  (12) 
7Q5I_I0F

>  <pose_rank>  (12) 
11

>  <num_atoms_heavy>  (12) 
27

>  <num_torsions>  (12) 
6

>  <pose>  (12) 
[36.61060556084624, 28.504776413843473, 26.527323972746327, 0.4361703107760211, 0.4224843774856083, -2.7935831304664207, -0.08312828764515606, -0.1924055636977183, -1.9761949382779003, -0.6015766696761885, -1.489644030954841, -2.6813197609518267]

>  <energy>  (12) 
-380.0395990061634

>  <inter_energy>  (12) 
-392.4663097333271

>  <intra_energy>  (12) 
12.751989781069236

>  <rmsd>  (12) 
9.9655

>  <sdf_rank>  (12) 
0

$$$$

     RDKit          3D

 50 51  0  0  0  0  0  0  0  0999 V2000
   29.9058   28.2468   29.6931 N   0  0  0  0  0  0  0  0  0  0  0  0
   26.9725   30.4961   27.6323 C   0  0  1  0  0  0  0  0  0  0  0  0
   27.1096   28.9685   27.4692 C   0  0  1  0  0  0  0  0  0  0  0  0
   26.8508   28.5252   26.0347 C   0  0  0  0  0  0  0  0  0  0  0  0
   30.2346   27.0158   29.2978 C   0  0  0  0  0  0  0  0  0  0  0  0
   31.5855   26.4948   29.8074 C   0  0  0  0  0  0  0  0  0  0  0  0
   34.0840   26.2666   29.1616 C   0  0  0  0  0  0  0  0  0  0  0  0
   36.6277   25.2757   29.8929 C   0  0  0  0  0  0  0  0  0  0  0  0
   35.1780   26.4634   28.3058 C   0  0  0  0  0  0  0  0  0  0  0  0
   38.8033   24.3034   29.2594 C   0  0  0  0  0  0  0  0  0  0  0  0
   38.3542   25.1319   31.6343 C   0  0  0  0  0  0  0  0  0  0  0  0
   37.8757   24.8204   30.2773 N   0  0  0  0  0  0  0  0  0  0  0  0
   36.4302   25.9740   28.6828 C   0  0  0  0  0  0  0  0  0  0  0  0
   35.5144   25.0722   30.7221 C   0  0  0  0  0  0  0  0  0  0  0  0
   34.2655   25.5669   30.3486 C   0  0  0  0  0  0  0  0  0  0  0  0
   32.7801   26.7292   28.9398 C   0  0  0  0  0  0  0  0  0  0  0  0
   31.6270   26.0331   31.1252 C   0  0  0  0  0  0  0  0  0  0  0  0
   31.5842   25.7245   32.1964 N   0  0  0  0  0  0  0  0  0  0  0  0
   29.5025   26.3041   28.6215 O   0  0  0  0  0  0  0  0  0  0  0  0
   28.6278   28.8392   29.2854 C   0  0  2  0  0  0  0  0  0  0  0  0
   28.4365   28.5499   27.8436 O   0  0  0  0  0  0  0  0  0  0  0  0
   25.4924   28.1038   25.8966 O   0  0  0  0  0  0  0  0  0  0  0  0
   25.6210   30.8872   27.3711 O   0  0  0  0  0  0  0  0  0  0  0  0
   27.3385   30.9324   29.0472 C   0  0  2  0  0  0  0  0  0  0  0  0
   27.3603   32.3518   29.1101 O   0  0  0  0  0  0  0  0  0  0  0  0
   28.7010   30.3439   29.4647 C   0  0  1  0  0  0  0  0  0  0  0  0
   28.9657   30.6143   30.8437 O   0  0  0  0  0  0  0  0  0  0  0  0
   30.5530   28.7838   30.2878 H   0  0  0  0  0  0  0  0  0  0  0  0
   27.6587   30.9767   26.9195 H   0  0  0  0  0  0  0  0  0  0  0  0
   26.3573   28.5039   28.1235 H   0  0  0  0  0  0  0  0  0  0  0  0
   27.0437   29.3659   25.3521 H   0  0  0  0  0  0  0  0  0  0  0  0
   27.5185   27.6867   25.7873 H   0  0  0  0  0  0  0  0  0  0  0  0
   35.0513   26.9956   27.3515 H   0  0  0  0  0  0  0  0  0  0  0  0
   39.6614   23.8251   29.7543 H   0  0  0  0  0  0  0  0  0  0  0  0
   38.2838   23.5647   28.6313 H   0  0  0  0  0  0  0  0  0  0  0  0
   39.1584   25.1337   28.6313 H   0  0  0  0  0  0  0  0  0  0  0  0
   37.6722   24.6879   32.3745 H   0  0  0  0  0  0  0  0  0  0  0  0
   39.3639   24.7175   31.7712 H   0  0  0  0  0  0  0  0  0  0  0  0
   38.3839   26.2229   31.7712 H   0  0  0  0  0  0  0  0  0  0  0  0
   37.2894   26.1378   28.0157 H   0  0  0  0  0  0  0  0  0  0  0  0
   35.6269   24.5218   31.6679 H   0  0  0  0  0  0  0  0  0  0  0  0
   33.4026   25.3992   31.0097 H   0  0  0  0  0  0  0  0  0  0  0  0
   32.6184   27.3280   28.0314 H   0  0  0  0  0  0  0  0  0  0  0  0
   27.8027   28.4294   29.8865 H   0  0  0  0  0  0  0  0  0  0  0  0
   25.0925   27.9797   26.7937 H   0  0  0  0  0  0  0  0  0  0  0  0
   25.1457   31.0247   28.2286 H   0  0  0  0  0  0  0  0  0  0  0  0
   26.5824   30.5525   29.7500 H   0  0  0  0  0  0  0  0  0  0  0  0
   27.3647   32.6402   30.0572 H   0  0  0  0  0  0  0  0  0  0  0  0
   29.4967   30.7924   28.8518 H   0  0  0  0  0  0  0  0  0  0  0  0
   28.3972   30.0335   31.4089 H   0  0  0  0  0  0  0  0  0  0  0  0
  1  5  1  0
 20  1  1  0
  2  3  1  0
  2 23  1  0
  2 24  1  0
  3  4  1  0
  3 21  1  0
  4 22  1  0
  5  6  1  0
  5 19  2  0
  6 16  2  3
  6 17  1  0
  7  9  2  0
  7 15  1  0
  7 16  1  0
  8 12  1  0
  8 13  2  0
  8 14  1  0
  9 13  1  0
 10 12  1  0
 11 12  1  0
 14 15  2  0
 17 18  3  0
 20 21  1  0
 20 26  1  0
 24 25  1  0
 24 26  1  0
 26 27  1  0
  1 28  1  0
  2 29  1  6
  3 30  1  1
  4 31  1  0
  4 32  1  0
  9 33  1  0
 10 34  1  0
 10 35  1  0
 10 36  1  0
 11 37  1  0
 11 38  1  0
 11 39  1  0
 13 40  1  0
 14 41  1  0
 15 42  1  0
 16 43  1  0
 20 44  1  1
 22 45  1  0
 23 46  1  0
 24 47  1  1
 25 48  1  0
 26 49  1  6
 27 50  1  0
M  END
>  <filename_input>  (13) 
7Q5I_I0F_docked.sdf

>  <pdb_id>  (13) 
7Q5I_I0F

>  <pose_rank>  (13) 
12

>  <num_atoms_heavy>  (13) 
27

>  <num_torsions>  (13) 
6

>  <pose>  (13) 
[29.90583849936367, 28.24675959500462, 29.693125032640747, 2.158772009775543, 0.18775394642852197, 0.6231722017312936, 0.7915873694159761, -2.629927952180085, 1.3875595699486711, 3.1772897185548414, -0.77063560387021, -0.89790707296337]

>  <energy>  (13) 
-290.7712410733445

>  <inter_energy>  (13) 
-332.1477905723791

>  <intra_energy>  (13) 
57.224268964963315

>  <rmsd>  (13) 
7.86166

>  <sdf_rank>  (13) 
0

$$$$

     RDKit          3D

 50 51  0  0  0  0  0  0  0  0999 V2000
   36.8744   24.9197   35.9020 N   0  0  0  0  0  0  0  0  0  0  0  0
   38.8557   27.5790   33.2725 C   0  0  1  0  0  0  0  0  0  0  0  0
   37.7245   26.6411   32.8036 C   0  0  1  0  0  0  0  0  0  0  0  0
   37.9872   26.0880   31.4085 C   0  0  0  0  0  0  0  0  0  0  0  0
   35.7919   24.1737   35.6749 C   0  0  0  0  0  0  0  0  0  0  0  0
   35.5647   23.0188   36.6600 C   0  0  0  0  0  0  0  0  0  0  0  0
   35.3842   20.4385   36.8060 C   0  0  0  0  0  0  0  0  0  0  0  0
   35.1593   18.0177   38.2470 C   0  0  0  0  0  0  0  0  0  0  0  0
   34.1715   19.7332   36.7935 C   0  0  0  0  0  0  0  0  0  0  0  0
   35.2621   15.5548   38.1898 C   0  0  0  0  0  0  0  0  0  0  0  0
   35.0812   16.8306   40.3962 C   0  0  0  0  0  0  0  0  0  0  0  0
   35.0710   16.8150   38.9241 N   0  0  0  0  0  0  0  0  0  0  0  0
   34.0767   18.5354   37.5048 C   0  0  0  0  0  0  0  0  0  0  0  0
   36.3549   18.7517   38.2623 C   0  0  0  0  0  0  0  0  0  0  0  0
   36.4514   19.9443   37.5465 C   0  0  0  0  0  0  0  0  0  0  0  0
   35.6436   21.6292   36.1145 C   0  0  0  0  0  0  0  0  0  0  0  0
   35.5105   23.3482   38.0165 C   0  0  0  0  0  0  0  0  0  0  0  0
   35.5527   23.5629   39.1104 N   0  0  0  0  0  0  0  0  0  0  0  0
   34.9850   24.4058   34.7834 O   0  0  0  0  0  0  0  0  0  0  0  0
   37.1798   26.0644   35.0377 C   0  0  2  0  0  0  0  0  0  0  0  0
   37.5924   25.5337   33.7158 O   0  0  0  0  0  0  0  0  0  0  0  0
   39.3494   25.6693   31.3031 O   0  0  0  0  0  0  0  0  0  0  0  0
   38.9025   28.7336   32.4286 O   0  0  0  0  0  0  0  0  0  0  0  0
   38.6287   28.0376   34.7094 C   0  0  2  0  0  0  0  0  0  0  0  0
   39.7676   28.7598   35.1573 O   0  0  0  0  0  0  0  0  0  0  0  0
   38.3468   26.8326   35.6290 C   0  0  1  0  0  0  0  0  0  0  0  0
   37.9714   27.2733   36.9365 O   0  0  0  0  0  0  0  0  0  0  0  0
   37.4988   24.6905   36.6884 H   0  0  0  0  0  0  0  0  0  0  0  0
   39.8028   27.0220   33.2187 H   0  0  0  0  0  0  0  0  0  0  0  0
   36.7996   27.2360   32.7793 H   0  0  0  0  0  0  0  0  0  0  0  0
   37.3256   25.2285   31.2257 H   0  0  0  0  0  0  0  0  0  0  0  0
   37.7895   26.8726   30.6633 H   0  0  0  0  0  0  0  0  0  0  0  0
   33.3079   20.1183   36.2315 H   0  0  0  0  0  0  0  0  0  0  0  0
   35.3874   14.7288   38.9054 H   0  0  0  0  0  0  0  0  0  0  0  0
   34.3829   15.3619   37.5574 H   0  0  0  0  0  0  0  0  0  0  0  0
   36.1589   15.6312   37.5574 H   0  0  0  0  0  0  0  0  0  0  0  0
   34.5143   15.9679   40.7760 H   0  0  0  0  0  0  0  0  0  0  0  0
   36.1191   16.7746   40.7562 H   0  0  0  0  0  0  0  0  0  0  0  0
   34.6180   17.7611   40.7562 H   0  0  0  0  0  0  0  0  0  0  0  0
   33.1285   17.9780   37.4858 H   0  0  0  0  0  0  0  0  0  0  0  0
   37.2169   18.3860   38.8395 H   0  0  0  0  0  0  0  0  0  0  0  0
   37.3957   20.5080   37.5684 H   0  0  0  0  0  0  0  0  0  0  0  0
   35.9363   21.5312   35.0587 H   0  0  0  0  0  0  0  0  0  0  0  0
   36.3042   26.7239   34.9462 H   0  0  0  0  0  0  0  0  0  0  0  0
   39.7298   25.5523   32.2096 H   0  0  0  0  0  0  0  0  0  0  0  0
   38.9356   29.5499   32.9878 H   0  0  0  0  0  0  0  0  0  0  0  0
   37.7483   28.6961   34.7442 H   0  0  0  0  0  0  0  0  0  0  0  0
   39.7836   28.7699   36.1471 H   0  0  0  0  0  0  0  0  0  0  0  0
   39.2511   26.2112   35.7055 H   0  0  0  0  0  0  0  0  0  0  0  0
   38.4382   26.7253   37.6161 H   0  0  0  0  0  0  0  0  0  0  0  0
  1  5  1  0
 20  1  1  0
  2  3  1  0
  2 23  1  0
  2 24  1  0
  3  4  1  0
  3 21  1  0
  4 22  1  0
  5  6  1  0
  5 19  2  0
  6 16  2  3
  6 17  1  0
  7  9  2  0
  7 15  1  0
  7 16  1  0
  8 12  1  0
  8 13  2  0
  8 14  1  0
  9 13  1  0
 10 12  1  0
 11 12  1  0
 14 15  2  0
 17 18  3  0
 20 21  1  0
 20 26  1  0
 24 25  1  0
 24 26  1  0
 26 27  1  0
  1 28  1  0
  2 29  1  1
  3 30  1  6
  4 31  1  0
  4 32  1  0
  9 33  1  0
 10 34  1  0
 10 35  1  0
 10 36  1  0
 11 37  1  0
 11 38  1  0
 11 39  1  0
 13 40  1  0
 14 41  1  0
 15 42  1  0
 16 43  1  0
 20 44  1  6
 22 45  1  0
 23 46  1  0
 24 47  1  6
 25 48  1  0
 26 49  1  1
 27 50  1  0
M  END
>  <filename_input>  (14) 
7Q5I_I0F_docked.sdf

>  <pdb_id>  (14) 
7Q5I_I0F

>  <pose_rank>  (14) 
13

>  <num_atoms_heavy>  (14) 
27

>  <num_torsions>  (14) 
6

>  <pose>  (14) 
[36.87437912727321, 24.91971405708993, 35.90198391439248, -3.4733977564275356, 2.729582455663336, -0.2981677510879252, 0.3385184940200511, -0.17999424932742317, 0.981098157847762, 1.762959618726074, 1.2975537085293298, -2.391502986184913]

>  <energy>  (14) 
-297.5836513599234

>  <inter_energy>  (14) 
-295.5221912162238

>  <intra_energy>  (14) 
6.021321455550195

>  <rmsd>  (14) 
9.69508

>  <sdf_rank>  (14) 
0

$$$$

     RDKit          3D

 50 51  0  0  0  0  0  0  0  0999 V2000
   29.7438   29.3292   29.4797 N   0  0  0  0  0  0  0  0  0  0  0  0
   28.0218   33.0273   30.6066 C   0  0  1  0  0  0  0  0  0  0  0  0
   27.7248   32.3552   29.2504 C   0  0  1  0  0  0  0  0  0  0  0  0
   27.6020   33.3757   28.1258 C   0  0  0  0  0  0  0  0  0  0  0  0
   29.3052   28.1691   28.9882 C   0  0  0  0  0  0  0  0  0  0  0  0
   30.3950   27.1711   28.5730 C   0  0  0  0  0  0  0  0  0  0  0  0
   30.7544   24.8143   27.5590 C   0  0  0  0  0  0  0  0  0  0  0  0
   32.6201   22.8011   26.8857 C   0  0  0  0  0  0  0  0  0  0  0  0
   30.3336   23.6952   26.8251 C   0  0  0  0  0  0  0  0  0  0  0  0
   33.6506   20.6030   27.3176 C   0  0  0  0  0  0  0  0  0  0  0  0
   34.2005   21.9426   25.2124 C   0  0  0  0  0  0  0  0  0  0  0  0
   33.5484   21.8402   26.5284 N   0  0  0  0  0  0  0  0  0  0  0  0
   31.2675   22.7114   26.4940 C   0  0  0  0  0  0  0  0  0  0  0  0
   33.0127   23.9187   27.6375 C   0  0  0  0  0  0  0  0  0  0  0  0
   32.0814   24.9042   27.9622 C   0  0  0  0  0  0  0  0  0  0  0  0
   29.9469   25.8968   27.9326 C   0  0  0  0  0  0  0  0  0  0  0  0
   31.7168   27.6188   28.6342 C   0  0  0  0  0  0  0  0  0  0  0  0
   32.8001   27.8833   28.6653 N   0  0  0  0  0  0  0  0  0  0  0  0
   28.1199   27.8701   28.9151 O   0  0  0  0  0  0  0  0  0  0  0  0
   28.7922   30.3503   29.9296 C   0  0  2  0  0  0  0  0  0  0  0  0
   28.7798   31.4327   28.9160 O   0  0  0  0  0  0  0  0  0  0  0  0
   27.7725   32.7272   26.8639 O   0  0  0  0  0  0  0  0  0  0  0  0
   26.9157   33.8521   30.9858 O   0  0  0  0  0  0  0  0  0  0  0  0
   28.2467   31.9860   31.6981 C   0  0  2  0  0  0  0  0  0  0  0  0
   28.6782   32.6361   32.8856 O   0  0  0  0  0  0  0  0  0  0  0  0
   29.2769   30.9327   31.2439 C   0  0  1  0  0  0  0  0  0  0  0  0
   29.3637   29.8691   32.1957 O   0  0  0  0  0  0  0  0  0  0  0  0
   30.7561   29.5086   29.5436 H   0  0  0  0  0  0  0  0  0  0  0  0
   28.9340   33.6317   30.4935 H   0  0  0  0  0  0  0  0  0  0  0  0
   26.7657   31.8266   29.3539 H   0  0  0  0  0  0  0  0  0  0  0  0
   26.6075   33.8440   28.1645 H   0  0  0  0  0  0  0  0  0  0  0  0
   28.3787   34.1453   28.2469 H   0  0  0  0  0  0  0  0  0  0  0  0
   29.2831   23.5942   26.5149 H   0  0  0  0  0  0  0  0  0  0  0  0
   33.6302   20.8491   28.3895 H   0  0  0  0  0  0  0  0  0  0  0  0
   32.8038   19.9435   27.0767 H   0  0  0  0  0  0  0  0  0  0  0  0
   34.5940   20.0912   27.0767 H   0  0  0  0  0  0  0  0  0  0  0  0
   35.2787   22.1119   25.3496 H   0  0  0  0  0  0  0  0  0  0  0  0
   34.0443   21.0089   24.6522 H   0  0  0  0  0  0  0  0  0  0  0  0
   33.7656   22.7835   24.6522 H   0  0  0  0  0  0  0  0  0  0  0  0
   30.9386   21.8394   25.9096 H   0  0  0  0  0  0  0  0  0  0  0  0
   34.0562   24.0175   27.9712 H   0  0  0  0  0  0  0  0  0  0  0  0
   32.4050   25.7744   28.5522 H   0  0  0  0  0  0  0  0  0  0  0  0
   28.8696   25.7985   27.7337 H   0  0  0  0  0  0  0  0  0  0  0  0
   27.7905   29.9146   30.0590 H   0  0  0  0  0  0  0  0  0  0  0  0
   28.0214   31.7803   27.0105 H   0  0  0  0  0  0  0  0  0  0  0  0
   26.8589   33.8944   31.9732 H   0  0  0  0  0  0  0  0  0  0  0  0
   27.3007   31.4615   31.8982 H   0  0  0  0  0  0  0  0  0  0  0  0
   28.3470   32.1371   33.6740 H   0  0  0  0  0  0  0  0  0  0  0  0
   30.2647   31.4064   31.1439 H   0  0  0  0  0  0  0  0  0  0  0  0
   29.3332   30.2429   33.1119 H   0  0  0  0  0  0  0  0  0  0  0  0
  1  5  1  0
 20  1  1  0
  2  3  1  0
  2 23  1  0
  2 24  1  0
  3  4  1  0
  3 21  1  0
  4 22  1  0
  5  6  1  0
  5 19  2  0
  6 16  2  3
  6 17  1  0
  7  9  2  0
  7 15  1  0
  7 16  1  0
  8 12  1  0
  8 13  2  0
  8 14  1  0
  9 13  1  0
 10 12  1  0
 11 12  1  0
 14 15  2  0
 17 18  3  0
 20 21  1  0
 20 26  1  0
 24 25  1  0
 24 26  1  0
 26 27  1  0
  1 28  1  0
  2 29  1  6
  3 30  1  1
  4 31  1  0
  4 32  1  0
  9 33  1  0
 10 34  1  0
 10 35  1  0
 10 36  1  0
 11 37  1  0
 11 38  1  0
 11 39  1  0
 13 40  1  0
 14 41  1  0
 15 42  1  0
 16 43  1  0
 20 44  1  1
 22 45  1  0
 23 46  1  0
 24 47  1  1
 25 48  1  0
 26 49  1  6
 27 50  1  0
M  END
>  <filename_input>  (15) 
7Q5I_I0F_docked.sdf

>  <pdb_id>  (15) 
7Q5I_I0F

>  <pose_rank>  (15) 
14

>  <num_atoms_heavy>  (15) 
27

>  <num_torsions>  (15) 
6

>  <pose>  (15) 
[29.74382491328577, 29.32917610634649, 29.47971549780111, 2.353028535173486, 0.09912686913452415, -0.3012184919644687, -0.2876703909320908, 1.8541996570610482, -0.07999754754865869, 3.3511385617518856, -1.5643253422992944, -3.7360813171225042]

>  <energy>  (15) 
-270.1088806242995

>  <inter_energy>  (15) 
-297.233645132368

>  <intra_energy>  (15) 
38.512325950509265

>  <rmsd>  (15) 
10.5661

>  <sdf_rank>  (15) 
0

$$$$

     RDKit          3D

 50 51  0  0  0  0  0  0  0  0999 V2000
   35.0245   20.8035   36.4513 N   0  0  0  0  0  0  0  0  0  0  0  0
   34.2506   16.9781   38.0880 C   0  0  1  0  0  0  0  0  0  0  0  0
   33.2311   18.1330   38.1653 C   0  0  1  0  0  0  0  0  0  0  0  0
   32.4826   18.1416   39.4923 C   0  0  0  0  0  0  0  0  0  0  0  0
   35.2301   21.6116   37.4927 C   0  0  0  0  0  0  0  0  0  0  0  0
   35.7577   23.0118   37.1507 C   0  0  0  0  0  0  0  0  0  0  0  0
   36.4935   24.5111   35.1702 C   0  0  0  0  0  0  0  0  0  0  0  0
   37.8471   26.7147   34.0304 C   0  0  0  0  0  0  0  0  0  0  0  0
   35.9815   25.8057   35.3435 C   0  0  0  0  0  0  0  0  0  0  0  0
   38.4104   28.0977   32.0682 C   0  0  0  0  0  0  0  0  0  0  0  0
   39.1405   28.7656   34.4239 C   0  0  0  0  0  0  0  0  0  0  0  0
   38.5372   27.7900   33.5011 N   0  0  0  0  0  0  0  0  0  0  0  0
   36.6641   26.8857   34.7802 C   0  0  0  0  0  0  0  0  0  0  0  0
   38.3279   25.4088   33.8522 C   0  0  0  0  0  0  0  0  0  0  0  0
   37.6498   24.3313   34.4205 C   0  0  0  0  0  0  0  0  0  0  0  0
   35.9446   23.3375   35.7037 C   0  0  0  0  0  0  0  0  0  0  0  0
   35.8219   23.9347   38.1974 C   0  0  0  0  0  0  0  0  0  0  0  0
   35.7758   24.6837   39.0229 N   0  0  0  0  0  0  0  0  0  0  0  0
   34.9699   21.3044   38.6493 O   0  0  0  0  0  0  0  0  0  0  0  0
   34.5005   19.4493   36.6565 C   0  0  2  0  0  0  0  0  0  0  0  0
   33.9058   19.3971   38.0141 O   0  0  0  0  0  0  0  0  0  0  0  0
   33.4024   17.9412   40.5674 O   0  0  0  0  0  0  0  0  0  0  0  0
   33.5599   15.7254   38.1218 O   0  0  0  0  0  0  0  0  0  0  0  0
   35.0637   17.0487   36.7995 C   0  0  2  0  0  0  0  0  0  0  0  0
   36.0967   16.0739   36.8421 O   0  0  0  0  0  0  0  0  0  0  0  0
   35.6499   18.4608   36.6005 C   0  0  1  0  0  0  0  0  0  0  0  0
   36.2698   18.5730   35.3169 O   0  0  0  0  0  0  0  0  0  0  0  0
   35.2349   21.1324   35.4982 H   0  0  0  0  0  0  0  0  0  0  0  0
   34.9312   17.0678   38.9475 H   0  0  0  0  0  0  0  0  0  0  0  0
   32.5063   17.9805   37.3521 H   0  0  0  0  0  0  0  0  0  0  0  0
   31.9768   19.1100   39.6201 H   0  0  0  0  0  0  0  0  0  0  0  0
   31.7382   17.3318   39.4951 H   0  0  0  0  0  0  0  0  0  0  0  0
   35.0556   25.9676   35.9150 H   0  0  0  0  0  0  0  0  0  0  0  0
   37.9937   29.1083   31.9457 H   0  0  0  0  0  0  0  0  0  0  0  0
   39.4016   28.0498   31.5937 H   0  0  0  0  0  0  0  0  0  0  0  0
   37.7409   27.3651   31.5937 H   0  0  0  0  0  0  0  0  0  0  0  0
   38.9489   28.4557   35.4618 H   0  0  0  0  0  0  0  0  0  0  0  0
   40.2256   28.8127   34.2497 H   0  0  0  0  0  0  0  0  0  0  0  0
   38.6978   29.7574   34.2497 H   0  0  0  0  0  0  0  0  0  0  0  0
   36.2673   27.9013   34.9255 H   0  0  0  0  0  0  0  0  0  0  0  0
   39.2408   25.2349   33.2636 H   0  0  0  0  0  0  0  0  0  0  0  0
   38.0398   23.3135   34.2719 H   0  0  0  0  0  0  0  0  0  0  0  0
   35.6165   22.5754   34.9816 H   0  0  0  0  0  0  0  0  0  0  0  0
   33.7554   19.2024   35.8858 H   0  0  0  0  0  0  0  0  0  0  0  0
   32.9287   18.0444   41.4306 H   0  0  0  0  0  0  0  0  0  0  0  0
   33.4113   15.4558   39.0627 H   0  0  0  0  0  0  0  0  0  0  0  0
   34.4051   16.8382   35.9440 H   0  0  0  0  0  0  0  0  0  0  0  0
   36.3163   15.8667   37.7849 H   0  0  0  0  0  0  0  0  0  0  0  0
   36.4002   18.6587   37.3801 H   0  0  0  0  0  0  0  0  0  0  0  0
   37.2374   18.7482   35.4319 H   0  0  0  0  0  0  0  0  0  0  0  0
  1  5  1  0
 20  1  1  0
  2  3  1  0
  2 23  1  0
  2 24  1  0
  3  4  1  0
  3 21  1  0
  4 22  1  0
  5  6  1  0
  5 19  2  0
  6 16  2  3
  6 17  1  0
  7  9  2  0
  7 15  1  0
  7 16  1  0
  8 12  1  0
  8 13  2  0
  8 14  1  0
  9 13  1  0
 10 12  1  0
 11 12  1  0
 14 15  2  0
 17 18  3  0
 20 21  1  0
 20 26  1  0
 24 25  1  0
 24 26  1  0
 26 27  1  0
  1 28  1  0
  2 29  1  1
  3 30  1  6
  4 31  1  0
  4 32  1  0
  9 33  1  0
 10 34  1  0
 10 35  1  0
 10 36  1  0
 11 37  1  0
 11 38  1  0
 11 39  1  0
 13 40  1  0
 14 41  1  0
 15 42  1  0
 16 43  1  0
 20 44  1  6
 22 45  1  0
 23 46  1  0
 24 47  1  6
 25 48  1  0
 26 49  1  1
 27 50  1  0
M  END
>  <filename_input>  (16) 
7Q5I_I0F_docked.sdf

>  <pdb_id>  (16) 
7Q5I_I0F

>  <pose_rank>  (16) 
15

>  <num_atoms_heavy>  (16) 
27

>  <num_torsions>  (16) 
6

>  <pose>  (16) 
[35.02450364183154, 20.803501995648443, 36.451263714488405, -0.323943266054643, 0.790487584910816, 0.7464636206497156, -23.268482513106942, -0.17055541124567958, -9.542694675047755, -7.273737280741852, -8.198526711393086, -1.8030879986503765]

>  <energy>  (16) 
-256.54493057635045

>  <inter_energy>  (16) 
-277.5355706086048

>  <intra_energy>  (16) 
42.72171133204099

>  <rmsd>  (16) 
8.78509

>  <sdf_rank>  (16) 
0

$$$$

     RDKit          3D

 50 51  0  0  0  0  0  0  0  0999 V2000
   37.1534   16.6741   35.5285 N   0  0  0  0  0  0  0  0  0  0  0  0
   41.1322   15.6352   34.5279 C   0  0  1  0  0  0  0  0  0  0  0  0
   40.4631   15.1795   35.8408 C   0  0  1  0  0  0  0  0  0  0  0  0
   41.4416   15.1858   37.0087 C   0  0  0  0  0  0  0  0  0  0  0  0
   36.2814   16.1291   36.3784 C   0  0  0  0  0  0  0  0  0  0  0  0
   35.0699   17.0015   36.7349 C   0  0  0  0  0  0  0  0  0  0  0  0
   32.4842   16.9737   36.8934 C   0  0  0  0  0  0  0  0  0  0  0  0
   29.9731   18.0853   37.5613 C   0  0  0  0  0  0  0  0  0  0  0  0
   31.7342   17.6357   35.9098 C   0  0  0  0  0  0  0  0  0  0  0  0
   28.0381   19.4831   36.9435 C   0  0  0  0  0  0  0  0  0  0  0  0
   28.0036   18.0046   39.0271 C   0  0  0  0  0  0  0  0  0  0  0  0
   28.7289   18.5925   37.8888 N   0  0  0  0  0  0  0  0  0  0  0  0
   30.4925   18.1745   36.2524 C   0  0  0  0  0  0  0  0  0  0  0  0
   30.7509   17.4377   38.5330 C   0  0  0  0  0  0  0  0  0  0  0  0
   31.9877   16.8939   38.1891 C   0  0  0  0  0  0  0  0  0  0  0  0
   33.7241   16.3520   36.6945 C   0  0  0  0  0  0  0  0  0  0  0  0
   35.3373   18.2649   37.2675 C   0  0  0  0  0  0  0  0  0  0  0  0
   35.6305   19.2343   37.7353 N   0  0  0  0  0  0  0  0  0  0  0  0
   36.3845   14.9898   36.8158 O   0  0  0  0  0  0  0  0  0  0  0  0
   38.3378   15.9234   35.0993 C   0  0  2  0  0  0  0  0  0  0  0  0
   39.3633   16.0529   36.1626 O   0  0  0  0  0  0  0  0  0  0  0  0
   40.9670   14.3199   38.0416 O   0  0  0  0  0  0  0  0  0  0  0  0
   42.1462   14.6969   34.1552 O   0  0  0  0  0  0  0  0  0  0  0  0
   40.1146   15.7248   33.3953 C   0  0  2  0  0  0  0  0  0  0  0  0
   40.7324   16.3030   32.2537 O   0  0  0  0  0  0  0  0  0  0  0  0
   38.8852   16.5475   33.8296 C   0  0  1  0  0  0  0  0  0  0  0  0
   37.8631   16.4920   32.8312 O   0  0  0  0  0  0  0  0  0  0  0  0
   36.9940   17.6272   35.1720 H   0  0  0  0  0  0  0  0  0  0  0  0
   41.5695   16.6303   34.6972 H   0  0  0  0  0  0  0  0  0  0  0  0
   40.1079   14.1504   35.6833 H   0  0  0  0  0  0  0  0  0  0  0  0
   42.4256   14.8366   36.6626 H   0  0  0  0  0  0  0  0  0  0  0  0
   41.5296   16.2087   37.4037 H   0  0  0  0  0  0  0  0  0  0  0  0
   32.1189   17.7289   34.8835 H   0  0  0  0  0  0  0  0  0  0  0  0
   27.4575   20.2317   37.5025 H   0  0  0  0  0  0  0  0  0  0  0  0
   28.7798   19.9922   36.3105 H   0  0  0  0  0  0  0  0  0  0  0  0
   27.3605   18.8913   36.3105 H   0  0  0  0  0  0  0  0  0  0  0  0
   28.4459   18.3632   39.9683 H   0  0  0  0  0  0  0  0  0  0  0  0
   26.9459   18.3035   38.9818 H   0  0  0  0  0  0  0  0  0  0  0  0
   28.0770   16.9080   38.9818 H   0  0  0  0  0  0  0  0  0  0  0  0
   29.9008   18.6843   35.4779 H   0  0  0  0  0  0  0  0  0  0  0  0
   30.3845   17.3590   39.5672 H   0  0  0  0  0  0  0  0  0  0  0  0
   32.5855   16.3891   38.9623 H   0  0  0  0  0  0  0  0  0  0  0  0
   33.7051   15.2720   36.4867 H   0  0  0  0  0  0  0  0  0  0  0  0
   38.0823   14.8687   34.9190 H   0  0  0  0  0  0  0  0  0  0  0  0
   41.1817   14.7116   38.9251 H   0  0  0  0  0  0  0  0  0  0  0  0
   42.5584   14.3154   34.9705 H   0  0  0  0  0  0  0  0  0  0  0  0
   39.7654   14.7130   33.1418 H   0  0  0  0  0  0  0  0  0  0  0  0
   41.4232   16.9498   32.5443 H   0  0  0  0  0  0  0  0  0  0  0  0
   39.1817   17.5958   33.9819 H   0  0  0  0  0  0  0  0  0  0  0  0
   36.9765   16.4438   33.2689 H   0  0  0  0  0  0  0  0  0  0  0  0
  1  5  1  0
 20  1  1  0
  2  3  1  0
  2 23  1  0
  2 24  1  0
  3  4  1  0
  3 21  1  0
  4 22  1  0
  5  6  1  0
  5 19  2  0
  6 16  2  3
  6 17  1  0
  7  9  2  0
  7 15  1  0
  7 16  1  0
  8 12  1  0
  8 13  2  0
  8 14  1  0
  9 13  1  0
 10 12  1  0
 11 12  1  0
 14 15  2  0
 17 18  3  0
 20 21  1  0
 20 26  1  0
 24 25  1  0
 24 26  1  0
 26 27  1  0
  1 28  1  0
  2 29  1  1
  3 30  1  6
  4 31  1  0
  4 32  1  0
  9 33  1  0
 10 34  1  0
 10 35  1  0
 10 36  1  0
 11 37  1  0
 11 38  1  0
 11 39  1  0
 13 40  1  0
 14 41  1  0
 15 42  1  0
 16 43  1  0
 20 44  1  6
 22 45  1  0
 23 46  1  0
 24 47  1  6
 25 48  1  0
 26 49  1  1
 27 50  1  0
M  END
>  <filename_input>  (17) 
7Q5I_I0F_docked.sdf

>  <pdb_id>  (17) 
7Q5I_I0F

>  <pose_rank>  (17) 
16

>  <num_atoms_heavy>  (17) 
27

>  <num_torsions>  (17) 
6

>  <pose>  (17) 
[37.15339708139967, 16.674132470071786, 35.528530259246814, -0.3740530032480527, -0.4830767969014063, 1.809493056955262, 0.14114647423184726, 2.563472852578164, 5.320391653058951, -4.720141129749105, -0.3476510781180031, -1.0209433103915806]

>  <energy>  (17) 
-211.92655311905503

>  <inter_energy>  (17) 
-188.6514877008943

>  <intra_energy>  (17) 
0.999197949883009

>  <rmsd>  (17) 
11.8404

>  <sdf_rank>  (17) 
0

$$$$

     RDKit          3D

 50 51  0  0  0  0  0  0  0  0999 V2000
   34.6058   17.2241   37.7660 N   0  0  0  0  0  0  0  0  0  0  0  0
   38.7286   17.0384   38.7039 C   0  0  1  0  0  0  0  0  0  0  0  0
   38.0816   16.1343   37.6348 C   0  0  1  0  0  0  0  0  0  0  0  0
   38.6760   14.7315   37.6422 C   0  0  0  0  0  0  0  0  0  0  0  0
   33.9798   16.3852   36.9389 C   0  0  0  0  0  0  0  0  0  0  0  0
   32.4526   16.3301   37.0820 C   0  0  0  0  0  0  0  0  0  0  0  0
   30.3160   17.7901   36.9575 C   0  0  0  0  0  0  0  0  0  0  0  0
   27.5944   18.2590   37.5577 C   0  0  0  0  0  0  0  0  0  0  0  0
   29.3281   17.4281   36.0296 C   0  0  0  0  0  0  0  0  0  0  0  0
   25.9124   19.0927   39.1564 C   0  0  0  0  0  0  0  0  0  0  0  0
   25.2524   18.3020   36.8181 C   0  0  0  0  0  0  0  0  0  0  0  0
   26.2635   18.4577   37.8768 N   0  0  0  0  0  0  0  0  0  0  0  0
   27.9871   17.6599   36.3421 C   0  0  0  0  0  0  0  0  0  0  0  0
   28.6014   18.6322   38.4605 C   0  0  0  0  0  0  0  0  0  0  0  0
   29.9400   18.3946   38.1511 C   0  0  0  0  0  0  0  0  0  0  0  0
   31.6940   17.5879   36.8040 C   0  0  0  0  0  0  0  0  0  0  0  0
   31.8803   15.0676   37.2546 C   0  0  0  0  0  0  0  0  0  0  0  0
   31.5140   14.0256   37.4118 N   0  0  0  0  0  0  0  0  0  0  0  0
   34.5528   15.7335   36.0748 O   0  0  0  0  0  0  0  0  0  0  0  0
   36.0631   17.3759   37.7040 C   0  0  2  0  0  0  0  0  0  0  0  0
   36.6639   16.0301   37.8697 O   0  0  0  0  0  0  0  0  0  0  0  0
   39.7059   14.6377   36.6561 O   0  0  0  0  0  0  0  0  0  0  0  0
   40.1127   17.2305   38.3960 O   0  0  0  0  0  0  0  0  0  0  0  0
   38.0491   18.4030   38.7534 C   0  0  2  0  0  0  0  0  0  0  0  0
   38.5594   19.1420   39.8547 O   0  0  0  0  0  0  0  0  0  0  0  0
   36.5188   18.2474   38.8591 C   0  0  1  0  0  0  0  0  0  0  0  0
   35.8734   19.5177   38.7383 O   0  0  0  0  0  0  0  0  0  0  0  0
   34.0628   17.7680   38.4517 H   0  0  0  0  0  0  0  0  0  0  0  0
   38.6145   16.5448   39.6803 H   0  0  0  0  0  0  0  0  0  0  0  0
   38.2797   16.5966   36.6565 H   0  0  0  0  0  0  0  0  0  0  0  0
   39.1002   14.5198   38.6348 H   0  0  0  0  0  0  0  0  0  0  0  0
   37.8861   14.0008   37.4136 H   0  0  0  0  0  0  0  0  0  0  0  0
   29.6059   16.9683   35.0697 H   0  0  0  0  0  0  0  0  0  0  0  0
   26.2614   18.4615   39.9869 H   0  0  0  0  0  0  0  0  0  0  0  0
   26.3927   20.0803   39.2195 H   0  0  0  0  0  0  0  0  0  0  0  0
   24.8206   19.2113   39.2195 H   0  0  0  0  0  0  0  0  0  0  0  0
   24.2634   18.1497   37.2751 H   0  0  0  0  0  0  0  0  0  0  0  0
   25.2324   19.2077   36.1940 H   0  0  0  0  0  0  0  0  0  0  0  0
   25.5058   17.4323   36.1940 H   0  0  0  0  0  0  0  0  0  0  0  0
   27.2127   17.3662   35.6181 H   0  0  0  0  0  0  0  0  0  0  0  0
   28.3347   19.1129   39.4133 H   0  0  0  0  0  0  0  0  0  0  0  0
   30.7177   18.6929   38.8696 H   0  0  0  0  0  0  0  0  0  0  0  0
   32.2795   18.4453   36.4405 H   0  0  0  0  0  0  0  0  0  0  0  0
   36.3639   17.8312   36.7489 H   0  0  0  0  0  0  0  0  0  0  0  0
   40.5852   14.5576   37.1038 H   0  0  0  0  0  0  0  0  0  0  0  0
   40.6309   17.3024   39.2366 H   0  0  0  0  0  0  0  0  0  0  0  0
   38.2647   18.9486   37.8229 H   0  0  0  0  0  0  0  0  0  0  0  0
   38.2668   18.7183   40.7003 H   0  0  0  0  0  0  0  0  0  0  0  0
   36.2623   17.8056   39.8332 H   0  0  0  0  0  0  0  0  0  0  0  0
   35.6888   19.8811   39.6405 H   0  0  0  0  0  0  0  0  0  0  0  0
  1  5  1  0
 20  1  1  0
  2  3  1  0
  2 23  1  0
  2 24  1  0
  3  4  1  0
  3 21  1  0
  4 22  1  0
  5  6  1  0
  5 19  2  0
  6 16  2  3
  6 17  1  0
  7  9  2  0
  7 15  1  0
  7 16  1  0
  8 12  1  0
  8 13  2  0
  8 14  1  0
  9 13  1  0
 10 12  1  0
 11 12  1  0
 14 15  2  0
 17 18  3  0
 20 21  1  0
 20 26  1  0
 24 25  1  0
 24 26  1  0
 26 27  1  0
  1 28  1  0
  2 29  1  1
  3 30  1  6
  4 31  1  0
  4 32  1  0
  9 33  1  0
 10 34  1  0
 10 35  1  0
 10 36  1  0
 11 37  1  0
 11 38  1  0
 11 39  1  0
 13 40  1  0
 14 41  1  0
 15 42  1  0
 16 43  1  0
 20 44  1  6
 22 45  1  0
 23 46  1  0
 24 47  1  6
 25 48  1  0
 26 49  1  1
 27 50  1  0
M  END
>  <filename_input>  (18) 
7Q5I_I0F_docked.sdf

>  <pdb_id>  (18) 
7Q5I_I0F

>  <pose_rank>  (18) 
17

>  <num_atoms_heavy>  (18) 
27

>  <num_torsions>  (18) 
6

>  <pose>  (18) 
[34.605808746253736, 17.224099321538485, 37.766023425757226, 0.21263517580733426, -2.040460668461119, 1.2208135663748483, 0.5923159374054996, -2.6261402753952843, -2.2043143775648324, -1.3610822725443952, 3.0199686865819375, -0.19463369445085185]

>  <energy>  (18) 
-151.24383678993775

>  <inter_energy>  (18) 
-184.0170175310166

>  <intra_energy>  (18) 
13.56313441162742

>  <rmsd>  (18) 
13.0313

>  <sdf_rank>  (18) 
0

$$$$

     RDKit          3D

 50 51  0  0  0  0  0  0  0  0999 V2000
   28.2760   31.3323   32.2781 N   0  0  0  0  0  0  0  0  0  0  0  0
   27.3883   31.7635   36.3935 C   0  0  1  0  0  0  0  0  0  0  0  0
   27.9141   30.4431   35.7943 C   0  0  1  0  0  0  0  0  0  0  0  0
   27.2637   29.2270   36.4419 C   0  0  0  0  0  0  0  0  0  0  0  0
   29.3313   30.9909   31.5367 C   0  0  0  0  0  0  0  0  0  0  0  0
   29.0715   30.8738   30.0285 C   0  0  0  0  0  0  0  0  0  0  0  0
   28.8389   32.2742   27.8614 C   0  0  0  0  0  0  0  0  0  0  0  0
   28.3641   32.8400   25.1335 C   0  0  0  0  0  0  0  0  0  0  0  0
   28.0466   31.4027   27.0993 C   0  0  0  0  0  0  0  0  0  0  0  0
   29.1838   33.6897   22.9687 C   0  0  0  0  0  0  0  0  0  0  0  0
   26.8606   32.6515   23.2001 C   0  0  0  0  0  0  0  0  0  0  0  0
   28.1063   33.1457   23.8095 N   0  0  0  0  0  0  0  0  0  0  0  0
   27.8152   31.6981   25.7544 C   0  0  0  0  0  0  0  0  0  0  0  0
   29.1708   33.6852   25.9102 C   0  0  0  0  0  0  0  0  0  0  0  0
   29.3962   33.3936   27.2549 C   0  0  0  0  0  0  0  0  0  0  0  0
   29.1286   32.1331   29.2250 C   0  0  0  0  0  0  0  0  0  0  0  0
   29.0102   29.5832   29.4973 C   0  0  0  0  0  0  0  0  0  0  0  0
   29.0599   28.5533   29.0715 N   0  0  0  0  0  0  0  0  0  0  0  0
   30.4563   30.8318   31.9937 O   0  0  0  0  0  0  0  0  0  0  0  0
   28.4116   31.4956   33.7291 C   0  0  2  0  0  0  0  0  0  0  0  0
   27.6474   30.4034   34.3790 O   0  0  0  0  0  0  0  0  0  0  0  0
   25.8438   29.3869   36.4533 O   0  0  0  0  0  0  0  0  0  0  0  0
   27.7600   31.8460   37.7729 O   0  0  0  0  0  0  0  0  0  0  0  0
   27.9698   32.9687   35.6618 C   0  0  2  0  0  0  0  0  0  0  0  0
   27.3383   34.1523   36.1303 O   0  0  0  0  0  0  0  0  0  0  0  0
   27.7932   32.8194   34.1375 C   0  0  1  0  0  0  0  0  0  0  0  0
   28.4825   33.8636   33.4454 O   0  0  0  0  0  0  0  0  0  0  0  0
   27.3613   31.4820   31.8289 H   0  0  0  0  0  0  0  0  0  0  0  0
   26.2935   31.7726   36.2869 H   0  0  0  0  0  0  0  0  0  0  0  0
   28.9967   30.4086   35.9861 H   0  0  0  0  0  0  0  0  0  0  0  0
   27.5251   28.3247   35.8695 H   0  0  0  0  0  0  0  0  0  0  0  0
   27.6267   29.1279   37.4755 H   0  0  0  0  0  0  0  0  0  0  0  0
   27.6140   30.4997   27.5547 H   0  0  0  0  0  0  0  0  0  0  0  0
   29.9815   34.0925   23.6101 H   0  0  0  0  0  0  0  0  0  0  0  0
   29.5926   32.8900   22.3337 H   0  0  0  0  0  0  0  0  0  0  0  0
   28.7830   34.4935   22.3337 H   0  0  0  0  0  0  0  0  0  0  0  0
   26.1513   32.3702   23.9923 H   0  0  0  0  0  0  0  0  0  0  0  0
   26.4187   33.4425   22.5762 H   0  0  0  0  0  0  0  0  0  0  0  0
   27.0810   31.7728   22.5762 H   0  0  0  0  0  0  0  0  0  0  0  0
   27.1853   31.0194   25.1604 H   0  0  0  0  0  0  0  0  0  0  0  0
   29.6260   34.5786   25.4579 H   0  0  0  0  0  0  0  0  0  0  0  0
   30.0310   34.0662   27.8505 H   0  0  0  0  0  0  0  0  0  0  0  0
   29.4299   33.0452   29.7609 H   0  0  0  0  0  0  0  0  0  0  0  0
   29.4712   31.4698   34.0235 H   0  0  0  0  0  0  0  0  0  0  0  0
   25.5233   29.4230   37.3893 H   0  0  0  0  0  0  0  0  0  0  0  0
   26.9675   31.6700   38.3394 H   0  0  0  0  0  0  0  0  0  0  0  0
   29.0487   33.0309   35.8673 H   0  0  0  0  0  0  0  0  0  0  0  0
   27.3365   34.1556   37.1203 H   0  0  0  0  0  0  0  0  0  0  0  0
   26.7233   32.8677   33.8866 H   0  0  0  0  0  0  0  0  0  0  0  0
   28.8904   34.4817   34.1024 H   0  0  0  0  0  0  0  0  0  0  0  0
  1  5  1  0
 20  1  1  0
  2  3  1  0
  2 23  1  0
  2 24  1  0
  3  4  1  0
  3 21  1  0
  4 22  1  0
  5  6  1  0
  5 19  2  0
  6 16  2  3
  6 17  1  0
  7  9  2  0
  7 15  1  0
  7 16  1  0
  8 12  1  0
  8 13  2  0
  8 14  1  0
  9 13  1  0
 10 12  1  0
 11 12  1  0
 14 15  2  0
 17 18  3  0
 20 21  1  0
 20 26  1  0
 24 25  1  0
 24 26  1  0
 26 27  1  0
  1 28  1  0
  2 29  1  1
  3 30  1  6
  4 31  1  0
  4 32  1  0
  9 33  1  0
 10 34  1  0
 10 35  1  0
 10 36  1  0
 11 37  1  0
 11 38  1  0
 11 39  1  0
 13 40  1  0
 14 41  1  0
 15 42  1  0
 16 43  1  0
 20 44  1  6
 22 45  1  0
 23 46  1  0
 24 47  1  6
 25 48  1  0
 26 49  1  1
 27 50  1  0
M  END
>  <filename_input>  (19) 
7Q5I_I0F_docked.sdf

>  <pdb_id>  (19) 
7Q5I_I0F

>  <pose_rank>  (19) 
18

>  <num_atoms_heavy>  (19) 
27

>  <num_torsions>  (19) 
6

>  <pose>  (19) 
[28.276016415424802, 31.332334371540757, 32.278056752558285, -0.2035850578267167, -3.6195680734579674, 1.273703113958061, -0.3939738176532523, -0.08480236354878903, -1.8256016058955644, 0.4602772697885173, -2.590063058898511, -1.8622985071734968]

>  <energy>  (19) 
-199.13498017397183

>  <inter_energy>  (19) 
-191.79285006135905

>  <intra_energy>  (19) 
12.57876687872708

>  <rmsd>  (19) 
13.4659

>  <sdf_rank>  (19) 
0

$$$$

     RDKit          3D

 50 51  0  0  0  0  0  0  0  0999 V2000
   30.5439   16.6929   37.0314 N   0  0  0  0  0  0  0  0  0  0  0  0
   26.5175   17.9789   36.8189 C   0  0  1  0  0  0  0  0  0  0  0  0
   26.9049   16.4937   36.9702 C   0  0  1  0  0  0  0  0  0  0  0  0
   25.9807   15.5818   36.1730 C   0  0  0  0  0  0  0  0  0  0  0  0
   31.3529   16.1323   37.9320 C   0  0  0  0  0  0  0  0  0  0  0  0
   32.7744   15.8219   37.4433 C   0  0  0  0  0  0  0  0  0  0  0  0
   35.2613   16.4553   37.7986 C   0  0  0  0  0  0  0  0  0  0  0  0
   38.0567   16.4702   37.3830 C   0  0  0  0  0  0  0  0  0  0  0  0
   35.7774   16.1231   36.5371 C   0  0  0  0  0  0  0  0  0  0  0  0
   39.9531   17.1470   35.9598 C   0  0  0  0  0  0  0  0  0  0  0  0
   40.3172   16.2064   38.3074 C   0  0  0  0  0  0  0  0  0  0  0  0
   39.4238   16.5174   37.1794 N   0  0  0  0  0  0  0  0  0  0  0  0
   37.1602   16.1407   36.3444 C   0  0  0  0  0  0  0  0  0  0  0  0
   37.5181   16.7777   38.6416 C   0  0  0  0  0  0  0  0  0  0  0  0
   36.1370   16.7665   38.8319 C   0  0  0  0  0  0  0  0  0  0  0  0
   33.9023   16.5184   38.1343 C   0  0  0  0  0  0  0  0  0  0  0  0
   32.9144   14.7650   36.5407 C   0  0  0  0  0  0  0  0  0  0  0  0
   33.0741   13.9836   35.7606 N   0  0  0  0  0  0  0  0  0  0  0  0
   31.0288   15.9211   39.0939 O   0  0  0  0  0  0  0  0  0  0  0  0
   29.1694   17.0538   37.3933 C   0  0  2  0  0  0  0  0  0  0  0  0
   28.2553   16.2874   36.5121 O   0  0  0  0  0  0  0  0  0  0  0  0
   26.3699   14.2192   36.3566 O   0  0  0  0  0  0  0  0  0  0  0  0
   25.2205   18.1963   37.3829 O   0  0  0  0  0  0  0  0  0  0  0  0
   27.5154   18.8826   37.5358 C   0  0  2  0  0  0  0  0  0  0  0  0
   27.2198   20.2397   37.2358 O   0  0  0  0  0  0  0  0  0  0  0  0
   28.9603   18.5326   37.1273 C   0  0  1  0  0  0  0  0  0  0  0  0
   29.8994   19.2635   37.9200 O   0  0  0  0  0  0  0  0  0  0  0  0
   30.8866   16.8732   36.0769 H   0  0  0  0  0  0  0  0  0  0  0  0
   26.5186   18.2226   35.7463 H   0  0  0  0  0  0  0  0  0  0  0  0
   26.8147   16.2423   38.0373 H   0  0  0  0  0  0  0  0  0  0  0  0
   24.9458   15.7162   36.5209 H   0  0  0  0  0  0  0  0  0  0  0  0
   26.0488   15.8386   35.1056 H   0  0  0  0  0  0  0  0  0  0  0  0
   35.1024   15.8525   35.7118 H   0  0  0  0  0  0  0  0  0  0  0  0
   40.6383   17.9620   36.2357 H   0  0  0  0  0  0  0  0  0  0  0  0
   40.4958   16.3969   35.3659 H   0  0  0  0  0  0  0  0  0  0  0  0
   39.1209   17.5528   35.3659 H   0  0  0  0  0  0  0  0  0  0  0  0
   39.7892   16.3902   39.2548 H   0  0  0  0  0  0  0  0  0  0  0  0
   40.6198   15.1501   38.2552 H   0  0  0  0  0  0  0  0  0  0  0  0
   41.2102   16.8466   38.2552 H   0  0  0  0  0  0  0  0  0  0  0  0
   37.5632   15.8901   35.3521 H   0  0  0  0  0  0  0  0  0  0  0  0
   38.1862   17.0278   39.4789 H   0  0  0  0  0  0  0  0  0  0  0  0
   35.7304   17.0101   39.8246 H   0  0  0  0  0  0  0  0  0  0  0  0
   33.6375   17.1467   38.9974 H   0  0  0  0  0  0  0  0  0  0  0  0
   28.9783   16.8326   38.4537 H   0  0  0  0  0  0  0  0  0  0  0  0
   26.4268   14.0198   37.3247 H   0  0  0  0  0  0  0  0  0  0  0  0
   25.2841   18.1856   38.3708 H   0  0  0  0  0  0  0  0  0  0  0  0
   27.4295   18.7270   38.6214 H   0  0  0  0  0  0  0  0  0  0  0  0
   27.1092   20.7474   38.0785 H   0  0  0  0  0  0  0  0  0  0  0  0
   29.1121   18.7848   36.0674 H   0  0  0  0  0  0  0  0  0  0  0  0
   29.7078   19.1143   38.8798 H   0  0  0  0  0  0  0  0  0  0  0  0
  1  5  1  0
 20  1  1  0
  2  3  1  0
  2 23  1  0
  2 24  1  0
  3  4  1  0
  3 21  1  0
  4 22  1  0
  5  6  1  0
  5 19  2  0
  6 16  2  3
  6 17  1  0
  7  9  2  0
  7 15  1  0
  7 16  1  0
  8 12  1  0
  8 13  2  0
  8 14  1  0
  9 13  1  0
 10 12  1  0
 11 12  1  0
 14 15  2  0
 17 18  3  0
 20 21  1  0
 20 26  1  0
 24 25  1  0
 24 26  1  0
 26 27  1  0
  1 28  1  0
  2 29  1  6
  3 30  1  1
  4 31  1  0
  4 32  1  0
  9 33  1  0
 10 34  1  0
 10 35  1  0
 10 36  1  0
 11 37  1  0
 11 38  1  0
 11 39  1  0
 13 40  1  0
 14 41  1  0
 15 42  1  0
 16 43  1  0
 20 44  1  1
 22 45  1  0
 23 46  1  0
 24 47  1  1
 25 48  1  0
 26 49  1  6
 27 50  1  0
M  END
>  <filename_input>  (20) 
7Q5I_I0F_docked.sdf

>  <pdb_id>  (20) 
7Q5I_I0F

>  <pose_rank>  (20) 
19

>  <num_atoms_heavy>  (20) 
27

>  <num_torsions>  (20) 
6

>  <pose>  (20) 
[30.54394608835645, 16.692932017641777, 37.031376022429264, -2.675429923917563, -3.6757273678982854, 2.1399001848944406, -0.522425140528703, 2.198923437081847, -1.2321818505905728, 0.47849027366351243, 0.6228459236442688, 1.7680180543308894]

>  <energy>  (20) 
-120.84110919915689

>  <inter_energy>  (20) 
-128.85202466974567

>  <intra_energy>  (20) 
13.438883308058207

>  <rmsd>  (20) 
11.7603

>  <sdf_rank>  (20) 
0

$$$$

     RDKit          3D

 50 51  0  0  0  0  0  0  0  0999 V2000
   27.4878   31.1949   30.3641 N   0  0  0  0  0  0  0  0  0  0  0  0
   26.7736   30.2226   26.3075 C   0  0  1  0  0  0  0  0  0  0  0  0
   25.8326   29.7736   27.4441 C   0  0  1  0  0  0  0  0  0  0  0  0
   25.2837   28.3723   27.2066 C   0  0  0  0  0  0  0  0  0  0  0  0
   26.7512   31.6335   31.3863 C   0  0  0  0  0  0  0  0  0  0  0  0
   27.4468   31.6281   32.7545 C   0  0  0  0  0  0  0  0  0  0  0  0
   26.9872   31.4981   35.3008 C   0  0  0  0  0  0  0  0  0  0  0  0
   27.8902   31.8872   37.9504 C   0  0  0  0  0  0  0  0  0  0  0  0
   27.1204   30.3954   36.1579 C   0  0  0  0  0  0  0  0  0  0  0  0
   29.7350   31.6537   39.5697 C   0  0  0  0  0  0  0  0  0  0  0  0
   27.6206   32.9706   40.1385 C   0  0  0  0  0  0  0  0  0  0  0  0
   28.3690   32.0833   39.2330 N   0  0  0  0  0  0  0  0  0  0  0  0
   27.5737   30.6017   37.4623 C   0  0  0  0  0  0  0  0  0  0  0  0
   27.7282   32.9770   37.0817 C   0  0  0  0  0  0  0  0  0  0  0  0
   27.2821   32.7699   35.7771 C   0  0  0  0  0  0  0  0  0  0  0  0
   26.5822   31.4464   33.9604 C   0  0  0  0  0  0  0  0  0  0  0  0
   28.8431   31.5836   32.7521 C   0  0  0  0  0  0  0  0  0  0  0  0
   29.9554   31.5959   32.8365 N   0  0  0  0  0  0  0  0  0  0  0  0
   25.6141   32.0710   31.2623 O   0  0  0  0  0  0  0  0  0  0  0  0
   26.9340   31.1761   29.0063 C   0  0  2  0  0  0  0  0  0  0  0  0
   26.5387   29.7800   28.7001 O   0  0  0  0  0  0  0  0  0  0  0  0
   25.2045   27.6675   28.4471 O   0  0  0  0  0  0  0  0  0  0  0  0
   26.0355   30.3257   25.0860 O   0  0  0  0  0  0  0  0  0  0  0  0
   27.3958   31.5811   26.6140 C   0  0  2  0  0  0  0  0  0  0  0  0
   28.3760   31.8813   25.6300 O   0  0  0  0  0  0  0  0  0  0  0  0
   28.0146   31.5921   28.0261 C   0  0  1  0  0  0  0  0  0  0  0  0
   28.4485   32.9088   28.3761 O   0  0  0  0  0  0  0  0  0  0  0  0
   28.4504   30.8678   30.5294 H   0  0  0  0  0  0  0  0  0  0  0  0
   27.5741   29.4740   26.2136 H   0  0  0  0  0  0  0  0  0  0  0  0
   24.9921   30.4828   27.4682 H   0  0  0  0  0  0  0  0  0  0  0  0
   24.2799   28.4437   26.7622 H   0  0  0  0  0  0  0  0  0  0  0  0
   25.9537   27.8306   26.5228 H   0  0  0  0  0  0  0  0  0  0  0  0
   26.8715   29.3829   35.8073 H   0  0  0  0  0  0  0  0  0  0  0  0
   29.8490   31.6178   40.6632 H   0  0  0  0  0  0  0  0  0  0  0  0
   29.9192   30.6542   39.1488 H   0  0  0  0  0  0  0  0  0  0  0  0
   30.4581   32.3677   39.1488 H   0  0  0  0  0  0  0  0  0  0  0  0
   27.8454   32.7040   41.1817 H   0  0  0  0  0  0  0  0  0  0  0  0
   27.9151   34.0145   39.9551 H   0  0  0  0  0  0  0  0  0  0  0  0
   26.5420   32.8564   39.9551 H   0  0  0  0  0  0  0  0  0  0  0  0
   27.6876   29.7351   38.1302 H   0  0  0  0  0  0  0  0  0  0  0  0
   27.9535   33.9957   37.4302 H   0  0  0  0  0  0  0  0  0  0  0  0
   27.1605   33.6347   35.1082 H   0  0  0  0  0  0  0  0  0  0  0  0
   25.5155   31.2514   33.7760 H   0  0  0  0  0  0  0  0  0  0  0  0
   26.0750   31.8589   28.9298 H   0  0  0  0  0  0  0  0  0  0  0  0
   25.2767   28.3099   29.1968 H   0  0  0  0  0  0  0  0  0  0  0  0
   25.0761   30.4596   25.2904 H   0  0  0  0  0  0  0  0  0  0  0  0
   26.6118   32.3522   26.5881 H   0  0  0  0  0  0  0  0  0  0  0  0
   29.2216   32.1404   26.0750 H   0  0  0  0  0  0  0  0  0  0  0  0
   28.8777   30.9107   28.0527 H   0  0  0  0  0  0  0  0  0  0  0  0
   28.4771   32.9957   29.3618 H   0  0  0  0  0  0  0  0  0  0  0  0
  1  5  1  0
 20  1  1  0
  2  3  1  0
  2 23  1  0
  2 24  1  0
  3  4  1  0
  3 21  1  0
  4 22  1  0
  5  6  1  0
  5 19  2  0
  6 16  2  3
  6 17  1  0
  7  9  2  0
  7 15  1  0
  7 16  1  0
  8 12  1  0
  8 13  2  0
  8 14  1  0
  9 13  1  0
 10 12  1  0
 11 12  1  0
 14 15  2  0
 17 18  3  0
 20 21  1  0
 20 26  1  0
 24 25  1  0
 24 26  1  0
 26 27  1  0
  1 28  1  0
  2 29  1  6
  3 30  1  1
  4 31  1  0
  4 32  1  0
  9 33  1  0
 10 34  1  0
 10 35  1  0
 10 36  1  0
 11 37  1  0
 11 38  1  0
 11 39  1  0
 13 40  1  0
 14 41  1  0
 15 42  1  0
 16 43  1  0
 20 44  1  1
 22 45  1  0
 23 46  1  0
 24 47  1  1
 25 48  1  0
 26 49  1  6
 27 50  1  0
M  END
>  <filename_input>  (21) 
7Q5I_I0F_docked.sdf

>  <pdb_id>  (21) 
7Q5I_I0F

>  <pose_rank>  (21) 
20

>  <num_atoms_heavy>  (21) 
27

>  <num_torsions>  (21) 
6

>  <pose>  (21) 
[27.487774595232864, 31.194902213768877, 30.364086373231096, 0.18101850965181424, -0.5449804523931566, -0.4191021342230218, -0.21305512990675665, 1.5299462924615104, 0.3604529351513767, -1.7810449824025183, 1.1163561012894203, 2.2056340483927115]

>  <energy>  (21) 
-174.67314962089293

>  <inter_energy>  (21) 
-163.09231450279182

>  <intra_energy>  (21) 
1.3547132335266088

>  <rmsd>  (21) 
11.0248

>  <sdf_rank>  (21) 
0

$$$$

     RDKit          3D

 50 51  0  0  0  0  0  0  0  0999 V2000
   43.8674   19.1115   24.4519 N   0  0  0  0  0  0  0  0  0  0  0  0
   41.4910   17.8292   21.1931 C   0  0  1  0  0  0  0  0  0  0  0  0
   41.9117   19.3010   21.3819 C   0  0  1  0  0  0  0  0  0  0  0  0
   40.8034   20.2647   20.9768 C   0  0  0  0  0  0  0  0  0  0  0  0
   42.9847   19.5658   25.3430 C   0  0  0  0  0  0  0  0  0  0  0  0
   43.5655   19.9663   26.7061 C   0  0  0  0  0  0  0  0  0  0  0  0
   43.7633   19.1928   29.1708 C   0  0  0  0  0  0  0  0  0  0  0  0
   44.3964   19.8656   31.8417 C   0  0  0  0  0  0  0  0  0  0  0  0
   44.5916   18.3460   29.9224 C   0  0  0  0  0  0  0  0  0  0  0  0
   44.5027   21.6040   33.5872 C   0  0  0  0  0  0  0  0  0  0  0  0
   45.0288   19.1583   34.1075 C   0  0  0  0  0  0  0  0  0  0  0  0
   44.7311   20.2229   33.1351 N   0  0  0  0  0  0  0  0  0  0  0  0
   44.9012   18.6941   31.2387 C   0  0  0  0  0  0  0  0  0  0  0  0
   43.5526   20.6856   31.0774 C   0  0  0  0  0  0  0  0  0  0  0  0
   43.2491   20.3412   29.7609 C   0  0  0  0  0  0  0  0  0  0  0  0
   43.3955   18.9985   27.8328 C   0  0  0  0  0  0  0  0  0  0  0  0
   44.3827   21.0988   26.7355 C   0  0  0  0  0  0  0  0  0  0  0  0
   45.0329   21.9972   26.8574 N   0  0  0  0  0  0  0  0  0  0  0  0
   41.7943   19.7183   25.0990 O   0  0  0  0  0  0  0  0  0  0  0  0
   43.4293   18.7203   23.1082 C   0  0  2  0  0  0  0  0  0  0  0  0
   42.2464   19.5450   22.7619 O   0  0  0  0  0  0  0  0  0  0  0  0
   41.3612   21.5471   20.6831 O   0  0  0  0  0  0  0  0  0  0  0  0
   41.2736   17.5667   19.8034 O   0  0  0  0  0  0  0  0  0  0  0  0
   42.5706   16.8798   21.7026 C   0  0  2  0  0  0  0  0  0  0  0  0
   42.0797   15.5468   21.6648 O   0  0  0  0  0  0  0  0  0  0  0  0
   43.0055   17.2638   23.1311 C   0  0  1  0  0  0  0  0  0  0  0  0
   44.1288   16.4811   23.5436 O   0  0  0  0  0  0  0  0  0  0  0  0
   44.8619   19.0352   24.7090 H   0  0  0  0  0  0  0  0  0  0  0  0
   40.5673   17.6637   21.7671 H   0  0  0  0  0  0  0  0  0  0  0  0
   42.7842   19.4742   20.7347 H   0  0  0  0  0  0  0  0  0  0  0  0
   40.2899   19.8768   20.0847 H   0  0  0  0  0  0  0  0  0  0  0  0
   40.0854   20.3616   21.8045 H   0  0  0  0  0  0  0  0  0  0  0  0
   44.9914   17.4211   29.4811 H   0  0  0  0  0  0  0  0  0  0  0  0
   44.4978   21.6337   34.6868 H   0  0  0  0  0  0  0  0  0  0  0  0
   45.3059   22.2520   33.2065 H   0  0  0  0  0  0  0  0  0  0  0  0
   43.5336   21.9589   33.2065 H   0  0  0  0  0  0  0  0  0  0  0  0
   44.9185   19.5529   35.1284 H   0  0  0  0  0  0  0  0  0  0  0  0
   44.3301   18.3215   33.9603 H   0  0  0  0  0  0  0  0  0  0  0  0
   46.0601   18.8052   33.9603 H   0  0  0  0  0  0  0  0  0  0  0  0
   45.5591   18.0346   31.8237 H   0  0  0  0  0  0  0  0  0  0  0  0
   43.1301   21.6010   31.5173 H   0  0  0  0  0  0  0  0  0  0  0  0
   42.5861   20.9947   29.1748 H   0  0  0  0  0  0  0  0  0  0  0  0
   42.9328   18.0317   27.5852 H   0  0  0  0  0  0  0  0  0  0  0  0
   44.2413   18.8634   22.3800 H   0  0  0  0  0  0  0  0  0  0  0  0
   41.5666   22.0192   21.5288 H   0  0  0  0  0  0  0  0  0  0  0  0
   40.6451   16.8081   19.7052 H   0  0  0  0  0  0  0  0  0  0  0  0
   43.4553   16.9561   21.0535 H   0  0  0  0  0  0  0  0  0  0  0  0
   41.9571   15.2139   22.5890 H   0  0  0  0  0  0  0  0  0  0  0  0
   42.1715   17.0895   23.8268 H   0  0  0  0  0  0  0  0  0  0  0  0
   44.1671   16.4544   24.5325 H   0  0  0  0  0  0  0  0  0  0  0  0
  1  5  1  0
 20  1  1  0
  2  3  1  0
  2 23  1  0
  2 24  1  0
  3  4  1  0
  3 21  1  0
  4 22  1  0
  5  6  1  0
  5 19  2  0
  6 16  2  3
  6 17  1  0
  7  9  2  0
  7 15  1  0
  7 16  1  0
  8 12  1  0
  8 13  2  0
  8 14  1  0
  9 13  1  0
 10 12  1  0
 11 12  1  0
 14 15  2  0
 17 18  3  0
 20 21  1  0
 20 26  1  0
 24 25  1  0
 24 26  1  0
 26 27  1  0
  1 28  1  0
  2 29  1  1
  3 30  1  6
  4 31  1  0
  4 32  1  0
  9 33  1  0
 10 34  1  0
 10 35  1  0
 10 36  1  0
 11 37  1  0
 11 38  1  0
 11 39  1  0
 13 40  1  0
 14 41  1  0
 15 42  1  0
 16 43  1  0
 20 44  1  6
 22 45  1  0
 23 46  1  0
 24 47  1  6
 25 48  1  0
 26 49  1  1
 27 50  1  0
M  END
>  <filename_input>  (22) 
7Q5I_I0F_docked.sdf

>  <pdb_id>  (22) 
7Q5I_I0F

>  <pose_rank>  (22) 
21

>  <num_atoms_heavy>  (22) 
27

>  <num_torsions>  (22) 
6

>  <pose>  (22) 
[43.86744966124949, 19.11154337066925, 24.451879720104223, -0.5429929330862786, 5.455595622574253, 1.3767069277157962, 2.079318216146815, 2.565594381538055, 1.2192184096488348, -2.1144486931230326, 2.7166541591816338, 2.54176112407532]

>  <energy>  (22) 
-105.59809554824163

>  <inter_energy>  (22) 
-145.48064303381994

>  <intra_energy>  (22) 
39.32311375090954

>  <rmsd>  (22) 
10.8647

>  <sdf_rank>  (22) 
0

$$$$

     RDKit          3D

 50 51  0  0  0  0  0  0  0  0999 V2000
   43.8199   17.3802   25.4960 N   0  0  0  0  0  0  0  0  0  0  0  0
   43.1397   16.1278   21.5110 C   0  0  1  0  0  0  0  0  0  0  0  0
   43.1038   17.6119   21.9296 C   0  0  1  0  0  0  0  0  0  0  0  0
   42.0185   18.3842   21.1899 C   0  0  0  0  0  0  0  0  0  0  0  0
   42.6749   17.0696   26.1059 C   0  0  0  0  0  0  0  0  0  0  0  0
   42.5999   17.4277   27.5966 C   0  0  0  0  0  0  0  0  0  0  0  0
   43.3626   19.1913   29.3344 C   0  0  0  0  0  0  0  0  0  0  0  0
   43.7103   20.4198   31.8557 C   0  0  0  0  0  0  0  0  0  0  0  0
   43.3489   18.4062   30.4970 C   0  0  0  0  0  0  0  0  0  0  0  0
   44.1428   20.1915   34.2725 C   0  0  0  0  0  0  0  0  0  0  0  0
   44.2036   22.4694   33.1166 C   0  0  0  0  0  0  0  0  0  0  0  0
   43.9193   21.0253   33.0814 N   0  0  0  0  0  0  0  0  0  0  0  0
   43.5282   19.0258   31.7354 C   0  0  0  0  0  0  0  0  0  0  0  0
   43.6985   21.1868   30.6809 C   0  0  0  0  0  0  0  0  0  0  0  0
   43.5262   20.5670   29.4439 C   0  0  0  0  0  0  0  0  0  0  0  0
   43.2340   18.7122   28.0239 C   0  0  0  0  0  0  0  0  0  0  0  0
   41.7707   16.6358   28.3946 C   0  0  0  0  0  0  0  0  0  0  0  0
   41.1571   15.9250   28.9968 N   0  0  0  0  0  0  0  0  0  0  0  0
   41.7105   16.5839   25.5281 O   0  0  0  0  0  0  0  0  0  0  0  0
   43.9964   17.1046   24.0665 C   0  0  2  0  0  0  0  0  0  0  0  0
   42.8558   17.7190   23.3448 O   0  0  0  0  0  0  0  0  0  0  0  0
   41.3529   19.2683   22.0940 O   0  0  0  0  0  0  0  0  0  0  0  0
   43.5015   16.0273   20.1302 O   0  0  0  0  0  0  0  0  0  0  0  0
   44.1583   15.3488   22.3369 C   0  0  2  0  0  0  0  0  0  0  0  0
   44.0440   13.9641   22.0390 O   0  0  0  0  0  0  0  0  0  0  0  0
   43.9504   15.6048   23.8430 C   0  0  1  0  0  0  0  0  0  0  0  0
   45.0035   15.0098   24.6056 O   0  0  0  0  0  0  0  0  0  0  0  0
   44.5841   17.8160   26.0318 H   0  0  0  0  0  0  0  0  0  0  0  0
   42.1394   15.7028   21.6806 H   0  0  0  0  0  0  0  0  0  0  0  0
   44.0821   18.0446   21.6734 H   0  0  0  0  0  0  0  0  0  0  0  0
   42.4752   18.9685   20.3775 H   0  0  0  0  0  0  0  0  0  0  0  0
   41.2889   17.6753   20.7714 H   0  0  0  0  0  0  0  0  0  0  0  0
   43.1991   17.3183   30.4339 H   0  0  0  0  0  0  0  0  0  0  0  0
   43.9811   20.7947   35.1780 H   0  0  0  0  0  0  0  0  0  0  0  0
   43.4397   19.3455   34.2650 H   0  0  0  0  0  0  0  0  0  0  0  0
   45.1748   19.8106   34.2650 H   0  0  0  0  0  0  0  0  0  0  0  0
   44.2696   22.8047   34.1622 H   0  0  0  0  0  0  0  0  0  0  0  0
   45.1581   22.6677   32.6070 H   0  0  0  0  0  0  0  0  0  0  0  0
   43.3956   23.0148   32.6070 H   0  0  0  0  0  0  0  0  0  0  0  0
   43.5276   18.4079   32.6455 H   0  0  0  0  0  0  0  0  0  0  0  0
   43.8254   22.2780   30.7358 H   0  0  0  0  0  0  0  0  0  0  0  0
   43.5195   21.1822   28.5321 H   0  0  0  0  0  0  0  0  0  0  0  0
   43.6429   19.3486   27.2252 H   0  0  0  0  0  0  0  0  0  0  0  0
   44.9561   17.5077   23.7108 H   0  0  0  0  0  0  0  0  0  0  0  0
   41.5544   19.0006   23.0256 H   0  0  0  0  0  0  0  0  0  0  0  0
   44.4528   15.7631   20.0567 H   0  0  0  0  0  0  0  0  0  0  0  0
   45.1713   15.6903   22.0780 H   0  0  0  0  0  0  0  0  0  0  0  0
   44.0014   13.4475   22.8824 H   0  0  0  0  0  0  0  0  0  0  0  0
   42.9897   15.1717   24.1586 H   0  0  0  0  0  0  0  0  0  0  0  0
   44.8132   15.1173   25.5711 H   0  0  0  0  0  0  0  0  0  0  0  0
  1  5  1  0
 20  1  1  0
  2  3  1  0
  2 23  1  0
  2 24  1  0
  3  4  1  0
  3 21  1  0
  4 22  1  0
  5  6  1  0
  5 19  2  0
  6 16  2  3
  6 17  1  0
  7  9  2  0
  7 15  1  0
  7 16  1  0
  8 12  1  0
  8 13  2  0
  8 14  1  0
  9 13  1  0
 10 12  1  0
 11 12  1  0
 14 15  2  0
 17 18  3  0
 20 21  1  0
 20 26  1  0
 24 25  1  0
 24 26  1  0
 26 27  1  0
  1 28  1  0
  2 29  1  6
  3 30  1  1
  4 31  1  0
  4 32  1  0
  9 33  1  0
 10 34  1  0
 10 35  1  0
 10 36  1  0
 11 37  1  0
 11 38  1  0
 11 39  1  0
 13 40  1  0
 14 41  1  0
 15 42  1  0
 16 43  1  0
 20 44  1  6
 22 45  1  0
 23 46  1  0
 24 47  1  6
 25 48  1  0
 26 49  1  1
 27 50  1  0
M  END
>  <filename_input>  (23) 
7Q5I_I0F_docked.sdf

>  <pdb_id>  (23) 
7Q5I_I0F

>  <pose_rank>  (23) 
22

>  <num_atoms_heavy>  (23) 
27

>  <num_torsions>  (23) 
6

>  <pose>  (23) 
[43.81993936876484, 17.380246415547838, 25.49596231269286, -2.1078814802829173, 4.302241633592819, -2.1976224294261053, 2.4873990159468433, 1.4594840963921334, 9.940704692408795, 0.4798715423924737, 0.022848316811303507, 0.4848663720095522]

>  <energy>  (23) 
-148.38849532806714

>  <inter_energy>  (23) 
-177.3019766938356

>  <intra_energy>  (23) 
38.764471144846226

>  <rmsd>  (23) 
11.365

>  <sdf_rank>  (23) 
0

$$$$

     RDKit          3D

 50 51  0  0  0  0  0  0  0  0999 V2000
   35.0051   17.4062   36.1248 N   0  0  0  0  0  0  0  0  0  0  0  0
   39.1606   16.8026   36.6530 C   0  0  1  0  0  0  0  0  0  0  0  0
   38.4496   16.5350   35.3107 C   0  0  1  0  0  0  0  0  0  0  0  0
   39.0159   15.3108   34.6024 C   0  0  0  0  0  0  0  0  0  0  0  0
   34.4295   16.8259   37.1792 C   0  0  0  0  0  0  0  0  0  0  0  0
   32.9030   16.6836   37.1059 C   0  0  0  0  0  0  0  0  0  0  0  0
   30.7108   17.3317   38.3250 C   0  0  0  0  0  0  0  0  0  0  0  0
   27.9096   17.5076   38.6558 C   0  0  0  0  0  0  0  0  0  0  0  0
   29.9932   16.2132   38.7746 C   0  0  0  0  0  0  0  0  0  0  0  0
   25.7264   16.3954   38.9327 C   0  0  0  0  0  0  0  0  0  0  0  0
   25.9900   18.9155   39.2616 C   0  0  0  0  0  0  0  0  0  0  0  0
   26.5447   17.6151   38.8508 N   0  0  0  0  0  0  0  0  0  0  0  0
   28.6106   16.3163   38.9395 C   0  0  0  0  0  0  0  0  0  0  0  0
   28.6457   18.6060   38.1867 C   0  0  0  0  0  0  0  0  0  0  0  0
   30.0272   18.5048   38.0285 C   0  0  0  0  0  0  0  0  0  0  0  0
   32.0993   17.3938   38.1472 C   0  0  0  0  0  0  0  0  0  0  0  0
   32.3801   16.0801   35.9597 C   0  0  0  0  0  0  0  0  0  0  0  0
   31.8906   15.6656   35.0469 N   0  0  0  0  0  0  0  0  0  0  0  0
   35.0566   16.3753   38.1298 O   0  0  0  0  0  0  0  0  0  0  0  0
   36.4610   17.5751   36.0752 C   0  0  2  0  0  0  0  0  0  0  0  0
   37.0418   16.3232   35.5323 O   0  0  0  0  0  0  0  0  0  0  0  0
   38.8068   14.1477   35.4058 O   0  0  0  0  0  0  0  0  0  0  0  0
   40.5335   17.1267   36.4125 O   0  0  0  0  0  0  0  0  0  0  0  0
   38.5111   17.9653   37.3964 C   0  0  2  0  0  0  0  0  0  0  0  0
   39.0837   18.0726   38.6924 O   0  0  0  0  0  0  0  0  0  0  0  0
   36.9842   17.7714   37.4856 C   0  0  1  0  0  0  0  0  0  0  0  0
   36.3593   18.9354   38.0328 O   0  0  0  0  0  0  0  0  0  0  0  0
   34.4240   17.7373   35.3416 H   0  0  0  0  0  0  0  0  0  0  0  0
   39.0798   15.8937   37.2673 H   0  0  0  0  0  0  0  0  0  0  0  0
   38.6136   17.4179   34.6754 H   0  0  0  0  0  0  0  0  0  0  0  0
   38.5095   15.1819   33.6344 H   0  0  0  0  0  0  0  0  0  0  0  0
   40.0947   15.4513   34.4401 H   0  0  0  0  0  0  0  0  0  0  0  0
   30.5124   15.2685   38.9940 H   0  0  0  0  0  0  0  0  0  0  0  0
   25.5546   16.1394   39.9886 H   0  0  0  0  0  0  0  0  0  0  0  0
   24.7605   16.5678   38.4353 H   0  0  0  0  0  0  0  0  0  0  0  0
   26.2522   15.5671   38.4353 H   0  0  0  0  0  0  0  0  0  0  0  0
   25.9654   18.9732   40.3598 H   0  0  0  0  0  0  0  0  0  0  0  0
   26.6213   19.7249   38.8660 H   0  0  0  0  0  0  0  0  0  0  0  0
   24.9690   19.0202   38.8660 H   0  0  0  0  0  0  0  0  0  0  0  0
   28.0504   15.4418   39.3020 H   0  0  0  0  0  0  0  0  0  0  0  0
   28.1323   19.5480   37.9435 H   0  0  0  0  0  0  0  0  0  0  0  0
   30.5900   19.3751   37.6600 H   0  0  0  0  0  0  0  0  0  0  0  0
   32.6568   18.0327   38.8480 H   0  0  0  0  0  0  0  0  0  0  0  0
   36.7285   18.4410   35.4518 H   0  0  0  0  0  0  0  0  0  0  0  0
   38.8514   14.3956   36.3632 H   0  0  0  0  0  0  0  0  0  0  0  0
   41.0027   17.2375   37.2772 H   0  0  0  0  0  0  0  0  0  0  0  0
   38.6964   18.8975   36.8426 H   0  0  0  0  0  0  0  0  0  0  0  0
   38.3799   17.9407   39.3761 H   0  0  0  0  0  0  0  0  0  0  0  0
   36.7620   16.9081   38.1301 H   0  0  0  0  0  0  0  0  0  0  0  0
   36.3841   18.8893   39.0214 H   0  0  0  0  0  0  0  0  0  0  0  0
  1  5  1  0
 20  1  1  0
  2  3  1  0
  2 23  1  0
  2 24  1  0
  3  4  1  0
  3 21  1  0
  4 22  1  0
  5  6  1  0
  5 19  2  0
  6 16  2  3
  6 17  1  0
  7  9  2  0
  7 15  1  0
  7 16  1  0
  8 12  1  0
  8 13  2  0
  8 14  1  0
  9 13  1  0
 10 12  1  0
 11 12  1  0
 14 15  2  0
 17 18  3  0
 20 21  1  0
 20 26  1  0
 24 25  1  0
 24 26  1  0
 26 27  1  0
  1 28  1  0
  2 29  1  1
  3 30  1  6
  4 31  1  0
  4 32  1  0
  9 33  1  0
 10 34  1  0
 10 35  1  0
 10 36  1  0
 11 37  1  0
 11 38  1  0
 11 39  1  0
 13 40  1  0
 14 41  1  0
 15 42  1  0
 16 43  1  0
 20 44  1  6
 22 45  1  0
 23 46  1  0
 24 47  1  6
 25 48  1  0
 26 49  1  1
 27 50  1  0
M  END
>  <filename_input>  (24) 
7Q5I_I0F_docked.sdf

>  <pdb_id>  (24) 
7Q5I_I0F

>  <pose_rank>  (24) 
23

>  <num_atoms_heavy>  (24) 
27

>  <num_torsions>  (24) 
6

>  <pose>  (24) 
[35.00514421037265, 17.40617538330093, 36.1248293135061, -0.769113435350386, -0.2426901941768026, 2.6510101798224794, 3.0570784049271635, 0.13247632800911419, 0.9296941910162022, 1.2849731736646257, -0.4758905118484138, -2.8792731016304085]

>  <energy>  (24) 
-95.83741824714075

>  <inter_energy>  (24) 
-148.68860154558007

>  <intra_energy>  (24) 
59.149111321752784

>  <rmsd>  (24) 
12.5653

>  <sdf_rank>  (24) 
0

$$$$

     RDKit          3D

 50 51  0  0  0  0  0  0  0  0999 V2000
   38.8422   16.3182   32.1651 N   0  0  0  0  0  0  0  0  0  0  0  0
   38.1554   16.5213   36.3362 C   0  0  1  0  0  0  0  0  0  0  0  0
   38.0155   17.7495   35.4138 C   0  0  1  0  0  0  0  0  0  0  0  0
   38.5128   19.0235   36.0853 C   0  0  0  0  0  0  0  0  0  0  0  0
   40.1716   16.2409   32.0850 C   0  0  0  0  0  0  0  0  0  0  0  0
   40.7475   16.1851   30.6634 C   0  0  0  0  0  0  0  0  0  0  0  0
   42.0311   17.5861   28.9022 C   0  0  0  0  0  0  0  0  0  0  0  0
   43.1533   18.2798   26.4029 C   0  0  0  0  0  0  0  0  0  0  0  0
   41.8915   16.7138   27.8124 C   0  0  0  0  0  0  0  0  0  0  0  0
   45.1165   18.8969   25.0447 C   0  0  0  0  0  0  0  0  0  0  0  0
   42.8311   18.4908   23.9768 C   0  0  0  0  0  0  0  0  0  0  0  0
   43.6730   18.6457   25.1746 N   0  0  0  0  0  0  0  0  0  0  0  0
   42.4456   17.0723   26.5819 C   0  0  0  0  0  0  0  0  0  0  0  0
   43.2985   19.1258   27.5127 C   0  0  0  0  0  0  0  0  0  0  0  0
   42.7394   18.7707   28.7395 C   0  0  0  0  0  0  0  0  0  0  0  0
   41.5012   17.3836   30.1835 C   0  0  0  0  0  0  0  0  0  0  0  0
   40.7030   14.9497   30.0128 C   0  0  0  0  0  0  0  0  0  0  0  0
   40.6788   14.0124   29.4084 N   0  0  0  0  0  0  0  0  0  0  0  0
   40.9111   16.2691   33.0608 O   0  0  0  0  0  0  0  0  0  0  0  0
   38.1822   16.3993   33.4722 C   0  0  2  0  0  0  0  0  0  0  0  0
   38.7718   17.5463   34.2044 O   0  0  0  0  0  0  0  0  0  0  0  0
   39.8770   19.2566   35.7294 O   0  0  0  0  0  0  0  0  0  0  0  0
   37.3099   16.6812   37.4796 O   0  0  0  0  0  0  0  0  0  0  0  0
   37.7531   15.2412   35.6111 C   0  0  2  0  0  0  0  0  0  0  0  0
   38.0517   14.1218   36.4339 O   0  0  0  0  0  0  0  0  0  0  0  0
   38.4758   15.1325   34.2536 C   0  0  1  0  0  0  0  0  0  0  0  0
   37.9758   14.0224   33.5037 O   0  0  0  0  0  0  0  0  0  0  0  0
   38.2763   16.3208   31.3045 H   0  0  0  0  0  0  0  0  0  0  0  0
   39.2092   16.4447   36.6422 H   0  0  0  0  0  0  0  0  0  0  0  0
   36.9452   17.8644   35.1872 H   0  0  0  0  0  0  0  0  0  0  0  0
   37.8986   19.8742   35.7550 H   0  0  0  0  0  0  0  0  0  0  0  0
   38.4357   18.9129   37.1770 H   0  0  0  0  0  0  0  0  0  0  0  0
   41.3534   15.7611   27.9256 H   0  0  0  0  0  0  0  0  0  0  0  0
   45.5666   18.9752   26.0453 H   0  0  0  0  0  0  0  0  0  0  0  0
   45.5852   18.0668   24.4958 H   0  0  0  0  0  0  0  0  0  0  0  0
   45.2773   19.8365   24.4958 H   0  0  0  0  0  0  0  0  0  0  0  0
   41.7916   18.2995   24.2815 H   0  0  0  0  0  0  0  0  0  0  0  0
   42.8737   19.4119   23.3770 H   0  0  0  0  0  0  0  0  0  0  0  0
   43.1988   17.6453   23.3770 H   0  0  0  0  0  0  0  0  0  0  0  0
   42.3266   16.3923   25.7255 H   0  0  0  0  0  0  0  0  0  0  0  0
   43.8541   20.0701   27.4147 H   0  0  0  0  0  0  0  0  0  0  0  0
   42.8620   19.4449   29.6000 H   0  0  0  0  0  0  0  0  0  0  0  0
   41.6561   18.1920   30.9132 H   0  0  0  0  0  0  0  0  0  0  0  0
   37.0959   16.5213   33.3497 H   0  0  0  0  0  0  0  0  0  0  0  0
   40.4211   19.3496   36.5512 H   0  0  0  0  0  0  0  0  0  0  0  0
   37.8477   16.5795   38.3045 H   0  0  0  0  0  0  0  0  0  0  0  0
   36.6715   15.2629   35.4116 H   0  0  0  0  0  0  0  0  0  0  0  0
   37.9818   14.3840   37.3860 H   0  0  0  0  0  0  0  0  0  0  0  0
   39.5539   14.9949   34.4230 H   0  0  0  0  0  0  0  0  0  0  0  0
   37.6594   13.3199   34.1253 H   0  0  0  0  0  0  0  0  0  0  0  0
  1  5  1  0
 20  1  1  0
  2  3  1  0
  2 23  1  0
  2 24  1  0
  3  4  1  0
  3 21  1  0
  4 22  1  0
  5  6  1  0
  5 19  2  0
  6 16  2  3
  6 17  1  0
  7  9  2  0
  7 15  1  0
  7 16  1  0
  8 12  1  0
  8 13  2  0
  8 14  1  0
  9 13  1  0
 10 12  1  0
 11 12  1  0
 14 15  2  0
 17 18  3  0
 20 21  1  0
 20 26  1  0
 24 25  1  0
 24 26  1  0
 26 27  1  0
  1 28  1  0
  2 29  1  1
  3 30  1  6
  4 31  1  0
  4 32  1  0
  9 33  1  0
 10 34  1  0
 10 35  1  0
 10 36  1  0
 11 37  1  0
 11 38  1  0
 11 39  1  0
 13 40  1  0
 14 41  1  0
 15 42  1  0
 16 43  1  0
 20 44  1  6
 22 45  1  0
 23 46  1  0
 24 47  1  6
 25 48  1  0
 26 49  1  1
 27 50  1  0
M  END
>  <filename_input>  (25) 
7Q5I_I0F_docked.sdf

>  <pdb_id>  (25) 
7Q5I_I0F

>  <pose_rank>  (25) 
24

>  <num_atoms_heavy>  (25) 
27

>  <num_torsions>  (25) 
6

>  <pose>  (25) 
[38.84216994258507, 16.318162994995728, 32.16511801530918, 0.09923670062649838, 1.7728158282048452, -0.5609611221417627, -3.766494132326312, 0.692838111298519, -1.3668676970428255, 0.13190893934376782, -2.252128306335243, 2.3609545512125343]

>  <energy>  (25) 
-100.09927579807359

>  <inter_energy>  (25) 
-150.6765178269391

>  <intra_energy>  (25) 
46.74926178596977

>  <rmsd>  (25) 
12.1122

>  <sdf_rank>  (25) 
0

$$$$

     RDKit          3D

 50 51  0  0  0  0  0  0  0  0999 V2000
   34.4610   23.4540   28.7380 N   0  0  0  0  0  0  0  0  0  0  0  0
   32.4030   21.0290   25.9460 C   0  0  1  0  0  0  0  0  0  0  0  0
   32.2340   20.8620   27.4700 C   0  0  1  0  0  0  0  0  0  0  0  0
   32.0970   19.3980   27.8690 C   0  0  0  0  0  0  0  0  0  0  0  0
   34.1760   23.8820   29.9690 C   0  0  0  0  0  0  0  0  0  0  0  0
   35.3510   24.4890   30.7480 C   0  0  0  0  0  0  0  0  0  0  0  0
   36.0200   25.4330   33.0660 C   0  0  0  0  0  0  0  0  0  0  0  0
   37.5860   26.7610   35.0080 C   0  0  0  0  0  0  0  0  0  0  0  0
   37.3330   25.8170   32.7550 C   0  0  0  0  0  0  0  0  0  0  0  0
   39.6240   28.0310   35.5680 C   0  0  0  0  0  0  0  0  0  0  0  0
   37.6890   27.8180   37.2230 C   0  0  0  0  0  0  0  0  0  0  0  0
   38.3310   27.4440   35.9520 N   0  0  0  0  0  0  0  0  0  0  0  0
   38.0930   26.4780   33.7220 C   0  0  0  0  0  0  0  0  0  0  0  0
   36.2780   26.3480   35.3030 C   0  0  0  0  0  0  0  0  0  0  0  0
   35.5170   25.6940   34.3350 C   0  0  0  0  0  0  0  0  0  0  0  0
   35.1260   24.7990   32.1930 C   0  0  0  0  0  0  0  0  0  0  0  0
   36.5910   24.5090   30.1050 C   0  0  0  0  0  0  0  0  0  0  0  0
   37.5320   24.5240   29.5060 N   0  0  0  0  0  0  0  0  0  0  0  0
   33.0500   23.8580   30.4500 O   0  0  0  0  0  0  0  0  0  0  0  0
   33.4110   22.8760   27.8930 C   0  0  2  0  0  0  0  0  0  0  0  0
   33.3730   21.4170   28.1560 O   0  0  0  0  0  0  0  0  0  0  0  0
   33.2060   18.6530   27.3620 O   0  0  0  0  0  0  0  0  0  0  0  0
   31.2180   20.5820   25.2800 O   0  0  0  0  0  0  0  0  0  0  0  0
   32.6450   22.4890   25.5770 C   0  0  2  0  0  0  0  0  0  0  0  0
   32.9590   22.5780   24.1940 O   0  0  0  0  0  0  0  0  0  0  0  0
   33.7760   23.0890   26.4360 C   0  0  1  0  0  0  0  0  0  0  0  0
   33.8900   24.4960   26.2080 O   0  0  0  0  0  0  0  0  0  0  0  0
   35.4235   23.5299   28.3792 H   0  0  0  0  0  0  0  0  0  0  0  0
   33.2715   20.4308   25.6331 H   0  0  0  0  0  0  0  0  0  0  0  0
   31.3135   21.3931   27.7541 H   0  0  0  0  0  0  0  0  0  0  0  0
   32.0746   19.3189   28.9659 H   0  0  0  0  0  0  0  0  0  0  0  0
   31.1645   18.9926   27.4494 H   0  0  0  0  0  0  0  0  0  0  0  0
   37.7576   25.6005   31.7636 H   0  0  0  0  0  0  0  0  0  0  0  0
   40.1928   28.2892   36.4734 H   0  0  0  0  0  0  0  0  0  0  0  0
   40.1943   27.3035   34.9717 H   0  0  0  0  0  0  0  0  0  0  0  0
   39.4518   28.9392   34.9717 H   0  0  0  0  0  0  0  0  0  0  0  0
   38.3027   27.4605   38.0629 H   0  0  0  0  0  0  0  0  0  0  0  0
   37.5944   28.9125   37.2779 H   0  0  0  0  0  0  0  0  0  0  0  0
   36.6902   27.3604   37.2779 H   0  0  0  0  0  0  0  0  0  0  0  0
   39.1188   26.7877   33.4735 H   0  0  0  0  0  0  0  0  0  0  0  0
   35.8525   26.5404   36.2990 H   0  0  0  0  0  0  0  0  0  0  0  0
   34.4931   25.3767   34.5818 H   0  0  0  0  0  0  0  0  0  0  0  0
   34.1562   24.4975   32.6156 H   0  0  0  0  0  0  0  0  0  0  0  0
   32.4396   23.3448   28.1089 H   0  0  0  0  0  0  0  0  0  0  0  0
   33.7370   18.2963   28.1176 H   0  0  0  0  0  0  0  0  0  0  0  0
   30.5383   20.3256   25.9525 H   0  0  0  0  0  0  0  0  0  0  0  0
   31.7319   23.0689   25.7768 H   0  0  0  0  0  0  0  0  0  0  0  0
   33.9059   22.8464   24.0872 H   0  0  0  0  0  0  0  0  0  0  0  0
   34.7290   22.6049   26.1762 H   0  0  0  0  0  0  0  0  0  0  0  0
   33.9283   24.9691   27.0768 H   0  0  0  0  0  0  0  0  0  0  0  0
  1  5  1  0
 20  1  1  0
  2  3  1  0
  2 23  1  0
  2 24  1  0
  3  4  1  0
  3 21  1  0
  4 22  1  0
  5  6  1  0
  5 19  2  0
  6 16  2  3
  6 17  1  0
  7  9  2  0
  7 15  1  0
  7 16  1  0
  8 12  1  0
  8 13  2  0
  8 14  1  0
  9 13  1  0
 10 12  1  0
 11 12  1  0
 14 15  2  0
 17 18  3  0
 20 21  1  0
 20 26  1  0
 24 25  1  0
 24 26  1  0
 26 27  1  0
  1 28  1  0
  2 29  1  6
  3 30  1  1
  4 31  1  0
  4 32  1  0
  9 33  1  0
 10 34  1  0
 10 35  1  0
 10 36  1  0
 11 37  1  0
 11 38  1  0
 11 39  1  0
 13 40  1  0
 14 41  1  0
 15 42  1  0
 16 43  1  0
 20 44  1  1
 22 45  1  0
 23 46  1  0
 24 47  1  6
 25 48  1  0
 26 49  1  6
 27 50  1  0
M  END
>  <filename_input>  (26) 
7Q5I_I0F_docked.sdf

>  <pdb_id>  (26) 
7Q5I_I0F

>  <pose_rank>  (26) 
25

>  <num_atoms_heavy>  (26) 
27

>  <num_torsions>  (26) 
6

>  <pose>  (26) 
[34.461, 23.454, 28.738, 1e-06, 1e-06, 1e-06, 0.0, 0.0, 0.0, 0.0, 0.0, 0.0]

>  <energy>  (26) 
-2179.7734047213

>  <inter_energy>  (26) 
-2209.6166412634775

>  <intra_energy>  (26) 
20.22309308122619

>  <rmsd>  (26) 
0.0

>  <sdf_rank>  (26) 
0

$$$$
