
     RDKit          3D

 30 30  0  0  0  0  0  0  0  0999 V2000
   48.8264   18.9868   73.7803 C   0  0  2  0  0  0  0  0  0  0  0  0
   49.9213   19.8135   74.4592 C   0  0  1  0  0  0  0  0  0  0  0  0
   50.2432   19.2434   75.8396 C   0  0  2  0  0  0  0  0  0  0  0  0
   48.9669   19.1067   76.6497 C   0  0  2  0  0  0  0  0  0  0  0  0
   48.0027   18.2597   75.8391 C   0  0  1  0  0  0  0  0  0  0  0  0
   46.7312   17.9725   76.6176 C   0  0  0  0  0  0  0  0  0  0  0  0
   51.6451   20.9374   73.1317 C   0  0  0  0  0  0  0  0  0  0  0  0
   52.9050   20.7189   72.3449 C   0  0  0  0  0  0  0  0  0  0  0  0
   51.1226   19.8201   73.6478 N   0  0  0  0  0  0  0  0  0  0  0  0
   48.4384   19.5250   72.5112 O   0  0  0  0  0  0  0  0  0  0  0  0
   51.1420   20.0867   76.5581 O   0  0  0  0  0  0  0  0  0  0  0  0
   48.4634   20.4284   76.9246 O   0  0  0  0  0  0  0  0  0  0  0  0
   47.6826   18.9366   74.6258 O   0  0  0  0  0  0  0  0  0  0  0  0
   45.6499   18.3058   75.7529 O   0  0  0  0  0  0  0  0  0  0  0  0
   51.1557   22.0556   73.2753 O   0  0  0  0  0  0  0  0  0  0  0  0
   49.2369   17.9810   73.6073 H   0  0  0  0  0  0  0  0  0  0  0  0
   49.5536   20.8440   74.5724 H   0  0  0  0  0  0  0  0  0  0  0  0
   50.7166   18.2619   75.6894 H   0  0  0  0  0  0  0  0  0  0  0  0
   49.1257   18.6103   77.6184 H   0  0  0  0  0  0  0  0  0  0  0  0
   48.4889   17.2985   75.6161 H   0  0  0  0  0  0  0  0  0  0  0  0
   46.6850   16.9084   76.8926 H   0  0  0  0  0  0  0  0  0  0  0  0
   46.6925   18.5555   77.5496 H   0  0  0  0  0  0  0  0  0  0  0  0
   53.7481   20.5726   73.0361 H   0  0  0  0  0  0  0  0  0  0  0  0
   52.7914   19.8270   71.7111 H   0  0  0  0  0  0  0  0  0  0  0  0
   53.0984   21.5969   71.7111 H   0  0  0  0  0  0  0  0  0  0  0  0
   51.5947   18.9241   73.4604 H   0  0  0  0  0  0  0  0  0  0  0  0
   47.8652   20.3200   72.6512 H   0  0  0  0  0  0  0  0  0  0  0  0
   51.0071   19.9601   77.5307 H   0  0  0  0  0  0  0  0  0  0  0  0
   48.4114   20.5647   77.9038 H   0  0  0  0  0  0  0  0  0  0  0  0
   44.8578   18.5500   76.2941 H   0  0  0  0  0  0  0  0  0  0  0  0
  1  2  1  0
  1 10  1  0
  1 13  1  0
  2  3  1  0
  2  9  1  0
  3  4  1  0
  3 11  1  0
  4  5  1  0
  4 12  1  0
  5  6  1  0
  5 13  1  0
  6 14  1  0
  7  8  1  0
  7  9  1  0
  7 15  2  0
  1 16  1  6
  2 17  1  1
  3 18  1  6
  4 19  1  1
  5 20  1  6
  6 21  1  0
  6 22  1  0
  8 23  1  0
  8 24  1  0
  8 25  1  0
  9 26  1  0
 10 27  1  0
 11 28  1  0
 12 29  1  0
 14 30  1  0
M  END
>  <filename_input>  (1) 
7QE4_NGA_docked.sdf

>  <pdb_id>  (1) 
7QE4_NGA

>  <pose_rank>  (1) 
0

>  <num_atoms_heavy>  (1) 
15

>  <num_torsions>  (1) 
2

>  <pose>  (1) 
[48.82643582245793, 18.986782521308143, 73.78025882789385, 5.762036731426328, 1.3983516096331392, -1.8417033923025177, 5.943592923855713, 1.372563418313398]

>  <energy>  (1) 
-398.5056755104431

>  <inter_energy>  (1) 
-393.84507598006434

>  <intra_energy>  (1) 
0.08608614307503847

>  <rmsd>  (1) 
0.665132

>  <sdf_rank>  (1) 
0

$$$$

     RDKit          3D

 30 30  0  0  0  0  0  0  0  0999 V2000
   52.6555   12.8406   68.9917 C   0  0  2  0  0  0  0  0  0  0  0  0
   51.3371   12.0634   68.9617 C   0  0  1  0  0  0  0  0  0  0  0  0
   50.1777   12.9909   68.6018 C   0  0  2  0  0  0  0  0  0  0  0  0
   50.1758   14.1942   69.5271 C   0  0  2  0  0  0  0  0  0  0  0  0
   51.5436   14.8453   69.4288 C   0  0  1  0  0  0  0  0  0  0  0  0
   51.6038   16.1283   70.2382 C   0  0  0  0  0  0  0  0  0  0  0  0
   51.6038   11.1927   66.6884 C   0  0  0  0  0  0  0  0  0  0  0  0
   51.6725    9.9350   65.8715 C   0  0  0  0  0  0  0  0  0  0  0  0
   51.4106   10.9855   67.9951 N   0  0  0  0  0  0  0  0  0  0  0  0
   53.7636   12.0281   69.3952 O   0  0  0  0  0  0  0  0  0  0  0  0
   48.9198   12.3292   68.7244 O   0  0  0  0  0  0  0  0  0  0  0  0
   49.8614   13.7395   70.8576 O   0  0  0  0  0  0  0  0  0  0  0  0
   52.5362   13.9341   69.8949 O   0  0  0  0  0  0  0  0  0  0  0  0
   52.7843   16.0454   71.0304 O   0  0  0  0  0  0  0  0  0  0  0  0
   51.7184   12.3048   66.1780 O   0  0  0  0  0  0  0  0  0  0  0  0
   52.8512   13.1910   67.9675 H   0  0  0  0  0  0  0  0  0  0  0  0
   51.1634   11.6423   69.9629 H   0  0  0  0  0  0  0  0  0  0  0  0
   50.3170   13.3034   67.5563 H   0  0  0  0  0  0  0  0  0  0  0  0
   49.4201   14.9447   69.2519 H   0  0  0  0  0  0  0  0  0  0  0  0
   51.7317   15.0991   68.3752 H   0  0  0  0  0  0  0  0  0  0  0  0
   51.6549   16.9993   69.5683 H   0  0  0  0  0  0  0  0  0  0  0  0
   50.7084   16.2478   70.8658 H   0  0  0  0  0  0  0  0  0  0  0  0
   51.7200    9.0643   66.5421 H   0  0  0  0  0  0  0  0  0  0  0  0
   50.7771    9.8606   65.2369 H   0  0  0  0  0  0  0  0  0  0  0  0
   52.5707    9.9585   65.2369 H   0  0  0  0  0  0  0  0  0  0  0  0
   51.3095   10.0167   68.3300 H   0  0  0  0  0  0  0  0  0  0  0  0
   53.8068   11.9964   70.3838 H   0  0  0  0  0  0  0  0  0  0  0  0
   48.6999   12.2135   69.6827 H   0  0  0  0  0  0  0  0  0  0  0  0
   50.2796   14.3443   71.5205 H   0  0  0  0  0  0  0  0  0  0  0  0
   52.5398   16.0626   71.9896 H   0  0  0  0  0  0  0  0  0  0  0  0
  1  2  1  0
  1 10  1  0
  1 13  1  0
  2  3  1  0
  2  9  1  0
  3  4  1  0
  3 11  1  0
  4  5  1  0
  4 12  1  0
  5  6  1  0
  5 13  1  0
  6 14  1  0
  7  8  1  0
  7  9  1  0
  7 15  2  0
  1 16  1  6
  2 17  1  1
  3 18  1  6
  4 19  1  6
  5 20  1  6
  6 21  1  0
  6 22  1  0
  8 23  1  0
  8 24  1  0
  8 25  1  0
  9 26  1  0
 10 27  1  0
 11 28  1  0
 12 29  1  0
 14 30  1  0
M  END
>  <filename_input>  (2) 
7QE4_NGA_docked.sdf

>  <pdb_id>  (2) 
7QE4_NGA

>  <pose_rank>  (2) 
1

>  <num_atoms_heavy>  (2) 
15

>  <num_torsions>  (2) 
2

>  <pose>  (2) 
[52.65549905950528, 12.840606367934017, 68.99169865155602, 1.401788826251714, -1.1202467656938202, -2.293237626319478, -9.762053122553676, 1.3871781355825377]

>  <energy>  (2) 
14.899167508836499

>  <inter_energy>  (2) 
-7.892034574487611

>  <intra_energy>  (2) 
22.981073754449323

>  <rmsd>  (2) 
10.1548

>  <sdf_rank>  (2) 
0

$$$$

     RDKit          3D

 30 30  0  0  0  0  0  0  0  0999 V2000
   48.4726   17.8131   74.2684 C   0  0  2  0  0  0  0  0  0  0  0  0
   49.3654   18.9998   74.6394 C   0  0  1  0  0  0  0  0  0  0  0  0
   49.5192   19.0997   76.1561 C   0  0  2  0  0  0  0  0  0  0  0  0
   48.1502   19.1154   76.8116 C   0  0  2  0  0  0  0  0  0  0  0  0
   47.4084   17.8761   76.3443 C   0  0  1  0  0  0  0  0  0  0  0  0
   46.0633   17.7442   77.0359 C   0  0  0  0  0  0  0  0  0  0  0  0
   51.2478   19.8201   73.3048 C   0  0  0  0  0  0  0  0  0  0  0  0
   52.6133   19.4689   72.7890 C   0  0  0  0  0  0  0  0  0  0  0  0
   50.6730   18.8552   74.0303 N   0  0  0  0  0  0  0  0  0  0  0  0
   48.2394   17.7201   72.8585 O   0  0  0  0  0  0  0  0  0  0  0  0
   50.2114   20.2880   76.5354 O   0  0  0  0  0  0  0  0  0  0  0  0
   47.4884   20.3414   76.4445 O   0  0  0  0  0  0  0  0  0  0  0  0
   47.2203   17.9411   74.9325 O   0  0  0  0  0  0  0  0  0  0  0  0
   45.2401   16.9755   76.1644 O   0  0  0  0  0  0  0  0  0  0  0  0
   50.7246   20.9067   73.0680 O   0  0  0  0  0  0  0  0  0  0  0  0
   48.9974   16.8990   74.5830 H   0  0  0  0  0  0  0  0  0  0  0  0
   48.8897   19.9182   74.2648 H   0  0  0  0  0  0  0  0  0  0  0  0
   50.1000   18.2262   76.4873 H   0  0  0  0  0  0  0  0  0  0  0  0
   48.2012   19.0886   77.9101 H   0  0  0  0  0  0  0  0  0  0  0  0
   48.0113   16.9932   76.6027 H   0  0  0  0  0  0  0  0  0  0  0  0
   46.1801   17.2302   78.0014 H   0  0  0  0  0  0  0  0  0  0  0  0
   45.6196   18.7300   77.2392 H   0  0  0  0  0  0  0  0  0  0  0  0
   53.2918   19.2943   73.6370 H   0  0  0  0  0  0  0  0  0  0  0  0
   52.5505   18.5576   72.1761 H   0  0  0  0  0  0  0  0  0  0  0  0
   52.9980   20.2973   72.1761 H   0  0  0  0  0  0  0  0  0  0  0  0
   51.1819   17.9696   74.1623 H   0  0  0  0  0  0  0  0  0  0  0  0
   47.3320   17.3586   72.6972 H   0  0  0  0  0  0  0  0  0  0  0  0
   50.2466   20.3484   77.5230 H   0  0  0  0  0  0  0  0  0  0  0  0
   47.2238   20.8315   77.2630 H   0  0  0  0  0  0  0  0  0  0  0  0
   44.6318   16.4076   76.7006 H   0  0  0  0  0  0  0  0  0  0  0  0
  1  2  1  0
  1 10  1  0
  1 13  1  0
  2  3  1  0
  2  9  1  0
  3  4  1  0
  3 11  1  0
  4  5  1  0
  4 12  1  0
  5  6  1  0
  5 13  1  0
  6 14  1  0
  7  8  1  0
  7  9  1  0
  7 15  2  0
  1 16  1  1
  2 17  1  6
  3 18  1  1
  4 19  1  1
  5 20  1  6
  6 21  1  0
  6 22  1  0
  8 23  1  0
  8 24  1  0
  8 25  1  0
  9 26  1  0
 10 27  1  0
 11 28  1  0
 12 29  1  0
 14 30  1  0
M  END
>  <filename_input>  (3) 
7QE4_NGA_docked.sdf

>  <pdb_id>  (3) 
7QE4_NGA

>  <pose_rank>  (3) 
2

>  <num_atoms_heavy>  (3) 
15

>  <num_torsions>  (3) 
2

>  <pose>  (3) 
[48.47264672742176, 17.81306841813873, 74.26835945099214, -0.5025529806651919, -0.15097531775492729, 0.14788078697026913, -0.15824097224006123, 1.8077585264417504]

>  <energy>  (3) 
-436.97101914353823

>  <inter_energy>  (3) 
-435.36906106401284

>  <intra_energy>  (3) 
0.9199226555501716

>  <rmsd>  (3) 
1.25237

>  <sdf_rank>  (3) 
0

$$$$

     RDKit          3D

 30 30  0  0  0  0  0  0  0  0999 V2000
   47.7354   18.9651   74.1259 C   0  0  2  0  0  0  0  0  0  0  0  0
   48.9072   19.8790   74.4930 C   0  0  1  0  0  0  0  0  0  0  0  0
   49.6067   19.3716   75.7529 C   0  0  2  0  0  0  0  0  0  0  0  0
   48.5897   19.1788   76.8631 C   0  0  2  0  0  0  0  0  0  0  0  0
   47.5120   18.2489   76.3357 C   0  0  1  0  0  0  0  0  0  0  0  0
   46.5020   17.9053   77.4160 C   0  0  0  0  0  0  0  0  0  0  0  0
   50.0211   21.0200   72.6344 C   0  0  0  0  0  0  0  0  0  0  0  0
   51.0794   20.8725   71.5798 C   0  0  0  0  0  0  0  0  0  0  0  0
   49.8604   19.9373   73.4023 N   0  0  0  0  0  0  0  0  0  0  0  0
   47.0026   19.4398   72.9909 O   0  0  0  0  0  0  0  0  0  0  0  0
   50.5981   20.2909   76.2080 O   0  0  0  0  0  0  0  0  0  0  0  0
   48.0828   20.4736   77.2404 O   0  0  0  0  0  0  0  0  0  0  0  0
   46.8494   18.8679   75.2355 O   0  0  0  0  0  0  0  0  0  0  0  0
   45.3871   18.7666   77.2085 O   0  0  0  0  0  0  0  0  0  0  0  0
   49.3721   22.0559   72.7617 O   0  0  0  0  0  0  0  0  0  0  0  0
   48.1566   17.9825   73.8668 H   0  0  0  0  0  0  0  0  0  0  0  0
   48.5105   20.8872   74.6831 H   0  0  0  0  0  0  0  0  0  0  0  0
   50.0927   18.4179   75.4995 H   0  0  0  0  0  0  0  0  0  0  0  0
   49.0224   18.7224   77.7656 H   0  0  0  0  0  0  0  0  0  0  0  0
   47.9905   17.3141   76.0084 H   0  0  0  0  0  0  0  0  0  0  0  0
   46.1925   16.8534   77.3275 H   0  0  0  0  0  0  0  0  0  0  0  0
   46.9296   18.0393   78.4206 H   0  0  0  0  0  0  0  0  0  0  0  0
   52.0594   20.7359   72.0604 H   0  0  0  0  0  0  0  0  0  0  0  0
   50.8531   19.9972   70.9532 H   0  0  0  0  0  0  0  0  0  0  0  0
   51.1011   21.7763   70.9532 H   0  0  0  0  0  0  0  0  0  0  0  0
   50.4396   19.1076   73.2102 H   0  0  0  0  0  0  0  0  0  0  0  0
   46.2128   19.9514   73.2984 H   0  0  0  0  0  0  0  0  0  0  0  0
   50.6091   20.3011   77.1979 H   0  0  0  0  0  0  0  0  0  0  0  0
   48.0558   20.5426   78.2277 H   0  0  0  0  0  0  0  0  0  0  0  0
   45.0212   19.0493   78.0839 H   0  0  0  0  0  0  0  0  0  0  0  0
  1  2  1  0
  1 10  1  0
  1 13  1  0
  2  3  1  0
  2  9  1  0
  3  4  1  0
  3 11  1  0
  4  5  1  0
  4 12  1  0
  5  6  1  0
  5 13  1  0
  6 14  1  0
  7  8  1  0
  7  9  1  0
  7 15  2  0
  1 16  1  6
  2 17  1  1
  3 18  1  6
  4 19  1  1
  5 20  1  6
  6 21  1  0
  6 22  1  0
  8 23  1  0
  8 24  1  0
  8 25  1  0
  9 26  1  0
 10 27  1  0
 11 28  1  0
 12 29  1  0
 14 30  1  0
M  END
>  <filename_input>  (4) 
7QE4_NGA_docked.sdf

>  <pdb_id>  (4) 
7QE4_NGA

>  <pose_rank>  (4) 
3

>  <num_atoms_heavy>  (4) 
15

>  <num_torsions>  (4) 
2

>  <pose>  (4) 
[47.73543032940482, 18.965050504319542, 74.12589450692771, 1.9188925347256576, -5.2717458341510905, -2.159938152630769, 5.774898515759277, 0.8259482913433831]

>  <energy>  (4) 
-505.72512874158997

>  <inter_energy>  (4) 
-500.72994190048286

>  <intra_energy>  (4) 
2.222718377330267

>  <rmsd>  (4) 
1.01277

>  <sdf_rank>  (4) 
0

$$$$

     RDKit          3D

 30 30  0  0  0  0  0  0  0  0999 V2000
   48.0152   18.8346   74.5617 C   0  0  2  0  0  0  0  0  0  0  0  0
   49.1443   19.5161   75.3389 C   0  0  1  0  0  0  0  0  0  0  0  0
   49.2041   18.9855   76.7703 C   0  0  2  0  0  0  0  0  0  0  0  0
   47.8367   19.1017   77.4191 C   0  0  2  0  0  0  0  0  0  0  0  0
   46.8476   18.3717   76.5286 C   0  0  1  0  0  0  0  0  0  0  0  0
   45.4640   18.3369   77.1526 C   0  0  0  0  0  0  0  0  0  0  0  0
   51.2077   20.2743   74.2598 C   0  0  0  0  0  0  0  0  0  0  0  0
   52.4903   19.8096   73.6330 C   0  0  0  0  0  0  0  0  0  0  0  0
   50.4168   19.2835   74.6846 N   0  0  0  0  0  0  0  0  0  0  0  0
   47.8724   19.3510   73.2337 O   0  0  0  0  0  0  0  0  0  0  0  0
   50.1392   19.7167   77.5615 O   0  0  0  0  0  0  0  0  0  0  0  0
   47.5293   20.5006   77.5759 O   0  0  0  0  0  0  0  0  0  0  0  0
   46.7878   19.0172   75.2588 O   0  0  0  0  0  0  0  0  0  0  0  0
   44.5376   18.3791   76.0719 O   0  0  0  0  0  0  0  0  0  0  0  0
   50.9309   21.4674   74.3628 O   0  0  0  0  0  0  0  0  0  0  0  0
   48.2716   17.7679   74.4817 H   0  0  0  0  0  0  0  0  0  0  0  0
   48.9408   20.5968   75.3640 H   0  0  0  0  0  0  0  0  0  0  0  0
   49.5234   17.9341   76.7197 H   0  0  0  0  0  0  0  0  0  0  0  0
   47.7971   18.6451   78.4191 H   0  0  0  0  0  0  0  0  0  0  0  0
   47.1914   17.3339   76.4066 H   0  0  0  0  0  0  0  0  0  0  0  0
   45.3308   17.4119   77.7327 H   0  0  0  0  0  0  0  0  0  0  0  0
   45.3143   19.1817   77.8411 H   0  0  0  0  0  0  0  0  0  0  0  0
   53.2107   19.5486   74.4222 H   0  0  0  0  0  0  0  0  0  0  0  0
   52.2940   18.9255   73.0087 H   0  0  0  0  0  0  0  0  0  0  0  0
   52.9059   20.6143   73.0087 H   0  0  0  0  0  0  0  0  0  0  0  0
   50.7255   18.3115   74.5404 H   0  0  0  0  0  0  0  0  0  0  0  0
   47.6088   20.3043   73.2768 H   0  0  0  0  0  0  0  0  0  0  0  0
   49.9477   19.5670   78.5212 H   0  0  0  0  0  0  0  0  0  0  0  0
   47.4807   20.7218   78.5397 H   0  0  0  0  0  0  0  0  0  0  0  0
   43.6153   18.4211   76.4293 H   0  0  0  0  0  0  0  0  0  0  0  0
  1  2  1  0
  1 10  1  0
  1 13  1  0
  2  3  1  0
  2  9  1  0
  3  4  1  0
  3 11  1  0
  4  5  1  0
  4 12  1  0
  5  6  1  0
  5 13  1  0
  6 14  1  0
  7  8  1  0
  7  9  1  0
  7 15  2  0
  1 16  1  6
  2 17  1  1
  3 18  1  6
  4 19  1  1
  5 20  1  6
  6 21  1  0
  6 22  1  0
  8 23  1  0
  8 24  1  0
  8 25  1  0
  9 26  1  0
 10 27  1  0
 11 28  1  0
 12 29  1  0
 14 30  1  0
M  END
>  <filename_input>  (5) 
7QE4_NGA_docked.sdf

>  <pdb_id>  (5) 
7QE4_NGA

>  <pose_rank>  (5) 
4

>  <num_atoms_heavy>  (5) 
15

>  <num_torsions>  (5) 
2

>  <pose>  (5) 
[48.01519160767497, 18.83464693792049, 74.56173291120702, 3.189698475611056, 3.472787668959463, 3.794219187350248, -6.5562889404823705, 1.6764922851680828]

>  <energy>  (5) 
-436.96165287780127

>  <inter_energy>  (5) 
-442.19369288844905

>  <intra_energy>  (5) 
0.21780994452786523

>  <rmsd>  (5) 
1.08492

>  <sdf_rank>  (5) 
0

$$$$

     RDKit          3D

 30 30  0  0  0  0  0  0  0  0999 V2000
   50.8942   17.0698   71.9200 C   0  0  2  0  0  0  0  0  0  0  0  0
   52.0299   17.6958   72.7333 C   0  0  1  0  0  0  0  0  0  0  0  0
   51.7612   17.5466   74.2298 C   0  0  2  0  0  0  0  0  0  0  0  0
   50.3814   18.0860   74.5605 C   0  0  2  0  0  0  0  0  0  0  0  0
   49.3850   17.3580   73.6765 C   0  0  1  0  0  0  0  0  0  0  0  0
   47.9577   17.7512   74.0132 C   0  0  0  0  0  0  0  0  0  0  0  0
   53.4985   15.7474   72.5229 C   0  0  0  0  0  0  0  0  0  0  0  0
   54.8694   15.3013   72.1039 C   0  0  0  0  0  0  0  0  0  0  0  0
   53.2921   17.0631   72.4043 N   0  0  0  0  0  0  0  0  0  0  0  0
   51.0653   17.2479   70.5094 O   0  0  0  0  0  0  0  0  0  0  0  0
   52.7200   18.2607   75.0081 O   0  0  0  0  0  0  0  0  0  0  0  0
   50.3907   19.5107   74.3460 O   0  0  0  0  0  0  0  0  0  0  0  0
   49.6578   17.6574   72.3095 O   0  0  0  0  0  0  0  0  0  0  0  0
   47.1168   16.8426   73.3094 O   0  0  0  0  0  0  0  0  0  0  0  0
   52.6558   14.9535   72.9355 O   0  0  0  0  0  0  0  0  0  0  0  0
   50.9027   15.9892   72.1256 H   0  0  0  0  0  0  0  0  0  0  0  0
   52.0835   18.7654   72.4823 H   0  0  0  0  0  0  0  0  0  0  0  0
   51.8296   16.4759   74.4725 H   0  0  0  0  0  0  0  0  0  0  0  0
   50.0952   17.9159   75.6089 H   0  0  0  0  0  0  0  0  0  0  0  0
   49.4902   16.2773   73.8526 H   0  0  0  0  0  0  0  0  0  0  0  0
   47.7854   17.6687   75.0965 H   0  0  0  0  0  0  0  0  0  0  0  0
   47.7511   18.7925   73.7253 H   0  0  0  0  0  0  0  0  0  0  0  0
   55.4794   15.1027   72.9975 H   0  0  0  0  0  0  0  0  0  0  0  0
   54.7886   14.3830   71.5036 H   0  0  0  0  0  0  0  0  0  0  0  0
   55.3445   16.0911   71.5036 H   0  0  0  0  0  0  0  0  0  0  0  0
   54.0644   17.6535   72.0640 H   0  0  0  0  0  0  0  0  0  0  0  0
   51.7415   17.9522   70.3453 H   0  0  0  0  0  0  0  0  0  0  0  0
   52.5334   18.1217   75.9704 H   0  0  0  0  0  0  0  0  0  0  0  0
   50.3938   19.9759   75.2199 H   0  0  0  0  0  0  0  0  0  0  0  0
   46.6086   16.2935   73.9577 H   0  0  0  0  0  0  0  0  0  0  0  0
  1  2  1  0
  1 10  1  0
  1 13  1  0
  2  3  1  0
  2  9  1  0
  3  4  1  0
  3 11  1  0
  4  5  1  0
  4 12  1  0
  5  6  1  0
  5 13  1  0
  6 14  1  0
  7  8  1  0
  7  9  1  0
  7 15  2  0
  1 16  1  6
  2 17  1  1
  3 18  1  1
  4 19  1  1
  5 20  1  6
  6 21  1  0
  6 22  1  0
  8 23  1  0
  8 24  1  0
  8 25  1  0
  9 26  1  0
 10 27  1  0
 11 28  1  0
 12 29  1  0
 14 30  1  0
M  END
>  <filename_input>  (6) 
7QE4_NGA_docked.sdf

>  <pdb_id>  (6) 
7QE4_NGA

>  <pose_rank>  (6) 
5

>  <num_atoms_heavy>  (6) 
15

>  <num_torsions>  (6) 
2

>  <pose>  (6) 
[50.89424475151454, 17.069820503584552, 71.91999225845194, 3.4849510939345163, 2.9325610465447314, 3.404340797830791, 2.888207606543889, 2.4280393895013543]

>  <energy>  (6) 
-90.00820025156156

>  <inter_energy>  (6) 
-114.23559881616171

>  <intra_energy>  (6) 
23.23645666459245

>  <rmsd>  (6) 
4.35442

>  <sdf_rank>  (6) 
0

$$$$

     RDKit          3D

 30 30  0  0  0  0  0  0  0  0999 V2000
   48.0545   18.9412   73.8757 C   0  0  2  0  0  0  0  0  0  0  0  0
   49.0869   19.8858   74.4963 C   0  0  1  0  0  0  0  0  0  0  0  0
   49.5658   19.3445   75.8423 C   0  0  2  0  0  0  0  0  0  0  0  0
   48.3719   19.0484   76.7315 C   0  0  2  0  0  0  0  0  0  0  0  0
   47.4625   18.1005   75.9706 C   0  0  1  0  0  0  0  0  0  0  0  0
   46.2891   17.6559   76.8253 C   0  0  0  0  0  0  0  0  0  0  0  0
   50.7045   21.2384   73.2509 C   0  0  0  0  0  0  0  0  0  0  0  0
   51.8994   21.1710   72.3445 C   0  0  0  0  0  0  0  0  0  0  0  0
   50.2218   20.0438   73.6083 N   0  0  0  0  0  0  0  0  0  0  0  0
   47.5213   19.4420   72.6445 O   0  0  0  0  0  0  0  0  0  0  0  0
   50.4046   20.2818   76.5154 O   0  0  0  0  0  0  0  0  0  0  0  0
   47.7350   20.2978   77.0623 O   0  0  0  0  0  0  0  0  0  0  0  0
   46.9840   18.7465   74.7932 O   0  0  0  0  0  0  0  0  0  0  0  0
   46.6793   17.8650   78.1788 O   0  0  0  0  0  0  0  0  0  0  0  0
   50.2293   22.3103   73.6193 O   0  0  0  0  0  0  0  0  0  0  0  0
   48.5686   17.9933   73.6583 H   0  0  0  0  0  0  0  0  0  0  0  0
   48.6082   20.8640   74.6517 H   0  0  0  0  0  0  0  0  0  0  0  0
   50.1409   18.4280   75.6439 H   0  0  0  0  0  0  0  0  0  0  0  0
   48.6529   18.5649   77.6787 H   0  0  0  0  0  0  0  0  0  0  0  0
   48.0430   17.2065   75.6991 H   0  0  0  0  0  0  0  0  0  0  0  0
   45.3972   18.2549   76.5891 H   0  0  0  0  0  0  0  0  0  0  0  0
   46.0362   16.6015   76.6402 H   0  0  0  0  0  0  0  0  0  0  0  0
   52.8164   21.1193   72.9498 H   0  0  0  0  0  0  0  0  0  0  0  0
   51.8281   20.2755   71.7097 H   0  0  0  0  0  0  0  0  0  0  0  0
   51.9292   22.0689   71.7097 H   0  0  0  0  0  0  0  0  0  0  0  0
   50.6766   19.1980   73.2360 H   0  0  0  0  0  0  0  0  0  0  0  0
   46.8135   20.1066   72.8376 H   0  0  0  0  0  0  0  0  0  0  0  0
   50.3049   20.1704   77.4941 H   0  0  0  0  0  0  0  0  0  0  0  0
   47.6865   20.3930   78.0465 H   0  0  0  0  0  0  0  0  0  0  0  0
   45.9878   17.4945   78.7826 H   0  0  0  0  0  0  0  0  0  0  0  0
  1  2  1  0
  1 10  1  0
  1 13  1  0
  2  3  1  0
  2  9  1  0
  3  4  1  0
  3 11  1  0
  4  5  1  0
  4 12  1  0
  5  6  1  0
  5 13  1  0
  6 14  1  0
  7  8  1  0
  7  9  1  0
  7 15  2  0
  1 16  1  6
  2 17  1  1
  3 18  1  6
  4 19  1  1
  5 20  1  6
  6 21  1  0
  6 22  1  0
  8 23  1  0
  8 24  1  0
  8 25  1  0
  9 26  1  0
 10 27  1  0
 11 28  1  0
 12 29  1  0
 14 30  1  0
M  END
>  <filename_input>  (7) 
7QE4_NGA_docked.sdf

>  <pdb_id>  (7) 
7QE4_NGA

>  <pose_rank>  (7) 
6

>  <num_atoms_heavy>  (7) 
15

>  <num_torsions>  (7) 
2

>  <pose>  (7) 
[48.05453352931062, 18.941220500737057, 73.87569047734101, -0.05328917599912458, 0.04537478126795155, 0.14339548177669773, -0.1456764082489633, -1.2638134668760708]

>  <energy>  (7) 
-465.1328548581873

>  <inter_energy>  (7) 
-471.9604765291268

>  <intra_energy>  (7) 
9.22059397841654

>  <rmsd>  (7) 
0.693296

>  <sdf_rank>  (7) 
0

$$$$

     RDKit          3D

 30 30  0  0  0  0  0  0  0  0999 V2000
   48.3795   18.7921   73.9404 C   0  0  2  0  0  0  0  0  0  0  0  0
   49.6911   19.4137   74.4266 C   0  0  1  0  0  0  0  0  0  0  0  0
   50.0521   18.8839   75.8133 C   0  0  2  0  0  0  0  0  0  0  0  0
   48.8793   19.0748   76.7579 C   0  0  2  0  0  0  0  0  0  0  0  0
   47.6750   18.3968   76.1298 C   0  0  1  0  0  0  0  0  0  0  0  0
   46.4729   18.4378   77.0562 C   0  0  0  0  0  0  0  0  0  0  0  0
   51.2403   20.0022   72.6236 C   0  0  0  0  0  0  0  0  0  0  0  0
   52.3686   19.4875   71.7775 C   0  0  0  0  0  0  0  0  0  0  0  0
   50.7645   19.1118   73.5002 N   0  0  0  0  0  0  0  0  0  0  0  0
   47.9609   19.3125   72.6736 O   0  0  0  0  0  0  0  0  0  0  0  0
   51.1811   19.5656   76.3571 O   0  0  0  0  0  0  0  0  0  0  0  0
   48.6892   20.4884   76.9609 O   0  0  0  0  0  0  0  0  0  0  0  0
   47.3572   19.0419   74.8987 O   0  0  0  0  0  0  0  0  0  0  0  0
   45.3923   17.8562   76.3338 O   0  0  0  0  0  0  0  0  0  0  0  0
   50.8086   21.1466   72.5029 O   0  0  0  0  0  0  0  0  0  0  0  0
   48.5550   17.7130   73.8190 H   0  0  0  0  0  0  0  0  0  0  0  0
   49.5551   20.5039   74.4822 H   0  0  0  0  0  0  0  0  0  0  0  0
   50.2964   17.8168   75.7058 H   0  0  0  0  0  0  0  0  0  0  0  0
   49.0480   18.6231   77.7466 H   0  0  0  0  0  0  0  0  0  0  0  0
   47.9273   17.3419   75.9471 H   0  0  0  0  0  0  0  0  0  0  0  0
   46.6758   17.8591   77.9695 H   0  0  0  0  0  0  0  0  0  0  0  0
   46.2399   19.4678   77.3641 H   0  0  0  0  0  0  0  0  0  0  0  0
   53.1759   19.1193   72.4276 H   0  0  0  0  0  0  0  0  0  0  0  0
   52.0056   18.6659   71.1425 H   0  0  0  0  0  0  0  0  0  0  0  0
   52.7511   20.3002   71.1425 H   0  0  0  0  0  0  0  0  0  0  0  0
   51.1792   18.1691   73.5181 H   0  0  0  0  0  0  0  0  0  0  0  0
   47.3469   20.0757   72.8169 H   0  0  0  0  0  0  0  0  0  0  0  0
   51.1377   19.5394   77.3458 H   0  0  0  0  0  0  0  0  0  0  0  0
   48.6631   20.6819   77.9315 H   0  0  0  0  0  0  0  0  0  0  0  0
   44.7249   17.4970   76.9707 H   0  0  0  0  0  0  0  0  0  0  0  0
  1  2  1  0
  1 10  1  0
  1 13  1  0
  2  3  1  0
  2  9  1  0
  3  4  1  0
  3 11  1  0
  4  5  1  0
  4 12  1  0
  5  6  1  0
  5 13  1  0
  6 14  1  0
  7  8  1  0
  7  9  1  0
  7 15  2  0
  1 16  1  6
  2 17  1  1
  3 18  1  6
  4 19  1  1
  5 20  1  6
  6 21  1  0
  6 22  1  0
  8 23  1  0
  8 24  1  0
  8 25  1  0
  9 26  1  0
 10 27  1  0
 11 28  1  0
 12 29  1  0
 14 30  1  0
M  END
>  <filename_input>  (8) 
7QE4_NGA_docked.sdf

>  <pdb_id>  (8) 
7QE4_NGA

>  <pose_rank>  (8) 
7

>  <num_atoms_heavy>  (8) 
15

>  <num_torsions>  (8) 
2

>  <pose>  (8) 
[48.379459050242474, 18.792148361996375, 73.94041200723186, -3.809708882745288, 2.606269506160832, -4.633029139083263, -0.6016662040871493, 2.182465272025036]

>  <energy>  (8) 
-440.2922420066348

>  <inter_energy>  (8) 
-445.6725506696466

>  <intra_energy>  (8) 
1.8548406802617339

>  <rmsd>  (8) 
0.95424

>  <sdf_rank>  (8) 
0

$$$$

     RDKit          3D

 30 30  0  0  0  0  0  0  0  0999 V2000
   53.2894   26.1052   71.6733 C   0  0  2  0  0  0  0  0  0  0  0  0
   53.6142   25.5779   70.2734 C   0  0  1  0  0  0  0  0  0  0  0  0
   52.7963   26.3215   69.2189 C   0  0  2  0  0  0  0  0  0  0  0  0
   51.3232   26.2719   69.5818 C   0  0  2  0  0  0  0  0  0  0  0  0
   51.1818   26.8334   70.9850 C   0  0  1  0  0  0  0  0  0  0  0  0
   49.7237   26.9288   71.3972 C   0  0  0  0  0  0  0  0  0  0  0  0
   55.6388   26.9280   69.9987 C   0  0  0  0  0  0  0  0  0  0  0  0
   57.1094   26.8630   69.7034 C   0  0  0  0  0  0  0  0  0  0  0  0
   55.0269   25.7393   69.9905 N   0  0  0  0  0  0  0  0  0  0  0  0
   53.9792   25.3895   72.7041 O   0  0  0  0  0  0  0  0  0  0  0  0
   52.9589   25.7423   67.9253 O   0  0  0  0  0  0  0  0  0  0  0  0
   50.8776   24.9061   69.4729 O   0  0  0  0  0  0  0  0  0  0  0  0
   51.8885   26.0009   71.9016 O   0  0  0  0  0  0  0  0  0  0  0  0
   49.6650   26.5093   72.7568 O   0  0  0  0  0  0  0  0  0  0  0  0
   55.0691   27.9932   70.2254 O   0  0  0  0  0  0  0  0  0  0  0  0
   53.6212   27.1533   71.7123 H   0  0  0  0  0  0  0  0  0  0  0  0
   53.3569   24.5090   70.2405 H   0  0  0  0  0  0  0  0  0  0  0  0
   53.1567   27.3604   69.1934 H   0  0  0  0  0  0  0  0  0  0  0  0
   50.6959   26.8743   68.9084 H   0  0  0  0  0  0  0  0  0  0  0  0
   51.6052   27.8486   70.9964 H   0  0  0  0  0  0  0  0  0  0  0  0
   49.3681   27.9655   71.3027 H   0  0  0  0  0  0  0  0  0  0  0  0
   49.0852   26.3021   70.7572 H   0  0  0  0  0  0  0  0  0  0  0  0
   57.6723   26.8382   70.6482 H   0  0  0  0  0  0  0  0  0  0  0  0
   57.3270   25.9544   69.1229 H   0  0  0  0  0  0  0  0  0  0  0  0
   57.4063   27.7489   69.1229 H   0  0  0  0  0  0  0  0  0  0  0  0
   55.5841   24.9006   69.7735 H   0  0  0  0  0  0  0  0  0  0  0  0
   53.6719   25.7083   73.5896 H   0  0  0  0  0  0  0  0  0  0  0  0
   53.2254   24.7935   68.0197 H   0  0  0  0  0  0  0  0  0  0  0  0
   50.7536   24.5261   70.3786 H   0  0  0  0  0  0  0  0  0  0  0  0
   49.7749   27.2946   73.3495 H   0  0  0  0  0  0  0  0  0  0  0  0
  1  2  1  0
  1 10  1  0
  1 13  1  0
  2  3  1  0
  2  9  1  0
  3  4  1  0
  3 11  1  0
  4  5  1  0
  4 12  1  0
  5  6  1  0
  5 13  1  0
  6 14  1  0
  7  8  1  0
  7  9  1  0
  7 15  2  0
  1 16  1  6
  2 17  1  1
  3 18  1  6
  4 19  1  6
  5 20  1  6
  6 21  1  0
  6 22  1  0
  8 23  1  0
  8 24  1  0
  8 25  1  0
  9 26  1  0
 10 27  1  0
 11 28  1  0
 12 29  1  0
 14 30  1  0
M  END
>  <filename_input>  (9) 
7QE4_NGA_docked.sdf

>  <pdb_id>  (9) 
7QE4_NGA

>  <pose_rank>  (9) 
8

>  <num_atoms_heavy>  (9) 
15

>  <num_torsions>  (9) 
2

>  <pose>  (9) 
[53.2894420398289, 26.10524906265513, 71.67326853749299, 2.957270056876399, 0.25543326718852416, -1.2723125576173135, 2.849263318987108, -4.7514196928901615]

>  <energy>  (9) 
-31.03979281403349

>  <inter_energy>  (9) 
-47.09143142148423

>  <intra_energy>  (9) 
22.980972911756837

>  <rmsd>  (9) 
9.26236

>  <sdf_rank>  (9) 
0

$$$$

     RDKit          3D

 30 30  0  0  0  0  0  0  0  0999 V2000
   49.5981   19.7125   76.8379 C   0  0  2  0  0  0  0  0  0  0  0  0
   49.9781   19.4095   75.3864 C   0  0  1  0  0  0  0  0  0  0  0  0
   48.7262   19.2990   74.5178 C   0  0  2  0  0  0  0  0  0  0  0  0
   47.7593   18.3043   75.1339 C   0  0  2  0  0  0  0  0  0  0  0  0
   47.4878   18.7564   76.5574 C   0  0  1  0  0  0  0  0  0  0  0  0
   46.4404   17.8826   77.2240 C   0  0  0  0  0  0  0  0  0  0  0  0
   52.0526   20.2103   74.3604 C   0  0  0  0  0  0  0  0  0  0  0  0
   52.7611   21.4320   73.8512 C   0  0  0  0  0  0  0  0  0  0  0  0
   50.8377   20.4531   74.8633 N   0  0  0  0  0  0  0  0  0  0  0  0
   50.7357   19.7545   77.7068 O   0  0  0  0  0  0  0  0  0  0  0  0
   49.0414   18.8591   73.1979 O   0  0  0  0  0  0  0  0  0  0  0  0
   48.3534   16.9937   75.0615 O   0  0  0  0  0  0  0  0  0  0  0  0
   48.6998   18.7132   77.3071 O   0  0  0  0  0  0  0  0  0  0  0  0
   45.1851   18.2801   76.6815 O   0  0  0  0  0  0  0  0  0  0  0  0
   52.5649   19.0943   74.3086 O   0  0  0  0  0  0  0  0  0  0  0  0
   49.1281   20.7070   76.8515 H   0  0  0  0  0  0  0  0  0  0  0  0
   50.5166   18.4506   75.3650 H   0  0  0  0  0  0  0  0  0  0  0  0
   48.2732   20.2999   74.4626 H   0  0  0  0  0  0  0  0  0  0  0  0
   46.7977   18.2562   74.6020 H   0  0  0  0  0  0  0  0  0  0  0  0
   47.1017   19.7859   76.5265 H   0  0  0  0  0  0  0  0  0  0  0  0
   46.6322   16.8222   77.0032 H   0  0  0  0  0  0  0  0  0  0  0  0
   46.4587   17.9997   78.3176 H   0  0  0  0  0  0  0  0  0  0  0  0
   53.1107   22.0347   74.7024 H   0  0  0  0  0  0  0  0  0  0  0  0
   53.6229   21.1276   73.2390 H   0  0  0  0  0  0  0  0  0  0  0  0
   52.0690   22.0288   73.2390 H   0  0  0  0  0  0  0  0  0  0  0  0
   50.4974   21.4251   74.8798 H   0  0  0  0  0  0  0  0  0  0  0  0
   50.4319   19.7433   78.6490 H   0  0  0  0  0  0  0  0  0  0  0  0
   49.6173   18.0553   73.2467 H   0  0  0  0  0  0  0  0  0  0  0  0
   48.5088   16.6508   75.9771 H   0  0  0  0  0  0  0  0  0  0  0  0
   44.5553   18.4796   77.4189 H   0  0  0  0  0  0  0  0  0  0  0  0
  1  2  1  0
  1 10  1  0
  1 13  1  0
  2  3  1  0
  2  9  1  0
  3  4  1  0
  3 11  1  0
  4  5  1  0
  4 12  1  0
  5  6  1  0
  5 13  1  0
  6 14  1  0
  7  8  1  0
  7  9  1  0
  7 15  2  0
  1 16  1  6
  2 17  1  1
  3 18  1  6
  4 19  1  6
  5 20  1  6
  6 21  1  0
  6 22  1  0
  8 23  1  0
  8 24  1  0
  8 25  1  0
  9 26  1  0
 10 27  1  0
 11 28  1  0
 12 29  1  0
 14 30  1  0
M  END
>  <filename_input>  (10) 
7QE4_NGA_docked.sdf

>  <pdb_id>  (10) 
7QE4_NGA

>  <pose_rank>  (10) 
9

>  <num_atoms_heavy>  (10) 
15

>  <num_torsions>  (10) 
2

>  <pose>  (10) 
[49.59809670897483, 19.71249937332394, 76.83792374664769, 2.3021255939234058, 1.165442513366827, -1.3591216213965875, 6.030060010070358, 4.063817786109533]

>  <energy>  (10) 
-439.50541090838726

>  <inter_energy>  (10) 
-433.2015715014527

>  <intra_energy>  (10) 
0.30454857791252943

>  <rmsd>  (10) 
2.74575

>  <sdf_rank>  (10) 
0

$$$$

     RDKit          3D

 30 30  0  0  0  0  0  0  0  0999 V2000
   47.8022   18.4201   73.9758 C   0  0  2  0  0  0  0  0  0  0  0  0
   48.9116   19.4005   74.3644 C   0  0  1  0  0  0  0  0  0  0  0  0
   49.3487   19.1678   75.8097 C   0  0  2  0  0  0  0  0  0  0  0  0
   48.1374   19.1965   76.7240 C   0  0  2  0  0  0  0  0  0  0  0  0
   47.1497   18.1686   76.2023 C   0  0  1  0  0  0  0  0  0  0  0  0
   45.9465   18.0437   77.1196 C   0  0  0  0  0  0  0  0  0  0  0  0
   50.7924   18.1305   73.4442 C   0  0  0  0  0  0  0  0  0  0  0  0
   51.9101   18.1723   72.4427 C   0  0  0  0  0  0  0  0  0  0  0  0
   50.0526   19.2435   73.4840 N   0  0  0  0  0  0  0  0  0  0  0  0
   47.3080   18.6461   72.6508 O   0  0  0  0  0  0  0  0  0  0  0  0
   50.2648   20.1697   76.2478 O   0  0  0  0  0  0  0  0  0  0  0  0
   47.6077   20.5364   76.7290 O   0  0  0  0  0  0  0  0  0  0  0  0
   46.7224   18.5436   74.8948 O   0  0  0  0  0  0  0  0  0  0  0  0
   46.4311   17.4953   78.3412 O   0  0  0  0  0  0  0  0  0  0  0  0
   50.5942   17.1471   74.1543 O   0  0  0  0  0  0  0  0  0  0  0  0
   48.2349   17.4092   74.0051 H   0  0  0  0  0  0  0  0  0  0  0  0
   48.5165   20.4225   74.2682 H   0  0  0  0  0  0  0  0  0  0  0  0
   49.8449   18.1869   75.8508 H   0  0  0  0  0  0  0  0  0  0  0  0
   48.3807   18.9382   77.7652 H   0  0  0  0  0  0  0  0  0  0  0  0
   47.6530   17.1911   76.1671 H   0  0  0  0  0  0  0  0  0  0  0  0
   45.4985   19.0326   77.2972 H   0  0  0  0  0  0  0  0  0  0  0  0
   45.1690   17.4051   76.6750 H   0  0  0  0  0  0  0  0  0  0  0  0
   52.8744   18.2084   72.9708 H   0  0  0  0  0  0  0  0  0  0  0  0
   51.8710   17.2721   71.8118 H   0  0  0  0  0  0  0  0  0  0  0  0
   51.8038   19.0671   71.8118 H   0  0  0  0  0  0  0  0  0  0  0  0
   50.3046   20.0243   72.8613 H   0  0  0  0  0  0  0  0  0  0  0  0
   46.4088   19.0573   72.6997 H   0  0  0  0  0  0  0  0  0  0  0  0
   50.2833   20.1900   77.2374 H   0  0  0  0  0  0  0  0  0  0  0  0
   47.4876   20.8403   77.6635 H   0  0  0  0  0  0  0  0  0  0  0  0
   46.0132   17.9682   79.1040 H   0  0  0  0  0  0  0  0  0  0  0  0
  1  2  1  0
  1 10  1  0
  1 13  1  0
  2  3  1  0
  2  9  1  0
  3  4  1  0
  3 11  1  0
  4  5  1  0
  4 12  1  0
  5  6  1  0
  5 13  1  0
  6 14  1  0
  7  8  1  0
  7  9  1  0
  7 15  2  0
  1 16  1  6
  2 17  1  1
  3 18  1  6
  4 19  1  1
  5 20  1  6
  6 21  1  0
  6 22  1  0
  8 23  1  0
  8 24  1  0
  8 25  1  0
  9 26  1  0
 10 27  1  0
 11 28  1  0
 12 29  1  0
 14 30  1  0
M  END
>  <filename_input>  (11) 
7QE4_NGA_docked.sdf

>  <pdb_id>  (11) 
7QE4_NGA

>  <pose_rank>  (11) 
10

>  <num_atoms_heavy>  (11) 
15

>  <num_torsions>  (11) 
2

>  <pose>  (11) 
[47.80215667140832, 18.42005494492754, 73.97580197087935, 5.7739216288893465, -1.1287733370218669, -1.0406733838188993, -3.541687169333069, 4.228305221544342]

>  <energy>  (11) 
-438.5277146600965

>  <inter_energy>  (11) 
-454.89859861907917

>  <intra_energy>  (11) 
23.53014217959541

>  <rmsd>  (11) 
1.84485

>  <sdf_rank>  (11) 
0

$$$$

     RDKit          3D

 30 30  0  0  0  0  0  0  0  0999 V2000
   48.4872   19.1486   73.9378 C   0  0  2  0  0  0  0  0  0  0  0  0
   49.6160   19.8610   74.6870 C   0  0  1  0  0  0  0  0  0  0  0  0
   49.8973   19.1649   76.0175 C   0  0  2  0  0  0  0  0  0  0  0  0
   48.6088   19.0270   76.8080 C   0  0  2  0  0  0  0  0  0  0  0  0
   47.6106   18.2985   75.9265 C   0  0  1  0  0  0  0  0  0  0  0  0
   46.3198   18.0131   76.6731 C   0  0  0  0  0  0  0  0  0  0  0  0
   51.2412   20.9537   73.2166 C   0  0  0  0  0  0  0  0  0  0  0  0
   52.5282   20.7535   72.4701 C   0  0  0  0  0  0  0  0  0  0  0  0
   50.8230   19.8734   73.8842 N   0  0  0  0  0  0  0  0  0  0  0  0
   48.1373   19.8074   72.7153 O   0  0  0  0  0  0  0  0  0  0  0  0
   50.8308   19.9004   76.8067 O   0  0  0  0  0  0  0  0  0  0  0  0
   48.1694   20.3455   77.1879 O   0  0  0  0  0  0  0  0  0  0  0  0
   47.3351   19.0873   74.7712 O   0  0  0  0  0  0  0  0  0  0  0  0
   45.3096   17.8628   75.6807 O   0  0  0  0  0  0  0  0  0  0  0  0
   50.6422   22.0269   73.2008 O   0  0  0  0  0  0  0  0  0  0  0  0
   48.8485   18.1409   73.6849 H   0  0  0  0  0  0  0  0  0  0  0  0
   49.2992   20.8961   74.8825 H   0  0  0  0  0  0  0  0  0  0  0  0
   50.3225   18.1763   75.7895 H   0  0  0  0  0  0  0  0  0  0  0  0
   48.7345   18.4459   77.7335 H   0  0  0  0  0  0  0  0  0  0  0  0
   48.0502   17.3354   75.6277 H   0  0  0  0  0  0  0  0  0  0  0  0
   46.4164   17.0887   77.2615 H   0  0  0  0  0  0  0  0  0  0  0  0
   46.0749   18.8252   77.3735 H   0  0  0  0  0  0  0  0  0  0  0  0
   53.3521   20.6253   73.1875 H   0  0  0  0  0  0  0  0  0  0  0  0
   52.4497   19.8568   71.8378 H   0  0  0  0  0  0  0  0  0  0  0  0
   52.7258   21.6317   71.8378 H   0  0  0  0  0  0  0  0  0  0  0  0
   51.3836   19.0113   73.8255 H   0  0  0  0  0  0  0  0  0  0  0  0
   47.6830   20.6629   72.9198 H   0  0  0  0  0  0  0  0  0  0  0  0
   50.6412   19.7510   77.7668 H   0  0  0  0  0  0  0  0  0  0  0  0
   48.1466   20.4140   78.1753 H   0  0  0  0  0  0  0  0  0  0  0  0
   44.4321   17.7323   76.1202 H   0  0  0  0  0  0  0  0  0  0  0  0
  1  2  1  0
  1 10  1  0
  1 13  1  0
  2  3  1  0
  2  9  1  0
  3  4  1  0
  3 11  1  0
  4  5  1  0
  4 12  1  0
  5  6  1  0
  5 13  1  0
  6 14  1  0
  7  8  1  0
  7  9  1  0
  7 15  2  0
  1 16  1  6
  2 17  1  1
  3 18  1  6
  4 19  1  1
  5 20  1  6
  6 21  1  0
  6 22  1  0
  8 23  1  0
  8 24  1  0
  8 25  1  0
  9 26  1  0
 10 27  1  0
 11 28  1  0
 12 29  1  0
 14 30  1  0
M  END
>  <filename_input>  (12) 
7QE4_NGA_docked.sdf

>  <pdb_id>  (12) 
7QE4_NGA

>  <pose_rank>  (12) 
11

>  <num_atoms_heavy>  (12) 
15

>  <num_torsions>  (12) 
2

>  <pose>  (12) 
[48.48720290517538, 19.148620436720183, 73.93775825125336, -1.9791604866853532, 3.6292165171939033, 4.680414091600223, -0.6078959822531064, -4.447369590338193]

>  <energy>  (12) 
-444.2570923583631

>  <inter_energy>  (12) 
-442.27399124425006

>  <intra_energy>  (12) 
1.9372768106720764

>  <rmsd>  (12) 
0.624769

>  <sdf_rank>  (12) 
0

$$$$

     RDKit          3D

 30 30  0  0  0  0  0  0  0  0999 V2000
   48.4977   19.1039   74.0636 C   0  0  2  0  0  0  0  0  0  0  0  0
   49.4838   19.7997   75.0052 C   0  0  1  0  0  0  0  0  0  0  0  0
   49.5748   19.0499   76.3332 C   0  0  2  0  0  0  0  0  0  0  0  0
   48.1845   18.8578   76.9113 C   0  0  2  0  0  0  0  0  0  0  0  0
   47.3478   18.1538   75.8584 C   0  0  1  0  0  0  0  0  0  0  0  0
   45.9651   17.8162   76.3868 C   0  0  0  0  0  0  0  0  0  0  0  0
   51.3825   21.0176   74.0519 C   0  0  0  0  0  0  0  0  0  0  0  0
   52.7535   20.8573   73.4615 C   0  0  0  0  0  0  0  0  0  0  0  0
   50.7982   19.8657   74.3973 N   0  0  0  0  0  0  0  0  0  0  0  0
   48.3233   19.8105   72.8303 O   0  0  0  0  0  0  0  0  0  0  0  0
   50.3614   19.7641   77.2852 O   0  0  0  0  0  0  0  0  0  0  0  0
   47.6640   20.1515   77.2737 O   0  0  0  0  0  0  0  0  0  0  0  0
   47.2339   18.9884   74.7082 O   0  0  0  0  0  0  0  0  0  0  0  0
   46.1054   17.6497   77.7941 O   0  0  0  0  0  0  0  0  0  0  0  0
   50.8632   22.1223   74.1956 O   0  0  0  0  0  0  0  0  0  0  0  0
   48.9150   18.1139   73.8275 H   0  0  0  0  0  0  0  0  0  0  0  0
   49.1186   20.8202   75.1925 H   0  0  0  0  0  0  0  0  0  0  0  0
   50.0510   18.0789   76.1322 H   0  0  0  0  0  0  0  0  0  0  0  0
   48.1807   18.2385   77.8204 H   0  0  0  0  0  0  0  0  0  0  0  0
   47.8485   17.2116   75.5908 H   0  0  0  0  0  0  0  0  0  0  0  0
   45.2634   18.6347   76.1681 H   0  0  0  0  0  0  0  0  0  0  0  0
   45.5673   16.9063   75.9139 H   0  0  0  0  0  0  0  0  0  0  0  0
   53.4934   20.7707   74.2709 H   0  0  0  0  0  0  0  0  0  0  0  0
   52.7815   19.9497   72.8406 H   0  0  0  0  0  0  0  0  0  0  0  0
   52.9902   21.7338   72.8406 H   0  0  0  0  0  0  0  0  0  0  0  0
   51.3047   18.9857   74.2237 H   0  0  0  0  0  0  0  0  0  0  0  0
   48.0906   20.7538   73.0204 H   0  0  0  0  0  0  0  0  0  0  0  0
   50.0821   19.5105   78.2006 H   0  0  0  0  0  0  0  0  0  0  0  0
   47.6324   20.2300   78.2600 H   0  0  0  0  0  0  0  0  0  0  0  0
   45.5438   18.3167   78.2629 H   0  0  0  0  0  0  0  0  0  0  0  0
  1  2  1  0
  1 10  1  0
  1 13  1  0
  2  3  1  0
  2  9  1  0
  3  4  1  0
  3 11  1  0
  4  5  1  0
  4 12  1  0
  5  6  1  0
  5 13  1  0
  6 14  1  0
  7  8  1  0
  7  9  1  0
  7 15  2  0
  1 16  1  6
  2 17  1  1
  3 18  1  6
  4 19  1  1
  5 20  1  6
  6 21  1  0
  6 22  1  0
  8 23  1  0
  8 24  1  0
  8 25  1  0
  9 26  1  0
 10 27  1  0
 11 28  1  0
 12 29  1  0
 14 30  1  0
M  END
>  <filename_input>  (13) 
7QE4_NGA_docked.sdf

>  <pdb_id>  (13) 
7QE4_NGA

>  <pose_rank>  (13) 
12

>  <num_atoms_heavy>  (13) 
15

>  <num_torsions>  (13) 
2

>  <pose>  (13) 
[48.497672886277115, 19.103896444449457, 74.06361901740867, 0.05747135382961999, -0.1746431516414864, -0.009917680600585288, -0.40386874427924224, -1.3889928159631577]

>  <energy>  (13) 
-430.71976569684284

>  <inter_energy>  (13) 
-429.8523645763862

>  <intra_energy>  (13) 
5.2161643802454245

>  <rmsd>  (13) 
0.679239

>  <sdf_rank>  (13) 
0

$$$$

     RDKit          3D

 30 30  0  0  0  0  0  0  0  0999 V2000
   48.4284   18.0185   73.9044 C   0  0  2  0  0  0  0  0  0  0  0  0
   49.3945   19.0567   74.4805 C   0  0  1  0  0  0  0  0  0  0  0  0
   49.5037   18.9023   75.9965 C   0  0  2  0  0  0  0  0  0  0  0  0
   48.1182   18.9226   76.6163 C   0  0  2  0  0  0  0  0  0  0  0  0
   47.3019   17.8361   75.9400 C   0  0  1  0  0  0  0  0  0  0  0  0
   45.9279   17.7035   76.5722 C   0  0  0  0  0  0  0  0  0  0  0  0
   51.5734   19.9193   73.7694 C   0  0  0  0  0  0  0  0  0  0  0  0
   52.8842   19.5374   73.1449 C   0  0  0  0  0  0  0  0  0  0  0  0
   50.7075   18.9070   73.8844 N   0  0  0  0  0  0  0  0  0  0  0  0
   48.2370   18.1691   72.4932 O   0  0  0  0  0  0  0  0  0  0  0  0
   50.2698   19.9566   76.5767 O   0  0  0  0  0  0  0  0  0  0  0  0
   47.5631   20.2400   76.4368 O   0  0  0  0  0  0  0  0  0  0  0  0
   47.1673   18.1388   74.5533 O   0  0  0  0  0  0  0  0  0  0  0  0
   45.9835   18.4198   77.8017 O   0  0  0  0  0  0  0  0  0  0  0  0
   51.3398   21.0691   74.1355 O   0  0  0  0  0  0  0  0  0  0  0  0
   48.8721   17.0273   74.0793 H   0  0  0  0  0  0  0  0  0  0  0  0
   49.0021   20.0577   74.2482 H   0  0  0  0  0  0  0  0  0  0  0  0
   50.0058   17.9440   76.1955 H   0  0  0  0  0  0  0  0  0  0  0  0
   48.1297   18.7181   77.6970 H   0  0  0  0  0  0  0  0  0  0  0  0
   47.8277   16.8782   76.0662 H   0  0  0  0  0  0  0  0  0  0  0  0
   45.1617   18.1372   75.9129 H   0  0  0  0  0  0  0  0  0  0  0  0
   45.6628   16.6485   76.7355 H   0  0  0  0  0  0  0  0  0  0  0  0
   53.6185   19.3235   73.9355 H   0  0  0  0  0  0  0  0  0  0  0  0
   52.7459   18.6422   72.5208 H   0  0  0  0  0  0  0  0  0  0  0  0
   53.2484   20.3668   72.5208 H   0  0  0  0  0  0  0  0  0  0  0  0
   50.9858   17.9794   73.5339 H   0  0  0  0  0  0  0  0  0  0  0  0
   47.4700   18.7725   72.3268 H   0  0  0  0  0  0  0  0  0  0  0  0
   50.2238   19.8934   77.5636 H   0  0  0  0  0  0  0  0  0  0  0  0
   47.3908   20.6489   77.3218 H   0  0  0  0  0  0  0  0  0  0  0  0
   45.9340   17.7824   78.5576 H   0  0  0  0  0  0  0  0  0  0  0  0
  1  2  1  0
  1 10  1  0
  1 13  1  0
  2  3  1  0
  2  9  1  0
  3  4  1  0
  3 11  1  0
  4  5  1  0
  4 12  1  0
  5  6  1  0
  5 13  1  0
  6 14  1  0
  7  8  1  0
  7  9  1  0
  7 15  2  0
  1 16  1  6
  2 17  1  1
  3 18  1  6
  4 19  1  1
  5 20  1  6
  6 21  1  0
  6 22  1  0
  8 23  1  0
  8 24  1  0
  8 25  1  0
  9 26  1  0
 10 27  1  0
 11 28  1  0
 12 29  1  0
 14 30  1  0
M  END
>  <filename_input>  (14) 
7QE4_NGA_docked.sdf

>  <pdb_id>  (14) 
7QE4_NGA

>  <pose_rank>  (14) 
13

>  <num_atoms_heavy>  (14) 
15

>  <num_torsions>  (14) 
2

>  <pose>  (14) 
[48.42839405602334, 18.018528183861346, 73.90439046084856, -0.35003961184190874, -0.16892180790020334, 0.05222494659396848, 0.2688760363671854, -1.1397109464595836]

>  <energy>  (14) 
-401.9476300377942

>  <inter_energy>  (14) 
-423.20483175212524

>  <intra_energy>  (14) 
28.66521954129702

>  <rmsd>  (14) 
0.940206

>  <sdf_rank>  (14) 
0

$$$$

     RDKit          3D

 30 30  0  0  0  0  0  0  0  0999 V2000
   49.1803   20.0557   76.4282 C   0  0  2  0  0  0  0  0  0  0  0  0
   49.3597   19.9662   74.9107 C   0  0  1  0  0  0  0  0  0  0  0  0
   48.0122   19.7470   74.2250 C   0  0  2  0  0  0  0  0  0  0  0  0
   47.3080   18.5538   74.8449 C   0  0  2  0  0  0  0  0  0  0  0  0
   47.2091   18.8098   76.3379 C   0  0  1  0  0  0  0  0  0  0  0  0
   46.4173   17.7174   77.0342 C   0  0  0  0  0  0  0  0  0  0  0  0
   51.0893   21.1839   73.6766 C   0  0  0  0  0  0  0  0  0  0  0  0
   51.5293   22.5491   73.2332 C   0  0  0  0  0  0  0  0  0  0  0  0
   49.9672   21.1809   74.4036 N   0  0  0  0  0  0  0  0  0  0  0  0
   50.4259   20.1894   77.1221 O   0  0  0  0  0  0  0  0  0  0  0  0
   48.1689   19.4993   72.8288 O   0  0  0  0  0  0  0  0  0  0  0  0
   48.0619   17.3685   74.5242 O   0  0  0  0  0  0  0  0  0  0  0  0
   48.5201   18.8838   76.8935 O   0  0  0  0  0  0  0  0  0  0  0  0
   45.0595   17.8989   76.6452 O   0  0  0  0  0  0  0  0  0  0  0  0
   51.7219   20.1716   73.3841 O   0  0  0  0  0  0  0  0  0  0  0  0
   48.5830   20.9562   76.6337 H   0  0  0  0  0  0  0  0  0  0  0  0
   50.0177   19.1123   74.6920 H   0  0  0  0  0  0  0  0  0  0  0  0
   47.4194   20.6636   74.3613 H   0  0  0  0  0  0  0  0  0  0  0  0
   46.2897   18.4078   74.4556 H   0  0  0  0  0  0  0  0  0  0  0  0
   46.6815   19.7626   76.4920 H   0  0  0  0  0  0  0  0  0  0  0  0
   46.7752   16.7266   76.7175 H   0  0  0  0  0  0  0  0  0  0  0  0
   46.5316   17.7749   78.1267 H   0  0  0  0  0  0  0  0  0  0  0  0
   51.7308   23.1740   74.1157 H   0  0  0  0  0  0  0  0  0  0  0  0
   52.4447   22.4612   72.6295 H   0  0  0  0  0  0  0  0  0  0  0  0
   50.7350   23.0122   72.6295 H   0  0  0  0  0  0  0  0  0  0  0  0
   49.5141   22.0819   74.6128 H   0  0  0  0  0  0  0  0  0  0  0  0
   50.2633   20.1719   78.0985 H   0  0  0  0  0  0  0  0  0  0  0  0
   48.6935   18.6701   72.6976 H   0  0  0  0  0  0  0  0  0  0  0  0
   48.3460   16.9217   75.3607 H   0  0  0  0  0  0  0  0  0  0  0  0
   44.4921   17.9748   77.4529 H   0  0  0  0  0  0  0  0  0  0  0  0
  1  2  1  0
  1 10  1  0
  1 13  1  0
  2  3  1  0
  2  9  1  0
  3  4  1  0
  3 11  1  0
  4  5  1  0
  4 12  1  0
  5  6  1  0
  5 13  1  0
  6 14  1  0
  7  8  1  0
  7  9  1  0
  7 15  2  0
  1 16  1  6
  2 17  1  1
  3 18  1  6
  4 19  1  6
  5 20  1  6
  6 21  1  0
  6 22  1  0
  8 23  1  0
  8 24  1  0
  8 25  1  0
  9 26  1  0
 10 27  1  0
 11 28  1  0
 12 29  1  0
 14 30  1  0
M  END
>  <filename_input>  (15) 
7QE4_NGA_docked.sdf

>  <pdb_id>  (15) 
7QE4_NGA

>  <pose_rank>  (15) 
14

>  <num_atoms_heavy>  (15) 
15

>  <num_torsions>  (15) 
2

>  <pose>  (15) 
[49.18034015880953, 20.055674074556087, 76.42820995448061, 2.162449340369651, 1.469002693527205, -1.4699801274216258, 6.059292886934797, 4.143829072909955]

>  <energy>  (15) 
-418.0372374237633

>  <inter_energy>  (15) 
-426.7402423070457

>  <intra_energy>  (15) 
0.4581924893096816

>  <rmsd>  (15) 
2.64251

>  <sdf_rank>  (15) 
0

$$$$

     RDKit          3D

 30 30  0  0  0  0  0  0  0  0999 V2000
   48.3555   18.4985   74.0137 C   0  0  2  0  0  0  0  0  0  0  0  0
   49.4222   19.3053   74.7582 C   0  0  1  0  0  0  0  0  0  0  0  0
   49.4297   18.9409   76.2418 C   0  0  2  0  0  0  0  0  0  0  0  0
   48.0293   19.0765   76.8115 C   0  0  2  0  0  0  0  0  0  0  0  0
   47.1095   18.2140   75.9663 C   0  0  1  0  0  0  0  0  0  0  0  0
   45.6990   18.1963   76.5278 C   0  0  0  0  0  0  0  0  0  0  0  0
   51.5264   20.0213   73.7300 C   0  0  0  0  0  0  0  0  0  0  0  0
   52.8491   19.5370   73.2105 C   0  0  0  0  0  0  0  0  0  0  0  0
   50.7321   19.0500   74.1920 N   0  0  0  0  0  0  0  0  0  0  0  0
   48.2606   18.8571   72.6306 O   0  0  0  0  0  0  0  0  0  0  0  0
   50.3005   19.7914   76.9858 O   0  0  0  0  0  0  0  0  0  0  0  0
   47.6686   20.4713   76.7945 O   0  0  0  0  0  0  0  0  0  0  0  0
   47.0902   18.7107   74.6300 O   0  0  0  0  0  0  0  0  0  0  0  0
   45.8335   18.0899   77.9415 O   0  0  0  0  0  0  0  0  0  0  0  0
   51.2226   21.2121   73.7212 O   0  0  0  0  0  0  0  0  0  0  0  0
   48.6506   17.4401   74.0669 H   0  0  0  0  0  0  0  0  0  0  0  0
   49.1822   20.3735   74.6513 H   0  0  0  0  0  0  0  0  0  0  0  0
   49.7858   17.9035   76.3252 H   0  0  0  0  0  0  0  0  0  0  0  0
   47.9562   18.7334   77.8540 H   0  0  0  0  0  0  0  0  0  0  0  0
   47.4929   17.1831   75.9784 H   0  0  0  0  0  0  0  0  0  0  0  0
   45.1722   19.1253   76.2641 H   0  0  0  0  0  0  0  0  0  0  0  0
   45.1155   17.3590   76.1173 H   0  0  0  0  0  0  0  0  0  0  0  0
   53.5091   19.2953   74.0566 H   0  0  0  0  0  0  0  0  0  0  0  0
   52.6949   18.6370   72.5971 H   0  0  0  0  0  0  0  0  0  0  0  0
   53.3124   20.3238   72.5971 H   0  0  0  0  0  0  0  0  0  0  0  0
   51.0659   18.0768   74.1434 H   0  0  0  0  0  0  0  0  0  0  0  0
   48.0081   19.8113   72.5537 H   0  0  0  0  0  0  0  0  0  0  0  0
   50.1537   19.6480   77.9543 H   0  0  0  0  0  0  0  0  0  0  0  0
   47.5832   20.8014   77.7240 H   0  0  0  0  0  0  0  0  0  0  0  0
   45.1380   18.6401   78.3815 H   0  0  0  0  0  0  0  0  0  0  0  0
  1  2  1  0
  1 10  1  0
  1 13  1  0
  2  3  1  0
  2  9  1  0
  3  4  1  0
  3 11  1  0
  4  5  1  0
  4 12  1  0
  5  6  1  0
  5 13  1  0
  6 14  1  0
  7  8  1  0
  7  9  1  0
  7 15  2  0
  1 16  1  6
  2 17  1  1
  3 18  1  6
  4 19  1  1
  5 20  1  6
  6 21  1  0
  6 22  1  0
  8 23  1  0
  8 24  1  0
  8 25  1  0
  9 26  1  0
 10 27  1  0
 11 28  1  0
 12 29  1  0
 14 30  1  0
M  END
>  <filename_input>  (16) 
7QE4_NGA_docked.sdf

>  <pdb_id>  (16) 
7QE4_NGA

>  <pose_rank>  (16) 
15

>  <num_atoms_heavy>  (16) 
15

>  <num_torsions>  (16) 
2

>  <pose>  (16) 
[48.355513270049585, 18.498464670331927, 74.01372281937603, -0.22853765454548375, -0.18949359108023517, -0.10439806757750622, -0.2368826149842521, -1.6200630468650707]

>  <energy>  (16) 
-443.3008106047175

>  <inter_energy>  (16) 
-441.9784890193238

>  <intra_energy>  (16) 
1.381968155677039

>  <rmsd>  (16) 
0.832879

>  <sdf_rank>  (16) 
0

$$$$

     RDKit          3D

 30 30  0  0  0  0  0  0  0  0999 V2000
   48.8976   18.4152   74.4449 C   0  0  2  0  0  0  0  0  0  0  0  0
   49.7933   19.2537   75.3601 C   0  0  1  0  0  0  0  0  0  0  0  0
   49.5510   18.8906   76.8242 C   0  0  2  0  0  0  0  0  0  0  0  0
   48.0691   18.9851   77.1387 C   0  0  2  0  0  0  0  0  0  0  0  0
   47.3372   18.0952   76.1504 C   0  0  1  0  0  0  0  0  0  0  0  0
   45.8512   18.0361   76.4560 C   0  0  0  0  0  0  0  0  0  0  0  0
   52.0321   20.0343   74.7470 C   0  0  0  0  0  0  0  0  0  0  0  0
   53.4371   19.5876   74.4634 C   0  0  0  0  0  0  0  0  0  0  0  0
   51.1891   19.0369   75.0338 N   0  0  0  0  0  0  0  0  0  0  0  0
   49.0364   18.7700   73.0644 O   0  0  0  0  0  0  0  0  0  0  0  0
   50.2528   19.7670   77.7044 O   0  0  0  0  0  0  0  0  0  0  0  0
   47.6766   20.3686   77.0507 O   0  0  0  0  0  0  0  0  0  0  0  0
   47.5382   18.5902   74.8285 O   0  0  0  0  0  0  0  0  0  0  0  0
   45.7273   18.1904   77.8662 O   0  0  0  0  0  0  0  0  0  0  0  0
   51.7088   21.2196   74.7128 O   0  0  0  0  0  0  0  0  0  0  0  0
   49.2094   17.3661   74.5551 H   0  0  0  0  0  0  0  0  0  0  0  0
   49.5449   20.3142   75.2066 H   0  0  0  0  0  0  0  0  0  0  0  0
   49.9169   17.8642   76.9748 H   0  0  0  0  0  0  0  0  0  0  0  0
   47.8241   18.6406   78.1543 H   0  0  0  0  0  0  0  0  0  0  0  0
   47.7423   17.0761   76.2355 H   0  0  0  0  0  0  0  0  0  0  0  0
   45.3227   18.8486   75.9359 H   0  0  0  0  0  0  0  0  0  0  0  0
   45.4105   17.0868   76.1172 H   0  0  0  0  0  0  0  0  0  0  0  0
   53.9669   19.4191   75.4125 H   0  0  0  0  0  0  0  0  0  0  0  0
   53.4147   18.6522   73.8849 H   0  0  0  0  0  0  0  0  0  0  0  0
   53.9590   20.3641   73.8849 H   0  0  0  0  0  0  0  0  0  0  0  0
   51.5474   18.0713   75.0225 H   0  0  0  0  0  0  0  0  0  0  0  0
   49.3962   19.6897   72.9947 H   0  0  0  0  0  0  0  0  0  0  0  0
   50.0551   19.5201   78.6425 H   0  0  0  0  0  0  0  0  0  0  0  0
   47.5711   20.7403   77.9622 H   0  0  0  0  0  0  0  0  0  0  0  0
   46.2772   17.5053   78.3227 H   0  0  0  0  0  0  0  0  0  0  0  0
  1  2  1  0
  1 10  1  0
  1 13  1  0
  2  3  1  0
  2  9  1  0
  3  4  1  0
  3 11  1  0
  4  5  1  0
  4 12  1  0
  5  6  1  0
  5 13  1  0
  6 14  1  0
  7  8  1  0
  7  9  1  0
  7 15  2  0
  1 16  1  6
  2 17  1  1
  3 18  1  6
  4 19  1  1
  5 20  1  6
  6 21  1  0
  6 22  1  0
  8 23  1  0
  8 24  1  0
  8 25  1  0
  9 26  1  0
 10 27  1  0
 11 28  1  0
 12 29  1  0
 14 30  1  0
M  END
>  <filename_input>  (17) 
7QE4_NGA_docked.sdf

>  <pdb_id>  (17) 
7QE4_NGA

>  <pose_rank>  (17) 
16

>  <num_atoms_heavy>  (17) 
15

>  <num_torsions>  (17) 
2

>  <pose>  (17) 
[48.89763102404353, 18.41516542630874, 74.44488410889922, -0.21971496039673236, -0.36833303227732495, -0.09497306762038064, -0.20513674675059443, -1.432418149584046]

>  <energy>  (17) 
-444.57676073382595

>  <inter_energy>  (17) 
-440.55968144797225

>  <intra_energy>  (17) 
4.578089685252245

>  <rmsd>  (17) 
1.25934

>  <sdf_rank>  (17) 
0

$$$$

     RDKit          3D

 30 30  0  0  0  0  0  0  0  0999 V2000
   49.3126   18.2288   74.2101 C   0  0  2  0  0  0  0  0  0  0  0  0
   48.8215   18.7834   75.5496 C   0  0  1  0  0  0  0  0  0  0  0  0
   49.2231   20.2496   75.7009 C   0  0  2  0  0  0  0  0  0  0  0  0
   50.7156   20.4003   75.4687 C   0  0  2  0  0  0  0  0  0  0  0  0
   51.0251   19.8106   74.1046 C   0  0  1  0  0  0  0  0  0  0  0  0
   52.4828   20.0150   73.7325 C   0  0  0  0  0  0  0  0  0  0  0  0
   46.7413   18.4614   76.8012 C   0  0  0  0  0  0  0  0  0  0  0  0
   45.2468   18.3963   76.6741 C   0  0  0  0  0  0  0  0  0  0  0  0
   47.3797   18.6658   75.6443 N   0  0  0  0  0  0  0  0  0  0  0  0
   49.0224   16.8353   74.0524 O   0  0  0  0  0  0  0  0  0  0  0  0
   48.9201   20.7441   77.0042 O   0  0  0  0  0  0  0  0  0  0  0  0
   51.4085   19.7341   76.5420 O   0  0  0  0  0  0  0  0  0  0  0  0
   50.7197   18.4180   74.1104 O   0  0  0  0  0  0  0  0  0  0  0  0
   52.5595   19.8596   72.3191 O   0  0  0  0  0  0  0  0  0  0  0  0
   47.3063   18.3351   77.8854 O   0  0  0  0  0  0  0  0  0  0  0  0
   48.7813   18.7745   73.4164 H   0  0  0  0  0  0  0  0  0  0  0  0
   49.2874   18.1977   76.3558 H   0  0  0  0  0  0  0  0  0  0  0  0
   48.6529   20.8265   74.9579 H   0  0  0  0  0  0  0  0  0  0  0  0
   51.0452   21.4497   75.4695 H   0  0  0  0  0  0  0  0  0  0  0  0
   50.4076   20.3275   73.3553 H   0  0  0  0  0  0  0  0  0  0  0  0
   52.8124   21.0234   74.0234 H   0  0  0  0  0  0  0  0  0  0  0  0
   53.1327   19.2941   74.2501 H   0  0  0  0  0  0  0  0  0  0  0  0
   44.7941   18.3766   77.6764 H   0  0  0  0  0  0  0  0  0  0  0  0
   44.8866   19.2797   76.1264 H   0  0  0  0  0  0  0  0  0  0  0  0
   44.9647   17.4851   76.1264 H   0  0  0  0  0  0  0  0  0  0  0  0
   46.8221   18.7432   74.7818 H   0  0  0  0  0  0  0  0  0  0  0  0
   48.9346   16.4136   74.9437 H   0  0  0  0  0  0  0  0  0  0  0  0
   49.2955   20.1314   77.6852 H   0  0  0  0  0  0  0  0  0  0  0  0
   51.0660   20.0634   77.4105 H   0  0  0  0  0  0  0  0  0  0  0  0
   52.9874   18.9929   72.1051 H   0  0  0  0  0  0  0  0  0  0  0  0
  1  2  1  0
  1 10  1  0
  1 13  1  0
  2  3  1  0
  2  9  1  0
  3  4  1  0
  3 11  1  0
  4  5  1  0
  4 12  1  0
  5  6  1  0
  5 13  1  0
  6 14  1  0
  7  8  1  0
  7  9  1  0
  7 15  2  0
  1 16  1  6
  2 17  1  1
  3 18  1  6
  4 19  1  6
  5 20  1  6
  6 21  1  0
  6 22  1  0
  8 23  1  0
  8 24  1  0
  8 25  1  0
  9 26  1  0
 10 27  1  0
 11 28  1  0
 12 29  1  0
 14 30  1  0
M  END
>  <filename_input>  (18) 
7QE4_NGA_docked.sdf

>  <pdb_id>  (18) 
7QE4_NGA

>  <pose_rank>  (18) 
17

>  <num_atoms_heavy>  (18) 
15

>  <num_torsions>  (18) 
2

>  <pose>  (18) 
[49.31258404351201, 18.228783072808508, 74.21007708909913, -0.9054798047955208, -1.5344457596291958, -2.8316044603286974, -6.1040660682334, 2.584984267663297]

>  <energy>  (18) 
-421.56872065638044

>  <inter_energy>  (18) 
-418.11202492167604

>  <intra_energy>  (18) 
10.277728543977064

>  <rmsd>  (18) 
4.95169

>  <sdf_rank>  (18) 
0

$$$$

     RDKit          3D

 30 30  0  0  0  0  0  0  0  0999 V2000
   50.2595   19.3309   76.1715 C   0  0  2  0  0  0  0  0  0  0  0  0
   48.9780   19.7333   75.4373 C   0  0  1  0  0  0  0  0  0  0  0  0
   49.1474   19.5558   73.9294 C   0  0  2  0  0  0  0  0  0  0  0  0
   50.3935   20.2861   73.4627 C   0  0  2  0  0  0  0  0  0  0  0  0
   51.5597   19.7648   74.2828 C   0  0  1  0  0  0  0  0  0  0  0  0
   52.8753   20.3580   73.8110 C   0  0  0  0  0  0  0  0  0  0  0  0
   46.9926   19.3512   76.8192 C   0  0  0  0  0  0  0  0  0  0  0  0
   45.8998   18.3690   77.1272 C   0  0  0  0  0  0  0  0  0  0  0  0
   47.8623   18.9290   75.8955 N   0  0  0  0  0  0  0  0  0  0  0  0
   50.1749   19.5480   77.5844 O   0  0  0  0  0  0  0  0  0  0  0  0
   48.0288   20.0743   73.2118 O   0  0  0  0  0  0  0  0  0  0  0  0
   50.1754   21.7008   73.6271 O   0  0  0  0  0  0  0  0  0  0  0  0
   51.3523   20.0837   75.6568 O   0  0  0  0  0  0  0  0  0  0  0  0
   53.2455   21.3312   74.7825 O   0  0  0  0  0  0  0  0  0  0  0  0
   47.0609   20.4426   77.3801 O   0  0  0  0  0  0  0  0  0  0  0  0
   50.4062   18.2535   76.0053 H   0  0  0  0  0  0  0  0  0  0  0  0
   48.7756   20.7925   75.6543 H   0  0  0  0  0  0  0  0  0  0  0  0
   49.2306   18.4770   73.7312 H   0  0  0  0  0  0  0  0  0  0  0  0
   50.6189   20.1123   72.4001 H   0  0  0  0  0  0  0  0  0  0  0  0
   51.6136   18.6737   74.1543 H   0  0  0  0  0  0  0  0  0  0  0  0
   53.6444   19.5744   73.7445 H   0  0  0  0  0  0  0  0  0  0  0  0
   52.7761   20.8075   72.8120 H   0  0  0  0  0  0  0  0  0  0  0  0
   45.7911   18.2713   78.2174 H   0  0  0  0  0  0  0  0  0  0  0  0
   44.9534   18.7259   76.6949 H   0  0  0  0  0  0  0  0  0  0  0  0
   46.1541   17.3900   76.6949 H   0  0  0  0  0  0  0  0  0  0  0  0
   47.7337   17.9904   75.4914 H   0  0  0  0  0  0  0  0  0  0  0  0
   50.4898   18.7399   78.0619 H   0  0  0  0  0  0  0  0  0  0  0  0
   47.3440   20.3917   73.8525 H   0  0  0  0  0  0  0  0  0  0  0  0
   50.1417   21.9195   74.5921 H   0  0  0  0  0  0  0  0  0  0  0  0
   53.1049   20.9616   75.6901 H   0  0  0  0  0  0  0  0  0  0  0  0
  1  2  1  0
  1 10  1  0
  1 13  1  0
  2  3  1  0
  2  9  1  0
  3  4  1  0
  3 11  1  0
  4  5  1  0
  4 12  1  0
  5  6  1  0
  5 13  1  0
  6 14  1  0
  7  8  1  0
  7  9  1  0
  7 15  2  0
  1 16  1  1
  2 17  1  6
  3 18  1  1
  4 19  1  6
  5 20  1  1
  6 21  1  0
  6 22  1  0
  8 23  1  0
  8 24  1  0
  8 25  1  0
  9 26  1  0
 10 27  1  0
 11 28  1  0
 12 29  1  0
 14 30  1  0
M  END
>  <filename_input>  (19) 
7QE4_NGA_docked.sdf

>  <pdb_id>  (19) 
7QE4_NGA

>  <pose_rank>  (19) 
18

>  <num_atoms_heavy>  (19) 
15

>  <num_torsions>  (19) 
2

>  <pose>  (19) 
[50.25946568414525, 19.330899077090397, 76.17146466887442, -0.7306842467361967, 2.8130314607953557, 0.5303805680278667, -0.6932595612117964, 0.937571060363311]

>  <energy>  (19) 
-418.5669928041632

>  <inter_energy>  (19) 
-398.43327312419564

>  <intra_energy>  (19) 
4.096537219923263

>  <rmsd>  (19) 
5.21763

>  <sdf_rank>  (19) 
0

$$$$

     RDKit          3D

 30 30  0  0  0  0  0  0  0  0999 V2000
   50.1867   18.7193   76.2616 C   0  0  2  0  0  0  0  0  0  0  0  0
   48.9321   18.7829   75.3869 C   0  0  1  0  0  0  0  0  0  0  0  0
   49.1708   18.0700   74.0569 C   0  0  2  0  0  0  0  0  0  0  0  0
   50.4236   18.6177   73.3977 C   0  0  2  0  0  0  0  0  0  0  0  0
   51.5613   18.4714   74.3920 C   0  0  1  0  0  0  0  0  0  0  0  0
   52.8861   18.8919   73.7811 C   0  0  0  0  0  0  0  0  0  0  0  0
   46.9037   18.8697   76.7562 C   0  0  0  0  0  0  0  0  0  0  0  0
   45.8133   18.0351   77.3632 C   0  0  0  0  0  0  0  0  0  0  0  0
   47.8112   18.1675   76.0698 N   0  0  0  0  0  0  0  0  0  0  0  0
   50.0363   19.4368   77.4917 O   0  0  0  0  0  0  0  0  0  0  0  0
   48.0762   18.2529   73.1605 O   0  0  0  0  0  0  0  0  0  0  0  0
   50.1744   19.9863   73.0225 O   0  0  0  0  0  0  0  0  0  0  0  0
   51.2881   19.2654   75.5443 O   0  0  0  0  0  0  0  0  0  0  0  0
   53.4819   17.7059   73.2649 O   0  0  0  0  0  0  0  0  0  0  0  0
   46.9378   20.0907   76.8919 O   0  0  0  0  0  0  0  0  0  0  0  0
   50.3590   17.6613   76.5087 H   0  0  0  0  0  0  0  0  0  0  0  0
   48.7023   19.8408   75.1918 H   0  0  0  0  0  0  0  0  0  0  0  0
   49.2810   16.9970   74.2725 H   0  0  0  0  0  0  0  0  0  0  0  0
   50.6986   18.0734   72.4822 H   0  0  0  0  0  0  0  0  0  0  0  0
   51.6394   17.4115   74.6760 H   0  0  0  0  0  0  0  0  0  0  0  0
   52.7190   19.6177   72.9716 H   0  0  0  0  0  0  0  0  0  0  0  0
   53.5354   19.3739   74.5267 H   0  0  0  0  0  0  0  0  0  0  0  0
   45.8800   18.0861   78.4600 H   0  0  0  0  0  0  0  0  0  0  0  0
   44.8346   18.4171   77.0372 H   0  0  0  0  0  0  0  0  0  0  0  0
   45.9264   16.9906   77.0372 H   0  0  0  0  0  0  0  0  0  0  0  0
   47.7093   17.1436   76.0243 H   0  0  0  0  0  0  0  0  0  0  0  0
   50.1661   18.8175   78.2530 H   0  0  0  0  0  0  0  0  0  0  0  0
   47.2445   18.3919   73.6793 H   0  0  0  0  0  0  0  0  0  0  0  0
   50.0738   20.5389   73.8377 H   0  0  0  0  0  0  0  0  0  0  0  0
   53.7718   17.1288   74.0152 H   0  0  0  0  0  0  0  0  0  0  0  0
  1  2  1  0
  1 10  1  0
  1 13  1  0
  2  3  1  0
  2  9  1  0
  3  4  1  0
  3 11  1  0
  4  5  1  0
  4 12  1  0
  5  6  1  0
  5 13  1  0
  6 14  1  0
  7  8  1  0
  7  9  1  0
  7 15  2  0
  1 16  1  1
  2 17  1  6
  3 18  1  1
  4 19  1  6
  5 20  1  1
  6 21  1  0
  6 22  1  0
  8 23  1  0
  8 24  1  0
  8 25  1  0
  9 26  1  0
 10 27  1  0
 11 28  1  0
 12 29  1  0
 14 30  1  0
M  END
>  <filename_input>  (20) 
7QE4_NGA_docked.sdf

>  <pdb_id>  (20) 
7QE4_NGA

>  <pose_rank>  (20) 
19

>  <num_atoms_heavy>  (20) 
15

>  <num_torsions>  (20) 
2

>  <pose>  (20) 
[50.18672079928943, 18.71926384987895, 76.26155620017383, -0.8303924971404337, 2.8999200880606617, -0.016852186679963466, 11.858487216640778, 3.7561486922410006]

>  <energy>  (20) 
-382.55281308457563

>  <inter_energy>  (20) 
-386.210790782327

>  <intra_energy>  (20) 
4.26875592104969

>  <rmsd>  (20) 
5.32419

>  <sdf_rank>  (20) 
0

$$$$

     RDKit          3D

 30 30  0  0  0  0  0  0  0  0999 V2000
   48.0319   19.0964   73.8646 C   0  0  2  0  0  0  0  0  0  0  0  0
   49.0509   20.0195   74.5374 C   0  0  1  0  0  0  0  0  0  0  0  0
   49.5018   19.4339   75.8745 C   0  0  2  0  0  0  0  0  0  0  0  0
   48.2896   19.1092   76.7284 C   0  0  2  0  0  0  0  0  0  0  0  0
   47.3965   18.1873   75.9179 C   0  0  1  0  0  0  0  0  0  0  0  0
   46.2057   17.7153   76.7327 C   0  0  0  0  0  0  0  0  0  0  0  0
   50.5430   21.3929   73.1646 C   0  0  0  0  0  0  0  0  0  0  0  0
   51.7866   21.3646   72.3240 C   0  0  0  0  0  0  0  0  0  0  0  0
   50.2040   20.2062   73.6789 N   0  0  0  0  0  0  0  0  0  0  0  0
   47.5244   19.6376   72.6398 O   0  0  0  0  0  0  0  0  0  0  0  0
   50.3261   20.3481   76.5955 O   0  0  0  0  0  0  0  0  0  0  0  0
   47.6457   20.3473   77.0868 O   0  0  0  0  0  0  0  0  0  0  0  0
   46.9425   18.8720   74.7526 O   0  0  0  0  0  0  0  0  0  0  0  0
   45.2010   17.3452   75.7938 O   0  0  0  0  0  0  0  0  0  0  0  0
   49.9086   22.4292   73.3498 O   0  0  0  0  0  0  0  0  0  0  0  0
   48.5506   18.1559   73.6268 H   0  0  0  0  0  0  0  0  0  0  0  0
   48.5688   20.9922   74.7149 H   0  0  0  0  0  0  0  0  0  0  0  0
   50.0811   18.5242   75.6580 H   0  0  0  0  0  0  0  0  0  0  0  0
   48.5510   18.5946   77.6648 H   0  0  0  0  0  0  0  0  0  0  0  0
   47.9828   17.3024   75.6292 H   0  0  0  0  0  0  0  0  0  0  0  0
   46.4862   16.8501   77.3514 H   0  0  0  0  0  0  0  0  0  0  0  0
   45.8479   18.5034   77.4117 H   0  0  0  0  0  0  0  0  0  0  0  0
   52.6708   21.3445   72.9781 H   0  0  0  0  0  0  0  0  0  0  0  0
   51.7796   20.4664   71.6891 H   0  0  0  0  0  0  0  0  0  0  0  0
   51.8205   22.2622   71.6891 H   0  0  0  0  0  0  0  0  0  0  0  0
   50.7884   19.3881   73.4552 H   0  0  0  0  0  0  0  0  0  0  0  0
   46.8614   20.3447   72.8411 H   0  0  0  0  0  0  0  0  0  0  0  0
   50.2009   20.2092   77.5677 H   0  0  0  0  0  0  0  0  0  0  0  0
   47.6053   20.4248   78.0730 H   0  0  0  0  0  0  0  0  0  0  0  0
   44.3907   17.0467   76.2779 H   0  0  0  0  0  0  0  0  0  0  0  0
  1  2  1  0
  1 10  1  0
  1 13  1  0
  2  3  1  0
  2  9  1  0
  3  4  1  0
  3 11  1  0
  4  5  1  0
  4 12  1  0
  5  6  1  0
  5 13  1  0
  6 14  1  0
  7  8  1  0
  7  9  1  0
  7 15  2  0
  1 16  1  6
  2 17  1  1
  3 18  1  6
  4 19  1  1
  5 20  1  6
  6 21  1  0
  6 22  1  0
  8 23  1  0
  8 24  1  0
  8 25  1  0
  9 26  1  0
 10 27  1  0
 11 28  1  0
 12 29  1  0
 14 30  1  0
M  END
>  <filename_input>  (21) 
7QE4_NGA_docked.sdf

>  <pdb_id>  (21) 
7QE4_NGA

>  <pose_rank>  (21) 
20

>  <num_atoms_heavy>  (21) 
15

>  <num_torsions>  (21) 
2

>  <pose>  (21) 
[48.03192544615481, 19.09635777751106, 73.86456936215951, -0.9577077912768887, 0.9719233557552213, 6.283514403418749, -0.3747957645069962, 1.8445900779913]

>  <energy>  (21) 
-487.4977709155434

>  <inter_energy>  (21) 
-486.95204635404514

>  <intra_energy>  (21) 
0.14399654274461407

>  <rmsd>  (21) 
0.853369

>  <sdf_rank>  (21) 
0

$$$$

     RDKit          3D

 30 30  0  0  0  0  0  0  0  0999 V2000
   46.9052   17.9586   70.3974 C   0  0  2  0  0  0  0  0  0  0  0  0
   47.7043   19.0500   69.6809 C   0  0  1  0  0  0  0  0  0  0  0  0
   49.0231   19.3109   70.4066 C   0  0  2  0  0  0  0  0  0  0  0  0
   48.7555   19.5905   71.8744 C   0  0  2  0  0  0  0  0  0  0  0  0
   47.9675   18.4155   72.4245 C   0  0  1  0  0  0  0  0  0  0  0  0
   47.7460   18.5510   73.9204 C   0  0  0  0  0  0  0  0  0  0  0  0
   48.3601   17.4226   67.9724 C   0  0  0  0  0  0  0  0  0  0  0  0
   48.5629   17.2270   66.4978 C   0  0  0  0  0  0  0  0  0  0  0  0
   47.9762   18.6575   68.3121 N   0  0  0  0  0  0  0  0  0  0  0  0
   45.6266   17.7282   69.7951 O   0  0  0  0  0  0  0  0  0  0  0  0
   49.7119   20.4318   69.8551 O   0  0  0  0  0  0  0  0  0  0  0  0
   48.0471   20.8412   71.9734 O   0  0  0  0  0  0  0  0  0  0  0  0
   46.7106   18.3340   71.7565 O   0  0  0  0  0  0  0  0  0  0  0  0
   46.3781   18.2299   74.1521 O   0  0  0  0  0  0  0  0  0  0  0  0
   48.5374   16.5116   68.7781 O   0  0  0  0  0  0  0  0  0  0  0  0
   47.4849   17.0268   70.3219 H   0  0  0  0  0  0  0  0  0  0  0  0
   47.1045   19.9721   69.6821 H   0  0  0  0  0  0  0  0  0  0  0  0
   49.6482   18.4135   70.2884 H   0  0  0  0  0  0  0  0  0  0  0  0
   49.6774   19.6901   72.4662 H   0  0  0  0  0  0  0  0  0  0  0  0
   48.5466   17.4969   72.2487 H   0  0  0  0  0  0  0  0  0  0  0  0
   48.3987   17.8543   74.4668 H   0  0  0  0  0  0  0  0  0  0  0  0
   47.9832   19.5668   74.2695 H   0  0  0  0  0  0  0  0  0  0  0  0
   49.3458   16.4722   66.3323 H   0  0  0  0  0  0  0  0  0  0  0  0
   47.6224   16.8862   66.0403 H   0  0  0  0  0  0  0  0  0  0  0  0
   48.8692   18.1794   66.0403 H   0  0  0  0  0  0  0  0  0  0  0  0
   47.8689   19.3615   67.5679 H   0  0  0  0  0  0  0  0  0  0  0  0
   44.9456   17.6055   70.5031 H   0  0  0  0  0  0  0  0  0  0  0  0
   50.0601   20.9986   70.5883 H   0  0  0  0  0  0  0  0  0  0  0  0
   47.9165   21.0718   72.9273 H   0  0  0  0  0  0  0  0  0  0  0  0
   46.2090   18.1902   75.1267 H   0  0  0  0  0  0  0  0  0  0  0  0
  1  2  1  0
  1 10  1  0
  1 13  1  0
  2  3  1  0
  2  9  1  0
  3  4  1  0
  3 11  1  0
  4  5  1  0
  4 12  1  0
  5  6  1  0
  5 13  1  0
  6 14  1  0
  7  8  1  0
  7  9  1  0
  7 15  2  0
  1 16  1  1
  2 17  1  6
  3 18  1  1
  4 19  1  1
  5 20  1  1
  6 21  1  0
  6 22  1  0
  8 23  1  0
  8 24  1  0
  8 25  1  0
  9 26  1  0
 10 27  1  0
 11 28  1  0
 12 29  1  0
 14 30  1  0
M  END
>  <filename_input>  (22) 
7QE4_NGA_docked.sdf

>  <pdb_id>  (22) 
7QE4_NGA

>  <pose_rank>  (22) 
21

>  <num_atoms_heavy>  (22) 
15

>  <num_torsions>  (22) 
2

>  <pose>  (22) 
[46.905214713977685, 17.958610459413446, 70.39744468444992, 2.864971730100558, -4.086745122957254, -1.6134332440549657, 9.419702848186068, -11.108687071090896]

>  <energy>  (22) 
-46.18420074054688

>  <inter_energy>  (22) 
-74.4068429260879

>  <intra_energy>  (22) 
29.507880219361773

>  <rmsd>  (22) 
5.43861

>  <sdf_rank>  (22) 
0

$$$$

     RDKit          3D

 30 30  0  0  0  0  0  0  0  0999 V2000
   41.4541   19.8753   68.3486 C   0  0  2  0  0  0  0  0  0  0  0  0
   40.8588   20.1032   69.7403 C   0  0  1  0  0  0  0  0  0  0  0  0
   40.0847   21.4196   69.7817 C   0  0  2  0  0  0  0  0  0  0  0  0
   40.9665   22.5503   69.2837 C   0  0  2  0  0  0  0  0  0  0  0  0
   41.4611   22.1656   67.9010 C   0  0  1  0  0  0  0  0  0  0  0  0
   42.2655   23.2882   67.2703 C   0  0  0  0  0  0  0  0  0  0  0  0
   40.1792   18.2209   71.1519 C   0  0  0  0  0  0  0  0  0  0  0  0
   39.1255   17.1694   71.3469 C   0  0  0  0  0  0  0  0  0  0  0  0
   39.9730   19.0112   70.0933 N   0  0  0  0  0  0  0  0  0  0  0  0
   42.2506   18.6872   68.2792 O   0  0  0  0  0  0  0  0  0  0  0  0
   39.6571   21.7346   71.1058 O   0  0  0  0  0  0  0  0  0  0  0  0
   42.0341   22.7410   70.2323 O   0  0  0  0  0  0  0  0  0  0  0  0
   42.2639   20.9911   67.9951 O   0  0  0  0  0  0  0  0  0  0  0  0
   41.3585   24.0164   66.4488 O   0  0  0  0  0  0  0  0  0  0  0  0
   41.1387   18.3268   71.9126 O   0  0  0  0  0  0  0  0  0  0  0  0
   40.6133   19.7574   67.6493 H   0  0  0  0  0  0  0  0  0  0  0  0
   41.6855   20.1490   70.4646 H   0  0  0  0  0  0  0  0  0  0  0  0
   39.2001   21.3029   69.1385 H   0  0  0  0  0  0  0  0  0  0  0  0
   40.4298   23.5068   69.2002 H   0  0  0  0  0  0  0  0  0  0  0  0
   40.5871   21.9731   67.2614 H   0  0  0  0  0  0  0  0  0  0  0  0
   42.6829   23.9424   68.0499 H   0  0  0  0  0  0  0  0  0  0  0  0
   43.1092   22.8952   66.6839 H   0  0  0  0  0  0  0  0  0  0  0  0
   38.9636   17.0078   72.4229 H   0  0  0  0  0  0  0  0  0  0  0  0
   38.1861   17.5007   70.8804 H   0  0  0  0  0  0  0  0  0  0  0  0
   39.4550   16.2293   70.8804 H   0  0  0  0  0  0  0  0  0  0  0  0
   39.1478   18.8364   69.5022 H   0  0  0  0  0  0  0  0  0  0  0  0
   42.4594   18.3758   69.1955 H   0  0  0  0  0  0  0  0  0  0  0  0
   40.2557   21.2937   71.7595 H   0  0  0  0  0  0  0  0  0  0  0  0
   41.6738   22.6766   71.1521 H   0  0  0  0  0  0  0  0  0  0  0  0
   40.7284   24.5222   67.0209 H   0  0  0  0  0  0  0  0  0  0  0  0
  1  2  1  0
  1 10  1  0
  1 13  1  0
  2  3  1  0
  2  9  1  0
  3  4  1  0
  3 11  1  0
  4  5  1  0
  4 12  1  0
  5  6  1  0
  5 13  1  0
  6 14  1  0
  7  8  1  0
  7  9  1  0
  7 15  2  0
  1 16  1  6
  2 17  1  1
  3 18  1  6
  4 19  1  6
  5 20  1  6
  6 21  1  0
  6 22  1  0
  8 23  1  0
  8 24  1  0
  8 25  1  0
  9 26  1  0
 10 27  1  0
 11 28  1  0
 12 29  1  0
 14 30  1  0
M  END
>  <filename_input>  (23) 
7QE4_NGA_docked.sdf

>  <pdb_id>  (23) 
7QE4_NGA

>  <pose_rank>  (23) 
22

>  <num_atoms_heavy>  (23) 
15

>  <num_torsions>  (23) 
2

>  <pose>  (23) 
[41.45411064718898, 19.87527364979322, 68.3486085945834, -0.3467857963651655, -1.5449423005177354, -2.082255869309598, -0.3218690113867323, -2.562805403835229]

>  <energy>  (23) 
-137.27445237896586

>  <inter_energy>  (23) 
-119.87621423363758

>  <intra_energy>  (23) 
0.09078709090084701

>  <rmsd>  (23) 
10.873

>  <sdf_rank>  (23) 
0

$$$$

     RDKit          3D

 30 30  0  0  0  0  0  0  0  0999 V2000
   41.3554   19.7952   68.9449 C   0  0  2  0  0  0  0  0  0  0  0  0
   40.6560   19.5757   70.2887 C   0  0  1  0  0  0  0  0  0  0  0  0
   39.7390   20.7537   70.6130 C   0  0  2  0  0  0  0  0  0  0  0  0
   40.5175   22.0531   70.5159 C   0  0  2  0  0  0  0  0  0  0  0  0
   41.1339   22.1110   69.1298 C   0  0  1  0  0  0  0  0  0  0  0  0
   41.8446   23.4322   68.8964 C   0  0  0  0  0  0  0  0  0  0  0  0
   40.1795   17.2797   70.9948 C   0  0  0  0  0  0  0  0  0  0  0  0
   39.2266   16.1319   70.8265 C   0  0  0  0  0  0  0  0  0  0  0  0
   39.8779   18.3530   70.2568 N   0  0  0  0  0  0  0  0  0  0  0  0
   42.2821   18.7498   68.6301 O   0  0  0  0  0  0  0  0  0  0  0  0
   39.2003   20.6514   71.9300 O   0  0  0  0  0  0  0  0  0  0  0  0
   41.4984   22.0712   71.5711 O   0  0  0  0  0  0  0  0  0  0  0  0
   42.0555   21.0341   68.9761 O   0  0  0  0  0  0  0  0  0  0  0  0
   40.9068   24.2793   68.2400 O   0  0  0  0  0  0  0  0  0  0  0  0
   41.1459   17.2150   71.7515 O   0  0  0  0  0  0  0  0  0  0  0  0
   40.5764   19.7988   68.1683 H   0  0  0  0  0  0  0  0  0  0  0  0
   41.4275   19.4950   71.0687 H   0  0  0  0  0  0  0  0  0  0  0  0
   38.9130   20.7389   69.8867 H   0  0  0  0  0  0  0  0  0  0  0  0
   39.8836   22.9428   70.6447 H   0  0  0  0  0  0  0  0  0  0  0  0
   40.3268   22.0236   68.3876 H   0  0  0  0  0  0  0  0  0  0  0  0
   42.1514   23.8745   69.8556 H   0  0  0  0  0  0  0  0  0  0  0  0
   42.7530   23.2963   68.2910 H   0  0  0  0  0  0  0  0  0  0  0  0
   38.9196   15.7621   71.8160 H   0  0  0  0  0  0  0  0  0  0  0  0
   38.3400   16.4700   70.2701 H   0  0  0  0  0  0  0  0  0  0  0  0
   39.7220   15.3225   70.2701 H   0  0  0  0  0  0  0  0  0  0  0  0
   39.0558   18.3091   69.6378 H   0  0  0  0  0  0  0  0  0  0  0  0
   42.6317   18.3553   69.4681 H   0  0  0  0  0  0  0  0  0  0  0  0
   39.9222   20.7886   72.5934 H   0  0  0  0  0  0  0  0  0  0  0  0
   41.0396   22.0627   72.4483 H   0  0  0  0  0  0  0  0  0  0  0  0
   40.3702   24.7640   68.9163 H   0  0  0  0  0  0  0  0  0  0  0  0
  1  2  1  0
  1 10  1  0
  1 13  1  0
  2  3  1  0
  2  9  1  0
  3  4  1  0
  3 11  1  0
  4  5  1  0
  4 12  1  0
  5  6  1  0
  5 13  1  0
  6 14  1  0
  7  8  1  0
  7  9  1  0
  7 15  2  0
  1 16  1  6
  2 17  1  1
  3 18  1  6
  4 19  1  1
  5 20  1  6
  6 21  1  0
  6 22  1  0
  8 23  1  0
  8 24  1  0
  8 25  1  0
  9 26  1  0
 10 27  1  0
 11 28  1  0
 12 29  1  0
 14 30  1  0
M  END
>  <filename_input>  (24) 
7QE4_NGA_docked.sdf

>  <pdb_id>  (24) 
7QE4_NGA

>  <pose_rank>  (24) 
23

>  <num_atoms_heavy>  (24) 
15

>  <num_torsions>  (24) 
2

>  <pose>  (24) 
[41.35541446354252, 19.79524224547676, 68.9449218019114, -0.08753447335014933, -1.2639322405188325, -2.210802073568157, -0.42826265757161586, -2.549098092740343]

>  <energy>  (24) 
-132.41611357176964

>  <inter_energy>  (24) 
-115.06824386061547

>  <intra_energy>  (24) 
0.36898127278991405

>  <rmsd>  (24) 
10.599

>  <sdf_rank>  (24) 
0

$$$$

     RDKit          3D

 30 30  0  0  0  0  0  0  0  0999 V2000
   41.3399   20.4114   68.6030 C   0  0  2  0  0  0  0  0  0  0  0  0
   40.7615   21.0145   69.8855 C   0  0  1  0  0  0  0  0  0  0  0  0
   39.9865   22.2935   69.5727 C   0  0  2  0  0  0  0  0  0  0  0  0
   40.8609   23.2415   68.7723 C   0  0  2  0  0  0  0  0  0  0  0  0
   41.3388   22.4903   67.5428 C   0  0  1  0  0  0  0  0  0  0  0  0
   42.1342   23.3943   66.6179 C   0  0  0  0  0  0  0  0  0  0  0  0
   40.0915   19.6086   71.7753 C   0  0  0  0  0  0  0  0  0  0  0  0
   39.0433   18.6508   72.2631 C   0  0  0  0  0  0  0  0  0  0  0  0
   39.8813   20.0638   70.5359 N   0  0  0  0  0  0  0  0  0  0  0  0
   42.1368   19.2481   68.8532 O   0  0  0  0  0  0  0  0  0  0  0  0
   39.5750   22.9613   70.7642 O   0  0  0  0  0  0  0  0  0  0  0  0
   41.9399   23.6832   69.6187 O   0  0  0  0  0  0  0  0  0  0  0  0
   42.1440   21.3851   67.9464 O   0  0  0  0  0  0  0  0  0  0  0  0
   41.2165   23.8698   65.6383 O   0  0  0  0  0  0  0  0  0  0  0  0
   41.0503   19.9314   72.4732 O   0  0  0  0  0  0  0  0  0  0  0  0
   40.4906   20.1077   67.9733 H   0  0  0  0  0  0  0  0  0  0  0  0
   41.5970   21.2558   70.5591 H   0  0  0  0  0  0  0  0  0  0  0  0
   39.0942   22.0064   68.9971 H   0  0  0  0  0  0  0  0  0  0  0  0
   40.3222   24.1395   68.4354 H   0  0  0  0  0  0  0  0  0  0  0  0
   40.4572   22.1314   66.9914 H   0  0  0  0  0  0  0  0  0  0  0  0
   42.5597   24.2371   67.1823 H   0  0  0  0  0  0  0  0  0  0  0  0
   42.9714   22.8534   66.1526 H   0  0  0  0  0  0  0  0  0  0  0  0
   39.0360   18.6442   73.3630 H   0  0  0  0  0  0  0  0  0  0  0  0
   38.0571   18.9663   71.8918 H   0  0  0  0  0  0  0  0  0  0  0  0
   39.2688   17.6403   71.8918 H   0  0  0  0  0  0  0  0  0  0  0  0
   39.0572   19.7238   70.0201 H   0  0  0  0  0  0  0  0  0  0  0  0
   42.2282   19.1147   69.8299 H   0  0  0  0  0  0  0  0  0  0  0  0
   39.8887   22.4522   71.5531 H   0  0  0  0  0  0  0  0  0  0  0  0
   41.6796   23.5766   70.5679 H   0  0  0  0  0  0  0  0  0  0  0  0
   40.4337   24.2753   66.0887 H   0  0  0  0  0  0  0  0  0  0  0  0
  1  2  1  0
  1 10  1  0
  1 13  1  0
  2  3  1  0
  2  9  1  0
  3  4  1  0
  3 11  1  0
  4  5  1  0
  4 12  1  0
  5  6  1  0
  5 13  1  0
  6 14  1  0
  7  8  1  0
  7  9  1  0
  7 15  2  0
  1 16  1  6
  2 17  1  1
  3 18  1  6
  4 19  1  6
  5 20  1  6
  6 21  1  0
  6 22  1  0
  8 23  1  0
  8 24  1  0
  8 25  1  0
  9 26  1  0
 10 27  1  0
 11 28  1  0
 12 29  1  0
 14 30  1  0
M  END
>  <filename_input>  (25) 
7QE4_NGA_docked.sdf

>  <pdb_id>  (25) 
7QE4_NGA

>  <pose_rank>  (25) 
24

>  <num_atoms_heavy>  (25) 
15

>  <num_torsions>  (25) 
2

>  <pose>  (25) 
[41.339871747538105, 20.411361396075563, 68.60295919206148, -0.45850868344388224, -1.830597389777399, -1.8618987665090185, -0.30535603186739896, -2.563639219041826]

>  <energy>  (25) 
-123.32093872378273

>  <inter_energy>  (25) 
-105.12505337791163

>  <intra_energy>  (25) 
0.1155702031039611

>  <rmsd>  (25) 
11.0801

>  <sdf_rank>  (25) 
0

$$$$

     RDKit          3D

 30 30  0  0  0  0  0  0  0  0999 V2000
   48.2920   19.1160   73.7620 C   0  0  2  0  0  0  0  0  0  0  0  0
   49.4160   19.8700   74.4770 C   0  0  1  0  0  0  0  0  0  0  0  0
   49.7470   19.1990   75.8090 C   0  0  2  0  0  0  0  0  0  0  0  0
   48.4810   19.0340   76.6300 C   0  0  2  0  0  0  0  0  0  0  0  0
   47.4850   18.2660   75.7800 C   0  0  1  0  0  0  0  0  0  0  0  0
   46.2200   17.9530   76.5590 C   0  0  0  0  0  0  0  0  0  0  0  0
   51.3600   21.0010   73.5080 C   0  0  0  0  0  0  0  0  0  0  0  0
   52.5570   20.8110   72.6220 C   0  0  0  0  0  0  0  0  0  0  0  0
   50.6040   19.9070   73.6470 N   0  0  0  0  0  0  0  0  0  0  0  0
   47.8960   19.7490   72.5400 O   0  0  0  0  0  0  0  0  0  0  0  0
   50.6760   19.9710   76.5680 O   0  0  0  0  0  0  0  0  0  0  0  0
   48.0120   20.3440   77.0040 O   0  0  0  0  0  0  0  0  0  0  0  0
   47.1610   19.0320   74.6220 O   0  0  0  0  0  0  0  0  0  0  0  0
   45.7820   19.1860   77.1210 O   0  0  0  0  0  0  0  0  0  0  0  0
   51.1170   22.0780   74.0480 O   0  0  0  0  0  0  0  0  0  0  0  0
   48.6767   18.1160   73.5130 H   0  0  0  0  0  0  0  0  0  0  0  0
   49.0736   20.8979   74.6673 H   0  0  0  0  0  0  0  0  0  0  0  0
   50.1956   18.2203   75.5833 H   0  0  0  0  0  0  0  0  0  0  0  0
   48.6440   18.4684   77.5593 H   0  0  0  0  0  0  0  0  0  0  0  0
   47.9457   17.3123   75.4828 H   0  0  0  0  0  0  0  0  0  0  0  0
   45.4500   17.5456   75.8874 H   0  0  0  0  0  0  0  0  0  0  0  0
   46.4068   17.2013   77.3401 H   0  0  0  0  0  0  0  0  0  0  0  0
   53.4538   20.6687   73.2428 H   0  0  0  0  0  0  0  0  0  0  0  0
   52.4063   19.9255   71.9870 H   0  0  0  0  0  0  0  0  0  0  0  0
   52.6879   21.6996   71.9870 H   0  0  0  0  0  0  0  0  0  0  0  0
   50.8779   19.0523   73.1417 H   0  0  0  0  0  0  0  0  0  0  0  0
   47.3823   20.5701   72.7451 H   0  0  0  0  0  0  0  0  0  0  0  0
   50.5090   19.8322   77.5339 H   0  0  0  0  0  0  0  0  0  0  0  0
   47.9863   20.4159   77.9910 H   0  0  0  0  0  0  0  0  0  0  0  0
   45.8038   19.1246   78.1089 H   0  0  0  0  0  0  0  0  0  0  0  0
  1  2  1  0
  1 10  1  0
  1 13  1  0
  2  3  1  0
  2  9  1  0
  3  4  1  0
  3 11  1  0
  4  5  1  0
  4 12  1  0
  5  6  1  0
  5 13  1  0
  6 14  1  0
  7  8  1  0
  7  9  1  0
  7 15  2  0
  1 16  1  6
  2 17  1  1
  3 18  1  6
  4 19  1  1
  5 20  1  6
  6 21  1  0
  6 22  1  0
  8 23  1  0
  8 24  1  0
  8 25  1  0
  9 26  1  0
 10 27  1  0
 11 28  1  0
 12 29  1  0
 14 30  1  0
M  END
>  <filename_input>  (26) 
7QE4_NGA_docked.sdf

>  <pdb_id>  (26) 
7QE4_NGA

>  <pose_rank>  (26) 
25

>  <num_atoms_heavy>  (26) 
15

>  <num_torsions>  (26) 
2

>  <pose>  (26) 
[48.292, 19.116, 73.762, 1e-06, 1e-06, 1e-06, 0.0, 0.0]

>  <energy>  (26) 
-404.4600593475463

>  <inter_energy>  (26) 
-430.9086725784533

>  <intra_energy>  (26) 
26.3862941833371

>  <rmsd>  (26) 
0.0

>  <sdf_rank>  (26) 
0

$$$$
