
     RDKit          3D

 47 49  0  0  0  0  0  0  0  0999 V2000
   -1.4993   -6.1488  -13.1015 N   0  0  0  0  0  0  0  0  0  0  0  0
   -1.7390   -6.7254  -14.2995 C   0  0  0  0  0  0  0  0  0  0  0  0
   -2.7594   -7.4877  -14.4744 O   0  0  0  0  0  0  0  0  0  0  0  0
   -0.8632   -6.5756  -15.3465 N   0  0  0  0  0  0  0  0  0  0  0  0
    0.3052   -5.8222  -15.2786 C   0  0  0  0  0  0  0  0  0  0  0  0
    1.0635   -5.8125  -16.2331 O   0  0  0  0  0  0  0  0  0  0  0  0
    0.5175   -5.1415  -14.0329 C   0  0  0  0  0  0  0  0  0  0  0  0
    1.6038   -4.3662  -13.9141 N   0  0  0  0  0  0  0  0  0  0  0  0
    1.7875   -3.7817  -12.6910 C   0  0  0  0  0  0  0  0  0  0  0  0
    2.9317   -2.9550  -12.5014 C   0  0  0  0  0  0  0  0  0  0  0  0
    3.2113   -2.3482  -11.3035 C   0  0  0  0  0  0  0  0  0  0  0  0
    4.4675   -1.5301  -11.1298 C   0  0  0  0  0  0  0  0  0  0  0  0
    2.3185   -2.4920  -10.2404 C   0  0  0  0  0  0  0  0  0  0  0  0
    2.5471   -1.8609   -8.8946 C   0  0  0  0  0  0  0  0  0  0  0  0
    1.2044   -3.3314  -10.3821 C   0  0  0  0  0  0  0  0  0  0  0  0
    0.9259   -3.9603  -11.5919 C   0  0  0  0  0  0  0  0  0  0  0  0
   -0.1783   -4.7908  -11.7716 N   0  0  0  0  0  0  0  0  0  0  0  0
   -0.4050   -5.3705  -13.0006 C   0  0  0  0  0  0  0  0  0  0  0  0
   -1.0443   -5.1313  -10.6340 C   0  0  0  0  0  0  0  0  0  0  0  0
   -2.3475   -4.3929  -10.5541 C   0  0  2  0  0  0  0  0  0  0  0  0
   -2.0312   -3.0144  -10.6524 O   0  0  0  0  0  0  0  0  0  0  0  0
   -3.0805   -4.6789   -9.2457 C   0  0  2  0  0  0  0  0  0  0  0  0
   -2.3291   -4.1840   -8.1683 O   0  0  0  0  0  0  0  0  0  0  0  0
   -3.3985   -6.1597   -9.0096 C   0  0  2  0  0  0  0  0  0  0  0  0
   -4.4395   -6.5998   -9.8757 O   0  0  0  0  0  0  0  0  0  0  0  0
   -3.7453   -6.4703   -7.5758 C   0  0  0  0  0  0  0  0  0  0  0  0
   -5.1420   -6.0250   -7.3225 O   0  0  0  0  0  0  0  0  0  0  0  0
   -1.0839   -7.0487  -16.2344 H   0  0  0  0  0  0  0  0  0  0  0  0
    3.6169   -2.7972  -13.3473 H   0  0  0  0  0  0  0  0  0  0  0  0
    4.6727   -1.3964  -10.0574 H   0  0  0  0  0  0  0  0  0  0  0  0
    5.3128   -2.0514  -11.6027 H   0  0  0  0  0  0  0  0  0  0  0  0
    4.3326   -0.5461  -11.6027 H   0  0  0  0  0  0  0  0  0  0  0  0
    2.2867   -2.5796   -8.1036 H   0  0  0  0  0  0  0  0  0  0  0  0
    3.6053   -1.5766   -8.7979 H   0  0  0  0  0  0  0  0  0  0  0  0
    1.9164   -0.9649   -8.7979 H   0  0  0  0  0  0  0  0  0  0  0  0
    0.5388   -3.4958   -9.5218 H   0  0  0  0  0  0  0  0  0  0  0  0
   -1.2700   -6.2063  -10.6930 H   0  0  0  0  0  0  0  0  0  0  0  0
   -0.4820   -4.8375   -9.7354 H   0  0  0  0  0  0  0  0  0  0  0  0
   -3.0207   -4.7149  -11.3622 H   0  0  0  0  0  0  0  0  0  0  0  0
   -1.9431   -2.6304   -9.7442 H   0  0  0  0  0  0  0  0  0  0  0  0
   -4.0511   -4.1670   -9.3234 H   0  0  0  0  0  0  0  0  0  0  0  0
   -2.7507   -4.4617   -7.3167 H   0  0  0  0  0  0  0  0  0  0  0  0
   -2.4756   -6.7118   -9.2408 H   0  0  0  0  0  0  0  0  0  0  0  0
   -5.2036   -6.9229   -9.3355 H   0  0  0  0  0  0  0  0  0  0  0  0
   -3.6631   -7.5530   -7.4000 H   0  0  0  0  0  0  0  0  0  0  0  0
   -3.0538   -5.9478   -6.8984 H   0  0  0  0  0  0  0  0  0  0  0  0
   -5.3004   -5.9746   -6.3465 H   0  0  0  0  0  0  0  0  0  0  0  0
  1  2  1  0
  1 18  2  0
  2  3  2  0
  2  4  1  0
  4  5  1  0
  5  6  2  0
  5  7  1  0
  7  8  2  0
  7 18  1  0
  8  9  1  0
  9 10  1  0
  9 16  2  0
 10 11  2  0
 11 12  1  0
 11 13  1  0
 13 14  1  0
 13 15  2  0
 15 16  1  0
 16 17  1  0
 17 18  1  0
 17 19  1  0
 19 20  1  0
 20 21  1  0
 20 22  1  0
 22 23  1  0
 22 24  1  0
 24 25  1  0
 24 26  1  0
 26 27  1  0
  4 28  1  0
 10 29  1  0
 12 30  1  0
 12 31  1  0
 12 32  1  0
 14 33  1  0
 14 34  1  0
 14 35  1  0
 15 36  1  0
 19 37  1  0
 19 38  1  0
 20 39  1  6
 21 40  1  0
 22 41  1  6
 23 42  1  0
 24 43  1  6
 25 44  1  0
 26 45  1  0
 26 46  1  0
 27 47  1  0
M  END
>  <filename_input>  (1) 
7QF4_RBF_docked.sdf

>  <pdb_id>  (1) 
7QF4_RBF

>  <pose_rank>  (1) 
0

>  <num_atoms_heavy>  (1) 
27

>  <num_torsions>  (1) 
5

>  <pose>  (1) 
[-1.499277547290395, -6.148774777370771, -13.101465589602459, 4.1260755363009665, -0.8196394819107413, -4.660632779849384, -6.111770530420085, -6.467363242024254, 0.13019221803582182, -0.3434339559860081, 6.520460101419814]

>  <energy>  (1) 
-1084.0087538498315

>  <inter_energy>  (1) 
-1085.9490649798458

>  <intra_energy>  (1) 
14.725887647131474

>  <rmsd>  (1) 
0.338624

>  <sdf_rank>  (1) 
0

$$$$

     RDKit          3D

 47 49  0  0  0  0  0  0  0  0999 V2000
   -1.5251   -6.3458  -13.0543 N   0  0  0  0  0  0  0  0  0  0  0  0
   -1.7587   -6.8789  -14.2735 C   0  0  0  0  0  0  0  0  0  0  0  0
   -2.7551   -7.6670  -14.4709 O   0  0  0  0  0  0  0  0  0  0  0  0
   -0.9000   -6.6556  -15.3215 N   0  0  0  0  0  0  0  0  0  0  0  0
    0.2434   -5.8668  -15.2329 C   0  0  0  0  0  0  0  0  0  0  0  0
    0.9904   -5.7913  -16.1934 O   0  0  0  0  0  0  0  0  0  0  0  0
    0.4468   -5.2327  -13.9613 C   0  0  0  0  0  0  0  0  0  0  0  0
    1.5080   -4.4270  -13.8200 N   0  0  0  0  0  0  0  0  0  0  0  0
    1.6857   -3.8889  -12.5750 C   0  0  0  0  0  0  0  0  0  0  0  0
    2.8038   -3.0330  -12.3612 C   0  0  0  0  0  0  0  0  0  0  0  0
    3.0764   -2.4683  -11.1413 C   0  0  0  0  0  0  0  0  0  0  0  0
    4.3065   -1.6166  -10.9451 C   0  0  0  0  0  0  0  0  0  0  0  0
    2.2006   -2.6870  -10.0768 C   0  0  0  0  0  0  0  0  0  0  0  0
    2.4230   -2.1061   -8.7075 C   0  0  0  0  0  0  0  0  0  0  0  0
    1.1135   -3.5567  -10.2434 C   0  0  0  0  0  0  0  0  0  0  0  0
    0.8427   -4.1428  -11.4762 C   0  0  0  0  0  0  0  0  0  0  0  0
   -0.2352   -5.0016  -11.6805 N   0  0  0  0  0  0  0  0  0  0  0  0
   -0.4562   -5.5361  -12.9309 C   0  0  0  0  0  0  0  0  0  0  0  0
   -1.0769   -5.4189  -10.5501 C   0  0  0  0  0  0  0  0  0  0  0  0
   -2.3270   -4.6199  -10.3296 C   0  0  2  0  0  0  0  0  0  0  0  0
   -1.9543   -3.5085   -9.5323 O   0  0  0  0  0  0  0  0  0  0  0  0
   -3.4064   -5.4404   -9.6279 C   0  0  2  0  0  0  0  0  0  0  0  0
   -4.6283   -5.2822  -10.3005 O   0  0  0  0  0  0  0  0  0  0  0  0
   -3.5925   -5.1036   -8.1441 C   0  0  2  0  0  0  0  0  0  0  0  0
   -2.5412   -5.6600   -7.3615 O   0  0  0  0  0  0  0  0  0  0  0  0
   -4.9317   -5.5339   -7.6019 C   0  0  0  0  0  0  0  0  0  0  0  0
   -5.1656   -4.8296   -6.3125 O   0  0  0  0  0  0  0  0  0  0  0  0
   -1.1147   -7.0978  -16.2267 H   0  0  0  0  0  0  0  0  0  0  0  0
    3.4740   -2.8166  -13.2063 H   0  0  0  0  0  0  0  0  0  0  0  0
    4.4946   -1.4864   -9.8691 H   0  0  0  0  0  0  0  0  0  0  0  0
    5.1722   -2.1097  -11.4115 H   0  0  0  0  0  0  0  0  0  0  0  0
    4.1496   -0.6328  -11.4115 H   0  0  0  0  0  0  0  0  0  0  0  0
    2.1397   -2.8463   -7.9448 H   0  0  0  0  0  0  0  0  0  0  0  0
    3.4848   -1.8447   -8.5882 H   0  0  0  0  0  0  0  0  0  0  0  0
    1.8073   -1.2024   -8.5882 H   0  0  0  0  0  0  0  0  0  0  0  0
    0.4634   -3.7796   -9.3846 H   0  0  0  0  0  0  0  0  0  0  0  0
   -1.3718   -6.4652  -10.7186 H   0  0  0  0  0  0  0  0  0  0  0  0
   -0.4632   -5.2628   -9.6507 H   0  0  0  0  0  0  0  0  0  0  0  0
   -2.7554   -4.3049  -11.2925 H   0  0  0  0  0  0  0  0  0  0  0  0
   -2.0344   -3.7475   -8.5749 H   0  0  0  0  0  0  0  0  0  0  0  0
   -3.0644   -6.4853   -9.6630 H   0  0  0  0  0  0  0  0  0  0  0  0
   -5.3591   -5.1876   -9.6394 H   0  0  0  0  0  0  0  0  0  0  0  0
   -3.5574   -4.0065   -8.0724 H   0  0  0  0  0  0  0  0  0  0  0  0
   -2.7510   -5.5490   -6.4003 H   0  0  0  0  0  0  0  0  0  0  0  0
   -5.7242   -5.2706   -8.3179 H   0  0  0  0  0  0  0  0  0  0  0  0
   -4.9433   -6.6226   -7.4449 H   0  0  0  0  0  0  0  0  0  0  0  0
   -4.9625   -5.4411   -5.5609 H   0  0  0  0  0  0  0  0  0  0  0  0
  1  2  1  0
  1 18  2  0
  2  3  2  0
  2  4  1  0
  4  5  1  0
  5  6  2  0
  5  7  1  0
  7  8  2  0
  7 18  1  0
  8  9  1  0
  9 10  1  0
  9 16  2  0
 10 11  2  0
 11 12  1  0
 11 13  1  0
 13 14  1  0
 13 15  2  0
 15 16  1  0
 16 17  1  0
 17 18  1  0
 17 19  1  0
 19 20  1  0
 20 21  1  0
 20 22  1  0
 22 23  1  0
 22 24  1  0
 24 25  1  0
 24 26  1  0
 26 27  1  0
  4 28  1  0
 10 29  1  0
 12 30  1  0
 12 31  1  0
 12 32  1  0
 14 33  1  0
 14 34  1  0
 14 35  1  0
 15 36  1  0
 19 37  1  0
 19 38  1  0
 20 39  1  6
 21 40  1  0
 22 41  1  1
 23 42  1  0
 24 43  1  6
 25 44  1  0
 26 45  1  0
 26 46  1  0
 27 47  1  0
M  END
>  <filename_input>  (2) 
7QF4_RBF_docked.sdf

>  <pdb_id>  (2) 
7QF4_RBF

>  <pose_rank>  (2) 
1

>  <num_atoms_heavy>  (2) 
27

>  <num_torsions>  (2) 
5

>  <pose>  (2) 
[-1.525056381394861, -6.345761052978722, -13.054294407994163, -4.445907709092238, -1.227401857457674, -4.185228755502138, 0.049538613888083054, -0.7775804724051243, 2.9727406156387906, -0.4081160007056578, -3.9701246704079223]

>  <energy>  (2) 
-1036.186572301491

>  <inter_energy>  (2) 
-1049.9113872337507

>  <intra_energy>  (2) 
14.755468711655046

>  <rmsd>  (2) 
1.04152

>  <sdf_rank>  (2) 
0

$$$$

     RDKit          3D

 47 49  0  0  0  0  0  0  0  0999 V2000
   -1.6962   -6.0707  -13.4561 N   0  0  0  0  0  0  0  0  0  0  0  0
   -1.8876   -6.7164  -14.6273 C   0  0  0  0  0  0  0  0  0  0  0  0
   -2.9351   -7.4355  -14.8227 O   0  0  0  0  0  0  0  0  0  0  0  0
   -0.9370   -6.6851  -15.6179 N   0  0  0  0  0  0  0  0  0  0  0  0
    0.2646   -5.9897  -15.5180 C   0  0  0  0  0  0  0  0  0  0  0  0
    1.0841   -6.0855  -16.4155 O   0  0  0  0  0  0  0  0  0  0  0  0
    0.4314   -5.2357  -14.3081 C   0  0  0  0  0  0  0  0  0  0  0  0
    1.5491   -4.5108  -14.1647 N   0  0  0  0  0  0  0  0  0  0  0  0
    1.6834   -3.8526  -12.9731 C   0  0  0  0  0  0  0  0  0  0  0  0
    2.8569   -3.0745  -12.7586 C   0  0  0  0  0  0  0  0  0  0  0  0
    3.0897   -2.4009  -11.5867 C   0  0  0  0  0  0  0  0  0  0  0  0
    4.3754   -1.6383  -11.3797 C   0  0  0  0  0  0  0  0  0  0  0  0
    2.1215   -2.4242  -10.5818 C   0  0  0  0  0  0  0  0  0  0  0  0
    2.2950   -1.7135   -9.2678 C   0  0  0  0  0  0  0  0  0  0  0  0
    0.9740   -3.2132  -10.7455 C   0  0  0  0  0  0  0  0  0  0  0  0
    0.7418   -3.9097  -11.9278 C   0  0  0  0  0  0  0  0  0  0  0  0
   -0.3927   -4.6930  -12.1293 N   0  0  0  0  0  0  0  0  0  0  0  0
   -0.5692   -5.3445  -13.3303 C   0  0  0  0  0  0  0  0  0  0  0  0
   -1.3502   -4.9084  -11.0353 C   0  0  0  0  0  0  0  0  0  0  0  0
   -0.9927   -5.9801  -10.0486 C   0  0  2  0  0  0  0  0  0  0  0  0
   -0.3597   -7.0094  -10.7900 O   0  0  0  0  0  0  0  0  0  0  0  0
   -2.2262   -6.5225   -9.3307 C   0  0  2  0  0  0  0  0  0  0  0  0
   -2.8188   -7.5285  -10.1099 O   0  0  0  0  0  0  0  0  0  0  0  0
   -3.2751   -5.4595   -8.9848 C   0  0  2  0  0  0  0  0  0  0  0  0
   -2.8640   -4.6873   -7.8613 O   0  0  0  0  0  0  0  0  0  0  0  0
   -4.6478   -6.0359   -8.7486 C   0  0  0  0  0  0  0  0  0  0  0  0
   -4.9892   -5.8643   -7.3109 O   0  0  0  0  0  0  0  0  0  0  0  0
   -1.1243   -7.2069  -16.4859 H   0  0  0  0  0  0  0  0  0  0  0  0
    3.6046   -3.0115  -13.5629 H   0  0  0  0  0  0  0  0  0  0  0  0
    4.5654   -1.5256  -10.3021 H   0  0  0  0  0  0  0  0  0  0  0  0
    5.2071   -2.1892  -11.8430 H   0  0  0  0  0  0  0  0  0  0  0  0
    4.2907   -0.6442  -11.8430 H   0  0  0  0  0  0  0  0  0  0  0  0
    2.1224   -2.4204   -8.4429 H   0  0  0  0  0  0  0  0  0  0  0  0
    3.3172   -1.3130   -9.1997 H   0  0  0  0  0  0  0  0  0  0  0  0
    1.5722   -0.8871   -9.1997 H   0  0  0  0  0  0  0  0  0  0  0  0
    0.2445   -3.2829   -9.9252 H   0  0  0  0  0  0  0  0  0  0  0  0
   -1.4485   -3.9622  -10.4831 H   0  0  0  0  0  0  0  0  0  0  0  0
   -2.2790   -5.2477  -11.5173 H   0  0  0  0  0  0  0  0  0  0  0  0
   -0.3327   -5.5765   -9.2667 H   0  0  0  0  0  0  0  0  0  0  0  0
    0.0433   -7.6648  -10.1669 H   0  0  0  0  0  0  0  0  0  0  0  0
   -1.8676   -6.9212   -8.3703 H   0  0  0  0  0  0  0  0  0  0  0  0
   -3.2211   -8.2114   -9.5167 H   0  0  0  0  0  0  0  0  0  0  0  0
   -3.3514   -4.8062   -9.8665 H   0  0  0  0  0  0  0  0  0  0  0  0
   -3.1148   -5.1585   -7.0276 H   0  0  0  0  0  0  0  0  0  0  0  0
   -5.3848   -5.5071   -9.3709 H   0  0  0  0  0  0  0  0  0  0  0  0
   -4.6600   -7.1032   -9.0147 H   0  0  0  0  0  0  0  0  0  0  0  0
   -4.2590   -6.2314   -6.7522 H   0  0  0  0  0  0  0  0  0  0  0  0
  1  2  1  0
  1 18  2  0
  2  3  2  0
  2  4  1  0
  4  5  1  0
  5  6  2  0
  5  7  1  0
  7  8  2  0
  7 18  1  0
  8  9  1  0
  9 10  1  0
  9 16  2  0
 10 11  2  0
 11 12  1  0
 11 13  1  0
 13 14  1  0
 13 15  2  0
 15 16  1  0
 16 17  1  0
 17 18  1  0
 17 19  1  0
 19 20  1  0
 20 21  1  0
 20 22  1  0
 22 23  1  0
 22 24  1  0
 24 25  1  0
 24 26  1  0
 26 27  1  0
  4 28  1  0
 10 29  1  0
 12 30  1  0
 12 31  1  0
 12 32  1  0
 14 33  1  0
 14 34  1  0
 14 35  1  0
 15 36  1  0
 19 37  1  0
 19 38  1  0
 20 39  1  1
 21 40  1  0
 22 41  1  1
 23 42  1  0
 24 43  1  6
 25 44  1  0
 26 45  1  0
 26 46  1  0
 27 47  1  0
M  END
>  <filename_input>  (3) 
7QF4_RBF_docked.sdf

>  <pdb_id>  (3) 
7QF4_RBF

>  <pose_rank>  (3) 
2

>  <num_atoms_heavy>  (3) 
27

>  <num_torsions>  (3) 
5

>  <pose>  (3) 
[-1.6961988934730243, -6.070696573315584, -13.45608476117177, 3.984054094371374, 3.783394873906077, 2.8135972422685414, 9.521628584103567, 6.373058048784857, 6.766827550057718, -0.413576534733743, 0.8487811808103969]

>  <energy>  (3) 
-1027.207502832021

>  <inter_energy>  (3) 
-1043.3109802125641

>  <intra_energy>  (3) 
18.84567623129398

>  <rmsd>  (3) 
1.45799

>  <sdf_rank>  (3) 
0

$$$$

     RDKit          3D

 47 49  0  0  0  0  0  0  0  0999 V2000
   -1.6881   -6.0905  -13.4260 N   0  0  0  0  0  0  0  0  0  0  0  0
   -1.8688   -6.6977  -14.6192 C   0  0  0  0  0  0  0  0  0  0  0  0
   -2.9075   -7.4215  -14.8426 O   0  0  0  0  0  0  0  0  0  0  0  0
   -0.9159   -6.6217  -15.6051 N   0  0  0  0  0  0  0  0  0  0  0  0
    0.2775   -5.9168  -15.4776 C   0  0  0  0  0  0  0  0  0  0  0  0
    1.1006   -5.9725  -16.3752 O   0  0  0  0  0  0  0  0  0  0  0  0
    0.4323   -5.2028  -14.2421 C   0  0  0  0  0  0  0  0  0  0  0  0
    1.5412   -4.4708  -14.0703 N   0  0  0  0  0  0  0  0  0  0  0  0
    1.6647   -3.8524  -12.8564 C   0  0  0  0  0  0  0  0  0  0  0  0
    2.8287   -3.0690  -12.6116 C   0  0  0  0  0  0  0  0  0  0  0  0
    3.0505   -2.4334  -11.4165 C   0  0  0  0  0  0  0  0  0  0  0  0
    4.3269   -1.6639  -11.1794 C   0  0  0  0  0  0  0  0  0  0  0  0
    2.0798   -2.5021  -10.4161 C   0  0  0  0  0  0  0  0  0  0  0  0
    2.2415   -1.8349   -9.0780 C   0  0  0  0  0  0  0  0  0  0  0  0
    0.9419   -3.2978  -10.6105 C   0  0  0  0  0  0  0  0  0  0  0  0
    0.7210   -3.9559  -11.8167 C   0  0  0  0  0  0  0  0  0  0  0  0
   -0.4040   -4.7445  -12.0486 N   0  0  0  0  0  0  0  0  0  0  0  0
   -0.5697   -5.3564  -13.2717 C   0  0  0  0  0  0  0  0  0  0  0  0
   -1.3621   -5.0082  -10.9657 C   0  0  0  0  0  0  0  0  0  0  0  0
   -1.0122   -6.1319  -10.0357 C   0  0  2  0  0  0  0  0  0  0  0  0
   -0.3226   -7.0944  -10.8153 O   0  0  0  0  0  0  0  0  0  0  0  0
   -2.2562   -6.7511   -9.4034 C   0  0  2  0  0  0  0  0  0  0  0  0
   -3.1606   -7.1216  -10.4111 O   0  0  0  0  0  0  0  0  0  0  0  0
   -2.9651   -5.8487   -8.3871 C   0  0  2  0  0  0  0  0  0  0  0  0
   -4.1074   -5.2287   -8.9687 O   0  0  0  0  0  0  0  0  0  0  0  0
   -2.0566   -4.8083   -7.7831 C   0  0  0  0  0  0  0  0  0  0  0  0
   -2.4863   -3.4693   -8.2687 O   0  0  0  0  0  0  0  0  0  0  0  0
   -1.0948   -7.1155  -16.4911 H   0  0  0  0  0  0  0  0  0  0  0  0
    3.5779   -2.9700  -13.4109 H   0  0  0  0  0  0  0  0  0  0  0  0
    4.4974   -1.5611  -10.0975 H   0  0  0  0  0  0  0  0  0  0  0  0
    5.1705   -2.2040  -11.6339 H   0  0  0  0  0  0  0  0  0  0  0  0
    4.2431   -0.6657  -11.6339 H   0  0  0  0  0  0  0  0  0  0  0  0
    2.0636   -2.5690   -8.2783 H   0  0  0  0  0  0  0  0  0  0  0  0
    3.2625   -1.4354   -8.9884 H   0  0  0  0  0  0  0  0  0  0  0  0
    1.5168   -1.0123   -8.9884 H   0  0  0  0  0  0  0  0  0  0  0  0
    0.2109   -3.4038   -9.7954 H   0  0  0  0  0  0  0  0  0  0  0  0
   -1.4523   -4.0907  -10.3656 H   0  0  0  0  0  0  0  0  0  0  0  0
   -2.2941   -5.3149  -11.4631 H   0  0  0  0  0  0  0  0  0  0  0  0
   -0.3941   -5.7627   -9.2040 H   0  0  0  0  0  0  0  0  0  0  0  0
    0.1369   -7.7356  -10.2171 H   0  0  0  0  0  0  0  0  0  0  0  0
   -1.9057   -7.6285   -8.8400 H   0  0  0  0  0  0  0  0  0  0  0  0
   -3.9932   -7.4627   -9.9982 H   0  0  0  0  0  0  0  0  0  0  0  0
   -3.2869   -6.5060   -7.5659 H   0  0  0  0  0  0  0  0  0  0  0  0
   -4.7072   -4.9032   -8.2514 H   0  0  0  0  0  0  0  0  0  0  0  0
   -2.1272   -4.8456   -6.6860 H   0  0  0  0  0  0  0  0  0  0  0  0
   -1.0144   -5.0002   -8.0779 H   0  0  0  0  0  0  0  0  0  0  0  0
   -2.6747   -2.8822   -7.4942 H   0  0  0  0  0  0  0  0  0  0  0  0
  1  2  1  0
  1 18  2  0
  2  3  2  0
  2  4  1  0
  4  5  1  0
  5  6  2  0
  5  7  1  0
  7  8  2  0
  7 18  1  0
  8  9  1  0
  9 10  1  0
  9 16  2  0
 10 11  2  0
 11 12  1  0
 11 13  1  0
 13 14  1  0
 13 15  2  0
 15 16  1  0
 16 17  1  0
 17 18  1  0
 17 19  1  0
 19 20  1  0
 20 21  1  0
 20 22  1  0
 22 23  1  0
 22 24  1  0
 24 25  1  0
 24 26  1  0
 26 27  1  0
  4 28  1  0
 10 29  1  0
 12 30  1  0
 12 31  1  0
 12 32  1  0
 14 33  1  0
 14 34  1  0
 14 35  1  0
 15 36  1  0
 19 37  1  0
 19 38  1  0
 20 39  1  1
 21 40  1  0
 22 41  1  1
 23 42  1  0
 24 43  1  1
 25 44  1  0
 26 45  1  0
 26 46  1  0
 27 47  1  0
M  END
>  <filename_input>  (4) 
7QF4_RBF_docked.sdf

>  <pdb_id>  (4) 
7QF4_RBF

>  <pose_rank>  (4) 
3

>  <num_atoms_heavy>  (4) 
27

>  <num_torsions>  (4) 
5

>  <pose>  (4) 
[-1.6880661964630066, -6.090501516913365, -13.425957930430632, 2.5476258426397034, 4.8971467799648805, 2.8103524733391296, 15.778766030739618, 0.14475259803452228, -0.06599648683362529, 2.6785510803990795, -5.444428004120428]

>  <energy>  (4) 
-990.9388270896499

>  <inter_energy>  (4) 
-1029.6804442691634

>  <intra_energy>  (4) 
32.56453498414418

>  <rmsd>  (4) 
1.56516

>  <sdf_rank>  (4) 
0

$$$$

     RDKit          3D

 47 49  0  0  0  0  0  0  0  0999 V2000
    0.2219   -5.0444  -14.2545 N   0  0  0  0  0  0  0  0  0  0  0  0
    0.1234   -5.6274  -15.4692 C   0  0  0  0  0  0  0  0  0  0  0  0
    0.8609   -5.2427  -16.4494 O   0  0  0  0  0  0  0  0  0  0  0  0
   -0.8164   -6.5979  -15.7158 N   0  0  0  0  0  0  0  0  0  0  0  0
   -1.7122   -7.0705  -14.7611 C   0  0  0  0  0  0  0  0  0  0  0  0
   -2.5656   -7.8756  -15.0926 O   0  0  0  0  0  0  0  0  0  0  0  0
   -1.5524   -6.5115  -13.4488 C   0  0  0  0  0  0  0  0  0  0  0  0
   -2.3570   -6.9523  -12.4723 N   0  0  0  0  0  0  0  0  0  0  0  0
   -2.1994   -6.3510  -11.2537 C   0  0  0  0  0  0  0  0  0  0  0  0
   -3.0350   -6.7705  -10.1793 C   0  0  0  0  0  0  0  0  0  0  0  0
   -2.9661   -6.2082   -8.9301 C   0  0  0  0  0  0  0  0  0  0  0  0
   -3.9129   -6.6416   -7.8378 C   0  0  0  0  0  0  0  0  0  0  0  0
   -2.0063   -5.2277   -8.6747 C   0  0  0  0  0  0  0  0  0  0  0  0
   -1.8614   -4.5602   -7.3348 C   0  0  0  0  0  0  0  0  0  0  0  0
   -1.1961   -4.7642   -9.7209 C   0  0  0  0  0  0  0  0  0  0  0  0
   -1.2737   -5.3226  -10.9933 C   0  0  0  0  0  0  0  0  0  0  0  0
   -0.4758   -4.8952  -12.0525 N   0  0  0  0  0  0  0  0  0  0  0  0
   -0.5920   -5.5017  -13.2841 C   0  0  0  0  0  0  0  0  0  0  0  0
    0.4152   -3.7376  -11.8910 C   0  0  0  0  0  0  0  0  0  0  0  0
    0.3569   -3.0417  -10.5636 C   0  0  2  0  0  0  0  0  0  0  0  0
    0.3687   -1.6516  -10.8414 O   0  0  0  0  0  0  0  0  0  0  0  0
    1.5407   -3.4172   -9.6755 C   0  0  2  0  0  0  0  0  0  0  0  0
    1.5480   -2.6017   -8.5329 O   0  0  0  0  0  0  0  0  0  0  0  0
    2.9042   -3.3349  -10.3709 C   0  0  2  0  0  0  0  0  0  0  0  0
    3.9311   -3.8650   -9.5392 O   0  0  0  0  0  0  0  0  0  0  0  0
    3.2600   -1.9388  -10.8148 C   0  0  0  0  0  0  0  0  0  0  0  0
    3.4149   -1.9406  -12.2944 O   0  0  0  0  0  0  0  0  0  0  0  0
   -0.8610   -6.9997  -16.6632 H   0  0  0  0  0  0  0  0  0  0  0  0
   -3.7629   -7.5756  -10.3580 H   0  0  0  0  0  0  0  0  0  0  0  0
   -3.4604   -6.4344   -6.8568 H   0  0  0  0  0  0  0  0  0  0  0  0
   -4.8581   -6.0865   -7.9302 H   0  0  0  0  0  0  0  0  0  0  0  0
   -4.1104   -7.7198   -7.9302 H   0  0  0  0  0  0  0  0  0  0  0  0
   -2.0221   -5.3004   -6.5371 H   0  0  0  0  0  0  0  0  0  0  0  0
   -0.8504   -4.1365   -7.2436 H   0  0  0  0  0  0  0  0  0  0  0  0
   -2.6059   -3.7555   -7.2436 H   0  0  0  0  0  0  0  0  0  0  0  0
   -0.4867   -3.9449   -9.5327 H   0  0  0  0  0  0  0  0  0  0  0  0
    1.4480   -4.0842  -12.0440 H   0  0  0  0  0  0  0  0  0  0  0  0
    0.0745   -2.9965  -12.6290 H   0  0  0  0  0  0  0  0  0  0  0  0
   -0.5482   -3.3395  -10.0141 H   0  0  0  0  0  0  0  0  0  0  0  0
    0.3730   -1.1451   -9.9908 H   0  0  0  0  0  0  0  0  0  0  0  0
    1.3971   -4.4748   -9.4095 H   0  0  0  0  0  0  0  0  0  0  0  0
    1.5429   -3.1697   -7.7221 H   0  0  0  0  0  0  0  0  0  0  0  0
    2.8214   -3.9471  -11.2810 H   0  0  0  0  0  0  0  0  0  0  0  0
    3.6847   -3.7378   -8.5888 H   0  0  0  0  0  0  0  0  0  0  0  0
    2.4594   -1.2420  -10.5261 H   0  0  0  0  0  0  0  0  0  0  0  0
    4.1978   -1.6184  -10.3375 H   0  0  0  0  0  0  0  0  0  0  0  0
    4.3775   -1.9520  -12.5254 H   0  0  0  0  0  0  0  0  0  0  0  0
  1  2  1  0
  1 18  2  0
  2  3  2  0
  2  4  1  0
  4  5  1  0
  5  6  2  0
  5  7  1  0
  7  8  2  0
  7 18  1  0
  8  9  1  0
  9 10  1  0
  9 16  2  0
 10 11  2  0
 11 12  1  0
 11 13  1  0
 13 14  1  0
 13 15  2  0
 15 16  1  0
 16 17  1  0
 17 18  1  0
 17 19  1  0
 19 20  1  0
 20 21  1  0
 20 22  1  0
 22 23  1  0
 22 24  1  0
 24 25  1  0
 24 26  1  0
 26 27  1  0
  4 28  1  0
 10 29  1  0
 12 30  1  0
 12 31  1  0
 12 32  1  0
 14 33  1  0
 14 34  1  0
 14 35  1  0
 15 36  1  0
 19 37  1  0
 19 38  1  0
 20 39  1  1
 21 40  1  0
 22 41  1  1
 23 42  1  0
 24 43  1  6
 25 44  1  0
 26 45  1  0
 26 46  1  0
 27 47  1  0
M  END
>  <filename_input>  (5) 
7QF4_RBF_docked.sdf

>  <pdb_id>  (5) 
7QF4_RBF

>  <pose_rank>  (5) 
4

>  <num_atoms_heavy>  (5) 
27

>  <num_torsions>  (5) 
5

>  <pose>  (5) 
[0.22193163325982695, -5.044354637476814, -14.254466845950631, -0.37182228992934824, -1.2769417012105901, -2.634869833679987, -1.6581554473559574, -1.6753233855205143, 1.9950383629641772, -2.0900957909617497, -3.183253187064862]

>  <energy>  (5) 
-888.5900726959319

>  <inter_energy>  (5) 
-977.1311479878632

>  <intra_energy>  (5) 
87.74486694775462

>  <rmsd>  (5) 
5.34724

>  <sdf_rank>  (5) 
0

$$$$

     RDKit          3D

 47 49  0  0  0  0  0  0  0  0999 V2000
    0.4961   -5.4018  -14.1783 N   0  0  0  0  0  0  0  0  0  0  0  0
    0.2769   -5.9396  -15.3981 C   0  0  0  0  0  0  0  0  0  0  0  0
    1.0885   -5.7242  -16.3716 O   0  0  0  0  0  0  0  0  0  0  0  0
   -0.8554   -6.6722  -15.6570 N   0  0  0  0  0  0  0  0  0  0  0  0
   -1.8408   -6.9375  -14.7105 C   0  0  0  0  0  0  0  0  0  0  0  0
   -2.8511   -7.5278  -15.0525 O   0  0  0  0  0  0  0  0  0  0  0  0
   -1.5680   -6.4375  -13.3930 C   0  0  0  0  0  0  0  0  0  0  0  0
   -2.4575   -6.6925  -12.4240 N   0  0  0  0  0  0  0  0  0  0  0  0
   -2.1767   -6.1502  -11.1999 C   0  0  0  0  0  0  0  0  0  0  0  0
   -3.0922   -6.3781  -10.1330 C   0  0  0  0  0  0  0  0  0  0  0  0
   -2.9069   -5.8540   -8.8790 C   0  0  0  0  0  0  0  0  0  0  0  0
   -3.9340   -6.0706   -7.7949 C   0  0  0  0  0  0  0  0  0  0  0  0
   -1.7528   -5.1163   -8.6111 C   0  0  0  0  0  0  0  0  0  0  0  0
   -1.4704   -4.5074   -7.2653 C   0  0  0  0  0  0  0  0  0  0  0  0
   -0.8523   -4.8400   -9.6497 C   0  0  0  0  0  0  0  0  0  0  0  0
   -1.0451   -5.3582  -10.9268 C   0  0  0  0  0  0  0  0  0  0  0  0
   -0.1646   -5.1142  -11.9787 N   0  0  0  0  0  0  0  0  0  0  0  0
   -0.4061   -5.6708  -13.2155 C   0  0  0  0  0  0  0  0  0  0  0  0
    0.9629   -4.1877  -11.8036 C   0  0  0  0  0  0  0  0  0  0  0  0
    0.6408   -2.7279  -11.9256 C   0  0  2  0  0  0  0  0  0  0  0  0
    0.9203   -2.3688  -13.2682 O   0  0  0  0  0  0  0  0  0  0  0  0
    1.4729   -1.8827  -10.9642 C   0  0  2  0  0  0  0  0  0  0  0  0
    2.8147   -1.8862  -11.3765 O   0  0  0  0  0  0  0  0  0  0  0  0
    1.3875   -2.3234   -9.4985 C   0  0  2  0  0  0  0  0  0  0  0  0
    0.1257   -1.9770   -8.9370 O   0  0  0  0  0  0  0  0  0  0  0  0
    2.5057   -1.7758   -8.6487 C   0  0  0  0  0  0  0  0  0  0  0  0
    2.3507   -2.3070   -7.2678 O   0  0  0  0  0  0  0  0  0  0  0  0
   -0.9830   -7.0474  -16.6077 H   0  0  0  0  0  0  0  0  0  0  0  0
   -3.9814   -6.9977  -10.3216 H   0  0  0  0  0  0  0  0  0  0  0  0
   -3.4546   -5.9695   -6.8100 H   0  0  0  0  0  0  0  0  0  0  0  0
   -4.7334   -5.3212   -7.8921 H   0  0  0  0  0  0  0  0  0  0  0  0
   -4.3628   -7.0789   -7.8921 H   0  0  0  0  0  0  0  0  0  0  0  0
   -1.7920   -5.2008   -6.4743 H   0  0  0  0  0  0  0  0  0  0  0  0
   -0.3915   -4.3160   -7.1686 H   0  0  0  0  0  0  0  0  0  0  0  0
   -2.0209   -3.5600   -7.1686 H   0  0  0  0  0  0  0  0  0  0  0  0
    0.0220   -4.2025   -9.4515 H   0  0  0  0  0  0  0  0  0  0  0  0
    1.3845   -4.3566  -10.8018 H   0  0  0  0  0  0  0  0  0  0  0  0
    1.6574   -4.4076  -12.6279 H   0  0  0  0  0  0  0  0  0  0  0  0
   -0.4122   -2.5447  -11.6658 H   0  0  0  0  0  0  0  0  0  0  0  0
    1.5284   -1.5877  -13.2812 H   0  0  0  0  0  0  0  0  0  0  0  0
    1.0463   -0.8696  -11.0036 H   0  0  0  0  0  0  0  0  0  0  0  0
    3.4043   -1.8877  -10.5812 H   0  0  0  0  0  0  0  0  0  0  0  0
    1.4960   -3.4180   -9.5010 H   0  0  0  0  0  0  0  0  0  0  0  0
    0.1883   -1.9942   -7.9491 H   0  0  0  0  0  0  0  0  0  0  0  0
    3.4750   -2.0920   -9.0616 H   0  0  0  0  0  0  0  0  0  0  0  0
    2.4673   -0.6765   -8.6368 H   0  0  0  0  0  0  0  0  0  0  0  0
    2.5590   -1.5932   -6.6142 H   0  0  0  0  0  0  0  0  0  0  0  0
  1  2  1  0
  1 18  2  0
  2  3  2  0
  2  4  1  0
  4  5  1  0
  5  6  2  0
  5  7  1  0
  7  8  2  0
  7 18  1  0
  8  9  1  0
  9 10  1  0
  9 16  2  0
 10 11  2  0
 11 12  1  0
 11 13  1  0
 13 14  1  0
 13 15  2  0
 15 16  1  0
 16 17  1  0
 17 18  1  0
 17 19  1  0
 19 20  1  0
 20 21  1  0
 20 22  1  0
 22 23  1  0
 22 24  1  0
 24 25  1  0
 24 26  1  0
 26 27  1  0
  4 28  1  0
 10 29  1  0
 12 30  1  0
 12 31  1  0
 12 32  1  0
 14 33  1  0
 14 34  1  0
 14 35  1  0
 15 36  1  0
 19 37  1  0
 19 38  1  0
 20 39  1  1
 21 40  1  0
 22 41  1  1
 23 42  1  0
 24 43  1  6
 25 44  1  0
 26 45  1  0
 26 46  1  0
 27 47  1  0
M  END
>  <filename_input>  (6) 
7QF4_RBF_docked.sdf

>  <pdb_id>  (6) 
7QF4_RBF

>  <pose_rank>  (6) 
5

>  <num_atoms_heavy>  (6) 
27

>  <num_torsions>  (6) 
5

>  <pose>  (6) 
[0.4961323135051882, -5.4017891657363934, -14.178282219407176, 0.5330479249389467, 1.2845628776859157, 2.8011738485506825, -3.0234864161423958, -0.9386040478215378, 0.21319824166458953, -0.35864534520918007, -4.215485348028932]

>  <energy>  (6) 
-980.5604179295361

>  <inter_energy>  (6) 
-996.4026749743019

>  <intra_energy>  (6) 
21.462873245366886

>  <rmsd>  (6) 
5.04123

>  <sdf_rank>  (6) 
0

$$$$

     RDKit          3D

 47 49  0  0  0  0  0  0  0  0999 V2000
   -1.8684   -6.0455  -13.5218 N   0  0  0  0  0  0  0  0  0  0  0  0
   -1.8732   -6.8032  -14.6403 C   0  0  0  0  0  0  0  0  0  0  0  0
   -2.8850   -7.5389  -14.9365 O   0  0  0  0  0  0  0  0  0  0  0  0
   -0.7715   -6.8685  -15.4573 N   0  0  0  0  0  0  0  0  0  0  0  0
    0.4077   -6.1658  -15.2270 C   0  0  0  0  0  0  0  0  0  0  0  0
    1.3629   -6.3486  -15.9621 O   0  0  0  0  0  0  0  0  0  0  0  0
    0.3836   -5.2965  -14.0851 C   0  0  0  0  0  0  0  0  0  0  0  0
    1.4733   -4.5601  -13.8288 N   0  0  0  0  0  0  0  0  0  0  0  0
    1.4187   -3.7880  -12.7009 C   0  0  0  0  0  0  0  0  0  0  0  0
    2.5524   -2.9917  -12.3707 C   0  0  0  0  0  0  0  0  0  0  0  0
    2.5985   -2.2061  -11.2473 C   0  0  0  0  0  0  0  0  0  0  0  0
    3.8438   -1.4258  -10.9044 C   0  0  0  0  0  0  0  0  0  0  0  0
    1.4770   -2.1315  -10.4199 C   0  0  0  0  0  0  0  0  0  0  0  0
    1.4416   -1.2950   -9.1705 C   0  0  0  0  0  0  0  0  0  0  0  0
    0.3604   -2.9336  -10.6949 C   0  0  0  0  0  0  0  0  0  0  0  0
    0.3163   -3.7430  -11.8262 C   0  0  0  0  0  0  0  0  0  0  0  0
   -0.7812   -4.5432  -12.1366 N   0  0  0  0  0  0  0  0  0  0  0  0
   -0.7666   -5.3096  -13.2813 C   0  0  0  0  0  0  0  0  0  0  0  0
   -1.9099   -4.6510  -11.2014 C   0  0  0  0  0  0  0  0  0  0  0  0
   -1.6935   -5.5318  -10.0068 C   0  0  2  0  0  0  0  0  0  0  0  0
   -2.0048   -6.8509  -10.4226 O   0  0  0  0  0  0  0  0  0  0  0  0
   -2.5790   -5.1207   -8.8329 C   0  0  2  0  0  0  0  0  0  0  0  0
   -1.8444   -5.2017   -7.6395 O   0  0  0  0  0  0  0  0  0  0  0  0
   -3.8680   -5.9389   -8.6961 C   0  0  2  0  0  0  0  0  0  0  0  0
   -4.8728   -5.4551   -9.5814 O   0  0  0  0  0  0  0  0  0  0  0  0
   -4.3939   -5.9850   -7.2840 C   0  0  0  0  0  0  0  0  0  0  0  0
   -5.8805   -5.9595   -7.3345 O   0  0  0  0  0  0  0  0  0  0  0  0
   -0.8205   -7.4732  -16.2897 H   0  0  0  0  0  0  0  0  0  0  0  0
    3.4239   -3.0074  -13.0418 H   0  0  0  0  0  0  0  0  0  0  0  0
    3.9467   -1.3614   -9.8111 H   0  0  0  0  0  0  0  0  0  0  0  0
    4.7231   -1.9348  -11.3260 H   0  0  0  0  0  0  0  0  0  0  0  0
    3.7694   -0.4126  -11.3260 H   0  0  0  0  0  0  0  0  0  0  0  0
    1.4694   -1.9518   -8.2886 H   0  0  0  0  0  0  0  0  0  0  0  0
    2.3122   -0.6227   -9.1546 H   0  0  0  0  0  0  0  0  0  0  0  0
    0.5175   -0.6986   -9.1546 H   0  0  0  0  0  0  0  0  0  0  0  0
   -0.4958   -2.9230  -10.0044 H   0  0  0  0  0  0  0  0  0  0  0  0
   -2.1416   -3.6396  -10.8360 H   0  0  0  0  0  0  0  0  0  0  0  0
   -2.7238   -5.1214  -11.7726 H   0  0  0  0  0  0  0  0  0  0  0  0
   -0.6550   -5.4505   -9.6536 H   0  0  0  0  0  0  0  0  0  0  0  0
   -2.1401   -7.4244   -9.6270 H   0  0  0  0  0  0  0  0  0  0  0  0
   -2.8941   -4.0869   -9.0378 H   0  0  0  0  0  0  0  0  0  0  0  0
   -2.4605   -5.1338   -6.8675 H   0  0  0  0  0  0  0  0  0  0  0  0
   -3.6065   -6.9710   -8.9724 H   0  0  0  0  0  0  0  0  0  0  0  0
   -5.6285   -5.0912   -9.0555 H   0  0  0  0  0  0  0  0  0  0  0  0
   -4.0548   -6.9082   -6.7914 H   0  0  0  0  0  0  0  0  0  0  0  0
   -4.0207   -5.1215   -6.7138 H   0  0  0  0  0  0  0  0  0  0  0  0
   -6.2419   -5.9534   -6.4128 H   0  0  0  0  0  0  0  0  0  0  0  0
  1  2  1  0
  1 18  2  0
  2  3  2  0
  2  4  1  0
  4  5  1  0
  5  6  2  0
  5  7  1  0
  7  8  2  0
  7 18  1  0
  8  9  1  0
  9 10  1  0
  9 16  2  0
 10 11  2  0
 11 12  1  0
 11 13  1  0
 13 14  1  0
 13 15  2  0
 15 16  1  0
 16 17  1  0
 17 18  1  0
 17 19  1  0
 19 20  1  0
 20 21  1  0
 20 22  1  0
 22 23  1  0
 22 24  1  0
 24 25  1  0
 24 26  1  0
 26 27  1  0
  4 28  1  0
 10 29  1  0
 12 30  1  0
 12 31  1  0
 12 32  1  0
 14 33  1  0
 14 34  1  0
 14 35  1  0
 15 36  1  0
 19 37  1  0
 19 38  1  0
 20 39  1  1
 21 40  1  0
 22 41  1  6
 23 42  1  0
 24 43  1  6
 25 44  1  0
 26 45  1  0
 26 46  1  0
 27 47  1  0
M  END
>  <filename_input>  (7) 
7QF4_RBF_docked.sdf

>  <pdb_id>  (7) 
7QF4_RBF

>  <pose_rank>  (7) 
6

>  <num_atoms_heavy>  (7) 
27

>  <num_torsions>  (7) 
5

>  <pose>  (7) 
[-1.8683801000429008, -6.045515427998101, -13.521756567067856, 3.3567060579318335, 4.805454705671028, 1.2237085664684424, -2.957776099529382, -0.7668588440459895, -3.4275977925268593, -0.5064350144830544, 1.3987194711981643]

>  <energy>  (7) 
-974.8259579805164

>  <inter_energy>  (7) 
-973.8687802881416

>  <intra_energy>  (7) 
9.717877098736064

>  <rmsd>  (7) 
1.00742

>  <sdf_rank>  (7) 
0

$$$$

     RDKit          3D

 47 49  0  0  0  0  0  0  0  0999 V2000
    1.6877   -3.7337  -11.8750 N   0  0  0  0  0  0  0  0  0  0  0  0
    2.6065   -2.7723  -11.6363 C   0  0  0  0  0  0  0  0  0  0  0  0
    3.5793   -2.5699  -12.4520 O   0  0  0  0  0  0  0  0  0  0  0  0
    2.5730   -2.0307  -10.4810 N   0  0  0  0  0  0  0  0  0  0  0  0
    1.6075   -2.1819   -9.4900 C   0  0  0  0  0  0  0  0  0  0  0  0
    1.7045   -1.5355   -8.4609 O   0  0  0  0  0  0  0  0  0  0  0  0
    0.5835   -3.1446   -9.7813 C   0  0  0  0  0  0  0  0  0  0  0  0
   -0.3998   -3.3111   -8.8865 N   0  0  0  0  0  0  0  0  0  0  0  0
   -1.3213   -4.2764   -9.1869 C   0  0  0  0  0  0  0  0  0  0  0  0
   -2.3841   -4.5066   -8.2671 C   0  0  0  0  0  0  0  0  0  0  0  0
   -3.3393   -5.4695   -8.4716 C   0  0  0  0  0  0  0  0  0  0  0  0
   -4.4125   -5.7202   -7.4407 C   0  0  0  0  0  0  0  0  0  0  0  0
   -3.3124   -6.2188   -9.6488 C   0  0  0  0  0  0  0  0  0  0  0  0
   -4.3205   -7.2925   -9.9533 C   0  0  0  0  0  0  0  0  0  0  0  0
   -2.2569   -6.0446  -10.5552 C   0  0  0  0  0  0  0  0  0  0  0  0
   -1.2780   -5.0784  -10.3433 C   0  0  0  0  0  0  0  0  0  0  0  0
   -0.2225   -4.8699  -11.2286 N   0  0  0  0  0  0  0  0  0  0  0  0
    0.7050   -3.8853  -10.9670 C   0  0  0  0  0  0  0  0  0  0  0  0
   -0.0366   -5.7579  -12.3849 C   0  0  0  0  0  0  0  0  0  0  0  0
    0.6369   -5.1510  -13.5799 C   0  0  2  0  0  0  0  0  0  0  0  0
    0.1689   -3.8157  -13.6659 O   0  0  0  0  0  0  0  0  0  0  0  0
    0.3099   -5.9134  -14.8615 C   0  0  2  0  0  0  0  0  0  0  0  0
    0.1113   -5.0035  -15.9117 O   0  0  0  0  0  0  0  0  0  0  0  0
   -0.9052   -6.8415  -14.7528 C   0  0  2  0  0  0  0  0  0  0  0  0
   -0.5185   -8.2038  -14.9006 O   0  0  0  0  0  0  0  0  0  0  0  0
   -2.0011   -6.5004  -15.7303 C   0  0  0  0  0  0  0  0  0  0  0  0
   -3.2719   -7.0987  -15.2401 O   0  0  0  0  0  0  0  0  0  0  0  0
    3.3057   -1.3207  -10.3396 H   0  0  0  0  0  0  0  0  0  0  0  0
   -2.4410   -3.8891   -7.3586 H   0  0  0  0  0  0  0  0  0  0  0  0
   -3.9833   -5.6199   -6.4328 H   0  0  0  0  0  0  0  0  0  0  0  0
   -5.2225   -4.9870   -7.5689 H   0  0  0  0  0  0  0  0  0  0  0  0
   -4.8139   -6.7362   -7.5689 H   0  0  0  0  0  0  0  0  0  0  0  0
   -4.7100   -7.7074   -9.0119 H   0  0  0  0  0  0  0  0  0  0  0  0
   -5.1492   -6.8630  -10.5353 H   0  0  0  0  0  0  0  0  0  0  0  0
   -3.8396   -8.0925  -10.5353 H   0  0  0  0  0  0  0  0  0  0  0  0
   -2.2017   -6.6828  -11.4494 H   0  0  0  0  0  0  0  0  0  0  0  0
    0.5693   -6.6152  -12.0566 H   0  0  0  0  0  0  0  0  0  0  0  0
   -1.0501   -6.0240  -12.7197 H   0  0  0  0  0  0  0  0  0  0  0  0
    1.7302   -5.1928  -13.4659 H   0  0  0  0  0  0  0  0  0  0  0  0
    0.0412   -3.4514  -12.7542 H   0  0  0  0  0  0  0  0  0  0  0  0
    1.1747   -6.5647  -15.0564 H   0  0  0  0  0  0  0  0  0  0  0  0
   -0.0843   -4.1073  -15.5393 H   0  0  0  0  0  0  0  0  0  0  0  0
   -1.3184   -6.6883  -13.7449 H   0  0  0  0  0  0  0  0  0  0  0  0
   -0.4024   -8.6128  -14.0065 H   0  0  0  0  0  0  0  0  0  0  0  0
   -2.1082   -5.4080  -15.8016 H   0  0  0  0  0  0  0  0  0  0  0  0
   -1.7560   -6.8982  -16.7261 H   0  0  0  0  0  0  0  0  0  0  0  0
   -3.2755   -7.1004  -14.2501 H   0  0  0  0  0  0  0  0  0  0  0  0
  1  2  1  0
  1 18  2  0
  2  3  2  0
  2  4  1  0
  4  5  1  0
  5  6  2  0
  5  7  1  0
  7  8  2  0
  7 18  1  0
  8  9  1  0
  9 10  1  0
  9 16  2  0
 10 11  2  0
 11 12  1  0
 11 13  1  0
 13 14  1  0
 13 15  2  0
 15 16  1  0
 16 17  1  0
 17 18  1  0
 17 19  1  0
 19 20  1  0
 20 21  1  0
 20 22  1  0
 22 23  1  0
 22 24  1  0
 24 25  1  0
 24 26  1  0
 26 27  1  0
  4 28  1  0
 10 29  1  0
 12 30  1  0
 12 31  1  0
 12 32  1  0
 14 33  1  0
 14 34  1  0
 14 35  1  0
 15 36  1  0
 19 37  1  0
 19 38  1  0
 20 39  1  1
 21 40  1  0
 22 41  1  6
 23 42  1  0
 24 43  1  1
 25 44  1  0
 26 45  1  0
 26 46  1  0
 27 47  1  0
M  END
>  <filename_input>  (8) 
7QF4_RBF_docked.sdf

>  <pdb_id>  (8) 
7QF4_RBF

>  <pose_rank>  (8) 
7

>  <num_atoms_heavy>  (8) 
27

>  <num_torsions>  (8) 
5

>  <pose>  (8) 
[1.6877150654781563, -3.7336843374900206, -11.875004011478472, 1.1085463831037239, -1.6964621020548234, 0.9144511793910408, -11.527677993106542, 0.06929683905325026, -11.120688938010508, 5.193692761362862, 2.3796795993117037]

>  <energy>  (8) 
-670.5556277670019

>  <inter_energy>  (8) 
-786.0221099022344

>  <intra_energy>  (8) 
110.68965798875519

>  <rmsd>  (8) 
6.5239

>  <sdf_rank>  (8) 
0

$$$$

     RDKit          3D

 47 49  0  0  0  0  0  0  0  0999 V2000
    1.4626   -3.2898   -9.7394 N   0  0  0  0  0  0  0  0  0  0  0  0
    2.3072   -2.2980   -9.3813 C   0  0  0  0  0  0  0  0  0  0  0  0
    2.4054   -1.9231   -8.1555 O   0  0  0  0  0  0  0  0  0  0  0  0
    3.0328   -1.6102  -10.3226 N   0  0  0  0  0  0  0  0  0  0  0  0
    2.9825   -1.8768  -11.6878 C   0  0  0  0  0  0  0  0  0  0  0  0
    3.5999   -1.1607  -12.4574 O   0  0  0  0  0  0  0  0  0  0  0  0
    2.1494   -2.9849  -12.0600 C   0  0  0  0  0  0  0  0  0  0  0  0
    2.0870   -3.3209  -13.3555 N   0  0  0  0  0  0  0  0  0  0  0  0
    1.2396   -4.3495  -13.6639 C   0  0  0  0  0  0  0  0  0  0  0  0
    1.1229   -4.7442  -15.0274 C   0  0  0  0  0  0  0  0  0  0  0  0
    0.2806   -5.7474  -15.4341 C   0  0  0  0  0  0  0  0  0  0  0  0
    0.1434   -6.0914  -16.8971 C   0  0  0  0  0  0  0  0  0  0  0  0
   -0.4516   -6.4536  -14.4786 C   0  0  0  0  0  0  0  0  0  0  0  0
   -1.3966   -7.5673  -14.8370 C   0  0  0  0  0  0  0  0  0  0  0  0
   -0.3899   -6.0633  -13.1332 C   0  0  0  0  0  0  0  0  0  0  0  0
    0.4529   -5.0361  -12.7194 C   0  0  0  0  0  0  0  0  0  0  0  0
    0.5484   -4.6307  -11.3899 N   0  0  0  0  0  0  0  0  0  0  0  0
    1.4148   -3.6166  -11.0449 C   0  0  0  0  0  0  0  0  0  0  0  0
   -0.3403   -5.2083  -10.3717 C   0  0  0  0  0  0  0  0  0  0  0  0
   -1.7119   -4.6084  -10.2777 C   0  0  2  0  0  0  0  0  0  0  0  0
   -1.6914   -3.7404   -9.1570 O   0  0  0  0  0  0  0  0  0  0  0  0
   -2.7867   -5.6785  -10.1028 C   0  0  2  0  0  0  0  0  0  0  0  0
   -3.8833   -5.3820  -10.9275 O   0  0  0  0  0  0  0  0  0  0  0  0
   -3.2677   -5.8616   -8.6590 C   0  0  2  0  0  0  0  0  0  0  0  0
   -3.0107   -7.1855   -8.2023 O   0  0  0  0  0  0  0  0  0  0  0  0
   -4.7233   -5.5174   -8.4709 C   0  0  0  0  0  0  0  0  0  0  0  0
   -4.9888   -5.3753   -7.0140 O   0  0  0  0  0  0  0  0  0  0  0  0
    3.6508   -0.8522   -9.9994 H   0  0  0  0  0  0  0  0  0  0  0  0
    1.7312   -4.2250  -15.7827 H   0  0  0  0  0  0  0  0  0  0  0  0
   -0.2622   -7.1089  -16.9980 H   0  0  0  0  0  0  0  0  0  0  0  0
   -0.5380   -5.3754  -17.3798 H   0  0  0  0  0  0  0  0  0  0  0  0
    1.1305   -6.0407  -17.3798 H   0  0  0  0  0  0  0  0  0  0  0  0
   -1.7869   -8.0272  -13.9172 H   0  0  0  0  0  0  0  0  0  0  0  0
   -2.2319   -7.1634  -15.4280 H   0  0  0  0  0  0  0  0  0  0  0  0
   -0.8622   -8.3257  -15.4280 H   0  0  0  0  0  0  0  0  0  0  0  0
   -1.0187   -6.5782  -12.3919 H   0  0  0  0  0  0  0  0  0  0  0  0
   -0.4562   -6.2792  -10.5949 H   0  0  0  0  0  0  0  0  0  0  0  0
    0.1413   -4.9988   -9.4052 H   0  0  0  0  0  0  0  0  0  0  0  0
   -1.9593   -4.0706  -11.2048 H   0  0  0  0  0  0  0  0  0  0  0  0
   -1.7040   -4.2761   -8.3245 H   0  0  0  0  0  0  0  0  0  0  0  0
   -2.3169   -6.6305  -10.3910 H   0  0  0  0  0  0  0  0  0  0  0  0
   -4.6704   -5.1692  -10.3660 H   0  0  0  0  0  0  0  0  0  0  0  0
   -2.6908   -5.1491   -8.0512 H   0  0  0  0  0  0  0  0  0  0  0  0
   -3.0082   -7.1985   -7.2124 H   0  0  0  0  0  0  0  0  0  0  0  0
   -4.9504   -4.5712   -8.9838 H   0  0  0  0  0  0  0  0  0  0  0  0
   -5.3567   -6.3108   -8.8944 H   0  0  0  0  0  0  0  0  0  0  0  0
   -4.2419   -5.7752   -6.5019 H   0  0  0  0  0  0  0  0  0  0  0  0
  1  2  1  0
  1 18  2  0
  2  3  2  0
  2  4  1  0
  4  5  1  0
  5  6  2  0
  5  7  1  0
  7  8  2  0
  7 18  1  0
  8  9  1  0
  9 10  1  0
  9 16  2  0
 10 11  2  0
 11 12  1  0
 11 13  1  0
 13 14  1  0
 13 15  2  0
 15 16  1  0
 16 17  1  0
 17 18  1  0
 17 19  1  0
 19 20  1  0
 20 21  1  0
 20 22  1  0
 22 23  1  0
 22 24  1  0
 24 25  1  0
 24 26  1  0
 26 27  1  0
  4 28  1  0
 10 29  1  0
 12 30  1  0
 12 31  1  0
 12 32  1  0
 14 33  1  0
 14 34  1  0
 14 35  1  0
 15 36  1  0
 19 37  1  0
 19 38  1  0
 20 39  1  6
 21 40  1  0
 22 41  1  6
 23 42  1  0
 24 43  1  1
 25 44  1  0
 26 45  1  0
 26 46  1  0
 27 47  1  0
M  END
>  <filename_input>  (9) 
7QF4_RBF_docked.sdf

>  <pdb_id>  (9) 
7QF4_RBF

>  <pose_rank>  (9) 
8

>  <num_atoms_heavy>  (9) 
27

>  <num_torsions>  (9) 
5

>  <pose>  (9) 
[1.4625586189350028, -3.289807593689446, -9.739396865045189, 1.8446545891812876, 0.9561398981920987, -2.2449841983109295, -3.046118521378441, -1.0561394138820888, -3.385835921524236, -1.1615044118197926, -3.991272575863031]

>  <energy>  (9) 
-799.6591040418275

>  <inter_energy>  (9) 
-797.6054245975929

>  <intra_energy>  (9) 
6.851372543845024

>  <rmsd>  (9) 
4.92781

>  <sdf_rank>  (9) 
0

$$$$

     RDKit          3D

 47 49  0  0  0  0  0  0  0  0999 V2000
    1.5028   -3.5547  -12.1204 N   0  0  0  0  0  0  0  0  0  0  0  0
    2.4506   -2.6748  -11.7294 C   0  0  0  0  0  0  0  0  0  0  0  0
    3.3855   -2.3093  -12.5326 O   0  0  0  0  0  0  0  0  0  0  0  0
    2.4887   -2.1993  -10.4417 N   0  0  0  0  0  0  0  0  0  0  0  0
    1.5708   -2.5526   -9.4570 C   0  0  0  0  0  0  0  0  0  0  0  0
    1.7310   -2.1440   -8.3196 O   0  0  0  0  0  0  0  0  0  0  0  0
    0.5153   -3.4216   -9.8940 C   0  0  0  0  0  0  0  0  0  0  0  0
   -0.4255   -3.7691   -9.0055 N   0  0  0  0  0  0  0  0  0  0  0  0
   -1.3791   -4.6394   -9.4573 C   0  0  0  0  0  0  0  0  0  0  0  0
   -2.3993   -5.0538   -8.5539 C   0  0  0  0  0  0  0  0  0  0  0  0
   -3.3818   -5.9422   -8.9100 C   0  0  0  0  0  0  0  0  0  0  0  0
   -4.4072   -6.4004   -7.9020 C   0  0  0  0  0  0  0  0  0  0  0  0
   -3.4277   -6.4204  -10.2203 C   0  0  0  0  0  0  0  0  0  0  0  0
   -4.4701   -7.3951  -10.6949 C   0  0  0  0  0  0  0  0  0  0  0  0
   -2.4152   -6.0636  -11.1223 C   0  0  0  0  0  0  0  0  0  0  0  0
   -1.4086   -5.1737  -10.7596 C   0  0  0  0  0  0  0  0  0  0  0  0
   -0.3945   -4.7879  -11.6337 N   0  0  0  0  0  0  0  0  0  0  0  0
    0.5635   -3.8904  -11.2158 C   0  0  0  0  0  0  0  0  0  0  0  0
   -0.2833   -5.4074  -12.9619 C   0  0  0  0  0  0  0  0  0  0  0  0
    0.8620   -4.9426  -13.8116 C   0  0  2  0  0  0  0  0  0  0  0  0
    0.5592   -3.6119  -14.1955 O   0  0  0  0  0  0  0  0  0  0  0  0
    1.0457   -5.8238  -15.0447 C   0  0  2  0  0  0  0  0  0  0  0  0
    0.7165   -5.0934  -16.1974 O   0  0  0  0  0  0  0  0  0  0  0  0
    0.2382   -7.1264  -15.0171 C   0  0  2  0  0  0  0  0  0  0  0  0
   -0.7658   -7.1228  -16.0267 O   0  0  0  0  0  0  0  0  0  0  0  0
   -0.3756   -7.4151  -13.6708 C   0  0  0  0  0  0  0  0  0  0  0  0
   -0.2523   -8.8727  -13.4002 O   0  0  0  0  0  0  0  0  0  0  0  0
    3.2410   -1.5424  -10.1898 H   0  0  0  0  0  0  0  0  0  0  0  0
   -2.3992   -4.6461   -7.5323 H   0  0  0  0  0  0  0  0  0  0  0  0
   -4.0239   -6.2292   -6.8853 H   0  0  0  0  0  0  0  0  0  0  0  0
   -5.3390   -5.8331   -8.0430 H   0  0  0  0  0  0  0  0  0  0  0  0
   -4.6061   -7.4731   -8.0430 H   0  0  0  0  0  0  0  0  0  0  0  0
   -4.9632   -7.8563   -9.8265 H   0  0  0  0  0  0  0  0  0  0  0  0
   -5.2181   -6.8650  -11.3027 H   0  0  0  0  0  0  0  0  0  0  0  0
   -3.9912   -8.1770  -11.3027 H   0  0  0  0  0  0  0  0  0  0  0  0
   -2.4167   -6.4946  -12.1344 H   0  0  0  0  0  0  0  0  0  0  0  0
   -0.1771   -6.4929  -12.8189 H   0  0  0  0  0  0  0  0  0  0  0  0
   -1.1934   -5.1110  -13.5039 H   0  0  0  0  0  0  0  0  0  0  0  0
    1.8051   -4.9992  -13.2481 H   0  0  0  0  0  0  0  0  0  0  0  0
    0.4326   -3.0557  -13.3864 H   0  0  0  0  0  0  0  0  0  0  0  0
    2.1047   -6.1214  -15.0501 H   0  0  0  0  0  0  0  0  0  0  0  0
    0.3242   -4.2230  -15.9356 H   0  0  0  0  0  0  0  0  0  0  0  0
    0.9551   -7.9356  -15.2204 H   0  0  0  0  0  0  0  0  0  0  0  0
   -1.6603   -7.1196  -15.6026 H   0  0  0  0  0  0  0  0  0  0  0  0
    0.1537   -6.8467  -12.8919 H   0  0  0  0  0  0  0  0  0  0  0  0
   -1.4350   -7.1188  -13.6676 H   0  0  0  0  0  0  0  0  0  0  0  0
   -0.2392   -9.0269  -12.4224 H   0  0  0  0  0  0  0  0  0  0  0  0
  1  2  1  0
  1 18  2  0
  2  3  2  0
  2  4  1  0
  4  5  1  0
  5  6  2  0
  5  7  1  0
  7  8  2  0
  7 18  1  0
  8  9  1  0
  9 10  1  0
  9 16  2  0
 10 11  2  0
 11 12  1  0
 11 13  1  0
 13 14  1  0
 13 15  2  0
 15 16  1  0
 16 17  1  0
 17 18  1  0
 17 19  1  0
 19 20  1  0
 20 21  1  0
 20 22  1  0
 22 23  1  0
 22 24  1  0
 24 25  1  0
 24 26  1  0
 26 27  1  0
  4 28  1  0
 10 29  1  0
 12 30  1  0
 12 31  1  0
 12 32  1  0
 14 33  1  0
 14 34  1  0
 14 35  1  0
 15 36  1  0
 19 37  1  0
 19 38  1  0
 20 39  1  1
 21 40  1  0
 22 41  1  6
 23 42  1  0
 24 43  1  6
 25 44  1  0
 26 45  1  0
 26 46  1  0
 27 47  1  0
M  END
>  <filename_input>  (10) 
7QF4_RBF_docked.sdf

>  <pdb_id>  (10) 
7QF4_RBF

>  <pose_rank>  (10) 
9

>  <num_atoms_heavy>  (10) 
27

>  <num_torsions>  (10) 
5

>  <pose>  (10) 
[1.5028318040636965, -3.5546664149840335, -12.120430900422948, 1.2500136048302966, -1.789437625617627, 0.6989478775575061, 1.549470664002591, -0.5082926140169872, 0.9509150211198771, 2.8984763393202697, -3.553817985134713]

>  <energy>  (10) 
-566.5172889092732

>  <inter_energy>  (10) 
-785.0064567062639

>  <intra_energy>  (10) 
213.70108293932907

>  <rmsd>  (10) 
6.60247

>  <sdf_rank>  (10) 
0

$$$$

     RDKit          3D

 47 49  0  0  0  0  0  0  0  0999 V2000
    0.9855   -2.7974   -9.5821 N   0  0  0  0  0  0  0  0  0  0  0  0
    2.0443   -2.0747   -9.1557 C   0  0  0  0  0  0  0  0  0  0  0  0
    2.0555   -1.5459   -7.9839 O   0  0  0  0  0  0  0  0  0  0  0  0
    3.1093   -1.8204   -9.9844 N   0  0  0  0  0  0  0  0  0  0  0  0
    3.2029   -2.2868  -11.2924 C   0  0  0  0  0  0  0  0  0  0  0  0
    4.1485   -1.9429  -11.9809 O   0  0  0  0  0  0  0  0  0  0  0  0
    2.1175   -3.1242  -11.7179 C   0  0  0  0  0  0  0  0  0  0  0  0
    2.1645   -3.6398  -12.9537 N   0  0  0  0  0  0  0  0  0  0  0  0
    1.0821   -4.3875  -13.3287 C   0  0  0  0  0  0  0  0  0  0  0  0
    1.0705   -4.9525  -14.6361 C   0  0  0  0  0  0  0  0  0  0  0  0
    0.0181   -5.6949  -15.1080 C   0  0  0  0  0  0  0  0  0  0  0  0
    0.0216   -6.2231  -16.5217 C   0  0  0  0  0  0  0  0  0  0  0  0
   -1.0616   -5.9618  -14.2649 C   0  0  0  0  0  0  0  0  0  0  0  0
   -2.2548   -6.7670  -14.7007 C   0  0  0  0  0  0  0  0  0  0  0  0
   -1.0992   -5.3869  -12.9867 C   0  0  0  0  0  0  0  0  0  0  0  0
   -0.0395   -4.6210  -12.5102 C   0  0  0  0  0  0  0  0  0  0  0  0
   -0.0379   -4.0451  -11.2415 N   0  0  0  0  0  0  0  0  0  0  0  0
    1.0508   -3.3107  -10.8253 C   0  0  0  0  0  0  0  0  0  0  0  0
   -1.2291   -4.1322  -10.3850 C   0  0  0  0  0  0  0  0  0  0  0  0
   -1.4216   -5.4278   -9.6542 C   0  0  2  0  0  0  0  0  0  0  0  0
   -0.8936   -6.4411  -10.4934 O   0  0  0  0  0  0  0  0  0  0  0  0
   -2.8950   -5.6965   -9.3575 C   0  0  2  0  0  0  0  0  0  0  0  0
   -3.6859   -5.1692  -10.3903 O   0  0  0  0  0  0  0  0  0  0  0  0
   -3.3794   -5.1466   -8.0112 C   0  0  2  0  0  0  0  0  0  0  0  0
   -2.6699   -5.7470   -6.9325 O   0  0  0  0  0  0  0  0  0  0  0  0
   -4.8655   -5.2994   -7.8085 C   0  0  0  0  0  0  0  0  0  0  0  0
   -5.1029   -5.8032   -6.4290 O   0  0  0  0  0  0  0  0  0  0  0  0
    3.8846   -1.2509   -9.6163 H   0  0  0  0  0  0  0  0  0  0  0  0
    1.9380   -4.7872  -15.2919 H   0  0  0  0  0  0  0  0  0  0  0  0
    0.0289   -7.3229  -16.5022 H   0  0  0  0  0  0  0  0  0  0  0  0
   -0.8789   -5.8716  -17.0466 H   0  0  0  0  0  0  0  0  0  0  0  0
    0.9174   -5.8597  -17.0466 H   0  0  0  0  0  0  0  0  0  0  0  0
   -2.7947   -7.1314  -13.8143 H   0  0  0  0  0  0  0  0  0  0  0  0
   -2.9235   -6.1348  -15.3032 H   0  0  0  0  0  0  0  0  0  0  0  0
   -1.9187   -7.6238  -15.3032 H   0  0  0  0  0  0  0  0  0  0  0  0
   -1.9818   -5.5441  -12.3492 H   0  0  0  0  0  0  0  0  0  0  0  0
   -1.1638   -3.3298   -9.6355 H   0  0  0  0  0  0  0  0  0  0  0  0
   -2.0895   -4.0451  -11.0648 H   0  0  0  0  0  0  0  0  0  0  0  0
   -0.9108   -5.3982   -8.6805 H   0  0  0  0  0  0  0  0  0  0  0  0
   -0.5153   -7.1669   -9.9364 H   0  0  0  0  0  0  0  0  0  0  0  0
   -2.9976   -6.7899   -9.2952 H   0  0  0  0  0  0  0  0  0  0  0  0
   -4.4433   -4.6644  -10.0010 H   0  0  0  0  0  0  0  0  0  0  0  0
   -3.1696   -4.0669   -8.0279 H   0  0  0  0  0  0  0  0  0  0  0  0
   -3.0453   -5.4294   -6.0732 H   0  0  0  0  0  0  0  0  0  0  0  0
   -5.3600   -4.3254   -7.9384 H   0  0  0  0  0  0  0  0  0  0  0  0
   -5.2761   -6.0062   -8.5445 H   0  0  0  0  0  0  0  0  0  0  0  0
   -4.7866   -5.1320   -5.7736 H   0  0  0  0  0  0  0  0  0  0  0  0
  1  2  1  0
  1 18  2  0
  2  3  2  0
  2  4  1  0
  4  5  1  0
  5  6  2  0
  5  7  1  0
  7  8  2  0
  7 18  1  0
  8  9  1  0
  9 10  1  0
  9 16  2  0
 10 11  2  0
 11 12  1  0
 11 13  1  0
 13 14  1  0
 13 15  2  0
 15 16  1  0
 16 17  1  0
 17 18  1  0
 17 19  1  0
 19 20  1  0
 20 21  1  0
 20 22  1  0
 22 23  1  0
 22 24  1  0
 24 25  1  0
 24 26  1  0
 26 27  1  0
  4 28  1  0
 10 29  1  0
 12 30  1  0
 12 31  1  0
 12 32  1  0
 14 33  1  0
 14 34  1  0
 14 35  1  0
 15 36  1  0
 19 37  1  0
 19 38  1  0
 20 39  1  1
 21 40  1  0
 22 41  1  1
 23 42  1  0
 24 43  1  6
 25 44  1  0
 26 45  1  0
 26 46  1  0
 27 47  1  0
M  END
>  <filename_input>  (11) 
7QF4_RBF_docked.sdf

>  <pdb_id>  (11) 
7QF4_RBF

>  <pose_rank>  (11) 
10

>  <num_atoms_heavy>  (11) 
27

>  <num_torsions>  (11) 
5

>  <pose>  (11) 
[0.9854763114234628, -2.797423070041917, -9.582114824078491, 2.2471170832534506, 0.4709959554245015, -2.1707631199723365, 50.04526156395804, 50.418891967384276, 12.14280747507887, -0.15514752848606184, 1.2488777692639994]

>  <energy>  (11) 
-728.3435801105006

>  <inter_energy>  (11) 
-772.3203338570445

>  <intra_energy>  (11) 
47.14068479258773

>  <rmsd>  (11) 
4.98872

>  <sdf_rank>  (11) 
0

$$$$

     RDKit          3D

 47 49  0  0  0  0  0  0  0  0999 V2000
    1.2872   -2.7254   -9.6360 N   0  0  0  0  0  0  0  0  0  0  0  0
    2.3994   -2.0661   -9.2440 C   0  0  0  0  0  0  0  0  0  0  0  0
    2.4786   -1.5400   -8.0736 O   0  0  0  0  0  0  0  0  0  0  0  0
    3.4506   -1.8735  -10.1063 N   0  0  0  0  0  0  0  0  0  0  0  0
    3.4752   -2.3433  -11.4163 C   0  0  0  0  0  0  0  0  0  0  0  0
    4.4169   -2.0545  -12.1346 O   0  0  0  0  0  0  0  0  0  0  0  0
    2.3299   -3.1156  -11.8063 C   0  0  0  0  0  0  0  0  0  0  0  0
    2.3075   -3.6319  -13.0425 N   0  0  0  0  0  0  0  0  0  0  0  0
    1.1721   -4.3148  -13.3823 C   0  0  0  0  0  0  0  0  0  0  0  0
    1.0860   -4.8769  -14.6882 C   0  0  0  0  0  0  0  0  0  0  0  0
   -0.0223   -5.5562  -15.1258 C   0  0  0  0  0  0  0  0  0  0  0  0
   -0.0945   -6.0823  -16.5384 C   0  0  0  0  0  0  0  0  0  0  0  0
   -1.0885   -5.7605  -14.2487 C   0  0  0  0  0  0  0  0  0  0  0  0
   -2.3398   -6.4943  -14.6456 C   0  0  0  0  0  0  0  0  0  0  0  0
   -1.0519   -5.1857  -12.9704 C   0  0  0  0  0  0  0  0  0  0  0  0
    0.0653   -4.4833  -12.5285 C   0  0  0  0  0  0  0  0  0  0  0  0
    0.1407   -3.9097  -11.2609 N   0  0  0  0  0  0  0  0  0  0  0  0
    1.2831   -3.2404  -10.8802 C   0  0  0  0  0  0  0  0  0  0  0  0
   -1.0258   -3.9280  -10.3670 C   0  0  0  0  0  0  0  0  0  0  0  0
   -1.1611   -5.1338   -9.4853 C   0  0  2  0  0  0  0  0  0  0  0  0
   -1.4110   -6.2316  -10.3467 O   0  0  0  0  0  0  0  0  0  0  0  0
   -2.2998   -4.9753   -8.4807 C   0  0  2  0  0  0  0  0  0  0  0  0
   -2.2137   -5.9854   -7.5098 O   0  0  0  0  0  0  0  0  0  0  0  0
   -3.6997   -4.9844   -9.1050 C   0  0  2  0  0  0  0  0  0  0  0  0
   -4.5963   -4.1734   -8.3529 O   0  0  0  0  0  0  0  0  0  0  0  0
   -4.2653   -6.3718   -9.2722 C   0  0  0  0  0  0  0  0  0  0  0  0
   -5.7500   -6.2779   -9.2723 O   0  0  0  0  0  0  0  0  0  0  0  0
    4.2691   -1.3506   -9.7635 H   0  0  0  0  0  0  0  0  0  0  0  0
    1.9404   -4.7619  -15.3714 H   0  0  0  0  0  0  0  0  0  0  0  0
   -0.2440   -7.1719  -16.5167 H   0  0  0  0  0  0  0  0  0  0  0  0
   -0.9359   -5.6072  -17.0641 H   0  0  0  0  0  0  0  0  0  0  0  0
    0.8437   -5.8513  -17.0641 H   0  0  0  0  0  0  0  0  0  0  0  0
   -2.8810   -6.8117  -13.7421 H   0  0  0  0  0  0  0  0  0  0  0  0
   -2.9811   -5.8293  -15.2426 H   0  0  0  0  0  0  0  0  0  0  0  0
   -2.0725   -7.3788  -15.2426 H   0  0  0  0  0  0  0  0  0  0  0  0
   -1.9215   -5.2917  -12.3051 H   0  0  0  0  0  0  0  0  0  0  0  0
   -0.9662   -3.0418   -9.7181 H   0  0  0  0  0  0  0  0  0  0  0  0
   -1.9050   -3.9444  -11.0279 H   0  0  0  0  0  0  0  0  0  0  0  0
   -0.2454   -5.2807   -8.8936 H   0  0  0  0  0  0  0  0  0  0  0  0
   -1.5951   -7.0402   -9.8060 H   0  0  0  0  0  0  0  0  0  0  0  0
   -2.1723   -3.9791   -8.0320 H   0  0  0  0  0  0  0  0  0  0  0  0
   -2.2483   -5.5796   -6.6074 H   0  0  0  0  0  0  0  0  0  0  0  0
   -3.5876   -4.5624  -10.1146 H   0  0  0  0  0  0  0  0  0  0  0  0
   -4.4385   -4.3161   -7.3860 H   0  0  0  0  0  0  0  0  0  0  0  0
   -3.9203   -6.8012  -10.2244 H   0  0  0  0  0  0  0  0  0  0  0  0
   -3.9279   -7.0188   -8.4490 H   0  0  0  0  0  0  0  0  0  0  0  0
   -6.0794   -6.2571   -8.3389 H   0  0  0  0  0  0  0  0  0  0  0  0
  1  2  1  0
  1 18  2  0
  2  3  2  0
  2  4  1  0
  4  5  1  0
  5  6  2  0
  5  7  1  0
  7  8  2  0
  7 18  1  0
  8  9  1  0
  9 10  1  0
  9 16  2  0
 10 11  2  0
 11 12  1  0
 11 13  1  0
 13 14  1  0
 13 15  2  0
 15 16  1  0
 16 17  1  0
 17 18  1  0
 17 19  1  0
 19 20  1  0
 20 21  1  0
 20 22  1  0
 22 23  1  0
 22 24  1  0
 24 25  1  0
 24 26  1  0
 26 27  1  0
  4 28  1  0
 10 29  1  0
 12 30  1  0
 12 31  1  0
 12 32  1  0
 14 33  1  0
 14 34  1  0
 14 35  1  0
 15 36  1  0
 19 37  1  0
 19 38  1  0
 20 39  1  1
 21 40  1  0
 22 41  1  1
 23 42  1  0
 24 43  1  6
 25 44  1  0
 26 45  1  0
 26 46  1  0
 27 47  1  0
M  END
>  <filename_input>  (12) 
7QF4_RBF_docked.sdf

>  <pdb_id>  (12) 
7QF4_RBF

>  <pose_rank>  (12) 
11

>  <num_atoms_heavy>  (12) 
27

>  <num_torsions>  (12) 
5

>  <pose>  (12) 
[1.2872254918713177, -2.725431098228536, -9.635968392119361, -2.1690785702324367, -0.3945746198493861, 2.1488450306224745, -6.357439470527909, -6.725339293039658, -10.21061131699397, -1.6823463616158698, -4.698969528709123]

>  <energy>  (12) 
-704.8517416003899

>  <inter_energy>  (12) 
-753.6002391421904

>  <intra_energy>  (12) 
36.74311406188758

>  <rmsd>  (12) 
4.98406

>  <sdf_rank>  (12) 
0

$$$$

     RDKit          3D

 47 49  0  0  0  0  0  0  0  0999 V2000
    1.9532   -3.0433  -10.7936 N   0  0  0  0  0  0  0  0  0  0  0  0
    2.9869   -2.1831  -10.9229 C   0  0  0  0  0  0  0  0  0  0  0  0
    3.4167   -1.5093   -9.9159 O   0  0  0  0  0  0  0  0  0  0  0  0
    3.5636   -1.9462  -12.1464 N   0  0  0  0  0  0  0  0  0  0  0  0
    3.1628   -2.5669  -13.3260 C   0  0  0  0  0  0  0  0  0  0  0  0
    3.6789   -2.2338  -14.3791 O   0  0  0  0  0  0  0  0  0  0  0  0
    2.1208   -3.5426  -13.1753 C   0  0  0  0  0  0  0  0  0  0  0  0
    1.7149   -4.2066  -14.2660 N   0  0  0  0  0  0  0  0  0  0  0  0
    0.6849   -5.0870  -14.0784 C   0  0  0  0  0  0  0  0  0  0  0  0
    0.2028   -5.8140  -15.2042 C   0  0  0  0  0  0  0  0  0  0  0  0
   -0.8415   -6.6990  -15.1171 C   0  0  0  0  0  0  0  0  0  0  0  0
   -1.3593   -7.4020  -16.3480 C   0  0  0  0  0  0  0  0  0  0  0  0
   -1.4237   -6.9477  -13.8733 C   0  0  0  0  0  0  0  0  0  0  0  0
   -2.5711   -7.9023  -13.6881 C   0  0  0  0  0  0  0  0  0  0  0  0
   -0.9994   -6.2189  -12.7532 C   0  0  0  0  0  0  0  0  0  0  0  0
    0.0503   -5.3094  -12.8413 C   0  0  0  0  0  0  0  0  0  0  0  0
    0.5056   -4.5775  -11.7467 N   0  0  0  0  0  0  0  0  0  0  0  0
    1.5603   -3.7044  -11.8990 C   0  0  0  0  0  0  0  0  0  0  0  0
   -0.1951   -4.6565  -10.4572 C   0  0  0  0  0  0  0  0  0  0  0  0
   -1.3210   -3.6854  -10.2588 C   0  0  2  0  0  0  0  0  0  0  0  0
   -0.7412   -2.5062   -9.7267 O   0  0  0  0  0  0  0  0  0  0  0  0
   -2.3804   -4.2344   -9.3064 C   0  0  2  0  0  0  0  0  0  0  0  0
   -1.7580   -4.7539   -8.1605 O   0  0  0  0  0  0  0  0  0  0  0  0
   -3.2915   -5.3025   -9.9218 C   0  0  2  0  0  0  0  0  0  0  0  0
   -4.6579   -4.9092   -9.8463 O   0  0  0  0  0  0  0  0  0  0  0  0
   -3.1056   -6.6663   -9.3068 C   0  0  0  0  0  0  0  0  0  0  0  0
   -4.4389   -7.1832   -8.8965 O   0  0  0  0  0  0  0  0  0  0  0  0
    4.3386   -1.2694  -12.1941 H   0  0  0  0  0  0  0  0  0  0  0  0
    0.6861   -5.6600  -16.1803 H   0  0  0  0  0  0  0  0  0  0  0  0
   -1.9867   -8.2539  -16.0471 H   0  0  0  0  0  0  0  0  0  0  0  0
   -1.9574   -6.6996  -16.9471 H   0  0  0  0  0  0  0  0  0  0  0  0
   -0.5111   -7.7649  -16.9471 H   0  0  0  0  0  0  0  0  0  0  0  0
   -2.7526   -8.0533  -12.6137 H   0  0  0  0  0  0  0  0  0  0  0  0
   -3.4743   -7.4854  -14.1575 H   0  0  0  0  0  0  0  0  0  0  0  0
   -2.3255   -8.8663  -14.1575 H   0  0  0  0  0  0  0  0  0  0  0  0
   -1.5051   -6.3686  -11.7879 H   0  0  0  0  0  0  0  0  0  0  0  0
   -0.6059   -5.6722  -10.3593 H   0  0  0  0  0  0  0  0  0  0  0  0
    0.5559   -4.3986   -9.6959 H   0  0  0  0  0  0  0  0  0  0  0  0
   -1.8334   -3.4926  -11.2129 H   0  0  0  0  0  0  0  0  0  0  0  0
   -0.7608   -2.5461   -8.7377 H   0  0  0  0  0  0  0  0  0  0  0  0
   -3.0325   -3.3848   -9.0555 H   0  0  0  0  0  0  0  0  0  0  0  0
   -2.1967   -4.3878   -7.3520 H   0  0  0  0  0  0  0  0  0  0  0  0
   -2.9953   -5.3863  -10.9778 H   0  0  0  0  0  0  0  0  0  0  0  0
   -4.9269   -4.8317   -8.8967 H   0  0  0  0  0  0  0  0  0  0  0  0
   -2.6538   -7.3472  -10.0431 H   0  0  0  0  0  0  0  0  0  0  0  0
   -2.4415   -6.5988   -8.4325 H   0  0  0  0  0  0  0  0  0  0  0  0
   -4.4946   -7.2048   -7.9083 H   0  0  0  0  0  0  0  0  0  0  0  0
  1  2  1  0
  1 18  2  0
  2  3  2  0
  2  4  1  0
  4  5  1  0
  5  6  2  0
  5  7  1  0
  7  8  2  0
  7 18  1  0
  8  9  1  0
  9 10  1  0
  9 16  2  0
 10 11  2  0
 11 12  1  0
 11 13  1  0
 13 14  1  0
 13 15  2  0
 15 16  1  0
 16 17  1  0
 17 18  1  0
 17 19  1  0
 19 20  1  0
 20 21  1  0
 20 22  1  0
 22 23  1  0
 22 24  1  0
 24 25  1  0
 24 26  1  0
 26 27  1  0
  4 28  1  0
 10 29  1  0
 12 30  1  0
 12 31  1  0
 12 32  1  0
 14 33  1  0
 14 34  1  0
 14 35  1  0
 15 36  1  0
 19 37  1  0
 19 38  1  0
 20 39  1  6
 21 40  1  0
 22 41  1  1
 23 42  1  0
 24 43  1  6
 25 44  1  0
 26 45  1  0
 26 46  1  0
 27 47  1  0
M  END
>  <filename_input>  (13) 
7QF4_RBF_docked.sdf

>  <pdb_id>  (13) 
7QF4_RBF

>  <pose_rank>  (13) 
12

>  <num_atoms_heavy>  (13) 
27

>  <num_torsions>  (13) 
5

>  <pose>  (13) 
[1.9532422750554592, -3.043335445650319, -10.793620872825944, -1.7170254857204101, -0.47080098538011755, 2.6738382860728094, 3.126749317158035, -0.8127256854602094, 6.118358561565468, -1.21384226831994, 1.1270505636570112]

>  <energy>  (13) 
-678.7858478699106

>  <inter_energy>  (13) 
-705.4697623994433

>  <intra_energy>  (13) 
15.490983761517146

>  <rmsd>  (13) 
4.87486

>  <sdf_rank>  (13) 
0

$$$$

     RDKit          3D

 47 49  0  0  0  0  0  0  0  0999 V2000
   -2.4220   -4.9422  -10.4928 N   0  0  0  0  0  0  0  0  0  0  0  0
   -3.3294   -4.8070   -9.5010 C   0  0  0  0  0  0  0  0  0  0  0  0
   -4.4224   -5.4839   -9.5076 O   0  0  0  0  0  0  0  0  0  0  0  0
   -3.1481   -3.8911   -8.4940 N   0  0  0  0  0  0  0  0  0  0  0  0
   -2.0376   -3.0581   -8.3939 C   0  0  0  0  0  0  0  0  0  0  0  0
   -2.0007   -2.2187   -7.5106 O   0  0  0  0  0  0  0  0  0  0  0  0
   -1.0342   -3.2598   -9.4004 C   0  0  0  0  0  0  0  0  0  0  0  0
    0.0797   -2.5178   -9.3392 N   0  0  0  0  0  0  0  0  0  0  0  0
    0.9806   -2.7113  -10.3503 C   0  0  0  0  0  0  0  0  0  0  0  0
    2.1794   -1.9423  -10.3447 C   0  0  0  0  0  0  0  0  0  0  0  0
    3.1280   -2.0501  -11.3295 C   0  0  0  0  0  0  0  0  0  0  0  0
    4.3548   -1.1713  -11.3159 C   0  0  0  0  0  0  0  0  0  0  0  0
    2.9502   -2.9861  -12.3493 C   0  0  0  0  0  0  0  0  0  0  0  0
    3.9400   -3.1704  -13.4665 C   0  0  0  0  0  0  0  0  0  0  0  0
    1.7628   -3.7297  -12.4058 C   0  0  0  0  0  0  0  0  0  0  0  0
    0.7917   -3.6120  -11.4159 C   0  0  0  0  0  0  0  0  0  0  0  0
   -0.3937   -4.3438  -11.4339 N   0  0  0  0  0  0  0  0  0  0  0  0
   -1.3071   -4.1912  -10.4139 C   0  0  0  0  0  0  0  0  0  0  0  0
   -0.7201   -5.2006  -12.5827 C   0  0  0  0  0  0  0  0  0  0  0  0
    0.3309   -5.3027  -13.6479 C   0  0  2  0  0  0  0  0  0  0  0  0
    0.3420   -4.0534  -14.3179 O   0  0  0  0  0  0  0  0  0  0  0  0
    0.0320   -6.4316  -14.6313 C   0  0  2  0  0  0  0  0  0  0  0  0
    0.2767   -5.9905  -15.9413 O   0  0  0  0  0  0  0  0  0  0  0  0
   -1.3920   -6.9910  -14.5381 C   0  0  2  0  0  0  0  0  0  0  0  0
   -1.3819   -8.4143  -14.5767 O   0  0  0  0  0  0  0  0  0  0  0  0
   -2.3138   -6.4461  -15.5993 C   0  0  0  0  0  0  0  0  0  0  0  0
   -3.6847   -6.3530  -15.0292 O   0  0  0  0  0  0  0  0  0  0  0  0
   -3.8770   -3.8161   -7.7702 H   0  0  0  0  0  0  0  0  0  0  0  0
    2.3508   -1.2353   -9.5196 H   0  0  0  0  0  0  0  0  0  0  0  0
    4.6452   -0.9632  -10.2755 H   0  0  0  0  0  0  0  0  0  0  0  0
    5.1797   -1.6852  -11.8311 H   0  0  0  0  0  0  0  0  0  0  0  0
    4.1336   -0.2249  -11.8311 H   0  0  0  0  0  0  0  0  0  0  0  0
    4.9387   -3.3563  -13.0446 H   0  0  0  0  0  0  0  0  0  0  0  0
    3.6382   -4.0278  -14.0860 H   0  0  0  0  0  0  0  0  0  0  0  0
    3.9670   -2.2619  -14.0860 H   0  0  0  0  0  0  0  0  0  0  0  0
    1.5959   -4.4182  -13.2473 H   0  0  0  0  0  0  0  0  0  0  0  0
   -0.9127   -6.2145  -12.2020 H   0  0  0  0  0  0  0  0  0  0  0  0
   -1.5877   -4.7286  -13.0670 H   0  0  0  0  0  0  0  0  0  0  0  0
    1.3089   -5.5336  -13.2005 H   0  0  0  0  0  0  0  0  0  0  0  0
    0.3486   -3.3215  -13.6513 H   0  0  0  0  0  0  0  0  0  0  0  0
    0.7033   -7.2587  -14.3571 H   0  0  0  0  0  0  0  0  0  0  0  0
    0.7569   -5.1252  -15.9139 H   0  0  0  0  0  0  0  0  0  0  0  0
   -1.7897   -6.6566  -13.5685 H   0  0  0  0  0  0  0  0  0  0  0  0
   -1.3794   -8.7695  -13.6526 H   0  0  0  0  0  0  0  0  0  0  0  0
   -1.9725   -5.4478  -15.9106 H   0  0  0  0  0  0  0  0  0  0  0  0
   -2.3139   -7.1100  -16.4764 H   0  0  0  0  0  0  0  0  0  0  0  0
   -3.6319   -6.3566  -14.0406 H   0  0  0  0  0  0  0  0  0  0  0  0
  1  2  1  0
  1 18  2  0
  2  3  2  0
  2  4  1  0
  4  5  1  0
  5  6  2  0
  5  7  1  0
  7  8  2  0
  7 18  1  0
  8  9  1  0
  9 10  1  0
  9 16  2  0
 10 11  2  0
 11 12  1  0
 11 13  1  0
 13 14  1  0
 13 15  2  0
 15 16  1  0
 16 17  1  0
 17 18  1  0
 17 19  1  0
 19 20  1  0
 20 21  1  0
 20 22  1  0
 22 23  1  0
 22 24  1  0
 24 25  1  0
 24 26  1  0
 26 27  1  0
  4 28  1  0
 10 29  1  0
 12 30  1  0
 12 31  1  0
 12 32  1  0
 14 33  1  0
 14 34  1  0
 14 35  1  0
 15 36  1  0
 19 37  1  0
 19 38  1  0
 20 39  1  1
 21 40  1  0
 22 41  1  1
 23 42  1  0
 24 43  1  1
 25 44  1  0
 26 45  1  0
 26 46  1  0
 27 47  1  0
M  END
>  <filename_input>  (14) 
7QF4_RBF_docked.sdf

>  <pdb_id>  (14) 
7QF4_RBF

>  <pose_rank>  (14) 
13

>  <num_atoms_heavy>  (14) 
27

>  <num_torsions>  (14) 
5

>  <pose>  (14) 
[-2.422006363633204, -4.942185408623302, -10.492796759980482, -2.796655248294311, -1.9333182863899407, -0.22650828623946392, 4.742568097280799, -0.5339555456830845, 1.3918372282912321, -1.4491144025360034, 2.6051680526016816]

>  <energy>  (14) 
-719.1130691808642

>  <inter_energy>  (14) 
-819.1373418863242

>  <intra_energy>  (14) 
110.23293255705939

>  <rmsd>  (14) 
5.35106

>  <sdf_rank>  (14) 
0

$$$$

     RDKit          3D

 47 49  0  0  0  0  0  0  0  0999 V2000
    1.5152   -4.0916  -12.1265 N   0  0  0  0  0  0  0  0  0  0  0  0
    2.3768   -3.0510  -12.1163 C   0  0  0  0  0  0  0  0  0  0  0  0
    3.3432   -2.9840  -12.9615 O   0  0  0  0  0  0  0  0  0  0  0  0
    2.2927   -2.0701  -11.1589 N   0  0  0  0  0  0  0  0  0  0  0  0
    1.3294   -2.0471  -10.1546 C   0  0  0  0  0  0  0  0  0  0  0  0
    1.3818   -1.1801   -9.2991 O   0  0  0  0  0  0  0  0  0  0  0  0
    0.3632   -3.1069  -10.2152 C   0  0  0  0  0  0  0  0  0  0  0  0
   -0.6162   -3.1216   -9.3010 N   0  0  0  0  0  0  0  0  0  0  0  0
   -1.4799   -4.1802   -9.3703 C   0  0  0  0  0  0  0  0  0  0  0  0
   -2.5354   -4.2557   -8.4170 C   0  0  0  0  0  0  0  0  0  0  0  0
   -3.4335   -5.2921   -8.3934 C   0  0  0  0  0  0  0  0  0  0  0  0
   -4.4991   -5.3629   -7.3271 C   0  0  0  0  0  0  0  0  0  0  0  0
   -3.3554   -6.2857   -9.3703 C   0  0  0  0  0  0  0  0  0  0  0  0
   -4.2993   -7.4556   -9.4187 C   0  0  0  0  0  0  0  0  0  0  0  0
   -2.3041   -6.2621  -10.2979 C   0  0  0  0  0  0  0  0  0  0  0  0
   -1.3825   -5.2195  -10.3152 C   0  0  0  0  0  0  0  0  0  0  0  0
   -0.3334   -5.1577  -11.2300 N   0  0  0  0  0  0  0  0  0  0  0  0
    0.5353   -4.0888  -11.2028 C   0  0  0  0  0  0  0  0  0  0  0  0
   -0.0890   -6.2725  -12.1560 C   0  0  0  0  0  0  0  0  0  0  0  0
   -1.2931   -6.8127  -12.8689 C   0  0  2  0  0  0  0  0  0  0  0  0
   -1.2353   -8.2230  -12.7365 O   0  0  0  0  0  0  0  0  0  0  0  0
   -1.3028   -6.4163  -14.3432 C   0  0  2  0  0  0  0  0  0  0  0  0
   -2.5195   -6.8044  -14.9260 O   0  0  0  0  0  0  0  0  0  0  0  0
   -0.1392   -6.9895  -15.1599 C   0  0  2  0  0  0  0  0  0  0  0  0
    1.0500   -6.2359  -14.9473 O   0  0  0  0  0  0  0  0  0  0  0  0
   -0.4402   -7.0858  -16.6339 C   0  0  0  0  0  0  0  0  0  0  0  0
   -0.4573   -5.7108  -17.2016 O   0  0  0  0  0  0  0  0  0  0  0  0
    2.9833   -1.3064  -11.1856 H   0  0  0  0  0  0  0  0  0  0  0  0
   -2.6340   -3.4527   -7.6717 H   0  0  0  0  0  0  0  0  0  0  0  0
   -4.0268   -5.3315   -6.3341 H   0  0  0  0  0  0  0  0  0  0  0  0
   -5.1831   -4.5082   -7.4350 H   0  0  0  0  0  0  0  0  0  0  0  0
   -5.0641   -6.3005   -7.4350 H   0  0  0  0  0  0  0  0  0  0  0  0
   -4.5503   -7.7667   -8.3939 H   0  0  0  0  0  0  0  0  0  0  0  0
   -5.2179   -7.1638   -9.9487 H   0  0  0  0  0  0  0  0  0  0  0  0
   -3.8200   -8.2918   -9.9487 H   0  0  0  0  0  0  0  0  0  0  0  0
   -2.2062   -7.0821  -11.0245 H   0  0  0  0  0  0  0  0  0  0  0  0
    0.6256   -5.9268  -12.9174 H   0  0  0  0  0  0  0  0  0  0  0  0
    0.2817   -7.0995  -11.5325 H   0  0  0  0  0  0  0  0  0  0  0  0
   -2.2144   -6.4000  -12.4319 H   0  0  0  0  0  0  0  0  0  0  0  0
   -1.2255   -8.4642  -11.7763 H   0  0  0  0  0  0  0  0  0  0  0  0
   -1.1813   -5.3233  -14.3645 H   0  0  0  0  0  0  0  0  0  0  0  0
   -3.1747   -7.0134  -14.2138 H   0  0  0  0  0  0  0  0  0  0  0  0
    0.0122   -8.0171  -14.7979 H   0  0  0  0  0  0  0  0  0  0  0  0
    1.2079   -6.1358  -13.9751 H   0  0  0  0  0  0  0  0  0  0  0  0
    0.3363   -7.6840  -17.1332 H   0  0  0  0  0  0  0  0  0  0  0  0
   -1.4154   -7.5705  -16.7892 H   0  0  0  0  0  0  0  0  0  0  0  0
   -0.4656   -5.0497  -16.4647 H   0  0  0  0  0  0  0  0  0  0  0  0
  1  2  1  0
  1 18  2  0
  2  3  2  0
  2  4  1  0
  4  5  1  0
  5  6  2  0
  5  7  1  0
  7  8  2  0
  7 18  1  0
  8  9  1  0
  9 10  1  0
  9 16  2  0
 10 11  2  0
 11 12  1  0
 11 13  1  0
 13 14  1  0
 13 15  2  0
 15 16  1  0
 16 17  1  0
 17 18  1  0
 17 19  1  0
 19 20  1  0
 20 21  1  0
 20 22  1  0
 22 23  1  0
 22 24  1  0
 24 25  1  0
 24 26  1  0
 26 27  1  0
  4 28  1  0
 10 29  1  0
 12 30  1  0
 12 31  1  0
 12 32  1  0
 14 33  1  0
 14 34  1  0
 14 35  1  0
 15 36  1  0
 19 37  1  0
 19 38  1  0
 20 39  1  1
 21 40  1  0
 22 41  1  1
 23 42  1  0
 24 43  1  1
 25 44  1  0
 26 45  1  0
 26 46  1  0
 27 47  1  0
M  END
>  <filename_input>  (15) 
7QF4_RBF_docked.sdf

>  <pdb_id>  (15) 
7QF4_RBF

>  <pose_rank>  (15) 
14

>  <num_atoms_heavy>  (15) 
27

>  <num_torsions>  (15) 
5

>  <pose>  (15) 
[1.5152165076514805, -4.091612324602706, -12.126462008705772, -1.9479184063293942, 2.95168421172139, -2.1585965839840036, 18.051640998423142, 4.694875393708093, -10.300041942275893, 5.818215313489331, 0.13859081305081267]

>  <energy>  (15) 
-728.1745447217454

>  <inter_energy>  (15) 
-767.9834872494554

>  <intra_energy>  (15) 
42.42576839409372

>  <rmsd>  (15) 
6.6271

>  <sdf_rank>  (15) 
0

$$$$

     RDKit          3D

 47 49  0  0  0  0  0  0  0  0999 V2000
   -0.6070   -2.8786   -9.1870 N   0  0  0  0  0  0  0  0  0  0  0  0
   -1.3692   -2.5471   -8.1219 C   0  0  0  0  0  0  0  0  0  0  0  0
   -0.9523   -1.7018   -7.2476 O   0  0  0  0  0  0  0  0  0  0  0  0
   -2.5802   -3.1552   -7.8997 N   0  0  0  0  0  0  0  0  0  0  0  0
   -3.1268   -4.1238   -8.7366 C   0  0  0  0  0  0  0  0  0  0  0  0
   -4.1700   -4.6673   -8.4162 O   0  0  0  0  0  0  0  0  0  0  0  0
   -2.3567   -4.4156   -9.9122 C   0  0  0  0  0  0  0  0  0  0  0  0
   -2.8455   -5.3106  -10.7813 N   0  0  0  0  0  0  0  0  0  0  0  0
   -2.0497   -5.5914  -11.8579 C   0  0  0  0  0  0  0  0  0  0  0  0
   -2.5118   -6.5441  -12.8105 C   0  0  0  0  0  0  0  0  0  0  0  0
   -1.7722   -6.9072  -13.9071 C   0  0  0  0  0  0  0  0  0  0  0  0
   -2.2746   -7.9660  -14.8579 C   0  0  0  0  0  0  0  0  0  0  0  0
   -0.5450   -6.2846  -14.1396 C   0  0  0  0  0  0  0  0  0  0  0  0
    0.3285   -6.6216  -15.3166 C   0  0  0  0  0  0  0  0  0  0  0  0
   -0.0435   -5.3726  -13.2001 C   0  0  0  0  0  0  0  0  0  0  0  0
   -0.7852   -5.0130  -12.0788 C   0  0  0  0  0  0  0  0  0  0  0  0
   -0.3233   -4.1014  -11.1317 N   0  0  0  0  0  0  0  0  0  0  0  0
   -1.1149   -3.7771  -10.0518 C   0  0  0  0  0  0  0  0  0  0  0  0
    1.0404   -3.5611  -11.2244 C   0  0  0  0  0  0  0  0  0  0  0  0
    1.1615   -2.1682  -11.7676 C   0  0  2  0  0  0  0  0  0  0  0  0
    1.1481   -2.2886  -13.1800 O   0  0  0  0  0  0  0  0  0  0  0  0
    2.4479   -1.4897  -11.3031 C   0  0  2  0  0  0  0  0  0  0  0  0
    3.3637   -1.4415  -12.3659 O   0  0  0  0  0  0  0  0  0  0  0  0
    3.1089   -2.1511  -10.0885 C   0  0  2  0  0  0  0  0  0  0  0  0
    2.8787   -1.3894   -8.9078 O   0  0  0  0  0  0  0  0  0  0  0  0
    4.5852   -2.3926  -10.2752 C   0  0  0  0  0  0  0  0  0  0  0  0
    4.9742   -3.5781   -9.4650 O   0  0  0  0  0  0  0  0  0  0  0  0
   -3.1157   -2.8782   -7.0646 H   0  0  0  0  0  0  0  0  0  0  0  0
   -3.4990   -7.0060  -12.6612 H   0  0  0  0  0  0  0  0  0  0  0  0
   -2.6767   -8.8136  -14.2836 H   0  0  0  0  0  0  0  0  0  0  0  0
   -3.0680   -7.5431  -15.4916 H   0  0  0  0  0  0  0  0  0  0  0  0
   -1.4451   -8.3131  -15.4916 H   0  0  0  0  0  0  0  0  0  0  0  0
    1.2987   -6.9960  -14.9578 H   0  0  0  0  0  0  0  0  0  0  0  0
   -0.1604   -7.3957  -15.9263 H   0  0  0  0  0  0  0  0  0  0  0  0
    0.4862   -5.7198  -15.9263 H   0  0  0  0  0  0  0  0  0  0  0  0
    0.9536   -4.9337  -13.3520 H   0  0  0  0  0  0  0  0  0  0  0  0
    1.4738   -3.5667  -10.2134 H   0  0  0  0  0  0  0  0  0  0  0  0
    1.5661   -4.2061  -11.9438 H   0  0  0  0  0  0  0  0  0  0  0  0
    0.3334   -1.5419  -11.4043 H   0  0  0  0  0  0  0  0  0  0  0  0
    1.0425   -3.2409  -13.4291 H   0  0  0  0  0  0  0  0  0  0  0  0
    2.1584   -0.4788  -10.9802 H   0  0  0  0  0  0  0  0  0  0  0  0
    4.2847   -1.3931  -12.0059 H   0  0  0  0  0  0  0  0  0  0  0  0
    2.6356   -3.1384   -9.9821 H   0  0  0  0  0  0  0  0  0  0  0  0
    3.0493   -1.9538   -8.1125 H   0  0  0  0  0  0  0  0  0  0  0  0
    4.7990   -2.5823  -11.3374 H   0  0  0  0  0  0  0  0  0  0  0  0
    5.1560   -1.5099   -9.9509 H   0  0  0  0  0  0  0  0  0  0  0  0
    4.9020   -3.3581   -8.5025 H   0  0  0  0  0  0  0  0  0  0  0  0
  1  2  1  0
  1 18  2  0
  2  3  2  0
  2  4  1  0
  4  5  1  0
  5  6  2  0
  5  7  1  0
  7  8  2  0
  7 18  1  0
  8  9  1  0
  9 10  1  0
  9 16  2  0
 10 11  2  0
 11 12  1  0
 11 13  1  0
 13 14  1  0
 13 15  2  0
 15 16  1  0
 16 17  1  0
 17 18  1  0
 17 19  1  0
 19 20  1  0
 20 21  1  0
 20 22  1  0
 22 23  1  0
 22 24  1  0
 24 25  1  0
 24 26  1  0
 26 27  1  0
  4 28  1  0
 10 29  1  0
 12 30  1  0
 12 31  1  0
 12 32  1  0
 14 33  1  0
 14 34  1  0
 14 35  1  0
 15 36  1  0
 19 37  1  0
 19 38  1  0
 20 39  1  1
 21 40  1  0
 22 41  1  1
 23 42  1  0
 24 43  1  1
 25 44  1  0
 26 45  1  0
 26 46  1  0
 27 47  1  0
M  END
>  <filename_input>  (16) 
7QF4_RBF_docked.sdf

>  <pdb_id>  (16) 
7QF4_RBF

>  <pose_rank>  (16) 
15

>  <num_atoms_heavy>  (16) 
27

>  <num_torsions>  (16) 
5

>  <pose>  (16) 
[-0.607017572225535, -2.8785944391060494, -9.187016627007184, -1.2590243231480198, 1.7893218512030686, -1.003378388436344, -6.111686906874593, -0.7350121070392469, 0.8439303335014096, -0.8985189853132903, -3.7484987351394006]

>  <energy>  (16) 
-673.5354815195051

>  <inter_energy>  (16) 
-691.47493767988

>  <intra_energy>  (16) 
10.28940467301388

>  <rmsd>  (16) 
6.87638

>  <sdf_rank>  (16) 
0

$$$$

     RDKit          3D

 47 49  0  0  0  0  0  0  0  0999 V2000
    1.2194   -3.1951  -11.9435 N   0  0  0  0  0  0  0  0  0  0  0  0
    2.3108   -2.4753  -11.6030 C   0  0  0  0  0  0  0  0  0  0  0  0
    3.1866   -2.1448  -12.4842 O   0  0  0  0  0  0  0  0  0  0  0  0
    2.5570   -2.1363  -10.2953 N   0  0  0  0  0  0  0  0  0  0  0  0
    1.7204   -2.4746   -9.2356 C   0  0  0  0  0  0  0  0  0  0  0  0
    2.0611   -2.2013   -8.0974 O   0  0  0  0  0  0  0  0  0  0  0  0
    0.5190   -3.1665   -9.6072 C   0  0  0  0  0  0  0  0  0  0  0  0
   -0.3504   -3.4868   -8.6393 N   0  0  0  0  0  0  0  0  0  0  0  0
   -1.4534   -4.1907   -9.0384 C   0  0  0  0  0  0  0  0  0  0  0  0
   -2.4079   -4.5693   -8.0514 C   0  0  0  0  0  0  0  0  0  0  0  0
   -3.5306   -5.2970   -8.3537 C   0  0  0  0  0  0  0  0  0  0  0  0
   -4.4839   -5.7285   -7.2663 C   0  0  0  0  0  0  0  0  0  0  0  0
   -3.7875   -5.6354   -9.6831 C   0  0  0  0  0  0  0  0  0  0  0  0
   -4.9938   -6.4297  -10.1022 C   0  0  0  0  0  0  0  0  0  0  0  0
   -2.8478   -5.3129  -10.6725 C   0  0  0  0  0  0  0  0  0  0  0  0
   -1.7004   -4.5873  -10.3666 C   0  0  0  0  0  0  0  0  0  0  0  0
   -0.7521   -4.2391  -11.3261 N   0  0  0  0  0  0  0  0  0  0  0  0
    0.3548   -3.5056  -10.9589 C   0  0  0  0  0  0  0  0  0  0  0  0
   -0.8743   -4.7338  -12.7047 C   0  0  0  0  0  0  0  0  0  0  0  0
   -0.3403   -6.1121  -12.9597 C   0  0  2  0  0  0  0  0  0  0  0  0
    0.8265   -5.9481  -13.7478 O   0  0  0  0  0  0  0  0  0  0  0  0
   -1.3570   -6.9868  -13.6893 C   0  0  2  0  0  0  0  0  0  0  0  0
   -1.5046   -8.2045  -13.0068 O   0  0  0  0  0  0  0  0  0  0  0  0
   -1.0158   -7.2621  -15.1581 C   0  0  2  0  0  0  0  0  0  0  0  0
   -0.0285   -8.2822  -15.2673 O   0  0  0  0  0  0  0  0  0  0  0  0
   -0.5779   -6.0288  -15.9063 C   0  0  0  0  0  0  0  0  0  0  0  0
    0.8871   -6.1204  -16.1479 O   0  0  0  0  0  0  0  0  0  0  0  0
    3.4113   -1.6002  -10.0862 H   0  0  0  0  0  0  0  0  0  0  0  0
   -2.2384   -4.2667   -7.0075 H   0  0  0  0  0  0  0  0  0  0  0  0
   -4.0348   -5.5252   -6.2830 H   0  0  0  0  0  0  0  0  0  0  0  0
   -5.4263   -5.1692   -7.3617 H   0  0  0  0  0  0  0  0  0  0  0  0
   -4.6856   -6.8057   -7.3617 H   0  0  0  0  0  0  0  0  0  0  0  0
   -5.5293   -6.7823   -9.2083 H   0  0  0  0  0  0  0  0  0  0  0  0
   -5.6612   -5.7938  -10.7024 H   0  0  0  0  0  0  0  0  0  0  0  0
   -4.6733   -7.2940  -10.7024 H   0  0  0  0  0  0  0  0  0  0  0  0
   -3.0206   -5.6392  -11.7087 H   0  0  0  0  0  0  0  0  0  0  0  0
   -1.9421   -4.7326  -12.9690 H   0  0  0  0  0  0  0  0  0  0  0  0
   -0.2576   -4.0595  -13.3170 H   0  0  0  0  0  0  0  0  0  0  0  0
   -0.1215   -6.6203  -12.0089 H   0  0  0  0  0  0  0  0  0  0  0  0
    1.6120   -5.8377  -13.1554 H   0  0  0  0  0  0  0  0  0  0  0  0
   -2.2980   -6.4171  -13.6962 H   0  0  0  0  0  0  0  0  0  0  0  0
   -1.4847   -8.0404  -12.0308 H   0  0  0  0  0  0  0  0  0  0  0  0
   -1.9480   -7.6066  -15.6297 H   0  0  0  0  0  0  0  0  0  0  0  0
    0.2502   -8.5701  -14.3620 H   0  0  0  0  0  0  0  0  0  0  0  0
   -1.1097   -5.9692  -16.8673 H   0  0  0  0  0  0  0  0  0  0  0  0
   -0.8079   -5.1285  -15.3176 H   0  0  0  0  0  0  0  0  0  0  0  0
    1.3634   -6.1502  -15.2806 H   0  0  0  0  0  0  0  0  0  0  0  0
  1  2  1  0
  1 18  2  0
  2  3  2  0
  2  4  1  0
  4  5  1  0
  5  6  2  0
  5  7  1  0
  7  8  2  0
  7 18  1  0
  8  9  1  0
  9 10  1  0
  9 16  2  0
 10 11  2  0
 11 12  1  0
 11 13  1  0
 13 14  1  0
 13 15  2  0
 15 16  1  0
 16 17  1  0
 17 18  1  0
 17 19  1  0
 19 20  1  0
 20 21  1  0
 20 22  1  0
 22 23  1  0
 22 24  1  0
 24 25  1  0
 24 26  1  0
 26 27  1  0
  4 28  1  0
 10 29  1  0
 12 30  1  0
 12 31  1  0
 12 32  1  0
 14 33  1  0
 14 34  1  0
 14 35  1  0
 15 36  1  0
 19 37  1  0
 19 38  1  0
 20 39  1  1
 21 40  1  0
 22 41  1  6
 23 42  1  0
 24 43  1  6
 25 44  1  0
 26 45  1  0
 26 46  1  0
 27 47  1  0
M  END
>  <filename_input>  (17) 
7QF4_RBF_docked.sdf

>  <pdb_id>  (17) 
7QF4_RBF

>  <pose_rank>  (17) 
16

>  <num_atoms_heavy>  (17) 
27

>  <num_torsions>  (17) 
5

>  <pose>  (17) 
[1.2193901199010595, -3.1951488356171893, -11.943494405910128, -2.21300585856086, 3.305985085907016, -0.8584052726266981, 22.065507859239872, 23.937046976184536, 15.59640453153959, -3.98604415081894, 0.7643924875963096]

>  <energy>  (17) 
-707.8104793297076

>  <inter_energy>  (17) 
-772.8867548526686

>  <intra_energy>  (17) 
78.209001079215

>  <rmsd>  (17) 
6.68008

>  <sdf_rank>  (17) 
0

$$$$

     RDKit          3D

 47 49  0  0  0  0  0  0  0  0999 V2000
    0.5202   -2.6310   -9.6304 N   0  0  0  0  0  0  0  0  0  0  0  0
    1.5303   -1.8625   -9.1672 C   0  0  0  0  0  0  0  0  0  0  0  0
    1.4364   -1.2576   -8.0367 O   0  0  0  0  0  0  0  0  0  0  0  0
    2.6577   -1.6440   -9.9201 N   0  0  0  0  0  0  0  0  0  0  0  0
    2.8666   -2.1937  -11.1816 C   0  0  0  0  0  0  0  0  0  0  0  0
    3.8621   -1.8787  -11.8109 O   0  0  0  0  0  0  0  0  0  0  0  0
    1.8314   -3.0770  -11.6383 C   0  0  0  0  0  0  0  0  0  0  0  0
    1.9885   -3.6719  -12.8285 N   0  0  0  0  0  0  0  0  0  0  0  0
    0.9510   -4.4624  -13.2408 C   0  0  0  0  0  0  0  0  0  0  0  0
    1.0562   -5.1124  -14.5038 C   0  0  0  0  0  0  0  0  0  0  0  0
    0.0566   -5.9034  -15.0103 C   0  0  0  0  0  0  0  0  0  0  0  0
    0.1854   -6.5234  -16.3802 C   0  0  0  0  0  0  0  0  0  0  0  0
   -1.0865   -6.1339  -14.2436 C   0  0  0  0  0  0  0  0  0  0  0  0
   -2.2286   -6.9877  -14.7216 C   0  0  0  0  0  0  0  0  0  0  0  0
   -1.2385   -5.4768  -13.0143 C   0  0  0  0  0  0  0  0  0  0  0  0
   -0.2322   -4.6619  -12.5042 C   0  0  0  0  0  0  0  0  0  0  0  0
   -0.3444   -4.0038  -11.2813 N   0  0  0  0  0  0  0  0  0  0  0  0
    0.6961   -3.2238  -10.8267 C   0  0  0  0  0  0  0  0  0  0  0  0
   -1.6021   -4.0561  -10.5225 C   0  0  0  0  0  0  0  0  0  0  0  0
   -1.8174   -5.2838   -9.6882 C   0  0  2  0  0  0  0  0  0  0  0  0
   -1.5609   -6.3913  -10.5351 O   0  0  0  0  0  0  0  0  0  0  0  0
   -3.2402   -5.3520   -9.1387 C   0  0  2  0  0  0  0  0  0  0  0  0
   -4.1041   -4.6349   -9.9813 O   0  0  0  0  0  0  0  0  0  0  0  0
   -3.3881   -4.8413   -7.7010 C   0  0  2  0  0  0  0  0  0  0  0  0
   -2.4596   -5.4860   -6.8352 O   0  0  0  0  0  0  0  0  0  0  0  0
   -4.7892   -4.9825   -7.1629 C   0  0  0  0  0  0  0  0  0  0  0  0
   -4.9934   -6.3963   -6.7471 O   0  0  0  0  0  0  0  0  0  0  0  0
    3.3921   -1.0374   -9.5281 H   0  0  0  0  0  0  0  0  0  0  0  0
    1.9734   -4.9748  -15.0951 H   0  0  0  0  0  0  0  0  0  0  0  0
    0.4081   -7.5957  -16.2779 H   0  0  0  0  0  0  0  0  0  0  0  0
   -0.7584   -6.3958  -16.9306 H   0  0  0  0  0  0  0  0  0  0  0  0
    1.0003   -6.0305  -16.9306 H   0  0  0  0  0  0  0  0  0  0  0  0
   -2.7710   -7.3933  -13.8548 H   0  0  0  0  0  0  0  0  0  0  0  0
   -2.9128   -6.3779  -15.3298 H   0  0  0  0  0  0  0  0  0  0  0  0
   -1.8372   -7.8165  -15.3298 H   0  0  0  0  0  0  0  0  0  0  0  0
   -2.1693   -5.6078  -12.4430 H   0  0  0  0  0  0  0  0  0  0  0  0
   -1.6264   -3.1848   -9.8514 H   0  0  0  0  0  0  0  0  0  0  0  0
   -2.4027   -4.0665  -11.2768 H   0  0  0  0  0  0  0  0  0  0  0  0
   -1.1490   -5.2757   -8.8146 H   0  0  0  0  0  0  0  0  0  0  0  0
   -1.3753   -7.1924   -9.9837 H   0  0  0  0  0  0  0  0  0  0  0  0
   -3.5045   -6.4195   -9.1120 H   0  0  0  0  0  0  0  0  0  0  0  0
   -4.7382   -4.1085   -9.4328 H   0  0  0  0  0  0  0  0  0  0  0  0
   -3.1667   -3.7644   -7.7342 H   0  0  0  0  0  0  0  0  0  0  0  0
   -2.7107   -5.3117   -5.8935 H   0  0  0  0  0  0  0  0  0  0  0  0
   -4.9231   -4.3177   -6.2968 H   0  0  0  0  0  0  0  0  0  0  0  0
   -5.5205   -4.7074   -7.9372 H   0  0  0  0  0  0  0  0  0  0  0  0
   -5.0014   -6.4516   -5.7587 H   0  0  0  0  0  0  0  0  0  0  0  0
  1  2  1  0
  1 18  2  0
  2  3  2  0
  2  4  1  0
  4  5  1  0
  5  6  2  0
  5  7  1  0
  7  8  2  0
  7 18  1  0
  8  9  1  0
  9 10  1  0
  9 16  2  0
 10 11  2  0
 11 12  1  0
 11 13  1  0
 13 14  1  0
 13 15  2  0
 15 16  1  0
 16 17  1  0
 17 18  1  0
 17 19  1  0
 19 20  1  0
 20 21  1  0
 20 22  1  0
 22 23  1  0
 22 24  1  0
 24 25  1  0
 24 26  1  0
 26 27  1  0
  4 28  1  0
 10 29  1  0
 12 30  1  0
 12 31  1  0
 12 32  1  0
 14 33  1  0
 14 34  1  0
 14 35  1  0
 15 36  1  0
 19 37  1  0
 19 38  1  0
 20 39  1  1
 21 40  1  0
 22 41  1  1
 23 42  1  0
 24 43  1  6
 25 44  1  0
 26 45  1  0
 26 46  1  0
 27 47  1  0
M  END
>  <filename_input>  (18) 
7QF4_RBF_docked.sdf

>  <pdb_id>  (18) 
7QF4_RBF

>  <pose_rank>  (18) 
17

>  <num_atoms_heavy>  (18) 
27

>  <num_torsions>  (18) 
5

>  <pose>  (18) 
[0.5202376074087081, -2.6310321839692454, -9.630408869015884, -2.35778034401466, -0.4213111159365265, 2.113081612041606, -12.751758805315232, 12.419821989449877, -0.5471730347873756, -6.2852956456077695, -6.014327855686345]

>  <energy>  (18) 
-716.3639671401135

>  <inter_energy>  (18) 
-764.3420963159604

>  <intra_energy>  (18) 
45.582300013594555

>  <rmsd>  (18) 
4.97886

>  <sdf_rank>  (18) 
0

$$$$

     RDKit          3D

 47 49  0  0  0  0  0  0  0  0999 V2000
   -0.0331   -3.0202   -9.4616 N   0  0  0  0  0  0  0  0  0  0  0  0
    0.9108   -2.2389   -8.8925 C   0  0  0  0  0  0  0  0  0  0  0  0
    0.7132   -1.6912   -7.7464 O   0  0  0  0  0  0  0  0  0  0  0  0
    2.0798   -1.9457   -9.5507 N   0  0  0  0  0  0  0  0  0  0  0  0
    2.3992   -2.4282  -10.8166 C   0  0  0  0  0  0  0  0  0  0  0  0
    3.4242   -2.0491  -11.3569 O   0  0  0  0  0  0  0  0  0  0  0  0
    1.4342   -3.3252  -11.3861 C   0  0  0  0  0  0  0  0  0  0  0  0
    1.6987   -3.8579  -12.5867 N   0  0  0  0  0  0  0  0  0  0  0  0
    0.7246   -4.6645  -13.1081 C   0  0  0  0  0  0  0  0  0  0  0  0
    0.9447   -5.2506  -14.3874 C   0  0  0  0  0  0  0  0  0  0  0  0
    0.0151   -6.0519  -15.0000 C   0  0  0  0  0  0  0  0  0  0  0  0
    0.2652   -6.6023  -16.3827 C   0  0  0  0  0  0  0  0  0  0  0  0
   -1.1700   -6.3583  -14.3296 C   0  0  0  0  0  0  0  0  0  0  0  0
   -2.2412   -7.2287  -14.9269 C   0  0  0  0  0  0  0  0  0  0  0  0
   -1.4346   -5.7651  -13.0870 C   0  0  0  0  0  0  0  0  0  0  0  0
   -0.4996   -4.9399  -12.4694 C   0  0  0  0  0  0  0  0  0  0  0  0
   -0.7241   -4.3440  -11.2302 N   0  0  0  0  0  0  0  0  0  0  0  0
    0.2504   -3.5498  -10.6668 C   0  0  0  0  0  0  0  0  0  0  0  0
   -2.0297   -4.4761  -10.5683 C   0  0  0  0  0  0  0  0  0  0  0  0
   -2.1632   -5.6097   -9.5951 C   0  0  2  0  0  0  0  0  0  0  0  0
   -2.0152   -6.8014  -10.3486 O   0  0  0  0  0  0  0  0  0  0  0  0
   -3.5159   -5.5916   -8.8876 C   0  0  2  0  0  0  0  0  0  0  0  0
   -4.3870   -4.7213   -9.5615 O   0  0  0  0  0  0  0  0  0  0  0  0
   -3.4498   -5.2025   -7.4064 C   0  0  2  0  0  0  0  0  0  0  0  0
   -2.5130   -6.0170   -6.7089 O   0  0  0  0  0  0  0  0  0  0  0  0
   -4.7920   -5.2461   -6.7214 C   0  0  0  0  0  0  0  0  0  0  0  0
   -5.4181   -6.5672   -6.9968 O   0  0  0  0  0  0  0  0  0  0  0  0
    2.7604   -1.3325   -9.0798 H   0  0  0  0  0  0  0  0  0  0  0  0
    1.8958   -5.0532  -14.9036 H   0  0  0  0  0  0  0  0  0  0  0  0
    0.7190   -7.6011  -16.3033 H   0  0  0  0  0  0  0  0  0  0  0  0
   -0.6883   -6.6749  -16.9264 H   0  0  0  0  0  0  0  0  0  0  0  0
    0.9471   -5.9319  -16.9264 H   0  0  0  0  0  0  0  0  0  0  0  0
   -2.8221   -7.7006  -14.1208 H   0  0  0  0  0  0  0  0  0  0  0  0
   -2.9090   -6.6140  -15.5485 H   0  0  0  0  0  0  0  0  0  0  0  0
   -1.7762   -8.0081  -15.5485 H   0  0  0  0  0  0  0  0  0  0  0  0
   -2.3981   -5.9555  -12.5916 H   0  0  0  0  0  0  0  0  0  0  0  0
   -2.2271   -3.5407  -10.0241 H   0  0  0  0  0  0  0  0  0  0  0  0
   -2.7490   -4.6901  -11.3725 H   0  0  0  0  0  0  0  0  0  0  0  0
   -1.4008   -5.5293   -8.8062 H   0  0  0  0  0  0  0  0  0  0  0  0
   -1.9197   -7.5710   -9.7333 H   0  0  0  0  0  0  0  0  0  0  0  0
   -3.8867   -6.6268   -8.9148 H   0  0  0  0  0  0  0  0  0  0  0  0
   -4.9088   -4.1999   -8.9012 H   0  0  0  0  0  0  0  0  0  0  0  0
   -3.1123   -4.1559   -7.3794 H   0  0  0  0  0  0  0  0  0  0  0  0
   -2.6410   -5.9057   -5.7335 H   0  0  0  0  0  0  0  0  0  0  0  0
   -4.6599   -5.1167   -5.6370 H   0  0  0  0  0  0  0  0  0  0  0  0
   -5.4350   -4.4375   -7.0990 H   0  0  0  0  0  0  0  0  0  0  0  0
   -5.6310   -7.0164   -6.1407 H   0  0  0  0  0  0  0  0  0  0  0  0
  1  2  1  0
  1 18  2  0
  2  3  2  0
  2  4  1  0
  4  5  1  0
  5  6  2  0
  5  7  1  0
  7  8  2  0
  7 18  1  0
  8  9  1  0
  9 10  1  0
  9 16  2  0
 10 11  2  0
 11 12  1  0
 11 13  1  0
 13 14  1  0
 13 15  2  0
 15 16  1  0
 16 17  1  0
 17 18  1  0
 17 19  1  0
 19 20  1  0
 20 21  1  0
 20 22  1  0
 22 23  1  0
 22 24  1  0
 24 25  1  0
 24 26  1  0
 26 27  1  0
  4 28  1  0
 10 29  1  0
 12 30  1  0
 12 31  1  0
 12 32  1  0
 14 33  1  0
 14 34  1  0
 14 35  1  0
 15 36  1  0
 19 37  1  0
 19 38  1  0
 20 39  1  1
 21 40  1  0
 22 41  1  1
 23 42  1  0
 24 43  1  6
 25 44  1  0
 26 45  1  0
 26 46  1  0
 27 47  1  0
M  END
>  <filename_input>  (19) 
7QF4_RBF_docked.sdf

>  <pdb_id>  (19) 
7QF4_RBF

>  <pose_rank>  (19) 
18

>  <num_atoms_heavy>  (19) 
27

>  <num_torsions>  (19) 
5

>  <pose>  (19) 
[-0.033146952585538396, -3.020154083376532, -9.4616494284968, -2.426042527595722, -0.5095661010017188, 2.014755369911878, -12.551288494717493, 12.170818107530492, -0.7521074068452616, -6.29407214697746, -6.500994269758113]

>  <energy>  (19) 
-731.2862519706775

>  <inter_energy>  (19) 
-735.7988736236207

>  <intra_energy>  (19) 
21.38449607928453

>  <rmsd>  (19) 
4.9639

>  <sdf_rank>  (19) 
0

$$$$

     RDKit          3D

 47 49  0  0  0  0  0  0  0  0999 V2000
   -2.1363   -5.2430   -8.2515 N   0  0  0  0  0  0  0  0  0  0  0  0
   -3.1878   -5.9461   -7.7770 C   0  0  0  0  0  0  0  0  0  0  0  0
   -3.5901   -5.7977   -6.5650 O   0  0  0  0  0  0  0  0  0  0  0  0
   -3.8140   -6.8934   -8.5492 N   0  0  0  0  0  0  0  0  0  0  0  0
   -3.4479   -7.1925   -9.8583 C   0  0  0  0  0  0  0  0  0  0  0  0
   -4.0087   -8.1059  -10.4394 O   0  0  0  0  0  0  0  0  0  0  0  0
   -2.3855   -6.3877  -10.3910 C   0  0  0  0  0  0  0  0  0  0  0  0
   -2.0103   -6.5966  -11.6602 N   0  0  0  0  0  0  0  0  0  0  0  0
   -0.9599   -5.8404  -12.1030 C   0  0  0  0  0  0  0  0  0  0  0  0
   -0.5089   -6.0265  -13.4411 C   0  0  0  0  0  0  0  0  0  0  0  0
    0.5520   -5.3320  -13.9639 C   0  0  0  0  0  0  0  0  0  0  0  0
    1.0343   -5.6055  -15.3675 C   0  0  0  0  0  0  0  0  0  0  0  0
    1.1847   -4.3629  -13.1840 C   0  0  0  0  0  0  0  0  0  0  0  0
    2.3534   -3.5558  -13.6785 C   0  0  0  0  0  0  0  0  0  0  0  0
    0.7912   -4.1839  -11.8501 C   0  0  0  0  0  0  0  0  0  0  0  0
   -0.2756   -4.8976  -11.3122 C   0  0  0  0  0  0  0  0  0  0  0  0
   -0.7011   -4.7363   -9.9953 N   0  0  0  0  0  0  0  0  0  0  0  0
   -1.7747   -5.4633   -9.5298 C   0  0  0  0  0  0  0  0  0  0  0  0
    0.0490   -3.8718   -9.0732 C   0  0  0  0  0  0  0  0  0  0  0  0
   -0.4053   -2.4446   -8.9919 C   0  0  2  0  0  0  0  0  0  0  0  0
   -1.2111   -2.2169  -10.1358 O   0  0  0  0  0  0  0  0  0  0  0  0
    0.7744   -1.4757   -8.9702 C   0  0  2  0  0  0  0  0  0  0  0  0
    0.8199   -0.7639  -10.1792 O   0  0  0  0  0  0  0  0  0  0  0  0
    2.1328   -2.1389   -8.7161 C   0  0  2  0  0  0  0  0  0  0  0  0
    2.5307   -1.9771   -7.3585 O   0  0  0  0  0  0  0  0  0  0  0  0
    3.2161   -1.6444   -9.6405 C   0  0  0  0  0  0  0  0  0  0  0  0
    4.5356   -1.9822   -9.0423 O   0  0  0  0  0  0  0  0  0  0  0  0
   -4.6010   -7.4132   -8.1353 H   0  0  0  0  0  0  0  0  0  0  0  0
   -1.0311   -6.7547  -14.0792 H   0  0  0  0  0  0  0  0  0  0  0  0
    1.9906   -6.1477  -15.3275 H   0  0  0  0  0  0  0  0  0  0  0  0
    0.2889   -6.2153  -15.8990 H   0  0  0  0  0  0  0  0  0  0  0  0
    1.1749   -4.6527  -15.8990 H   0  0  0  0  0  0  0  0  0  0  0  0
    2.9190   -3.1653  -12.8197 H   0  0  0  0  0  0  0  0  0  0  0  0
    3.0084   -4.1950  -14.2888 H   0  0  0  0  0  0  0  0  0  0  0  0
    1.9877   -2.7169  -14.2888 H   0  0  0  0  0  0  0  0  0  0  0  0
    1.3352   -3.4668  -11.2178 H   0  0  0  0  0  0  0  0  0  0  0  0
   -0.0283   -4.3073   -8.0660 H   0  0  0  0  0  0  0  0  0  0  0  0
    1.0740   -3.8340   -9.4705 H   0  0  0  0  0  0  0  0  0  0  0  0
   -0.9635   -2.2726   -8.0597 H   0  0  0  0  0  0  0  0  0  0  0  0
   -2.1235   -1.9592   -9.8508 H   0  0  0  0  0  0  0  0  0  0  0  0
    0.5990   -0.8029   -8.1178 H   0  0  0  0  0  0  0  0  0  0  0  0
    0.8820    0.2057   -9.9892 H   0  0  0  0  0  0  0  0  0  0  0  0
    1.9959   -3.2092   -8.9296 H   0  0  0  0  0  0  0  0  0  0  0  0
    1.7985   -2.2747   -6.7624 H   0  0  0  0  0  0  0  0  0  0  0  0
    3.1177   -2.1315  -10.6219 H   0  0  0  0  0  0  0  0  0  0  0  0
    3.1300   -0.5561   -9.7749 H   0  0  0  0  0  0  0  0  0  0  0  0
    4.4647   -1.9641   -8.0550 H   0  0  0  0  0  0  0  0  0  0  0  0
  1  2  1  0
  1 18  2  0
  2  3  2  0
  2  4  1  0
  4  5  1  0
  5  6  2  0
  5  7  1  0
  7  8  2  0
  7 18  1  0
  8  9  1  0
  9 10  1  0
  9 16  2  0
 10 11  2  0
 11 12  1  0
 11 13  1  0
 13 14  1  0
 13 15  2  0
 15 16  1  0
 16 17  1  0
 17 18  1  0
 17 19  1  0
 19 20  1  0
 20 21  1  0
 20 22  1  0
 22 23  1  0
 22 24  1  0
 24 25  1  0
 24 26  1  0
 26 27  1  0
  4 28  1  0
 10 29  1  0
 12 30  1  0
 12 31  1  0
 12 32  1  0
 14 33  1  0
 14 34  1  0
 14 35  1  0
 15 36  1  0
 19 37  1  0
 19 38  1  0
 20 39  1  1
 21 40  1  0
 22 41  1  1
 23 42  1  0
 24 43  1  6
 25 44  1  0
 26 45  1  0
 26 46  1  0
 27 47  1  0
M  END
>  <filename_input>  (20) 
7QF4_RBF_docked.sdf

>  <pdb_id>  (20) 
7QF4_RBF

>  <pose_rank>  (20) 
19

>  <num_atoms_heavy>  (20) 
27

>  <num_torsions>  (20) 
5

>  <pose>  (20) 
[-2.136263827867809, -5.2430405276868655, -8.251470216835406, 2.8592451981301648, -3.6428252712906852, 1.0988194135117013, 6.279807614777546, 0.4254766588681807, 0.9247047076286722, -0.8356130067959974, 1.7056614769358929]

>  <energy>  (20) 
-647.6028684220063

>  <inter_energy>  (20) 
-668.6810183437976

>  <intra_energy>  (20) 
18.178764996413054

>  <rmsd>  (20) 
5.68025

>  <sdf_rank>  (20) 
0

$$$$

     RDKit          3D

 47 49  0  0  0  0  0  0  0  0999 V2000
   -3.1012   -4.4374   -8.6042 N   0  0  0  0  0  0  0  0  0  0  0  0
   -3.8908   -5.2372   -7.8545 C   0  0  0  0  0  0  0  0  0  0  0  0
   -4.3939   -4.8202   -6.7474 O   0  0  0  0  0  0  0  0  0  0  0  0
   -4.1220   -6.5425   -8.2128 N   0  0  0  0  0  0  0  0  0  0  0  0
   -3.5976   -7.1374   -9.3566 C   0  0  0  0  0  0  0  0  0  0  0  0
   -3.7901   -8.3254   -9.5515 O   0  0  0  0  0  0  0  0  0  0  0  0
   -2.8274   -6.2647  -10.1966 C   0  0  0  0  0  0  0  0  0  0  0  0
   -2.3265   -6.7635  -11.3348 N   0  0  0  0  0  0  0  0  0  0  0  0
   -1.5573   -5.9064  -12.0730 C   0  0  0  0  0  0  0  0  0  0  0  0
   -0.9881   -6.3842  -13.2881 C   0  0  0  0  0  0  0  0  0  0  0  0
   -0.1838   -5.6055  -14.0806 C   0  0  0  0  0  0  0  0  0  0  0  0
    0.4476   -6.1723  -15.3286 C   0  0  0  0  0  0  0  0  0  0  0  0
    0.0458   -4.2761  -13.7231 C   0  0  0  0  0  0  0  0  0  0  0  0
    0.9131   -3.3533  -14.5344 C   0  0  0  0  0  0  0  0  0  0  0  0
   -0.4665   -3.7873  -12.5129 C   0  0  0  0  0  0  0  0  0  0  0  0
   -1.2710   -4.5795  -11.6993 C   0  0  0  0  0  0  0  0  0  0  0  0
   -1.8067   -4.1226  -10.4970 N   0  0  0  0  0  0  0  0  0  0  0  0
   -2.6088   -4.9538   -9.7462 C   0  0  0  0  0  0  0  0  0  0  0  0
   -1.4409   -2.7974   -9.9771 C   0  0  0  0  0  0  0  0  0  0  0  0
   -0.0274   -2.6448   -9.4989 C   0  0  2  0  0  0  0  0  0  0  0  0
    0.3584   -1.3172   -9.8127 O   0  0  0  0  0  0  0  0  0  0  0  0
    0.9089   -3.6448  -10.1728 C   0  0  2  0  0  0  0  0  0  0  0  0
    0.6931   -4.9245   -9.6380 O   0  0  0  0  0  0  0  0  0  0  0  0
    2.3963   -3.2902  -10.0652 C   0  0  2  0  0  0  0  0  0  0  0  0
    2.6376   -2.4480   -8.9427 O   0  0  0  0  0  0  0  0  0  0  0  0
    2.9479   -2.6605  -11.3190 C   0  0  0  0  0  0  0  0  0  0  0  0
    4.2067   -1.9473  -10.9728 O   0  0  0  0  0  0  0  0  0  0  0  0
   -4.7188   -7.1152   -7.5989 H   0  0  0  0  0  0  0  0  0  0  0  0
   -1.2016   -7.4164  -13.6028 H   0  0  0  0  0  0  0  0  0  0  0  0
    1.2393   -6.8829  -15.0488 H   0  0  0  0  0  0  0  0  0  0  0  0
   -0.3180   -6.6919  -15.9234 H   0  0  0  0  0  0  0  0  0  0  0  0
    0.8819   -5.3551  -15.9234 H   0  0  0  0  0  0  0  0  0  0  0  0
    1.5077   -2.7207  -13.8589 H   0  0  0  0  0  0  0  0  0  0  0  0
    1.5874   -3.9473  -15.1688 H   0  0  0  0  0  0  0  0  0  0  0  0
    0.2785   -2.7171  -15.1688 H   0  0  0  0  0  0  0  0  0  0  0  0
   -0.2285   -2.7596  -12.2012 H   0  0  0  0  0  0  0  0  0  0  0  0
   -1.6054   -2.0639  -10.7801 H   0  0  0  0  0  0  0  0  0  0  0  0
   -2.0720   -2.6432   -9.0894 H   0  0  0  0  0  0  0  0  0  0  0  0
    0.0352   -2.8425   -8.4186 H   0  0  0  0  0  0  0  0  0  0  0  0
    0.5058   -0.8098   -8.9756 H   0  0  0  0  0  0  0  0  0  0  0  0
    0.6648   -3.6143  -11.2449 H   0  0  0  0  0  0  0  0  0  0  0  0
    0.7015   -4.8747   -8.6492 H   0  0  0  0  0  0  0  0  0  0  0  0
    2.9290   -4.2425   -9.9262 H   0  0  0  0  0  0  0  0  0  0  0  0
    2.4908   -2.9602   -8.1083 H   0  0  0  0  0  0  0  0  0  0  0  0
    3.1566   -3.4409  -12.0656 H   0  0  0  0  0  0  0  0  0  0  0  0
    2.2172   -1.9540  -11.7396 H   0  0  0  0  0  0  0  0  0  0  0  0
    4.2970   -1.8962   -9.9882 H   0  0  0  0  0  0  0  0  0  0  0  0
  1  2  1  0
  1 18  2  0
  2  3  2  0
  2  4  1  0
  4  5  1  0
  5  6  2  0
  5  7  1  0
  7  8  2  0
  7 18  1  0
  8  9  1  0
  9 10  1  0
  9 16  2  0
 10 11  2  0
 11 12  1  0
 11 13  1  0
 13 14  1  0
 13 15  2  0
 15 16  1  0
 16 17  1  0
 17 18  1  0
 17 19  1  0
 19 20  1  0
 20 21  1  0
 20 22  1  0
 22 23  1  0
 22 24  1  0
 24 25  1  0
 24 26  1  0
 26 27  1  0
  4 28  1  0
 10 29  1  0
 12 30  1  0
 12 31  1  0
 12 32  1  0
 14 33  1  0
 14 34  1  0
 14 35  1  0
 15 36  1  0
 19 37  1  0
 19 38  1  0
 20 39  1  1
 21 40  1  0
 22 41  1  6
 23 42  1  0
 24 43  1  1
 25 44  1  0
 26 45  1  0
 26 46  1  0
 27 47  1  0
M  END
>  <filename_input>  (21) 
7QF4_RBF_docked.sdf

>  <pdb_id>  (21) 
7QF4_RBF

>  <pose_rank>  (21) 
20

>  <num_atoms_heavy>  (21) 
27

>  <num_torsions>  (21) 
5

>  <pose>  (21) 
[-3.101176139320861, -4.437366858338876, -8.604184799279729, -1.4068837948706536, 0.9358953264506559, -0.2865537325975339, 9.74362891132698, 15.824038835095713, -21.140569307289557, -4.949932628964501, -4.5868496186531775]

>  <energy>  (21) 
-545.899850065215

>  <inter_energy>  (21) 
-667.1530521402929

>  <intra_energy>  (21) 
129.64471138330484

>  <rmsd>  (21) 
5.90409

>  <sdf_rank>  (21) 
0

$$$$

     RDKit          3D

 47 49  0  0  0  0  0  0  0  0999 V2000
   -7.3914   -5.5263   -6.6509 N   0  0  0  0  0  0  0  0  0  0  0  0
   -8.5967   -6.1304   -6.7383 C   0  0  0  0  0  0  0  0  0  0  0  0
   -8.8248   -7.0253   -7.6327 O   0  0  0  0  0  0  0  0  0  0  0  0
   -9.6376   -5.7573   -5.9240 N   0  0  0  0  0  0  0  0  0  0  0  0
   -9.5439   -4.7678   -4.9496 C   0  0  0  0  0  0  0  0  0  0  0  0
  -10.5430   -4.4470   -4.3290 O   0  0  0  0  0  0  0  0  0  0  0  0
   -8.2411   -4.1843   -4.7997 C   0  0  0  0  0  0  0  0  0  0  0  0
   -8.0716   -3.2528   -3.8517 N   0  0  0  0  0  0  0  0  0  0  0  0
   -6.8261   -2.6911   -3.7844 C   0  0  0  0  0  0  0  0  0  0  0  0
   -6.5893   -1.6864   -2.8030 C   0  0  0  0  0  0  0  0  0  0  0  0
   -5.3807   -1.0500   -2.6776 C   0  0  0  0  0  0  0  0  0  0  0  0
   -5.1927    0.0518   -1.6637 C   0  0  0  0  0  0  0  0  0  0  0  0
   -4.3189   -1.4332   -3.4982 C   0  0  0  0  0  0  0  0  0  0  0  0
   -2.9616   -0.7894   -3.4267 C   0  0  0  0  0  0  0  0  0  0  0  0
   -4.5305   -2.3902   -4.5009 C   0  0  0  0  0  0  0  0  0  0  0  0
   -5.7599   -3.0272   -4.6403 C   0  0  0  0  0  0  0  0  0  0  0  0
   -6.0016   -3.9910   -5.6170 N   0  0  0  0  0  0  0  0  0  0  0  0
   -7.2377   -4.5949   -5.6906 C   0  0  0  0  0  0  0  0  0  0  0  0
   -4.9805   -4.2942   -6.6297 C   0  0  0  0  0  0  0  0  0  0  0  0
   -5.0361   -5.6676   -7.2304 C   0  0  2  0  0  0  0  0  0  0  0  0
   -5.2465   -6.5654   -6.1536 O   0  0  0  0  0  0  0  0  0  0  0  0
   -3.7456   -6.0147   -7.9687 C   0  0  2  0  0  0  0  0  0  0  0  0
   -2.7216   -6.2527   -7.0384 O   0  0  0  0  0  0  0  0  0  0  0  0
   -3.2863   -4.9522   -8.9735 C   0  0  2  0  0  0  0  0  0  0  0  0
   -4.0373   -5.0364  -10.1803 O   0  0  0  0  0  0  0  0  0  0  0  0
   -1.8099   -5.0166   -9.2713 C   0  0  0  0  0  0  0  0  0  0  0  0
   -1.2722   -3.6296   -9.2875 O   0  0  0  0  0  0  0  0  0  0  0  0
  -10.5409   -6.2382   -6.0411 H   0  0  0  0  0  0  0  0  0  0  0  0
   -7.4062   -1.4105   -2.1201 H   0  0  0  0  0  0  0  0  0  0  0  0
   -5.2642   -0.3674   -0.6492 H   0  0  0  0  0  0  0  0  0  0  0  0
   -4.2030    0.5118   -1.8014 H   0  0  0  0  0  0  0  0  0  0  0  0
   -5.9737    0.8140   -1.8014 H   0  0  0  0  0  0  0  0  0  0  0  0
   -2.6752   -0.6536   -2.3734 H   0  0  0  0  0  0  0  0  0  0  0  0
   -2.2235   -1.4333   -3.9273 H   0  0  0  0  0  0  0  0  0  0  0  0
   -2.9933    0.1896   -3.9273 H   0  0  0  0  0  0  0  0  0  0  0  0
   -3.7104   -2.6418   -5.1895 H   0  0  0  0  0  0  0  0  0  0  0  0
   -5.0899   -3.5654   -7.4463 H   0  0  0  0  0  0  0  0  0  0  0  0
   -4.0162   -4.2401   -6.1033 H   0  0  0  0  0  0  0  0  0  0  0  0
   -5.8436   -5.7279   -7.9748 H   0  0  0  0  0  0  0  0  0  0  0  0
   -5.1337   -6.0841   -5.2959 H   0  0  0  0  0  0  0  0  0  0  0  0
   -3.9663   -6.9169   -8.5581 H   0  0  0  0  0  0  0  0  0  0  0  0
   -3.0834   -6.1686   -6.1207 H   0  0  0  0  0  0  0  0  0  0  0  0
   -3.4729   -3.9787   -8.4966 H   0  0  0  0  0  0  0  0  0  0  0  0
   -4.9975   -5.1442   -9.9646 H   0  0  0  0  0  0  0  0  0  0  0  0
   -1.2995   -5.6037   -8.4935 H   0  0  0  0  0  0  0  0  0  0  0  0
   -1.6420   -5.4980  -10.2460 H   0  0  0  0  0  0  0  0  0  0  0  0
   -1.1493   -3.3125   -8.3577 H   0  0  0  0  0  0  0  0  0  0  0  0
  1  2  1  0
  1 18  2  0
  2  3  2  0
  2  4  1  0
  4  5  1  0
  5  6  2  0
  5  7  1  0
  7  8  2  0
  7 18  1  0
  8  9  1  0
  9 10  1  0
  9 16  2  0
 10 11  2  0
 11 12  1  0
 11 13  1  0
 13 14  1  0
 13 15  2  0
 15 16  1  0
 16 17  1  0
 17 18  1  0
 17 19  1  0
 19 20  1  0
 20 21  1  0
 20 22  1  0
 22 23  1  0
 22 24  1  0
 24 25  1  0
 24 26  1  0
 26 27  1  0
  4 28  1  0
 10 29  1  0
 12 30  1  0
 12 31  1  0
 12 32  1  0
 14 33  1  0
 14 34  1  0
 14 35  1  0
 15 36  1  0
 19 37  1  0
 19 38  1  0
 20 39  1  6
 21 40  1  0
 22 41  1  6
 23 42  1  0
 24 43  1  1
 25 44  1  0
 26 45  1  0
 26 46  1  0
 27 47  1  0
M  END
>  <filename_input>  (22) 
7QF4_RBF_docked.sdf

>  <pdb_id>  (22) 
7QF4_RBF

>  <pose_rank>  (22) 
21

>  <num_atoms_heavy>  (22) 
27

>  <num_torsions>  (22) 
5

>  <pose>  (22) 
[-7.391422743576079, -5.52627748321597, -6.650887887044088, -2.051904553594823, -2.266083560560581, -1.8437314085825058, 1.077493223834798, -0.05057004282255678, 0.2694674737673149, -0.45250095210518737, -3.5010404877725887]

>  <energy>  (22) 
-154.9360287286891

>  <inter_energy>  (22) 
-258.96483549606387

>  <intra_energy>  (22) 
101.62581703837084

>  <rmsd>  (22) 
9.69832

>  <sdf_rank>  (22) 
0

$$$$

     RDKit          3D

 47 49  0  0  0  0  0  0  0  0999 V2000
    4.2028  -12.7997   -8.8283 N   0  0  0  0  0  0  0  0  0  0  0  0
    3.2422  -13.7306   -9.0175 C   0  0  0  0  0  0  0  0  0  0  0  0
    3.1860  -14.4113  -10.1067 O   0  0  0  0  0  0  0  0  0  0  0  0
    2.2532  -13.9286   -8.0856 N   0  0  0  0  0  0  0  0  0  0  0  0
    2.1640  -13.2250   -6.8880 C   0  0  0  0  0  0  0  0  0  0  0  0
    1.2051  -13.4109   -6.1584 O   0  0  0  0  0  0  0  0  0  0  0  0
    3.2310  -12.2954   -6.6486 C   0  0  0  0  0  0  0  0  0  0  0  0
    3.2277  -11.6134   -5.4953 N   0  0  0  0  0  0  0  0  0  0  0  0
    4.2367  -10.7032   -5.3386 C   0  0  0  0  0  0  0  0  0  0  0  0
    4.2787   -9.9399   -4.1368 C   0  0  0  0  0  0  0  0  0  0  0  0
    5.2375   -8.9875   -3.9025 C   0  0  0  0  0  0  0  0  0  0  0  0
    5.2078   -8.1595   -2.6412 C   0  0  0  0  0  0  0  0  0  0  0  0
    6.2485   -8.7903   -4.8442 C   0  0  0  0  0  0  0  0  0  0  0  0
    7.3380   -7.7689   -4.6668 C   0  0  0  0  0  0  0  0  0  0  0  0
    6.2128   -9.4965   -6.0550 C   0  0  0  0  0  0  0  0  0  0  0  0
    5.2327  -10.4532   -6.3019 C   0  0  0  0  0  0  0  0  0  0  0  0
    5.1743  -11.1818   -7.4880 N   0  0  0  0  0  0  0  0  0  0  0  0
    4.1863  -12.1259   -7.6625 C   0  0  0  0  0  0  0  0  0  0  0  0
    6.0970  -10.8796   -8.5914 C   0  0  0  0  0  0  0  0  0  0  0  0
    7.4348  -11.5555   -8.5352 C   0  0  2  0  0  0  0  0  0  0  0  0
    8.4042  -10.5212   -8.5315 O   0  0  0  0  0  0  0  0  0  0  0  0
    7.6505  -12.4832   -9.7284 C   0  0  2  0  0  0  0  0  0  0  0  0
    7.4460  -13.8141   -9.3317 O   0  0  0  0  0  0  0  0  0  0  0  0
    9.0271  -12.3529  -10.3900 C   0  0  2  0  0  0  0  0  0  0  0  0
    8.9746  -11.4631  -11.5003 O   0  0  0  0  0  0  0  0  0  0  0  0
    9.6111  -13.6779  -10.8095 C   0  0  0  0  0  0  0  0  0  0  0  0
    9.2710  -13.9107  -12.2389 O   0  0  0  0  0  0  0  0  0  0  0  0
    1.5351  -14.6396   -8.2846 H   0  0  0  0  0  0  0  0  0  0  0  0
    3.5134  -10.1211   -3.3677 H   0  0  0  0  0  0  0  0  0  0  0  0
    5.2317   -8.8246   -1.7653 H   0  0  0  0  0  0  0  0  0  0  0  0
    6.0825   -7.4929   -2.6194 H   0  0  0  0  0  0  0  0  0  0  0  0
    4.2874   -7.5575   -2.6194 H   0  0  0  0  0  0  0  0  0  0  0  0
    7.5144   -7.6036   -3.5937 H   0  0  0  0  0  0  0  0  0  0  0  0
    8.2626   -8.1333   -5.1384 H   0  0  0  0  0  0  0  0  0  0  0  0
    7.0340   -6.8228   -5.1384 H   0  0  0  0  0  0  0  0  0  0  0  0
    6.9728   -9.2908   -6.8231 H   0  0  0  0  0  0  0  0  0  0  0  0
    5.6081  -11.1789   -9.5302 H   0  0  0  0  0  0  0  0  0  0  0  0
    6.3062   -9.8023   -8.5157 H   0  0  0  0  0  0  0  0  0  0  0  0
    7.5082  -12.1858   -7.6366 H   0  0  0  0  0  0  0  0  0  0  0  0
    8.6282  -10.2822   -7.5972 H   0  0  0  0  0  0  0  0  0  0  0  0
    6.9166  -12.1763  -10.4881 H   0  0  0  0  0  0  0  0  0  0  0  0
    7.4380  -13.8663   -8.3431 H   0  0  0  0  0  0  0  0  0  0  0  0
    9.6975  -11.9379   -9.6230 H   0  0  0  0  0  0  0  0  0  0  0  0
    8.9195  -10.5303  -11.1733 H   0  0  0  0  0  0  0  0  0  0  0  0
   10.7040  -13.6577  -10.6864 H   0  0  0  0  0  0  0  0  0  0  0  0
    9.1993  -14.4860  -10.1870 H   0  0  0  0  0  0  0  0  0  0  0  0
    8.4554  -14.4688  -12.2974 H   0  0  0  0  0  0  0  0  0  0  0  0
  1  2  1  0
  1 18  2  0
  2  3  2  0
  2  4  1  0
  4  5  1  0
  5  6  2  0
  5  7  1  0
  7  8  2  0
  7 18  1  0
  8  9  1  0
  9 10  1  0
  9 16  2  0
 10 11  2  0
 11 12  1  0
 11 13  1  0
 13 14  1  0
 13 15  2  0
 15 16  1  0
 16 17  1  0
 17 18  1  0
 17 19  1  0
 19 20  1  0
 20 21  1  0
 20 22  1  0
 22 23  1  0
 22 24  1  0
 24 25  1  0
 24 26  1  0
 26 27  1  0
  4 28  1  0
 10 29  1  0
 12 30  1  0
 12 31  1  0
 12 32  1  0
 14 33  1  0
 14 34  1  0
 14 35  1  0
 15 36  1  0
 19 37  1  0
 19 38  1  0
 20 39  1  1
 21 40  1  0
 22 41  1  6
 23 42  1  0
 24 43  1  1
 25 44  1  0
 26 45  1  0
 26 46  1  0
 27 47  1  0
M  END
>  <filename_input>  (23) 
7QF4_RBF_docked.sdf

>  <pdb_id>  (23) 
7QF4_RBF

>  <pose_rank>  (23) 
22

>  <num_atoms_heavy>  (23) 
27

>  <num_torsions>  (23) 
5

>  <pose>  (23) 
[4.202805927409984, -12.799664410791463, -8.828308545759665, 1.5389294043703872, 1.9880449143551304, 1.8016071766482922, -0.11642194468133599, -1.4063740389593162, 3.50236504746467, -0.7442170093932345, 0.5421978084089651]

>  <energy>  (23) 
-210.65555440818048

>  <inter_energy>  (23) 
-209.37303573620977

>  <intra_energy>  (23) 
8.027871591699892

>  <rmsd>  (23) 
11.6317

>  <sdf_rank>  (23) 
0

$$$$

     RDKit          3D

 47 49  0  0  0  0  0  0  0  0999 V2000
   -7.4294   -8.5696   -5.4101 N   0  0  0  0  0  0  0  0  0  0  0  0
   -7.9673   -9.7354   -4.9894 C   0  0  0  0  0  0  0  0  0  0  0  0
   -7.5529  -10.8606   -5.4530 O   0  0  0  0  0  0  0  0  0  0  0  0
   -9.0215   -9.7532   -4.1095 N   0  0  0  0  0  0  0  0  0  0  0  0
   -9.6013   -8.6084   -3.5705 C   0  0  0  0  0  0  0  0  0  0  0  0
  -10.5862   -8.7179   -2.8603 O   0  0  0  0  0  0  0  0  0  0  0  0
   -8.9765   -7.3738   -3.9519 C   0  0  0  0  0  0  0  0  0  0  0  0
   -9.4604   -6.2355   -3.4368 N   0  0  0  0  0  0  0  0  0  0  0  0
   -8.8640   -5.0839   -3.8719 C   0  0  0  0  0  0  0  0  0  0  0  0
   -9.3436   -3.8413   -3.3673 C   0  0  0  0  0  0  0  0  0  0  0  0
   -8.8245   -2.6355   -3.7648 C   0  0  0  0  0  0  0  0  0  0  0  0
   -9.4044   -1.3408   -3.2502 C   0  0  0  0  0  0  0  0  0  0  0  0
   -7.7477   -2.6150   -4.6524 C   0  0  0  0  0  0  0  0  0  0  0  0
   -7.1180   -1.3387   -5.1386 C   0  0  0  0  0  0  0  0  0  0  0  0
   -7.2788   -3.8184   -5.1984 C   0  0  0  0  0  0  0  0  0  0  0  0
   -7.8132   -5.0426   -4.8082 C   0  0  0  0  0  0  0  0  0  0  0  0
   -7.3635   -6.2576   -5.3207 N   0  0  0  0  0  0  0  0  0  0  0  0
   -7.9256   -7.4357   -4.8798 C   0  0  0  0  0  0  0  0  0  0  0  0
   -6.3655   -6.2848   -6.3993 C   0  0  0  0  0  0  0  0  0  0  0  0
   -6.8230   -5.7733   -7.7330 C   0  0  2  0  0  0  0  0  0  0  0  0
   -7.9299   -6.5752   -8.1092 O   0  0  0  0  0  0  0  0  0  0  0  0
   -5.7184   -5.8642   -8.7830 C   0  0  2  0  0  0  0  0  0  0  0  0
   -5.5117   -7.2080   -9.1323 O   0  0  0  0  0  0  0  0  0  0  0  0
   -4.3868   -5.2364   -8.3561 C   0  0  2  0  0  0  0  0  0  0  0  0
   -3.8984   -4.3511   -9.3586 O   0  0  0  0  0  0  0  0  0  0  0  0
   -3.3356   -6.2581   -8.0041 C   0  0  0  0  0  0  0  0  0  0  0  0
   -2.3170   -6.2778   -9.0881 O   0  0  0  0  0  0  0  0  0  0  0  0
   -9.4057  -10.6677   -3.8321 H   0  0  0  0  0  0  0  0  0  0  0  0
  -10.1610   -3.8490   -2.6313 H   0  0  0  0  0  0  0  0  0  0  0  0
   -9.4008   -1.3490   -2.1502 H   0  0  0  0  0  0  0  0  0  0  0  0
   -8.7979   -0.4977   -3.6126 H   0  0  0  0  0  0  0  0  0  0  0  0
  -10.4373   -1.2320   -3.6126 H   0  0  0  0  0  0  0  0  0  0  0  0
   -6.8162   -0.7268   -4.2758 H   0  0  0  0  0  0  0  0  0  0  0  0
   -6.2332   -1.5753   -5.7479 H   0  0  0  0  0  0  0  0  0  0  0  0
   -7.8442   -0.7806   -5.7479 H   0  0  0  0  0  0  0  0  0  0  0  0
   -6.4744   -3.7943   -5.9483 H   0  0  0  0  0  0  0  0  0  0  0  0
   -5.5088   -5.6730   -6.0803 H   0  0  0  0  0  0  0  0  0  0  0  0
   -6.1273   -7.3473   -6.5555 H   0  0  0  0  0  0  0  0  0  0  0  0
   -7.0957   -4.7100   -7.6627 H   0  0  0  0  0  0  0  0  0  0  0  0
   -8.3881   -6.9072   -7.2968 H   0  0  0  0  0  0  0  0  0  0  0  0
   -6.0698   -5.2778   -9.6448 H   0  0  0  0  0  0  0  0  0  0  0  0
   -5.4278   -7.7534   -8.3103 H   0  0  0  0  0  0  0  0  0  0  0  0
   -4.5969   -4.6666   -7.4390 H   0  0  0  0  0  0  0  0  0  0  0  0
   -3.4677   -3.5705   -8.9281 H   0  0  0  0  0  0  0  0  0  0  0  0
   -2.8583   -5.9864   -7.0510 H   0  0  0  0  0  0  0  0  0  0  0  0
   -3.7951   -7.2520   -7.8996 H   0  0  0  0  0  0  0  0  0  0  0  0
   -1.4110   -6.2955   -8.6893 H   0  0  0  0  0  0  0  0  0  0  0  0
  1  2  1  0
  1 18  2  0
  2  3  2  0
  2  4  1  0
  4  5  1  0
  5  6  2  0
  5  7  1  0
  7  8  2  0
  7 18  1  0
  8  9  1  0
  9 10  1  0
  9 16  2  0
 10 11  2  0
 11 12  1  0
 11 13  1  0
 13 14  1  0
 13 15  2  0
 15 16  1  0
 16 17  1  0
 17 18  1  0
 17 19  1  0
 19 20  1  0
 20 21  1  0
 20 22  1  0
 22 23  1  0
 22 24  1  0
 24 25  1  0
 24 26  1  0
 26 27  1  0
  4 28  1  0
 10 29  1  0
 12 30  1  0
 12 31  1  0
 12 32  1  0
 14 33  1  0
 14 34  1  0
 14 35  1  0
 15 36  1  0
 19 37  1  0
 19 38  1  0
 20 39  1  1
 21 40  1  0
 22 41  1  6
 23 42  1  0
 24 43  1  1
 25 44  1  0
 26 45  1  0
 26 46  1  0
 27 47  1  0
M  END
>  <filename_input>  (24) 
7QF4_RBF_docked.sdf

>  <pdb_id>  (24) 
7QF4_RBF

>  <pose_rank>  (24) 
23

>  <num_atoms_heavy>  (24) 
27

>  <num_torsions>  (24) 
5

>  <pose>  (24) 
[-7.429387548129392, -8.56963995976305, -5.410101827609046, -0.9989506453421263, -2.932368286562636, -1.2572668501188868, 3.481059811581473, -0.3048721119227655, 0.2538919811717351, -1.3531592626478124, 0.7650237472373247]

>  <energy>  (24) 
-208.55383415044687

>  <inter_energy>  (24) 
-229.21857020401802

>  <intra_energy>  (24) 
16.27268152617714

>  <rmsd>  (24) 
10.959

>  <sdf_rank>  (24) 
0

$$$$

     RDKit          3D

 47 49  0  0  0  0  0  0  0  0999 V2000
    3.1543  -10.3642   -8.2126 N   0  0  0  0  0  0  0  0  0  0  0  0
    2.7926  -10.8407   -9.4240 C   0  0  0  0  0  0  0  0  0  0  0  0
    2.5462  -10.0434  -10.4019 O   0  0  0  0  0  0  0  0  0  0  0  0
    2.6057  -12.1855   -9.6300 N   0  0  0  0  0  0  0  0  0  0  0  0
    2.7863  -13.1534   -8.6462 C   0  0  0  0  0  0  0  0  0  0  0  0
    2.5182  -14.3156   -8.8983 O   0  0  0  0  0  0  0  0  0  0  0  0
    3.2514  -12.6558   -7.3827 C   0  0  0  0  0  0  0  0  0  0  0  0
    3.4842  -13.5397   -6.4030 N   0  0  0  0  0  0  0  0  0  0  0  0
    3.8757  -13.0103   -5.2039 C   0  0  0  0  0  0  0  0  0  0  0  0
    4.1270  -13.9008   -4.1211 C   0  0  0  0  0  0  0  0  0  0  0  0
    4.4990  -13.4602   -2.8765 C   0  0  0  0  0  0  0  0  0  0  0  0
    4.6955  -14.4355   -1.7418 C   0  0  0  0  0  0  0  0  0  0  0  0
    4.6978  -12.0948   -2.6668 C   0  0  0  0  0  0  0  0  0  0  0  0
    5.1063  -11.5269   -1.3355 C   0  0  0  0  0  0  0  0  0  0  0  0
    4.4199  -11.1890   -3.7004 C   0  0  0  0  0  0  0  0  0  0  0  0
    4.0281  -11.6320   -4.9601 C   0  0  0  0  0  0  0  0  0  0  0  0
    3.7558  -10.7611   -6.0130 N   0  0  0  0  0  0  0  0  0  0  0  0
    3.3873  -11.2664   -7.2405 C   0  0  0  0  0  0  0  0  0  0  0  0
    3.7620   -9.3076   -5.7950 C   0  0  0  0  0  0  0  0  0  0  0  0
    5.1011   -8.6360   -5.8699 C   0  0  2  0  0  0  0  0  0  0  0  0
    6.0232   -9.6304   -6.2828 O   0  0  0  0  0  0  0  0  0  0  0  0
    5.5168   -8.0509   -4.5224 C   0  0  2  0  0  0  0  0  0  0  0  0
    4.8889   -6.8094   -4.3355 O   0  0  0  0  0  0  0  0  0  0  0  0
    7.0305   -7.8903   -4.3425 C   0  0  2  0  0  0  0  0  0  0  0  0
    7.3553   -7.6313   -2.9806 O   0  0  0  0  0  0  0  0  0  0  0  0
    7.6239   -6.8279   -5.2324 C   0  0  0  0  0  0  0  0  0  0  0  0
    8.8085   -7.4021   -5.9252 O   0  0  0  0  0  0  0  0  0  0  0  0
    2.3146  -12.4962  -10.5679 H   0  0  0  0  0  0  0  0  0  0  0  0
    4.0187  -14.9824   -4.2892 H   0  0  0  0  0  0  0  0  0  0  0  0
    4.5892  -13.9080   -0.7824 H   0  0  0  0  0  0  0  0  0  0  0  0
    3.9399  -15.2321   -1.8080 H   0  0  0  0  0  0  0  0  0  0  0  0
    5.7008  -14.8772   -1.8080 H   0  0  0  0  0  0  0  0  0  0  0  0
    4.6698  -12.1337   -0.5285 H   0  0  0  0  0  0  0  0  0  0  0  0
    6.2031  -11.5403   -1.2521 H   0  0  0  0  0  0  0  0  0  0  0  0
    4.7449  -10.4913   -1.2521 H   0  0  0  0  0  0  0  0  0  0  0  0
    4.5132  -10.1092   -3.5122 H   0  0  0  0  0  0  0  0  0  0  0  0
    3.1134   -8.8505   -6.5568 H   0  0  0  0  0  0  0  0  0  0  0  0
    3.4151   -9.1618   -4.7613 H   0  0  0  0  0  0  0  0  0  0  0  0
    5.0681   -7.7929   -6.5757 H   0  0  0  0  0  0  0  0  0  0  0  0
    6.4227  -10.0612   -5.4860 H   0  0  0  0  0  0  0  0  0  0  0  0
    5.1948   -8.7789   -3.7631 H   0  0  0  0  0  0  0  0  0  0  0  0
    4.7974   -6.6285   -3.3665 H   0  0  0  0  0  0  0  0  0  0  0  0
    7.4785   -8.8477   -4.6473 H   0  0  0  0  0  0  0  0  0  0  0  0
    6.7326   -8.1279   -2.3927 H   0  0  0  0  0  0  0  0  0  0  0  0
    6.8787   -6.5070   -5.9752 H   0  0  0  0  0  0  0  0  0  0  0  0
    7.9235   -5.9565   -4.6317 H   0  0  0  0  0  0  0  0  0  0  0  0
    9.4625   -7.7191   -5.2529 H   0  0  0  0  0  0  0  0  0  0  0  0
  1  2  1  0
  1 18  2  0
  2  3  2  0
  2  4  1  0
  4  5  1  0
  5  6  2  0
  5  7  1  0
  7  8  2  0
  7 18  1  0
  8  9  1  0
  9 10  1  0
  9 16  2  0
 10 11  2  0
 11 12  1  0
 11 13  1  0
 13 14  1  0
 13 15  2  0
 15 16  1  0
 16 17  1  0
 17 18  1  0
 17 19  1  0
 19 20  1  0
 20 21  1  0
 20 22  1  0
 22 23  1  0
 22 24  1  0
 24 25  1  0
 24 26  1  0
 26 27  1  0
  4 28  1  0
 10 29  1  0
 12 30  1  0
 12 31  1  0
 12 32  1  0
 14 33  1  0
 14 34  1  0
 14 35  1  0
 15 36  1  0
 19 37  1  0
 19 38  1  0
 20 39  1  6
 21 40  1  0
 22 41  1  1
 23 42  1  0
 24 43  1  6
 25 44  1  0
 26 45  1  0
 26 46  1  0
 27 47  1  0
M  END
>  <filename_input>  (25) 
7QF4_RBF_docked.sdf

>  <pdb_id>  (25) 
7QF4_RBF

>  <pose_rank>  (25) 
24

>  <num_atoms_heavy>  (25) 
27

>  <num_torsions>  (25) 
5

>  <pose>  (25) 
[3.154337087152084, -10.364211759158692, -8.212630645545612, 0.8569543494364091, 1.537528354134188, 3.821648321169083, -0.14639154444186123, 0.8213235663172384, -8.698640165834313, -1.9954727342561054, 2.8939077909055166]

>  <energy>  (25) 
-188.1744057076918

>  <inter_energy>  (25) 
-214.83520850907584

>  <intra_energy>  (25) 
22.70184707238718

>  <rmsd>  (25) 
11.132

>  <sdf_rank>  (25) 
0

$$$$

     RDKit          3D

 47 49  0  0  0  0  0  0  0  0999 V2000
   -1.6780   -6.2960  -13.1260 N   0  0  0  0  0  0  0  0  0  0  0  0
   -1.9190   -6.8680  -14.3260 C   0  0  0  0  0  0  0  0  0  0  0  0
   -2.9420   -7.6260  -14.5040 O   0  0  0  0  0  0  0  0  0  0  0  0
   -1.0420   -6.7180  -15.3720 N   0  0  0  0  0  0  0  0  0  0  0  0
    0.1290   -5.9690  -15.3010 C   0  0  0  0  0  0  0  0  0  0  0  0
    0.8880   -5.9590  -16.2550 O   0  0  0  0  0  0  0  0  0  0  0  0
    0.3430   -5.2930  -14.0530 C   0  0  0  0  0  0  0  0  0  0  0  0
    1.4320   -4.5220  -13.9310 N   0  0  0  0  0  0  0  0  0  0  0  0
    1.6170   -3.9420  -12.7060 C   0  0  0  0  0  0  0  0  0  0  0  0
    2.7640   -3.1200  -12.5130 C   0  0  0  0  0  0  0  0  0  0  0  0
    3.0450   -2.5180  -11.3130 C   0  0  0  0  0  0  0  0  0  0  0  0
    4.3040   -1.7050  -11.1360 C   0  0  0  0  0  0  0  0  0  0  0  0
    2.1510   -2.6620  -10.2510 C   0  0  0  0  0  0  0  0  0  0  0  0
    2.3810   -2.0360   -8.9030 C   0  0  0  0  0  0  0  0  0  0  0  0
    1.0340   -3.4970  -10.3960 C   0  0  0  0  0  0  0  0  0  0  0  0
    0.7540   -4.1210  -11.6080 C   0  0  0  0  0  0  0  0  0  0  0  0
   -0.3530   -4.9470  -11.7910 N   0  0  0  0  0  0  0  0  0  0  0  0
   -0.5810   -5.5220  -13.0220 C   0  0  0  0  0  0  0  0  0  0  0  0
   -1.2210   -5.2880  -10.6550 C   0  0  0  0  0  0  0  0  0  0  0  0
   -2.4070   -4.3950  -10.4410 C   0  0  2  0  0  0  0  0  0  0  0  0
   -1.9530   -3.0700  -10.6600 O   0  0  0  0  0  0  0  0  0  0  0  0
   -2.9750   -4.5370   -9.0310 C   0  0  2  0  0  0  0  0  0  0  0  0
   -1.9720   -4.2560   -8.0900 O   0  0  0  0  0  0  0  0  0  0  0  0
   -3.5870   -5.9100   -8.7310 C   0  0  2  0  0  0  0  0  0  0  0  0
   -4.5440   -6.2670   -9.7230 O   0  0  0  0  0  0  0  0  0  0  0  0
   -4.2010   -5.9980   -7.3570 C   0  0  0  0  0  0  0  0  0  0  0  0
   -5.3370   -5.0400   -7.2870 O   0  0  0  0  0  0  0  0  0  0  0  0
   -1.2638   -7.1874  -16.2616 H   0  0  0  0  0  0  0  0  0  0  0  0
    3.4503   -2.9620  -13.3580 H   0  0  0  0  0  0  0  0  0  0  0  0
    4.5077   -1.5734  -10.0631 H   0  0  0  0  0  0  0  0  0  0  0  0
    5.1482   -2.2290  -11.6080 H   0  0  0  0  0  0  0  0  0  0  0  0
    4.1738   -0.7200  -11.6080 H   0  0  0  0  0  0  0  0  0  0  0  0
    2.1165   -2.7559   -8.1145 H   0  0  0  0  0  0  0  0  0  0  0  0
    3.4404   -1.7569   -8.8043 H   0  0  0  0  0  0  0  0  0  0  0  0
    1.7543   -1.1374   -8.8043 H   0  0  0  0  0  0  0  0  0  0  0  0
    0.3673   -3.6617   -9.5367 H   0  0  0  0  0  0  0  0  0  0  0  0
   -1.5941   -6.3108  -10.8120 H   0  0  0  0  0  0  0  0  0  0  0  0
   -0.5953   -5.1691   -9.7582 H   0  0  0  0  0  0  0  0  0  0  0  0
   -3.2202   -4.6661  -11.1304 H   0  0  0  0  0  0  0  0  0  0  0  0
   -1.8006   -2.6252   -9.7888 H   0  0  0  0  0  0  0  0  0  0  0  0
   -3.8005   -3.8133   -8.9620 H   0  0  0  0  0  0  0  0  0  0  0  0
   -2.3387   -4.3587   -7.1762 H   0  0  0  0  0  0  0  0  0  0  0  0
   -2.7542   -6.6283   -8.7543 H   0  0  0  0  0  0  0  0  0  0  0  0
   -5.3751   -6.5770   -9.2833 H   0  0  0  0  0  0  0  0  0  0  0  0
   -4.5657   -7.0202   -7.1781 H   0  0  0  0  0  0  0  0  0  0  0  0
   -3.4507   -5.7505   -6.5916 H   0  0  0  0  0  0  0  0  0  0  0  0
   -5.5554   -4.8558   -6.3391 H   0  0  0  0  0  0  0  0  0  0  0  0
  1  2  1  0
  1 18  2  0
  2  3  2  0
  2  4  1  0
  4  5  1  0
  5  6  2  0
  5  7  1  0
  7  8  2  0
  7 18  1  0
  8  9  1  0
  9 10  1  0
  9 16  2  0
 10 11  2  0
 11 12  1  0
 11 13  1  0
 13 14  1  0
 13 15  2  0
 15 16  1  0
 16 17  1  0
 17 18  1  0
 17 19  1  0
 19 20  1  0
 20 21  1  0
 20 22  1  0
 22 23  1  0
 22 24  1  0
 24 25  1  0
 24 26  1  0
 26 27  1  0
  4 28  1  0
 10 29  1  0
 12 30  1  0
 12 31  1  0
 12 32  1  0
 14 33  1  0
 14 34  1  0
 14 35  1  0
 15 36  1  0
 19 37  1  0
 19 38  1  0
 20 39  1  6
 21 40  1  0
 22 41  1  6
 23 42  1  0
 24 43  1  1
 25 44  1  0
 26 45  1  0
 26 46  1  0
 27 47  1  0
M  END
>  <filename_input>  (26) 
7QF4_RBF_docked.sdf

>  <pdb_id>  (26) 
7QF4_RBF

>  <pose_rank>  (26) 
25

>  <num_atoms_heavy>  (26) 
27

>  <num_torsions>  (26) 
5

>  <pose>  (26) 
[-1.678, -6.296, -13.126, 1e-06, 1e-06, 1e-06, 0.0, 0.0, 0.0, 0.0, 0.0]

>  <energy>  (26) 
-1021.5693487821162

>  <inter_energy>  (26) 
-1054.5711431215695

>  <intra_energy>  (26) 
23.76289614154541

>  <rmsd>  (26) 
0.0

>  <sdf_rank>  (26) 
0

$$$$
