
     RDKit          3D

 30 32  0  0  0  0  0  0  0  0999 V2000
 -119.5597  203.2260   -3.2243 C   0  0  0  0  0  0  0  0  0  0  0  0
 -119.4429  201.9885   -3.8244 C   0  0  0  0  0  0  0  0  0  0  0  0
 -118.4182  199.7319   -4.0203 C   0  0  0  0  0  0  0  0  0  0  0  0
 -118.4973  201.0732   -3.3859 C   0  0  0  0  0  0  0  0  0  0  0  0
 -117.6569  201.4344   -2.3402 C   0  0  0  0  0  0  0  0  0  0  0  0
 -117.7678  202.6793   -1.7486 C   0  0  0  0  0  0  0  0  0  0  0  0
 -118.4720  198.7098   -3.3339 O   0  0  0  0  0  0  0  0  0  0  0  0
 -118.7290  203.5966   -2.1726 C   0  0  0  0  0  0  0  0  0  0  0  0
 -118.2866  199.7337   -5.3224 O   0  0  0  0  0  0  0  0  0  0  0  0
 -118.9282  204.9081   -1.5529 C   0  0  0  0  0  0  0  0  0  0  0  0
 -119.3833  205.1945   -0.3241 C   0  0  0  0  0  0  0  0  0  0  0  0
 -119.2427  207.6321   -0.4877 O   0  0  0  0  0  0  0  0  0  0  0  0
 -119.5001  206.6159    0.1518 C   0  0  0  0  0  0  0  0  0  0  0  0
 -119.9733  203.0059    0.9932 C   0  0  0  0  0  0  0  0  0  0  0  0
 -119.8246  204.3775    0.7890 C   0  0  0  0  0  0  0  0  0  0  0  0
 -119.9604  206.5650    1.4214 N   0  0  0  0  0  0  0  0  0  0  0  0
 -120.4467  202.5398    2.2108 C   0  0  0  0  0  0  0  0  0  0  0  0
 -120.7725  203.4219    3.2324 C   0  0  0  0  0  0  0  0  0  0  0  0
 -120.6360  204.7912    3.0574 C   0  0  0  0  0  0  0  0  0  0  0  0
 -120.1646  205.2565    1.8386 C   0  0  0  0  0  0  0  0  0  0  0  0
 -120.3232  203.9314   -3.5843 H   0  0  0  0  0  0  0  0  0  0  0  0
 -120.1077  201.7249   -4.6603 H   0  0  0  0  0  0  0  0  0  0  0  0
 -116.8977  200.7246   -1.9800 H   0  0  0  0  0  0  0  0  0  0  0  0
 -117.0859  202.9509   -0.9293 H   0  0  0  0  0  0  0  0  0  0  0  0
 -118.6700  205.7749   -2.1792 H   0  0  0  0  0  0  0  0  0  0  0  0
 -119.7164  202.2970    0.1922 H   0  0  0  0  0  0  0  0  0  0  0  0
 -120.1376  207.3937    2.0068 H   0  0  0  0  0  0  0  0  0  0  0  0
 -120.5655  201.4577    2.3691 H   0  0  0  0  0  0  0  0  0  0  0  0
 -121.1430  203.0306    4.1914 H   0  0  0  0  0  0  0  0  0  0  0  0
 -120.8953  205.4910    3.8655 H   0  0  0  0  0  0  0  0  0  0  0  0
  1  2  2  0
  1  8  1  0
  2  4  1  0
  3  4  1  0
  3  7  2  0
  3  9  1  0
  4  5  2  0
  5  6  1  0
  6  8  2  0
  8 10  1  0
 10 11  2  3
 11 13  1  0
 11 15  1  0
 12 13  2  0
 13 16  1  0
 14 15  2  0
 14 17  1  0
 15 20  1  0
 16 20  1  0
 17 18  2  0
 18 19  1  0
 19 20  2  0
  1 21  1  0
  2 22  1  0
  5 23  1  0
  6 24  1  0
 10 25  1  0
 14 26  1  0
 16 27  1  0
 17 28  1  0
 18 29  1  0
 19 30  1  0
M  CHG  1   9  -1
M  END
>  <filename_input>  (1) 
7QFM_AY3_docked.sdf

>  <pdb_id>  (1) 
7QFM_AY3

>  <pose_rank>  (1) 
0

>  <num_atoms_heavy>  (1) 
20

>  <num_torsions>  (1) 
2

>  <pose>  (1) 
[-118.92819623239345, 204.9081286091604, -1.5529395534974864, -2.2869603365523448, 4.195891366963155, 3.9194679358036395, -0.31259383784924333, -2.230584920375271]

>  <energy>  (1) 
-842.7573864249792

>  <inter_energy>  (1) 
-834.9661772733282

>  <intra_energy>  (1) 
2.5456777316869093

>  <rmsd>  (1) 
0.458748

>  <sdf_rank>  (1) 
0

$$$$

     RDKit          3D

 30 32  0  0  0  0  0  0  0  0999 V2000
 -118.5220  201.2494   -0.1418 C   0  0  0  0  0  0  0  0  0  0  0  0
 -118.2758  200.7419   -1.4016 C   0  0  0  0  0  0  0  0  0  0  0  0
 -118.4637  200.8306   -3.8790 C   0  0  0  0  0  0  0  0  0  0  0  0
 -118.7767  201.3723   -2.5312 C   0  0  0  0  0  0  0  0  0  0  0  0
 -119.5469  202.5169   -2.3678 C   0  0  0  0  0  0  0  0  0  0  0  0
 -119.8022  203.0165   -1.1039 C   0  0  0  0  0  0  0  0  0  0  0  0
 -118.7738  201.4572   -4.8938 O   0  0  0  0  0  0  0  0  0  0  0  0
 -119.2859  202.3979    0.0344 C   0  0  0  0  0  0  0  0  0  0  0  0
 -117.8570  199.6711   -3.8909 O   0  0  0  0  0  0  0  0  0  0  0  0
 -119.4788  202.9077    1.3933 C   0  0  0  0  0  0  0  0  0  0  0  0
 -119.5542  204.1809    1.8084 C   0  0  0  0  0  0  0  0  0  0  0  0
 -119.8874  203.7250    4.1894 O   0  0  0  0  0  0  0  0  0  0  0  0
 -119.7809  204.5162    3.2563 C   0  0  0  0  0  0  0  0  0  0  0  0
 -119.2692  205.8423   -0.1995 C   0  0  0  0  0  0  0  0  0  0  0  0
 -119.4784  205.4567    1.1243 C   0  0  0  0  0  0  0  0  0  0  0  0
 -119.8301  205.8640    3.3410 N   0  0  0  0  0  0  0  0  0  0  0  0
 -119.2416  207.1901   -0.5265 C   0  0  0  0  0  0  0  0  0  0  0  0
 -119.4227  208.1625    0.4481 C   0  0  0  0  0  0  0  0  0  0  0  0
 -119.6315  207.8085    1.7729 C   0  0  0  0  0  0  0  0  0  0  0  0
 -119.6567  206.4605    2.0992 C   0  0  0  0  0  0  0  0  0  0  0  0
 -118.1067  200.7363    0.7382 H   0  0  0  0  0  0  0  0  0  0  0  0
 -117.6753  199.8268   -1.5111 H   0  0  0  0  0  0  0  0  0  0  0  0
 -119.9567  203.0296   -3.2504 H   0  0  0  0  0  0  0  0  0  0  0  0
 -120.4235  203.9176   -0.9944 H   0  0  0  0  0  0  0  0  0  0  0  0
 -119.5748  202.1440    2.1792 H   0  0  0  0  0  0  0  0  0  0  0  0
 -119.1267  205.0812   -0.9808 H   0  0  0  0  0  0  0  0  0  0  0  0
 -119.9778  206.3842    4.2177 H   0  0  0  0  0  0  0  0  0  0  0  0
 -119.0741  207.4923   -1.5708 H   0  0  0  0  0  0  0  0  0  0  0  0
 -119.4005  209.2256    0.1663 H   0  0  0  0  0  0  0  0  0  0  0  0
 -119.7736  208.5780    2.5460 H   0  0  0  0  0  0  0  0  0  0  0  0
  1  2  2  0
  1  8  1  0
  2  4  1  0
  3  4  1  0
  3  7  2  0
  3  9  1  0
  4  5  2  0
  5  6  1  0
  6  8  2  0
  8 10  1  0
 10 11  2  3
 11 13  1  0
 11 15  1  0
 12 13  2  0
 13 16  1  0
 14 15  2  0
 14 17  1  0
 15 20  1  0
 16 20  1  0
 17 18  2  0
 18 19  1  0
 19 20  2  0
  1 21  1  0
  2 22  1  0
  5 23  1  0
  6 24  1  0
 10 25  1  0
 14 26  1  0
 16 27  1  0
 17 28  1  0
 18 29  1  0
 19 30  1  0
M  CHG  1   9  -1
M  END
>  <filename_input>  (2) 
7QFM_AY3_docked.sdf

>  <pdb_id>  (2) 
7QFM_AY3

>  <pose_rank>  (2) 
1

>  <num_atoms_heavy>  (2) 
20

>  <num_torsions>  (2) 
2

>  <pose>  (2) 
[-119.47881059937065, 202.9076561096985, 1.3932585120088035, 0.5426591264210632, -2.064785437900548, -2.196855607180424, -6.022349766462801, -3.029524490143569]

>  <energy>  (2) 
-595.2833256271939

>  <inter_energy>  (2) 
-615.6726475758327

>  <intra_energy>  (2) 
25.410909022335108

>  <rmsd>  (2) 
3.00478

>  <sdf_rank>  (2) 
0

$$$$

     RDKit          3D

 30 32  0  0  0  0  0  0  0  0999 V2000
 -117.9198  201.2608    0.7135 C   0  0  0  0  0  0  0  0  0  0  0  0
 -117.8381  200.8567    2.0308 C   0  0  0  0  0  0  0  0  0  0  0  0
 -118.7890  200.6125    4.3148 C   0  0  0  0  0  0  0  0  0  0  0  0
 -118.8828  201.0935    2.9121 C   0  0  0  0  0  0  0  0  0  0  0  0
 -120.0078  201.7621    2.4458 C   0  0  0  0  0  0  0  0  0  0  0  0
 -120.0822  202.1766    1.1287 C   0  0  0  0  0  0  0  0  0  0  0  0
 -117.6969  200.3206    4.8056 O   0  0  0  0  0  0  0  0  0  0  0  0
 -119.0431  201.9249    0.2332 C   0  0  0  0  0  0  0  0  0  0  0  0
 -119.9267  200.5256    4.9557 O   0  0  0  0  0  0  0  0  0  0  0  0
 -119.0852  202.2933   -1.1832 C   0  0  0  0  0  0  0  0  0  0  0  0
 -119.2122  203.5119   -1.7292 C   0  0  0  0  0  0  0  0  0  0  0  0
 -119.1334  202.8238   -4.0762 O   0  0  0  0  0  0  0  0  0  0  0  0
 -119.2120  203.7012   -3.2207 C   0  0  0  0  0  0  0  0  0  0  0  0
 -119.4315  205.3537    0.1237 C   0  0  0  0  0  0  0  0  0  0  0  0
 -119.3487  204.8429   -1.1715 C   0  0  0  0  0  0  0  0  0  0  0  0
 -119.3315  205.0285   -3.4449 N   0  0  0  0  0  0  0  0  0  0  0  0
 -119.5743  206.7200    0.3157 C   0  0  0  0  0  0  0  0  0  0  0  0
 -119.6331  207.5882   -0.7663 C   0  0  0  0  0  0  0  0  0  0  0  0
 -119.5546  207.1086   -2.0655 C   0  0  0  0  0  0  0  0  0  0  0  0
 -119.4140  205.7418   -2.2565 C   0  0  0  0  0  0  0  0  0  0  0  0
 -117.0817  201.0538    0.0318 H   0  0  0  0  0  0  0  0  0  0  0  0
 -116.9339  200.3407    2.3860 H   0  0  0  0  0  0  0  0  0  0  0  0
 -120.8458  201.9633    3.1295 H   0  0  0  0  0  0  0  0  0  0  0  0
 -120.9767  202.7144    0.7811 H   0  0  0  0  0  0  0  0  0  0  0  0
 -119.0015  201.4589   -1.8950 H   0  0  0  0  0  0  0  0  0  0  0  0
 -119.3838  204.6761    0.9889 H   0  0  0  0  0  0  0  0  0  0  0  0
 -119.3581  205.4576   -4.3809 H   0  0  0  0  0  0  0  0  0  0  0  0
 -119.6418  207.1207    1.3379 H   0  0  0  0  0  0  0  0  0  0  0  0
 -119.7432  208.6686   -0.5912 H   0  0  0  0  0  0  0  0  0  0  0  0
 -119.6026  207.7954   -2.9234 H   0  0  0  0  0  0  0  0  0  0  0  0
  1  2  2  0
  1  8  1  0
  2  4  1  0
  3  4  1  0
  3  7  2  0
  3  9  1  0
  4  5  2  0
  5  6  1  0
  6  8  2  0
  8 10  1  0
 10 11  2  3
 11 13  1  0
 11 15  1  0
 12 13  2  0
 13 16  1  0
 14 15  2  0
 14 17  1  0
 15 20  1  0
 16 20  1  0
 17 18  2  0
 18 19  1  0
 19 20  2  0
  1 21  1  0
  2 22  1  0
  5 23  1  0
  6 24  1  0
 10 25  1  0
 14 26  1  0
 16 27  1  0
 17 28  1  0
 18 29  1  0
 19 30  1  0
M  CHG  1   9  -1
M  END
>  <filename_input>  (3) 
7QFM_AY3_docked.sdf

>  <pdb_id>  (3) 
7QFM_AY3

>  <pose_rank>  (3) 
2

>  <num_atoms_heavy>  (3) 
20

>  <num_torsions>  (3) 
2

>  <pose>  (3) 
[-119.08521717821799, 202.29333291520703, -1.1831682152849807, -1.7412219766696269, 0.07991985511818832, -0.21280174744402305, 1.9182583724454405, 0.29817566182342786]

>  <energy>  (3) 
-663.3866847040908

>  <inter_energy>  (3) 
-647.6488166107754

>  <intra_energy>  (3) 
6.155219921147527

>  <rmsd>  (3) 
5.36729

>  <sdf_rank>  (3) 
0

$$$$

     RDKit          3D

 30 32  0  0  0  0  0  0  0  0999 V2000
 -119.9063  202.7110    2.2338 C   0  0  0  0  0  0  0  0  0  0  0  0
 -120.5648  203.6068    3.0519 C   0  0  0  0  0  0  0  0  0  0  0  0
 -120.9167  205.8888    3.9734 C   0  0  0  0  0  0  0  0  0  0  0  0
 -120.1665  204.9340    3.1171 C   0  0  0  0  0  0  0  0  0  0  0  0
 -119.0788  205.3402    2.3542 C   0  0  0  0  0  0  0  0  0  0  0  0
 -118.4132  204.4382    1.5446 C   0  0  0  0  0  0  0  0  0  0  0  0
 -120.8350  205.8269    5.2015 O   0  0  0  0  0  0  0  0  0  0  0  0
 -118.8205  203.1070    1.4605 C   0  0  0  0  0  0  0  0  0  0  0  0
 -121.6472  206.7643    3.3312 O   0  0  0  0  0  0  0  0  0  0  0  0
 -118.1887  202.1188    0.5842 C   0  0  0  0  0  0  0  0  0  0  0  0
 -118.1847  202.0677   -0.7562 C   0  0  0  0  0  0  0  0  0  0  0  0
 -116.8362  200.0400   -0.9979 O   0  0  0  0  0  0  0  0  0  0  0  0
 -117.4548  200.9787   -1.4921 C   0  0  0  0  0  0  0  0  0  0  0  0
 -119.5582  204.0541   -1.7764 C   0  0  0  0  0  0  0  0  0  0  0  0
 -118.7629  202.9085   -1.7858 C   0  0  0  0  0  0  0  0  0  0  0  0
 -117.6220  201.2202   -2.8112 N   0  0  0  0  0  0  0  0  0  0  0  0
 -119.9613  204.6206   -2.9767 C   0  0  0  0  0  0  0  0  0  0  0  0
 -119.5805  204.0629   -4.1900 C   0  0  0  0  0  0  0  0  0  0  0  0
 -118.7910  202.9231   -4.2300 C   0  0  0  0  0  0  0  0  0  0  0  0
 -118.3902  202.3561   -3.0291 C   0  0  0  0  0  0  0  0  0  0  0  0
 -120.2463  201.6657    2.1928 H   0  0  0  0  0  0  0  0  0  0  0  0
 -121.4154  203.2642    3.6593 H   0  0  0  0  0  0  0  0  0  0  0  0
 -118.7445  206.3874    2.3945 H   0  0  0  0  0  0  0  0  0  0  0  0
 -117.5473  204.7765    0.9566 H   0  0  0  0  0  0  0  0  0  0  0  0
 -117.6444  201.3098    1.0933 H   0  0  0  0  0  0  0  0  0  0  0  0
 -119.8644  204.5064   -0.8216 H   0  0  0  0  0  0  0  0  0  0  0  0
 -117.2285  200.6346   -3.5616 H   0  0  0  0  0  0  0  0  0  0  0  0
 -120.5905  205.5228   -2.9673 H   0  0  0  0  0  0  0  0  0  0  0  0
 -119.9087  204.5303   -5.1302 H   0  0  0  0  0  0  0  0  0  0  0  0
 -118.4901  202.4796   -5.1905 H   0  0  0  0  0  0  0  0  0  0  0  0
  1  2  2  0
  1  8  1  0
  2  4  1  0
  3  4  1  0
  3  7  2  0
  3  9  1  0
  4  5  2  0
  5  6  1  0
  6  8  2  0
  8 10  1  0
 10 11  2  3
 11 13  1  0
 11 15  1  0
 12 13  2  0
 13 16  1  0
 14 15  2  0
 14 17  1  0
 15 20  1  0
 16 20  1  0
 17 18  2  0
 18 19  1  0
 19 20  2  0
  1 21  1  0
  2 22  1  0
  5 23  1  0
  6 24  1  0
 10 25  1  0
 14 26  1  0
 16 27  1  0
 17 28  1  0
 18 29  1  0
 19 30  1  0
M  CHG  1   9  -1
M  END
>  <filename_input>  (4) 
7QFM_AY3_docked.sdf

>  <pdb_id>  (4) 
7QFM_AY3

>  <pose_rank>  (4) 
3

>  <num_atoms_heavy>  (4) 
20

>  <num_torsions>  (4) 
2

>  <pose>  (4) 
[-118.1887469151212, 202.1188176939489, 0.5841842549565875, 3.2438163251194365, 1.006063682512364, 0.3526370820420246, -0.31255751490946965, 1.222152478515865]

>  <energy>  (4) 
-548.1637879391385

>  <inter_energy>  (4) 
-556.2385684726355

>  <intra_energy>  (4) 
2.5464485730088553

>  <rmsd>  (4) 
6.91251

>  <sdf_rank>  (4) 
0

$$$$

     RDKit          3D

 30 32  0  0  0  0  0  0  0  0999 V2000
 -120.2153  202.0565    1.7819 C   0  0  0  0  0  0  0  0  0  0  0  0
 -120.3546  200.8795    2.4894 C   0  0  0  0  0  0  0  0  0  0  0  0
 -119.4970  198.6916    3.3008 C   0  0  0  0  0  0  0  0  0  0  0  0
 -119.3410  199.9324    2.4985 C   0  0  0  0  0  0  0  0  0  0  0  0
 -118.1880  200.1852    1.7658 C   0  0  0  0  0  0  0  0  0  0  0  0
 -118.0558  201.3597    1.0481 C   0  0  0  0  0  0  0  0  0  0  0  0
 -120.2017  198.6834    4.3118 O   0  0  0  0  0  0  0  0  0  0  0  0
 -119.0635  202.3239    1.0502 C   0  0  0  0  0  0  0  0  0  0  0  0
 -118.8405  197.6500    2.8572 O   0  0  0  0  0  0  0  0  0  0  0  0
 -118.9605  203.6069    0.3525 C   0  0  0  0  0  0  0  0  0  0  0  0
 -118.9994  203.8498   -0.9661 C   0  0  0  0  0  0  0  0  0  0  0  0
 -118.7487  206.2815   -0.8540 O   0  0  0  0  0  0  0  0  0  0  0  0
 -118.9001  205.2504   -1.5036 C   0  0  0  0  0  0  0  0  0  0  0  0
 -119.2691  201.6236   -2.3242 C   0  0  0  0  0  0  0  0  0  0  0  0
 -119.1465  202.9993   -2.1307 C   0  0  0  0  0  0  0  0  0  0  0  0
 -118.9938  205.1590   -2.8486 N   0  0  0  0  0  0  0  0  0  0  0  0
 -119.3837  201.1181   -3.6108 C   0  0  0  0  0  0  0  0  0  0  0  0
 -119.3809  201.9653   -4.7110 C   0  0  0  0  0  0  0  0  0  0  0  0
 -119.2592  203.3375   -4.5489 C   0  0  0  0  0  0  0  0  0  0  0  0
 -119.1425  203.8419   -3.2620 C   0  0  0  0  0  0  0  0  0  0  0  0
 -121.0297  202.7958    1.7972 H   0  0  0  0  0  0  0  0  0  0  0  0
 -121.2803  200.6902    3.0527 H   0  0  0  0  0  0  0  0  0  0  0  0
 -117.3740  199.4454    1.7566 H   0  0  0  0  0  0  0  0  0  0  0  0
 -117.1399  201.5367    0.4652 H   0  0  0  0  0  0  0  0  0  0  0  0
 -118.8343  204.4902    0.9959 H   0  0  0  0  0  0  0  0  0  0  0  0
 -119.2748  200.9425   -1.4604 H   0  0  0  0  0  0  0  0  0  0  0  0
 -118.9593  205.9661   -3.4877 H   0  0  0  0  0  0  0  0  0  0  0  0
 -119.4779  200.0326   -3.7615 H   0  0  0  0  0  0  0  0  0  0  0  0
 -119.4764  201.5435   -5.7224 H   0  0  0  0  0  0  0  0  0  0  0  0
 -119.2554  204.0095   -5.4198 H   0  0  0  0  0  0  0  0  0  0  0  0
  1  2  2  0
  1  8  1  0
  2  4  1  0
  3  4  1  0
  3  7  2  0
  3  9  1  0
  4  5  2  0
  5  6  1  0
  6  8  2  0
  8 10  1  0
 10 11  2  3
 11 13  1  0
 11 15  1  0
 12 13  2  0
 13 16  1  0
 14 15  2  0
 14 17  1  0
 15 20  1  0
 16 20  1  0
 17 18  2  0
 18 19  1  0
 19 20  2  0
  1 21  1  0
  2 22  1  0
  5 23  1  0
  6 24  1  0
 10 25  1  0
 14 26  1  0
 16 27  1  0
 17 28  1  0
 18 29  1  0
 19 30  1  0
M  CHG  1   9  -1
M  END
>  <filename_input>  (5) 
7QFM_AY3_docked.sdf

>  <pdb_id>  (5) 
7QFM_AY3

>  <pose_rank>  (5) 
4

>  <num_atoms_heavy>  (5) 
20

>  <num_torsions>  (5) 
2

>  <pose>  (5) 
[-118.96050707466101, 203.60694386124933, 0.35246066733893083, -0.08815205805873565, -2.796994559226874, 0.056802451763413635, 2.116721744237057, -0.5148335092573249]

>  <energy>  (5) 
-648.1980271273198

>  <inter_energy>  (5) 
-628.7199724369516

>  <intra_energy>  (5) 
1.3891919919158378

>  <rmsd>  (5) 
5.4265

>  <sdf_rank>  (5) 
0

$$$$

     RDKit          3D

 30 32  0  0  0  0  0  0  0  0999 V2000
 -117.6197  201.8043   -2.7748 C   0  0  0  0  0  0  0  0  0  0  0  0
 -117.3841  200.6397   -3.4773 C   0  0  0  0  0  0  0  0  0  0  0  0
 -117.9562  198.9896   -5.2466 C   0  0  0  0  0  0  0  0  0  0  0  0
 -118.2528  200.2250   -4.4760 C   0  0  0  0  0  0  0  0  0  0  0  0
 -119.3760  200.9976   -4.7437 C   0  0  0  0  0  0  0  0  0  0  0  0
 -119.6162  202.1576   -4.0304 C   0  0  0  0  0  0  0  0  0  0  0  0
 -117.1663  199.0153   -6.1922 O   0  0  0  0  0  0  0  0  0  0  0  0
 -118.7367  202.5896   -3.0380 C   0  0  0  0  0  0  0  0  0  0  0  0
 -118.5882  197.9148   -4.8490 O   0  0  0  0  0  0  0  0  0  0  0  0
 -118.9102  203.8332   -2.2851 C   0  0  0  0  0  0  0  0  0  0  0  0
 -119.0357  204.0008   -0.9602 C   0  0  0  0  0  0  0  0  0  0  0  0
 -119.2377  206.4395   -0.9609 O   0  0  0  0  0  0  0  0  0  0  0  0
 -119.1837  205.3707   -0.3587 C   0  0  0  0  0  0  0  0  0  0  0  0
 -118.9702  201.6967    0.2888 C   0  0  0  0  0  0  0  0  0  0  0  0
 -119.0488  203.0834    0.1620 C   0  0  0  0  0  0  0  0  0  0  0  0
 -119.2626  205.2020    0.9798 N   0  0  0  0  0  0  0  0  0  0  0  0
 -119.0265  201.1175    1.5479 C   0  0  0  0  0  0  0  0  0  0  0  0
 -119.1575  201.9014    2.6865 C   0  0  0  0  0  0  0  0  0  0  0  0
 -119.2393  203.2828    2.5908 C   0  0  0  0  0  0  0  0  0  0  0  0
 -119.1851  203.8609    1.3310 C   0  0  0  0  0  0  0  0  0  0  0  0
 -116.9115  202.1167   -1.9931 H   0  0  0  0  0  0  0  0  0  0  0  0
 -116.4969  200.0333   -3.2423 H   0  0  0  0  0  0  0  0  0  0  0  0
 -120.0795  200.6843   -5.5292 H   0  0  0  0  0  0  0  0  0  0  0  0
 -120.5168  202.7500   -4.2494 H   0  0  0  0  0  0  0  0  0  0  0  0
 -118.9419  204.7536   -2.8866 H   0  0  0  0  0  0  0  0  0  0  0  0
 -118.8640  201.0652   -0.6056 H   0  0  0  0  0  0  0  0  0  0  0  0
 -119.3671  205.9724    1.6554 H   0  0  0  0  0  0  0  0  0  0  0  0
 -118.9667  200.0235    1.6457 H   0  0  0  0  0  0  0  0  0  0  0  0
 -119.1968  201.4215    3.6756 H   0  0  0  0  0  0  0  0  0  0  0  0
 -119.3447  203.9047    3.4920 H   0  0  0  0  0  0  0  0  0  0  0  0
  1  2  2  0
  1  8  1  0
  2  4  1  0
  3  4  1  0
  3  7  2  0
  3  9  1  0
  4  5  2  0
  5  6  1  0
  6  8  2  0
  8 10  1  0
 10 11  2  3
 11 13  1  0
 11 15  1  0
 12 13  2  0
 13 16  1  0
 14 15  2  0
 14 17  1  0
 15 20  1  0
 16 20  1  0
 17 18  2  0
 18 19  1  0
 19 20  2  0
  1 21  1  0
  2 22  1  0
  5 23  1  0
  6 24  1  0
 10 25  1  0
 14 26  1  0
 16 27  1  0
 17 28  1  0
 18 29  1  0
 19 30  1  0
M  CHG  1   9  -1
M  END
>  <filename_input>  (6) 
7QFM_AY3_docked.sdf

>  <pdb_id>  (6) 
7QFM_AY3

>  <pose_rank>  (6) 
5

>  <num_atoms_heavy>  (6) 
20

>  <num_torsions>  (6) 
2

>  <pose>  (6) 
[-118.91021515034942, 203.83323103655508, -2.2850585984812395, 0.09562390589174367, 0.2137741877452549, 0.05759871965007785, 2.9764270566326183, 4.82840303787261]

>  <energy>  (6) 
-678.3045725260181

>  <inter_energy>  (6) 
-663.3116833919833

>  <intra_energy>  (6) 
8.646749216643125

>  <rmsd>  (6) 
1.84431

>  <sdf_rank>  (6) 
0

$$$$

     RDKit          3D

 30 32  0  0  0  0  0  0  0  0999 V2000
 -116.6588  201.5251    0.0359 C   0  0  0  0  0  0  0  0  0  0  0  0
 -116.2589  201.5069    1.3570 C   0  0  0  0  0  0  0  0  0  0  0  0
 -116.3447  200.5840    3.6638 C   0  0  0  0  0  0  0  0  0  0  0  0
 -116.8208  200.6129    2.2566 C   0  0  0  0  0  0  0  0  0  0  0  0
 -117.8080  199.7463    1.8043 C   0  0  0  0  0  0  0  0  0  0  0  0
 -118.2154  199.7746    0.4832 C   0  0  0  0  0  0  0  0  0  0  0  0
 -117.1183  200.8255    4.5922 O   0  0  0  0  0  0  0  0  0  0  0  0
 -117.6411  200.6583   -0.4302 C   0  0  0  0  0  0  0  0  0  0  0  0
 -115.0782  200.2949    3.8221 O   0  0  0  0  0  0  0  0  0  0  0  0
 -117.9939  200.7002   -1.8505 C   0  0  0  0  0  0  0  0  0  0  0  0
 -118.4515  201.7352   -2.5707 C   0  0  0  0  0  0  0  0  0  0  0  0
 -118.6337  200.5782   -4.7192 O   0  0  0  0  0  0  0  0  0  0  0  0
 -118.7404  201.5953   -4.0394 C   0  0  0  0  0  0  0  0  0  0  0  0
 -118.7185  203.8737   -1.0777 C   0  0  0  0  0  0  0  0  0  0  0  0
 -118.7548  203.1154   -2.2477 C   0  0  0  0  0  0  0  0  0  0  0  0
 -119.1583  202.8057   -4.4713 N   0  0  0  0  0  0  0  0  0  0  0  0
 -119.0965  205.2079   -1.1116 C   0  0  0  0  0  0  0  0  0  0  0  0
 -119.5088  205.8007   -2.2977 C   0  0  0  0  0  0  0  0  0  0  0  0
 -119.5562  205.0708   -3.4762 C   0  0  0  0  0  0  0  0  0  0  0  0
 -119.1800  203.7361   -3.4409 C   0  0  0  0  0  0  0  0  0  0  0  0
 -116.1922  202.2376   -0.6602 H   0  0  0  0  0  0  0  0  0  0  0  0
 -115.4856  202.2098    1.7005 H   0  0  0  0  0  0  0  0  0  0  0  0
 -118.2691  199.0321    2.5025 H   0  0  0  0  0  0  0  0  0  0  0  0
 -119.0064  199.0881    0.1468 H   0  0  0  0  0  0  0  0  0  0  0  0
 -117.8665  199.7564   -2.4009 H   0  0  0  0  0  0  0  0  0  0  0  0
 -118.3915  203.4159   -0.1325 H   0  0  0  0  0  0  0  0  0  0  0  0
 -119.4272  203.0123   -5.4439 H   0  0  0  0  0  0  0  0  0  0  0  0
 -119.0694  205.8037   -0.1874 H   0  0  0  0  0  0  0  0  0  0  0  0
 -119.8010  206.8612   -2.3027 H   0  0  0  0  0  0  0  0  0  0  0  0
 -119.8841  205.5390   -4.4161 H   0  0  0  0  0  0  0  0  0  0  0  0
  1  2  2  0
  1  8  1  0
  2  4  1  0
  3  4  1  0
  3  7  2  0
  3  9  1  0
  4  5  2  0
  5  6  1  0
  6  8  2  0
  8 10  1  0
 10 11  2  3
 11 13  1  0
 11 15  1  0
 12 13  2  0
 13 16  1  0
 14 15  2  0
 14 17  1  0
 15 20  1  0
 16 20  1  0
 17 18  2  0
 18 19  1  0
 19 20  2  0
  1 21  1  0
  2 22  1  0
  5 23  1  0
  6 24  1  0
 10 25  1  0
 14 26  1  0
 16 27  1  0
 17 28  1  0
 18 29  1  0
 19 30  1  0
M  CHG  1   9  -1
M  END
>  <filename_input>  (7) 
7QFM_AY3_docked.sdf

>  <pdb_id>  (7) 
7QFM_AY3

>  <pose_rank>  (7) 
6

>  <num_atoms_heavy>  (7) 
20

>  <num_torsions>  (7) 
2

>  <pose>  (7) 
[-117.99389449352496, 200.70023432911125, -1.8505384428166582, -1.9550945399006638, 0.037478750858015615, 0.08311376850948428, -3.275072033134618, 2.0504290481679677]

>  <energy>  (7) 
-628.6184725216838

>  <inter_energy>  (7) 
-624.3006130695563

>  <intra_energy>  (7) 
10.011536852834471

>  <rmsd>  (7) 
5.95691

>  <sdf_rank>  (7) 
0

$$$$

     RDKit          3D

 30 32  0  0  0  0  0  0  0  0999 V2000
 -118.4210  203.1530    1.9092 C   0  0  0  0  0  0  0  0  0  0  0  0
 -118.4047  202.0388    2.7238 C   0  0  0  0  0  0  0  0  0  0  0  0
 -119.4811  200.4830    4.3367 C   0  0  0  0  0  0  0  0  0  0  0  0
 -119.5069  201.7101    3.4992 C   0  0  0  0  0  0  0  0  0  0  0  0
 -120.6232  202.5359    3.4525 C   0  0  0  0  0  0  0  0  0  0  0  0
 -120.6325  203.6583    2.6448 C   0  0  0  0  0  0  0  0  0  0  0  0
 -118.6460  200.3538    5.2337 O   0  0  0  0  0  0  0  0  0  0  0  0
 -119.5346  203.9836    1.8488 C   0  0  0  0  0  0  0  0  0  0  0  0
 -120.3869  199.5848    4.0444 O   0  0  0  0  0  0  0  0  0  0  0  0
 -119.5043  205.1283    0.9364 C   0  0  0  0  0  0  0  0  0  0  0  0
 -119.4887  205.1313   -0.4049 C   0  0  0  0  0  0  0  0  0  0  0  0
 -119.4582  207.5576   -0.7219 O   0  0  0  0  0  0  0  0  0  0  0  0
 -119.4815  206.4189   -1.1810 C   0  0  0  0  0  0  0  0  0  0  0  0
 -119.4846  202.6860   -1.3501 C   0  0  0  0  0  0  0  0  0  0  0  0
 -119.4940  204.0797   -1.4024 C   0  0  0  0  0  0  0  0  0  0  0  0
 -119.4897  206.0846   -2.4904 N   0  0  0  0  0  0  0  0  0  0  0  0
 -119.4807  201.9541   -2.5284 C   0  0  0  0  0  0  0  0  0  0  0  0
 -119.4890  202.5916   -3.7620 C   0  0  0  0  0  0  0  0  0  0  0  0
 -119.4972  203.9762   -3.8446 C   0  0  0  0  0  0  0  0  0  0  0  0
 -119.4988  204.7072   -2.6657 C   0  0  0  0  0  0  0  0  0  0  0  0
 -117.5377  203.3879    1.2971 H   0  0  0  0  0  0  0  0  0  0  0  0
 -117.5070  201.4040    2.7585 H   0  0  0  0  0  0  0  0  0  0  0  0
 -121.5062  202.2952    4.0626 H   0  0  0  0  0  0  0  0  0  0  0  0
 -121.5216  204.3059    2.6299 H   0  0  0  0  0  0  0  0  0  0  0  0
 -119.4929  206.1186    1.4150 H   0  0  0  0  0  0  0  0  0  0  0  0
 -119.4803  202.1695   -0.3789 H   0  0  0  0  0  0  0  0  0  0  0  0
 -119.4893  206.7666   -3.2622 H   0  0  0  0  0  0  0  0  0  0  0  0
 -119.4709  200.8550   -2.4851 H   0  0  0  0  0  0  0  0  0  0  0  0
 -119.4892  201.9918   -4.6841 H   0  0  0  0  0  0  0  0  0  0  0  0
 -119.5022  204.4823   -4.8213 H   0  0  0  0  0  0  0  0  0  0  0  0
  1  2  2  0
  1  8  1  0
  2  4  1  0
  3  4  1  0
  3  7  2  0
  3  9  1  0
  4  5  2  0
  5  6  1  0
  6  8  2  0
  8 10  1  0
 10 11  2  3
 11 13  1  0
 11 15  1  0
 12 13  2  0
 13 16  1  0
 14 15  2  0
 14 17  1  0
 15 20  1  0
 16 20  1  0
 17 18  2  0
 18 19  1  0
 19 20  2  0
  1 21  1  0
  2 22  1  0
  5 23  1  0
  6 24  1  0
 10 25  1  0
 14 26  1  0
 16 27  1  0
 17 28  1  0
 18 29  1  0
 19 30  1  0
M  CHG  1   9  -1
M  END
>  <filename_input>  (8) 
7QFM_AY3_docked.sdf

>  <pdb_id>  (8) 
7QFM_AY3

>  <pose_rank>  (8) 
7

>  <num_atoms_heavy>  (8) 
20

>  <num_torsions>  (8) 
2

>  <pose>  (8) 
[-119.50434507909583, 205.12827289317653, 0.9363872135143055, 0.003983712539136333, 3.4025851303322296, -0.3976410619303114, -1.0772294690949256, 1.039945895382137]

>  <energy>  (8) 
-617.917256581574

>  <inter_energy>  (8) 
-625.4885234595239

>  <intra_energy>  (8) 
4.637993490690126

>  <rmsd>  (8) 
5.47173

>  <sdf_rank>  (8) 
0

$$$$

     RDKit          3D

 30 32  0  0  0  0  0  0  0  0999 V2000
 -118.4911  199.0406   -1.4454 C   0  0  0  0  0  0  0  0  0  0  0  0
 -118.9120  199.0999   -2.7587 C   0  0  0  0  0  0  0  0  0  0  0  0
 -119.1203  200.2621   -4.9464 C   0  0  0  0  0  0  0  0  0  0  0  0
 -118.6952  200.2371   -3.5229 C   0  0  0  0  0  0  0  0  0  0  0  0
 -118.0603  201.3234   -2.9338 C   0  0  0  0  0  0  0  0  0  0  0  0
 -117.6505  201.2659   -1.6143 C   0  0  0  0  0  0  0  0  0  0  0  0
 -119.3408  199.2125   -5.5533 O   0  0  0  0  0  0  0  0  0  0  0  0
 -117.8488  200.1187   -0.8465 C   0  0  0  0  0  0  0  0  0  0  0  0
 -119.2306  201.4527   -5.4784 O   0  0  0  0  0  0  0  0  0  0  0  0
 -117.3923  199.9796    0.5377 C   0  0  0  0  0  0  0  0  0  0  0  0
 -117.8376  200.6099    1.6348 C   0  0  0  0  0  0  0  0  0  0  0  0
 -116.3408  199.5427    3.2501 O   0  0  0  0  0  0  0  0  0  0  0  0
 -117.2568  200.3183    2.9905 C   0  0  0  0  0  0  0  0  0  0  0  0
 -119.7542  202.2959    1.0372 C   0  0  0  0  0  0  0  0  0  0  0  0
 -118.8684  201.6033    1.8623 C   0  0  0  0  0  0  0  0  0  0  0  0
 -117.9277  201.0884    3.8755 N   0  0  0  0  0  0  0  0  0  0  0  0
 -120.6317  203.2166    1.5907 C   0  0  0  0  0  0  0  0  0  0  0  0
 -120.6421  203.4565    2.9583 C   0  0  0  0  0  0  0  0  0  0  0  0
 -119.7717  202.7835    3.8029 C   0  0  0  0  0  0  0  0  0  0  0  0
 -118.8930  201.8645    3.2482 C   0  0  0  0  0  0  0  0  0  0  0  0
 -118.6669  198.1245   -0.8624 H   0  0  0  0  0  0  0  0  0  0  0  0
 -119.4253  198.2352   -3.2045 H   0  0  0  0  0  0  0  0  0  0  0  0
 -117.8823  202.2361   -3.5213 H   0  0  0  0  0  0  0  0  0  0  0  0
 -117.1594  202.1404   -1.1625 H   0  0  0  0  0  0  0  0  0  0  0  0
 -116.5745  199.2620    0.6996 H   0  0  0  0  0  0  0  0  0  0  0  0
 -119.7570  202.1128   -0.0475 H   0  0  0  0  0  0  0  0  0  0  0  0
 -117.7455  201.0983    4.8892 H   0  0  0  0  0  0  0  0  0  0  0  0
 -121.3280  203.7636    0.9380 H   0  0  0  0  0  0  0  0  0  0  0  0
 -121.3487  204.1886    3.3766 H   0  0  0  0  0  0  0  0  0  0  0  0
 -119.7780  202.9740    4.8863 H   0  0  0  0  0  0  0  0  0  0  0  0
  1  2  2  0
  1  8  1  0
  2  4  1  0
  3  4  1  0
  3  7  2  0
  3  9  1  0
  4  5  2  0
  5  6  1  0
  6  8  2  0
  8 10  1  0
 10 11  2  3
 11 13  1  0
 11 15  1  0
 12 13  2  0
 13 16  1  0
 14 15  2  0
 14 17  1  0
 15 20  1  0
 16 20  1  0
 17 18  2  0
 18 19  1  0
 19 20  2  0
  1 21  1  0
  2 22  1  0
  5 23  1  0
  6 24  1  0
 10 25  1  0
 14 26  1  0
 16 27  1  0
 17 28  1  0
 18 29  1  0
 19 30  1  0
M  CHG  1   9  -1
M  END
>  <filename_input>  (9) 
7QFM_AY3_docked.sdf

>  <pdb_id>  (9) 
7QFM_AY3

>  <pose_rank>  (9) 
8

>  <num_atoms_heavy>  (9) 
20

>  <num_torsions>  (9) 
2

>  <pose>  (9) 
[-117.39228228227837, 199.97963182444315, 0.5376636745288461, -1.01667882879849, 1.4838616744724187, 3.598971666432114, -4.221435046338793, -0.35541539218191665]

>  <energy>  (9) 
-608.1489254188335

>  <inter_energy>  (9) 
-586.0382374045248

>  <intra_energy>  (9) 
2.364206250443755

>  <rmsd>  (9) 
4.09049

>  <sdf_rank>  (9) 
0

$$$$

     RDKit          3D

 30 32  0  0  0  0  0  0  0  0999 V2000
 -118.5264  204.6627    1.9850 C   0  0  0  0  0  0  0  0  0  0  0  0
 -118.7603  205.9496    2.4263 C   0  0  0  0  0  0  0  0  0  0  0  0
 -120.1720  207.9888    2.5974 C   0  0  0  0  0  0  0  0  0  0  0  0
 -119.9234  206.6197    2.0763 C   0  0  0  0  0  0  0  0  0  0  0  0
 -120.8416  205.9749    1.2570 C   0  0  0  0  0  0  0  0  0  0  0  0
 -120.5994  204.6903    0.8063 C   0  0  0  0  0  0  0  0  0  0  0  0
 -121.1847  208.2347    3.2552 O   0  0  0  0  0  0  0  0  0  0  0  0
 -119.4408  204.0045    1.1701 C   0  0  0  0  0  0  0  0  0  0  0  0
 -119.2567  208.8764    2.3024 O   0  0  0  0  0  0  0  0  0  0  0  0
 -119.1529  202.6267    0.7670 C   0  0  0  0  0  0  0  0  0  0  0  0
 -119.0522  202.1187   -0.4703 C   0  0  0  0  0  0  0  0  0  0  0  0
 -118.5482  199.8108    0.1683 O   0  0  0  0  0  0  0  0  0  0  0  0
 -118.7237  200.6685   -0.6928 C   0  0  0  0  0  0  0  0  0  0  0  0
 -119.4853  203.9637   -2.2818 C   0  0  0  0  0  0  0  0  0  0  0  0
 -119.1807  202.6926   -1.7952 C   0  0  0  0  0  0  0  0  0  0  0  0
 -118.6729  200.4813   -2.0302 N   0  0  0  0  0  0  0  0  0  0  0  0
 -119.5405  204.1803   -3.6508 C   0  0  0  0  0  0  0  0  0  0  0  0
 -119.2933  203.1473   -4.5452 C   0  0  0  0  0  0  0  0  0  0  0  0
 -118.9893  201.8728   -4.0900 C   0  0  0  0  0  0  0  0  0  0  0  0
 -118.9365  201.6566   -2.7208 C   0  0  0  0  0  0  0  0  0  0  0  0
 -117.6005  204.1491    2.2831 H   0  0  0  0  0  0  0  0  0  0  0  0
 -118.0156  206.4495    3.0631 H   0  0  0  0  0  0  0  0  0  0  0  0
 -121.7684  206.4902    0.9647 H   0  0  0  0  0  0  0  0  0  0  0  0
 -121.3334  204.2007    0.1494 H   0  0  0  0  0  0  0  0  0  0  0  0
 -118.9985  201.9123    1.5891 H   0  0  0  0  0  0  0  0  0  0  0  0
 -119.6808  204.7906   -1.5832 H   0  0  0  0  0  0  0  0  0  0  0  0
 -118.4646  199.5790   -2.4811 H   0  0  0  0  0  0  0  0  0  0  0  0
 -119.7832  205.1830   -4.0327 H   0  0  0  0  0  0  0  0  0  0  0  0
 -119.3391  203.3419   -5.6269 H   0  0  0  0  0  0  0  0  0  0  0  0
 -118.7948  201.0534   -4.7976 H   0  0  0  0  0  0  0  0  0  0  0  0
  1  2  2  0
  1  8  1  0
  2  4  1  0
  3  4  1  0
  3  7  2  0
  3  9  1  0
  4  5  2  0
  5  6  1  0
  6  8  2  0
  8 10  1  0
 10 11  2  3
 11 13  1  0
 11 15  1  0
 12 13  2  0
 13 16  1  0
 14 15  2  0
 14 17  1  0
 15 20  1  0
 16 20  1  0
 17 18  2  0
 18 19  1  0
 19 20  2  0
  1 21  1  0
  2 22  1  0
  5 23  1  0
  6 24  1  0
 10 25  1  0
 14 26  1  0
 16 27  1  0
 17 28  1  0
 18 29  1  0
 19 30  1  0
M  CHG  1   9  -1
M  END
>  <filename_input>  (10) 
7QFM_AY3_docked.sdf

>  <pdb_id>  (10) 
7QFM_AY3

>  <pose_rank>  (10) 
9

>  <num_atoms_heavy>  (10) 
20

>  <num_torsions>  (10) 
2

>  <pose>  (10) 
[-119.15291099565235, 202.6266728531818, 0.766977660698643, -3.2010017616578375, -0.45373864252465, -0.48105514039460073, 1.8846968049817794, -2.16137193005118]

>  <energy>  (10) 
-557.2521197326051

>  <inter_energy>  (10) 
-560.1114042217715

>  <intra_energy>  (10) 
7.28119095690602

>  <rmsd>  (10) 
7.0341

>  <sdf_rank>  (10) 
0

$$$$

     RDKit          3D

 30 32  0  0  0  0  0  0  0  0999 V2000
 -119.1585  200.4594    2.0790 C   0  0  0  0  0  0  0  0  0  0  0  0
 -118.7186  199.1584    2.2175 C   0  0  0  0  0  0  0  0  0  0  0  0
 -116.9181  197.4453    2.2831 C   0  0  0  0  0  0  0  0  0  0  0  0
 -117.3731  198.8464    2.0888 C   0  0  0  0  0  0  0  0  0  0  0  0
 -116.4779  199.8689    1.8001 C   0  0  0  0  0  0  0  0  0  0  0  0
 -116.9226  201.1695    1.6498 C   0  0  0  0  0  0  0  0  0  0  0  0
 -117.3340  196.7771    3.2314 O   0  0  0  0  0  0  0  0  0  0  0  0
 -118.2714  201.4924    1.7966 C   0  0  0  0  0  0  0  0  0  0  0  0
 -116.0656  197.0036    1.3938 O   0  0  0  0  0  0  0  0  0  0  0  0
 -118.7946  202.8564    1.6998 C   0  0  0  0  0  0  0  0  0  0  0  0
 -119.0610  203.5762    0.5998 C   0  0  0  0  0  0  0  0  0  0  0  0
 -119.8637  205.5969    1.7227 O   0  0  0  0  0  0  0  0  0  0  0  0
 -119.6221  204.9677    0.6962 C   0  0  0  0  0  0  0  0  0  0  0  0
 -118.4837  202.2239   -1.5708 C   0  0  0  0  0  0  0  0  0  0  0  0
 -118.9426  203.3056   -0.8193 C   0  0  0  0  0  0  0  0  0  0  0  0
 -119.7976  205.4056   -0.5702 N   0  0  0  0  0  0  0  0  0  0  0  0
 -118.4953  202.2953   -2.9560 C   0  0  0  0  0  0  0  0  0  0  0  0
 -118.9613  203.4303   -3.6061 C   0  0  0  0  0  0  0  0  0  0  0  0
 -119.4225  204.5217   -2.8847 C   0  0  0  0  0  0  0  0  0  0  0  0
 -119.4085  204.4502   -1.4995 C   0  0  0  0  0  0  0  0  0  0  0  0
 -120.2293  200.6830    2.1941 H   0  0  0  0  0  0  0  0  0  0  0  0
 -119.4436  198.3595    2.4325 H   0  0  0  0  0  0  0  0  0  0  0  0
 -115.4072  199.6420    1.6902 H   0  0  0  0  0  0  0  0  0  0  0  0
 -116.1999  201.9635    1.4104 H   0  0  0  0  0  0  0  0  0  0  0  0
 -118.9963  203.3582    2.6577 H   0  0  0  0  0  0  0  0  0  0  0  0
 -118.1142  201.3184   -1.0672 H   0  0  0  0  0  0  0  0  0  0  0  0
 -120.1732  206.3328   -0.8155 H   0  0  0  0  0  0  0  0  0  0  0  0
 -118.1308  201.4421   -3.5468 H   0  0  0  0  0  0  0  0  0  0  0  0
 -118.9648  203.4644   -4.7056 H   0  0  0  0  0  0  0  0  0  0  0  0
 -119.7905  205.4219   -3.3987 H   0  0  0  0  0  0  0  0  0  0  0  0
  1  2  2  0
  1  8  1  0
  2  4  1  0
  3  4  1  0
  3  7  2  0
  3  9  1  0
  4  5  2  0
  5  6  1  0
  6  8  2  0
  8 10  1  0
 10 11  2  3
 11 13  1  0
 11 15  1  0
 12 13  2  0
 13 16  1  0
 14 15  2  0
 14 17  1  0
 15 20  1  0
 16 20  1  0
 17 18  2  0
 18 19  1  0
 19 20  2  0
  1 21  1  0
  2 22  1  0
  5 23  1  0
  6 24  1  0
 10 25  1  0
 14 26  1  0
 16 27  1  0
 17 28  1  0
 18 29  1  0
 19 30  1  0
M  CHG  1   9  -1
M  END
>  <filename_input>  (11) 
7QFM_AY3_docked.sdf

>  <pdb_id>  (11) 
7QFM_AY3

>  <pose_rank>  (11) 
10

>  <num_atoms_heavy>  (11) 
20

>  <num_torsions>  (11) 
2

>  <pose>  (11) 
[-118.79460759509006, 202.85640417512144, 1.699816868565186, -0.8045887414887231, 3.3323157818752396, 0.5458824217059296, -4.030780141571041, -0.8120226696659568]

>  <energy>  (11) 
-490.76745617868494

>  <inter_energy>  (11) 
-491.96612597788584

>  <intra_energy>  (11) 
0.14255572179502568

>  <rmsd>  (11) 
4.97111

>  <sdf_rank>  (11) 
0

$$$$

     RDKit          3D

 30 32  0  0  0  0  0  0  0  0999 V2000
 -119.1026  201.8316   -1.9928 C   0  0  0  0  0  0  0  0  0  0  0  0
 -118.9928  201.2677   -3.2479 C   0  0  0  0  0  0  0  0  0  0  0  0
 -118.3280  199.4214   -4.7742 C   0  0  0  0  0  0  0  0  0  0  0  0
 -118.3975  200.0265   -3.4189 C   0  0  0  0  0  0  0  0  0  0  0  0
 -117.8977  199.3689   -2.3018 C   0  0  0  0  0  0  0  0  0  0  0  0
 -117.9980  199.9414   -1.0471 C   0  0  0  0  0  0  0  0  0  0  0  0
 -117.3589  198.7361   -5.1057 O   0  0  0  0  0  0  0  0  0  0  0  0
 -118.6122  201.1804   -0.8663 C   0  0  0  0  0  0  0  0  0  0  0  0
 -119.3467  199.6758   -5.5554 O   0  0  0  0  0  0  0  0  0  0  0  0
 -118.7936  201.8131    0.4416 C   0  0  0  0  0  0  0  0  0  0  0  0
 -119.1252  203.0826    0.7201 C   0  0  0  0  0  0  0  0  0  0  0  0
 -119.1243  202.8887    3.1595 O   0  0  0  0  0  0  0  0  0  0  0  0
 -119.2905  203.5513    2.1390 C   0  0  0  0  0  0  0  0  0  0  0  0
 -119.4194  204.4809   -1.4780 C   0  0  0  0  0  0  0  0  0  0  0  0
 -119.4113  204.2401   -0.1042 C   0  0  0  0  0  0  0  0  0  0  0  0
 -119.6443  204.8542    2.0802 N   0  0  0  0  0  0  0  0  0  0  0  0
 -119.7363  205.7453   -1.9521 C   0  0  0  0  0  0  0  0  0  0  0  0
 -120.0491  206.7760   -1.0758 C   0  0  0  0  0  0  0  0  0  0  0  0
 -120.0479  206.5661    0.2953 C   0  0  0  0  0  0  0  0  0  0  0  0
 -119.7287  205.3018    0.7686 C   0  0  0  0  0  0  0  0  0  0  0  0
 -119.5866  202.8132   -1.8817 H   0  0  0  0  0  0  0  0  0  0  0  0
 -119.3820  201.8090   -4.1228 H   0  0  0  0  0  0  0  0  0  0  0  0
 -117.4184  198.3855   -2.4164 H   0  0  0  0  0  0  0  0  0  0  0  0
 -117.5863  199.4101   -0.1763 H   0  0  0  0  0  0  0  0  0  0  0  0
 -118.6371  201.1597    1.3125 H   0  0  0  0  0  0  0  0  0  0  0  0
 -119.1755  203.6718   -2.1822 H   0  0  0  0  0  0  0  0  0  0  0  0
 -119.8284  205.4421    2.9057 H   0  0  0  0  0  0  0  0  0  0  0  0
 -119.7398  205.9339   -3.0358 H   0  0  0  0  0  0  0  0  0  0  0  0
 -120.3008  207.7703   -1.4735 H   0  0  0  0  0  0  0  0  0  0  0  0
 -120.2941  207.3823    0.9904 H   0  0  0  0  0  0  0  0  0  0  0  0
  1  2  2  0
  1  8  1  0
  2  4  1  0
  3  4  1  0
  3  7  2  0
  3  9  1  0
  4  5  2  0
  5  6  1  0
  6  8  2  0
  8 10  1  0
 10 11  2  3
 11 13  1  0
 11 15  1  0
 12 13  2  0
 13 16  1  0
 14 15  2  0
 14 17  1  0
 15 20  1  0
 16 20  1  0
 17 18  2  0
 18 19  1  0
 19 20  2  0
  1 21  1  0
  2 22  1  0
  5 23  1  0
  6 24  1  0
 10 25  1  0
 14 26  1  0
 16 27  1  0
 17 28  1  0
 18 29  1  0
 19 30  1  0
M  CHG  1   9  -1
M  END
>  <filename_input>  (12) 
7QFM_AY3_docked.sdf

>  <pdb_id>  (12) 
7QFM_AY3

>  <pose_rank>  (12) 
11

>  <num_atoms_heavy>  (12) 
20

>  <num_torsions>  (12) 
2

>  <pose>  (12) 
[-118.79362065871513, 201.81307510090866, 0.4415598066359023, 0.6022902321004359, -1.9597663367684297, -1.91467659453426, 3.757661683937969, -3.7731898124739343]

>  <energy>  (12) 
-622.4822975798526

>  <inter_energy>  (12) 
-655.853911043067

>  <intra_energy>  (12) 
51.22502535087916

>  <rmsd>  (12) 
3.09469

>  <sdf_rank>  (12) 
0

$$$$

     RDKit          3D

 30 32  0  0  0  0  0  0  0  0999 V2000
 -114.5565  198.5529    0.1050 C   0  0  0  0  0  0  0  0  0  0  0  0
 -113.5387  197.6504   -0.1297 C   0  0  0  0  0  0  0  0  0  0  0  0
 -112.6991  195.4389   -0.8943 C   0  0  0  0  0  0  0  0  0  0  0  0
 -113.8144  196.3787   -0.6102 C   0  0  0  0  0  0  0  0  0  0  0  0
 -115.1390  196.0251   -0.8346 C   0  0  0  0  0  0  0  0  0  0  0  0
 -116.1578  196.9268   -0.5873 C   0  0  0  0  0  0  0  0  0  0  0  0
 -112.4265  195.1218   -2.0536 O   0  0  0  0  0  0  0  0  0  0  0  0
 -115.8857  198.2130   -0.1220 C   0  0  0  0  0  0  0  0  0  0  0  0
 -112.0601  194.9921    0.1567 O   0  0  0  0  0  0  0  0  0  0  0  0
 -116.9160  199.2272    0.1095 C   0  0  0  0  0  0  0  0  0  0  0  0
 -117.6799  199.4137    1.1961 C   0  0  0  0  0  0  0  0  0  0  0  0
 -118.9339  201.3504    0.3808 O   0  0  0  0  0  0  0  0  0  0  0  0
 -118.6798  200.5345    1.2626 C   0  0  0  0  0  0  0  0  0  0  0  0
 -117.1494  197.6232    3.0362 C   0  0  0  0  0  0  0  0  0  0  0  0
 -117.7780  198.7331    2.4722 C   0  0  0  0  0  0  0  0  0  0  0  0
 -119.2624  200.4651    2.4800 N   0  0  0  0  0  0  0  0  0  0  0  0
 -117.4943  197.2149    4.3162 C   0  0  0  0  0  0  0  0  0  0  0  0
 -118.4568  197.8993    5.0463 C   0  0  0  0  0  0  0  0  0  0  0  0
 -119.0994  199.0057    4.5105 C   0  0  0  0  0  0  0  0  0  0  0  0
 -118.7554  199.4120    3.2295 C   0  0  0  0  0  0  0  0  0  0  0  0
 -114.3119  199.5584    0.4780 H   0  0  0  0  0  0  0  0  0  0  0  0
 -112.4968  197.9432    0.0668 H   0  0  0  0  0  0  0  0  0  0  0  0
 -115.3793  195.0201   -1.2119 H   0  0  0  0  0  0  0  0  0  0  0  0
 -117.2011  196.6243   -0.7606 H   0  0  0  0  0  0  0  0  0  0  0  0
 -117.0864  199.9307   -0.7189 H   0  0  0  0  0  0  0  0  0  0  0  0
 -116.3836  197.0742    2.4687 H   0  0  0  0  0  0  0  0  0  0  0  0
 -119.9917  201.1128    2.8107 H   0  0  0  0  0  0  0  0  0  0  0  0
 -116.9990  196.3378    4.7585 H   0  0  0  0  0  0  0  0  0  0  0  0
 -118.7127  197.5604    6.0610 H   0  0  0  0  0  0  0  0  0  0  0  0
 -119.8632  199.5478    5.0874 H   0  0  0  0  0  0  0  0  0  0  0  0
  1  2  2  0
  1  8  1  0
  2  4  1  0
  3  4  1  0
  3  7  2  0
  3  9  1  0
  4  5  2  0
  5  6  1  0
  6  8  2  0
  8 10  1  0
 10 11  2  3
 11 13  1  0
 11 15  1  0
 12 13  2  0
 13 16  1  0
 14 15  2  0
 14 17  1  0
 15 20  1  0
 16 20  1  0
 17 18  2  0
 18 19  1  0
 19 20  2  0
  1 21  1  0
  2 22  1  0
  5 23  1  0
  6 24  1  0
 10 25  1  0
 14 26  1  0
 16 27  1  0
 17 28  1  0
 18 29  1  0
 19 30  1  0
M  CHG  1   9  -1
M  END
>  <filename_input>  (13) 
7QFM_AY3_docked.sdf

>  <pdb_id>  (13) 
7QFM_AY3

>  <pose_rank>  (13) 
12

>  <num_atoms_heavy>  (13) 
20

>  <num_torsions>  (13) 
2

>  <pose>  (13) 
[-116.91595512931521, 199.22722963078385, 0.10948314258196946, 1.6662327428562962, 1.6427263373910195, -5.13132035253471, 2.34154457340838, -1.9623660798782967]

>  <energy>  (13) 
-322.76156549025336

>  <inter_energy>  (13) 
-316.81503122299705

>  <intra_energy>  (13) 
0.0

>  <rmsd>  (13) 
6.65985

>  <sdf_rank>  (13) 
0

$$$$

     RDKit          3D

 30 32  0  0  0  0  0  0  0  0999 V2000
 -118.5232  201.7607    2.2689 C   0  0  0  0  0  0  0  0  0  0  0  0
 -119.0202  202.7803    3.0555 C   0  0  0  0  0  0  0  0  0  0  0  0
 -120.7047  203.7216    4.6230 C   0  0  0  0  0  0  0  0  0  0  0  0
 -120.2109  202.6253    3.7500 C   0  0  0  0  0  0  0  0  0  0  0  0
 -120.9033  201.4274    3.6240 C   0  0  0  0  0  0  0  0  0  0  0  0
 -120.4096  200.4120    2.8258 C   0  0  0  0  0  0  0  0  0  0  0  0
 -120.2573  203.8653    5.7623 O   0  0  0  0  0  0  0  0  0  0  0  0
 -119.2036  200.5548    2.1400 C   0  0  0  0  0  0  0  0  0  0  0  0
 -121.6249  204.4881    4.0954 O   0  0  0  0  0  0  0  0  0  0  0  0
 -118.6052  199.4984    1.3217 C   0  0  0  0  0  0  0  0  0  0  0  0
 -118.2597  199.5355    0.0262 C   0  0  0  0  0  0  0  0  0  0  0  0
 -117.3932  197.2532   -0.1424 O   0  0  0  0  0  0  0  0  0  0  0  0
 -117.6292  198.3478   -0.6463 C   0  0  0  0  0  0  0  0  0  0  0  0
 -118.8263  201.8667   -1.0311 C   0  0  0  0  0  0  0  0  0  0  0  0
 -118.3390  200.5604   -0.9958 C   0  0  0  0  0  0  0  0  0  0  0  0
 -117.3833  198.7093   -1.9250 N   0  0  0  0  0  0  0  0  0  0  0  0
 -118.7589  202.5937   -2.2105 C   0  0  0  0  0  0  0  0  0  0  0  0
 -118.2090  202.0383   -3.3582 C   0  0  0  0  0  0  0  0  0  0  0  0
 -117.7177  200.7411   -3.3531 C   0  0  0  0  0  0  0  0  0  0  0  0
 -117.7876  200.0142   -2.1737 C   0  0  0  0  0  0  0  0  0  0  0  0
 -117.5725  201.9046    1.7347 H   0  0  0  0  0  0  0  0  0  0  0  0
 -118.4654  203.7270    3.1326 H   0  0  0  0  0  0  0  0  0  0  0  0
 -121.8515  201.2857    4.1633 H   0  0  0  0  0  0  0  0  0  0  0  0
 -120.9779  199.4751    2.7300 H   0  0  0  0  0  0  0  0  0  0  0  0
 -118.4132  198.5467    1.8387 H   0  0  0  0  0  0  0  0  0  0  0  0
 -119.2622  202.3184   -0.1278 H   0  0  0  0  0  0  0  0  0  0  0  0
 -116.9498  198.0935   -2.6277 H   0  0  0  0  0  0  0  0  0  0  0  0
 -119.1460  203.6230   -2.2369 H   0  0  0  0  0  0  0  0  0  0  0  0
 -118.1624  202.6338   -4.2819 H   0  0  0  0  0  0  0  0  0  0  0  0
 -117.2833  200.2996   -4.2621 H   0  0  0  0  0  0  0  0  0  0  0  0
  1  2  2  0
  1  8  1  0
  2  4  1  0
  3  4  1  0
  3  7  2  0
  3  9  1  0
  4  5  2  0
  5  6  1  0
  6  8  2  0
  8 10  1  0
 10 11  2  3
 11 13  1  0
 11 15  1  0
 12 13  2  0
 13 16  1  0
 14 15  2  0
 14 17  1  0
 15 20  1  0
 16 20  1  0
 17 18  2  0
 18 19  1  0
 19 20  2  0
  1 21  1  0
  2 22  1  0
  5 23  1  0
  6 24  1  0
 10 25  1  0
 14 26  1  0
 16 27  1  0
 17 28  1  0
 18 29  1  0
 19 30  1  0
M  CHG  1   9  -1
M  END
>  <filename_input>  (14) 
7QFM_AY3_docked.sdf

>  <pdb_id>  (14) 
7QFM_AY3

>  <pose_rank>  (14) 
13

>  <num_atoms_heavy>  (14) 
20

>  <num_torsions>  (14) 
2

>  <pose>  (14) 
[-118.60521320556725, 199.49844151984743, 1.3217213670483763, 3.229338945294941, 0.6327899348017157, 0.8646957605779418, 3.0089674448918404, -1.4457517828246436]

>  <energy>  (14) 
-422.63540249593507

>  <inter_energy>  (14) 
-428.8480646235531

>  <intra_energy>  (14) 
10.049523725835268

>  <rmsd>  (14) 
7.42872

>  <sdf_rank>  (14) 
0

$$$$

     RDKit          3D

 30 32  0  0  0  0  0  0  0  0999 V2000
 -116.8663  197.3208    1.9301 C   0  0  0  0  0  0  0  0  0  0  0  0
 -115.9535  196.3008    1.7515 C   0  0  0  0  0  0  0  0  0  0  0  0
 -113.6559  195.4654    1.3005 C   0  0  0  0  0  0  0  0  0  0  0  0
 -114.6290  196.5787    1.4473 C   0  0  0  0  0  0  0  0  0  0  0  0
 -114.2426  197.9059    1.3087 C   0  0  0  0  0  0  0  0  0  0  0  0
 -115.1615  198.9256    1.4762 C   0  0  0  0  0  0  0  0  0  0  0  0
 -112.6969  195.3659    2.0680 O   0  0  0  0  0  0  0  0  0  0  0  0
 -116.4903  198.6533    1.8006 C   0  0  0  0  0  0  0  0  0  0  0  0
 -113.8970  194.6351    0.3181 O   0  0  0  0  0  0  0  0  0  0  0  0
 -117.4960  199.6900    2.0402 C   0  0  0  0  0  0  0  0  0  0  0  0
 -118.0696  200.5217    1.1578 C   0  0  0  0  0  0  0  0  0  0  0  0
 -119.5225  201.7079    2.7296 O   0  0  0  0  0  0  0  0  0  0  0  0
 -119.1113  201.5167    1.5884 C   0  0  0  0  0  0  0  0  0  0  0  0
 -117.1303  200.1231   -1.2571 C   0  0  0  0  0  0  0  0  0  0  0  0
 -117.9276  200.7067   -0.2728 C   0  0  0  0  0  0  0  0  0  0  0  0
 -119.5020  202.1775    0.4763 N   0  0  0  0  0  0  0  0  0  0  0  0
 -117.2365  200.5530   -2.5717 C   0  0  0  0  0  0  0  0  0  0  0  0
 -118.1298  201.5565   -2.9221 C   0  0  0  0  0  0  0  0  0  0  0  0
 -118.9344  202.1560   -1.9643 C   0  0  0  0  0  0  0  0  0  0  0  0
 -118.8259  201.7269   -0.6496 C   0  0  0  0  0  0  0  0  0  0  0  0
 -117.9092  197.0754    2.1793 H   0  0  0  0  0  0  0  0  0  0  0  0
 -116.2804  195.2553    1.8516 H   0  0  0  0  0  0  0  0  0  0  0  0
 -113.1978  198.1476    1.0639 H   0  0  0  0  0  0  0  0  0  0  0  0
 -114.8388  199.9698    1.3514 H   0  0  0  0  0  0  0  0  0  0  0  0
 -117.8255  199.8018    3.0837 H   0  0  0  0  0  0  0  0  0  0  0  0
 -116.4205  199.3256   -0.9922 H   0  0  0  0  0  0  0  0  0  0  0  0
 -120.2130  202.9227    0.4652 H   0  0  0  0  0  0  0  0  0  0  0  0
 -116.6051  200.0930   -3.3462 H   0  0  0  0  0  0  0  0  0  0  0  0
 -118.2002  201.8799   -3.9712 H   0  0  0  0  0  0  0  0  0  0  0  0
 -119.6413  202.9522   -2.2406 H   0  0  0  0  0  0  0  0  0  0  0  0
  1  2  2  0
  1  8  1  0
  2  4  1  0
  3  4  1  0
  3  7  2  0
  3  9  1  0
  4  5  2  0
  5  6  1  0
  6  8  2  0
  8 10  1  0
 10 11  2  3
 11 13  1  0
 11 15  1  0
 12 13  2  0
 13 16  1  0
 14 15  2  0
 14 17  1  0
 15 20  1  0
 16 20  1  0
 17 18  2  0
 18 19  1  0
 19 20  2  0
  1 21  1  0
  2 22  1  0
  5 23  1  0
  6 24  1  0
 10 25  1  0
 14 26  1  0
 16 27  1  0
 17 28  1  0
 18 29  1  0
 19 30  1  0
M  CHG  1   9  -1
M  END
>  <filename_input>  (15) 
7QFM_AY3_docked.sdf

>  <pdb_id>  (15) 
7QFM_AY3

>  <pose_rank>  (15) 
14

>  <num_atoms_heavy>  (15) 
20

>  <num_torsions>  (15) 
2

>  <pose>  (15) 
[-117.49602784850339, 199.69002342145876, 2.040151838509611, 1.2301626653466544, -2.445280210000978, -0.7109283844940474, 2.098436908368178, -2.068431245980065]

>  <energy>  (15) 
-417.0678007269893

>  <inter_energy>  (15) 
-410.43948416374803

>  <intra_energy>  (15) 
1.68279810359784

>  <rmsd>  (15) 
6.57723

>  <sdf_rank>  (15) 
0

$$$$

     RDKit          3D

 30 32  0  0  0  0  0  0  0  0999 V2000
 -120.0751  206.7794    3.5068 C   0  0  0  0  0  0  0  0  0  0  0  0
 -119.8992  206.2578    2.2409 C   0  0  0  0  0  0  0  0  0  0  0  0
 -119.3921  206.4978   -0.1810 C   0  0  0  0  0  0  0  0  0  0  0  0
 -119.6183  207.0864    1.1644 C   0  0  0  0  0  0  0  0  0  0  0  0
 -119.5345  208.4558    1.3832 C   0  0  0  0  0  0  0  0  0  0  0  0
 -119.7231  208.9770    2.6500 C   0  0  0  0  0  0  0  0  0  0  0  0
 -119.4977  207.1912   -1.1943 O   0  0  0  0  0  0  0  0  0  0  0  0
 -119.9872  208.1475    3.7396 C   0  0  0  0  0  0  0  0  0  0  0  0
 -119.0870  205.2252   -0.1929 O   0  0  0  0  0  0  0  0  0  0  0  0
 -120.1454  208.6349    5.1111 C   0  0  0  0  0  0  0  0  0  0  0  0
 -119.2090  209.1117    5.9448 C   0  0  0  0  0  0  0  0  0  0  0  0
 -120.6780  209.5842    7.8440 O   0  0  0  0  0  0  0  0  0  0  0  0
 -119.5657  209.5931    7.3237 C   0  0  0  0  0  0  0  0  0  0  0  0
 -116.8403  209.0663    4.8221 C   0  0  0  0  0  0  0  0  0  0  0  0
 -117.7789  209.3149    5.8233 C   0  0  0  0  0  0  0  0  0  0  0  0
 -118.4196  210.0266    7.8936 N   0  0  0  0  0  0  0  0  0  0  0  0
 -115.5060  209.3778    5.0385 C   0  0  0  0  0  0  0  0  0  0  0  0
 -115.0918  209.9376    6.2397 C   0  0  0  0  0  0  0  0  0  0  0  0
 -116.0027  210.1947    7.2537 C   0  0  0  0  0  0  0  0  0  0  0  0
 -117.3365  209.8808    7.0372 C   0  0  0  0  0  0  0  0  0  0  0  0
 -120.2885  206.1010    4.3460 H   0  0  0  0  0  0  0  0  0  0  0  0
 -119.9827  205.1723    2.0839 H   0  0  0  0  0  0  0  0  0  0  0  0
 -119.3165  209.1305    0.5422 H   0  0  0  0  0  0  0  0  0  0  0  0
 -119.6638  210.0650    2.8010 H   0  0  0  0  0  0  0  0  0  0  0  0
 -121.1695  208.6063    5.5115 H   0  0  0  0  0  0  0  0  0  0  0  0
 -117.1566  208.6252    3.8654 H   0  0  0  0  0  0  0  0  0  0  0  0
 -118.3574  210.4166    8.8449 H   0  0  0  0  0  0  0  0  0  0  0  0
 -114.7669  209.1788    4.2485 H   0  0  0  0  0  0  0  0  0  0  0  0
 -114.0292  210.1800    6.3889 H   0  0  0  0  0  0  0  0  0  0  0  0
 -115.6754  210.6368    8.2063 H   0  0  0  0  0  0  0  0  0  0  0  0
  1  2  2  0
  1  8  1  0
  2  4  1  0
  3  4  1  0
  3  7  2  0
  3  9  1  0
  4  5  2  0
  5  6  1  0
  6  8  2  0
  8 10  1  0
 10 11  2  3
 11 13  1  0
 11 15  1  0
 12 13  2  0
 13 16  1  0
 14 15  2  0
 14 17  1  0
 15 20  1  0
 16 20  1  0
 17 18  2  0
 18 19  1  0
 19 20  2  0
  1 21  1  0
  2 22  1  0
  5 23  1  0
  6 24  1  0
 10 25  1  0
 14 26  1  0
 16 27  1  0
 17 28  1  0
 18 29  1  0
 19 30  1  0
M  CHG  1   9  -1
M  END
>  <filename_input>  (16) 
7QFM_AY3_docked.sdf

>  <pdb_id>  (16) 
7QFM_AY3

>  <pose_rank>  (16) 
15

>  <num_atoms_heavy>  (16) 
20

>  <num_torsions>  (16) 
2

>  <pose>  (16) 
[-120.14538299394803, 208.63492110213275, 5.111084061834144, 0.26485476081846454, 1.3593655477536728, 1.410427133508399, -0.3885510004117661, 2.7713899824896235]

>  <energy>  (16) 
-376.1037903565722

>  <inter_energy>  (16) 
-355.6050963371319

>  <intra_energy>  (16) 
1.1952183772125264

>  <rmsd>  (16) 
7.64265

>  <sdf_rank>  (16) 
0

$$$$

     RDKit          3D

 30 32  0  0  0  0  0  0  0  0999 V2000
 -118.8772  202.9775   -3.5341 C   0  0  0  0  0  0  0  0  0  0  0  0
 -118.6090  201.6826   -3.9299 C   0  0  0  0  0  0  0  0  0  0  0  0
 -117.7957  199.3756   -3.4861 C   0  0  0  0  0  0  0  0  0  0  0  0
 -118.0369  200.7754   -3.0501 C   0  0  0  0  0  0  0  0  0  0  0  0
 -117.7229  201.2020   -1.7657 C   0  0  0  0  0  0  0  0  0  0  0  0
 -117.9814  202.5031   -1.3754 C   0  0  0  0  0  0  0  0  0  0  0  0
 -118.1024  198.4304   -2.7572 O   0  0  0  0  0  0  0  0  0  0  0  0
 -118.5735  203.4144   -2.2494 C   0  0  0  0  0  0  0  0  0  0  0  0
 -117.2454  199.2421   -4.6660 O   0  0  0  0  0  0  0  0  0  0  0  0
 -118.9178  204.7884   -1.8785 C   0  0  0  0  0  0  0  0  0  0  0  0
 -119.5291  205.2293   -0.7690 C   0  0  0  0  0  0  0  0  0  0  0  0
 -119.5084  207.6145   -1.3151 O   0  0  0  0  0  0  0  0  0  0  0  0
 -119.7810  206.6950   -0.5483 C   0  0  0  0  0  0  0  0  0  0  0  0
 -120.1445  203.2367    0.8198 C   0  0  0  0  0  0  0  0  0  0  0  0
 -120.0508  204.5665    0.4099 C   0  0  0  0  0  0  0  0  0  0  0  0
 -120.3831  206.8097    0.6561 N   0  0  0  0  0  0  0  0  0  0  0  0
 -120.7300  202.9334    2.0402 C   0  0  0  0  0  0  0  0  0  0  0  0
 -121.2225  203.9382    2.8623 C   0  0  0  0  0  0  0  0  0  0  0  0
 -121.1442  205.2693    2.4801 C   0  0  0  0  0  0  0  0  0  0  0  0
 -120.5604  205.5714    1.2585 C   0  0  0  0  0  0  0  0  0  0  0  0
 -119.3391  203.6759   -4.2474 H   0  0  0  0  0  0  0  0  0  0  0  0
 -118.8518  201.3663   -4.9551 H   0  0  0  0  0  0  0  0  0  0  0  0
 -117.2652  200.4993   -1.0539 H   0  0  0  0  0  0  0  0  0  0  0  0
 -117.7154  202.8250   -0.3577 H   0  0  0  0  0  0  0  0  0  0  0  0
 -118.6376  205.5629   -2.6076 H   0  0  0  0  0  0  0  0  0  0  0  0
 -119.7559  202.4321    0.1783 H   0  0  0  0  0  0  0  0  0  0  0  0
 -120.6742  207.7045    1.0750 H   0  0  0  0  0  0  0  0  0  0  0  0
 -120.8051  201.8838    2.3606 H   0  0  0  0  0  0  0  0  0  0  0  0
 -121.6800  203.6756    3.8276 H   0  0  0  0  0  0  0  0  0  0  0  0
 -121.5354  206.0660    3.1299 H   0  0  0  0  0  0  0  0  0  0  0  0
  1  2  2  0
  1  8  1  0
  2  4  1  0
  3  4  1  0
  3  7  2  0
  3  9  1  0
  4  5  2  0
  5  6  1  0
  6  8  2  0
  8 10  1  0
 10 11  2  3
 11 13  1  0
 11 15  1  0
 12 13  2  0
 13 16  1  0
 14 15  2  0
 14 17  1  0
 15 20  1  0
 16 20  1  0
 17 18  2  0
 18 19  1  0
 19 20  2  0
  1 21  1  0
  2 22  1  0
  5 23  1  0
  6 24  1  0
 10 25  1  0
 14 26  1  0
 16 27  1  0
 17 28  1  0
 18 29  1  0
 19 30  1  0
M  CHG  1   9  -1
M  END
>  <filename_input>  (17) 
7QFM_AY3_docked.sdf

>  <pdb_id>  (17) 
7QFM_AY3

>  <pose_rank>  (17) 
16

>  <num_atoms_heavy>  (17) 
20

>  <num_torsions>  (17) 
2

>  <pose>  (17) 
[-118.91780054497167, 204.78835293582154, -1.8785242668588642, 3.243022033953079, 5.1167769331818, -0.24549835393257438, 0.07056583600829654, 3.911283465669128]

>  <energy>  (17) 
-698.5146340561884

>  <inter_energy>  (17) 
-710.9504000358833

>  <intra_energy>  (17) 
16.216229775683832

>  <rmsd>  (17) 
0.886767

>  <sdf_rank>  (17) 
0

$$$$

     RDKit          3D

 30 32  0  0  0  0  0  0  0  0999 V2000
 -118.3420  199.1532    2.4391 C   0  0  0  0  0  0  0  0  0  0  0  0
 -117.8454  199.7647    1.3057 C   0  0  0  0  0  0  0  0  0  0  0  0
 -117.2933  199.7780   -1.1183 C   0  0  0  0  0  0  0  0  0  0  0  0
 -117.7935  199.0854    0.0973 C   0  0  0  0  0  0  0  0  0  0  0  0
 -118.2363  197.7692    0.0547 C   0  0  0  0  0  0  0  0  0  0  0  0
 -118.7221  197.1549    1.1943 C   0  0  0  0  0  0  0  0  0  0  0  0
 -117.6014  200.9498   -1.3435 O   0  0  0  0  0  0  0  0  0  0  0  0
 -118.7942  197.8386    2.4077 C   0  0  0  0  0  0  0  0  0  0  0  0
 -116.5296  199.0583   -1.9003 O   0  0  0  0  0  0  0  0  0  0  0  0
 -119.3452  197.2592    3.6342 C   0  0  0  0  0  0  0  0  0  0  0  0
 -118.7850  196.3686    4.4662 C   0  0  0  0  0  0  0  0  0  0  0  0
 -120.6252  196.2256    6.0728 O   0  0  0  0  0  0  0  0  0  0  0  0
 -119.5000  195.9011    5.7033 C   0  0  0  0  0  0  0  0  0  0  0  0
 -116.4079  195.6576    3.6193 C   0  0  0  0  0  0  0  0  0  0  0  0
 -117.5090  195.6808    4.4750 C   0  0  0  0  0  0  0  0  0  0  0  0
 -118.6707  195.0371    6.3295 N   0  0  0  0  0  0  0  0  0  0  0  0
 -115.3176  194.8560    3.9241 C   0  0  0  0  0  0  0  0  0  0  0  0
 -115.3064  194.0769    5.0734 C   0  0  0  0  0  0  0  0  0  0  0  0
 -116.3879  194.0789    5.9420 C   0  0  0  0  0  0  0  0  0  0  0  0
 -117.4786  194.8792    5.6353 C   0  0  0  0  0  0  0  0  0  0  0  0
 -118.3808  199.7156    3.3837 H   0  0  0  0  0  0  0  0  0  0  0  0
 -117.4864  200.8030    1.3612 H   0  0  0  0  0  0  0  0  0  0  0  0
 -118.2000  197.2115   -0.8928 H   0  0  0  0  0  0  0  0  0  0  0  0
 -119.0576  196.1085    1.1429 H   0  0  0  0  0  0  0  0  0  0  0  0
 -120.3539  197.6001    3.9106 H   0  0  0  0  0  0  0  0  0  0  0  0
 -116.4040  196.2721    2.7070 H   0  0  0  0  0  0  0  0  0  0  0  0
 -118.8950  194.5556    7.2120 H   0  0  0  0  0  0  0  0  0  0  0  0
 -114.4511  194.8373    3.2468 H   0  0  0  0  0  0  0  0  0  0  0  0
 -114.4301  193.4510    5.2976 H   0  0  0  0  0  0  0  0  0  0  0  0
 -116.3808  193.4610    6.8520 H   0  0  0  0  0  0  0  0  0  0  0  0
  1  2  2  0
  1  8  1  0
  2  4  1  0
  3  4  1  0
  3  7  2  0
  3  9  1  0
  4  5  2  0
  5  6  1  0
  6  8  2  0
  8 10  1  0
 10 11  2  3
 11 13  1  0
 11 15  1  0
 12 13  2  0
 13 16  1  0
 14 15  2  0
 14 17  1  0
 15 20  1  0
 16 20  1  0
 17 18  2  0
 18 19  1  0
 19 20  2  0
  1 21  1  0
  2 22  1  0
  5 23  1  0
  6 24  1  0
 10 25  1  0
 14 26  1  0
 16 27  1  0
 17 28  1  0
 18 29  1  0
 19 30  1  0
M  CHG  1   9  -1
M  END
>  <filename_input>  (18) 
7QFM_AY3_docked.sdf

>  <pdb_id>  (18) 
7QFM_AY3

>  <pose_rank>  (18) 
17

>  <num_atoms_heavy>  (18) 
20

>  <num_torsions>  (18) 
2

>  <pose>  (18) 
[-119.34518141773323, 197.25923963030291, 3.634235129516542, 0.9732294468728868, 0.30050217647948446, 1.3569280686643903, 2.193355031747236, -0.7348592239236635]

>  <energy>  (18) 
-241.92121948654616

>  <inter_energy>  (18) 
-235.45877763635488

>  <intra_energy>  (18) 
0.4978500641558439

>  <rmsd>  (18) 
8.70057

>  <sdf_rank>  (18) 
0

$$$$

     RDKit          3D

 30 32  0  0  0  0  0  0  0  0999 V2000
 -118.8378  198.8916   -0.9757 C   0  0  0  0  0  0  0  0  0  0  0  0
 -119.1409  199.3910   -2.2263 C   0  0  0  0  0  0  0  0  0  0  0  0
 -118.6040  200.7542   -4.2347 C   0  0  0  0  0  0  0  0  0  0  0  0
 -118.2759  200.2625   -2.8716 C   0  0  0  0  0  0  0  0  0  0  0  0
 -117.1045  200.6369   -2.2253 C   0  0  0  0  0  0  0  0  0  0  0  0
 -116.8088  200.1448   -0.9673 C   0  0  0  0  0  0  0  0  0  0  0  0
 -118.9519  199.9681   -5.1177 O   0  0  0  0  0  0  0  0  0  0  0  0
 -117.6654  199.2537   -0.3214 C   0  0  0  0  0  0  0  0  0  0  0  0
 -118.4904  202.0465   -4.4078 O   0  0  0  0  0  0  0  0  0  0  0  0
 -117.3827  198.6598    0.9867 C   0  0  0  0  0  0  0  0  0  0  0  0
 -117.8566  199.0168    2.1897 C   0  0  0  0  0  0  0  0  0  0  0  0
 -116.6957  197.3159    3.5116 O   0  0  0  0  0  0  0  0  0  0  0  0
 -117.4684  198.2670    3.4337 C   0  0  0  0  0  0  0  0  0  0  0  0
 -119.4594  201.0821    1.9933 C   0  0  0  0  0  0  0  0  0  0  0  0
 -118.7662  200.0547    2.6329 C   0  0  0  0  0  0  0  0  0  0  0  0
 -118.1234  198.8516    4.4611 N   0  0  0  0  0  0  0  0  0  0  0  0
 -120.2625  201.9352    2.7357 C   0  0  0  0  0  0  0  0  0  0  0  0
 -120.3883  201.7781    4.1096 C   0  0  0  0  0  0  0  0  0  0  0  0
 -119.7099  200.7661    4.7726 C   0  0  0  0  0  0  0  0  0  0  0  0
 -118.9052  199.9148    4.0296 C   0  0  0  0  0  0  0  0  0  0  0  0
 -119.5358  198.1951   -0.4881 H   0  0  0  0  0  0  0  0  0  0  0  0
 -120.0796  199.0942   -2.7171 H   0  0  0  0  0  0  0  0  0  0  0  0
 -116.4068  201.3302   -2.7180 H   0  0  0  0  0  0  0  0  0  0  0  0
 -115.8817  200.4617   -0.4672 H   0  0  0  0  0  0  0  0  0  0  0  0
 -116.6886  197.8065    0.9823 H   0  0  0  0  0  0  0  0  0  0  0  0
 -119.3696  201.2153    0.9051 H   0  0  0  0  0  0  0  0  0  0  0  0
 -118.0516  198.5463    5.4422 H   0  0  0  0  0  0  0  0  0  0  0  0
 -120.8066  202.7464    2.2298 H   0  0  0  0  0  0  0  0  0  0  0  0
 -121.0332  202.4639    4.6786 H   0  0  0  0  0  0  0  0  0  0  0  0
 -119.8075  200.6416    5.8612 H   0  0  0  0  0  0  0  0  0  0  0  0
  1  2  2  0
  1  8  1  0
  2  4  1  0
  3  4  1  0
  3  7  2  0
  3  9  1  0
  4  5  2  0
  5  6  1  0
  6  8  2  0
  8 10  1  0
 10 11  2  3
 11 13  1  0
 11 15  1  0
 12 13  2  0
 13 16  1  0
 14 15  2  0
 14 17  1  0
 15 20  1  0
 16 20  1  0
 17 18  2  0
 18 19  1  0
 19 20  2  0
  1 21  1  0
  2 22  1  0
  5 23  1  0
  6 24  1  0
 10 25  1  0
 14 26  1  0
 16 27  1  0
 17 28  1  0
 18 29  1  0
 19 30  1  0
M  CHG  1   9  -1
M  END
>  <filename_input>  (19) 
7QFM_AY3_docked.sdf

>  <pdb_id>  (19) 
7QFM_AY3

>  <pose_rank>  (19) 
18

>  <num_atoms_heavy>  (19) 
20

>  <num_torsions>  (19) 
2

>  <pose>  (19) 
[-117.38270090410333, 198.65983092278682, 0.9866515185835287, 0.7874103136933387, -0.6478161492794975, -2.2871481601048753, 2.6119197286019897, -0.8732038285955764]

>  <energy>  (19) 
-497.82356157717857

>  <inter_energy>  (19) 
-482.5753737903656

>  <intra_energy>  (19) 
0.10441984543040475

>  <rmsd>  (19) 
5.21747

>  <sdf_rank>  (19) 
0

$$$$

     RDKit          3D

 30 32  0  0  0  0  0  0  0  0999 V2000
 -119.8019  201.9327    1.0482 C   0  0  0  0  0  0  0  0  0  0  0  0
 -120.5882  202.9897    1.4606 C   0  0  0  0  0  0  0  0  0  0  0  0
 -120.9474  205.4030    1.9374 C   0  0  0  0  0  0  0  0  0  0  0  0
 -120.0704  204.2747    1.5303 C   0  0  0  0  0  0  0  0  0  0  0  0
 -118.7376  204.4741    1.1927 C   0  0  0  0  0  0  0  0  0  0  0  0
 -117.9487  203.4116    0.7914 C   0  0  0  0  0  0  0  0  0  0  0  0
 -122.0306  205.5877    1.3796 O   0  0  0  0  0  0  0  0  0  0  0  0
 -118.4685  202.1206    0.7014 C   0  0  0  0  0  0  0  0  0  0  0  0
 -120.4819  206.1564    2.9009 O   0  0  0  0  0  0  0  0  0  0  0  0
 -117.6981  200.9662    0.2350 C   0  0  0  0  0  0  0  0  0  0  0  0
 -117.3126  199.8817    0.9238 C   0  0  0  0  0  0  0  0  0  0  0  0
 -116.1554  198.7343   -0.9017 O   0  0  0  0  0  0  0  0  0  0  0  0
 -116.5382  198.7746    0.2644 C   0  0  0  0  0  0  0  0  0  0  0  0
 -118.0994  200.0255    3.4205 C   0  0  0  0  0  0  0  0  0  0  0  0
 -117.4937  199.4599    2.2987 C   0  0  0  0  0  0  0  0  0  0  0  0
 -116.3271  197.8309    1.2084 N   0  0  0  0  0  0  0  0  0  0  0  0
 -118.0851  199.3418    4.6273 C   0  0  0  0  0  0  0  0  0  0  0  0
 -117.4772  198.0979    4.7332 C   0  0  0  0  0  0  0  0  0  0  0  0
 -116.8659  197.5116    3.6347 C   0  0  0  0  0  0  0  0  0  0  0  0
 -116.8788  198.1971    2.4289 C   0  0  0  0  0  0  0  0  0  0  0  0
 -120.2378  200.9243    0.9930 H   0  0  0  0  0  0  0  0  0  0  0  0
 -121.6377  202.8108    1.7373 H   0  0  0  0  0  0  0  0  0  0  0  0
 -118.3066  205.4848    1.2449 H   0  0  0  0  0  0  0  0  0  0  0  0
 -116.8927  203.5878    0.5388 H   0  0  0  0  0  0  0  0  0  0  0  0
 -117.3946  200.9918   -0.8220 H   0  0  0  0  0  0  0  0  0  0  0  0
 -118.5863  201.0093    3.3485 H   0  0  0  0  0  0  0  0  0  0  0  0
 -115.8201  196.9497    1.0432 H   0  0  0  0  0  0  0  0  0  0  0  0
 -118.5614  199.7906    5.5115 H   0  0  0  0  0  0  0  0  0  0  0  0
 -117.4804  197.5715    5.6991 H   0  0  0  0  0  0  0  0  0  0  0  0
 -116.3826  196.5269    3.7179 H   0  0  0  0  0  0  0  0  0  0  0  0
  1  2  2  0
  1  8  1  0
  2  4  1  0
  3  4  1  0
  3  7  2  0
  3  9  1  0
  4  5  2  0
  5  6  1  0
  6  8  2  0
  8 10  1  0
 10 11  2  3
 11 13  1  0
 11 15  1  0
 12 13  2  0
 13 16  1  0
 14 15  2  0
 14 17  1  0
 15 20  1  0
 16 20  1  0
 17 18  2  0
 18 19  1  0
 19 20  2  0
  1 21  1  0
  2 22  1  0
  5 23  1  0
  6 24  1  0
 10 25  1  0
 14 26  1  0
 16 27  1  0
 17 28  1  0
 18 29  1  0
 19 30  1  0
M  CHG  1   9  -1
M  END
>  <filename_input>  (20) 
7QFM_AY3_docked.sdf

>  <pdb_id>  (20) 
7QFM_AY3

>  <pose_rank>  (20) 
19

>  <num_atoms_heavy>  (20) 
20

>  <num_torsions>  (20) 
2

>  <pose>  (20) 
[-117.69806839126417, 200.966244024791, 0.23499771587050178, 0.3914717760142849, 1.2003140735493234, -2.447551910414549, 2.8473406401747456, -0.9284242035521796]

>  <energy>  (20) 
-365.71472054987487

>  <inter_energy>  (20) 
-376.6148332035554

>  <intra_energy>  (20) 
4.051031258542679

>  <rmsd>  (20) 
6.7424

>  <sdf_rank>  (20) 
0

$$$$

     RDKit          3D

 30 32  0  0  0  0  0  0  0  0999 V2000
 -119.2394  197.4995    3.7387 C   0  0  0  0  0  0  0  0  0  0  0  0
 -119.7140  198.6392    3.1213 C   0  0  0  0  0  0  0  0  0  0  0  0
 -119.5869  201.0657    2.5954 C   0  0  0  0  0  0  0  0  0  0  0  0
 -119.0823  199.8607    3.3033 C   0  0  0  0  0  0  0  0  0  0  0  0
 -117.9708  199.9174    4.1349 C   0  0  0  0  0  0  0  0  0  0  0  0
 -117.5045  198.7765    4.7619 C   0  0  0  0  0  0  0  0  0  0  0  0
 -120.3685  201.8386    3.1525 O   0  0  0  0  0  0  0  0  0  0  0  0
 -118.1240  197.5422    4.5680 C   0  0  0  0  0  0  0  0  0  0  0  0
 -119.1474  201.2236    1.3728 O   0  0  0  0  0  0  0  0  0  0  0  0
 -117.6469  196.2923    5.1630 C   0  0  0  0  0  0  0  0  0  0  0  0
 -116.8597  195.3519    4.6197 C   0  0  0  0  0  0  0  0  0  0  0  0
 -116.7858  193.8418    6.5438 O   0  0  0  0  0  0  0  0  0  0  0  0
 -116.4508  194.1329    5.3989 C   0  0  0  0  0  0  0  0  0  0  0  0
 -116.2080  195.9787    2.1589 C   0  0  0  0  0  0  0  0  0  0  0  0
 -116.2213  195.2146    3.3256 C   0  0  0  0  0  0  0  0  0  0  0  0
 -115.6509  193.4036    4.5897 N   0  0  0  0  0  0  0  0  0  0  0  0
 -115.4812  195.5433    1.0606 C   0  0  0  0  0  0  0  0  0  0  0  0
 -114.7627  194.3560    1.1081 C   0  0  0  0  0  0  0  0  0  0  0  0
 -114.7587  193.5750    2.2544 C   0  0  0  0  0  0  0  0  0  0  0  0
 -115.4876  194.0101    3.3515 C   0  0  0  0  0  0  0  0  0  0  0  0
 -119.7525  196.5409    3.5719 H   0  0  0  0  0  0  0  0  0  0  0  0
 -120.6036  198.5780    2.4772 H   0  0  0  0  0  0  0  0  0  0  0  0
 -117.4577  200.8770    4.2956 H   0  0  0  0  0  0  0  0  0  0  0  0
 -116.6297  198.8438    5.4254 H   0  0  0  0  0  0  0  0  0  0  0  0
 -117.9785  196.0986    6.1937 H   0  0  0  0  0  0  0  0  0  0  0  0
 -116.7714  196.9222    2.1099 H   0  0  0  0  0  0  0  0  0  0  0  0
 -115.2165  192.5091    4.8582 H   0  0  0  0  0  0  0  0  0  0  0  0
 -115.4738  196.1462    0.1405 H   0  0  0  0  0  0  0  0  0  0  0  0
 -114.1904  194.0311    0.2267 H   0  0  0  0  0  0  0  0  0  0  0  0
 -114.1912  192.6335    2.2926 H   0  0  0  0  0  0  0  0  0  0  0  0
  1  2  2  0
  1  8  1  0
  2  4  1  0
  3  4  1  0
  3  7  2  0
  3  9  1  0
  4  5  2  0
  5  6  1  0
  6  8  2  0
  8 10  1  0
 10 11  2  3
 11 13  1  0
 11 15  1  0
 12 13  2  0
 13 16  1  0
 14 15  2  0
 14 17  1  0
 15 20  1  0
 16 20  1  0
 17 18  2  0
 18 19  1  0
 19 20  2  0
  1 21  1  0
  2 22  1  0
  5 23  1  0
  6 24  1  0
 10 25  1  0
 14 26  1  0
 16 27  1  0
 17 28  1  0
 18 29  1  0
 19 30  1  0
M  CHG  1   9  -1
M  END
>  <filename_input>  (21) 
7QFM_AY3_docked.sdf

>  <pdb_id>  (21) 
7QFM_AY3

>  <pose_rank>  (21) 
20

>  <num_atoms_heavy>  (21) 
20

>  <num_torsions>  (21) 
2

>  <pose>  (21) 
[-117.64690422319303, 196.29233743944994, 5.162958607737469, 2.145332297913647, 0.604940352718467, 0.9870445649994044, 5.466818726605653, 1.6359294196054506]

>  <energy>  (21) 
-213.88652557301387

>  <inter_energy>  (21) 
-207.46877600864218

>  <intra_energy>  (21) 
0.10300647369036345

>  <rmsd>  (21) 
10.1191

>  <sdf_rank>  (21) 
0

$$$$

     RDKit          3D

 30 32  0  0  0  0  0  0  0  0999 V2000
 -128.2022  209.2004   -7.2450 C   0  0  0  0  0  0  0  0  0  0  0  0
 -127.9641  210.0160   -8.3329 C   0  0  0  0  0  0  0  0  0  0  0  0
 -126.4357  211.1857   -9.9065 C   0  0  0  0  0  0  0  0  0  0  0  0
 -126.6682  210.3397   -8.7073 C   0  0  0  0  0  0  0  0  0  0  0  0
 -125.6136  209.8397   -7.9538 C   0  0  0  0  0  0  0  0  0  0  0  0
 -125.8551  209.0327   -6.8572 C   0  0  0  0  0  0  0  0  0  0  0  0
 -125.2902  211.4768  -10.2557 O   0  0  0  0  0  0  0  0  0  0  0  0
 -127.1548  208.6885   -6.4870 C   0  0  0  0  0  0  0  0  0  0  0  0
 -127.5150  211.5822  -10.5316 O   0  0  0  0  0  0  0  0  0  0  0  0
 -127.4713  207.7981   -5.3686 C   0  0  0  0  0  0  0  0  0  0  0  0
 -127.9485  208.1129   -4.1552 C   0  0  0  0  0  0  0  0  0  0  0  0
 -128.0576  205.8414   -3.2518 O   0  0  0  0  0  0  0  0  0  0  0  0
 -128.2377  207.0501   -3.1319 C   0  0  0  0  0  0  0  0  0  0  0  0
 -128.2699  210.7038   -3.9152 C   0  0  0  0  0  0  0  0  0  0  0  0
 -128.3101  209.3660   -3.5226 C   0  0  0  0  0  0  0  0  0  0  0  0
 -128.7225  207.6821   -2.0402 N   0  0  0  0  0  0  0  0  0  0  0  0
 -128.6920  211.6907   -3.0365 C   0  0  0  0  0  0  0  0  0  0  0  0
 -129.1576  211.3639   -1.7698 C   0  0  0  0  0  0  0  0  0  0  0  0
 -129.2075  210.0422   -1.3518 C   0  0  0  0  0  0  0  0  0  0  0  0
 -128.7832  209.0562   -2.2304 C   0  0  0  0  0  0  0  0  0  0  0  0
 -129.2384  208.9510   -6.9730 H   0  0  0  0  0  0  0  0  0  0  0  0
 -128.8120  210.4140   -8.9096 H   0  0  0  0  0  0  0  0  0  0  0  0
 -124.5785  210.0877   -8.2316 H   0  0  0  0  0  0  0  0  0  0  0  0
 -125.0072  208.6556   -6.2666 H   0  0  0  0  0  0  0  0  0  0  0  0
 -127.2938  206.7273   -5.5474 H   0  0  0  0  0  0  0  0  0  0  0  0
 -127.9053  210.9749   -4.9169 H   0  0  0  0  0  0  0  0  0  0  0  0
 -129.0111  207.2040   -1.1747 H   0  0  0  0  0  0  0  0  0  0  0  0
 -128.6574  212.7453   -3.3471 H   0  0  0  0  0  0  0  0  0  0  0  0
 -129.4905  212.1622   -1.0902 H   0  0  0  0  0  0  0  0  0  0  0  0
 -129.5747  209.7824   -0.3480 H   0  0  0  0  0  0  0  0  0  0  0  0
  1  2  2  0
  1  8  1  0
  2  4  1  0
  3  4  1  0
  3  7  2  0
  3  9  1  0
  4  5  2  0
  5  6  1  0
  6  8  2  0
  8 10  1  0
 10 11  2  3
 11 13  1  0
 11 15  1  0
 12 13  2  0
 13 16  1  0
 14 15  2  0
 14 17  1  0
 15 20  1  0
 16 20  1  0
 17 18  2  0
 18 19  1  0
 19 20  2  0
  1 21  1  0
  2 22  1  0
  5 23  1  0
  6 24  1  0
 10 25  1  0
 14 26  1  0
 16 27  1  0
 17 28  1  0
 18 29  1  0
 19 30  1  0
M  CHG  1   9  -1
M  END
>  <filename_input>  (22) 
7QFM_AY3_docked.sdf

>  <pdb_id>  (22) 
7QFM_AY3

>  <pose_rank>  (22) 
21

>  <num_atoms_heavy>  (22) 
20

>  <num_torsions>  (22) 
2

>  <pose>  (22) 
[-127.47125162972775, 207.79808490414416, -5.368584295406613, -1.0242375700535544, 0.73693211657831, 2.912869102809675, 2.6932349924813526, -3.164540954371851]

>  <energy>  (22) 
-166.19552482066877

>  <inter_energy>  (22) 
-174.33115331940158

>  <intra_energy>  (22) 
0.7953453058769183

>  <rmsd>  (22) 
12.1898

>  <sdf_rank>  (22) 
0

$$$$

     RDKit          3D

 30 32  0  0  0  0  0  0  0  0999 V2000
 -113.0028  207.9483   -9.1584 C   0  0  0  0  0  0  0  0  0  0  0  0
 -112.4496  206.7526   -9.5704 C   0  0  0  0  0  0  0  0  0  0  0  0
 -110.5007  205.3004  -10.0933 C   0  0  0  0  0  0  0  0  0  0  0  0
 -111.0749  206.6095   -9.6879 C   0  0  0  0  0  0  0  0  0  0  0  0
 -110.2654  207.7010   -9.3989 C   0  0  0  0  0  0  0  0  0  0  0  0
 -110.8226  208.9014   -8.9980 C   0  0  0  0  0  0  0  0  0  0  0  0
 -109.2878  205.1765  -10.2728 O   0  0  0  0  0  0  0  0  0  0  0  0
 -112.2028  209.0458   -8.8599 C   0  0  0  0  0  0  0  0  0  0  0  0
 -111.3659  204.3297  -10.2414 O   0  0  0  0  0  0  0  0  0  0  0  0
 -112.8475  210.2740   -8.3911 C   0  0  0  0  0  0  0  0  0  0  0  0
 -112.4607  211.1019   -7.4092 C   0  0  0  0  0  0  0  0  0  0  0  0
 -114.2882  212.7168   -7.6099 O   0  0  0  0  0  0  0  0  0  0  0  0
 -113.2454  212.3416   -7.0811 C   0  0  0  0  0  0  0  0  0  0  0  0
 -110.2627  210.2429   -6.2672 C   0  0  0  0  0  0  0  0  0  0  0  0
 -111.3363  211.1037   -6.4944 C   0  0  0  0  0  0  0  0  0  0  0  0
 -112.5902  212.9625   -6.0754 N   0  0  0  0  0  0  0  0  0  0  0  0
 -109.3408  210.5413   -5.2747 C   0  0  0  0  0  0  0  0  0  0  0  0
 -109.4710  211.6894   -4.5045 C   0  0  0  0  0  0  0  0  0  0  0  0
 -110.5292  212.5630   -4.7072 C   0  0  0  0  0  0  0  0  0  0  0  0
 -111.4519  212.2625   -5.6985 C   0  0  0  0  0  0  0  0  0  0  0  0
 -114.0954  208.0344   -9.0646 H   0  0  0  0  0  0  0  0  0  0  0  0
 -113.1068  205.9031   -9.8082 H   0  0  0  0  0  0  0  0  0  0  0  0
 -109.1730  207.6096   -9.4895 H   0  0  0  0  0  0  0  0  0  0  0  0
 -110.1657  209.7575   -8.7843 H   0  0  0  0  0  0  0  0  0  0  0  0
 -113.7732  210.5555   -8.9144 H   0  0  0  0  0  0  0  0  0  0  0  0
 -110.1475  209.3316   -6.8723 H   0  0  0  0  0  0  0  0  0  0  0  0
 -112.8971  213.8453   -5.6424 H   0  0  0  0  0  0  0  0  0  0  0  0
 -108.4960  209.8600   -5.0954 H   0  0  0  0  0  0  0  0  0  0  0  0
 -108.7266  211.9085   -3.7249 H   0  0  0  0  0  0  0  0  0  0  0  0
 -110.6342  213.4719   -4.0966 H   0  0  0  0  0  0  0  0  0  0  0  0
  1  2  2  0
  1  8  1  0
  2  4  1  0
  3  4  1  0
  3  7  2  0
  3  9  1  0
  4  5  2  0
  5  6  1  0
  6  8  2  0
  8 10  1  0
 10 11  2  3
 11 13  1  0
 11 15  1  0
 12 13  2  0
 13 16  1  0
 14 15  2  0
 14 17  1  0
 15 20  1  0
 16 20  1  0
 17 18  2  0
 18 19  1  0
 19 20  2  0
  1 21  1  0
  2 22  1  0
  5 23  1  0
  6 24  1  0
 10 25  1  0
 14 26  1  0
 16 27  1  0
 17 28  1  0
 18 29  1  0
 19 30  1  0
M  CHG  1   9  -1
M  END
>  <filename_input>  (23) 
7QFM_AY3_docked.sdf

>  <pdb_id>  (23) 
7QFM_AY3

>  <pose_rank>  (23) 
22

>  <num_atoms_heavy>  (23) 
20

>  <num_torsions>  (23) 
2

>  <pose>  (23) 
[-112.84750261300057, 210.2739674741093, -8.39114072882194, -0.4085374888900241, 0.9444540361932481, 0.6653397324591799, 0.15870484847600422, 3.043554848906251]

>  <energy>  (23) 
-192.7521861368105

>  <inter_energy>  (23) 
-191.957774512778

>  <intra_energy>  (23) 
20.423094229635147

>  <rmsd>  (23) 
12.4334

>  <sdf_rank>  (23) 
0

$$$$

     RDKit          3D

 30 32  0  0  0  0  0  0  0  0999 V2000
 -111.3832  207.7467   -8.0005 C   0  0  0  0  0  0  0  0  0  0  0  0
 -111.4938  206.4790   -8.5354 C   0  0  0  0  0  0  0  0  0  0  0  0
 -110.5090  204.4099   -9.4994 C   0  0  0  0  0  0  0  0  0  0  0  0
 -110.3696  205.7894   -8.9654 C   0  0  0  0  0  0  0  0  0  0  0  0
 -109.1300  206.4081   -8.8625 C   0  0  0  0  0  0  0  0  0  0  0  0
 -109.0232  207.6829   -8.3374 C   0  0  0  0  0  0  0  0  0  0  0  0
 -109.9770  204.0936  -10.5651 O   0  0  0  0  0  0  0  0  0  0  0  0
 -110.1474  208.3739   -7.8862 C   0  0  0  0  0  0  0  0  0  0  0  0
 -111.2237  203.5940   -8.7671 O   0  0  0  0  0  0  0  0  0  0  0  0
 -110.0919  209.7031   -7.2748 C   0  0  0  0  0  0  0  0  0  0  0  0
 -109.8600  210.0280   -5.9942 C   0  0  0  0  0  0  0  0  0  0  0  0
 -110.0075  212.4577   -6.2459 O   0  0  0  0  0  0  0  0  0  0  0  0
 -109.8174  211.4638   -5.5502 C   0  0  0  0  0  0  0  0  0  0  0  0
 -109.5123  207.8824   -4.5285 C   0  0  0  0  0  0  0  0  0  0  0  0
 -109.5945  209.2475   -4.8020 C   0  0  0  0  0  0  0  0  0  0  0  0
 -109.5436  211.4543   -4.2269 N   0  0  0  0  0  0  0  0  0  0  0  0
 -109.2457  207.4554   -3.2359 C   0  0  0  0  0  0  0  0  0  0  0  0
 -109.0563  208.3706   -2.2090 C   0  0  0  0  0  0  0  0  0  0  0  0
 -109.1336  209.7342   -2.4513 C   0  0  0  0  0  0  0  0  0  0  0  0
 -109.4024  210.1602   -3.7438 C   0  0  0  0  0  0  0  0  0  0  0  0
 -112.2885  208.2698   -7.6586 H   0  0  0  0  0  0  0  0  0  0  0  0
 -112.4851  206.0101   -8.6218 H   0  0  0  0  0  0  0  0  0  0  0  0
 -108.2265  205.8800   -9.2013 H   0  0  0  0  0  0  0  0  0  0  0  0
 -108.0342  208.1603   -8.2745 H   0  0  0  0  0  0  0  0  0  0  0  0
 -110.2632  210.5487   -7.9572 H   0  0  0  0  0  0  0  0  0  0  0  0
 -109.6582  207.1477   -5.3341 H   0  0  0  0  0  0  0  0  0  0  0  0
 -109.4512  212.3016   -3.6486 H   0  0  0  0  0  0  0  0  0  0  0  0
 -109.1835  206.3782   -3.0217 H   0  0  0  0  0  0  0  0  0  0  0  0
 -108.8426  208.0103   -1.1920 H   0  0  0  0  0  0  0  0  0  0  0  0
 -108.9853  210.4601   -1.6383 H   0  0  0  0  0  0  0  0  0  0  0  0
  1  2  2  0
  1  8  1  0
  2  4  1  0
  3  4  1  0
  3  7  2  0
  3  9  1  0
  4  5  2  0
  5  6  1  0
  6  8  2  0
  8 10  1  0
 10 11  2  3
 11 13  1  0
 11 15  1  0
 12 13  2  0
 13 16  1  0
 14 15  2  0
 14 17  1  0
 15 20  1  0
 16 20  1  0
 17 18  2  0
 18 19  1  0
 19 20  2  0
  1 21  1  0
  2 22  1  0
  5 23  1  0
  6 24  1  0
 10 25  1  0
 14 26  1  0
 16 27  1  0
 17 28  1  0
 18 29  1  0
 19 30  1  0
M  CHG  1   9  -1
M  END
>  <filename_input>  (24) 
7QFM_AY3_docked.sdf

>  <pdb_id>  (24) 
7QFM_AY3

>  <pose_rank>  (24) 
23

>  <num_atoms_heavy>  (24) 
20

>  <num_torsions>  (24) 
2

>  <pose>  (24) 
[-110.09186824201142, 209.703091667946, -7.274815849991413, 0.17437392421313322, -5.80017900641067, 0.05232551399502149, -0.6211044167049482, 2.2620740615747086]

>  <energy>  (24) 
-180.74455115013754

>  <inter_energy>  (24) 
-164.46492901309233

>  <intra_energy>  (24) 
0.0

>  <rmsd>  (24) 
12.1146

>  <sdf_rank>  (24) 
0

$$$$

     RDKit          3D

 30 32  0  0  0  0  0  0  0  0999 V2000
 -125.5020  209.1256   -6.8955 C   0  0  0  0  0  0  0  0  0  0  0  0
 -126.2851  208.1243   -7.4335 C   0  0  0  0  0  0  0  0  0  0  0  0
 -128.2637  207.3344   -8.7148 C   0  0  0  0  0  0  0  0  0  0  0  0
 -127.4588  208.4262   -8.1084 C   0  0  0  0  0  0  0  0  0  0  0  0
 -127.8399  209.7578   -8.2171 C   0  0  0  0  0  0  0  0  0  0  0  0
 -127.0598  210.7582   -7.6668 C   0  0  0  0  0  0  0  0  0  0  0  0
 -128.6859  206.4074   -8.0211 O   0  0  0  0  0  0  0  0  0  0  0  0
 -125.8693  210.4624   -7.0034 C   0  0  0  0  0  0  0  0  0  0  0  0
 -128.4720  207.4392  -10.0026 O   0  0  0  0  0  0  0  0  0  0  0  0
 -124.9767  211.4799   -6.4453 C   0  0  0  0  0  0  0  0  0  0  0  0
 -123.8661  212.0067   -6.9822 C   0  0  0  0  0  0  0  0  0  0  0  0
 -123.3208  213.5410   -5.1555 O   0  0  0  0  0  0  0  0  0  0  0  0
 -123.0825  213.0702   -6.2643 C   0  0  0  0  0  0  0  0  0  0  0  0
 -123.3574  210.9413   -9.3230 C   0  0  0  0  0  0  0  0  0  0  0  0
 -123.1659  211.7897   -8.2327 C   0  0  0  0  0  0  0  0  0  0  0  0
 -122.0487  213.4022   -7.0688 N   0  0  0  0  0  0  0  0  0  0  0  0
 -122.4683  210.9783  -10.3870 C   0  0  0  0  0  0  0  0  0  0  0  0
 -121.3895  211.8526  -10.3827 C   0  0  0  0  0  0  0  0  0  0  0  0
 -121.1734  212.7068   -9.3115 C   0  0  0  0  0  0  0  0  0  0  0  0
 -122.0618  212.6675   -8.2469 C   0  0  0  0  0  0  0  0  0  0  0  0
 -124.5712  208.8614   -6.3722 H   0  0  0  0  0  0  0  0  0  0  0  0
 -125.9748  207.0745   -7.3259 H   0  0  0  0  0  0  0  0  0  0  0  0
 -128.7691  210.0183   -8.7450 H   0  0  0  0  0  0  0  0  0  0  0  0
 -127.3841  211.8058   -7.7537 H   0  0  0  0  0  0  0  0  0  0  0  0
 -125.2541  211.8639   -5.4525 H   0  0  0  0  0  0  0  0  0  0  0  0
 -124.2097  210.2459   -9.3390 H   0  0  0  0  0  0  0  0  0  0  0  0
 -121.3393  214.1121   -6.8370 H   0  0  0  0  0  0  0  0  0  0  0  0
 -122.6198  210.3068  -11.2450 H   0  0  0  0  0  0  0  0  0  0  0  0
 -120.6986  211.8678  -11.2385 H   0  0  0  0  0  0  0  0  0  0  0  0
 -120.3182  213.3987   -9.3063 H   0  0  0  0  0  0  0  0  0  0  0  0
  1  2  2  0
  1  8  1  0
  2  4  1  0
  3  4  1  0
  3  7  2  0
  3  9  1  0
  4  5  2  0
  5  6  1  0
  6  8  2  0
  8 10  1  0
 10 11  2  3
 11 13  1  0
 11 15  1  0
 12 13  2  0
 13 16  1  0
 14 15  2  0
 14 17  1  0
 15 20  1  0
 16 20  1  0
 17 18  2  0
 18 19  1  0
 19 20  2  0
  1 21  1  0
  2 22  1  0
  5 23  1  0
  6 24  1  0
 10 25  1  0
 14 26  1  0
 16 27  1  0
 17 28  1  0
 18 29  1  0
 19 30  1  0
M  CHG  1   9  -1
M  END
>  <filename_input>  (25) 
7QFM_AY3_docked.sdf

>  <pdb_id>  (25) 
7QFM_AY3

>  <pose_rank>  (25) 
24

>  <num_atoms_heavy>  (25) 
20

>  <num_torsions>  (25) 
2

>  <pose>  (25) 
[-124.97669671652552, 211.47992859498277, -6.445295088725355, -0.9114860214896949, -3.317940857165876, -1.176362909696345, -0.8425619554503024, 0.9762351008757421]

>  <energy>  (25) 
-154.3371174204127

>  <inter_energy>  (25) 
-150.80373681962732

>  <intra_energy>  (25) 
0.2302678348936236

>  <rmsd>  (25) 
12.5961

>  <sdf_rank>  (25) 
0

$$$$

     RDKit          3D

 30 32  0  0  0  0  0  0  0  0999 V2000
 -119.4350  203.2990   -3.0840 C   0  0  0  0  0  0  0  0  0  0  0  0
 -119.2720  202.0580   -3.6660 C   0  0  0  0  0  0  0  0  0  0  0  0
 -118.3710  199.7410   -3.6790 C   0  0  0  0  0  0  0  0  0  0  0  0
 -118.4980  201.0830   -3.0540 C   0  0  0  0  0  0  0  0  0  0  0  0
 -117.8750  201.3870   -1.8500 C   0  0  0  0  0  0  0  0  0  0  0  0
 -118.0300  202.6350   -1.2750 C   0  0  0  0  0  0  0  0  0  0  0  0
 -118.9230  199.4950   -4.7530 O   0  0  0  0  0  0  0  0  0  0  0  0
 -118.8220  203.6130   -1.8760 C   0  0  0  0  0  0  0  0  0  0  0  0
 -117.6520  198.8760   -3.0100 O   0  0  0  0  0  0  0  0  0  0  0  0
 -119.0650  204.9330   -1.2910 C   0  0  0  0  0  0  0  0  0  0  0  0
 -119.4530  205.2390   -0.0440 C   0  0  0  0  0  0  0  0  0  0  0  0
 -119.4860  207.6720   -0.3040 O   0  0  0  0  0  0  0  0  0  0  0  0
 -119.6310  206.6680    0.3880 C   0  0  0  0  0  0  0  0  0  0  0  0
 -119.8050  203.0720    1.3890 C   0  0  0  0  0  0  0  0  0  0  0  0
 -119.7620  204.4410    1.1260 C   0  0  0  0  0  0  0  0  0  0  0  0
 -119.9990  206.6390    1.6880 N   0  0  0  0  0  0  0  0  0  0  0  0
 -120.1620  202.6260    2.6530 C   0  0  0  0  0  0  0  0  0  0  0  0
 -120.4750  203.5260    3.6630 C   0  0  0  0  0  0  0  0  0  0  0  0
 -120.4420  204.8930    3.4300 C   0  0  0  0  0  0  0  0  0  0  0  0
 -120.0870  205.3380    2.1650 C   0  0  0  0  0  0  0  0  0  0  0  0
 -120.0607  204.0527   -3.5845 H   0  0  0  0  0  0  0  0  0  0  0  0
 -119.7617  201.8396   -4.6265 H   0  0  0  0  0  0  0  0  0  0  0  0
 -117.2537  200.6292   -1.3503 H   0  0  0  0  0  0  0  0  0  0  0  0
 -117.5197  202.8603   -0.3270 H   0  0  0  0  0  0  0  0  0  0  0  0
 -118.9084  205.7885   -1.9645 H   0  0  0  0  0  0  0  0  0  0  0  0
 -119.5569  202.3493    0.5977 H   0  0  0  0  0  0  0  0  0  0  0  0
 -120.1904  207.4777    2.2545 H   0  0  0  0  0  0  0  0  0  0  0  0
 -120.1976  201.5458    2.8578 H   0  0  0  0  0  0  0  0  0  0  0  0
 -120.7522  203.1507    4.6591 H   0  0  0  0  0  0  0  0  0  0  0  0
 -120.6913  205.6068    4.2289 H   0  0  0  0  0  0  0  0  0  0  0  0
  1  2  2  0
  1  8  1  0
  2  4  1  0
  3  4  1  0
  3  7  2  0
  3  9  1  0
  4  5  2  0
  5  6  1  0
  6  8  2  0
  8 10  1  0
 10 11  2  3
 11 13  1  0
 11 15  1  0
 12 13  2  0
 13 16  1  0
 14 15  2  0
 14 17  1  0
 15 20  1  0
 16 20  1  0
 17 18  2  0
 18 19  1  0
 19 20  2  0
  1 21  1  0
  2 22  1  0
  5 23  1  0
  6 24  1  0
 10 25  1  0
 14 26  1  0
 16 27  1  0
 17 28  1  0
 18 29  1  0
 19 30  1  0
M  CHG  1   9  -1
M  END
>  <filename_input>  (26) 
7QFM_AY3_docked.sdf

>  <pdb_id>  (26) 
7QFM_AY3

>  <pose_rank>  (26) 
25

>  <num_atoms_heavy>  (26) 
20

>  <num_torsions>  (26) 
2

>  <pose>  (26) 
[-119.065, 204.933, -1.291, 1e-06, 1e-06, 1e-06, 0.0, 0.0]

>  <energy>  (26) 
-773.2931432008011

>  <inter_energy>  (26) 
-785.2489999813002

>  <intra_energy>  (26) 
13.026344089849296

>  <rmsd>  (26) 
0.0

>  <sdf_rank>  (26) 
0

$$$$
