
     RDKit          3D

 60 64  0  0  0  0  0  0  0  0999 V2000
  -28.1322    4.4299   11.5579 N   0  0  0  0  0  0  0  0  0  0  0  0
  -31.6705    5.3912   11.4578 C   0  0  0  0  0  0  0  0  0  0  0  0
  -29.3834    4.6890   12.0577 C   0  0  0  0  0  0  0  0  0  0  0  0
  -20.5423    1.1387   11.1690 N   0  0  0  0  0  0  0  0  0  0  0  0
  -27.0255    4.0212   12.3495 C   0  0  0  0  0  0  0  0  0  0  0  0
  -26.5251    2.4562   10.6817 O   0  0  0  0  0  0  0  0  0  0  0  0
  -32.3023    7.8506   11.3752 C   0  0  0  0  0  0  0  0  0  0  0  0
  -32.7351    6.4530    9.4511 C   0  0  0  0  0  0  0  0  0  0  0  0
  -32.2511    6.5930   10.7497 C   0  0  0  0  0  0  0  0  0  0  0  0
  -21.3849    2.3488   14.9112 N   0  0  0  0  0  0  0  0  0  0  0  0
  -33.2730    7.5232    8.7674 C   0  0  0  0  0  0  0  0  0  0  0  0
  -33.3338    8.7456    9.3914 C   0  0  0  0  0  0  0  0  0  0  0  0
  -32.8497    8.9224   10.6717 C   0  0  0  0  0  0  0  0  0  0  0  0
  -21.8691    2.8963   16.0784 N   0  0  0  0  0  0  0  0  0  0  0  0
  -29.7037    4.4285   13.2114 O   0  0  0  0  0  0  0  0  0  0  0  0
  -30.2666    5.1578   11.1411 N   0  0  0  0  0  0  0  0  0  0  0  0
  -34.1147   10.0779    8.5840 Cl  0  0  0  0  0  0  0  0  0  0  0  0
  -31.7866    8.0659   12.7754 C   0  0  0  0  0  0  0  0  0  0  0  0
  -26.1425    3.0642   11.8437 C   0  0  0  0  0  0  0  0  0  0  0  0
  -24.9736    2.7594   12.5150 C   0  0  0  0  0  0  0  0  0  0  0  0
  -25.6811    1.4133   10.1452 C   0  0  0  0  0  0  0  0  0  0  0  0
  -24.4563    1.9955    9.4793 C   0  0  0  0  0  0  0  0  0  0  0  0
  -23.5822    0.9473    9.0514 O   0  0  0  0  0  0  0  0  0  0  0  0
  -22.6252    0.4555   10.0088 C   0  0  0  0  0  0  0  0  0  0  0  0
  -21.4278    1.3731   10.0317 C   0  0  0  0  0  0  0  0  0  0  0  0
  -20.7866    1.5635   12.4341 C   0  0  0  0  0  0  0  0  0  0  0  0
  -21.9680    2.1426   12.6210 N   0  0  0  0  0  0  0  0  0  0  0  0
  -22.2833    2.4295   13.8921 C   0  0  0  0  0  0  0  0  0  0  0  0
  -20.1514    1.8120   14.7106 C   0  0  0  0  0  0  0  0  0  0  0  0
  -19.8218    1.3884   13.4706 C   0  0  0  0  0  0  0  0  0  0  0  0
  -23.4138    3.0754   14.4152 C   0  0  0  0  0  0  0  0  0  0  0  0
  -23.0818    3.3212   15.7556 C   0  0  0  0  0  0  0  0  0  0  0  0
  -24.6701    3.4012   13.7092 C   0  0  0  0  0  0  0  0  0  0  0  0
  -25.5580    4.3382   14.2240 C   0  0  0  0  0  0  0  0  0  0  0  0
  -26.7306    4.6439   13.5578 C   0  0  0  0  0  0  0  0  0  0  0  0
  -27.9860    4.5385   10.5441 H   0  0  0  0  0  0  0  0  0  0  0  0
  -31.7624    5.5471   12.5428 H   0  0  0  0  0  0  0  0  0  0  0  0
  -32.2323    4.5092   11.1167 H   0  0  0  0  0  0  0  0  0  0  0  0
  -19.6721    0.6145   10.9990 H   0  0  0  0  0  0  0  0  0  0  0  0
  -32.6874    5.4693    8.9612 H   0  0  0  0  0  0  0  0  0  0  0  0
  -33.6467    7.4002    7.7401 H   0  0  0  0  0  0  0  0  0  0  0  0
  -32.8961    9.9165   11.1404 H   0  0  0  0  0  0  0  0  0  0  0  0
  -29.9333    5.3561   10.1869 H   0  0  0  0  0  0  0  0  0  0  0  0
  -32.5500    7.7471   13.5004 H   0  0  0  0  0  0  0  0  0  0  0  0
  -30.8706    7.4751   12.9237 H   0  0  0  0  0  0  0  0  0  0  0  0
  -31.5628    9.1326   12.9237 H   0  0  0  0  0  0  0  0  0  0  0  0
  -24.2833    2.0084   12.1036 H   0  0  0  0  0  0  0  0  0  0  0  0
  -25.3643    0.7504   10.9639 H   0  0  0  0  0  0  0  0  0  0  0  0
  -26.2544    0.8512    9.3933 H   0  0  0  0  0  0  0  0  0  0  0  0
  -24.7649    2.5902    8.6069 H   0  0  0  0  0  0  0  0  0  0  0  0
  -23.9250    2.6344   10.2001 H   0  0  0  0  0  0  0  0  0  0  0  0
  -23.0856    0.4269   11.0074 H   0  0  0  0  0  0  0  0  0  0  0  0
  -22.3074   -0.5587    9.7252 H   0  0  0  0  0  0  0  0  0  0  0  0
  -21.7852    2.4125   10.0759 H   0  0  0  0  0  0  0  0  0  0  0  0
  -20.8465    1.1732    9.1195 H   0  0  0  0  0  0  0  0  0  0  0  0
  -19.4361    1.7245   15.5416 H   0  0  0  0  0  0  0  0  0  0  0  0
  -18.8450    0.9252   13.2675 H   0  0  0  0  0  0  0  0  0  0  0  0
  -23.7594    3.8165   16.4665 H   0  0  0  0  0  0  0  0  0  0  0  0
  -25.3251    4.8430   15.1731 H   0  0  0  0  0  0  0  0  0  0  0  0
  -27.4297    5.3790   13.9832 H   0  0  0  0  0  0  0  0  0  0  0  0
  1  3  1  0
  1  5  1  0
  2  9  1  0
  2 16  1  0
  3 15  2  0
  3 16  1  0
  4 25  1  0
  4 26  1  0
  5 19  2  0
  5 35  1  0
  6 19  1  0
  6 21  1  0
  7  9  2  0
  7 13  1  0
  7 18  1  0
  8  9  1  0
  8 11  2  0
 10 14  1  0
 10 28  1  0
 10 29  1  0
 11 12  1  0
 12 13  2  0
 12 17  1  0
 14 32  2  0
 19 20  1  0
 20 33  2  0
 21 22  1  0
 22 23  1  0
 23 24  1  0
 24 25  1  0
 26 27  2  0
 26 30  1  0
 27 28  1  0
 28 31  2  0
 29 30  2  0
 31 32  1  0
 31 33  1  0
 33 34  1  0
 34 35  2  0
  1 36  1  0
  2 37  1  0
  2 38  1  0
  4 39  1  0
  8 40  1  0
 11 41  1  0
 13 42  1  0
 16 43  1  0
 18 44  1  0
 18 45  1  0
 18 46  1  0
 20 47  1  0
 21 48  1  0
 21 49  1  0
 22 50  1  0
 22 51  1  0
 24 52  1  0
 24 53  1  0
 25 54  1  0
 25 55  1  0
 29 56  1  0
 30 57  1  0
 32 58  1  0
 34 59  1  0
 35 60  1  0
M  END
>  <filename_input>  (1) 
7QGP_DJ8_docked.sdf

>  <pdb_id>  (1) 
7QGP_DJ8

>  <pose_rank>  (1) 
0

>  <num_atoms_heavy>  (1) 
35

>  <num_torsions>  (1) 
3

>  <pose>  (1) 
[-20.542349982865268, 1.1386675585280694, 11.169001367243778, 0.016542174661079826, 0.0466290140698025, -0.016561594488771814, 12.589203130945902, 6.478886366866814, 6.150493888643023]

>  <energy>  (1) 
-1825.1853306055657

>  <inter_energy>  (1) 
-1823.0991525619627

>  <intra_energy>  (1) 
10.799217532274822

>  <rmsd>  (1) 
0.328113

>  <sdf_rank>  (1) 
0

$$$$

     RDKit          3D

 60 64  0  0  0  0  0  0  0  0999 V2000
  -28.2132    4.1573   11.6027 N   0  0  0  0  0  0  0  0  0  0  0  0
  -30.9350    6.5392   10.9934 C   0  0  0  0  0  0  0  0  0  0  0  0
  -28.9821    5.2741   11.8117 C   0  0  0  0  0  0  0  0  0  0  0  0
  -20.5535    1.0314   11.2172 N   0  0  0  0  0  0  0  0  0  0  0  0
  -27.0846    3.8063   12.3912 C   0  0  0  0  0  0  0  0  0  0  0  0
  -26.5731    2.1885   10.7782 O   0  0  0  0  0  0  0  0  0  0  0  0
  -33.2718    5.5585   10.8146 C   0  0  0  0  0  0  0  0  0  0  0  0
  -32.4221    6.2021   12.9840 C   0  0  0  0  0  0  0  0  0  0  0  0
  -32.2412    6.0920   11.6073 C   0  0  0  0  0  0  0  0  0  0  0  0
  -21.3660    2.3692   14.9225 N   0  0  0  0  0  0  0  0  0  0  0  0
  -33.5978    5.8057   13.5864 C   0  0  0  0  0  0  0  0  0  0  0  0
  -34.6064    5.2999   12.8027 C   0  0  0  0  0  0  0  0  0  0  0  0
  -34.4546    5.1633   11.4377 C   0  0  0  0  0  0  0  0  0  0  0  0
  -21.8448    2.9511   16.0752 N   0  0  0  0  0  0  0  0  0  0  0  0
  -28.8655    5.9834   12.8040 O   0  0  0  0  0  0  0  0  0  0  0  0
  -29.9524    5.4676   10.8838 N   0  0  0  0  0  0  0  0  0  0  0  0
  -36.1377    4.9032   13.5337 Cl  0  0  0  0  0  0  0  0  0  0  0  0
  -33.1315    5.4067    9.3212 C   0  0  0  0  0  0  0  0  0  0  0  0
  -26.1870    2.8508   11.9088 C   0  0  0  0  0  0  0  0  0  0  0  0
  -25.0007    2.6004   12.5720 C   0  0  0  0  0  0  0  0  0  0  0  0
  -25.7128    1.1451   10.2691 C   0  0  0  0  0  0  0  0  0  0  0  0
  -24.5129    1.7288    9.5605 C   0  0  0  0  0  0  0  0  0  0  0  0
  -23.6207    0.6852    9.1597 O   0  0  0  0  0  0  0  0  0  0  0  0
  -22.6373    0.2543   10.1196 C   0  0  0  0  0  0  0  0  0  0  0  0
  -21.4621    1.1998   10.0865 C   0  0  0  0  0  0  0  0  0  0  0  0
  -20.7880    1.5003   12.4685 C   0  0  0  0  0  0  0  0  0  0  0  0
  -21.9798    2.0587   12.6522 N   0  0  0  0  0  0  0  0  0  0  0  0
  -22.2820    2.3884   13.9161 C   0  0  0  0  0  0  0  0  0  0  0  0
  -20.1233    1.8538   14.7226 C   0  0  0  0  0  0  0  0  0  0  0  0
  -19.8031    1.3891   13.4949 C   0  0  0  0  0  0  0  0  0  0  0  0
  -23.4193    3.0279   14.4321 C   0  0  0  0  0  0  0  0  0  0  0  0
  -23.0722    3.3344   15.7561 C   0  0  0  0  0  0  0  0  0  0  0  0
  -24.6939    3.2960   13.7349 C   0  0  0  0  0  0  0  0  0  0  0  0
  -25.5959    4.2316   14.2271 C   0  0  0  0  0  0  0  0  0  0  0  0
  -26.7858    4.4832   13.5690 C   0  0  0  0  0  0  0  0  0  0  0  0
  -28.4704    3.5334   10.8245 H   0  0  0  0  0  0  0  0  0  0  0  0
  -31.1387    6.9305    9.9858 H   0  0  0  0  0  0  0  0  0  0  0  0
  -30.5085    7.3055   11.6574 H   0  0  0  0  0  0  0  0  0  0  0  0
  -19.6737    0.5214   11.0535 H   0  0  0  0  0  0  0  0  0  0  0  0
  -31.6112    6.6133   13.6031 H   0  0  0  0  0  0  0  0  0  0  0  0
  -33.7257    5.8930   14.6754 H   0  0  0  0  0  0  0  0  0  0  0  0
  -35.2729    4.7394   10.8371 H   0  0  0  0  0  0  0  0  0  0  0  0
  -29.9967    4.8346   10.0724 H   0  0  0  0  0  0  0  0  0  0  0  0
  -32.4001    4.6155    9.1001 H   0  0  0  0  0  0  0  0  0  0  0  0
  -34.1056    5.1374    8.8869 H   0  0  0  0  0  0  0  0  0  0  0  0
  -32.7865    6.3567    8.8869 H   0  0  0  0  0  0  0  0  0  0  0  0
  -24.2990    1.8499   12.1791 H   0  0  0  0  0  0  0  0  0  0  0  0
  -25.3674    0.5228   11.1078 H   0  0  0  0  0  0  0  0  0  0  0  0
  -26.2841    0.5404    9.5495 H   0  0  0  0  0  0  0  0  0  0  0  0
  -24.8494    2.2811    8.6707 H   0  0  0  0  0  0  0  0  0  0  0  0
  -23.9859    2.4081   10.2467 H   0  0  0  0  0  0  0  0  0  0  0  0
  -23.0811    0.2546   11.1261 H   0  0  0  0  0  0  0  0  0  0  0  0
  -22.2998   -0.7627    9.8709 H   0  0  0  0  0  0  0  0  0  0  0  0
  -21.8436    2.2315   10.0957 H   0  0  0  0  0  0  0  0  0  0  0  0
  -20.8905    0.9774    9.1733 H   0  0  0  0  0  0  0  0  0  0  0  0
  -19.3931    1.8161   15.5444 H   0  0  0  0  0  0  0  0  0  0  0  0
  -18.8188    0.9411   13.2940 H   0  0  0  0  0  0  0  0  0  0  0  0
  -23.7503    3.8415   16.4582 H   0  0  0  0  0  0  0  0  0  0  0  0
  -25.3603    4.7790   15.1517 H   0  0  0  0  0  0  0  0  0  0  0  0
  -27.4955    5.2180   13.9768 H   0  0  0  0  0  0  0  0  0  0  0  0
  1  3  1  0
  1  5  1  0
  2  9  1  0
  2 16  1  0
  3 15  2  0
  3 16  1  0
  4 25  1  0
  4 26  1  0
  5 19  2  0
  5 35  1  0
  6 19  1  0
  6 21  1  0
  7  9  2  0
  7 13  1  0
  7 18  1  0
  8  9  1  0
  8 11  2  0
 10 14  1  0
 10 28  1  0
 10 29  1  0
 11 12  1  0
 12 13  2  0
 12 17  1  0
 14 32  2  0
 19 20  1  0
 20 33  2  0
 21 22  1  0
 22 23  1  0
 23 24  1  0
 24 25  1  0
 26 27  2  0
 26 30  1  0
 27 28  1  0
 28 31  2  0
 29 30  2  0
 31 32  1  0
 31 33  1  0
 33 34  1  0
 34 35  2  0
  1 36  1  0
  2 37  1  0
  2 38  1  0
  4 39  1  0
  8 40  1  0
 11 41  1  0
 13 42  1  0
 16 43  1  0
 18 44  1  0
 18 45  1  0
 18 46  1  0
 20 47  1  0
 21 48  1  0
 21 49  1  0
 22 50  1  0
 22 51  1  0
 24 52  1  0
 24 53  1  0
 25 54  1  0
 25 55  1  0
 29 56  1  0
 30 57  1  0
 32 58  1  0
 34 59  1  0
 35 60  1  0
M  END
>  <filename_input>  (2) 
7QGP_DJ8_docked.sdf

>  <pdb_id>  (2) 
7QGP_DJ8

>  <pose_rank>  (2) 
1

>  <num_atoms_heavy>  (2) 
35

>  <num_torsions>  (2) 
3

>  <pose>  (2) 
[-20.55348978704919, 1.0314328028506978, 11.21724347931546, 2.186459913079215, -5.791564006106289, -0.5612532669835942, -5.31254626582854, 2.277741334002671, -0.0026195394870905733]

>  <energy>  (2) 
-1690.6820960014254

>  <inter_energy>  (2) 
-1688.7478309119872

>  <intra_energy>  (2) 
26.464602193220117

>  <rmsd>  (2) 
2.26911

>  <sdf_rank>  (2) 
0

$$$$

     RDKit          3D

 60 64  0  0  0  0  0  0  0  0999 V2000
  -28.8355    4.3847   11.8976 N   0  0  0  0  0  0  0  0  0  0  0  0
  -30.4132    6.9100    9.7559 C   0  0  0  0  0  0  0  0  0  0  0  0
  -28.9096    5.5204   11.1313 C   0  0  0  0  0  0  0  0  0  0  0  0
  -21.2929    1.2411   10.5502 N   0  0  0  0  0  0  0  0  0  0  0  0
  -27.6547    3.9369   12.5485 C   0  0  0  0  0  0  0  0  0  0  0  0
  -27.3048    2.5024   10.7317 O   0  0  0  0  0  0  0  0  0  0  0  0
  -31.9576    8.9272    9.7658 C   0  0  0  0  0  0  0  0  0  0  0  0
  -31.8225    7.5316   11.7347 C   0  0  0  0  0  0  0  0  0  0  0  0
  -31.4179    7.8137   10.4320 C   0  0  0  0  0  0  0  0  0  0  0  0
  -21.7814    2.1686   14.4334 N   0  0  0  0  0  0  0  0  0  0  0  0
  -32.7374    8.3292   12.3896 C   0  0  0  0  0  0  0  0  0  0  0  0
  -33.2485    9.4248   11.7372 C   0  0  0  0  0  0  0  0  0  0  0  0
  -32.8805    9.7245   10.4413 C   0  0  0  0  0  0  0  0  0  0  0  0
  -22.1554    2.6243   15.6780 N   0  0  0  0  0  0  0  0  0  0  0  0
  -28.0037    6.3436   11.0763 O   0  0  0  0  0  0  0  0  0  0  0  0
  -30.1082    5.7095   10.5249 N   0  0  0  0  0  0  0  0  0  0  0  0
  -34.3160   10.5054   12.5915 Cl  0  0  0  0  0  0  0  0  0  0  0  0
  -31.5651    9.2784    8.3532 C   0  0  0  0  0  0  0  0  0  0  0  0
  -26.8170    3.0314   11.8929 C   0  0  0  0  0  0  0  0  0  0  0  0
  -25.5868    2.6966   12.4260 C   0  0  0  0  0  0  0  0  0  0  0  0
  -26.5081    1.5129   10.0431 C   0  0  0  0  0  0  0  0  0  0  0  0
  -25.3575    2.1589    9.3075 C   0  0  0  0  0  0  0  0  0  0  0  0
  -24.5204    1.1568    8.7235 O   0  0  0  0  0  0  0  0  0  0  0  0
  -23.4722    0.6120    9.5473 C   0  0  0  0  0  0  0  0  0  0  0  0
  -22.2852    1.5431    9.5224 C   0  0  0  0  0  0  0  0  0  0  0  0
  -21.4178    1.5709   11.8602 C   0  0  0  0  0  0  0  0  0  0  0  0
  -22.5801    2.1179   12.2003 N   0  0  0  0  0  0  0  0  0  0  0  0
  -22.7741    2.3087   13.5130 C   0  0  0  0  0  0  0  0  0  0  0  0
  -20.5688    1.6656   14.0778 C   0  0  0  0  0  0  0  0  0  0  0  0
  -20.3566    1.3364   12.7847 C   0  0  0  0  0  0  0  0  0  0  0  0
  -23.8541    2.8990   14.1868 C   0  0  0  0  0  0  0  0  0  0  0  0
  -23.3967    3.0534   15.5038 C   0  0  0  0  0  0  0  0  0  0  0  0
  -25.1748    3.2559   13.6292 C   0  0  0  0  0  0  0  0  0  0  0  0
  -26.0164    4.1407   14.2927 C   0  0  0  0  0  0  0  0  0  0  0  0
  -27.2499    4.4760   13.7652 C   0  0  0  0  0  0  0  0  0  0  0  0
  -29.6904    3.8209   12.0080 H   0  0  0  0  0  0  0  0  0  0  0  0
  -30.8188    6.6057    8.7798 H   0  0  0  0  0  0  0  0  0  0  0  0
  -29.4776    7.4798    9.6567 H   0  0  0  0  0  0  0  0  0  0  0  0
  -20.4390    0.7432   10.2605 H   0  0  0  0  0  0  0  0  0  0  0  0
  -31.4039    6.6553   12.2514 H   0  0  0  0  0  0  0  0  0  0  0  0
  -33.0525    8.0921   13.4165 H   0  0  0  0  0  0  0  0  0  0  0  0
  -33.3186   10.5987    9.9376 H   0  0  0  0  0  0  0  0  0  0  0  0
  -30.8288    4.9786   10.6109 H   0  0  0  0  0  0  0  0  0  0  0  0
  -30.7453   10.0116    8.3719 H   0  0  0  0  0  0  0  0  0  0  0  0
  -31.2329    8.3704    7.8285 H   0  0  0  0  0  0  0  0  0  0  0  0
  -32.4305    9.7093    7.8285 H   0  0  0  0  0  0  0  0  0  0  0  0
  -24.9333    1.9870   11.8974 H   0  0  0  0  0  0  0  0  0  0  0  0
  -26.1091    0.7979   10.7777 H   0  0  0  0  0  0  0  0  0  0  0  0
  -27.1466    0.9975    9.3105 H   0  0  0  0  0  0  0  0  0  0  0  0
  -25.7531    2.8098    8.5139 H   0  0  0  0  0  0  0  0  0  0  0  0
  -24.7644    2.7525   10.0188 H   0  0  0  0  0  0  0  0  0  0  0  0
  -23.8343    0.5055   10.5805 H   0  0  0  0  0  0  0  0  0  0  0  0
  -23.1753   -0.3746    9.1620 H   0  0  0  0  0  0  0  0  0  0  0  0
  -22.6448    2.5713    9.6756 H   0  0  0  0  0  0  0  0  0  0  0  0
  -21.7928    1.4173    8.5469 H   0  0  0  0  0  0  0  0  0  0  0  0
  -19.7762    1.5295   14.8284 H   0  0  0  0  0  0  0  0  0  0  0  0
  -19.4002    0.9032   12.4565 H   0  0  0  0  0  0  0  0  0  0  0  0
  -24.0068    3.4866   16.3101 H   0  0  0  0  0  0  0  0  0  0  0  0
  -25.6973    4.5798   15.2494 H   0  0  0  0  0  0  0  0  0  0  0  0
  -27.9105    5.1685   14.3073 H   0  0  0  0  0  0  0  0  0  0  0  0
  1  3  1  0
  1  5  1  0
  2  9  1  0
  2 16  1  0
  3 15  2  0
  3 16  1  0
  4 25  1  0
  4 26  1  0
  5 19  2  0
  5 35  1  0
  6 19  1  0
  6 21  1  0
  7  9  2  0
  7 13  1  0
  7 18  1  0
  8  9  1  0
  8 11  2  0
 10 14  1  0
 10 28  1  0
 10 29  1  0
 11 12  1  0
 12 13  2  0
 12 17  1  0
 14 32  2  0
 19 20  1  0
 20 33  2  0
 21 22  1  0
 22 23  1  0
 23 24  1  0
 24 25  1  0
 26 27  2  0
 26 30  1  0
 27 28  1  0
 28 31  2  0
 29 30  2  0
 31 32  1  0
 31 33  1  0
 33 34  1  0
 34 35  2  0
  1 36  1  0
  2 37  1  0
  2 38  1  0
  4 39  1  0
  8 40  1  0
 11 41  1  0
 13 42  1  0
 16 43  1  0
 18 44  1  0
 18 45  1  0
 18 46  1  0
 20 47  1  0
 21 48  1  0
 21 49  1  0
 22 50  1  0
 22 51  1  0
 24 52  1  0
 24 53  1  0
 25 54  1  0
 25 55  1  0
 29 56  1  0
 30 57  1  0
 32 58  1  0
 34 59  1  0
 35 60  1  0
M  END
>  <filename_input>  (3) 
7QGP_DJ8_docked.sdf

>  <pdb_id>  (3) 
7QGP_DJ8

>  <pose_rank>  (3) 
2

>  <num_atoms_heavy>  (3) 
35

>  <num_torsions>  (3) 
3

>  <pose>  (3) 
[-21.292857177540956, 1.2410524012088533, 10.55019567823639, -3.189163376689169, -5.215325043658189, 0.162242928025887, 33.639223466593016, 8.332090065845781, -7.755667110011241]

>  <energy>  (3) 
-1307.7897669321069

>  <inter_energy>  (3) 
-1327.606060850296

>  <intra_energy>  (3) 
3.8026566554851806

>  <rmsd>  (3) 
1.70015

>  <sdf_rank>  (3) 
0

$$$$

     RDKit          3D

 60 64  0  0  0  0  0  0  0  0999 V2000
  -28.1994    4.3018   11.5190 N   0  0  0  0  0  0  0  0  0  0  0  0
  -30.3585    7.0402   10.3822 C   0  0  0  0  0  0  0  0  0  0  0  0
  -28.6674    5.5890   11.4395 C   0  0  0  0  0  0  0  0  0  0  0  0
  -20.5692    1.0937   11.2387 N   0  0  0  0  0  0  0  0  0  0  0  0
  -27.1017    3.9002   12.3268 C   0  0  0  0  0  0  0  0  0  0  0  0
  -26.5568    2.3506   10.6586 O   0  0  0  0  0  0  0  0  0  0  0  0
  -32.5248    7.1740   11.7028 C   0  0  0  0  0  0  0  0  0  0  0  0
  -30.4977    8.0772   12.6610 C   0  0  0  0  0  0  0  0  0  0  0  0
  -31.1483    7.4409   11.6064 C   0  0  0  0  0  0  0  0  0  0  0  0
  -21.4872    2.2725   14.9732 N   0  0  0  0  0  0  0  0  0  0  0  0
  -31.1794    8.4598   13.7973 C   0  0  0  0  0  0  0  0  0  0  0  0
  -32.5278    8.2096   13.8772 C   0  0  0  0  0  0  0  0  0  0  0  0
  -33.2002    7.5678   12.8570 C   0  0  0  0  0  0  0  0  0  0  0  0
  -21.9967    2.8078   16.1352 N   0  0  0  0  0  0  0  0  0  0  0  0
  -28.2865    6.4807   12.1886 O   0  0  0  0  0  0  0  0  0  0  0  0
  -29.6628    5.7682   10.5355 N   0  0  0  0  0  0  0  0  0  0  0  0
  -33.4231    8.7898   15.2551 Cl  0  0  0  0  0  0  0  0  0  0  0  0
  -33.2816    6.4812   10.5983 C   0  0  0  0  0  0  0  0  0  0  0  0
  -26.2002    2.9556   11.8303 C   0  0  0  0  0  0  0  0  0  0  0  0
  -25.0396    2.6593   12.5194 C   0  0  0  0  0  0  0  0  0  0  0  0
  -25.6927    1.3199   10.1303 C   0  0  0  0  0  0  0  0  0  0  0  0
  -24.4633    1.9190    9.4885 C   0  0  0  0  0  0  0  0  0  0  0  0
  -23.5709    0.8827    9.0693 O   0  0  0  0  0  0  0  0  0  0  0  0
  -22.6249    0.3954   10.0398 C   0  0  0  0  0  0  0  0  0  0  0  0
  -21.4380    1.3255   10.0881 C   0  0  0  0  0  0  0  0  0  0  0  0
  -20.8392    1.5083   12.5020 C   0  0  0  0  0  0  0  0  0  0  0  0
  -22.0297    2.0738   12.6724 N   0  0  0  0  0  0  0  0  0  0  0  0
  -22.3693    2.3497   13.9396 C   0  0  0  0  0  0  0  0  0  0  0  0
  -20.2449    1.7500   14.7902 C   0  0  0  0  0  0  0  0  0  0  0  0
  -19.8901    1.3373   13.5535 C   0  0  0  0  0  0  0  0  0  0  0  0
  -23.5152    2.9804   14.4473 C   0  0  0  0  0  0  0  0  0  0  0  0
  -23.2083    3.2217   15.7945 C   0  0  0  0  0  0  0  0  0  0  0  0
  -24.7629    3.2971   13.7223 C   0  0  0  0  0  0  0  0  0  0  0  0
  -25.6693    4.2215   14.2274 C   0  0  0  0  0  0  0  0  0  0  0  0
  -26.8338    4.5187   13.5434 C   0  0  0  0  0  0  0  0  0  0  0  0
  -28.6740    3.5806   10.9573 H   0  0  0  0  0  0  0  0  0  0  0  0
  -31.0508    6.9591    9.5312 H   0  0  0  0  0  0  0  0  0  0  0  0
  -29.5926    7.8131   10.2212 H   0  0  0  0  0  0  0  0  0  0  0  0
  -19.6907    0.5798   11.0803 H   0  0  0  0  0  0  0  0  0  0  0  0
  -29.4189    8.2784   12.5861 H   0  0  0  0  0  0  0  0  0  0  0  0
  -30.6525    8.9567   14.6252 H   0  0  0  0  0  0  0  0  0  0  0  0
  -34.2769    7.3654   12.9554 H   0  0  0  0  0  0  0  0  0  0  0  0
  -29.9369    4.9769    9.9358 H   0  0  0  0  0  0  0  0  0  0  0  0
  -34.0261    5.7996   11.0355 H   0  0  0  0  0  0  0  0  0  0  0  0
  -33.7919    7.2316    9.9767 H   0  0  0  0  0  0  0  0  0  0  0  0
  -32.5790    5.9067    9.9767 H   0  0  0  0  0  0  0  0  0  0  0  0
  -24.3344    1.9181   12.1153 H   0  0  0  0  0  0  0  0  0  0  0  0
  -25.3827    0.6555   10.9503 H   0  0  0  0  0  0  0  0  0  0  0  0
  -26.2473    0.7563    9.3656 H   0  0  0  0  0  0  0  0  0  0  0  0
  -24.7636    2.5156    8.6145 H   0  0  0  0  0  0  0  0  0  0  0  0
  -23.9510    2.5592   10.2218 H   0  0  0  0  0  0  0  0  0  0  0  0
  -23.1017    0.3559   11.0303 H   0  0  0  0  0  0  0  0  0  0  0  0
  -22.2916   -0.6137    9.7557 H   0  0  0  0  0  0  0  0  0  0  0  0
  -21.8072    2.3607   10.1323 H   0  0  0  0  0  0  0  0  0  0  0  0
  -20.8394    1.1372    9.1846 H   0  0  0  0  0  0  0  0  0  0  0  0
  -19.5427    1.6651   15.6326 H   0  0  0  0  0  0  0  0  0  0  0  0
  -18.9051    0.8857   13.3642 H   0  0  0  0  0  0  0  0  0  0  0  0
  -23.9031    3.7055   16.4969 H   0  0  0  0  0  0  0  0  0  0  0  0
  -25.4577    4.7231   15.1833 H   0  0  0  0  0  0  0  0  0  0  0  0
  -27.5477    5.2438   13.9613 H   0  0  0  0  0  0  0  0  0  0  0  0
  1  3  1  0
  1  5  1  0
  2  9  1  0
  2 16  1  0
  3 15  2  0
  3 16  1  0
  4 25  1  0
  4 26  1  0
  5 19  2  0
  5 35  1  0
  6 19  1  0
  6 21  1  0
  7  9  2  0
  7 13  1  0
  7 18  1  0
  8  9  1  0
  8 11  2  0
 10 14  1  0
 10 28  1  0
 10 29  1  0
 11 12  1  0
 12 13  2  0
 12 17  1  0
 14 32  2  0
 19 20  1  0
 20 33  2  0
 21 22  1  0
 22 23  1  0
 23 24  1  0
 24 25  1  0
 26 27  2  0
 26 30  1  0
 27 28  1  0
 28 31  2  0
 29 30  2  0
 31 32  1  0
 31 33  1  0
 33 34  1  0
 34 35  2  0
  1 36  1  0
  2 37  1  0
  2 38  1  0
  4 39  1  0
  8 40  1  0
 11 41  1  0
 13 42  1  0
 16 43  1  0
 18 44  1  0
 18 45  1  0
 18 46  1  0
 20 47  1  0
 21 48  1  0
 21 49  1  0
 22 50  1  0
 22 51  1  0
 24 52  1  0
 24 53  1  0
 25 54  1  0
 25 55  1  0
 29 56  1  0
 30 57  1  0
 32 58  1  0
 34 59  1  0
 35 60  1  0
M  END
>  <filename_input>  (4) 
7QGP_DJ8_docked.sdf

>  <pdb_id>  (4) 
7QGP_DJ8

>  <pose_rank>  (4) 
3

>  <num_atoms_heavy>  (4) 
35

>  <num_torsions>  (4) 
3

>  <pose>  (4) 
[-20.569240185051687, 1.0936831597438792, 11.238723238914831, -3.6864106940103407, -4.954841926743178, 0.9299323549358638, 32.797437406373156, 9.116690322322457, -6.440962510960679]

>  <energy>  (4) 
-1569.3807105292922

>  <inter_energy>  (4) 
-1630.252375246237

>  <intra_energy>  (4) 
55.520982435794515

>  <rmsd>  (4) 
2.09888

>  <sdf_rank>  (4) 
0

$$$$

     RDKit          3D

 60 64  0  0  0  0  0  0  0  0999 V2000
  -28.2307    4.3269   11.6136 N   0  0  0  0  0  0  0  0  0  0  0  0
  -31.7733    5.2751   11.5491 C   0  0  0  0  0  0  0  0  0  0  0  0
  -29.4767    4.5854   12.1266 C   0  0  0  0  0  0  0  0  0  0  0  0
  -20.6053    1.1285   11.1512 N   0  0  0  0  0  0  0  0  0  0  0  0
  -27.1130    3.9281   12.3947 C   0  0  0  0  0  0  0  0  0  0  0  0
  -26.6070    2.3766   10.7161 O   0  0  0  0  0  0  0  0  0  0  0  0
  -32.6563    7.6327   11.2079 C   0  0  0  0  0  0  0  0  0  0  0  0
  -32.7809    6.0480    9.3869 C   0  0  0  0  0  0  0  0  0  0  0  0
  -32.4206    6.3438   10.6996 C   0  0  0  0  0  0  0  0  0  0  0  0
  -21.4331    2.3120   14.9052 N   0  0  0  0  0  0  0  0  0  0  0  0
  -33.3736    6.9932    8.5761 C   0  0  0  0  0  0  0  0  0  0  0  0
  -33.6150    8.2460    9.0854 C   0  0  0  0  0  0  0  0  0  0  0  0
  -33.2571    8.5768   10.3766 C   0  0  0  0  0  0  0  0  0  0  0  0
  -21.9147    2.8486   16.0786 N   0  0  0  0  0  0  0  0  0  0  0  0
  -29.7821    4.3323   13.2859 O   0  0  0  0  0  0  0  0  0  0  0  0
  -30.3725    5.0443   11.2172 N   0  0  0  0  0  0  0  0  0  0  0  0
  -34.4668    9.4135    8.1115 Cl  0  0  0  0  0  0  0  0  0  0  0  0
  -32.2809    8.0146   12.6172 C   0  0  0  0  0  0  0  0  0  0  0  0
  -26.2227    2.9839   11.8778 C   0  0  0  0  0  0  0  0  0  0  0  0
  -25.0450    2.6902   12.5387 C   0  0  0  0  0  0  0  0  0  0  0  0
  -25.7548    1.3462   10.1684 C   0  0  0  0  0  0  0  0  0  0  0  0
  -24.5422    1.9459    9.4957 C   0  0  0  0  0  0  0  0  0  0  0  0
  -23.6590    0.9101    9.0563 O   0  0  0  0  0  0  0  0  0  0  0  0
  -22.6888    0.4256   10.0041 C   0  0  0  0  0  0  0  0  0  0  0  0
  -21.5024    1.3574   10.0219 C   0  0  0  0  0  0  0  0  0  0  0  0
  -20.8448    1.5448   12.4200 C   0  0  0  0  0  0  0  0  0  0  0  0
  -22.0315    2.1090   12.6187 N   0  0  0  0  0  0  0  0  0  0  0  0
  -22.3403    2.3865   13.8934 C   0  0  0  0  0  0  0  0  0  0  0  0
  -20.1949    1.7909   14.6926 C   0  0  0  0  0  0  0  0  0  0  0  0
  -19.8700    1.3767   13.4482 C   0  0  0  0  0  0  0  0  0  0  0  0
  -23.4743    3.0165   14.4282 C   0  0  0  0  0  0  0  0  0  0  0  0
  -23.1348    3.2603   15.7670 C   0  0  0  0  0  0  0  0  0  0  0  0
  -24.7399    3.3303   13.7334 C   0  0  0  0  0  0  0  0  0  0  0  0
  -25.6348    4.2543   14.2592 C   0  0  0  0  0  0  0  0  0  0  0  0
  -26.8162    4.5489   13.6035 C   0  0  0  0  0  0  0  0  0  0  0  0
  -28.0971    4.4285   10.5973 H   0  0  0  0  0  0  0  0  0  0  0  0
  -31.8363    5.5816   12.6037 H   0  0  0  0  0  0  0  0  0  0  0  0
  -32.3125    4.3356   11.3575 H   0  0  0  0  0  0  0  0  0  0  0  0
  -19.7303    0.6156   10.9721 H   0  0  0  0  0  0  0  0  0  0  0  0
  -32.5888    5.0406    8.9891 H   0  0  0  0  0  0  0  0  0  0  0  0
  -33.6482    6.7482    7.5395 H   0  0  0  0  0  0  0  0  0  0  0  0
  -33.4474    9.5929   10.7525 H   0  0  0  0  0  0  0  0  0  0  0  0
  -30.0515    5.2366   10.2576 H   0  0  0  0  0  0  0  0  0  0  0  0
  -32.8692    7.4161   13.3284 H   0  0  0  0  0  0  0  0  0  0  0  0
  -31.2093    7.8236   12.7758 H   0  0  0  0  0  0  0  0  0  0  0  0
  -32.4903    9.0828   12.7758 H   0  0  0  0  0  0  0  0  0  0  0  0
  -24.3490    1.9493   12.1186 H   0  0  0  0  0  0  0  0  0  0  0  0
  -25.4238    0.6835   10.9816 H   0  0  0  0  0  0  0  0  0  0  0  0
  -26.3272    0.7806    9.4184 H   0  0  0  0  0  0  0  0  0  0  0  0
  -24.8647    2.5407    8.6284 H   0  0  0  0  0  0  0  0  0  0  0  0
  -24.0131    2.5880   10.2152 H   0  0  0  0  0  0  0  0  0  0  0  0
  -23.1411    0.3871   11.0061 H   0  0  0  0  0  0  0  0  0  0  0  0
  -22.3612   -0.5835    9.7135 H   0  0  0  0  0  0  0  0  0  0  0  0
  -21.8718    2.3922   10.0735 H   0  0  0  0  0  0  0  0  0  0  0  0
  -20.9259    1.1684    9.1043 H   0  0  0  0  0  0  0  0  0  0  0  0
  -19.4721    1.7083   15.5177 H   0  0  0  0  0  0  0  0  0  0  0  0
  -18.8893    0.9261   13.2355 H   0  0  0  0  0  0  0  0  0  0  0  0
  -23.8128    3.7443   16.4854 H   0  0  0  0  0  0  0  0  0  0  0  0
  -25.4006    4.7577   15.2088 H   0  0  0  0  0  0  0  0  0  0  0  0
  -27.5206    5.2737   14.0376 H   0  0  0  0  0  0  0  0  0  0  0  0
  1  3  1  0
  1  5  1  0
  2  9  1  0
  2 16  1  0
  3 15  2  0
  3 16  1  0
  4 25  1  0
  4 26  1  0
  5 19  2  0
  5 35  1  0
  6 19  1  0
  6 21  1  0
  7  9  2  0
  7 13  1  0
  7 18  1  0
  8  9  1  0
  8 11  2  0
 10 14  1  0
 10 28  1  0
 10 29  1  0
 11 12  1  0
 12 13  2  0
 12 17  1  0
 14 32  2  0
 19 20  1  0
 20 33  2  0
 21 22  1  0
 22 23  1  0
 23 24  1  0
 24 25  1  0
 26 27  2  0
 26 30  1  0
 27 28  1  0
 28 31  2  0
 29 30  2  0
 31 32  1  0
 31 33  1  0
 33 34  1  0
 34 35  2  0
  1 36  1  0
  2 37  1  0
  2 38  1  0
  4 39  1  0
  8 40  1  0
 11 41  1  0
 13 42  1  0
 16 43  1  0
 18 44  1  0
 18 45  1  0
 18 46  1  0
 20 47  1  0
 21 48  1  0
 21 49  1  0
 22 50  1  0
 22 51  1  0
 24 52  1  0
 24 53  1  0
 25 54  1  0
 25 55  1  0
 29 56  1  0
 30 57  1  0
 32 58  1  0
 34 59  1  0
 35 60  1  0
M  END
>  <filename_input>  (5) 
7QGP_DJ8_docked.sdf

>  <pdb_id>  (5) 
7QGP_DJ8

>  <pose_rank>  (5) 
4

>  <num_atoms_heavy>  (5) 
35

>  <num_torsions>  (5) 
3

>  <pose>  (5) 
[-20.605343697021368, 1.1285327993142265, 11.15118001871403, -2.198060109558219, -5.803289530956234, 0.487101981348137, 0.03798015214102545, 0.33670761642229535, 12.28694225771999]

>  <energy>  (5) 
-1760.495395879793

>  <inter_energy>  (5) 
-1781.7489945544812

>  <intra_energy>  (5) 
11.134583045091142

>  <rmsd>  (5) 
0.463371

>  <sdf_rank>  (5) 
0

$$$$

     RDKit          3D

 60 64  0  0  0  0  0  0  0  0999 V2000
  -25.7178    3.3143   12.0492 N   0  0  0  0  0  0  0  0  0  0  0  0
  -23.0160    0.8959   12.6015 C   0  0  0  0  0  0  0  0  0  0  0  0
  -25.0326    2.1343   11.9061 C   0  0  0  0  0  0  0  0  0  0  0  0
  -32.8498    7.4497   12.8387 N   0  0  0  0  0  0  0  0  0  0  0  0
  -26.9417    3.6112   11.3915 C   0  0  0  0  0  0  0  0  0  0  0  0
  -27.9180    3.8443   13.5066 O   0  0  0  0  0  0  0  0  0  0  0  0
  -20.7747    0.7959   11.4095 C   0  0  0  0  0  0  0  0  0  0  0  0
  -20.9135    1.8486   13.5810 C   0  0  0  0  0  0  0  0  0  0  0  0
  -21.5343    1.1820   12.5272 C   0  0  0  0  0  0  0  0  0  0  0  0
  -32.4793    5.9351    9.1310 N   0  0  0  0  0  0  0  0  0  0  0  0
  -19.5637    2.1307   13.5547 C   0  0  0  0  0  0  0  0  0  0  0  0
  -18.8250    1.7359   12.4658 C   0  0  0  0  0  0  0  0  0  0  0  0
  -19.4114    1.0870   11.3981 C   0  0  0  0  0  0  0  0  0  0  0  0
  -32.0998    5.3853    7.9267 N   0  0  0  0  0  0  0  0  0  0  0  0
  -25.5011    1.1613   11.3272 O   0  0  0  0  0  0  0  0  0  0  0  0
  -23.8390    2.0983   12.5495 N   0  0  0  0  0  0  0  0  0  0  0  0
  -17.0999    1.9825   12.4701 Cl  0  0  0  0  0  0  0  0  0  0  0  0
  -21.3919    0.0795   10.2353 C   0  0  0  0  0  0  0  0  0  0  0  0
  -28.0530    3.9788   12.1539 C   0  0  0  0  0  0  0  0  0  0  0  0
  -29.2096    4.4254   11.5434 C   0  0  0  0  0  0  0  0  0  0  0  0
  -29.0570    4.1502   14.3415 C   0  0  0  0  0  0  0  0  0  0  0  0
  -29.2479    5.6431   14.4730 C   0  0  0  0  0  0  0  0  0  0  0  0
  -30.4401    5.9249   15.2114 O   0  0  0  0  0  0  0  0  0  0  0  0
  -31.6724    5.9989   14.4697 C   0  0  0  0  0  0  0  0  0  0  0  0
  -31.7972    7.3677   13.8475 C   0  0  0  0  0  0  0  0  0  0  0  0
  -32.7395    6.9763   11.5721 C   0  0  0  0  0  0  0  0  0  0  0  0
  -31.6167    6.3164   11.3077 N   0  0  0  0  0  0  0  0  0  0  0  0
  -31.5605    5.7152   10.1107 C   0  0  0  0  0  0  0  0  0  0  0  0
  -33.6017    6.6618    9.3800 C   0  0  0  0  0  0  0  0  0  0  0  0
  -33.7731    7.1896   10.6120 C   0  0  0  0  0  0  0  0  0  0  0  0
  -30.5160    4.9924    9.5147 C   0  0  0  0  0  0  0  0  0  0  0  0
  -30.9258    4.8276    8.1835 C   0  0  0  0  0  0  0  0  0  0  0  0
  -29.2785    4.5052   10.1581 C   0  0  0  0  0  0  0  0  0  0  0  0
  -28.1807    4.1199    9.3981 C   0  0  0  0  0  0  0  0  0  0  0  0
  -27.0224    3.6689   10.0041 C   0  0  0  0  0  0  0  0  0  0  0  0
  -25.3197    4.0304   12.6733 H   0  0  0  0  0  0  0  0  0  0  0  0
  -23.2896    0.2488   11.7551 H   0  0  0  0  0  0  0  0  0  0  0  0
  -23.2062    0.4127   13.5712 H   0  0  0  0  0  0  0  0  0  0  0  0
  -33.7374    7.8979   13.1074 H   0  0  0  0  0  0  0  0  0  0  0  0
  -21.5116    2.1561   14.4514 H   0  0  0  0  0  0  0  0  0  0  0  0
  -19.0868    2.6626   14.3912 H   0  0  0  0  0  0  0  0  0  0  0  0
  -18.7985    0.7975   10.5318 H   0  0  0  0  0  0  0  0  0  0  0  0
  -23.5018    2.9513   13.0182 H   0  0  0  0  0  0  0  0  0  0  0  0
  -22.0692   -0.7066   10.6001 H   0  0  0  0  0  0  0  0  0  0  0  0
  -21.9588    0.7975    9.6245 H   0  0  0  0  0  0  0  0  0  0  0  0
  -20.5979   -0.3749    9.6245 H   0  0  0  0  0  0  0  0  0  0  0  0
  -30.0762    4.7178   12.1546 H   0  0  0  0  0  0  0  0  0  0  0  0
  -29.9600    3.7104   13.8930 H   0  0  0  0  0  0  0  0  0  0  0  0
  -28.8798    3.7305   15.3427 H   0  0  0  0  0  0  0  0  0  0  0  0
  -28.3839    6.0751   14.9991 H   0  0  0  0  0  0  0  0  0  0  0  0
  -29.3346    6.0839   13.4689 H   0  0  0  0  0  0  0  0  0  0  0  0
  -31.6721    5.2343   13.6789 H   0  0  0  0  0  0  0  0  0  0  0  0
  -32.5215    5.8224   15.1464 H   0  0  0  0  0  0  0  0  0  0  0  0
  -30.8384    7.6245   13.3734 H   0  0  0  0  0  0  0  0  0  0  0  0
  -32.0621    8.0687   14.6527 H   0  0  0  0  0  0  0  0  0  0  0  0
  -34.3553    6.8167    8.5938 H   0  0  0  0  0  0  0  0  0  0  0  0
  -34.6769    7.7631   10.8655 H   0  0  0  0  0  0  0  0  0  0  0  0
  -30.3326    4.2899    7.4291 H   0  0  0  0  0  0  0  0  0  0  0  0
  -28.2338    4.1743    8.3007 H   0  0  0  0  0  0  0  0  0  0  0  0
  -26.1656    3.3560    9.3895 H   0  0  0  0  0  0  0  0  0  0  0  0
  1  3  1  0
  1  5  1  0
  2  9  1  0
  2 16  1  0
  3 15  2  0
  3 16  1  0
  4 25  1  0
  4 26  1  0
  5 19  2  0
  5 35  1  0
  6 19  1  0
  6 21  1  0
  7  9  2  0
  7 13  1  0
  7 18  1  0
  8  9  1  0
  8 11  2  0
 10 14  1  0
 10 28  1  0
 10 29  1  0
 11 12  1  0
 12 13  2  0
 12 17  1  0
 14 32  2  0
 19 20  1  0
 20 33  2  0
 21 22  1  0
 22 23  1  0
 23 24  1  0
 24 25  1  0
 26 27  2  0
 26 30  1  0
 27 28  1  0
 28 31  2  0
 29 30  2  0
 31 32  1  0
 31 33  1  0
 33 34  1  0
 34 35  2  0
  1 36  1  0
  2 37  1  0
  2 38  1  0
  4 39  1  0
  8 40  1  0
 11 41  1  0
 13 42  1  0
 16 43  1  0
 18 44  1  0
 18 45  1  0
 18 46  1  0
 20 47  1  0
 21 48  1  0
 21 49  1  0
 22 50  1  0
 22 51  1  0
 24 52  1  0
 24 53  1  0
 25 54  1  0
 25 55  1  0
 29 56  1  0
 30 57  1  0
 32 58  1  0
 34 59  1  0
 35 60  1  0
M  END
>  <filename_input>  (6) 
7QGP_DJ8_docked.sdf

>  <pdb_id>  (6) 
7QGP_DJ8

>  <pose_rank>  (6) 
5

>  <num_atoms_heavy>  (6) 
35

>  <num_torsions>  (6) 
3

>  <pose>  (6) 
[-32.84977541059449, 7.449696992023148, 12.838723558443773, -1.261724645793414, -2.6327804497700638, 0.7473654671635689, 6.008457285618139, 0.17989244354553666, -0.4328918574505205]

>  <energy>  (6) 
-763.7908229284237

>  <inter_energy>  (6) 
-765.9341757734559

>  <intra_energy>  (6) 
4.386308896836907

>  <rmsd>  (6) 
10.9505

>  <sdf_rank>  (6) 
0

$$$$

     RDKit          3D

 60 64  0  0  0  0  0  0  0  0999 V2000
  -28.2038    3.5003   10.0963 N   0  0  0  0  0  0  0  0  0  0  0  0
  -31.5972    4.2629   11.2610 C   0  0  0  0  0  0  0  0  0  0  0  0
  -29.2098    3.6974   11.0083 C   0  0  0  0  0  0  0  0  0  0  0  0
  -22.7748    3.4526   16.3504 N   0  0  0  0  0  0  0  0  0  0  0  0
  -26.8672    3.1654   10.4425 C   0  0  0  0  0  0  0  0  0  0  0  0
  -26.9650    4.8410   12.0746 O   0  0  0  0  0  0  0  0  0  0  0  0
  -32.8685    6.3095   10.4550 C   0  0  0  0  0  0  0  0  0  0  0  0
  -31.5995    6.4383   12.5083 C   0  0  0  0  0  0  0  0  0  0  0  0
  -32.0307    5.7030   11.4065 C   0  0  0  0  0  0  0  0  0  0  0  0
  -21.2656    1.5672   13.1339 N   0  0  0  0  0  0  0  0  0  0  0  0
  -31.9712    7.7552   12.6811 C   0  0  0  0  0  0  0  0  0  0  0  0
  -32.7775    8.3455   11.7383 C   0  0  0  0  0  0  0  0  0  0  0  0
  -33.2347    7.6415   10.6429 C   0  0  0  0  0  0  0  0  0  0  0  0
  -20.9977    0.9202   11.9481 N   0  0  0  0  0  0  0  0  0  0  0  0
  -29.0858    3.4368   12.1991 O   0  0  0  0  0  0  0  0  0  0  0  0
  -30.3853    4.1029   10.4664 N   0  0  0  0  0  0  0  0  0  0  0  0
  -33.1602   10.0394   11.8831 Cl  0  0  0  0  0  0  0  0  0  0  0  0
  -33.3740    5.5628    9.2469 C   0  0  0  0  0  0  0  0  0  0  0  0
  -26.2663    3.7999   11.5324 C   0  0  0  0  0  0  0  0  0  0  0  0
  -25.0301    3.3884   11.9933 C   0  0  0  0  0  0  0  0  0  0  0  0
  -26.3634    5.5745   13.1646 C   0  0  0  0  0  0  0  0  0  0  0  0
  -26.4512    4.7959   14.4563 C   0  0  0  0  0  0  0  0  0  0  0  0
  -25.7566    5.4880   15.4977 O   0  0  0  0  0  0  0  0  0  0  0  0
  -24.3456    5.2321   15.6315 C   0  0  0  0  0  0  0  0  0  0  0  0
  -24.1431    3.9587   16.4148 C   0  0  0  0  0  0  0  0  0  0  0  0
  -22.2507    2.7856   15.2916 C   0  0  0  0  0  0  0  0  0  0  0  0
  -23.0423    2.6956   14.2281 N   0  0  0  0  0  0  0  0  0  0  0  0
  -22.4839    2.1739   13.1266 C   0  0  0  0  0  0  0  0  0  0  0  0
  -20.4764    1.6043   14.2409 C   0  0  0  0  0  0  0  0  0  0  0  0
  -20.9382    2.2286   15.3467 C   0  0  0  0  0  0  0  0  0  0  0  0
  -23.0514    1.9006   11.8728 C   0  0  0  0  0  0  0  0  0  0  0  0
  -22.0785    1.1359   11.2127 C   0  0  0  0  0  0  0  0  0  0  0  0
  -24.3685    2.3394   11.3674 C   0  0  0  0  0  0  0  0  0  0  0  0
  -24.9560    1.7214   10.2700 C   0  0  0  0  0  0  0  0  0  0  0  0
  -26.1911    2.1318    9.8028 C   0  0  0  0  0  0  0  0  0  0  0  0
  -28.4322    3.6017    9.0971 H   0  0  0  0  0  0  0  0  0  0  0  0
  -31.4140    3.8505   12.2642 H   0  0  0  0  0  0  0  0  0  0  0  0
  -32.4041    3.7314   10.7353 H   0  0  0  0  0  0  0  0  0  0  0  0
  -22.1655    3.6132   17.1652 H   0  0  0  0  0  0  0  0  0  0  0  0
  -30.9496    5.9591   13.2553 H   0  0  0  0  0  0  0  0  0  0  0  0
  -31.6281    8.3229   13.5585 H   0  0  0  0  0  0  0  0  0  0  0  0
  -33.8929    8.1350    9.9126 H   0  0  0  0  0  0  0  0  0  0  0  0
  -30.4232    4.3049    9.4572 H   0  0  0  0  0  0  0  0  0  0  0  0
  -33.9629    4.6929    9.5734 H   0  0  0  0  0  0  0  0  0  0  0  0
  -34.0078    6.2287    8.6429 H   0  0  0  0  0  0  0  0  0  0  0  0
  -32.5203    5.2218    8.6429 H   0  0  0  0  0  0  0  0  0  0  0  0
  -24.5698    3.8919   12.8562 H   0  0  0  0  0  0  0  0  0  0  0  0
  -25.3055    5.7637   12.9300 H   0  0  0  0  0  0  0  0  0  0  0  0
  -26.9064    6.5229   13.2900 H   0  0  0  0  0  0  0  0  0  0  0  0
  -27.5077    4.6793   14.7393 H   0  0  0  0  0  0  0  0  0  0  0  0
  -25.9901    3.8077   14.3121 H   0  0  0  0  0  0  0  0  0  0  0  0
  -23.8950    5.1257   14.6337 H   0  0  0  0  0  0  0  0  0  0  0  0
  -23.8671    6.0701   16.1595 H   0  0  0  0  0  0  0  0  0  0  0  0
  -24.8190    3.1899   16.0122 H   0  0  0  0  0  0  0  0  0  0  0  0
  -24.3567    4.1873   17.4694 H   0  0  0  0  0  0  0  0  0  0  0  0
  -19.4815    1.1351   14.2362 H   0  0  0  0  0  0  0  0  0  0  0  0
  -20.3246    2.3047   16.2564 H   0  0  0  0  0  0  0  0  0  0  0  0
  -22.2003    0.7539   10.1883 H   0  0  0  0  0  0  0  0  0  0  0  0
  -24.4320    0.8954    9.7668 H   0  0  0  0  0  0  0  0  0  0  0  0
  -26.6386    1.6412    8.9258 H   0  0  0  0  0  0  0  0  0  0  0  0
  1  3  1  0
  1  5  1  0
  2  9  1  0
  2 16  1  0
  3 15  2  0
  3 16  1  0
  4 25  1  0
  4 26  1  0
  5 19  2  0
  5 35  1  0
  6 19  1  0
  6 21  1  0
  7  9  2  0
  7 13  1  0
  7 18  1  0
  8  9  1  0
  8 11  2  0
 10 14  1  0
 10 28  1  0
 10 29  1  0
 11 12  1  0
 12 13  2  0
 12 17  1  0
 14 32  2  0
 19 20  1  0
 20 33  2  0
 21 22  1  0
 22 23  1  0
 23 24  1  0
 24 25  1  0
 26 27  2  0
 26 30  1  0
 27 28  1  0
 28 31  2  0
 29 30  2  0
 31 32  1  0
 31 33  1  0
 33 34  1  0
 34 35  2  0
  1 36  1  0
  2 37  1  0
  2 38  1  0
  4 39  1  0
  8 40  1  0
 11 41  1  0
 13 42  1  0
 16 43  1  0
 18 44  1  0
 18 45  1  0
 18 46  1  0
 20 47  1  0
 21 48  1  0
 21 49  1  0
 22 50  1  0
 22 51  1  0
 24 52  1  0
 24 53  1  0
 25 54  1  0
 25 55  1  0
 29 56  1  0
 30 57  1  0
 32 58  1  0
 34 59  1  0
 35 60  1  0
M  END
>  <filename_input>  (7) 
7QGP_DJ8_docked.sdf

>  <pdb_id>  (7) 
7QGP_DJ8

>  <pose_rank>  (7) 
6

>  <num_atoms_heavy>  (7) 
35

>  <num_torsions>  (7) 
3

>  <pose>  (7) 
[-22.774791651035432, 3.452633967162998, 16.350398036653147, -2.8375168205694825, 0.7950028987505233, -1.4097374485143985, -3.164922599579567, -0.3783541245437768, 3.0594479232720886]

>  <energy>  (7) 
-724.8218061393118

>  <inter_energy>  (7) 
-783.1868614873008

>  <intra_energy>  (7) 
58.88513993303486

>  <rmsd>  (7) 
3.78753

>  <sdf_rank>  (7) 
0

$$$$

     RDKit          3D

 60 64  0  0  0  0  0  0  0  0999 V2000
  -26.3712    4.4487   11.9313 N   0  0  0  0  0  0  0  0  0  0  0  0
  -30.0008    4.6289   12.4277 C   0  0  0  0  0  0  0  0  0  0  0  0
  -27.5967    4.0780   12.4245 C   0  0  0  0  0  0  0  0  0  0  0  0
  -20.1761    0.0989    8.5714 N   0  0  0  0  0  0  0  0  0  0  0  0
  -25.1543    3.7799   12.2321 C   0  0  0  0  0  0  0  0  0  0  0  0
  -25.5810    2.3737   10.4096 O   0  0  0  0  0  0  0  0  0  0  0  0
  -31.4993    6.6270   11.9622 C   0  0  0  0  0  0  0  0  0  0  0  0
  -31.4021    4.8222   10.3573 C   0  0  0  0  0  0  0  0  0  0  0  0
  -30.9920    5.3772   11.5673 C   0  0  0  0  0  0  0  0  0  0  0  0
  -19.3960    0.9548   12.4234 N   0  0  0  0  0  0  0  0  0  0  0  0
  -32.3046    5.4707    9.5405 C   0  0  0  0  0  0  0  0  0  0  0  0
  -32.8078    6.6846    9.9411 C   0  0  0  0  0  0  0  0  0  0  0  0
  -32.4114    7.2697   11.1265 C   0  0  0  0  0  0  0  0  0  0  0  0
  -19.3235    1.4227   13.7166 N   0  0  0  0  0  0  0  0  0  0  0  0
  -27.7763    3.0320   13.0369 O   0  0  0  0  0  0  0  0  0  0  0  0
  -28.6119    4.9117   12.0864 N   0  0  0  0  0  0  0  0  0  0  0  0
  -34.0343    7.4602    8.9762 Cl  0  0  0  0  0  0  0  0  0  0  0  0
  -31.0867    7.2819   13.2559 C   0  0  0  0  0  0  0  0  0  0  0  0
  -24.7048    2.7677   11.3808 C   0  0  0  0  0  0  0  0  0  0  0  0
  -23.4540    2.2060   11.5531 C   0  0  0  0  0  0  0  0  0  0  0  0
  -25.1942    1.2871    9.5392 C   0  0  0  0  0  0  0  0  0  0  0  0
  -24.1978    1.7507    8.5025 C   0  0  0  0  0  0  0  0  0  0  0  0
  -23.7461    0.6409    7.7214 O   0  0  0  0  0  0  0  0  0  0  0  0
  -22.6235   -0.1067    8.2265 C   0  0  0  0  0  0  0  0  0  0  0  0
  -21.3453    0.6053    7.8581 C   0  0  0  0  0  0  0  0  0  0  0  0
  -19.8723    0.3974    9.8595 C   0  0  0  0  0  0  0  0  0  0  0  0
  -20.7792    1.1245   10.5036 N   0  0  0  0  0  0  0  0  0  0  0  0
  -20.5644    1.2980   11.8155 C   0  0  0  0  0  0  0  0  0  0  0  0
  -18.4382    0.2629   11.7498 C   0  0  0  0  0  0  0  0  0  0  0  0
  -18.6548   -0.0507   10.4534 C   0  0  0  0  0  0  0  0  0  0  0  0
  -21.2932    2.0412   12.7563 C   0  0  0  0  0  0  0  0  0  0  0  0
  -20.4686    2.0660   13.8906 C   0  0  0  0  0  0  0  0  0  0  0  0
  -22.6324    2.6413   12.5854 C   0  0  0  0  0  0  0  0  0  0  0  0
  -23.0871    3.6336   13.4457 C   0  0  0  0  0  0  0  0  0  0  0  0
  -24.3393    4.1962   13.2796 C   0  0  0  0  0  0  0  0  0  0  0  0
  -26.3309    5.2639   11.3030 H   0  0  0  0  0  0  0  0  0  0  0  0
  -30.1668    4.9115   13.4778 H   0  0  0  0  0  0  0  0  0  0  0  0
  -30.1663    3.5550   12.2564 H   0  0  0  0  0  0  0  0  0  0  0  0
  -19.5378   -0.5283    8.0613 H   0  0  0  0  0  0  0  0  0  0  0  0
  -30.9982    3.8472   10.0470 H   0  0  0  0  0  0  0  0  0  0  0  0
  -32.6159    5.0238    8.5848 H   0  0  0  0  0  0  0  0  0  0  0  0
  -32.8183    8.2505   11.4141 H   0  0  0  0  0  0  0  0  0  0  0  0
  -28.3936    5.7757   11.5699 H   0  0  0  0  0  0  0  0  0  0  0  0
  -31.4607    6.6882   14.1030 H   0  0  0  0  0  0  0  0  0  0  0  0
  -29.9892    7.3390   13.3043 H   0  0  0  0  0  0  0  0  0  0  0  0
  -31.5091    8.2964   13.3043 H   0  0  0  0  0  0  0  0  0  0  0  0
  -23.1087    1.4138   10.8726 H   0  0  0  0  0  0  0  0  0  0  0  0
  -24.7395    0.4876   10.1426 H   0  0  0  0  0  0  0  0  0  0  0  0
  -26.0914    0.9171    9.0214 H   0  0  0  0  0  0  0  0  0  0  0  0
  -24.6770    2.4887    7.8424 H   0  0  0  0  0  0  0  0  0  0  0  0
  -23.3357    2.2065    9.0115 H   0  0  0  0  0  0  0  0  0  0  0  0
  -22.6975   -0.1865    9.3211 H   0  0  0  0  0  0  0  0  0  0  0  0
  -22.6239   -1.1151    7.7870 H   0  0  0  0  0  0  0  0  0  0  0  0
  -21.4611    1.6740    8.0917 H   0  0  0  0  0  0  0  0  0  0  0  0
  -21.1732    0.4319    6.7856 H   0  0  0  0  0  0  0  0  0  0  0  0
  -17.5054   -0.0355   12.2506 H   0  0  0  0  0  0  0  0  0  0  0  0
  -17.9191   -0.6305    9.8768 H   0  0  0  0  0  0  0  0  0  0  0  0
  -20.7445    2.5686   14.8293 H   0  0  0  0  0  0  0  0  0  0  0  0
  -22.4428    3.9757   14.2690 H   0  0  0  0  0  0  0  0  0  0  0  0
  -24.6907    4.9723   13.9754 H   0  0  0  0  0  0  0  0  0  0  0  0
  1  3  1  0
  1  5  1  0
  2  9  1  0
  2 16  1  0
  3 15  2  0
  3 16  1  0
  4 25  1  0
  4 26  1  0
  5 19  2  0
  5 35  1  0
  6 19  1  0
  6 21  1  0
  7  9  2  0
  7 13  1  0
  7 18  1  0
  8  9  1  0
  8 11  2  0
 10 14  1  0
 10 28  1  0
 10 29  1  0
 11 12  1  0
 12 13  2  0
 12 17  1  0
 14 32  2  0
 19 20  1  0
 20 33  2  0
 21 22  1  0
 22 23  1  0
 23 24  1  0
 24 25  1  0
 26 27  2  0
 26 30  1  0
 27 28  1  0
 28 31  2  0
 29 30  2  0
 31 32  1  0
 31 33  1  0
 33 34  1  0
 34 35  2  0
  1 36  1  0
  2 37  1  0
  2 38  1  0
  4 39  1  0
  8 40  1  0
 11 41  1  0
 13 42  1  0
 16 43  1  0
 18 44  1  0
 18 45  1  0
 18 46  1  0
 20 47  1  0
 21 48  1  0
 21 49  1  0
 22 50  1  0
 22 51  1  0
 24 52  1  0
 24 53  1  0
 25 54  1  0
 25 55  1  0
 29 56  1  0
 30 57  1  0
 32 58  1  0
 34 59  1  0
 35 60  1  0
M  END
>  <filename_input>  (8) 
7QGP_DJ8_docked.sdf

>  <pdb_id>  (8) 
7QGP_DJ8

>  <pose_rank>  (8) 
7

>  <num_atoms_heavy>  (8) 
35

>  <num_torsions>  (8) 
3

>  <pose>  (8) 
[-20.176074492200364, 0.09890709896485043, 8.571410881278855, 0.1108624135628526, 0.41878267673604397, -0.19421695349271634, -0.8218728312628276, -5.1029628948467005, -0.08455542918893023]

>  <energy>  (8) 
-834.5049868684744

>  <inter_energy>  (8) 
-825.9383486398522

>  <intra_energy>  (8) 
2.831357505455169

>  <rmsd>  (8) 
2.60163

>  <sdf_rank>  (8) 
0

$$$$

     RDKit          3D

 60 64  0  0  0  0  0  0  0  0999 V2000
  -27.9250    5.6232   11.8607 N   0  0  0  0  0  0  0  0  0  0  0  0
  -31.5286    5.9952   11.2873 C   0  0  0  0  0  0  0  0  0  0  0  0
  -29.2630    5.3830   12.0462 C   0  0  0  0  0  0  0  0  0  0  0  0
  -20.7821    1.5078   11.0655 N   0  0  0  0  0  0  0  0  0  0  0  0
  -26.8902    4.9842   12.5951 C   0  0  0  0  0  0  0  0  0  0  0  0
  -26.5523    3.5972   10.7396 O   0  0  0  0  0  0  0  0  0  0  0  0
  -32.5098    6.2870    8.9621 C   0  0  0  0  0  0  0  0  0  0  0  0
  -32.0551    4.0594    9.7828 C   0  0  0  0  0  0  0  0  0  0  0  0
  -32.0464    5.4381    9.9817 C   0  0  0  0  0  0  0  0  0  0  0  0
  -21.5399    2.3209   14.9311 N   0  0  0  0  0  0  0  0  0  0  0  0
  -32.5184    3.5078    8.6067 C   0  0  0  0  0  0  0  0  0  0  0  0
  -32.9844    4.3436    7.6210 C   0  0  0  0  0  0  0  0  0  0  0  0
  -32.9759    5.7146    7.7795 C   0  0  0  0  0  0  0  0  0  0  0  0
  -21.9755    2.7689   16.1584 N   0  0  0  0  0  0  0  0  0  0  0  0
  -29.6819    4.4698   12.7476 O   0  0  0  0  0  0  0  0  0  0  0  0
  -30.0814    6.1714   11.3056 N   0  0  0  0  0  0  0  0  0  0  0  0
  -33.6790    3.6569    6.1778 Cl  0  0  0  0  0  0  0  0  0  0  0  0
  -32.5171    7.7868    9.1155 C   0  0  0  0  0  0  0  0  0  0  0  0
  -26.1202    3.9996   11.9714 C   0  0  0  0  0  0  0  0  0  0  0  0
  -25.0090    3.4708   12.6003 C   0  0  0  0  0  0  0  0  0  0  0  0
  -25.8307    2.5367   10.0743 C   0  0  0  0  0  0  0  0  0  0  0  0
  -24.5328    3.0457    9.4923 C   0  0  0  0  0  0  0  0  0  0  0  0
  -23.7840    1.9624    8.9341 O   0  0  0  0  0  0  0  0  0  0  0  0
  -22.9109    1.2386    9.8218 C   0  0  0  0  0  0  0  0  0  0  0  0
  -21.6121    1.9926    9.9662 C   0  0  0  0  0  0  0  0  0  0  0  0
  -20.9962    1.7932   12.3744 C   0  0  0  0  0  0  0  0  0  0  0  0
  -22.1021    2.4833   12.6322 N   0  0  0  0  0  0  0  0  0  0  0  0
  -22.4034    2.6409   13.9290 C   0  0  0  0  0  0  0  0  0  0  0  0
  -20.3768    1.6678   14.6654 C   0  0  0  0  0  0  0  0  0  0  0  0
  -20.0784    1.3699   13.3816 C   0  0  0  0  0  0  0  0  0  0  0  0
  -23.4570    3.3473   14.5289 C   0  0  0  0  0  0  0  0  0  0  0  0
  -23.1220    3.3765   15.8906 C   0  0  0  0  0  0  0  0  0  0  0  0
  -24.6518    3.9119   13.8683 C   0  0  0  0  0  0  0  0  0  0  0  0
  -25.4292    4.8763   14.4982 C   0  0  0  0  0  0  0  0  0  0  0  0
  -26.5441    5.4058   13.8747 C   0  0  0  0  0  0  0  0  0  0  0  0
  -27.6534    6.3105   11.1433 H   0  0  0  0  0  0  0  0  0  0  0  0
  -32.0016    6.9728   11.4617 H   0  0  0  0  0  0  0  0  0  0  0  0
  -31.7781    5.2677   12.0737 H   0  0  0  0  0  0  0  0  0  0  0  0
  -19.9786    0.9076   10.8309 H   0  0  0  0  0  0  0  0  0  0  0  0
  -31.6852    3.3974   10.5797 H   0  0  0  0  0  0  0  0  0  0  0  0
  -32.5148    2.4176    8.4604 H   0  0  0  0  0  0  0  0  0  0  0  0
  -33.3397    6.3604    6.9666 H   0  0  0  0  0  0  0  0  0  0  0  0
  -29.6655    6.9218   10.7356 H   0  0  0  0  0  0  0  0  0  0  0  0
  -32.5184    8.0460   10.1845 H   0  0  0  0  0  0  0  0  0  0  0  0
  -31.6210    8.2087    8.6370 H   0  0  0  0  0  0  0  0  0  0  0  0
  -33.4173    8.1999    8.6370 H   0  0  0  0  0  0  0  0  0  0  0  0
  -24.4069    2.7002   12.0965 H   0  0  0  0  0  0  0  0  0  0  0  0
  -25.6112    1.7405   10.8007 H   0  0  0  0  0  0  0  0  0  0  0  0
  -26.4540    2.1501    9.2545 H   0  0  0  0  0  0  0  0  0  0  0  0
  -24.7516    3.7808    8.7037 H   0  0  0  0  0  0  0  0  0  0  0  0
  -23.9414    3.5172   10.2911 H   0  0  0  0  0  0  0  0  0  0  0  0
  -23.3893    1.1384   10.8072 H   0  0  0  0  0  0  0  0  0  0  0  0
  -22.7128    0.2381    9.4098 H   0  0  0  0  0  0  0  0  0  0  0  0
  -21.8422    3.0535   10.1440 H   0  0  0  0  0  0  0  0  0  0  0  0
  -21.0428    1.8421    9.0371 H   0  0  0  0  0  0  0  0  0  0  0  0
  -19.6924    1.3876   15.4797 H   0  0  0  0  0  0  0  0  0  0  0  0
  -19.1612    0.8209   13.1224 H   0  0  0  0  0  0  0  0  0  0  0  0
  -23.7476    3.8552   16.6583 H   0  0  0  0  0  0  0  0  0  0  0  0
  -25.1543    5.2227   15.5054 H   0  0  0  0  0  0  0  0  0  0  0  0
  -27.1569    6.1599   14.3902 H   0  0  0  0  0  0  0  0  0  0  0  0
  1  3  1  0
  1  5  1  0
  2  9  1  0
  2 16  1  0
  3 15  2  0
  3 16  1  0
  4 25  1  0
  4 26  1  0
  5 19  2  0
  5 35  1  0
  6 19  1  0
  6 21  1  0
  7  9  2  0
  7 13  1  0
  7 18  1  0
  8  9  1  0
  8 11  2  0
 10 14  1  0
 10 28  1  0
 10 29  1  0
 11 12  1  0
 12 13  2  0
 12 17  1  0
 14 32  2  0
 19 20  1  0
 20 33  2  0
 21 22  1  0
 22 23  1  0
 23 24  1  0
 24 25  1  0
 26 27  2  0
 26 30  1  0
 27 28  1  0
 28 31  2  0
 29 30  2  0
 31 32  1  0
 31 33  1  0
 33 34  1  0
 34 35  2  0
  1 36  1  0
  2 37  1  0
  2 38  1  0
  4 39  1  0
  8 40  1  0
 11 41  1  0
 13 42  1  0
 16 43  1  0
 18 44  1  0
 18 45  1  0
 18 46  1  0
 20 47  1  0
 21 48  1  0
 21 49  1  0
 22 50  1  0
 22 51  1  0
 24 52  1  0
 24 53  1  0
 25 54  1  0
 25 55  1  0
 29 56  1  0
 30 57  1  0
 32 58  1  0
 34 59  1  0
 35 60  1  0
M  END
>  <filename_input>  (9) 
7QGP_DJ8_docked.sdf

>  <pdb_id>  (9) 
7QGP_DJ8

>  <pose_rank>  (9) 
8

>  <num_atoms_heavy>  (9) 
35

>  <num_torsions>  (9) 
3

>  <pose>  (9) 
[-20.78210900887951, 1.5077691997442242, 11.065504500084918, 0.1492192560142901, 0.03635426779674775, -0.13544225013363237, -0.5914040078414252, -4.225136574946482, -0.11799917121639016]

>  <energy>  (9) 
-1402.3613733035083

>  <inter_energy>  (9) 
-1417.8960991100253

>  <intra_energy>  (9) 
0.9374416442921487

>  <rmsd>  (9) 
2.16289

>  <sdf_rank>  (9) 
0

$$$$

     RDKit          3D

 60 64  0  0  0  0  0  0  0  0999 V2000
  -26.1674    3.0324   13.5424 N   0  0  0  0  0  0  0  0  0  0  0  0
  -22.6088    2.2839   14.0215 C   0  0  0  0  0  0  0  0  0  0  0  0
  -24.8452    3.2990   13.7937 C   0  0  0  0  0  0  0  0  0  0  0  0
  -32.0267    6.3970    8.7530 N   0  0  0  0  0  0  0  0  0  0  0  0
  -27.1893    4.0191   13.5153 C   0  0  0  0  0  0  0  0  0  0  0  0
  -26.8445    4.1841   11.2056 O   0  0  0  0  0  0  0  0  0  0  0  0
  -20.4429    1.4961   12.9528 C   0  0  0  0  0  0  0  0  0  0  0  0
  -22.5529    0.7826   12.0139 C   0  0  0  0  0  0  0  0  0  0  0  0
  -21.8481    1.5073   12.9722 C   0  0  0  0  0  0  0  0  0  0  0  0
  -32.2862    7.7879   12.5182 N   0  0  0  0  0  0  0  0  0  0  0  0
  -21.8992    0.0593   11.0383 C   0  0  0  0  0  0  0  0  0  0  0  0
  -20.5256    0.0663   11.0165 C   0  0  0  0  0  0  0  0  0  0  0  0
  -19.7965    0.7613   11.9599 C   0  0  0  0  0  0  0  0  0  0  0  0
  -32.2192    8.0609   13.8664 N   0  0  0  0  0  0  0  0  0  0  0  0
  -24.3977    4.4382   13.8517 O   0  0  0  0  0  0  0  0  0  0  0  0
  -24.0560    2.1982   13.8663 N   0  0  0  0  0  0  0  0  0  0  0  0
  -19.6887   -0.7475    9.7226 Cl  0  0  0  0  0  0  0  0  0  0  0  0
  -19.6256    2.2537   13.9681 C   0  0  0  0  0  0  0  0  0  0  0  0
  -27.5999    4.5410   12.2863 C   0  0  0  0  0  0  0  0  0  0  0  0
  -28.6940    5.3817   12.2081 C   0  0  0  0  0  0  0  0  0  0  0  0
  -27.1850    4.7443    9.9178 C   0  0  0  0  0  0  0  0  0  0  0  0
  -28.4028    4.0655    9.3359 C   0  0  0  0  0  0  0  0  0  0  0  0
  -28.7878    4.7045    8.1155 O   0  0  0  0  0  0  0  0  0  0  0  0
  -29.6710    5.8378    8.2154 C   0  0  0  0  0  0  0  0  0  0  0  0
  -31.0928    5.3504    8.3472 C   0  0  0  0  0  0  0  0  0  0  0  0
  -32.1572    6.8617   10.0210 C   0  0  0  0  0  0  0  0  0  0  0  0
  -31.2891    6.3699   10.8987 N   0  0  0  0  0  0  0  0  0  0  0  0
  -31.3085    6.9305   12.1164 C   0  0  0  0  0  0  0  0  0  0  0  0
  -33.2145    8.2471   11.6367 C   0  0  0  0  0  0  0  0  0  0  0  0
  -33.1676    7.8109   10.3587 C   0  0  0  0  0  0  0  0  0  0  0  0
  -30.5668    6.6144   13.2648 C   0  0  0  0  0  0  0  0  0  0  0  0
  -31.1839    7.3494   14.2876 C   0  0  0  0  0  0  0  0  0  0  0  0
  -29.3931    5.7222   13.3594 C   0  0  0  0  0  0  0  0  0  0  0  0
  -28.9726    5.2203   14.5852 C   0  0  0  0  0  0  0  0  0  0  0  0
  -27.8763    4.3817   14.6691 C   0  0  0  0  0  0  0  0  0  0  0  0
  -26.4363    2.0547   13.3619 H   0  0  0  0  0  0  0  0  0  0  0  0
  -22.3399    1.8883   15.0121 H   0  0  0  0  0  0  0  0  0  0  0  0
  -22.3312    3.3423   13.9086 H   0  0  0  0  0  0  0  0  0  0  0  0
  -32.6279    6.8111    8.0264 H   0  0  0  0  0  0  0  0  0  0  0  0
  -23.6526    0.7872   12.0357 H   0  0  0  0  0  0  0  0  0  0  0  0
  -22.4678   -0.5131   10.2907 H   0  0  0  0  0  0  0  0  0  0  0  0
  -18.6972    0.7354   11.9281 H   0  0  0  0  0  0  0  0  0  0  0  0
  -24.4949    1.2681   13.8098 H   0  0  0  0  0  0  0  0  0  0  0  0
  -19.9391    1.9631   14.9817 H   0  0  0  0  0  0  0  0  0  0  0  0
  -18.5601    2.0167   13.8318 H   0  0  0  0  0  0  0  0  0  0  0  0
  -19.7813    3.3341   13.8318 H   0  0  0  0  0  0  0  0  0  0  0  0
  -29.0115    5.7815   11.2337 H   0  0  0  0  0  0  0  0  0  0  0  0
  -27.3941    5.8177   10.0366 H   0  0  0  0  0  0  0  0  0  0  0  0
  -26.3377    4.5895    9.2337 H   0  0  0  0  0  0  0  0  0  0  0  0
  -28.1693    3.0095    9.1352 H   0  0  0  0  0  0  0  0  0  0  0  0
  -29.2318    4.1363   10.0555 H   0  0  0  0  0  0  0  0  0  0  0  0
  -29.4038    6.4354    9.0993 H   0  0  0  0  0  0  0  0  0  0  0  0
  -29.5764    6.4599    7.3131 H   0  0  0  0  0  0  0  0  0  0  0  0
  -31.1186    4.5484    9.0996 H   0  0  0  0  0  0  0  0  0  0  0  0
  -31.4097    4.9978    7.3546 H   0  0  0  0  0  0  0  0  0  0  0  0
  -33.9884    8.9598   11.9578 H   0  0  0  0  0  0  0  0  0  0  0  0
  -33.8825    8.1744    9.6058 H   0  0  0  0  0  0  0  0  0  0  0  0
  -30.8429    7.3365   15.3333 H   0  0  0  0  0  0  0  0  0  0  0  0
  -29.5187    5.4936   15.5001 H   0  0  0  0  0  0  0  0  0  0  0  0
  -27.5478    4.0015   15.6477 H   0  0  0  0  0  0  0  0  0  0  0  0
  1  3  1  0
  1  5  1  0
  2  9  1  0
  2 16  1  0
  3 15  2  0
  3 16  1  0
  4 25  1  0
  4 26  1  0
  5 19  2  0
  5 35  1  0
  6 19  1  0
  6 21  1  0
  7  9  2  0
  7 13  1  0
  7 18  1  0
  8  9  1  0
  8 11  2  0
 10 14  1  0
 10 28  1  0
 10 29  1  0
 11 12  1  0
 12 13  2  0
 12 17  1  0
 14 32  2  0
 19 20  1  0
 20 33  2  0
 21 22  1  0
 22 23  1  0
 23 24  1  0
 24 25  1  0
 26 27  2  0
 26 30  1  0
 27 28  1  0
 28 31  2  0
 29 30  2  0
 31 32  1  0
 31 33  1  0
 33 34  1  0
 34 35  2  0
  1 36  1  0
  2 37  1  0
  2 38  1  0
  4 39  1  0
  8 40  1  0
 11 41  1  0
 13 42  1  0
 16 43  1  0
 18 44  1  0
 18 45  1  0
 18 46  1  0
 20 47  1  0
 21 48  1  0
 21 49  1  0
 22 50  1  0
 22 51  1  0
 24 52  1  0
 24 53  1  0
 25 54  1  0
 25 55  1  0
 29 56  1  0
 30 57  1  0
 32 58  1  0
 34 59  1  0
 35 60  1  0
M  END
>  <filename_input>  (10) 
7QGP_DJ8_docked.sdf

>  <pdb_id>  (10) 
7QGP_DJ8

>  <pose_rank>  (10) 
9

>  <num_atoms_heavy>  (10) 
35

>  <num_torsions>  (10) 
3

>  <pose>  (10) 
[-32.02668365723633, 6.397008333408329, 8.753041869742368, -0.4697393224198664, 0.9857656904267807, 2.658633944931871, -0.736768053794458, 1.7528801430608805, -1.63353635049066]

>  <energy>  (10) 
-776.2361505616905

>  <inter_energy>  (10) 
-754.1645121657924

>  <intra_energy>  (10) 
1.4032301371367406

>  <rmsd>  (10) 
10.1571

>  <sdf_rank>  (10) 
0

$$$$

     RDKit          3D

 60 64  0  0  0  0  0  0  0  0999 V2000
  -25.5098    3.6026   12.5876 N   0  0  0  0  0  0  0  0  0  0  0  0
  -22.8897    1.1579   13.3696 C   0  0  0  0  0  0  0  0  0  0  0  0
  -24.9089    2.5702   13.2626 C   0  0  0  0  0  0  0  0  0  0  0  0
  -33.2562    4.3600    9.7578 N   0  0  0  0  0  0  0  0  0  0  0  0
  -26.7929    4.1237   12.9047 C   0  0  0  0  0  0  0  0  0  0  0  0
  -27.1695    4.3520   10.6053 O   0  0  0  0  0  0  0  0  0  0  0  0
  -20.6737    0.9841   12.1393 C   0  0  0  0  0  0  0  0  0  0  0  0
  -20.7701    2.1768   14.2395 C   0  0  0  0  0  0  0  0  0  0  0  0
  -21.4108    1.4413   13.2451 C   0  0  0  0  0  0  0  0  0  0  0  0
  -32.9939    5.6372   13.5628 N   0  0  0  0  0  0  0  0  0  0  0  0
  -19.4221    2.4591   14.1661 C   0  0  0  0  0  0  0  0  0  0  0  0
  -18.7053    1.9951   13.0898 C   0  0  0  0  0  0  0  0  0  0  0  0
  -19.3119    1.2765   12.0798 C   0  0  0  0  0  0  0  0  0  0  0  0
  -32.6739    5.9476   14.8658 N   0  0  0  0  0  0  0  0  0  0  0  0
  -25.3540    2.1141   14.3092 O   0  0  0  0  0  0  0  0  0  0  0  0
  -23.7262    2.1685   12.7337 N   0  0  0  0  0  0  0  0  0  0  0  0
  -16.9813    2.2447   13.0412 Cl  0  0  0  0  0  0  0  0  0  0  0  0
  -21.3132    0.1911   11.0279 C   0  0  0  0  0  0  0  0  0  0  0  0
  -27.6829    4.4196   11.8694 C   0  0  0  0  0  0  0  0  0  0  0  0
  -28.9893    4.7770   12.1440 C   0  0  0  0  0  0  0  0  0  0  0  0
  -28.0273    4.7085    9.4986 C   0  0  0  0  0  0  0  0  0  0  0  0
  -29.0113    3.6026    9.1967 C   0  0  0  0  0  0  0  0  0  0  0  0
  -29.9200    4.0166    8.1726 O   0  0  0  0  0  0  0  0  0  0  0  0
  -31.1006    4.7292    8.5881 C   0  0  0  0  0  0  0  0  0  0  0  0
  -32.1452    3.7395    9.0416 C   0  0  0  0  0  0  0  0  0  0  0  0
  -33.2048    4.7702   11.0499 C   0  0  0  0  0  0  0  0  0  0  0  0
  -32.0144    4.6682   11.6317 N   0  0  0  0  0  0  0  0  0  0  0  0
  -31.9137    5.2083   12.8546 C   0  0  0  0  0  0  0  0  0  0  0  0
  -34.2266    5.6860   12.9903 C   0  0  0  0  0  0  0  0  0  0  0  0
  -34.3656    5.2699   11.7123 C   0  0  0  0  0  0  0  0  0  0  0  0
  -30.8284    5.2269   13.7437 C   0  0  0  0  0  0  0  0  0  0  0  0
  -31.3758    5.6954   14.9471 C   0  0  0  0  0  0  0  0  0  0  0  0
  -29.4275    4.8527   13.4602 C   0  0  0  0  0  0  0  0  0  0  0  0
  -28.5372    4.5790   14.4915 C   0  0  0  0  0  0  0  0  0  0  0  0
  -27.2280    4.2244   14.2220 C   0  0  0  0  0  0  0  0  0  0  0  0
  -24.9980    4.0269   11.8009 H   0  0  0  0  0  0  0  0  0  0  0  0
  -23.0995    0.1853   12.9004 H   0  0  0  0  0  0  0  0  0  0  0  0
  -23.1329    1.1616   14.4424 H   0  0  0  0  0  0  0  0  0  0  0  0
  -34.1401    4.4957    9.2465 H   0  0  0  0  0  0  0  0  0  0  0  0
  -21.3507    2.5396   15.1004 H   0  0  0  0  0  0  0  0  0  0  0  0
  -18.9294    3.0456   14.9555 H   0  0  0  0  0  0  0  0  0  0  0  0
  -18.7165    0.9319   11.2214 H   0  0  0  0  0  0  0  0  0  0  0  0
  -23.4076    2.5928   11.8508 H   0  0  0  0  0  0  0  0  0  0  0  0
  -21.9486   -0.5969   11.4584 H   0  0  0  0  0  0  0  0  0  0  0  0
  -21.9279    0.8595   10.4072 H   0  0  0  0  0  0  0  0  0  0  0  0
  -20.5296   -0.2680   10.4072 H   0  0  0  0  0  0  0  0  0  0  0  0
  -29.6825    5.0018   11.3200 H   0  0  0  0  0  0  0  0  0  0  0  0
  -28.5820    5.6234    9.7539 H   0  0  0  0  0  0  0  0  0  0  0  0
  -27.4012    4.8723    8.6091 H   0  0  0  0  0  0  0  0  0  0  0  0
  -28.4633    2.7111    8.8576 H   0  0  0  0  0  0  0  0  0  0  0  0
  -29.5802    3.3690   10.1087 H   0  0  0  0  0  0  0  0  0  0  0  0
  -30.8490    5.4047    9.4190 H   0  0  0  0  0  0  0  0  0  0  0  0
  -31.4917    5.3183    7.7455 H   0  0  0  0  0  0  0  0  0  0  0  0
  -31.6662    3.0068    9.7076 H   0  0  0  0  0  0  0  0  0  0  0  0
  -32.5617    3.2687    8.1389 H   0  0  0  0  0  0  0  0  0  0  0  0
  -35.0936    6.0570   13.5566 H   0  0  0  0  0  0  0  0  0  0  0  0
  -35.3385    5.3148   11.2010 H   0  0  0  0  0  0  0  0  0  0  0  0
  -30.7870    5.8389   15.8652 H   0  0  0  0  0  0  0  0  0  0  0  0
  -28.8781    4.6453   15.5353 H   0  0  0  0  0  0  0  0  0  0  0  0
  -26.5312    4.0222   15.0488 H   0  0  0  0  0  0  0  0  0  0  0  0
  1  3  1  0
  1  5  1  0
  2  9  1  0
  2 16  1  0
  3 15  2  0
  3 16  1  0
  4 25  1  0
  4 26  1  0
  5 19  2  0
  5 35  1  0
  6 19  1  0
  6 21  1  0
  7  9  2  0
  7 13  1  0
  7 18  1  0
  8  9  1  0
  8 11  2  0
 10 14  1  0
 10 28  1  0
 10 29  1  0
 11 12  1  0
 12 13  2  0
 12 17  1  0
 14 32  2  0
 19 20  1  0
 20 33  2  0
 21 22  1  0
 22 23  1  0
 23 24  1  0
 24 25  1  0
 26 27  2  0
 26 30  1  0
 27 28  1  0
 28 31  2  0
 29 30  2  0
 31 32  1  0
 31 33  1  0
 33 34  1  0
 34 35  2  0
  1 36  1  0
  2 37  1  0
  2 38  1  0
  4 39  1  0
  8 40  1  0
 11 41  1  0
 13 42  1  0
 16 43  1  0
 18 44  1  0
 18 45  1  0
 18 46  1  0
 20 47  1  0
 21 48  1  0
 21 49  1  0
 22 50  1  0
 22 51  1  0
 24 52  1  0
 24 53  1  0
 25 54  1  0
 25 55  1  0
 29 56  1  0
 30 57  1  0
 32 58  1  0
 34 59  1  0
 35 60  1  0
M  END
>  <filename_input>  (11) 
7QGP_DJ8_docked.sdf

>  <pdb_id>  (11) 
7QGP_DJ8

>  <pose_rank>  (11) 
10

>  <num_atoms_heavy>  (11) 
35

>  <num_torsions>  (11) 
3

>  <pose>  (11) 
[-33.25623375913068, 4.360040032287551, 9.75776473818915, -0.32496649470099387, 1.01337686143557, 3.15170256157467, -4.836253205949229, 1.4671926120341798, -0.01591999987943005]

>  <energy>  (11) 
-774.9162937882799

>  <inter_energy>  (11) 
-772.6851329435831

>  <intra_energy>  (11) 
18.705769732634682

>  <rmsd>  (11) 
10.3932

>  <sdf_rank>  (11) 
0

$$$$

     RDKit          3D

 60 64  0  0  0  0  0  0  0  0999 V2000
  -25.7965    4.6036   12.9364 N   0  0  0  0  0  0  0  0  0  0  0  0
  -23.4631    2.0606   14.1779 C   0  0  0  0  0  0  0  0  0  0  0  0
  -25.2786    3.3452   13.1116 C   0  0  0  0  0  0  0  0  0  0  0  0
  -34.0340    5.3379   13.3761 N   0  0  0  0  0  0  0  0  0  0  0  0
  -26.9576    4.8891   12.1691 C   0  0  0  0  0  0  0  0  0  0  0  0
  -28.1631    3.5435   13.6581 O   0  0  0  0  0  0  0  0  0  0  0  0
  -21.0855    2.9031   14.4805 C   0  0  0  0  0  0  0  0  0  0  0  0
  -21.5153    1.1121   12.9152 C   0  0  0  0  0  0  0  0  0  0  0  0
  -21.9883    2.0295   13.8506 C   0  0  0  0  0  0  0  0  0  0  0  0
  -32.6868    6.4971    9.7678 N   0  0  0  0  0  0  0  0  0  0  0  0
  -20.1773    1.0487   12.5867 C   0  0  0  0  0  0  0  0  0  0  0  0
  -19.3035    1.9168   13.1952 C   0  0  0  0  0  0  0  0  0  0  0  0
  -19.7364    2.8277   14.1372 C   0  0  0  0  0  0  0  0  0  0  0  0
  -31.9906    6.8999    8.6499 N   0  0  0  0  0  0  0  0  0  0  0  0
  -25.8684    2.3305   12.7596 O   0  0  0  0  0  0  0  0  0  0  0  0
  -24.1112    3.3111   13.8014 N   0  0  0  0  0  0  0  0  0  0  0  0
  -17.6309    1.9264   12.7060 Cl  0  0  0  0  0  0  0  0  0  0  0  0
  -21.5363    3.9113   15.5068 C   0  0  0  0  0  0  0  0  0  0  0  0
  -28.1965    4.4136   12.6055 C   0  0  0  0  0  0  0  0  0  0  0  0
  -29.3626    4.8024   11.9739 C   0  0  0  0  0  0  0  0  0  0  0  0
  -29.4096    2.9707   14.1119 C   0  0  0  0  0  0  0  0  0  0  0  0
  -30.2048    3.9711   14.9178 C   0  0  0  0  0  0  0  0  0  0  0  0
  -31.4795    3.4231   15.2652 O   0  0  0  0  0  0  0  0  0  0  0  0
  -32.5486    3.5875   14.3143 C   0  0  0  0  0  0  0  0  0  0  0  0
  -33.1531    4.9601   14.4777 C   0  0  0  0  0  0  0  0  0  0  0  0
  -33.6065    5.7629   12.1607 C   0  0  0  0  0  0  0  0  0  0  0  0
  -32.2911    5.7239   11.9753 N   0  0  0  0  0  0  0  0  0  0  0  0
  -31.8680    5.9961   10.7326 C   0  0  0  0  0  0  0  0  0  0  0  0
  -34.0273    6.5959    9.9751 C   0  0  0  0  0  0  0  0  0  0  0  0
  -34.5288    6.2163   11.1710 C   0  0  0  0  0  0  0  0  0  0  0  0
  -30.5628    6.0856   10.2256 C   0  0  0  0  0  0  0  0  0  0  0  0
  -30.7258    6.6421    8.9485 C   0  0  0  0  0  0  0  0  0  0  0  0
  -29.3102    5.6683   10.8888 C   0  0  0  0  0  0  0  0  0  0  0  0
  -28.0767    6.1253   10.4407 C   0  0  0  0  0  0  0  0  0  0  0  0
  -26.9068    5.7363   11.0671 C   0  0  0  0  0  0  0  0  0  0  0  0
  -25.3126    5.3916   13.3901 H   0  0  0  0  0  0  0  0  0  0  0  0
  -23.9570    1.2364   13.6424 H   0  0  0  0  0  0  0  0  0  0  0  0
  -23.5567    1.9608   15.2693 H   0  0  0  0  0  0  0  0  0  0  0  0
  -35.0503    5.2777   13.5326 H   0  0  0  0  0  0  0  0  0  0  0  0
  -22.2230    0.4246   12.4288 H   0  0  0  0  0  0  0  0  0  0  0  0
  -19.8161    0.3158   11.8502 H   0  0  0  0  0  0  0  0  0  0  0  0
  -19.0117    3.4993   14.6207 H   0  0  0  0  0  0  0  0  0  0  0  0
  -23.6665    4.2008   14.0689 H   0  0  0  0  0  0  0  0  0  0  0  0
  -21.3578    3.5121   16.5161 H   0  0  0  0  0  0  0  0  0  0  0  0
  -20.9701    4.8454   15.3765 H   0  0  0  0  0  0  0  0  0  0  0  0
  -22.6100    4.1121   15.3765 H   0  0  0  0  0  0  0  0  0  0  0  0
  -30.3327    4.4260   12.3306 H   0  0  0  0  0  0  0  0  0  0  0  0
  -30.0020    2.6606   13.2384 H   0  0  0  0  0  0  0  0  0  0  0  0
  -29.1844    2.1053   14.7525 H   0  0  0  0  0  0  0  0  0  0  0  0
  -29.6529    4.2186   15.8366 H   0  0  0  0  0  0  0  0  0  0  0  0
  -30.3562    4.8787   14.3150 H   0  0  0  0  0  0  0  0  0  0  0  0
  -32.1528    3.4791   13.2937 H   0  0  0  0  0  0  0  0  0  0  0  0
  -33.3189    2.8219   14.4892 H   0  0  0  0  0  0  0  0  0  0  0  0
  -32.3375    5.6956   14.5406 H   0  0  0  0  0  0  0  0  0  0  0  0
  -33.7646    4.9402   15.3918 H   0  0  0  0  0  0  0  0  0  0  0  0
  -34.6904    6.9774    9.1846 H   0  0  0  0  0  0  0  0  0  0  0  0
  -35.6092    6.2555   11.3743 H   0  0  0  0  0  0  0  0  0  0  0  0
  -29.8885    6.8441    8.2643 H   0  0  0  0  0  0  0  0  0  0  0  0
  -28.0303    6.8050    9.5771 H   0  0  0  0  0  0  0  0  0  0  0  0
  -25.9367    6.0966   10.6941 H   0  0  0  0  0  0  0  0  0  0  0  0
  1  3  1  0
  1  5  1  0
  2  9  1  0
  2 16  1  0
  3 15  2  0
  3 16  1  0
  4 25  1  0
  4 26  1  0
  5 19  2  0
  5 35  1  0
  6 19  1  0
  6 21  1  0
  7  9  2  0
  7 13  1  0
  7 18  1  0
  8  9  1  0
  8 11  2  0
 10 14  1  0
 10 28  1  0
 10 29  1  0
 11 12  1  0
 12 13  2  0
 12 17  1  0
 14 32  2  0
 19 20  1  0
 20 33  2  0
 21 22  1  0
 22 23  1  0
 23 24  1  0
 24 25  1  0
 26 27  2  0
 26 30  1  0
 27 28  1  0
 28 31  2  0
 29 30  2  0
 31 32  1  0
 31 33  1  0
 33 34  1  0
 34 35  2  0
  1 36  1  0
  2 37  1  0
  2 38  1  0
  4 39  1  0
  8 40  1  0
 11 41  1  0
 13 42  1  0
 16 43  1  0
 18 44  1  0
 18 45  1  0
 18 46  1  0
 20 47  1  0
 21 48  1  0
 21 49  1  0
 22 50  1  0
 22 51  1  0
 24 52  1  0
 24 53  1  0
 25 54  1  0
 25 55  1  0
 29 56  1  0
 30 57  1  0
 32 58  1  0
 34 59  1  0
 35 60  1  0
M  END
>  <filename_input>  (12) 
7QGP_DJ8_docked.sdf

>  <pdb_id>  (12) 
7QGP_DJ8

>  <pose_rank>  (12) 
11

>  <num_atoms_heavy>  (12) 
35

>  <num_torsions>  (12) 
3

>  <pose>  (12) 
[-34.03400136359491, 5.337948478690126, 13.37606776077155, 0.7710224180530779, 3.1168041213790527, 0.21077511977865698, -1.2879176072309162, -0.01987237277620968, 2.6561805273158785]

>  <energy>  (12) 
-640.370435190585

>  <inter_energy>  (12) 
-691.4435342717354

>  <intra_energy>  (12) 
41.66891138360522

>  <rmsd>  (12) 
10.7619

>  <sdf_rank>  (12) 
0

$$$$

     RDKit          3D

 60 64  0  0  0  0  0  0  0  0999 V2000
  -22.8355   -0.2191    8.8243 N   0  0  0  0  0  0  0  0  0  0  0  0
  -21.6017   -0.8454    5.4274 C   0  0  0  0  0  0  0  0  0  0  0  0
  -22.0793   -0.0105    7.6987 C   0  0  0  0  0  0  0  0  0  0  0  0
  -27.4044    4.1132   14.2045 N   0  0  0  0  0  0  0  0  0  0  0  0
  -22.7622    0.5829    9.9948 C   0  0  0  0  0  0  0  0  0  0  0  0
  -24.6929    1.6810    9.2548 O   0  0  0  0  0  0  0  0  0  0  0  0
  -23.0960   -2.0793    3.7846 C   0  0  0  0  0  0  0  0  0  0  0  0
  -20.9692   -3.0460    4.4050 C   0  0  0  0  0  0  0  0  0  0  0  0
  -21.9003   -2.0163    4.5204 C   0  0  0  0  0  0  0  0  0  0  0  0
  -23.5855    3.8705   15.4436 N   0  0  0  0  0  0  0  0  0  0  0  0
  -21.2004   -4.1332    3.5885 C   0  0  0  0  0  0  0  0  0  0  0  0
  -22.3786   -4.1950    2.8848 C   0  0  0  0  0  0  0  0  0  0  0  0
  -23.3158   -3.1851    2.9645 C   0  0  0  0  0  0  0  0  0  0  0  0
  -22.2587    3.5953   15.6896 N   0  0  0  0  0  0  0  0  0  0  0  0
  -21.3912    0.9906    7.5381 O   0  0  0  0  0  0  0  0  0  0  0  0
  -22.2393   -0.9509    6.7343 N   0  0  0  0  0  0  0  0  0  0  0  0
  -22.7347   -5.6154    1.9402 Cl  0  0  0  0  0  0  0  0  0  0  0  0
  -24.1374   -0.9920    3.8616 C   0  0  0  0  0  0  0  0  0  0  0  0
  -23.7829    1.4998   10.2573 C   0  0  0  0  0  0  0  0  0  0  0  0
  -23.8261    2.1809   11.4590 C   0  0  0  0  0  0  0  0  0  0  0  0
  -25.7350    2.6635    9.4461 C   0  0  0  0  0  0  0  0  0  0  0  0
  -26.8075    2.1431   10.3743 C   0  0  0  0  0  0  0  0  0  0  0  0
  -27.7719    3.1663   10.6366 O   0  0  0  0  0  0  0  0  0  0  0  0
  -27.4971    4.0668   11.7265 C   0  0  0  0  0  0  0  0  0  0  0  0
  -27.9104    3.4178   13.0243 C   0  0  0  0  0  0  0  0  0  0  0  0
  -26.1305    4.0234   14.6626 C   0  0  0  0  0  0  0  0  0  0  0  0
  -25.3000    3.3214   13.8988 N   0  0  0  0  0  0  0  0  0  0  0  0
  -24.0090    3.3510   14.2591 C   0  0  0  0  0  0  0  0  0  0  0  0
  -24.4462    4.5379   16.2582 C   0  0  0  0  0  0  0  0  0  0  0  0
  -25.7399    4.6486   15.8842 C   0  0  0  0  0  0  0  0  0  0  0  0
  -22.9039    2.6890   13.7029 C   0  0  0  0  0  0  0  0  0  0  0  0
  -21.8755    2.8907   14.6351 C   0  0  0  0  0  0  0  0  0  0  0  0
  -22.8444    1.9630   12.4176 C   0  0  0  0  0  0  0  0  0  0  0  0
  -21.8170    1.0666   12.1489 C   0  0  0  0  0  0  0  0  0  0  0  0
  -21.7673    0.3853   10.9466 C   0  0  0  0  0  0  0  0  0  0  0  0
  -23.4985   -1.0073    8.8205 H   0  0  0  0  0  0  0  0  0  0  0  0
  -20.5131   -0.7859    5.5739 H   0  0  0  0  0  0  0  0  0  0  0  0
  -22.0043    0.0549    4.9403 H   0  0  0  0  0  0  0  0  0  0  0  0
  -28.0599    4.7133   14.7251 H   0  0  0  0  0  0  0  0  0  0  0  0
  -20.0309   -2.9908    4.9765 H   0  0  0  0  0  0  0  0  0  0  0  0
  -20.4543   -4.9369    3.5023 H   0  0  0  0  0  0  0  0  0  0  0  0
  -24.2431   -3.2531    2.3767 H   0  0  0  0  0  0  0  0  0  0  0  0
  -22.8327   -1.7692    6.9326 H   0  0  0  0  0  0  0  0  0  0  0  0
  -24.3541   -0.7657    4.9160 H   0  0  0  0  0  0  0  0  0  0  0  0
  -23.7604   -0.0871    3.3624 H   0  0  0  0  0  0  0  0  0  0  0  0
  -25.0577   -1.3296    3.3624 H   0  0  0  0  0  0  0  0  0  0  0  0
  -24.6383    2.8960   11.6567 H   0  0  0  0  0  0  0  0  0  0  0  0
  -25.2955    3.5741    9.8794 H   0  0  0  0  0  0  0  0  0  0  0  0
  -26.1929    2.8827    8.4703 H   0  0  0  0  0  0  0  0  0  0  0  0
  -27.3082    1.2833    9.9052 H   0  0  0  0  0  0  0  0  0  0  0  0
  -26.3433    1.8353   11.3228 H   0  0  0  0  0  0  0  0  0  0  0  0
  -26.4209    4.2924   11.7547 H   0  0  0  0  0  0  0  0  0  0  0  0
  -28.0612    5.0005   11.5849 H   0  0  0  0  0  0  0  0  0  0  0  0
  -27.5283    2.3864   13.0361 H   0  0  0  0  0  0  0  0  0  0  0  0
  -29.0089    3.4534   13.0711 H   0  0  0  0  0  0  0  0  0  0  0  0
  -24.0960    4.9790   17.2031 H   0  0  0  0  0  0  0  0  0  0  0  0
  -26.4657    5.2007   16.4993 H   0  0  0  0  0  0  0  0  0  0  0  0
  -20.8544    2.5031   14.5039 H   0  0  0  0  0  0  0  0  0  0  0  0
  -21.0335    0.8969   12.9021 H   0  0  0  0  0  0  0  0  0  0  0  0
  -20.9416   -0.3123   10.7429 H   0  0  0  0  0  0  0  0  0  0  0  0
  1  3  1  0
  1  5  1  0
  2  9  1  0
  2 16  1  0
  3 15  2  0
  3 16  1  0
  4 25  1  0
  4 26  1  0
  5 19  2  0
  5 35  1  0
  6 19  1  0
  6 21  1  0
  7  9  2  0
  7 13  1  0
  7 18  1  0
  8  9  1  0
  8 11  2  0
 10 14  1  0
 10 28  1  0
 10 29  1  0
 11 12  1  0
 12 13  2  0
 12 17  1  0
 14 32  2  0
 19 20  1  0
 20 33  2  0
 21 22  1  0
 22 23  1  0
 23 24  1  0
 24 25  1  0
 26 27  2  0
 26 30  1  0
 27 28  1  0
 28 31  2  0
 29 30  2  0
 31 32  1  0
 31 33  1  0
 33 34  1  0
 34 35  2  0
  1 36  1  0
  2 37  1  0
  2 38  1  0
  4 39  1  0
  8 40  1  0
 11 41  1  0
 13 42  1  0
 16 43  1  0
 18 44  1  0
 18 45  1  0
 18 46  1  0
 20 47  1  0
 21 48  1  0
 21 49  1  0
 22 50  1  0
 22 51  1  0
 24 52  1  0
 24 53  1  0
 25 54  1  0
 25 55  1  0
 29 56  1  0
 30 57  1  0
 32 58  1  0
 34 59  1  0
 35 60  1  0
M  END
>  <filename_input>  (13) 
7QGP_DJ8_docked.sdf

>  <pdb_id>  (13) 
7QGP_DJ8

>  <pose_rank>  (13) 
12

>  <num_atoms_heavy>  (13) 
35

>  <num_torsions>  (13) 
3

>  <pose>  (13) 
[-27.404367379038035, 4.113196499651296, 14.204473043913659, 1.5218140280821868, 0.5609990595837084, 2.6846713819321417, -0.6163678413832717, 0.8018535921742508, 2.957317919012856]

>  <energy>  (13) 
-564.7239978908235

>  <inter_energy>  (13) 
-579.9817550750333

>  <intra_energy>  (13) 
2.819060972079524

>  <rmsd>  (13) 
9.77073

>  <sdf_rank>  (13) 
0

$$$$

     RDKit          3D

 60 64  0  0  0  0  0  0  0  0999 V2000
  -25.7900    0.3706    8.6921 N   0  0  0  0  0  0  0  0  0  0  0  0
  -26.6173   -1.2771    5.5212 C   0  0  0  0  0  0  0  0  0  0  0  0
  -25.5486   -0.2681    7.5020 C   0  0  0  0  0  0  0  0  0  0  0  0
  -24.4948    4.1356   15.9541 N   0  0  0  0  0  0  0  0  0  0  0  0
  -24.7742    0.7999    9.5878 C   0  0  0  0  0  0  0  0  0  0  0  0
  -26.2364    2.4855   10.2962 O   0  0  0  0  0  0  0  0  0  0  0  0
  -28.1964   -1.1703    3.5340 C   0  0  0  0  0  0  0  0  0  0  0  0
  -29.0396   -1.9064    5.6764 C   0  0  0  0  0  0  0  0  0  0  0  0
  -27.9808   -1.4509    4.8941 C   0  0  0  0  0  0  0  0  0  0  0  0
  -21.0563    2.6637   14.4745 N   0  0  0  0  0  0  0  0  0  0  0  0
  -30.3005   -2.0799    5.1452 C   0  0  0  0  0  0  0  0  0  0  0  0
  -30.5067   -1.7884    3.8186 C   0  0  0  0  0  0  0  0  0  0  0  0
  -29.4766   -1.3496    3.0118 C   0  0  0  0  0  0  0  0  0  0  0  0
  -20.0360    2.0217   13.8087 N   0  0  0  0  0  0  0  0  0  0  0  0
  -24.4258   -0.3764    7.0234 O   0  0  0  0  0  0  0  0  0  0  0  0
  -26.6652   -0.6751    6.8483 N   0  0  0  0  0  0  0  0  0  0  0  0
  -32.1179   -1.8923    3.1627 Cl  0  0  0  0  0  0  0  0  0  0  0  0
  -27.0884   -0.6829    2.6353 C   0  0  0  0  0  0  0  0  0  0  0  0
  -25.0490    1.8365   10.4831 C   0  0  0  0  0  0  0  0  0  0  0  0
  -24.1429    2.1730   11.4708 C   0  0  0  0  0  0  0  0  0  0  0  0
  -26.5452    3.6071   11.1534 C   0  0  0  0  0  0  0  0  0  0  0  0
  -26.9753    3.1399   12.5242 C   0  0  0  0  0  0  0  0  0  0  0  0
  -27.1715    4.2622   13.3889 O   0  0  0  0  0  0  0  0  0  0  0  0
  -26.0201    4.7558   14.0994 C   0  0  0  0  0  0  0  0  0  0  0  0
  -25.7965    3.9132   15.3308 C   0  0  0  0  0  0  0  0  0  0  0  0
  -23.3249    3.6249   15.4946 C   0  0  0  0  0  0  0  0  0  0  0  0
  -23.4058    2.9649   14.3440 N   0  0  0  0  0  0  0  0  0  0  0  0
  -22.2383    2.5869   13.8041 C   0  0  0  0  0  0  0  0  0  0  0  0
  -20.9803    3.2854   15.6817 C   0  0  0  0  0  0  0  0  0  0  0  0
  -22.1084    3.7988   16.2197 C   0  0  0  0  0  0  0  0  0  0  0  0
  -21.9829    1.8443   12.6413 C   0  0  0  0  0  0  0  0  0  0  0  0
  -20.6152    1.5428   12.7175 C   0  0  0  0  0  0  0  0  0  0  0  0
  -22.9414    1.4835   11.5765 C   0  0  0  0  0  0  0  0  0  0  0  0
  -22.6580    0.4661   10.6732 C   0  0  0  0  0  0  0  0  0  0  0  0
  -23.5598    0.1281    9.6808 C   0  0  0  0  0  0  0  0  0  0  0  0
  -26.7702    0.5502    8.9527 H   0  0  0  0  0  0  0  0  0  0  0  0
  -26.1421   -2.2658    5.6034 H   0  0  0  0  0  0  0  0  0  0  0  0
  -26.0458   -0.5950    4.8746 H   0  0  0  0  0  0  0  0  0  0  0  0
  -24.4626    4.7208   16.8011 H   0  0  0  0  0  0  0  0  0  0  0  0
  -28.8666   -2.1321    6.7390 H   0  0  0  0  0  0  0  0  0  0  0  0
  -31.1266   -2.4454    5.7728 H   0  0  0  0  0  0  0  0  0  0  0  0
  -29.6670   -1.1398    1.9489 H   0  0  0  0  0  0  0  0  0  0  0  0
  -27.5801   -0.5545    7.3059 H   0  0  0  0  0  0  0  0  0  0  0  0
  -26.2531   -0.3154    3.2495 H   0  0  0  0  0  0  0  0  0  0  0  0
  -26.7402   -1.5109    2.0004 H   0  0  0  0  0  0  0  0  0  0  0  0
  -27.4635    0.1333    2.0004 H   0  0  0  0  0  0  0  0  0  0  0  0
  -24.3732    2.9871   12.1738 H   0  0  0  0  0  0  0  0  0  0  0  0
  -25.6512    4.2401   11.2534 H   0  0  0  0  0  0  0  0  0  0  0  0
  -27.3719    4.1753   10.7020 H   0  0  0  0  0  0  0  0  0  0  0  0
  -27.9173    2.5784   12.4380 H   0  0  0  0  0  0  0  0  0  0  0  0
  -26.1909    2.4942   12.9461 H   0  0  0  0  0  0  0  0  0  0  0  0
  -25.1347    4.6990   13.4492 H   0  0  0  0  0  0  0  0  0  0  0  0
  -26.1889    5.8021   14.3940 H   0  0  0  0  0  0  0  0  0  0  0  0
  -25.8710    2.8531   15.0467 H   0  0  0  0  0  0  0  0  0  0  0  0
  -26.5630    4.2002   16.0657 H   0  0  0  0  0  0  0  0  0  0  0  0
  -20.0190    3.3687   16.2100 H   0  0  0  0  0  0  0  0  0  0  0  0
  -22.0897    4.3316   17.1818 H   0  0  0  0  0  0  0  0  0  0  0  0
  -20.0780    0.9672   11.9494 H   0  0  0  0  0  0  0  0  0  0  0  0
  -21.7045   -0.0771   10.7486 H   0  0  0  0  0  0  0  0  0  0  0  0
  -23.3169   -0.6714    8.9655 H   0  0  0  0  0  0  0  0  0  0  0  0
  1  3  1  0
  1  5  1  0
  2  9  1  0
  2 16  1  0
  3 15  2  0
  3 16  1  0
  4 25  1  0
  4 26  1  0
  5 19  2  0
  5 35  1  0
  6 19  1  0
  6 21  1  0
  7  9  2  0
  7 13  1  0
  7 18  1  0
  8  9  1  0
  8 11  2  0
 10 14  1  0
 10 28  1  0
 10 29  1  0
 11 12  1  0
 12 13  2  0
 12 17  1  0
 14 32  2  0
 19 20  1  0
 20 33  2  0
 21 22  1  0
 22 23  1  0
 23 24  1  0
 24 25  1  0
 26 27  2  0
 26 30  1  0
 27 28  1  0
 28 31  2  0
 29 30  2  0
 31 32  1  0
 31 33  1  0
 33 34  1  0
 34 35  2  0
  1 36  1  0
  2 37  1  0
  2 38  1  0
  4 39  1  0
  8 40  1  0
 11 41  1  0
 13 42  1  0
 16 43  1  0
 18 44  1  0
 18 45  1  0
 18 46  1  0
 20 47  1  0
 21 48  1  0
 21 49  1  0
 22 50  1  0
 22 51  1  0
 24 52  1  0
 24 53  1  0
 25 54  1  0
 25 55  1  0
 29 56  1  0
 30 57  1  0
 32 58  1  0
 34 59  1  0
 35 60  1  0
M  END
>  <filename_input>  (14) 
7QGP_DJ8_docked.sdf

>  <pdb_id>  (14) 
7QGP_DJ8

>  <pose_rank>  (14) 
13

>  <num_atoms_heavy>  (14) 
35

>  <num_torsions>  (14) 
3

>  <pose>  (14) 
[-24.494778943922686, 4.135631517055437, 15.95405400562589, 2.3263401322175152, 0.055498493761979975, 1.988849713789872, 0.2864350562551395, 0.979184558458347, -2.3380864476305323]

>  <energy>  (14) 
-722.3131753604567

>  <inter_energy>  (14) 
-687.8312518942502

>  <intra_energy>  (14) 
17.31882101070895

>  <rmsd>  (14) 
7.47697

>  <sdf_rank>  (14) 
0

$$$$

     RDKit          3D

 60 64  0  0  0  0  0  0  0  0999 V2000
  -26.0779    3.7952   12.6554 N   0  0  0  0  0  0  0  0  0  0  0  0
  -22.8150    2.3370   13.4801 C   0  0  0  0  0  0  0  0  0  0  0  0
  -25.1552    3.1127   13.4072 C   0  0  0  0  0  0  0  0  0  0  0  0
  -33.4609    6.3731    9.9286 N   0  0  0  0  0  0  0  0  0  0  0  0
  -27.4267    4.0083   13.0478 C   0  0  0  0  0  0  0  0  0  0  0  0
  -27.5392    5.6908   11.4237 O   0  0  0  0  0  0  0  0  0  0  0  0
  -20.5169    1.4354   12.8798 C   0  0  0  0  0  0  0  0  0  0  0  0
  -22.3430    1.1507   11.3219 C   0  0  0  0  0  0  0  0  0  0  0  0
  -21.8671    1.6286   12.5407 C   0  0  0  0  0  0  0  0  0  0  0  0
  -33.7608    4.8486   13.6387 N   0  0  0  0  0  0  0  0  0  0  0  0
  -21.5131    0.4980   10.4346 C   0  0  0  0  0  0  0  0  0  0  0  0
  -20.1910    0.3271   10.7665 C   0  0  0  0  0  0  0  0  0  0  0  0
  -19.6903    0.7748   11.9722 C   0  0  0  0  0  0  0  0  0  0  0  0
  -33.6258    4.2259   14.8595 N   0  0  0  0  0  0  0  0  0  0  0  0
  -25.3661    2.7689   14.5642 O   0  0  0  0  0  0  0  0  0  0  0  0
  -23.9535    2.9441   12.8011 N   0  0  0  0  0  0  0  0  0  0  0  0
  -19.1064   -0.3921    9.6076 Cl  0  0  0  0  0  0  0  0  0  0  0  0
  -19.9460    1.9223   14.1874 C   0  0  0  0  0  0  0  0  0  0  0  0
  -28.2054    4.9265   12.3392 C   0  0  0  0  0  0  0  0  0  0  0  0
  -29.5593    5.0439   12.5904 C   0  0  0  0  0  0  0  0  0  0  0  0
  -28.2823    6.7009   10.7057 C   0  0  0  0  0  0  0  0  0  0  0  0
  -29.1333    6.0809    9.6223 C   0  0  0  0  0  0  0  0  0  0  0  0
  -29.9410    7.0816    8.9962 O   0  0  0  0  0  0  0  0  0  0  0  0
  -31.2152    7.3732    9.6009 C   0  0  0  0  0  0  0  0  0  0  0  0
  -32.2265    6.3489    9.1489 C   0  0  0  0  0  0  0  0  0  0  0  0
  -33.5982    5.8383   11.1679 C   0  0  0  0  0  0  0  0  0  0  0  0
  -32.4825    5.3571   11.7060 N   0  0  0  0  0  0  0  0  0  0  0  0
  -32.5728    4.9650   12.9849 C   0  0  0  0  0  0  0  0  0  0  0  0
  -34.9153    5.2844   13.0668 C   0  0  0  0  0  0  0  0  0  0  0  0
  -34.8659    5.8072   11.8219 C   0  0  0  0  0  0  0  0  0  0  0  0
  -31.6076    4.3764   13.8160 C   0  0  0  0  0  0  0  0  0  0  0  0
  -32.3313    3.9558   14.9415 C   0  0  0  0  0  0  0  0  0  0  0  0
  -30.1579    4.2502   13.5608 C   0  0  0  0  0  0  0  0  0  0  0  0
  -29.3801    3.3514   14.2808 C   0  0  0  0  0  0  0  0  0  0  0  0
  -28.0243    3.2327   14.0357 C   0  0  0  0  0  0  0  0  0  0  0  0
  -25.7734    4.1775   11.7488 H   0  0  0  0  0  0  0  0  0  0  0  0
  -23.1931    1.6068   14.2108 H   0  0  0  0  0  0  0  0  0  0  0  0
  -22.2508    3.1499   13.9604 H   0  0  0  0  0  0  0  0  0  0  0  0
  -34.2844    6.8275    9.5087 H   0  0  0  0  0  0  0  0  0  0  0  0
  -23.4018    1.2969   11.0620 H   0  0  0  0  0  0  0  0  0  0  0  0
  -21.9030    0.1207    9.4777 H   0  0  0  0  0  0  0  0  0  0  0  0
  -18.6311    0.6092   12.2187 H   0  0  0  0  0  0  0  0  0  0  0  0
  -23.8412    3.2562   11.8260 H   0  0  0  0  0  0  0  0  0  0  0  0
  -20.4916    1.4570   15.0216 H   0  0  0  0  0  0  0  0  0  0  0  0
  -18.8821    1.6492   14.2474 H   0  0  0  0  0  0  0  0  0  0  0  0
  -20.0478    3.0159   14.2474 H   0  0  0  0  0  0  0  0  0  0  0  0
  -30.1632    5.7663   12.0217 H   0  0  0  0  0  0  0  0  0  0  0  0
  -28.9334    7.2377   11.4113 H   0  0  0  0  0  0  0  0  0  0  0  0
  -27.5680    7.3934   10.2364 H   0  0  0  0  0  0  0  0  0  0  0  0
  -28.4805    5.6166    8.8684 H   0  0  0  0  0  0  0  0  0  0  0  0
  -29.7882    5.3198   10.0714 H   0  0  0  0  0  0  0  0  0  0  0  0
  -31.1193    7.3366   10.6961 H   0  0  0  0  0  0  0  0  0  0  0  0
  -31.5463    8.3774    9.2978 H   0  0  0  0  0  0  0  0  0  0  0  0
  -31.7758    5.3496    9.2394 H   0  0  0  0  0  0  0  0  0  0  0  0
  -32.4929    6.5908    8.1094 H   0  0  0  0  0  0  0  0  0  0  0  0
  -35.8706    5.2127   13.6074 H   0  0  0  0  0  0  0  0  0  0  0  0
  -35.7704    6.1948   11.3303 H   0  0  0  0  0  0  0  0  0  0  0  0
  -31.8709    3.4528   15.8046 H   0  0  0  0  0  0  0  0  0  0  0  0
  -29.8487    2.7265   15.0554 H   0  0  0  0  0  0  0  0  0  0  0  0
  -27.4189    2.5255   14.6217 H   0  0  0  0  0  0  0  0  0  0  0  0
  1  3  1  0
  1  5  1  0
  2  9  1  0
  2 16  1  0
  3 15  2  0
  3 16  1  0
  4 25  1  0
  4 26  1  0
  5 19  2  0
  5 35  1  0
  6 19  1  0
  6 21  1  0
  7  9  2  0
  7 13  1  0
  7 18  1  0
  8  9  1  0
  8 11  2  0
 10 14  1  0
 10 28  1  0
 10 29  1  0
 11 12  1  0
 12 13  2  0
 12 17  1  0
 14 32  2  0
 19 20  1  0
 20 33  2  0
 21 22  1  0
 22 23  1  0
 23 24  1  0
 24 25  1  0
 26 27  2  0
 26 30  1  0
 27 28  1  0
 28 31  2  0
 29 30  2  0
 31 32  1  0
 31 33  1  0
 33 34  1  0
 34 35  2  0
  1 36  1  0
  2 37  1  0
  2 38  1  0
  4 39  1  0
  8 40  1  0
 11 41  1  0
 13 42  1  0
 16 43  1  0
 18 44  1  0
 18 45  1  0
 18 46  1  0
 20 47  1  0
 21 48  1  0
 21 49  1  0
 22 50  1  0
 22 51  1  0
 24 52  1  0
 24 53  1  0
 25 54  1  0
 25 55  1  0
 29 56  1  0
 30 57  1  0
 32 58  1  0
 34 59  1  0
 35 60  1  0
M  END
>  <filename_input>  (15) 
7QGP_DJ8_docked.sdf

>  <pdb_id>  (15) 
7QGP_DJ8

>  <pose_rank>  (15) 
14

>  <num_atoms_heavy>  (15) 
35

>  <num_torsions>  (15) 
3

>  <pose>  (15) 
[-33.460933578321956, 6.3730841251359545, 9.928594276703928, 0.5930000180247816, 0.12253300050210164, -2.989544852369794, 6.767532756237217, 0.3169589928031548, -2.041929875937038]

>  <energy>  (15) 
-711.3698818706338

>  <inter_energy>  (15) 
-712.6079838855828

>  <intra_energy>  (15) 
21.692754828065116

>  <rmsd>  (15) 
10.5184

>  <sdf_rank>  (15) 
0

$$$$

     RDKit          3D

 60 64  0  0  0  0  0  0  0  0999 V2000
  -26.8393    4.3919   13.3258 N   0  0  0  0  0  0  0  0  0  0  0  0
  -24.1368    2.6609   11.5501 C   0  0  0  0  0  0  0  0  0  0  0  0
  -26.2750    3.5052   12.4440 C   0  0  0  0  0  0  0  0  0  0  0  0
  -33.9448    5.9614    9.3711 N   0  0  0  0  0  0  0  0  0  0  0  0
  -28.2388    4.5474   13.5155 C   0  0  0  0  0  0  0  0  0  0  0  0
  -28.2412    5.9742   11.6593 O   0  0  0  0  0  0  0  0  0  0  0  0
  -22.4699    2.6688   13.4672 C   0  0  0  0  0  0  0  0  0  0  0  0
  -21.7767    1.8514   11.3007 C   0  0  0  0  0  0  0  0  0  0  0  0
  -22.7641    2.3920   12.1212 C   0  0  0  0  0  0  0  0  0  0  0  0
  -34.6355    4.9459   13.2013 N   0  0  0  0  0  0  0  0  0  0  0  0
  -20.5104    1.5895   11.7803 C   0  0  0  0  0  0  0  0  0  0  0  0
  -20.2261    1.8776   13.0931 C   0  0  0  0  0  0  0  0  0  0  0  0
  -21.1852    2.3997   13.9371 C   0  0  0  0  0  0  0  0  0  0  0  0
  -34.6241    4.5112   14.5080 N   0  0  0  0  0  0  0  0  0  0  0  0
  -26.9250    2.6461   11.8600 O   0  0  0  0  0  0  0  0  0  0  0  0
  -24.9241    3.5885   12.3534 N   0  0  0  0  0  0  0  0  0  0  0  0
  -18.6003    1.6603   13.6816 Cl  0  0  0  0  0  0  0  0  0  0  0  0
  -23.4990    3.2461   14.4056 C   0  0  0  0  0  0  0  0  0  0  0  0
  -28.9731    5.2926   12.5898 C   0  0  0  0  0  0  0  0  0  0  0  0
  -30.3529    5.3337   12.6544 C   0  0  0  0  0  0  0  0  0  0  0  0
  -28.9447    6.8117   10.7151 C   0  0  0  0  0  0  0  0  0  0  0  0
  -29.6048    5.9809    9.6397 C   0  0  0  0  0  0  0  0  0  0  0  0
  -30.3840    6.8166    8.7793 O   0  0  0  0  0  0  0  0  0  0  0  0
  -31.7425    7.0850    9.1749 C   0  0  0  0  0  0  0  0  0  0  0  0
  -32.6192    5.9295    8.7594 C   0  0  0  0  0  0  0  0  0  0  0  0
  -34.2106    5.5940   10.6498 C   0  0  0  0  0  0  0  0  0  0  0  0
  -33.1478    5.2838   11.3847 N   0  0  0  0  0  0  0  0  0  0  0  0
  -33.3812    5.0665   12.6868 C   0  0  0  0  0  0  0  0  0  0  0  0
  -35.7295    5.2035   12.4353 C   0  0  0  0  0  0  0  0  0  0  0  0
  -35.5491    5.5512   11.1422 C   0  0  0  0  0  0  0  0  0  0  0  0
  -32.4993    4.6786   13.7069 C   0  0  0  0  0  0  0  0  0  0  0  0
  -33.3374    4.3607   14.7857 C   0  0  0  0  0  0  0  0  0  0  0  0
  -31.0235    4.6361   13.6513 C   0  0  0  0  0  0  0  0  0  0  0  0
  -30.2928    3.9115   14.5852 C   0  0  0  0  0  0  0  0  0  0  0  0
  -28.9118    3.8703   14.5270 C   0  0  0  0  0  0  0  0  0  0  0  0
  -26.2082    4.9826   13.8859 H   0  0  0  0  0  0  0  0  0  0  0  0
  -24.0187    3.0853   10.5422 H   0  0  0  0  0  0  0  0  0  0  0  0
  -24.6771    1.7028   11.5357 H   0  0  0  0  0  0  0  0  0  0  0  0
  -34.7324    6.2852    8.7918 H   0  0  0  0  0  0  0  0  0  0  0  0
  -22.0116    1.6289   10.2493 H   0  0  0  0  0  0  0  0  0  0  0  0
  -19.7414    1.1574   11.1231 H   0  0  0  0  0  0  0  0  0  0  0  0
  -20.9342    2.6050   14.9882 H   0  0  0  0  0  0  0  0  0  0  0  0
  -24.4370    4.3341   12.8708 H   0  0  0  0  0  0  0  0  0  0  0  0
  -23.1863    3.0707   15.4455 H   0  0  0  0  0  0  0  0  0  0  0  0
  -23.5913    4.3277   14.2280 H   0  0  0  0  0  0  0  0  0  0  0  0
  -24.4702    2.7611   14.2280 H   0  0  0  0  0  0  0  0  0  0  0  0
  -30.9206    5.9191   11.9161 H   0  0  0  0  0  0  0  0  0  0  0  0
  -29.7156    7.3866   11.2492 H   0  0  0  0  0  0  0  0  0  0  0  0
  -28.2195    7.4880   10.2391 H   0  0  0  0  0  0  0  0  0  0  0  0
  -28.8305    5.4711    9.0477 H   0  0  0  0  0  0  0  0  0  0  0  0
  -30.2643    5.2387   10.1133 H   0  0  0  0  0  0  0  0  0  0  0  0
  -31.7899    7.2082   10.2670 H   0  0  0  0  0  0  0  0  0  0  0  0
  -32.0929    8.0074    8.6889 H   0  0  0  0  0  0  0  0  0  0  0  0
  -32.1227    4.9922    9.0506 H   0  0  0  0  0  0  0  0  0  0  0  0
  -32.7607    6.0028    7.6710 H   0  0  0  0  0  0  0  0  0  0  0  0
  -36.7414    5.1302   12.8603 H   0  0  0  0  0  0  0  0  0  0  0  0
  -36.4033    5.7925   10.4925 H   0  0  0  0  0  0  0  0  0  0  0  0
  -32.9643    4.0210   15.7631 H   0  0  0  0  0  0  0  0  0  0  0  0
  -30.8195    3.3641   15.3807 H   0  0  0  0  0  0  0  0  0  0  0  0
  -28.3459    3.3023   15.2801 H   0  0  0  0  0  0  0  0  0  0  0  0
  1  3  1  0
  1  5  1  0
  2  9  1  0
  2 16  1  0
  3 15  2  0
  3 16  1  0
  4 25  1  0
  4 26  1  0
  5 19  2  0
  5 35  1  0
  6 19  1  0
  6 21  1  0
  7  9  2  0
  7 13  1  0
  7 18  1  0
  8  9  1  0
  8 11  2  0
 10 14  1  0
 10 28  1  0
 10 29  1  0
 11 12  1  0
 12 13  2  0
 12 17  1  0
 14 32  2  0
 19 20  1  0
 20 33  2  0
 21 22  1  0
 22 23  1  0
 23 24  1  0
 24 25  1  0
 26 27  2  0
 26 30  1  0
 27 28  1  0
 28 31  2  0
 29 30  2  0
 31 32  1  0
 31 33  1  0
 33 34  1  0
 34 35  2  0
  1 36  1  0
  2 37  1  0
  2 38  1  0
  4 39  1  0
  8 40  1  0
 11 41  1  0
 13 42  1  0
 16 43  1  0
 18 44  1  0
 18 45  1  0
 18 46  1  0
 20 47  1  0
 21 48  1  0
 21 49  1  0
 22 50  1  0
 22 51  1  0
 24 52  1  0
 24 53  1  0
 25 54  1  0
 25 55  1  0
 29 56  1  0
 30 57  1  0
 32 58  1  0
 34 59  1  0
 35 60  1  0
M  END
>  <filename_input>  (16) 
7QGP_DJ8_docked.sdf

>  <pdb_id>  (16) 
7QGP_DJ8

>  <pose_rank>  (16) 
15

>  <num_atoms_heavy>  (16) 
35

>  <num_torsions>  (16) 
3

>  <pose>  (16) 
[-33.944779145896, 5.9613855893968015, 9.371116094298426, -0.8408874614762053, 0.08841184572733538, 3.227500240766393, 2.462250786856735, 1.3795893158955626, 1.8539259031812503]

>  <energy>  (16) 
-689.2603554491749

>  <inter_energy>  (16) 
-704.6096345681387

>  <intra_energy>  (16) 
50.864506882513865

>  <rmsd>  (16) 
10.477

>  <sdf_rank>  (16) 
0

$$$$

     RDKit          3D

 60 64  0  0  0  0  0  0  0  0999 V2000
  -25.2741    3.7639   12.6994 N   0  0  0  0  0  0  0  0  0  0  0  0
  -23.2337    0.7539   12.2202 C   0  0  0  0  0  0  0  0  0  0  0  0
  -25.0212    2.4301   12.5009 C   0  0  0  0  0  0  0  0  0  0  0  0
  -32.4112    4.7646    8.6190 N   0  0  0  0  0  0  0  0  0  0  0  0
  -26.5763    4.3227   12.8015 C   0  0  0  0  0  0  0  0  0  0  0  0
  -26.5554    4.5694   10.4735 O   0  0  0  0  0  0  0  0  0  0  0  0
  -22.4964    0.4258    9.8113 C   0  0  0  0  0  0  0  0  0  0  0  0
  -20.8237    0.5824   11.5492 C   0  0  0  0  0  0  0  0  0  0  0  0
  -22.1635    0.5800   11.1679 C   0  0  0  0  0  0  0  0  0  0  0  0
  -32.7528    6.0214   12.4246 N   0  0  0  0  0  0  0  0  0  0  0  0
  -19.8144    0.4274   10.6221 C   0  0  0  0  0  0  0  0  0  0  0  0
  -20.1486    0.2614    9.3000 C   0  0  0  0  0  0  0  0  0  0  0  0
  -21.4652    0.2691    8.8862 C   0  0  0  0  0  0  0  0  0  0  0  0
  -32.6467    6.3180   13.7652 N   0  0  0  0  0  0  0  0  0  0  0  0
  -25.8949    1.5732   12.5617 O   0  0  0  0  0  0  0  0  0  0  0  0
  -23.7091    2.1271   12.3381 N   0  0  0  0  0  0  0  0  0  0  0  0
  -18.8910   -0.0507    8.1347 Cl  0  0  0  0  0  0  0  0  0  0  0  0
  -23.9274    0.4236    9.3370 C   0  0  0  0  0  0  0  0  0  0  0  0
  -27.2712    4.6486   11.6342 C   0  0  0  0  0  0  0  0  0  0  0  0
  -28.5940    5.0447   11.6892 C   0  0  0  0  0  0  0  0  0  0  0  0
  -27.2049    4.9551    9.2416 C   0  0  0  0  0  0  0  0  0  0  0  0
  -28.1564    3.8805    8.7703 C   0  0  0  0  0  0  0  0  0  0  0  0
  -28.8681    4.3251    7.6120 O   0  0  0  0  0  0  0  0  0  0  0  0
  -30.0802    5.0718    7.8298 C   0  0  0  0  0  0  0  0  0  0  0  0
  -31.2146    4.1128    8.0939 C   0  0  0  0  0  0  0  0  0  0  0  0
  -32.5650    5.1690    9.9049 C   0  0  0  0  0  0  0  0  0  0  0  0
  -31.4924    5.0292   10.6768 N   0  0  0  0  0  0  0  0  0  0  0  0
  -31.5822    5.5622   11.9037 C   0  0  0  0  0  0  0  0  0  0  0  0
  -33.8701    6.1093   11.6541 C   0  0  0  0  0  0  0  0  0  0  0  0
  -33.8052    5.7016   10.3676 C   0  0  0  0  0  0  0  0  0  0  0  0
  -30.6612    5.5452   12.9621 C   0  0  0  0  0  0  0  0  0  0  0  0
  -31.3885    6.0263   14.0606 C   0  0  0  0  0  0  0  0  0  0  0  0
  -29.2442    5.1295   12.9140 C   0  0  0  0  0  0  0  0  0  0  0  0
  -28.5477    4.8258   14.0776 C   0  0  0  0  0  0  0  0  0  0  0  0
  -27.2229    4.4325   14.0281 C   0  0  0  0  0  0  0  0  0  0  0  0
  -24.4685    4.4007   12.7796 H   0  0  0  0  0  0  0  0  0  0  0  0
  -24.0870    0.1102   11.9601 H   0  0  0  0  0  0  0  0  0  0  0  0
  -22.7872    0.4796   13.1874 H   0  0  0  0  0  0  0  0  0  0  0  0
  -33.1925    4.9286    7.9682 H   0  0  0  0  0  0  0  0  0  0  0  0
  -20.5656    0.7105   12.6108 H   0  0  0  0  0  0  0  0  0  0  0  0
  -18.7602    0.4366   10.9359 H   0  0  0  0  0  0  0  0  0  0  0  0
  -21.7027    0.1508    7.8187 H   0  0  0  0  0  0  0  0  0  0  0  0
  -23.0238    2.8950   12.2962 H   0  0  0  0  0  0  0  0  0  0  0  0
  -24.6017    0.4225   10.2060 H   0  0  0  0  0  0  0  0  0  0  0  0
  -24.1138    1.3214    8.7294 H   0  0  0  0  0  0  0  0  0  0  0  0
  -24.1109   -0.4749    8.7294 H   0  0  0  0  0  0  0  0  0  0  0  0
  -29.1325    5.2929   10.7626 H   0  0  0  0  0  0  0  0  0  0  0  0
  -27.7674    5.8857    9.4079 H   0  0  0  0  0  0  0  0  0  0  0  0
  -26.4340    5.1026    8.4709 H   0  0  0  0  0  0  0  0  0  0  0  0
  -27.5858    2.9738    8.5206 H   0  0  0  0  0  0  0  0  0  0  0  0
  -28.8766    3.6615    9.5724 H   0  0  0  0  0  0  0  0  0  0  0  0
  -29.9516    5.7368    8.6965 H   0  0  0  0  0  0  0  0  0  0  0  0
  -30.3070    5.6751    6.9384 H   0  0  0  0  0  0  0  0  0  0  0  0
  -30.8757    3.3639    8.8248 H   0  0  0  0  0  0  0  0  0  0  0  0
  -31.4876    3.6577    7.1304 H   0  0  0  0  0  0  0  0  0  0  0  0
  -34.8085    6.5047   12.0703 H   0  0  0  0  0  0  0  0  0  0  0  0
  -34.6769    5.7776    9.7010 H   0  0  0  0  0  0  0  0  0  0  0  0
  -30.9580    6.1490   15.0654 H   0  0  0  0  0  0  0  0  0  0  0  0
  -29.0566    4.8991   15.0500 H   0  0  0  0  0  0  0  0  0  0  0  0
  -26.6807    4.2067   14.9582 H   0  0  0  0  0  0  0  0  0  0  0  0
  1  3  1  0
  1  5  1  0
  2  9  1  0
  2 16  1  0
  3 15  2  0
  3 16  1  0
  4 25  1  0
  4 26  1  0
  5 19  2  0
  5 35  1  0
  6 19  1  0
  6 21  1  0
  7  9  2  0
  7 13  1  0
  7 18  1  0
  8  9  1  0
  8 11  2  0
 10 14  1  0
 10 28  1  0
 10 29  1  0
 11 12  1  0
 12 13  2  0
 12 17  1  0
 14 32  2  0
 19 20  1  0
 20 33  2  0
 21 22  1  0
 22 23  1  0
 23 24  1  0
 24 25  1  0
 26 27  2  0
 26 30  1  0
 27 28  1  0
 28 31  2  0
 29 30  2  0
 31 32  1  0
 31 33  1  0
 33 34  1  0
 34 35  2  0
  1 36  1  0
  2 37  1  0
  2 38  1  0
  4 39  1  0
  8 40  1  0
 11 41  1  0
 13 42  1  0
 16 43  1  0
 18 44  1  0
 18 45  1  0
 18 46  1  0
 20 47  1  0
 21 48  1  0
 21 49  1  0
 22 50  1  0
 22 51  1  0
 24 52  1  0
 24 53  1  0
 25 54  1  0
 25 55  1  0
 29 56  1  0
 30 57  1  0
 32 58  1  0
 34 59  1  0
 35 60  1  0
M  END
>  <filename_input>  (17) 
7QGP_DJ8_docked.sdf

>  <pdb_id>  (17) 
7QGP_DJ8

>  <pose_rank>  (17) 
16

>  <num_atoms_heavy>  (17) 
35

>  <num_torsions>  (17) 
3

>  <pose>  (17) 
[-32.41119838763088, 4.764560755000508, 8.619023481224142, 0.5229035785922386, -0.9391768235398114, -2.840769184535911, 2.3747534982105867, 0.09767658225218404, 0.08499194139166091]

>  <energy>  (17) 
-697.2865861510289

>  <inter_energy>  (17) 
-665.3268875219345

>  <intra_energy>  (17) 
4.852462945598827

>  <rmsd>  (17) 
10.0052

>  <sdf_rank>  (17) 
0

$$$$

     RDKit          3D

 60 64  0  0  0  0  0  0  0  0999 V2000
  -28.7329    4.4243   11.2996 N   0  0  0  0  0  0  0  0  0  0  0  0
  -32.1440    5.7602   11.1185 C   0  0  0  0  0  0  0  0  0  0  0  0
  -29.9231    4.9128   11.7764 C   0  0  0  0  0  0  0  0  0  0  0  0
  -21.0957    1.2250   11.1367 N   0  0  0  0  0  0  0  0  0  0  0  0
  -27.6424    4.0360   12.1233 C   0  0  0  0  0  0  0  0  0  0  0  0
  -27.0794    2.4639   10.4824 O   0  0  0  0  0  0  0  0  0  0  0  0
  -31.8975    8.0053    9.9553 C   0  0  0  0  0  0  0  0  0  0  0  0
  -33.8584    6.6591    9.5245 C   0  0  0  0  0  0  0  0  0  0  0  0
  -32.6429    6.8356   10.1818 C   0  0  0  0  0  0  0  0  0  0  0  0
  -22.0507    2.4549   14.8453 N   0  0  0  0  0  0  0  0  0  0  0  0
  -34.3513    7.6145    8.6606 C   0  0  0  0  0  0  0  0  0  0  0  0
  -33.6243    8.7622    8.4567 C   0  0  0  0  0  0  0  0  0  0  0  0
  -32.4094    8.9622    9.0801 C   0  0  0  0  0  0  0  0  0  0  0  0
  -22.5720    3.0058   15.9948 N   0  0  0  0  0  0  0  0  0  0  0  0
  -30.2160    4.9005   12.9661 O   0  0  0  0  0  0  0  0  0  0  0  0
  -30.7909    5.3116   10.8131 N   0  0  0  0  0  0  0  0  0  0  0  0
  -34.2886   10.0271    7.4589 Cl  0  0  0  0  0  0  0  0  0  0  0  0
  -30.5719    8.2490   10.6307 C   0  0  0  0  0  0  0  0  0  0  0  0
  -26.7348    3.0859   11.6488 C   0  0  0  0  0  0  0  0  0  0  0  0
  -25.5803    2.8013   12.3529 C   0  0  0  0  0  0  0  0  0  0  0  0
  -26.2088    1.4272    9.9769 C   0  0  0  0  0  0  0  0  0  0  0  0
  -24.9742    2.0192    9.3383 C   0  0  0  0  0  0  0  0  0  0  0  0
  -24.0764    0.9785    8.9423 O   0  0  0  0  0  0  0  0  0  0  0  0
  -23.1389    0.5065    9.9284 C   0  0  0  0  0  0  0  0  0  0  0  0
  -21.9539    1.4391    9.9748 C   0  0  0  0  0  0  0  0  0  0  0  0
  -21.3782    1.6570   12.3914 C   0  0  0  0  0  0  0  0  0  0  0  0
  -22.5711    2.2229   12.5425 N   0  0  0  0  0  0  0  0  0  0  0  0
  -22.9231    2.5161   13.8025 C   0  0  0  0  0  0  0  0  0  0  0  0
  -20.8060    1.9319   14.6815 C   0  0  0  0  0  0  0  0  0  0  0  0
  -20.4388    1.5023   13.4541 C   0  0  0  0  0  0  0  0  0  0  0  0
  -24.0747    3.1521   14.2904 C   0  0  0  0  0  0  0  0  0  0  0  0
  -23.7809    3.4129   15.6369 C   0  0  0  0  0  0  0  0  0  0  0  0
  -25.3160    3.4564   13.5492 C   0  0  0  0  0  0  0  0  0  0  0  0
  -26.2284    4.3864   14.0326 C   0  0  0  0  0  0  0  0  0  0  0  0
  -27.3869    4.6721   13.3336 C   0  0  0  0  0  0  0  0  0  0  0  0
  -28.6231    4.3334   10.2796 H   0  0  0  0  0  0  0  0  0  0  0  0
  -32.1571    6.1572   12.1443 H   0  0  0  0  0  0  0  0  0  0  0  0
  -32.8093    4.8920   11.0016 H   0  0  0  0  0  0  0  0  0  0  0  0
  -20.2150    0.7104   10.9939 H   0  0  0  0  0  0  0  0  0  0  0  0
  -34.4365    5.7395    9.6980 H   0  0  0  0  0  0  0  0  0  0  0  0
  -35.3100    7.4602    8.1437 H   0  0  0  0  0  0  0  0  0  0  0  0
  -31.8408    9.8835    8.8852 H   0  0  0  0  0  0  0  0  0  0  0  0
  -30.4827    5.2969    9.8304 H   0  0  0  0  0  0  0  0  0  0  0  0
  -30.7065    8.2242   11.7222 H   0  0  0  0  0  0  0  0  0  0  0  0
  -29.8586    7.4669   10.3314 H   0  0  0  0  0  0  0  0  0  0  0  0
  -30.1834    9.2336   10.3314 H   0  0  0  0  0  0  0  0  0  0  0  0
  -24.8702    2.0555   11.9660 H   0  0  0  0  0  0  0  0  0  0  0  0
  -25.9055    0.7750   10.8092 H   0  0  0  0  0  0  0  0  0  0  0  0
  -26.7553    0.8519    9.2151 H   0  0  0  0  0  0  0  0  0  0  0  0
  -25.2672    2.6029    8.4532 H   0  0  0  0  0  0  0  0  0  0  0  0
  -24.4699    2.6705   10.0673 H   0  0  0  0  0  0  0  0  0  0  0  0
  -23.6249    0.4802   10.9149 H   0  0  0  0  0  0  0  0  0  0  0  0
  -22.8014   -0.5060    9.6618 H   0  0  0  0  0  0  0  0  0  0  0  0
  -22.3250    2.4743   10.0009 H   0  0  0  0  0  0  0  0  0  0  0  0
  -21.3465    1.2390    9.0798 H   0  0  0  0  0  0  0  0  0  0  0  0
  -20.1116    1.8601   15.5316 H   0  0  0  0  0  0  0  0  0  0  0  0
  -19.4514    1.0497   13.2805 H   0  0  0  0  0  0  0  0  0  0  0  0
  -24.4830    3.9054   16.3257 H   0  0  0  0  0  0  0  0  0  0  0  0
  -26.0267    4.9018   14.9833 H   0  0  0  0  0  0  0  0  0  0  0  0
  -28.1058    5.4018   13.7343 H   0  0  0  0  0  0  0  0  0  0  0  0
  1  3  1  0
  1  5  1  0
  2  9  1  0
  2 16  1  0
  3 15  2  0
  3 16  1  0
  4 25  1  0
  4 26  1  0
  5 19  2  0
  5 35  1  0
  6 19  1  0
  6 21  1  0
  7  9  2  0
  7 13  1  0
  7 18  1  0
  8  9  1  0
  8 11  2  0
 10 14  1  0
 10 28  1  0
 10 29  1  0
 11 12  1  0
 12 13  2  0
 12 17  1  0
 14 32  2  0
 19 20  1  0
 20 33  2  0
 21 22  1  0
 22 23  1  0
 23 24  1  0
 24 25  1  0
 26 27  2  0
 26 30  1  0
 27 28  1  0
 28 31  2  0
 29 30  2  0
 31 32  1  0
 31 33  1  0
 33 34  1  0
 34 35  2  0
  1 36  1  0
  2 37  1  0
  2 38  1  0
  4 39  1  0
  8 40  1  0
 11 41  1  0
 13 42  1  0
 16 43  1  0
 18 44  1  0
 18 45  1  0
 18 46  1  0
 20 47  1  0
 21 48  1  0
 21 49  1  0
 22 50  1  0
 22 51  1  0
 24 52  1  0
 24 53  1  0
 25 54  1  0
 25 55  1  0
 29 56  1  0
 30 57  1  0
 32 58  1  0
 34 59  1  0
 35 60  1  0
M  END
>  <filename_input>  (18) 
7QGP_DJ8_docked.sdf

>  <pdb_id>  (18) 
7QGP_DJ8

>  <pose_rank>  (18) 
17

>  <num_atoms_heavy>  (18) 
35

>  <num_torsions>  (18) 
3

>  <pose>  (18) 
[-21.095700436307613, 1.224976869136721, 11.136740740931634, -2.2775953091530705, -5.714346333547573, 1.1641504505506493, 0.2462457037305869, 0.23892701968481853, 13.171370390071441]

>  <energy>  (18) 
-1416.2096700801565

>  <inter_energy>  (18) 
-1449.2371707075645

>  <intra_energy>  (18) 
34.52484145183611

>  <rmsd>  (18) 
0.771486

>  <sdf_rank>  (18) 
0

$$$$

     RDKit          3D

 60 64  0  0  0  0  0  0  0  0999 V2000
  -20.2893    2.0356   12.6731 N   0  0  0  0  0  0  0  0  0  0  0  0
  -18.3358   -0.1900   10.5089 C   0  0  0  0  0  0  0  0  0  0  0  0
  -20.0739    1.0868   11.7057 C   0  0  0  0  0  0  0  0  0  0  0  0
  -28.1386    2.7480   10.1294 N   0  0  0  0  0  0  0  0  0  0  0  0
  -21.5736    2.5058   13.0578 C   0  0  0  0  0  0  0  0  0  0  0  0
  -22.0292    2.8490   10.7873 O   0  0  0  0  0  0  0  0  0  0  0  0
  -16.2608   -1.1679   11.6007 C   0  0  0  0  0  0  0  0  0  0  0  0
  -18.2524   -2.5254   11.4181 C   0  0  0  0  0  0  0  0  0  0  0  0
  -17.5958   -1.3185   11.1884 C   0  0  0  0  0  0  0  0  0  0  0  0
  -27.7844    3.8226   13.9893 N   0  0  0  0  0  0  0  0  0  0  0  0
  -17.6156   -3.5816   12.0355 C   0  0  0  0  0  0  0  0  0  0  0  0
  -16.3056   -3.4318   12.4213 C   0  0  0  0  0  0  0  0  0  0  0  0
  -15.6303   -2.2448   12.2224 C   0  0  0  0  0  0  0  0  0  0  0  0
  -27.4301    4.0698   15.2969 N   0  0  0  0  0  0  0  0  0  0  0  0
  -20.9813    0.4353   11.2022 O   0  0  0  0  0  0  0  0  0  0  0  0
  -18.7661    0.8548   11.4302 N   0  0  0  0  0  0  0  0  0  0  0  0
  -15.4541   -4.7938   13.0969 Cl  0  0  0  0  0  0  0  0  0  0  0  0
  -15.5007    0.1164   11.3872 C   0  0  0  0  0  0  0  0  0  0  0  0
  -22.5032    2.8347   12.0684 C   0  0  0  0  0  0  0  0  0  0  0  0
  -23.8082    3.1433   12.4024 C   0  0  0  0  0  0  0  0  0  0  0  0
  -22.9305    3.2432    9.7288 C   0  0  0  0  0  0  0  0  0  0  0  0
  -23.8971    2.1306    9.3969 C   0  0  0  0  0  0  0  0  0  0  0  0
  -24.8479    2.5764    8.4257 O   0  0  0  0  0  0  0  0  0  0  0  0
  -26.0311    3.2350    8.9161 C   0  0  0  0  0  0  0  0  0  0  0  0
  -27.0368    2.1958    9.3462 C   0  0  0  0  0  0  0  0  0  0  0  0
  -28.0554    3.0885   11.4401 C   0  0  0  0  0  0  0  0  0  0  0  0
  -26.8448    2.9854   11.9783 N   0  0  0  0  0  0  0  0  0  0  0  0
  -26.7176    3.4606   13.2255 C   0  0  0  0  0  0  0  0  0  0  0  0
  -29.0357    3.8711   13.4585 C   0  0  0  0  0  0  0  0  0  0  0  0
  -29.2058    3.5217   12.1644 C   0  0  0  0  0  0  0  0  0  0  0  0
  -25.6050    3.4585   14.0804 C   0  0  0  0  0  0  0  0  0  0  0  0
  -26.1244    3.8468   15.3241 C   0  0  0  0  0  0  0  0  0  0  0  0
  -24.2055    3.1361   13.7336 C   0  0  0  0  0  0  0  0  0  0  0  0
  -23.2762    2.8295   14.7204 C   0  0  0  0  0  0  0  0  0  0  0  0
  -21.9683    2.5236   14.3915 C   0  0  0  0  0  0  0  0  0  0  0  0
  -19.4675    2.4322   13.1509 H   0  0  0  0  0  0  0  0  0  0  0  0
  -17.6715    0.2600    9.7564 H   0  0  0  0  0  0  0  0  0  0  0  0
  -19.2422   -0.6199   10.0576 H   0  0  0  0  0  0  0  0  0  0  0  0
  -29.0414    2.8887    9.6540 H   0  0  0  0  0  0  0  0  0  0  0  0
  -19.2996   -2.6383   11.1009 H   0  0  0  0  0  0  0  0  0  0  0  0
  -18.1473   -4.5275   12.2158 H   0  0  0  0  0  0  0  0  0  0  0  0
  -14.5868   -2.1476   12.5567 H   0  0  0  0  0  0  0  0  0  0  0  0
  -18.0513    1.4378   11.8884 H   0  0  0  0  0  0  0  0  0  0  0  0
  -15.2410    0.5552   12.3619 H   0  0  0  0  0  0  0  0  0  0  0  0
  -14.5803   -0.0918   10.8220 H   0  0  0  0  0  0  0  0  0  0  0  0
  -16.1262    0.8230   10.8220 H   0  0  0  0  0  0  0  0  0  0  0  0
  -24.5327    3.3948   11.6138 H   0  0  0  0  0  0  0  0  0  0  0  0
  -23.4983    4.1285   10.0512 H   0  0  0  0  0  0  0  0  0  0  0  0
  -22.3374    3.4710    8.8308 H   0  0  0  0  0  0  0  0  0  0  0  0
  -23.3393    1.2731    8.9925 H   0  0  0  0  0  0  0  0  0  0  0  0
  -24.4306    1.8334   10.3118 H   0  0  0  0  0  0  0  0  0  0  0  0
  -25.7690    3.8706    9.7747 H   0  0  0  0  0  0  0  0  0  0  0  0
  -26.4630    3.8589    8.1197 H   0  0  0  0  0  0  0  0  0  0  0  0
  -26.5193    1.4404    9.9558 H   0  0  0  0  0  0  0  0  0  0  0  0
  -27.4708    1.7644    8.4322 H   0  0  0  0  0  0  0  0  0  0  0  0
  -29.8926    4.1885   14.0709 H   0  0  0  0  0  0  0  0  0  0  0  0
  -30.1954    3.5695   11.6866 H   0  0  0  0  0  0  0  0  0  0  0  0
  -25.5100    3.9551   16.2301 H   0  0  0  0  0  0  0  0  0  0  0  0
  -23.5848    2.8302   15.7762 H   0  0  0  0  0  0  0  0  0  0  0  0
  -21.2407    2.2946   15.1840 H   0  0  0  0  0  0  0  0  0  0  0  0
  1  3  1  0
  1  5  1  0
  2  9  1  0
  2 16  1  0
  3 15  2  0
  3 16  1  0
  4 25  1  0
  4 26  1  0
  5 19  2  0
  5 35  1  0
  6 19  1  0
  6 21  1  0
  7  9  2  0
  7 13  1  0
  7 18  1  0
  8  9  1  0
  8 11  2  0
 10 14  1  0
 10 28  1  0
 10 29  1  0
 11 12  1  0
 12 13  2  0
 12 17  1  0
 14 32  2  0
 19 20  1  0
 20 33  2  0
 21 22  1  0
 22 23  1  0
 23 24  1  0
 24 25  1  0
 26 27  2  0
 26 30  1  0
 27 28  1  0
 28 31  2  0
 29 30  2  0
 31 32  1  0
 31 33  1  0
 33 34  1  0
 34 35  2  0
  1 36  1  0
  2 37  1  0
  2 38  1  0
  4 39  1  0
  8 40  1  0
 11 41  1  0
 13 42  1  0
 16 43  1  0
 18 44  1  0
 18 45  1  0
 18 46  1  0
 20 47  1  0
 21 48  1  0
 21 49  1  0
 22 50  1  0
 22 51  1  0
 24 52  1  0
 24 53  1  0
 25 54  1  0
 25 55  1  0
 29 56  1  0
 30 57  1  0
 32 58  1  0
 34 59  1  0
 35 60  1  0
M  END
>  <filename_input>  (19) 
7QGP_DJ8_docked.sdf

>  <pdb_id>  (19) 
7QGP_DJ8

>  <pose_rank>  (19) 
18

>  <num_atoms_heavy>  (19) 
35

>  <num_torsions>  (19) 
3

>  <pose>  (19) 
[-28.138597755954248, 2.7479739353464057, 10.129444816304153, 0.26104263924624327, -0.8090935882208408, -2.803057783886769, 3.0451708381337697, 1.996853397693054, 0.19632503465966014]

>  <energy>  (19) 
-567.7078436645323

>  <inter_energy>  (19) 
-616.0384572077352

>  <intra_energy>  (19) 
51.64163601107024

>  <rmsd>  (19) 
11.14

>  <sdf_rank>  (19) 
0

$$$$

     RDKit          3D

 60 64  0  0  0  0  0  0  0  0999 V2000
  -22.4415    1.7211    9.4779 N   0  0  0  0  0  0  0  0  0  0  0  0
  -20.4138   -0.8367    7.8048 C   0  0  0  0  0  0  0  0  0  0  0  0
  -22.1771    0.5202    8.8695 C   0  0  0  0  0  0  0  0  0  0  0  0
  -26.3492    4.8737   16.0643 N   0  0  0  0  0  0  0  0  0  0  0  0
  -23.7185    2.1019    9.9708 C   0  0  0  0  0  0  0  0  0  0  0  0
  -22.9298    1.6267   12.1233 O   0  0  0  0  0  0  0  0  0  0  0  0
  -19.4694   -1.1233    5.4638 C   0  0  0  0  0  0  0  0  0  0  0  0
  -18.1989    0.1107    7.1087 C   0  0  0  0  0  0  0  0  0  0  0  0
  -19.3373   -0.6162    6.7678 C   0  0  0  0  0  0  0  0  0  0  0  0
  -28.8564    4.5485   12.9359 N   0  0  0  0  0  0  0  0  0  0  0  0
  -17.1920    0.3363    6.1937 C   0  0  0  0  0  0  0  0  0  0  0  0
  -17.3214   -0.1762    4.9257 C   0  0  0  0  0  0  0  0  0  0  0  0
  -18.4428   -0.8879    4.5505 C   0  0  0  0  0  0  0  0  0  0  0  0
  -29.4950    4.4080   11.7238 N   0  0  0  0  0  0  0  0  0  0  0  0
  -22.9821   -0.4033    8.8468 O   0  0  0  0  0  0  0  0  0  0  0  0
  -20.9140    0.4018    8.3893 N   0  0  0  0  0  0  0  0  0  0  0  0
  -16.0073    0.0019    3.7951 Cl  0  0  0  0  0  0  0  0  0  0  0  0
  -20.6815   -1.9098    5.0335 C   0  0  0  0  0  0  0  0  0  0  0  0
  -23.9318    2.1417   11.3508 C   0  0  0  0  0  0  0  0  0  0  0  0
  -25.1057    2.6563   11.8676 C   0  0  0  0  0  0  0  0  0  0  0  0
  -23.1225    1.5843   13.5547 C   0  0  0  0  0  0  0  0  0  0  0  0
  -22.9402    2.9531   14.1675 C   0  0  0  0  0  0  0  0  0  0  0  0
  -23.2407    2.9118   15.5653 O   0  0  0  0  0  0  0  0  0  0  0  0
  -24.6153    3.1042   15.9497 C   0  0  0  0  0  0  0  0  0  0  0  0
  -24.9210    4.5813   15.9813 C   0  0  0  0  0  0  0  0  0  0  0  0
  -27.2106    4.8033   15.0184 C   0  0  0  0  0  0  0  0  0  0  0  0
  -26.6927    4.3397   13.8858 N   0  0  0  0  0  0  0  0  0  0  0  0
  -27.5645    4.1229   12.8906 C   0  0  0  0  0  0  0  0  0  0  0  0
  -29.3743    5.0803   14.0755 C   0  0  0  0  0  0  0  0  0  0  0  0
  -28.5719    5.2080   15.1551 C   0  0  0  0  0  0  0  0  0  0  0  0
  -27.3391    3.6906   11.5749 C   0  0  0  0  0  0  0  0  0  0  0  0
  -28.5680    3.8927   10.9297 C   0  0  0  0  0  0  0  0  0  0  0  0
  -26.0913    3.1339   11.0129 C   0  0  0  0  0  0  0  0  0  0  0  0
  -25.8887    3.0755    9.6393 C   0  0  0  0  0  0  0  0  0  0  0  0
  -24.7174    2.5580    9.1172 C   0  0  0  0  0  0  0  0  0  0  0  0
  -21.6649    2.3893    9.5839 H   0  0  0  0  0  0  0  0  0  0  0  0
  -21.2546   -1.3626    7.3289 H   0  0  0  0  0  0  0  0  0  0  0  0
  -19.9656   -1.4238    8.6199 H   0  0  0  0  0  0  0  0  0  0  0  0
  -26.7290    5.1528   16.9801 H   0  0  0  0  0  0  0  0  0  0  0  0
  -18.1012    0.5126    8.1280 H   0  0  0  0  0  0  0  0  0  0  0  0
  -16.3006    0.9167    6.4743 H   0  0  0  0  0  0  0  0  0  0  0  0
  -18.5271   -1.2722    3.5233 H   0  0  0  0  0  0  0  0  0  0  0  0
  -20.2856    1.2164    8.4394 H   0  0  0  0  0  0  0  0  0  0  0  0
  -21.2246   -2.2622    5.9228 H   0  0  0  0  0  0  0  0  0  0  0  0
  -21.3410   -1.2671    4.4319 H   0  0  0  0  0  0  0  0  0  0  0  0
  -20.3632   -2.7740    4.4319 H   0  0  0  0  0  0  0  0  0  0  0  0
  -25.2596    2.6879   12.9563 H   0  0  0  0  0  0  0  0  0  0  0  0
  -24.1403    1.2267   13.7700 H   0  0  0  0  0  0  0  0  0  0  0  0
  -22.3747    0.9042   13.9886 H   0  0  0  0  0  0  0  0  0  0  0  0
  -21.8983    3.2774   14.0291 H   0  0  0  0  0  0  0  0  0  0  0  0
  -23.6223    3.6612   13.6742 H   0  0  0  0  0  0  0  0  0  0  0  0
  -25.2736    2.6080   15.2214 H   0  0  0  0  0  0  0  0  0  0  0  0
  -24.7836    2.6712   16.9468 H   0  0  0  0  0  0  0  0  0  0  0  0
  -24.5234    5.0398   15.0638 H   0  0  0  0  0  0  0  0  0  0  0  0
  -24.4510    4.9921   16.8871 H   0  0  0  0  0  0  0  0  0  0  0  0
  -30.4260    5.4002   14.1175 H   0  0  0  0  0  0  0  0  0  0  0  0
  -28.9545    5.6095   16.1051 H   0  0  0  0  0  0  0  0  0  0  0  0
  -28.7443    3.6482    9.8718 H   0  0  0  0  0  0  0  0  0  0  0  0
  -26.6698    3.4455    8.9589 H   0  0  0  0  0  0  0  0  0  0  0  0
  -24.5759    2.5072    8.0275 H   0  0  0  0  0  0  0  0  0  0  0  0
  1  3  1  0
  1  5  1  0
  2  9  1  0
  2 16  1  0
  3 15  2  0
  3 16  1  0
  4 25  1  0
  4 26  1  0
  5 19  2  0
  5 35  1  0
  6 19  1  0
  6 21  1  0
  7  9  2  0
  7 13  1  0
  7 18  1  0
  8  9  1  0
  8 11  2  0
 10 14  1  0
 10 28  1  0
 10 29  1  0
 11 12  1  0
 12 13  2  0
 12 17  1  0
 14 32  2  0
 19 20  1  0
 20 33  2  0
 21 22  1  0
 22 23  1  0
 23 24  1  0
 24 25  1  0
 26 27  2  0
 26 30  1  0
 27 28  1  0
 28 31  2  0
 29 30  2  0
 31 32  1  0
 31 33  1  0
 33 34  1  0
 34 35  2  0
  1 36  1  0
  2 37  1  0
  2 38  1  0
  4 39  1  0
  8 40  1  0
 11 41  1  0
 13 42  1  0
 16 43  1  0
 18 44  1  0
 18 45  1  0
 18 46  1  0
 20 47  1  0
 21 48  1  0
 21 49  1  0
 22 50  1  0
 22 51  1  0
 24 52  1  0
 24 53  1  0
 25 54  1  0
 25 55  1  0
 29 56  1  0
 30 57  1  0
 32 58  1  0
 34 59  1  0
 35 60  1  0
M  END
>  <filename_input>  (20) 
7QGP_DJ8_docked.sdf

>  <pdb_id>  (20) 
7QGP_DJ8

>  <pose_rank>  (20) 
19

>  <num_atoms_heavy>  (20) 
35

>  <num_torsions>  (20) 
3

>  <pose>  (20) 
[-26.34924485360387, 4.87373226145497, 16.064262187955865, 1.360753010692296, 3.683132337765207, -1.1497422484118305, -0.5655192433055312, 0.32175417134049566, -0.639707170931268]

>  <energy>  (20) 
-522.8691921409334

>  <inter_energy>  (20) 
-522.7978305103188

>  <intra_energy>  (20) 
0.9404683498200943

>  <rmsd>  (20) 
10.563

>  <sdf_rank>  (20) 
0

$$$$

     RDKit          3D

 60 64  0  0  0  0  0  0  0  0999 V2000
  -26.2494    4.3625   12.7418 N   0  0  0  0  0  0  0  0  0  0  0  0
  -23.2492    2.2940   12.3259 C   0  0  0  0  0  0  0  0  0  0  0  0
  -25.4922    3.2187   12.7699 C   0  0  0  0  0  0  0  0  0  0  0  0
  -33.7396    6.7619   10.1477 N   0  0  0  0  0  0  0  0  0  0  0  0
  -27.6191    4.4222   13.1142 C   0  0  0  0  0  0  0  0  0  0  0  0
  -27.8200    6.3020   11.7333 O   0  0  0  0  0  0  0  0  0  0  0  0
  -22.0741    0.6884   10.7461 C   0  0  0  0  0  0  0  0  0  0  0  0
  -24.2707    1.5174   10.1716 C   0  0  0  0  0  0  0  0  0  0  0  0
  -23.1920    1.4832   11.0522 C   0  0  0  0  0  0  0  0  0  0  0  0
  -34.0106    4.7183   13.6015 N   0  0  0  0  0  0  0  0  0  0  0  0
  -24.2613    0.7927    8.9981 C   0  0  0  0  0  0  0  0  0  0  0  0
  -23.1582    0.0307    8.6985 C   0  0  0  0  0  0  0  0  0  0  0  0
  -22.0788   -0.0375    9.5559 C   0  0  0  0  0  0  0  0  0  0  0  0
  -33.8578    3.9429   14.7293 N   0  0  0  0  0  0  0  0  0  0  0  0
  -25.8846    2.1760   13.2801 O   0  0  0  0  0  0  0  0  0  0  0  0
  -24.2351    3.3672   12.2826 N   0  0  0  0  0  0  0  0  0  0  0  0
  -23.0838   -0.7978    7.1672 Cl  0  0  0  0  0  0  0  0  0  0  0  0
  -20.8807    0.6043   11.6635 C   0  0  0  0  0  0  0  0  0  0  0  0
  -28.4479    5.3722   12.5124 C   0  0  0  0  0  0  0  0  0  0  0  0
  -29.8123    5.3567   12.7317 C   0  0  0  0  0  0  0  0  0  0  0  0
  -28.6199    7.3467   11.1360 C   0  0  0  0  0  0  0  0  0  0  0  0
  -29.3962    6.8245    9.9498 C   0  0  0  0  0  0  0  0  0  0  0  0
  -30.2621    7.8424    9.4400 O   0  0  0  0  0  0  0  0  0  0  0  0
  -31.5684    7.9554   10.0359 C   0  0  0  0  0  0  0  0  0  0  0  0
  -32.4889    6.9346    9.4139 C   0  0  0  0  0  0  0  0  0  0  0  0
  -33.8652    6.0514   11.2966 C   0  0  0  0  0  0  0  0  0  0  0  0
  -32.7293    5.5808   11.8009 N   0  0  0  0  0  0  0  0  0  0  0  0
  -32.8197    5.0089   13.0101 C   0  0  0  0  0  0  0  0  0  0  0  0
  -35.1809    5.1460   13.0563 C   0  0  0  0  0  0  0  0  0  0  0  0
  -35.1419    5.8392   11.8972 C   0  0  0  0  0  0  0  0  0  0  0  0
  -31.8328    4.3807   13.7847 C   0  0  0  0  0  0  0  0  0  0  0  0
  -32.5489    3.7570   14.8169 C   0  0  0  0  0  0  0  0  0  0  0  0
  -30.3721    4.3949   13.5634 C   0  0  0  0  0  0  0  0  0  0  0  0
  -29.5459    3.4624   14.1791 C   0  0  0  0  0  0  0  0  0  0  0  0
  -28.1797    3.4760   13.9658 C   0  0  0  0  0  0  0  0  0  0  0  0
  -25.7958    5.2335   12.4310 H   0  0  0  0  0  0  0  0  0  0  0  0
  -23.5028    1.6202   13.1576 H   0  0  0  0  0  0  0  0  0  0  0  0
  -22.2629    2.7628   12.4581 H   0  0  0  0  0  0  0  0  0  0  0  0
  -34.5848    7.2105    9.7666 H   0  0  0  0  0  0  0  0  0  0  0  0
  -25.1476    2.1346   10.4169 H   0  0  0  0  0  0  0  0  0  0  0  0
  -25.1221    0.8243    8.3140 H   0  0  0  0  0  0  0  0  0  0  0  0
  -21.2160   -0.6692    9.2982 H   0  0  0  0  0  0  0  0  0  0  0  0
  -23.9673    4.2708   11.8670 H   0  0  0  0  0  0  0  0  0  0  0  0
  -21.2199    0.6282   12.7096 H   0  0  0  0  0  0  0  0  0  0  0  0
  -20.3388   -0.3343   11.4751 H   0  0  0  0  0  0  0  0  0  0  0  0
  -20.2125    1.4576   11.4751 H   0  0  0  0  0  0  0  0  0  0  0  0
  -30.4554    6.1063   12.2474 H   0  0  0  0  0  0  0  0  0  0  0  0
  -29.3259    7.7323   11.8862 H   0  0  0  0  0  0  0  0  0  0  0  0
  -27.9489    8.1469   10.7903 H   0  0  0  0  0  0  0  0  0  0  0  0
  -28.6928    6.5174    9.1617 H   0  0  0  0  0  0  0  0  0  0  0  0
  -30.0023    5.9635   10.2680 H   0  0  0  0  0  0  0  0  0  0  0  0
  -31.4957    7.7737   11.1184 H   0  0  0  0  0  0  0  0  0  0  0  0
  -31.9670    8.9659    9.8624 H   0  0  0  0  0  0  0  0  0  0  0  0
  -31.9665    5.9671    9.3817 H   0  0  0  0  0  0  0  0  0  0  0  0
  -32.7483    7.2992    8.4090 H   0  0  0  0  0  0  0  0  0  0  0  0
  -36.1406    4.9318   13.5495 H   0  0  0  0  0  0  0  0  0  0  0  0
  -36.0613    6.2260   11.4333 H   0  0  0  0  0  0  0  0  0  0  0  0
  -32.0722    3.1728   15.6179 H   0  0  0  0  0  0  0  0  0  0  0  0
  -29.9842    2.7040   14.8445 H   0  0  0  0  0  0  0  0  0  0  0  0
  -27.5367    2.7391   14.4692 H   0  0  0  0  0  0  0  0  0  0  0  0
  1  3  1  0
  1  5  1  0
  2  9  1  0
  2 16  1  0
  3 15  2  0
  3 16  1  0
  4 25  1  0
  4 26  1  0
  5 19  2  0
  5 35  1  0
  6 19  1  0
  6 21  1  0
  7  9  2  0
  7 13  1  0
  7 18  1  0
  8  9  1  0
  8 11  2  0
 10 14  1  0
 10 28  1  0
 10 29  1  0
 11 12  1  0
 12 13  2  0
 12 17  1  0
 14 32  2  0
 19 20  1  0
 20 33  2  0
 21 22  1  0
 22 23  1  0
 23 24  1  0
 24 25  1  0
 26 27  2  0
 26 30  1  0
 27 28  1  0
 28 31  2  0
 29 30  2  0
 31 32  1  0
 31 33  1  0
 33 34  1  0
 34 35  2  0
  1 36  1  0
  2 37  1  0
  2 38  1  0
  4 39  1  0
  8 40  1  0
 11 41  1  0
 13 42  1  0
 16 43  1  0
 18 44  1  0
 18 45  1  0
 18 46  1  0
 20 47  1  0
 21 48  1  0
 21 49  1  0
 22 50  1  0
 22 51  1  0
 24 52  1  0
 24 53  1  0
 25 54  1  0
 25 55  1  0
 29 56  1  0
 30 57  1  0
 32 58  1  0
 34 59  1  0
 35 60  1  0
M  END
>  <filename_input>  (21) 
7QGP_DJ8_docked.sdf

>  <pdb_id>  (21) 
7QGP_DJ8

>  <pose_rank>  (21) 
20

>  <num_atoms_heavy>  (21) 
35

>  <num_torsions>  (21) 
3

>  <pose>  (21) 
[-33.73955321631473, 6.761890994011276, 10.147670592672696, -0.6878377223604902, -0.3758033009516498, 3.183863765611226, 1.2112239211814073, -6.9484600175599995, 4.337235288211296]

>  <energy>  (21) 
-636.3464390138071

>  <inter_energy>  (21) 
-662.127621267559

>  <intra_energy>  (21) 
29.449893532081763

>  <rmsd>  (21) 
10.1551

>  <sdf_rank>  (21) 
0

$$$$

     RDKit          3D

 60 64  0  0  0  0  0  0  0  0999 V2000
  -22.4775    1.5802    9.3688 N   0  0  0  0  0  0  0  0  0  0  0  0
  -23.0280    2.8149   12.7784 C   0  0  0  0  0  0  0  0  0  0  0  0
  -22.5717    1.5099   10.7357 C   0  0  0  0  0  0  0  0  0  0  0  0
  -25.4155   -3.2346    3.3045 N   0  0  0  0  0  0  0  0  0  0  0  0
  -22.1567    0.4768    8.5332 C   0  0  0  0  0  0  0  0  0  0  0  0
  -24.4459   -0.0048    8.4422 O   0  0  0  0  0  0  0  0  0  0  0  0
  -24.8174    3.4834   14.4534 C   0  0  0  0  0  0  0  0  0  0  0  0
  -25.3757    3.3815   12.1039 C   0  0  0  0  0  0  0  0  0  0  0  0
  -24.4384    3.2329   13.1235 C   0  0  0  0  0  0  0  0  0  0  0  0
  -21.5376   -4.0346    4.0121 N   0  0  0  0  0  0  0  0  0  0  0  0
  -26.6738    3.7618   12.3734 C   0  0  0  0  0  0  0  0  0  0  0  0
  -27.0405    3.9895   13.6776 C   0  0  0  0  0  0  0  0  0  0  0  0
  -26.1332    3.8660   14.7101 C   0  0  0  0  0  0  0  0  0  0  0  0
  -20.2124   -4.0799    4.3841 N   0  0  0  0  0  0  0  0  0  0  0  0
  -22.5526    0.4488   11.3481 O   0  0  0  0  0  0  0  0  0  0  0  0
  -22.7947    2.7018   11.3437 N   0  0  0  0  0  0  0  0  0  0  0  0
  -28.7039    4.3576   14.0444 Cl  0  0  0  0  0  0  0  0  0  0  0  0
  -23.8457    3.3477   15.5981 C   0  0  0  0  0  0  0  0  0  0  0  0
  -23.1908   -0.2818    7.9796 C   0  0  0  0  0  0  0  0  0  0  0  0
  -22.9224   -1.2598    7.0408 C   0  0  0  0  0  0  0  0  0  0  0  0
  -25.5472   -0.8011    7.9511 C   0  0  0  0  0  0  0  0  0  0  0  0
  -25.9333   -0.3876    6.5502 C   0  0  0  0  0  0  0  0  0  0  0  0
  -26.9497   -1.2563    6.0420 O   0  0  0  0  0  0  0  0  0  0  0  0
  -26.5173   -2.4649    5.3888 C   0  0  0  0  0  0  0  0  0  0  0  0
  -26.1440   -2.1525    3.9608 C   0  0  0  0  0  0  0  0  0  0  0  0
  -24.1008   -3.5060    3.5004 C   0  0  0  0  0  0  0  0  0  0  0  0
  -23.5018   -2.7726    4.4328 N   0  0  0  0  0  0  0  0  0  0  0  0
  -22.2476   -3.1314    4.7419 C   0  0  0  0  0  0  0  0  0  0  0  0
  -22.1314   -4.7445    3.0155 C   0  0  0  0  0  0  0  0  0  0  0  0
  -23.4341   -4.5135    2.7413 C   0  0  0  0  0  0  0  0  0  0  0  0
  -21.3370   -2.5436    5.6330 C   0  0  0  0  0  0  0  0  0  0  0  0
  -20.1196   -3.1819    5.3538 C   0  0  0  0  0  0  0  0  0  0  0  0
  -21.6133   -1.5022    6.6439 C   0  0  0  0  0  0  0  0  0  0  0  0
  -20.5818   -0.7624    7.2096 C   0  0  0  0  0  0  0  0  0  0  0  0
  -20.8449    0.2148    8.1520 C   0  0  0  0  0  0  0  0  0  0  0  0
  -22.6503    2.4909    8.9197 H   0  0  0  0  0  0  0  0  0  0  0  0
  -22.3324    3.5623   13.1874 H   0  0  0  0  0  0  0  0  0  0  0  0
  -22.8681    1.8176   13.2140 H   0  0  0  0  0  0  0  0  0  0  0  0
  -25.9358   -3.8333    2.6474 H   0  0  0  0  0  0  0  0  0  0  0  0
  -25.0747    3.1918   11.0630 H   0  0  0  0  0  0  0  0  0  0  0  0
  -27.4027    3.8808   11.5583 H   0  0  0  0  0  0  0  0  0  0  0  0
  -26.4505    4.0709   15.7432 H   0  0  0  0  0  0  0  0  0  0  0  0
  -22.7993    3.5580   10.7710 H   0  0  0  0  0  0  0  0  0  0  0  0
  -24.3893    3.4236   16.5514 H   0  0  0  0  0  0  0  0  0  0  0  0
  -23.3437    2.3707   15.5391 H   0  0  0  0  0  0  0  0  0  0  0  0
  -23.0952    4.1497   15.5391 H   0  0  0  0  0  0  0  0  0  0  0  0
  -23.7458   -1.8466    6.6075 H   0  0  0  0  0  0  0  0  0  0  0  0
  -25.2501   -1.8602    7.9443 H   0  0  0  0  0  0  0  0  0  0  0  0
  -26.4126   -0.6472    8.6124 H   0  0  0  0  0  0  0  0  0  0  0  0
  -26.3127    0.6447    6.5675 H   0  0  0  0  0  0  0  0  0  0  0  0
  -25.0483   -0.4513    5.9001 H   0  0  0  0  0  0  0  0  0  0  0  0
  -25.6434   -2.8752    5.9160 H   0  0  0  0  0  0  0  0  0  0  0  0
  -27.3318   -3.2041    5.4040 H   0  0  0  0  0  0  0  0  0  0  0  0
  -25.5124   -1.2520    3.9540 H   0  0  0  0  0  0  0  0  0  0  0  0
  -27.0810   -2.0057    3.4037 H   0  0  0  0  0  0  0  0  0  0  0  0
  -21.5621   -5.4923    2.4439 H   0  0  0  0  0  0  0  0  0  0  0  0
  -23.9617   -5.0816    1.9609 H   0  0  0  0  0  0  0  0  0  0  0  0
  -19.1829   -2.9595    5.8859 H   0  0  0  0  0  0  0  0  0  0  0  0
  -19.5431   -0.9565    6.9038 H   0  0  0  0  0  0  0  0  0  0  0  0
  -20.0173    0.7844    8.6000 H   0  0  0  0  0  0  0  0  0  0  0  0
  1  3  1  0
  1  5  1  0
  2  9  1  0
  2 16  1  0
  3 15  2  0
  3 16  1  0
  4 25  1  0
  4 26  1  0
  5 19  2  0
  5 35  1  0
  6 19  1  0
  6 21  1  0
  7  9  2  0
  7 13  1  0
  7 18  1  0
  8  9  1  0
  8 11  2  0
 10 14  1  0
 10 28  1  0
 10 29  1  0
 11 12  1  0
 12 13  2  0
 12 17  1  0
 14 32  2  0
 19 20  1  0
 20 33  2  0
 21 22  1  0
 22 23  1  0
 23 24  1  0
 24 25  1  0
 26 27  2  0
 26 30  1  0
 27 28  1  0
 28 31  2  0
 29 30  2  0
 31 32  1  0
 31 33  1  0
 33 34  1  0
 34 35  2  0
  1 36  1  0
  2 37  1  0
  2 38  1  0
  4 39  1  0
  8 40  1  0
 11 41  1  0
 13 42  1  0
 16 43  1  0
 18 44  1  0
 18 45  1  0
 18 46  1  0
 20 47  1  0
 21 48  1  0
 21 49  1  0
 22 50  1  0
 22 51  1  0
 24 52  1  0
 24 53  1  0
 25 54  1  0
 25 55  1  0
 29 56  1  0
 30 57  1  0
 32 58  1  0
 34 59  1  0
 35 60  1  0
M  END
>  <filename_input>  (22) 
7QGP_DJ8_docked.sdf

>  <pdb_id>  (22) 
7QGP_DJ8

>  <pose_rank>  (22) 
21

>  <num_atoms_heavy>  (22) 
35

>  <num_torsions>  (22) 
3

>  <pose>  (22) 
[-25.415508246456458, -3.2346244374905906, 3.3045162832200936, -0.5032662174102672, -4.053705521702562, 1.9731842262387418, -0.814262437376464, -4.272912183340738, -7.818149140625909]

>  <energy>  (22) 
-503.209440132386

>  <inter_energy>  (22) 
-504.1757844367031

>  <intra_energy>  (22) 
3.292048895993699

>  <rmsd>  (22) 
9.26341

>  <sdf_rank>  (22) 
0

$$$$

     RDKit          3D

 60 64  0  0  0  0  0  0  0  0999 V2000
  -21.5501    0.9513    8.2739 N   0  0  0  0  0  0  0  0  0  0  0  0
  -20.4606   -0.9356    5.3234 C   0  0  0  0  0  0  0  0  0  0  0  0
  -21.6832    0.1378    7.1772 C   0  0  0  0  0  0  0  0  0  0  0  0
  -23.4175    3.4419   15.9485 N   0  0  0  0  0  0  0  0  0  0  0  0
  -22.6270    1.3383    9.1160 C   0  0  0  0  0  0  0  0  0  0  0  0
  -21.3778    0.5420   10.9288 O   0  0  0  0  0  0  0  0  0  0  0  0
  -19.3765   -3.2266    5.1483 C   0  0  0  0  0  0  0  0  0  0  0  0
  -17.9992   -1.3004    5.6338 C   0  0  0  0  0  0  0  0  0  0  0  0
  -19.2545   -1.8445    5.3721 C   0  0  0  0  0  0  0  0  0  0  0  0
  -26.6369    3.6728   13.5484 N   0  0  0  0  0  0  0  0  0  0  0  0
  -16.8716   -2.0928    5.6870 C   0  0  0  0  0  0  0  0  0  0  0  0
  -17.0014   -3.4451    5.4829 C   0  0  0  0  0  0  0  0  0  0  0  0
  -18.2279   -4.0145    5.2064 C   0  0  0  0  0  0  0  0  0  0  0  0
  -27.5644    3.7285   12.5319 N   0  0  0  0  0  0  0  0  0  0  0  0
  -22.7181   -0.4665    6.9214 O   0  0  0  0  0  0  0  0  0  0  0  0
  -20.5437   -0.0262    6.4599 N   0  0  0  0  0  0  0  0  0  0  0  0
  -15.6055   -4.4729    5.6610 Cl  0  0  0  0  0  0  0  0  0  0  0  0
  -20.7065   -3.8718    4.8522 C   0  0  0  0  0  0  0  0  0  0  0  0
  -22.4893    1.2105   10.5002 C   0  0  0  0  0  0  0  0  0  0  0  0
  -23.4490    1.7209   11.3537 C   0  0  0  0  0  0  0  0  0  0  0  0
  -21.2149    0.3250   12.3481 C   0  0  0  0  0  0  0  0  0  0  0  0
  -20.7660    1.5895   13.0423 C   0  0  0  0  0  0  0  0  0  0  0  0
  -20.7152    1.3843   14.4569 O   0  0  0  0  0  0  0  0  0  0  0  0
  -21.9299    1.6046   15.1987 C   0  0  0  0  0  0  0  0  0  0  0  0
  -22.0856    3.0803   15.4714 C   0  0  0  0  0  0  0  0  0  0  0  0
  -24.5127    3.5583   15.1563 C   0  0  0  0  0  0  0  0  0  0  0  0
  -24.3334    3.2168   13.8847 N   0  0  0  0  0  0  0  0  0  0  0  0
  -25.4392    3.1823   13.1275 C   0  0  0  0  0  0  0  0  0  0  0  0
  -26.8086    4.0809   14.8344 C   0  0  0  0  0  0  0  0  0  0  0  0
  -25.7568    4.0203   15.6805 C   0  0  0  0  0  0  0  0  0  0  0  0
  -25.5844    2.9125   11.7583 C   0  0  0  0  0  0  0  0  0  0  0  0
  -26.9113    3.2679   11.4751 C   0  0  0  0  0  0  0  0  0  0  0  0
  -24.5683    2.3620   10.8378 C   0  0  0  0  0  0  0  0  0  0  0  0
  -24.7164    2.4712    9.4603 C   0  0  0  0  0  0  0  0  0  0  0  0
  -23.7608    1.9589    8.6021 C   0  0  0  0  0  0  0  0  0  0  0  0
  -20.6094    1.3040    8.5013 H   0  0  0  0  0  0  0  0  0  0  0  0
  -20.4105   -0.3382    4.4011 H   0  0  0  0  0  0  0  0  0  0  0  0
  -21.3535   -1.5773    5.3537 H   0  0  0  0  0  0  0  0  0  0  0  0
  -23.5335    3.6210   16.9562 H   0  0  0  0  0  0  0  0  0  0  0  0
  -17.9054   -0.2173    5.8015 H   0  0  0  0  0  0  0  0  0  0  0  0
  -15.8853   -1.6496    5.8893 H   0  0  0  0  0  0  0  0  0  0  0  0
  -18.2996   -5.0980    5.0306 H   0  0  0  0  0  0  0  0  0  0  0  0
  -19.7068    0.5112    6.7279 H   0  0  0  0  0  0  0  0  0  0  0  0
  -21.2133   -4.1176    5.7971 H   0  0  0  0  0  0  0  0  0  0  0  0
  -21.3303   -3.1762    4.2717 H   0  0  0  0  0  0  0  0  0  0  0  0
  -20.5463   -4.7923    4.2717 H   0  0  0  0  0  0  0  0  0  0  0  0
  -23.3265    1.6194   12.4422 H   0  0  0  0  0  0  0  0  0  0  0  0
  -22.1759    0.0022   12.7751 H   0  0  0  0  0  0  0  0  0  0  0  0
  -20.4468   -0.4481   12.4980 H   0  0  0  0  0  0  0  0  0  0  0  0
  -19.7657    1.8680   12.6793 H   0  0  0  0  0  0  0  0  0  0  0  0
  -21.4827    2.3942   12.8216 H   0  0  0  0  0  0  0  0  0  0  0  0
  -22.7889    1.2465   14.6122 H   0  0  0  0  0  0  0  0  0  0  0  0
  -21.8853    1.0561   16.1511 H   0  0  0  0  0  0  0  0  0  0  0  0
  -21.8872    3.6304   14.5397 H   0  0  0  0  0  0  0  0  0  0  0  0
  -21.3723    3.3417   16.2669 H   0  0  0  0  0  0  0  0  0  0  0  0
  -27.7846    4.4532   15.1790 H   0  0  0  0  0  0  0  0  0  0  0  0
  -25.8561    4.3163   16.7352 H   0  0  0  0  0  0  0  0  0  0  0  0
  -27.3639    3.1737   10.4769 H   0  0  0  0  0  0  0  0  0  0  0  0
  -25.6050    2.9713    9.0476 H   0  0  0  0  0  0  0  0  0  0  0  0
  -23.8972    2.0421    7.5138 H   0  0  0  0  0  0  0  0  0  0  0  0
  1  3  1  0
  1  5  1  0
  2  9  1  0
  2 16  1  0
  3 15  2  0
  3 16  1  0
  4 25  1  0
  4 26  1  0
  5 19  2  0
  5 35  1  0
  6 19  1  0
  6 21  1  0
  7  9  2  0
  7 13  1  0
  7 18  1  0
  8  9  1  0
  8 11  2  0
 10 14  1  0
 10 28  1  0
 10 29  1  0
 11 12  1  0
 12 13  2  0
 12 17  1  0
 14 32  2  0
 19 20  1  0
 20 33  2  0
 21 22  1  0
 22 23  1  0
 23 24  1  0
 24 25  1  0
 26 27  2  0
 26 30  1  0
 27 28  1  0
 28 31  2  0
 29 30  2  0
 31 32  1  0
 31 33  1  0
 33 34  1  0
 34 35  2  0
  1 36  1  0
  2 37  1  0
  2 38  1  0
  4 39  1  0
  8 40  1  0
 11 41  1  0
 13 42  1  0
 16 43  1  0
 18 44  1  0
 18 45  1  0
 18 46  1  0
 20 47  1  0
 21 48  1  0
 21 49  1  0
 22 50  1  0
 22 51  1  0
 24 52  1  0
 24 53  1  0
 25 54  1  0
 25 55  1  0
 29 56  1  0
 30 57  1  0
 32 58  1  0
 34 59  1  0
 35 60  1  0
M  END
>  <filename_input>  (23) 
7QGP_DJ8_docked.sdf

>  <pdb_id>  (23) 
7QGP_DJ8

>  <pose_rank>  (23) 
22

>  <num_atoms_heavy>  (23) 
35

>  <num_torsions>  (23) 
3

>  <pose>  (23) 
[-23.417511343602307, 3.4419106890848594, 15.948512931847066, -0.6140602833071951, -1.7249742809918056, 0.5115190935902468, -0.15785863791066818, 1.6643263042337044, -2.4482362005180414]

>  <energy>  (23) 
-542.770058699354

>  <inter_energy>  (23) 
-521.8780244113724

>  <intra_energy>  (23) 
6.638478480149527

>  <rmsd>  (23) 
10.9947

>  <sdf_rank>  (23) 
0

$$$$

     RDKit          3D

 60 64  0  0  0  0  0  0  0  0999 V2000
  -24.6351    2.0928    9.8927 N   0  0  0  0  0  0  0  0  0  0  0  0
  -25.9626    3.2416   13.1131 C   0  0  0  0  0  0  0  0  0  0  0  0
  -24.9038    2.0403   11.2371 C   0  0  0  0  0  0  0  0  0  0  0  0
  -24.9459   -2.7441    3.1773 N   0  0  0  0  0  0  0  0  0  0  0  0
  -23.9301    1.0861    9.1798 C   0  0  0  0  0  0  0  0  0  0  0  0
  -25.9990    0.3134    8.4031 O   0  0  0  0  0  0  0  0  0  0  0  0
  -28.0336    4.3351   12.1285 C   0  0  0  0  0  0  0  0  0  0  0  0
  -27.8031    4.1864   14.5300 C   0  0  0  0  0  0  0  0  0  0  0  0
  -27.2949    3.9397   13.2568 C   0  0  0  0  0  0  0  0  0  0  0  0
  -21.3767   -3.0634    5.0041 N   0  0  0  0  0  0  0  0  0  0  0  0
  -29.0151    4.8202   14.7075 C   0  0  0  0  0  0  0  0  0  0  0  0
  -29.7238    5.2178   13.5998 C   0  0  0  0  0  0  0  0  0  0  0  0
  -29.2564    4.9755   12.3240 C   0  0  0  0  0  0  0  0  0  0  0  0
  -20.2275   -2.9536    5.7550 N   0  0  0  0  0  0  0  0  0  0  0  0
  -24.7062    1.0384   11.9143 O   0  0  0  0  0  0  0  0  0  0  0  0
  -25.5048    3.1511   11.7319 N   0  0  0  0  0  0  0  0  0  0  0  0
  -31.1991    6.1212   13.8096 Cl  0  0  0  0  0  0  0  0  0  0  0  0
  -27.5398    4.0879   10.7257 C   0  0  0  0  0  0  0  0  0  0  0  0
  -24.6374    0.2280    8.3344 C   0  0  0  0  0  0  0  0  0  0  0  0
  -23.9692   -0.6560    7.5087 C   0  0  0  0  0  0  0  0  0  0  0  0
  -26.7829   -0.5941    7.5968 C   0  0  0  0  0  0  0  0  0  0  0  0
  -26.7931   -0.1626    6.1490 C   0  0  0  0  0  0  0  0  0  0  0  0
  -27.4815   -1.1296    5.3509 O   0  0  0  0  0  0  0  0  0  0  0  0
  -26.7101   -2.2353    4.8445 C   0  0  0  0  0  0  0  0  0  0  0  0
  -25.9803   -1.8027    3.5969 C   0  0  0  0  0  0  0  0  0  0  0  0
  -23.7228   -2.8502    3.7547 C   0  0  0  0  0  0  0  0  0  0  0  0
  -23.5349   -2.0941    4.8311 N   0  0  0  0  0  0  0  0  0  0  0  0
  -22.3900   -2.3006    5.4975 C   0  0  0  0  0  0  0  0  0  0  0  0
  -21.5440   -3.7924    3.8682 C   0  0  0  0  0  0  0  0  0  0  0  0
  -22.7270   -3.7206    3.2192 C   0  0  0  0  0  0  0  0  0  0  0  0
  -21.8749   -1.6454    6.6263 C   0  0  0  0  0  0  0  0  0  0  0  0
  -20.5521   -2.1028    6.7174 C   0  0  0  0  0  0  0  0  0  0  0  0
  -22.5808   -0.7034    7.5191 C   0  0  0  0  0  0  0  0  0  0  0  0
  -21.8769    0.1351    8.3751 C   0  0  0  0  0  0  0  0  0  0  0  0
  -22.5410    1.0189    9.2058 C   0  0  0  0  0  0  0  0  0  0  0  0
  -24.9655    2.9144    9.3667 H   0  0  0  0  0  0  0  0  0  0  0  0
  -25.2124    3.7982   13.6938 H   0  0  0  0  0  0  0  0  0  0  0  0
  -26.0924    2.2132   13.4813 H   0  0  0  0  0  0  0  0  0  0  0  0
  -25.1596   -3.3709    2.3884 H   0  0  0  0  0  0  0  0  0  0  0  0
  -27.2263    3.8696   15.4114 H   0  0  0  0  0  0  0  0  0  0  0  0
  -29.4076    5.0042   15.7185 H   0  0  0  0  0  0  0  0  0  0  0  0
  -29.8530    5.2901   11.4551 H   0  0  0  0  0  0  0  0  0  0  0  0
  -25.6427    3.9600   11.1092 H   0  0  0  0  0  0  0  0  0  0  0  0
  -26.5567    3.5958   10.7644 H   0  0  0  0  0  0  0  0  0  0  0  0
  -28.2531    3.4405   10.1945 H   0  0  0  0  0  0  0  0  0  0  0  0
  -27.4491    5.0468   10.1945 H   0  0  0  0  0  0  0  0  0  0  0  0
  -24.5370   -1.3225    6.8428 H   0  0  0  0  0  0  0  0  0  0  0  0
  -26.3509   -1.6032    7.6682 H   0  0  0  0  0  0  0  0  0  0  0  0
  -27.8174   -0.5898    7.9706 H   0  0  0  0  0  0  0  0  0  0  0  0
  -27.3023    0.8087    6.0628 H   0  0  0  0  0  0  0  0  0  0  0  0
  -25.7561   -0.0755    5.7928 H   0  0  0  0  0  0  0  0  0  0  0  0
  -25.9817   -2.5541    5.6046 H   0  0  0  0  0  0  0  0  0  0  0  0
  -27.3802   -3.0749    4.6076 H   0  0  0  0  0  0  0  0  0  0  0  0
  -25.5082   -0.8279    3.7887 H   0  0  0  0  0  0  0  0  0  0  0  0
  -26.7224   -1.7514    2.7865 H   0  0  0  0  0  0  0  0  0  0  0  0
  -20.7321   -4.4282    3.4852 H   0  0  0  0  0  0  0  0  0  0  0  0
  -22.9155   -4.3117    2.3109 H   0  0  0  0  0  0  0  0  0  0  0  0
  -19.8550   -1.7873    7.5076 H   0  0  0  0  0  0  0  0  0  0  0  0
  -20.7777    0.0953    8.3920 H   0  0  0  0  0  0  0  0  0  0  0  0
  -21.9712    1.6682    9.8868 H   0  0  0  0  0  0  0  0  0  0  0  0
  1  3  1  0
  1  5  1  0
  2  9  1  0
  2 16  1  0
  3 15  2  0
  3 16  1  0
  4 25  1  0
  4 26  1  0
  5 19  2  0
  5 35  1  0
  6 19  1  0
  6 21  1  0
  7  9  2  0
  7 13  1  0
  7 18  1  0
  8  9  1  0
  8 11  2  0
 10 14  1  0
 10 28  1  0
 10 29  1  0
 11 12  1  0
 12 13  2  0
 12 17  1  0
 14 32  2  0
 19 20  1  0
 20 33  2  0
 21 22  1  0
 22 23  1  0
 23 24  1  0
 24 25  1  0
 26 27  2  0
 26 30  1  0
 27 28  1  0
 28 31  2  0
 29 30  2  0
 31 32  1  0
 31 33  1  0
 33 34  1  0
 34 35  2  0
  1 36  1  0
  2 37  1  0
  2 38  1  0
  4 39  1  0
  8 40  1  0
 11 41  1  0
 13 42  1  0
 16 43  1  0
 18 44  1  0
 18 45  1  0
 18 46  1  0
 20 47  1  0
 21 48  1  0
 21 49  1  0
 22 50  1  0
 22 51  1  0
 24 52  1  0
 24 53  1  0
 25 54  1  0
 25 55  1  0
 29 56  1  0
 30 57  1  0
 32 58  1  0
 34 59  1  0
 35 60  1  0
M  END
>  <filename_input>  (24) 
7QGP_DJ8_docked.sdf

>  <pdb_id>  (24) 
7QGP_DJ8

>  <pose_rank>  (24) 
23

>  <num_atoms_heavy>  (24) 
35

>  <num_torsions>  (24) 
3

>  <pose>  (24) 
[-24.94586679395472, -2.744123288634748, 3.1772560711597255, 0.21121329679015702, 1.2850535353042996, -0.5681172781825554, -0.5973489967819356, -4.761812932864519, -4.662604307613297]

>  <energy>  (24) 
-508.90967628374625

>  <inter_energy>  (24) 
-530.9117478270153

>  <intra_energy>  (24) 
52.86367337515702

>  <rmsd>  (24) 
7.81564

>  <sdf_rank>  (24) 
0

$$$$

     RDKit          3D

 60 64  0  0  0  0  0  0  0  0999 V2000
  -24.3831    4.1465   13.7828 N   0  0  0  0  0  0  0  0  0  0  0  0
  -21.1180    2.5289   13.3632 C   0  0  0  0  0  0  0  0  0  0  0  0
  -23.4620    3.1312   13.8393 C   0  0  0  0  0  0  0  0  0  0  0  0
  -32.2013    5.6390   11.4944 N   0  0  0  0  0  0  0  0  0  0  0  0
  -25.7358    4.0209   14.1986 C   0  0  0  0  0  0  0  0  0  0  0  0
  -26.2203    5.8960   12.8833 O   0  0  0  0  0  0  0  0  0  0  0  0
  -19.8141    0.9690   11.8399 C   0  0  0  0  0  0  0  0  0  0  0  0
  -22.1447    1.4054   11.3704 C   0  0  0  0  0  0  0  0  0  0  0  0
  -21.0190    1.6160   12.1634 C   0  0  0  0  0  0  0  0  0  0  0  0
  -32.0928    3.4856   14.8899 N   0  0  0  0  0  0  0  0  0  0  0  0
  -22.0995    0.5800   10.2665 C   0  0  0  0  0  0  0  0  0  0  0  0
  -20.9139   -0.0364    9.9477 C   0  0  0  0  0  0  0  0  0  0  0  0
  -19.7838    0.1386   10.7204 C   0  0  0  0  0  0  0  0  0  0  0  0
  -31.8044    2.7060   15.9879 N   0  0  0  0  0  0  0  0  0  0  0  0
  -23.6793    2.0697   14.4116 O   0  0  0  0  0  0  0  0  0  0  0  0
  -22.2549    3.4397   13.3028 N   0  0  0  0  0  0  0  0  0  0  0  0
  -20.8118   -0.9891    8.4921 Cl  0  0  0  0  0  0  0  0  0  0  0  0
  -18.5653    1.1510   12.6646 C   0  0  0  0  0  0  0  0  0  0  0  0
  -26.6984    4.8731   13.6521 C   0  0  0  0  0  0  0  0  0  0  0  0
  -28.0415    4.6777   13.9124 C   0  0  0  0  0  0  0  0  0  0  0  0
  -27.1662    6.8457   12.3434 C   0  0  0  0  0  0  0  0  0  0  0  0
  -27.9102    6.2607   11.1659 C   0  0  0  0  0  0  0  0  0  0  0  0
  -28.9151    7.1731   10.7146 O   0  0  0  0  0  0  0  0  0  0  0  0
  -30.2040    7.1024   11.3533 C   0  0  0  0  0  0  0  0  0  0  0  0
  -31.0085    5.9895   10.7284 C   0  0  0  0  0  0  0  0  0  0  0  0
  -32.1965    4.8877   12.6240 C   0  0  0  0  0  0  0  0  0  0  0  0
  -30.9936    4.5525   13.0786 N   0  0  0  0  0  0  0  0  0  0  0  0
  -30.9693    3.9416   14.2717 C   0  0  0  0  0  0  0  0  0  0  0  0
  -33.3259    3.7749   14.3943 C   0  0  0  0  0  0  0  0  0  0  0  0
  -33.4147    4.4983   13.2565 C   0  0  0  0  0  0  0  0  0  0  0  0
  -29.8848    3.4239   14.9959 C   0  0  0  0  0  0  0  0  0  0  0  0
  -30.4803    2.6865   16.0297 C   0  0  0  0  0  0  0  0  0  0  0  0
  -28.4461    3.6304   14.7307 C   0  0  0  0  0  0  0  0  0  0  0  0
  -27.4878    2.7948   15.2917 C   0  0  0  0  0  0  0  0  0  0  0  0
  -26.1425    2.9884   15.0372 C   0  0  0  0  0  0  0  0  0  0  0  0
  -24.0742    5.0579   13.4156 H   0  0  0  0  0  0  0  0  0  0  0  0
  -21.2150    1.9089   14.2666 H   0  0  0  0  0  0  0  0  0  0  0  0
  -20.2072    3.1455   13.3795 H   0  0  0  0  0  0  0  0  0  0  0  0
  -33.1091    5.9861   11.1534 H   0  0  0  0  0  0  0  0  0  0  0  0
  -23.0885    1.9074   11.6299 H   0  0  0  0  0  0  0  0  0  0  0  0
  -22.9973    0.4180    9.6518 H   0  0  0  0  0  0  0  0  0  0  0  0
  -18.8524   -0.3808   10.4510 H   0  0  0  0  0  0  0  0  0  0  0  0
  -22.1373    4.3502   12.8359 H   0  0  0  0  0  0  0  0  0  0  0  0
  -18.8229    1.1134   13.7333 H   0  0  0  0  0  0  0  0  0  0  0  0
  -17.8513    0.3474   12.4311 H   0  0  0  0  0  0  0  0  0  0  0  0
  -18.1103    2.1249   12.4311 H   0  0  0  0  0  0  0  0  0  0  0  0
  -28.7906    5.3518   13.4715 H   0  0  0  0  0  0  0  0  0  0  0  0
  -27.8893    7.1178   13.1264 H   0  0  0  0  0  0  0  0  0  0  0  0
  -26.6142    7.7340   12.0023 H   0  0  0  0  0  0  0  0  0  0  0  0
  -27.2011    6.0672   10.3476 H   0  0  0  0  0  0  0  0  0  0  0  0
  -28.3912    5.3212   11.4757 H   0  0  0  0  0  0  0  0  0  0  0  0
  -30.0718    6.9025   12.4269 H   0  0  0  0  0  0  0  0  0  0  0  0
  -30.7331    8.0580   11.2234 H   0  0  0  0  0  0  0  0  0  0  0  0
  -30.3691    5.0978   10.6503 H   0  0  0  0  0  0  0  0  0  0  0  0
  -31.3463    6.3448    9.7437 H   0  0  0  0  0  0  0  0  0  0  0  0
  -34.2332    3.4268   14.9097 H   0  0  0  0  0  0  0  0  0  0  0  0
  -34.3910    4.7769   12.8331 H   0  0  0  0  0  0  0  0  0  0  0  0
  -29.9063    2.1466   16.7973 H   0  0  0  0  0  0  0  0  0  0  0  0
  -27.8035    1.9690   15.9463 H   0  0  0  0  0  0  0  0  0  0  0  0
  -25.3944    2.3263   15.4977 H   0  0  0  0  0  0  0  0  0  0  0  0
  1  3  1  0
  1  5  1  0
  2  9  1  0
  2 16  1  0
  3 15  2  0
  3 16  1  0
  4 25  1  0
  4 26  1  0
  5 19  2  0
  5 35  1  0
  6 19  1  0
  6 21  1  0
  7  9  2  0
  7 13  1  0
  7 18  1  0
  8  9  1  0
  8 11  2  0
 10 14  1  0
 10 28  1  0
 10 29  1  0
 11 12  1  0
 12 13  2  0
 12 17  1  0
 14 32  2  0
 19 20  1  0
 20 33  2  0
 21 22  1  0
 22 23  1  0
 23 24  1  0
 24 25  1  0
 26 27  2  0
 26 30  1  0
 27 28  1  0
 28 31  2  0
 29 30  2  0
 31 32  1  0
 31 33  1  0
 33 34  1  0
 34 35  2  0
  1 36  1  0
  2 37  1  0
  2 38  1  0
  4 39  1  0
  8 40  1  0
 11 41  1  0
 13 42  1  0
 16 43  1  0
 18 44  1  0
 18 45  1  0
 18 46  1  0
 20 47  1  0
 21 48  1  0
 21 49  1  0
 22 50  1  0
 22 51  1  0
 24 52  1  0
 24 53  1  0
 25 54  1  0
 25 55  1  0
 29 56  1  0
 30 57  1  0
 32 58  1  0
 34 59  1  0
 35 60  1  0
M  END
>  <filename_input>  (25) 
7QGP_DJ8_docked.sdf

>  <pdb_id>  (25) 
7QGP_DJ8

>  <pose_rank>  (25) 
24

>  <num_atoms_heavy>  (25) 
35

>  <num_torsions>  (25) 
3

>  <pose>  (25) 
[-32.20132519878371, 5.6389770292959245, 11.494375194775943, -0.6387467743203693, -0.4875331852842251, 3.2963256858104164, 1.1290491734976191, -7.00546334999765, 4.3329346788979395]

>  <energy>  (25) 
-498.12739922349226

>  <inter_energy>  (25) 
-519.4961471346809

>  <intra_energy>  (25) 
32.780735197222505

>  <rmsd>  (25) 
10.0545

>  <sdf_rank>  (25) 
0

$$$$

     RDKit          3D

 60 64  0  0  0  0  0  0  0  0999 V2000
  -28.3200    4.4020   11.2370 N   0  0  0  0  0  0  0  0  0  0  0  0
  -31.8750    5.2580   10.9500 C   0  0  0  0  0  0  0  0  0  0  0  0
  -29.6030    4.6230   11.6700 C   0  0  0  0  0  0  0  0  0  0  0  0
  -20.6680    1.2340   11.2570 N   0  0  0  0  0  0  0  0  0  0  0  0
  -27.2450    4.0250   12.0860 C   0  0  0  0  0  0  0  0  0  0  0  0
  -26.6420    2.4420   10.4700 O   0  0  0  0  0  0  0  0  0  0  0  0
  -32.3510    7.7370   11.2370 C   0  0  0  0  0  0  0  0  0  0  0  0
  -32.9210    6.6570    9.1510 C   0  0  0  0  0  0  0  0  0  0  0  0
  -32.3960    6.5810   10.4390 C   0  0  0  0  0  0  0  0  0  0  0  0
  -21.7040    2.4900   14.9350 N   0  0  0  0  0  0  0  0  0  0  0  0
  -33.4070    7.8440    8.6440 C   0  0  0  0  0  0  0  0  0  0  0  0
  -33.3740    8.9660    9.4360 C   0  0  0  0  0  0  0  0  0  0  0  0
  -32.8470    8.9290   10.7110 C   0  0  0  0  0  0  0  0  0  0  0  0
  -22.2510    3.0480   16.0690 N   0  0  0  0  0  0  0  0  0  0  0  0
  -29.9760    4.3510   12.8050 O   0  0  0  0  0  0  0  0  0  0  0  0
  -30.4500    5.0670   10.7080 N   0  0  0  0  0  0  0  0  0  0  0  0
  -34.0890   10.4440    8.8520 Cl  0  0  0  0  0  0  0  0  0  0  0  0
  -31.7870    7.7190   12.6350 C   0  0  0  0  0  0  0  0  0  0  0  0
  -26.3240    3.0750   11.6380 C   0  0  0  0  0  0  0  0  0  0  0  0
  -25.1830    2.8010   12.3680 C   0  0  0  0  0  0  0  0  0  0  0  0
  -25.7570    1.4050    9.9910 C   0  0  0  0  0  0  0  0  0  0  0  0
  -24.5120    1.9970    9.3730 C   0  0  0  0  0  0  0  0  0  0  0  0
  -23.6020    0.9570    9.0040 O   0  0  0  0  0  0  0  0  0  0  0  0
  -22.6830    0.4970   10.0130 C   0  0  0  0  0  0  0  0  0  0  0  0
  -21.5030    1.4350   10.0760 C   0  0  0  0  0  0  0  0  0  0  0  0
  -20.9780    1.6750   12.5020 C   0  0  0  0  0  0  0  0  0  0  0  0
  -22.1760    2.2370   12.6240 N   0  0  0  0  0  0  0  0  0  0  0  0
  -22.5550    2.5390   13.8740 C   0  0  0  0  0  0  0  0  0  0  0  0
  -20.4540    1.9710   14.8010 C   0  0  0  0  0  0  0  0  0  0  0  0
  -20.0600    1.5330   13.5850 C   0  0  0  0  0  0  0  0  0  0  0  0
  -23.7190    3.1740   14.3330 C   0  0  0  0  0  0  0  0  0  0  0  0
  -23.4540    3.4470   15.6830 C   0  0  0  0  0  0  0  0  0  0  0  0
  -24.9460    3.4670   13.5640 C   0  0  0  0  0  0  0  0  0  0  0  0
  -25.8720    4.3970   14.0210 C   0  0  0  0  0  0  0  0  0  0  0  0
  -27.0170    4.6720   13.2960 C   0  0  0  0  0  0  0  0  0  0  0  0
  -28.1237    4.5167   10.2324 H   0  0  0  0  0  0  0  0  0  0  0  0
  -32.0549    5.2071   12.0340 H   0  0  0  0  0  0  0  0  0  0  0  0
  -32.4073    4.4653   10.4038 H   0  0  0  0  0  0  0  0  0  0  0  0
  -19.7824    0.7220   11.1365 H   0  0  0  0  0  0  0  0  0  0  0  0
  -32.9485    5.7523    8.5258 H   0  0  0  0  0  0  0  0  0  0  0  0
  -33.8140    7.8915    7.6232 H   0  0  0  0  0  0  0  0  0  0  0  0
  -32.8181    9.8468   11.3167 H   0  0  0  0  0  0  0  0  0  0  0  0
  -30.0728    5.2768    9.7728 H   0  0  0  0  0  0  0  0  0  0  0  0
  -32.6110    7.7453   13.3632 H   0  0  0  0  0  0  0  0  0  0  0  0
  -31.1979    6.8016   12.7809 H   0  0  0  0  0  0  0  0  0  0  0  0
  -31.1406    8.5970   12.7809 H   0  0  0  0  0  0  0  0  0  0  0  0
  -24.4621    2.0552   12.0019 H   0  0  0  0  0  0  0  0  0  0  0  0
  -25.4682    0.7608   10.8346 H   0  0  0  0  0  0  0  0  0  0  0  0
  -26.2854    0.8212    9.2229 H   0  0  0  0  0  0  0  0  0  0  0  0
  -24.7891    2.5722    8.4773 H   0  0  0  0  0  0  0  0  0  0  0  0
  -24.0254    2.6564   10.1068 H   0  0  0  0  0  0  0  0  0  0  0  0
  -23.1891    0.4767   10.9895 H   0  0  0  0  0  0  0  0  0  0  0  0
  -22.3360   -0.5161    9.7617 H   0  0  0  0  0  0  0  0  0  0  0  0
  -21.8788    2.4688   10.0859 H   0  0  0  0  0  0  0  0  0  0  0  0
  -20.8766    1.2303    9.1953 H   0  0  0  0  0  0  0  0  0  0  0  0
  -19.7770    1.9090   15.6657 H   0  0  0  0  0  0  0  0  0  0  0  0
  -19.0674    1.0832   13.4354 H   0  0  0  0  0  0  0  0  0  0  0  0
  -24.1721    3.9421   16.3533 H   0  0  0  0  0  0  0  0  0  0  0  0
  -25.6919    4.9209   14.9713 H   0  0  0  0  0  0  0  0  0  0  0  0
  -27.7470    5.4019   13.6760 H   0  0  0  0  0  0  0  0  0  0  0  0
  1  3  1  0
  1  5  1  0
  2  9  1  0
  2 16  1  0
  3 15  2  0
  3 16  1  0
  4 25  1  0
  4 26  1  0
  5 19  2  0
  5 35  1  0
  6 19  1  0
  6 21  1  0
  7  9  2  0
  7 13  1  0
  7 18  1  0
  8  9  1  0
  8 11  2  0
 10 14  1  0
 10 28  1  0
 10 29  1  0
 11 12  1  0
 12 13  2  0
 12 17  1  0
 14 32  2  0
 19 20  1  0
 20 33  2  0
 21 22  1  0
 22 23  1  0
 23 24  1  0
 24 25  1  0
 26 27  2  0
 26 30  1  0
 27 28  1  0
 28 31  2  0
 29 30  2  0
 31 32  1  0
 31 33  1  0
 33 34  1  0
 34 35  2  0
  1 36  1  0
  2 37  1  0
  2 38  1  0
  4 39  1  0
  8 40  1  0
 11 41  1  0
 13 42  1  0
 16 43  1  0
 18 44  1  0
 18 45  1  0
 18 46  1  0
 20 47  1  0
 21 48  1  0
 21 49  1  0
 22 50  1  0
 22 51  1  0
 24 52  1  0
 24 53  1  0
 25 54  1  0
 25 55  1  0
 29 56  1  0
 30 57  1  0
 32 58  1  0
 34 59  1  0
 35 60  1  0
M  END
>  <filename_input>  (26) 
7QGP_DJ8_docked.sdf

>  <pdb_id>  (26) 
7QGP_DJ8

>  <pose_rank>  (26) 
25

>  <num_atoms_heavy>  (26) 
35

>  <num_torsions>  (26) 
3

>  <pose>  (26) 
[-20.668, 1.234, 11.257, 1e-06, 1e-06, 1e-06, 0.0, 0.0, 0.0]

>  <energy>  (26) 
-1643.3429256717839

>  <inter_energy>  (26) 
-1669.1612757052467

>  <intra_energy>  (26) 
10.975834688245005

>  <rmsd>  (26) 
0.0

>  <sdf_rank>  (26) 
0

$$$$
