
     RDKit          3D

 73 76  0  0  0  0  0  0  0  0999 V2000
   46.0450   -8.6676  103.5844 C   0  0  0  0  0  0  0  0  0  0  0  0
   47.8027  -11.5899  107.8547 C   0  0  0  0  0  0  0  0  0  0  0  0
   42.8444  -15.3860  110.6996 C   0  0  0  0  0  0  0  0  0  0  0  0
   44.5445  -16.9696  110.1341 C   0  0  0  0  0  0  0  0  0  0  0  0
   47.9828  -10.0841  103.5771 C   0  0  0  0  0  0  0  0  0  0  0  0
   47.4026   -8.8410  103.7733 C   0  0  0  0  0  0  0  0  0  0  0  0
   45.2643   -9.7350  103.1886 C   0  0  0  0  0  0  0  0  0  0  0  0
   43.7960  -14.3788  110.7469 C   0  0  0  0  0  0  0  0  0  0  0  0
   45.4965  -15.9645  110.1774 C   0  0  0  0  0  0  0  0  0  0  0  0
   45.8303  -10.9814  102.9920 C   0  0  0  0  0  0  0  0  0  0  0  0
   45.8342  -12.7391  107.1181 C   0  0  0  0  0  0  0  0  0  0  0  0
   46.2764  -10.0708  112.9568 N   0  0  0  0  0  0  0  0  0  0  0  0
   47.1889   -5.9789  114.5494 N   0  0  0  0  0  0  0  0  0  0  0  0
   43.2184  -16.6815  110.3926 C   0  0  0  0  0  0  0  0  0  0  0  0
   45.7143   -4.4787  115.6128 N   0  0  0  0  0  0  0  0  0  0  0  0
   43.1286   -2.6381  117.5713 C   0  0  0  0  0  0  0  0  0  0  0  0
   44.3579   -1.6902  115.5947 C   0  0  0  0  0  0  0  0  0  0  0  0
   46.4947  -13.1472  105.9714 C   0  0  0  0  0  0  0  0  0  0  0  0
   48.4719  -11.9939  106.7147 C   0  0  0  0  0  0  0  0  0  0  0  0
   45.9263  -11.4739  112.7605 C   0  0  0  0  0  0  0  0  0  0  0  0
   44.9747  -11.6760  111.5807 C   0  0  0  0  0  0  0  0  0  0  0  0
   47.1799   -7.2464  113.9926 C   0  0  0  0  0  0  0  0  0  0  0  0
   46.1763  -13.5585  110.4690 C   0  0  0  0  0  0  0  0  0  0  0  0
   44.3840   -2.7354  116.6984 C   0  0  2  0  0  0  0  0  0  0  0  0
   45.1348  -14.6541  110.4775 C   0  0  0  0  0  0  0  0  0  0  0  0
   46.4731  -11.9465  108.0689 C   0  0  0  0  0  0  0  0  0  0  0  0
   47.1937  -11.1654  103.1993 C   0  0  0  0  0  0  0  0  0  0  0  0
   47.8096  -12.7618  105.7711 C   0  0  0  0  0  0  0  0  0  0  0  0
   45.9835   -7.9075  113.9891 C   0  0  0  0  0  0  0  0  0  0  0  0
   44.4728   -4.1265  116.0790 C   0  0  0  0  0  0  0  0  0  0  0  0
   45.4760   -9.2535  113.6469 C   0  0  0  0  0  0  0  0  0  0  0  0
   45.7617  -11.4131  109.2756 C   0  0  0  0  0  0  0  0  0  0  0  0
   45.9893   -5.6745  114.9774 C   0  0  0  0  0  0  0  0  0  0  0  0
   47.7746  -12.4687  103.0785 N   0  0  0  0  0  0  0  0  0  0  0  0
   45.6368  -12.1963  110.3722 N   0  0  0  0  0  0  0  0  0  0  0  0
   43.4890   -4.8598  115.9907 O   0  0  0  0  0  0  0  0  0  0  0  0
   44.3790   -9.6157  114.0562 O   0  0  0  0  0  0  0  0  0  0  0  0
   45.3242  -10.2756  109.2478 O   0  0  0  0  0  0  0  0  0  0  0  0
   49.9079  -12.5349  104.2550 O   0  0  0  0  0  0  0  0  0  0  0  0
   48.5524  -14.6030  104.0934 O   0  0  0  0  0  0  0  0  0  0  0  0
   44.7835   -6.8822  114.7076 S   0  0  0  0  0  0  0  0  0  0  0  0
   48.6317  -13.1851  104.2699 S   0  0  1  0  0  0  0  0  0  0  0  0
   45.5872   -7.6810  103.7490 H   0  0  0  0  0  0  0  0  0  0  0  0
   48.3274  -10.9781  108.6034 H   0  0  0  0  0  0  0  0  0  0  0  0
   41.7893  -15.1541  110.9069 H   0  0  0  0  0  0  0  0  0  0  0  0
   44.8452  -17.9999  109.8932 H   0  0  0  0  0  0  0  0  0  0  0  0
   49.0655  -10.2155  103.7199 H   0  0  0  0  0  0  0  0  0  0  0  0
   48.0258   -7.9884  104.0808 H   0  0  0  0  0  0  0  0  0  0  0  0
   44.1853   -9.5932  103.0285 H   0  0  0  0  0  0  0  0  0  0  0  0
   43.4909  -13.3525  110.9996 H   0  0  0  0  0  0  0  0  0  0  0  0
   46.5503  -16.2044  109.9724 H   0  0  0  0  0  0  0  0  0  0  0  0
   45.2031  -11.8266  102.6721 H   0  0  0  0  0  0  0  0  0  0  0  0
   44.7902  -13.0452  107.2805 H   0  0  0  0  0  0  0  0  0  0  0  0
   47.1528   -9.7054  112.5577 H   0  0  0  0  0  0  0  0  0  0  0  0
   42.4625  -17.4798  110.3543 H   0  0  0  0  0  0  0  0  0  0  0  0
   46.4879   -3.8115  115.7444 H   0  0  0  0  0  0  0  0  0  0  0  0
   43.4173   -2.6605  118.6325 H   0  0  0  0  0  0  0  0  0  0  0  0
   42.6030   -1.6965  117.3541 H   0  0  0  0  0  0  0  0  0  0  0  0
   42.4642   -3.4874  117.3541 H   0  0  0  0  0  0  0  0  0  0  0  0
   44.3328   -0.6855  116.0417 H   0  0  0  0  0  0  0  0  0  0  0  0
   45.2589   -1.7921  114.9719 H   0  0  0  0  0  0  0  0  0  0  0  0
   43.4631   -1.8369  114.9719 H   0  0  0  0  0  0  0  0  0  0  0  0
   45.9797  -13.7716  105.2265 H   0  0  0  0  0  0  0  0  0  0  0  0
   49.5224  -11.7078  106.5580 H   0  0  0  0  0  0  0  0  0  0  0  0
   46.8475  -12.0454  112.5737 H   0  0  0  0  0  0  0  0  0  0  0  0
   45.4139  -11.8228  113.6692 H   0  0  0  0  0  0  0  0  0  0  0  0
   44.1925  -12.3881  111.8827 H   0  0  0  0  0  0  0  0  0  0  0  0
   44.5644  -10.6882  111.3241 H   0  0  0  0  0  0  0  0  0  0  0  0
   48.0906   -7.6992  113.5736 H   0  0  0  0  0  0  0  0  0  0  0  0
   46.7569  -13.6311  111.4004 H   0  0  0  0  0  0  0  0  0  0  0  0
   46.7835  -13.7158  109.5653 H   0  0  0  0  0  0  0  0  0  0  0  0
   45.2633   -2.5535  117.3337 H   0  0  0  0  0  0  0  0  0  0  0  0
   47.6451  -12.9810  102.1943 H   0  0  0  0  0  0  0  0  0  0  0  0
  1  6  2  0
  1  7  1  0
  2 19  2  0
  2 26  1  0
  3  8  2  0
  3 14  1  0
  4  9  1  0
  4 14  2  0
  5  6  1  0
  5 27  2  0
  7 10  2  0
  8 25  1  0
  9 25  2  0
 10 27  1  0
 11 18  1  0
 11 26  2  0
 12 20  1  0
 12 31  1  0
 13 22  1  0
 13 33  2  0
 15 30  1  0
 15 33  1  0
 24 16  1  0
 17 24  1  0
 18 28  2  0
 19 28  1  0
 20 21  1  0
 21 35  1  0
 22 29  2  0
 23 25  1  0
 23 35  1  0
 24 30  1  0
 26 32  1  0
 27 34  1  0
 28 42  1  0
 29 31  1  0
 29 41  1  0
 30 36  2  0
 31 37  2  0
 32 35  1  0
 32 38  2  0
 33 41  1  0
 42 34  1  6
 39 42  2  0
 40 42  2  0
  1 43  1  0
  2 44  1  0
  3 45  1  0
  4 46  1  0
  5 47  1  0
  6 48  1  0
  7 49  1  0
  8 50  1  0
  9 51  1  0
 10 52  1  0
 11 53  1  0
 12 54  1  0
 14 55  1  0
 15 56  1  0
 16 57  1  0
 16 58  1  0
 16 59  1  0
 17 60  1  0
 17 61  1  0
 17 62  1  0
 18 63  1  0
 19 64  1  0
 20 65  1  0
 20 66  1  0
 21 67  1  0
 21 68  1  0
 22 69  1  0
 23 70  1  0
 23 71  1  0
 24 72  1  1
 34 73  1  0
M  END
>  <filename_input>  (1) 
7QHG_T3B_docked.sdf

>  <pdb_id>  (1) 
7QHG_T3B

>  <pose_rank>  (1) 
0

>  <num_atoms_heavy>  (1) 
42

>  <num_torsions>  (1) 
11

>  <pose>  (1) 
[45.76165712457436, -11.413089675582933, 109.27555678556521, 2.802166353832632, -5.286279226895121, -1.7190798503462588, 0.23280870348049515, 5.225402717952818, 1.4799450174446185, -0.9540727271534498, 0.04695870303149264, 6.387893712444136, 0.22240711909491837, -0.10459956807432771, -0.016320260647246267, 0.19866241822234124, -0.9290561789784192]

>  <energy>  (1) 
-1194.6700086317276

>  <inter_energy>  (1) 
-1234.4145826799872

>  <intra_energy>  (1) 
35.24426541558068

>  <rmsd>  (1) 
0.704929

>  <sdf_rank>  (1) 
0

$$$$

     RDKit          3D

 73 76  0  0  0  0  0  0  0  0999 V2000
   49.9024  -15.3503  100.4814 C   0  0  0  0  0  0  0  0  0  0  0  0
   46.7305  -12.5896  107.5392 C   0  0  0  0  0  0  0  0  0  0  0  0
   42.8588  -16.1913  110.8849 C   0  0  0  0  0  0  0  0  0  0  0  0
   45.0218  -15.9935  111.8849 C   0  0  0  0  0  0  0  0  0  0  0  0
   48.8259  -13.3678  101.3012 C   0  0  0  0  0  0  0  0  0  0  0  0
   49.5673  -14.0188  100.3281 C   0  0  0  0  0  0  0  0  0  0  0  0
   49.5057  -16.0329  101.6137 C   0  0  0  0  0  0  0  0  0  0  0  0
   43.0937  -15.0424  110.1453 C   0  0  0  0  0  0  0  0  0  0  0  0
   45.2603  -14.8473  111.1447 C   0  0  0  0  0  0  0  0  0  0  0  0
   48.7631  -15.3958  102.5911 C   0  0  0  0  0  0  0  0  0  0  0  0
   46.4480  -10.2337  107.2095 C   0  0  0  0  0  0  0  0  0  0  0  0
   44.3750   -9.6814  112.2644 N   0  0  0  0  0  0  0  0  0  0  0  0
   46.6285   -6.2074  114.2677 N   0  0  0  0  0  0  0  0  0  0  0  0
   43.8230  -16.6675  111.7544 C   0  0  0  0  0  0  0  0  0  0  0  0
   45.3167   -4.4041  115.0315 N   0  0  0  0  0  0  0  0  0  0  0  0
   42.7875   -1.9011  116.2242 C   0  0  0  0  0  0  0  0  0  0  0  0
   44.7391   -1.5140  114.6885 C   0  0  0  0  0  0  0  0  0  0  0  0
   46.7811  -10.3752  105.8728 C   0  0  0  0  0  0  0  0  0  0  0  0
   47.0618  -12.7421  106.2060 C   0  0  0  0  0  0  0  0  0  0  0  0
   43.9051  -11.0260  111.9463 C   0  0  0  0  0  0  0  0  0  0  0  0
   45.0502  -11.9696  111.5769 C   0  0  0  0  0  0  0  0  0  0  0  0
   46.4729   -7.5150  113.8404 C   0  0  0  0  0  0  0  0  0  0  0  0
   44.5980  -13.1381  109.4196 C   0  0  0  0  0  0  0  0  0  0  0  0
   44.1820   -2.3797  115.8071 C   0  0  2  0  0  0  0  0  0  0  0  0
   44.3027  -14.3596  110.2597 C   0  0  0  0  0  0  0  0  0  0  0  0
   46.4293  -11.3343  108.0632 C   0  0  0  0  0  0  0  0  0  0  0  0
   48.4071  -14.0602  102.4324 C   0  0  0  0  0  0  0  0  0  0  0  0
   47.0974  -11.6303  105.3805 C   0  0  0  0  0  0  0  0  0  0  0  0
   45.1946   -7.9961  113.7874 C   0  0  0  0  0  0  0  0  0  0  0  0
   44.1092   -3.8298  115.3394 C   0  0  0  0  0  0  0  0  0  0  0  0
   44.5187   -9.2865  113.5325 C   0  0  0  0  0  0  0  0  0  0  0  0
   46.1617  -11.2038  109.5323 C   0  0  0  0  0  0  0  0  0  0  0  0
   45.4581   -5.6902  114.5465 C   0  0  0  0  0  0  0  0  0  0  0  0
   47.5696  -13.4150  103.3983 N   0  0  0  0  0  0  0  0  0  0  0  0
   45.2967  -12.0578  110.1273 N   0  0  0  0  0  0  0  0  0  0  0  0
   43.0362   -4.4215  115.2300 O   0  0  0  0  0  0  0  0  0  0  0  0
   44.1732   -9.9920  114.4732 O   0  0  0  0  0  0  0  0  0  0  0  0
   46.7438  -10.3386  110.1636 O   0  0  0  0  0  0  0  0  0  0  0  0
   46.6286  -11.2333  102.8556 O   0  0  0  0  0  0  0  0  0  0  0  0
   48.9843  -11.3794  103.6105 O   0  0  0  0  0  0  0  0  0  0  0  0
   44.1094   -6.7374  114.2828 S   0  0  0  0  0  0  0  0  0  0  0  0
   47.6238  -11.8123  103.7077 S   0  0  1  0  0  0  0  0  0  0  0  0
   50.4842  -15.8654   99.7028 H   0  0  0  0  0  0  0  0  0  0  0  0
   46.7043  -13.4718  108.1958 H   0  0  0  0  0  0  0  0  0  0  0  0
   41.9030  -16.7255  110.7798 H   0  0  0  0  0  0  0  0  0  0  0  0
   45.7891  -16.3680  112.5785 H   0  0  0  0  0  0  0  0  0  0  0  0
   48.5690  -12.3052  101.1792 H   0  0  0  0  0  0  0  0  0  0  0  0
   49.8905  -13.4729   99.4295 H   0  0  0  0  0  0  0  0  0  0  0  0
   49.7820  -17.0902  101.7395 H   0  0  0  0  0  0  0  0  0  0  0  0
   42.3182  -14.6663  109.4618 H   0  0  0  0  0  0  0  0  0  0  0  0
   46.2171  -14.3164  111.2574 H   0  0  0  0  0  0  0  0  0  0  0  0
   48.4542  -15.9445  103.4931 H   0  0  0  0  0  0  0  0  0  0  0  0
   46.1947   -9.2381  107.6028 H   0  0  0  0  0  0  0  0  0  0  0  0
   44.5989   -9.0277  111.5005 H   0  0  0  0  0  0  0  0  0  0  0  0
   43.6361  -17.5797  112.3400 H   0  0  0  0  0  0  0  0  0  0  0  0
   46.1691   -3.8427  115.1703 H   0  0  0  0  0  0  0  0  0  0  0  0
   42.7208   -1.8782  117.3219 H   0  0  0  0  0  0  0  0  0  0  0  0
   42.6119   -0.8912  115.8250 H   0  0  0  0  0  0  0  0  0  0  0  0
   42.0287   -2.5902  115.8250 H   0  0  0  0  0  0  0  0  0  0  0  0
   45.2864   -0.6635  115.1210 H   0  0  0  0  0  0  0  0  0  0  0  0
   45.4223   -2.1121  114.0676 H   0  0  0  0  0  0  0  0  0  0  0  0
   43.9117   -1.1400  114.0676 H   0  0  0  0  0  0  0  0  0  0  0  0
   46.7942   -9.4987  105.2082 H   0  0  0  0  0  0  0  0  0  0  0  0
   47.2955  -13.7388  105.8035 H   0  0  0  0  0  0  0  0  0  0  0  0
   43.3798  -11.4335  112.8226 H   0  0  0  0  0  0  0  0  0  0  0  0
   43.2369  -10.9513  111.0757 H   0  0  0  0  0  0  0  0  0  0  0  0
   45.9683  -11.6101  112.0646 H   0  0  0  0  0  0  0  0  0  0  0  0
   44.7623  -12.9753  111.9171 H   0  0  0  0  0  0  0  0  0  0  0  0
   47.3355   -8.1362  113.5574 H   0  0  0  0  0  0  0  0  0  0  0  0
   45.2227  -13.4502  108.5697 H   0  0  0  0  0  0  0  0  0  0  0  0
   43.6234  -12.7289  109.1151 H   0  0  0  0  0  0  0  0  0  0  0  0
   44.8502   -2.3020  116.6775 H   0  0  0  0  0  0  0  0  0  0  0  0
   46.8982  -13.9916  103.9252 H   0  0  0  0  0  0  0  0  0  0  0  0
  1  6  2  0
  1  7  1  0
  2 19  2  0
  2 26  1  0
  3  8  2  0
  3 14  1  0
  4  9  1  0
  4 14  2  0
  5  6  1  0
  5 27  2  0
  7 10  2  0
  8 25  1  0
  9 25  2  0
 10 27  1  0
 11 18  1  0
 11 26  2  0
 12 20  1  0
 12 31  1  0
 13 22  1  0
 13 33  2  0
 15 30  1  0
 15 33  1  0
 24 16  1  0
 17 24  1  0
 18 28  2  0
 19 28  1  0
 20 21  1  0
 21 35  1  0
 22 29  2  0
 23 25  1  0
 23 35  1  0
 24 30  1  0
 26 32  1  0
 27 34  1  0
 28 42  1  0
 29 31  1  0
 29 41  1  0
 30 36  2  0
 31 37  2  0
 32 35  1  0
 32 38  2  0
 33 41  1  0
 42 34  1  6
 39 42  2  0
 40 42  2  0
  1 43  1  0
  2 44  1  0
  3 45  1  0
  4 46  1  0
  5 47  1  0
  6 48  1  0
  7 49  1  0
  8 50  1  0
  9 51  1  0
 10 52  1  0
 11 53  1  0
 12 54  1  0
 14 55  1  0
 15 56  1  0
 16 57  1  0
 16 58  1  0
 16 59  1  0
 17 60  1  0
 17 61  1  0
 17 62  1  0
 18 63  1  0
 19 64  1  0
 20 65  1  0
 20 66  1  0
 21 67  1  0
 21 68  1  0
 22 69  1  0
 23 70  1  0
 23 71  1  0
 24 72  1  1
 34 73  1  0
M  END
>  <filename_input>  (2) 
7QHG_T3B_docked.sdf

>  <pdb_id>  (2) 
7QHG_T3B

>  <pose_rank>  (2) 
1

>  <num_atoms_heavy>  (2) 
42

>  <num_torsions>  (2) 
11

>  <pose>  (2) 
[46.16166148473633, -11.203839438887442, 109.5322666699133, -2.9520276599717263, -0.6339365453045515, 4.26722100150724, 7.3988074657925305, -5.040907508875831, -1.8513745471553653, -2.4270785898997156, 3.5570759385228117, 9.228045744306849, 9.587339619628574, 17.589586880086397, -0.25991217741697936, 23.56102360997695, -4.472110724024953]

>  <energy>  (2) 
-781.6250604852244

>  <inter_energy>  (2) 
-846.3526103723588

>  <intra_energy>  (2) 
61.16990679375825

>  <rmsd>  (2) 
2.65075

>  <sdf_rank>  (2) 
0

$$$$

     RDKit          3D

 73 76  0  0  0  0  0  0  0  0999 V2000
   43.4909  -16.7323  111.7118 C   0  0  0  0  0  0  0  0  0  0  0  0
   43.6934  -11.5024  110.4970 C   0  0  0  0  0  0  0  0  0  0  0  0
   46.9301  -13.1508  112.2960 C   0  0  0  0  0  0  0  0  0  0  0  0
   46.8391  -13.2354  114.6840 C   0  0  0  0  0  0  0  0  0  0  0  0
   45.1509  -15.9884  110.1458 C   0  0  0  0  0  0  0  0  0  0  0  0
   44.8152  -16.6115  111.3373 C   0  0  0  0  0  0  0  0  0  0  0  0
   42.4978  -16.2213  110.9006 C   0  0  0  0  0  0  0  0  0  0  0  0
   45.7133  -12.4866  112.2715 C   0  0  0  0  0  0  0  0  0  0  0  0
   45.6250  -12.5691  114.6624 C   0  0  0  0  0  0  0  0  0  0  0  0
   42.8190  -15.5997  109.7076 C   0  0  0  0  0  0  0  0  0  0  0  0
   45.8589  -10.5286  110.1800 C   0  0  0  0  0  0  0  0  0  0  0  0
   44.1776   -6.6903  114.7766 N   0  0  0  0  0  0  0  0  0  0  0  0
   43.7268   -2.0281  114.9691 N   0  0  0  0  0  0  0  0  0  0  0  0
   47.4935  -13.5247  113.5023 C   0  0  0  0  0  0  0  0  0  0  0  0
   42.2159   -1.7129  116.7506 N   0  0  0  0  0  0  0  0  0  0  0  0
   39.1795   -1.1943  117.9386 C   0  0  0  0  0  0  0  0  0  0  0  0
   41.2094    0.2447  118.2926 C   0  0  0  0  0  0  0  0  0  0  0  0
   46.1677  -11.5048  109.2476 C   0  0  0  0  0  0  0  0  0  0  0  0
   43.9906  -12.4799  109.5659 C   0  0  0  0  0  0  0  0  0  0  0  0
   44.6989   -8.0089  114.4307 C   0  0  0  0  0  0  0  0  0  0  0  0
   43.5858   -9.0305  114.1953 C   0  0  0  0  0  0  0  0  0  0  0  0
   44.4741   -3.0393  114.3895 C   0  0  0  0  0  0  0  0  0  0  0  0
   43.7496  -11.4061  113.4515 C   0  0  0  0  0  0  0  0  0  0  0  0
   40.6044   -1.1347  118.4987 C   0  0  2  0  0  0  0  0  0  0  0  0
   45.0485  -12.1793  113.4567 C   0  0  0  0  0  0  0  0  0  0  0  0
   44.6246  -10.5197  110.8256 C   0  0  0  0  0  0  0  0  0  0  0  0
   44.1501  -15.4923  109.3171 C   0  0  0  0  0  0  0  0  0  0  0  0
   45.2330  -12.4835  108.9537 C   0  0  0  0  0  0  0  0  0  0  0  0
   44.3469   -4.2866  114.9339 C   0  0  0  0  0  0  0  0  0  0  0  0
   41.4732   -2.1795  117.8057 C   0  0  0  0  0  0  0  0  0  0  0  0
   44.9736   -5.6174  114.7832 C   0  0  0  0  0  0  0  0  0  0  0  0
   44.2918   -9.5329  111.9037 C   0  0  0  0  0  0  0  0  0  0  0  0
   43.0279   -2.5097  115.9664 C   0  0  0  0  0  0  0  0  0  0  0  0
   44.4878  -14.9246  108.0465 N   0  0  0  0  0  0  0  0  0  0  0  0
   43.8805   -9.9837  113.1116 N   0  0  0  0  0  0  0  0  0  0  0  0
   41.4803   -3.3563  118.1642 O   0  0  0  0  0  0  0  0  0  0  0  0
   46.1818   -5.7069  114.5982 O   0  0  0  0  0  0  0  0  0  0  0  0
   44.4154   -8.3423  111.6726 O   0  0  0  0  0  0  0  0  0  0  0  0
   45.4815  -13.3191  106.5057 O   0  0  0  0  0  0  0  0  0  0  0  0
   46.8999  -14.3518  108.2556 O   0  0  0  0  0  0  0  0  0  0  0  0
   43.2100   -4.2058  116.2411 S   0  0  0  0  0  0  0  0  0  0  0  0
   45.6476  -13.7922  107.8474 S   0  0  1  0  0  0  0  0  0  0  0  0
   43.2284  -17.2347  112.6545 H   0  0  0  0  0  0  0  0  0  0  0  0
   42.7077  -11.5003  110.9852 H   0  0  0  0  0  0  0  0  0  0  0  0
   47.4486  -13.3808  111.3536 H   0  0  0  0  0  0  0  0  0  0  0  0
   47.2833  -13.5350  115.6447 H   0  0  0  0  0  0  0  0  0  0  0  0
   46.2071  -15.8864  109.8559 H   0  0  0  0  0  0  0  0  0  0  0  0
   45.6068  -17.0116  111.9878 H   0  0  0  0  0  0  0  0  0  0  0  0
   41.4444  -16.3090  111.2048 H   0  0  0  0  0  0  0  0  0  0  0  0
   45.2685  -12.1997  111.3072 H   0  0  0  0  0  0  0  0  0  0  0  0
   45.1106  -12.3453  115.6086 H   0  0  0  0  0  0  0  0  0  0  0  0
   42.0230  -15.1906  109.0682 H   0  0  0  0  0  0  0  0  0  0  0  0
   46.5989   -9.7490  110.4141 H   0  0  0  0  0  0  0  0  0  0  0  0
   43.1820   -6.5855  115.0189 H   0  0  0  0  0  0  0  0  0  0  0  0
   48.4595  -14.0507  113.5208 H   0  0  0  0  0  0  0  0  0  0  0  0
   42.1651   -0.7081  116.5298 H   0  0  0  0  0  0  0  0  0  0  0  0
   38.4597   -1.2245  118.7699 H   0  0  0  0  0  0  0  0  0  0  0  0
   38.9903   -0.3033  117.3220 H   0  0  0  0  0  0  0  0  0  0  0  0
   39.0655   -2.0980  117.3220 H   0  0  0  0  0  0  0  0  0  0  0  0
   41.4118    0.7061  119.2705 H   0  0  0  0  0  0  0  0  0  0  0  0
   42.1496    0.1522  117.7292 H   0  0  0  0  0  0  0  0  0  0  0  0
   40.5046    0.8738  117.7292 H   0  0  0  0  0  0  0  0  0  0  0  0
   47.1462  -11.5029  108.7452 H   0  0  0  0  0  0  0  0  0  0  0  0
   43.2460  -13.2492  109.3132 H   0  0  0  0  0  0  0  0  0  0  0  0
   45.2992   -7.9222  113.5130 H   0  0  0  0  0  0  0  0  0  0  0  0
   45.3064   -8.3626  115.2768 H   0  0  0  0  0  0  0  0  0  0  0  0
   43.4319   -9.5977  115.1251 H   0  0  0  0  0  0  0  0  0  0  0  0
   42.6894   -8.4679  113.8954 H   0  0  0  0  0  0  0  0  0  0  0  0
   45.1375   -2.8483  113.5331 H   0  0  0  0  0  0  0  0  0  0  0  0
   43.0766  -11.8728  112.7172 H   0  0  0  0  0  0  0  0  0  0  0  0
   43.3628  -11.4441  114.4806 H   0  0  0  0  0  0  0  0  0  0  0  0
   40.5619   -1.3419  119.5782 H   0  0  0  0  0  0  0  0  0  0  0  0
   43.9724  -15.2471  107.2151 H   0  0  0  0  0  0  0  0  0  0  0  0
  1  6  2  0
  1  7  1  0
  2 19  2  0
  2 26  1  0
  3  8  2  0
  3 14  1  0
  4  9  1  0
  4 14  2  0
  5  6  1  0
  5 27  2  0
  7 10  2  0
  8 25  1  0
  9 25  2  0
 10 27  1  0
 11 18  1  0
 11 26  2  0
 12 20  1  0
 12 31  1  0
 13 22  1  0
 13 33  2  0
 15 30  1  0
 15 33  1  0
 24 16  1  0
 17 24  1  0
 18 28  2  0
 19 28  1  0
 20 21  1  0
 21 35  1  0
 22 29  2  0
 23 25  1  0
 23 35  1  0
 24 30  1  0
 26 32  1  0
 27 34  1  0
 28 42  1  0
 29 31  1  0
 29 41  1  0
 30 36  2  0
 31 37  2  0
 32 35  1  0
 32 38  2  0
 33 41  1  0
 42 34  1  1
 39 42  2  0
 40 42  2  0
  1 43  1  0
  2 44  1  0
  3 45  1  0
  4 46  1  0
  5 47  1  0
  6 48  1  0
  7 49  1  0
  8 50  1  0
  9 51  1  0
 10 52  1  0
 11 53  1  0
 12 54  1  0
 14 55  1  0
 15 56  1  0
 16 57  1  0
 16 58  1  0
 16 59  1  0
 17 60  1  0
 17 61  1  0
 17 62  1  0
 18 63  1  0
 19 64  1  0
 20 65  1  0
 20 66  1  0
 21 67  1  0
 21 68  1  0
 22 69  1  0
 23 70  1  0
 23 71  1  0
 24 72  1  1
 34 73  1  0
M  END
>  <filename_input>  (3) 
7QHG_T3B_docked.sdf

>  <pdb_id>  (3) 
7QHG_T3B

>  <pose_rank>  (3) 
2

>  <num_atoms_heavy>  (3) 
42

>  <num_torsions>  (3) 
11

>  <pose>  (3) 
[44.29183929522174, -9.53289402120165, 111.90369601289363, -0.18609945473423462, 0.06563581243267025, -0.46103106965172275, 2.8788137872720383, 0.7712374606406864, -0.14263924344418172, 3.5269733354294504, 1.116367738680343, 0.8062436895889923, 2.1171405128885854, -2.273382830765388, -1.802116989773957, -3.0393283427004363, -1.8848930682078813]

>  <energy>  (3) 
-359.56568412497074

>  <inter_energy>  (3) 
-582.2385513907608

>  <intra_energy>  (3) 
223.5756416832036

>  <rmsd>  (3) 
5.49972

>  <sdf_rank>  (3) 
0

$$$$

     RDKit          3D

 73 76  0  0  0  0  0  0  0  0999 V2000
   38.7054  -19.4202  116.5299 C   0  0  0  0  0  0  0  0  0  0  0  0
   42.3497  -12.0663  115.4555 C   0  0  0  0  0  0  0  0  0  0  0  0
   46.0018  -13.9339  109.6128 C   0  0  0  0  0  0  0  0  0  0  0  0
   46.8913  -14.1475  111.8221 C   0  0  0  0  0  0  0  0  0  0  0  0
   40.3654  -17.7333  116.1300 C   0  0  0  0  0  0  0  0  0  0  0  0
   39.9168  -19.0368  115.9877 C   0  0  0  0  0  0  0  0  0  0  0  0
   37.9427  -18.5036  117.2254 C   0  0  0  0  0  0  0  0  0  0  0  0
   44.8461  -13.3696  110.1308 C   0  0  0  0  0  0  0  0  0  0  0  0
   45.7392  -13.5809  112.3418 C   0  0  0  0  0  0  0  0  0  0  0  0
   38.3775  -17.1990  117.3723 C   0  0  0  0  0  0  0  0  0  0  0  0
   40.6687  -11.5401  113.8319 C   0  0  0  0  0  0  0  0  0  0  0  0
   46.3043   -9.0811  113.1601 N   0  0  0  0  0  0  0  0  0  0  0  0
   46.4778   -5.0836  115.1943 N   0  0  0  0  0  0  0  0  0  0  0  0
   47.0249  -14.3224  110.4582 C   0  0  0  0  0  0  0  0  0  0  0  0
   44.4938   -4.1389  116.0470 N   0  0  0  0  0  0  0  0  0  0  0  0
   43.6260   -1.8435  117.1840 C   0  0  0  0  0  0  0  0  0  0  0  0
   42.2818   -3.5838  118.4010 C   0  0  0  0  0  0  0  0  0  0  0  0
   39.7703  -12.3665  114.4860 C   0  0  0  0  0  0  0  0  0  0  0  0
   41.4600  -12.8916  116.1173 C   0  0  0  0  0  0  0  0  0  0  0  0
   46.0522  -10.3153  112.4230 C   0  0  0  0  0  0  0  0  0  0  0  0
   44.6621  -10.3383  111.7862 C   0  0  0  0  0  0  0  0  0  0  0  0
   46.8778   -6.0729  114.3122 C   0  0  0  0  0  0  0  0  0  0  0  0
   43.4751  -12.5126  112.0806 C   0  0  0  0  0  0  0  0  0  0  0  0
   42.5929   -2.9667  117.0470 C   0  0  2  0  0  0  0  0  0  0  0  0
   44.7036  -13.1778  111.5033 C   0  0  0  0  0  0  0  0  0  0  0  0
   41.9721  -11.3873  114.2991 C   0  0  0  0  0  0  0  0  0  0  0  0
   39.5879  -16.8033  116.8118 C   0  0  0  0  0  0  0  0  0  0  0  0
   40.1760  -13.0474  115.6215 C   0  0  0  0  0  0  0  0  0  0  0  0
   45.8867   -6.7571  113.6657 C   0  0  0  0  0  0  0  0  0  0  0  0
   43.1263   -4.0439  116.1079 C   0  0  0  0  0  0  0  0  0  0  0  0
   45.7681   -7.9233  112.7644 C   0  0  0  0  0  0  0  0  0  0  0  0
   42.9951  -10.5731  113.5662 C   0  0  0  0  0  0  0  0  0  0  0  0
   45.1702   -5.0175  115.2225 C   0  0  0  0  0  0  0  0  0  0  0  0
   40.0077  -15.4363  116.8874 N   0  0  0  0  0  0  0  0  0  0  0  0
   43.6805  -11.1342  112.5429 N   0  0  0  0  0  0  0  0  0  0  0  0
   42.3731   -4.7537  115.4429 O   0  0  0  0  0  0  0  0  0  0  0  0
   45.1297   -7.8285  111.7225 O   0  0  0  0  0  0  0  0  0  0  0  0
   43.1759   -9.4143  113.8989 O   0  0  0  0  0  0  0  0  0  0  0  0
   38.6007  -13.5849  117.6171 O   0  0  0  0  0  0  0  0  0  0  0  0
   38.1460  -14.6596  115.4310 O   0  0  0  0  0  0  0  0  0  0  0  0
   44.3550   -6.1194  114.1705 S   0  0  0  0  0  0  0  0  0  0  0  0
   39.0784  -14.1824  116.4061 S   0  0  1  0  0  0  0  0  0  0  0  0
   38.3493  -20.4538  116.4078 H   0  0  0  0  0  0  0  0  0  0  0  0
   43.3702  -11.9439  115.8475 H   0  0  0  0  0  0  0  0  0  0  0  0
   46.1051  -14.0729  108.5265 H   0  0  0  0  0  0  0  0  0  0  0  0
   47.7021  -14.4590  112.4970 H   0  0  0  0  0  0  0  0  0  0  0  0
   41.3348  -17.4347  115.7044 H   0  0  0  0  0  0  0  0  0  0  0  0
   40.5282  -19.7695  115.4405 H   0  0  0  0  0  0  0  0  0  0  0  0
   36.9832  -18.8128  117.6655 H   0  0  0  0  0  0  0  0  0  0  0  0
   44.0341  -13.0705  109.4517 H   0  0  0  0  0  0  0  0  0  0  0  0
   45.6414  -13.4481  113.4294 H   0  0  0  0  0  0  0  0  0  0  0  0
   37.7670  -16.4749  117.9316 H   0  0  0  0  0  0  0  0  0  0  0  0
   40.3485  -10.9968  112.9307 H   0  0  0  0  0  0  0  0  0  0  0  0
   46.9040   -9.1032  113.9972 H   0  0  0  0  0  0  0  0  0  0  0  0
   47.9418  -14.7690  110.0462 H   0  0  0  0  0  0  0  0  0  0  0  0
   45.0495   -3.5180  116.6523 H   0  0  0  0  0  0  0  0  0  0  0  0
   43.8104   -1.6430  118.2497 H   0  0  0  0  0  0  0  0  0  0  0  0
   44.5657   -2.1486  116.7003 H   0  0  0  0  0  0  0  0  0  0  0  0
   43.2436   -0.9326  116.7003 H   0  0  0  0  0  0  0  0  0  0  0  0
   42.6226   -2.9078  119.1991 H   0  0  0  0  0  0  0  0  0  0  0  0
   41.1969   -3.7407  118.4919 H   0  0  0  0  0  0  0  0  0  0  0  0
   42.8008   -4.5494  118.4919 H   0  0  0  0  0  0  0  0  0  0  0  0
   38.7440  -12.4809  114.1071 H   0  0  0  0  0  0  0  0  0  0  0  0
   41.7693  -13.4207  117.0308 H   0  0  0  0  0  0  0  0  0  0  0  0
   46.8067  -10.4130  111.6286 H   0  0  0  0  0  0  0  0  0  0  0  0
   46.1089  -11.1505  113.1365 H   0  0  0  0  0  0  0  0  0  0  0  0
   44.2934   -9.3042  111.7184 H   0  0  0  0  0  0  0  0  0  0  0  0
   44.7675  -10.8102  110.7982 H   0  0  0  0  0  0  0  0  0  0  0  0
   47.9409   -6.2973  114.1401 H   0  0  0  0  0  0  0  0  0  0  0  0
   42.6958  -12.5006  111.3043 H   0  0  0  0  0  0  0  0  0  0  0  0
   43.1945  -13.0982  112.9685 H   0  0  0  0  0  0  0  0  0  0  0  0
   41.6673   -2.5383  116.6351 H   0  0  0  0  0  0  0  0  0  0  0  0
   40.9442  -15.2332  117.2650 H   0  0  0  0  0  0  0  0  0  0  0  0
  1  6  2  0
  1  7  1  0
  2 19  2  0
  2 26  1  0
  3  8  2  0
  3 14  1  0
  4  9  1  0
  4 14  2  0
  5  6  1  0
  5 27  2  0
  7 10  2  0
  8 25  1  0
  9 25  2  0
 10 27  1  0
 11 18  1  0
 11 26  2  0
 12 20  1  0
 12 31  1  0
 13 22  1  0
 13 33  2  0
 15 30  1  0
 15 33  1  0
 24 16  1  0
 17 24  1  0
 18 28  2  0
 19 28  1  0
 20 21  1  0
 21 35  1  0
 22 29  2  0
 23 25  1  0
 23 35  1  0
 24 30  1  0
 26 32  1  0
 27 34  1  0
 28 42  1  0
 29 31  1  0
 29 41  1  0
 30 36  2  0
 31 37  2  0
 32 35  1  0
 32 38  2  0
 33 41  1  0
 42 34  1  1
 39 42  2  0
 40 42  2  0
  1 43  1  0
  2 44  1  0
  3 45  1  0
  4 46  1  0
  5 47  1  0
  6 48  1  0
  7 49  1  0
  8 50  1  0
  9 51  1  0
 10 52  1  0
 11 53  1  0
 12 54  1  0
 14 55  1  0
 15 56  1  0
 16 57  1  0
 16 58  1  0
 16 59  1  0
 17 60  1  0
 17 61  1  0
 17 62  1  0
 18 63  1  0
 19 64  1  0
 20 65  1  0
 20 66  1  0
 21 67  1  0
 21 68  1  0
 22 69  1  0
 23 70  1  0
 23 71  1  0
 24 72  1  6
 34 73  1  0
M  END
>  <filename_input>  (4) 
7QHG_T3B_docked.sdf

>  <pdb_id>  (4) 
7QHG_T3B

>  <pose_rank>  (4) 
3

>  <num_atoms_heavy>  (4) 
42

>  <num_torsions>  (4) 
11

>  <pose>  (4) 
[42.9951378708686, -10.573079721320726, 113.5661638064659, 0.25922021632961745, -3.4874007711851096, -0.30474240634580196, 3.602207229089694, 0.34527820311932456, -1.6527225019729448, 0.2894173470919701, -2.797119383066713, 2.829628148194333, -1.8003347822167448, 1.0745727836712993, -3.012616994506065, -0.4946386626447277, -2.475088799761476]

>  <energy>  (4) 
-485.0321181245787

>  <inter_energy>  (4) 
-569.5763440240617

>  <intra_energy>  (4) 
75.34922398000961

>  <rmsd>  (4) 
9.23685

>  <sdf_rank>  (4) 
0

$$$$

     RDKit          3D

 73 76  0  0  0  0  0  0  0  0999 V2000
   52.4029   -1.1921  108.6434 C   0  0  0  0  0  0  0  0  0  0  0  0
   47.3149   -5.7913  112.7249 C   0  0  0  0  0  0  0  0  0  0  0  0
   44.2257   -3.7849  116.2162 C   0  0  0  0  0  0  0  0  0  0  0  0
   41.9590   -4.5414  116.3020 C   0  0  0  0  0  0  0  0  0  0  0  0
   50.1106   -1.5792  109.2409 C   0  0  0  0  0  0  0  0  0  0  0  0
   51.1954   -0.7246  109.1252 C   0  0  0  0  0  0  0  0  0  0  0  0
   52.5326   -2.5189  108.2850 C   0  0  0  0  0  0  0  0  0  0  0  0
   44.4887   -4.6835  115.1935 C   0  0  0  0  0  0  0  0  0  0  0  0
   42.2182   -5.4376  115.2783 C   0  0  0  0  0  0  0  0  0  0  0  0
   51.4571   -3.3816  108.3930 C   0  0  0  0  0  0  0  0  0  0  0  0
   45.8458   -6.6203  111.0240 C   0  0  0  0  0  0  0  0  0  0  0  0
   44.0568  -10.3775  113.0771 N   0  0  0  0  0  0  0  0  0  0  0  0
   46.1474  -13.7685  110.5907 N   0  0  0  0  0  0  0  0  0  0  0  0
   42.9607   -3.7133  116.7702 C   0  0  0  0  0  0  0  0  0  0  0  0
   46.7321  -12.5133  108.6833 N   0  0  0  0  0  0  0  0  0  0  0  0
   46.5525  -12.3743  105.7032 C   0  0  0  0  0  0  0  0  0  0  0  0
   48.8204  -11.9741  106.7098 C   0  0  0  0  0  0  0  0  0  0  0  0
   46.2618   -5.6153  110.1669 C   0  0  0  0  0  0  0  0  0  0  0  0
   47.7388   -4.7857  111.8764 C   0  0  0  0  0  0  0  0  0  0  0  0
   43.3047   -9.6892  114.1214 C   0  0  0  0  0  0  0  0  0  0  0  0
   44.1232   -8.5889  114.7979 C   0  0  0  0  0  0  0  0  0  0  0  0
   45.5524  -13.5877  111.8277 C   0  0  0  0  0  0  0  0  0  0  0  0
   43.7383   -6.4616  113.5530 C   0  0  0  0  0  0  0  0  0  0  0  0
   47.3993  -11.4492  106.5833 C   0  0  2  0  0  0  0  0  0  0  0  0
   43.4844   -5.5164  114.7051 C   0  0  0  0  0  0  0  0  0  0  0  0
   46.3562   -6.7160  112.3166 C   0  0  0  0  0  0  0  0  0  0  0  0
   50.2338   -2.9111  108.8598 C   0  0  0  0  0  0  0  0  0  0  0  0
   47.2002   -4.6952  110.6035 C   0  0  0  0  0  0  0  0  0  0  0  0
   45.1109  -12.3273  112.1187 C   0  0  0  0  0  0  0  0  0  0  0  0
   46.7717  -11.3421  107.9695 C   0  0  0  0  0  0  0  0  0  0  0  0
   44.5456  -11.6044  113.2783 C   0  0  0  0  0  0  0  0  0  0  0  0
   45.8628   -7.7348  113.2991 C   0  0  0  0  0  0  0  0  0  0  0  0
   46.1627  -12.6342  109.9364 C   0  0  0  0  0  0  0  0  0  0  0  0
   49.0928   -3.7757  108.8976 N   0  0  0  0  0  0  0  0  0  0  0  0
   44.6410   -7.5783  113.8597 N   0  0  0  0  0  0  0  0  0  0  0  0
   46.3180  -10.2805  108.3943 O   0  0  0  0  0  0  0  0  0  0  0  0
   44.4708  -12.1601  114.3681 O   0  0  0  0  0  0  0  0  0  0  0  0
   46.5689   -8.6938  113.5596 O   0  0  0  0  0  0  0  0  0  0  0  0
   46.7440   -3.2896  108.4660 O   0  0  0  0  0  0  0  0  0  0  0  0
   47.8727   -2.1942  110.3810 O   0  0  0  0  0  0  0  0  0  0  0  0
   45.4380  -11.2997  110.7605 S   0  0  0  0  0  0  0  0  0  0  0  0
   47.6634   -3.3495  109.5628 S   0  0  1  0  0  0  0  0  0  0  0  0
   53.2591   -0.5086  108.5455 H   0  0  0  0  0  0  0  0  0  0  0  0
   47.7406   -5.8623  113.7367 H   0  0  0  0  0  0  0  0  0  0  0  0
   45.0254   -3.1274  116.5877 H   0  0  0  0  0  0  0  0  0  0  0  0
   40.9528   -4.4890  116.7435 H   0  0  0  0  0  0  0  0  0  0  0  0
   49.1537   -1.2048  109.6335 H   0  0  0  0  0  0  0  0  0  0  0  0
   51.0946    0.3308  109.4183 H   0  0  0  0  0  0  0  0  0  0  0  0
   53.4974   -2.8923  107.9113 H   0  0  0  0  0  0  0  0  0  0  0  0
   45.4997   -4.7393  114.7638 H   0  0  0  0  0  0  0  0  0  0  0  0
   41.4145   -6.0944  114.9140 H   0  0  0  0  0  0  0  0  0  0  0  0
   51.5687   -4.4387  108.1100 H   0  0  0  0  0  0  0  0  0  0  0  0
   45.1018   -7.3535  110.6792 H   0  0  0  0  0  0  0  0  0  0  0  0
   44.2129   -9.9108  112.1722 H   0  0  0  0  0  0  0  0  0  0  0  0
   42.7528   -2.9993  117.5808 H   0  0  0  0  0  0  0  0  0  0  0  0
   47.1522  -13.3529  108.2595 H   0  0  0  0  0  0  0  0  0  0  0  0
   45.9477  -13.0352  106.3415 H   0  0  0  0  0  0  0  0  0  0  0  0
   45.8885  -11.7696  105.0681 H   0  0  0  0  0  0  0  0  0  0  0  0
   47.2135  -12.9824  105.0681 H   0  0  0  0  0  0  0  0  0  0  0  0
   49.0822  -12.0708  107.7738 H   0  0  0  0  0  0  0  0  0  0  0  0
   48.8924  -12.9582  106.2236 H   0  0  0  0  0  0  0  0  0  0  0  0
   49.5149  -11.2732  106.2236 H   0  0  0  0  0  0  0  0  0  0  0  0
   45.8507   -5.5484  109.1489 H   0  0  0  0  0  0  0  0  0  0  0  0
   48.4980   -4.0628  112.2096 H   0  0  0  0  0  0  0  0  0  0  0  0
   42.4081   -9.2373  113.6720 H   0  0  0  0  0  0  0  0  0  0  0  0
   43.0395  -10.4311  114.8890 H   0  0  0  0  0  0  0  0  0  0  0  0
   43.4831   -8.0830  115.5357 H   0  0  0  0  0  0  0  0  0  0  0  0
   44.9941   -9.0741  115.2628 H   0  0  0  0  0  0  0  0  0  0  0  0
   45.4405  -14.4175  112.5411 H   0  0  0  0  0  0  0  0  0  0  0  0
   42.7722   -6.8802  113.2346 H   0  0  0  0  0  0  0  0  0  0  0  0
   44.2341   -5.8690  112.7700 H   0  0  0  0  0  0  0  0  0  0  0  0
   47.4324  -10.4560  106.1115 H   0  0  0  0  0  0  0  0  0  0  0  0
   49.1781   -4.7151  108.4839 H   0  0  0  0  0  0  0  0  0  0  0  0
  1  6  2  0
  1  7  1  0
  2 19  2  0
  2 26  1  0
  3  8  2  0
  3 14  1  0
  4  9  1  0
  4 14  2  0
  5  6  1  0
  5 27  2  0
  7 10  2  0
  8 25  1  0
  9 25  2  0
 10 27  1  0
 11 18  1  0
 11 26  2  0
 12 20  1  0
 12 31  1  0
 13 22  1  0
 13 33  2  0
 15 30  1  0
 15 33  1  0
 24 16  1  0
 17 24  1  0
 18 28  2  0
 19 28  1  0
 20 21  1  0
 21 35  1  0
 22 29  2  0
 23 25  1  0
 23 35  1  0
 24 30  1  0
 26 32  1  0
 27 34  1  0
 28 42  1  0
 29 31  1  0
 29 41  1  0
 30 36  2  0
 31 37  2  0
 32 35  1  0
 32 38  2  0
 33 41  1  0
 42 34  1  6
 39 42  2  0
 40 42  2  0
  1 43  1  0
  2 44  1  0
  3 45  1  0
  4 46  1  0
  5 47  1  0
  6 48  1  0
  7 49  1  0
  8 50  1  0
  9 51  1  0
 10 52  1  0
 11 53  1  0
 12 54  1  0
 14 55  1  0
 15 56  1  0
 16 57  1  0
 16 58  1  0
 16 59  1  0
 17 60  1  0
 17 61  1  0
 17 62  1  0
 18 63  1  0
 19 64  1  0
 20 65  1  0
 20 66  1  0
 21 67  1  0
 21 68  1  0
 22 69  1  0
 23 70  1  0
 23 71  1  0
 24 72  1  6
 34 73  1  0
M  END
>  <filename_input>  (5) 
7QHG_T3B_docked.sdf

>  <pdb_id>  (5) 
7QHG_T3B

>  <pose_rank>  (5) 
4

>  <num_atoms_heavy>  (5) 
42

>  <num_torsions>  (5) 
11

>  <pose>  (5) 
[45.86276083802164, -7.734847458263918, 113.29906011910046, -2.0233901069395013, -0.7158987454659107, 2.74843575016644, 3.7815167900634936, 2.404182340065354, -1.4940576125684548, 4.244467733135216, 0.4020257872370423, -0.7026490886945329, 0.5932975923740891, 3.4360828504639196, -2.3671159801292405, 6.407481788886217, 6.850542144194094]

>  <energy>  (5) 
-564.4512941870099

>  <inter_energy>  (5) 
-613.5174828689925

>  <intra_energy>  (5) 
52.498297277741216

>  <rmsd>  (5) 
9.58544

>  <sdf_rank>  (5) 
0

$$$$

     RDKit          3D

 73 76  0  0  0  0  0  0  0  0999 V2000
   38.0471  -18.1340  114.8963 C   0  0  0  0  0  0  0  0  0  0  0  0
   45.1101  -15.2647  110.4534 C   0  0  0  0  0  0  0  0  0  0  0  0
   42.9009  -10.5803  113.3696 C   0  0  0  0  0  0  0  0  0  0  0  0
   44.7377  -10.0704  114.8133 C   0  0  0  0  0  0  0  0  0  0  0  0
   39.7007  -16.7070  113.9011 C   0  0  0  0  0  0  0  0  0  0  0  0
   38.4674  -16.8759  114.5101 C   0  0  0  0  0  0  0  0  0  0  0  0
   38.8547  -19.2294  114.6654 C   0  0  0  0  0  0  0  0  0  0  0  0
   43.7411  -11.3336  112.5640 C   0  0  0  0  0  0  0  0  0  0  0  0
   45.5783  -10.8251  114.0120 C   0  0  0  0  0  0  0  0  0  0  0  0
   40.0889  -19.0743  114.0610 C   0  0  0  0  0  0  0  0  0  0  0  0
   43.0928  -13.9771  110.5584 C   0  0  0  0  0  0  0  0  0  0  0  0
   46.4276   -8.7040  111.0601 N   0  0  0  0  0  0  0  0  0  0  0  0
   47.2325   -6.2726  114.7355 N   0  0  0  0  0  0  0  0  0  0  0  0
   43.3989   -9.9490  114.4947 C   0  0  0  0  0  0  0  0  0  0  0  0
   45.7141   -4.9492  115.9598 N   0  0  0  0  0  0  0  0  0  0  0  0
   42.8767   -3.2877  117.7288 C   0  0  0  0  0  0  0  0  0  0  0  0
   45.0239   -2.1567  117.0751 C   0  0  0  0  0  0  0  0  0  0  0  0
   42.3926  -15.0975  110.9735 C   0  0  0  0  0  0  0  0  0  0  0  0
   44.4211  -16.3884  110.8695 C   0  0  0  0  0  0  0  0  0  0  0  0
   45.9535   -9.6472  110.0523 C   0  0  0  0  0  0  0  0  0  0  0  0
   46.7228  -10.9683  110.0851 C   0  0  0  0  0  0  0  0  0  0  0  0
   47.2572   -7.0750  113.6075 C   0  0  0  0  0  0  0  0  0  0  0  0
   46.0087  -12.3361  112.0454 C   0  0  0  0  0  0  0  0  0  0  0  0
   44.3539   -3.4881  117.3748 C   0  0  2  0  0  0  0  0  0  0  0  0
   45.0907  -11.4729  112.8803 C   0  0  0  0  0  0  0  0  0  0  0  0
   44.4562  -14.0465  110.2816 C   0  0  0  0  0  0  0  0  0  0  0  0
   40.5247  -17.8069  113.6875 C   0  0  0  0  0  0  0  0  0  0  0  0
   43.0608  -16.3020  111.1163 C   0  0  0  0  0  0  0  0  0  0  0  0
   46.0918   -7.1775  112.9008 C   0  0  0  0  0  0  0  0  0  0  0  0
   44.4719   -4.4016  116.1589 C   0  0  0  0  0  0  0  0  0  0  0  0
   45.5690   -7.9531  111.7554 C   0  0  0  0  0  0  0  0  0  0  0  0
   45.2250  -12.8770  109.7449 C   0  0  0  0  0  0  0  0  0  0  0  0
   46.0360   -5.7633  114.8908 C   0  0  0  0  0  0  0  0  0  0  0  0
   41.8339  -17.6251  113.1365 N   0  0  0  0  0  0  0  0  0  0  0  0
   45.9304  -12.0989  110.5985 N   0  0  0  0  0  0  0  0  0  0  0  0
   43.5193   -4.6055  115.4077 O   0  0  0  0  0  0  0  0  0  0  0  0
   44.3677   -7.9505  111.5125 O   0  0  0  0  0  0  0  0  0  0  0  0
   45.2108  -12.6619  108.5451 O   0  0  0  0  0  0  0  0  0  0  0  0
   40.8910  -17.7140  110.8910 O   0  0  0  0  0  0  0  0  0  0  0  0
   43.0224  -18.8901  111.3540 O   0  0  0  0  0  0  0  0  0  0  0  0
   44.8878   -6.1986  113.6753 S   0  0  0  0  0  0  0  0  0  0  0  0
   42.1655  -17.7596  111.5430 S   0  0  1  0  0  0  0  0  0  0  0  0
   37.0709  -18.2626  115.3867 H   0  0  0  0  0  0  0  0  0  0  0  0
   46.1899  -15.3332  110.2551 H   0  0  0  0  0  0  0  0  0  0  0  0
   41.8356  -10.4845  113.1131 H   0  0  0  0  0  0  0  0  0  0  0  0
   45.1371   -9.5663  115.7057 H   0  0  0  0  0  0  0  0  0  0  0  0
   40.0274  -15.7046  113.5871 H   0  0  0  0  0  0  0  0  0  0  0  0
   37.8202  -16.0042  114.6869 H   0  0  0  0  0  0  0  0  0  0  0  0
   38.5145  -20.2320  114.9639 H   0  0  0  0  0  0  0  0  0  0  0  0
   43.3382  -11.8260  111.6666 H   0  0  0  0  0  0  0  0  0  0  0  0
   46.6433  -10.9137  114.2728 H   0  0  0  0  0  0  0  0  0  0  0  0
   40.7255  -19.9521  113.8758 H   0  0  0  0  0  0  0  0  0  0  0  0
   42.5648  -13.0187  110.4458 H   0  0  0  0  0  0  0  0  0  0  0  0
   47.4384   -8.6162  111.2377 H   0  0  0  0  0  0  0  0  0  0  0  0
   42.7314   -9.3524  115.1338 H   0  0  0  0  0  0  0  0  0  0  0  0
   46.4510   -4.7408  116.6486 H   0  0  0  0  0  0  0  0  0  0  0  0
   42.7606   -3.2720  118.8225 H   0  0  0  0  0  0  0  0  0  0  0  0
   42.5252   -2.3337  117.3089 H   0  0  0  0  0  0  0  0  0  0  0  0
   42.2838   -4.1137  117.3089 H   0  0  0  0  0  0  0  0  0  0  0  0
   45.2774   -1.6530  118.0195 H   0  0  0  0  0  0  0  0  0  0  0  0
   45.9418   -2.3306  116.4944 H   0  0  0  0  0  0  0  0  0  0  0  0
   44.3372   -1.5232  116.4944 H   0  0  0  0  0  0  0  0  0  0  0  0
   41.3157  -15.0313  111.1877 H   0  0  0  0  0  0  0  0  0  0  0  0
   44.9490  -17.3440  111.0037 H   0  0  0  0  0  0  0  0  0  0  0  0
   44.8885   -9.8535  110.2343 H   0  0  0  0  0  0  0  0  0  0  0  0
   46.1116   -9.1907  109.0640 H   0  0  0  0  0  0  0  0  0  0  0  0
   47.0473  -11.2074  109.0616 H   0  0  0  0  0  0  0  0  0  0  0  0
   47.5713  -10.8308  110.7714 H   0  0  0  0  0  0  0  0  0  0  0  0
   48.1698   -7.6040  113.2954 H   0  0  0  0  0  0  0  0  0  0  0  0
   47.0433  -12.1467  112.3676 H   0  0  0  0  0  0  0  0  0  0  0  0
   45.6872  -13.3757  112.2064 H   0  0  0  0  0  0  0  0  0  0  0  0
   44.8580   -3.9487  118.2372 H   0  0  0  0  0  0  0  0  0  0  0  0
   42.6066  -17.3978  113.7785 H   0  0  0  0  0  0  0  0  0  0  0  0
  1  6  2  0
  1  7  1  0
  2 19  2  0
  2 26  1  0
  3  8  2  0
  3 14  1  0
  4  9  1  0
  4 14  2  0
  5  6  1  0
  5 27  2  0
  7 10  2  0
  8 25  1  0
  9 25  2  0
 10 27  1  0
 11 18  1  0
 11 26  2  0
 12 20  1  0
 12 31  1  0
 13 22  1  0
 13 33  2  0
 15 30  1  0
 15 33  1  0
 24 16  1  0
 17 24  1  0
 18 28  2  0
 19 28  1  0
 20 21  1  0
 21 35  1  0
 22 29  2  0
 23 25  1  0
 23 35  1  0
 24 30  1  0
 26 32  1  0
 27 34  1  0
 28 42  1  0
 29 31  1  0
 29 41  1  0
 30 36  2  0
 31 37  2  0
 32 35  1  0
 32 38  2  0
 33 41  1  0
 42 34  1  1
 39 42  2  0
 40 42  2  0
  1 43  1  0
  2 44  1  0
  3 45  1  0
  4 46  1  0
  5 47  1  0
  6 48  1  0
  7 49  1  0
  8 50  1  0
  9 51  1  0
 10 52  1  0
 11 53  1  0
 12 54  1  0
 14 55  1  0
 15 56  1  0
 16 57  1  0
 16 58  1  0
 16 59  1  0
 17 60  1  0
 17 61  1  0
 17 62  1  0
 18 63  1  0
 19 64  1  0
 20 65  1  0
 20 66  1  0
 21 67  1  0
 21 68  1  0
 22 69  1  0
 23 70  1  0
 23 71  1  0
 24 72  1  1
 34 73  1  0
M  END
>  <filename_input>  (6) 
7QHG_T3B_docked.sdf

>  <pdb_id>  (6) 
7QHG_T3B

>  <pose_rank>  (6) 
5

>  <num_atoms_heavy>  (6) 
42

>  <num_torsions>  (6) 
11

>  <pose>  (6) 
[45.22498150758639, -12.877022405449372, 109.74492230917731, -1.4155500596086228, 0.6634711226179886, -1.0065887205508646, -5.812770799363451, -16.009773523306006, -9.495342655078131, 9.025654870067484, -8.977022615851379, -12.353684974704608, 2.6139145304702804, -0.019797780042221946, -0.04454602482593389, 19.223086757095043, 0.21918492798090494]

>  <energy>  (6) 
-664.1907875295278

>  <inter_energy>  (6) 
-673.6309924378289

>  <intra_energy>  (6) 
19.674705969514317

>  <rmsd>  (6) 
7.57469

>  <sdf_rank>  (6) 
0

$$$$

     RDKit          3D

 73 76  0  0  0  0  0  0  0  0999 V2000
   47.4531  -10.9694  101.6373 C   0  0  0  0  0  0  0  0  0  0  0  0
   46.0488  -13.2195  110.4249 C   0  0  0  0  0  0  0  0  0  0  0  0
   46.4570   -7.0340  114.4388 C   0  0  0  0  0  0  0  0  0  0  0  0
   44.4605   -6.0395  113.5769 C   0  0  0  0  0  0  0  0  0  0  0  0
   47.4386  -12.3029  103.6331 C   0  0  0  0  0  0  0  0  0  0  0  0
   47.7949  -12.1296  102.3051 C   0  0  0  0  0  0  0  0  0  0  0  0
   46.7446   -9.9825  102.2927 C   0  0  0  0  0  0  0  0  0  0  0  0
   46.2171   -8.1728  113.6852 C   0  0  0  0  0  0  0  0  0  0  0  0
   44.2203   -7.1746  112.8205 C   0  0  0  0  0  0  0  0  0  0  0  0
   46.3853  -10.1417  103.6187 C   0  0  0  0  0  0  0  0  0  0  0  0
   45.2319  -11.0384  109.8645 C   0  0  0  0  0  0  0  0  0  0  0  0
   41.7755  -11.3450  114.5817 N   0  0  0  0  0  0  0  0  0  0  0  0
   38.5410  -13.7860  116.7031 N   0  0  0  0  0  0  0  0  0  0  0  0
   45.5791   -5.9669  114.3843 C   0  0  0  0  0  0  0  0  0  0  0  0
   39.1604  -15.4128  118.2924 N   0  0  0  0  0  0  0  0  0  0  0  0
   40.2978  -17.3120  121.2354 C   0  0  0  0  0  0  0  0  0  0  0  0
   39.7483  -18.4873  119.0829 C   0  0  0  0  0  0  0  0  0  0  0  0
   45.7926  -11.1465  108.6028 C   0  0  0  0  0  0  0  0  0  0  0  0
   46.6101  -13.3385  109.1674 C   0  0  0  0  0  0  0  0  0  0  0  0
   42.5954  -10.2308  114.1163 C   0  0  0  0  0  0  0  0  0  0  0  0
   44.0840  -10.5786  114.0835 C   0  0  0  0  0  0  0  0  0  0  0  0
   39.0991  -12.7243  116.0116 C   0  0  0  0  0  0  0  0  0  0  0  0
   44.8513   -9.4646  111.9875 C   0  0  0  0  0  0  0  0  0  0  0  0
   39.5593  -17.2170  119.8964 C   0  0  2  0  0  0  0  0  0  0  0  0
   45.0985   -8.2542  112.8586 C   0  0  0  0  0  0  0  0  0  0  0  0
   45.3614  -12.0659  110.7961 C   0  0  0  0  0  0  0  0  0  0  0  0
   46.7436  -11.3001  104.3008 C   0  0  0  0  0  0  0  0  0  0  0  0
   46.4895  -12.2945  108.2651 C   0  0  0  0  0  0  0  0  0  0  0  0
   40.4246  -12.4754  116.2334 C   0  0  0  0  0  0  0  0  0  0  0  0
   40.0829  -16.0234  119.1040 C   0  0  0  0  0  0  0  0  0  0  0  0
   41.4236  -11.4488  115.8662 C   0  0  0  0  0  0  0  0  0  0  0  0
   44.8454  -11.9454  112.1982 C   0  0  0  0  0  0  0  0  0  0  0  0
   39.4492  -14.3473  117.4614 C   0  0  0  0  0  0  0  0  0  0  0  0
   46.4485  -11.4393  105.6952 N   0  0  0  0  0  0  0  0  0  0  0  0
   44.6271  -10.7164  112.7212 N   0  0  0  0  0  0  0  0  0  0  0  0
   41.2557  -15.6599  119.1806 O   0  0  0  0  0  0  0  0  0  0  0  0
   41.8496  -10.6778  116.7183 O   0  0  0  0  0  0  0  0  0  0  0  0
   44.6176  -12.9611  112.8325 O   0  0  0  0  0  0  0  0  0  0  0  0
   48.5852  -11.7891  106.8140 O   0  0  0  0  0  0  0  0  0  0  0  0
   47.1908  -13.7528  106.2308 O   0  0  0  0  0  0  0  0  0  0  0  0
   41.0259  -13.6476  117.3613 S   0  0  0  0  0  0  0  0  0  0  0  0
   47.2972  -12.4056  106.7018 S   0  0  1  0  0  0  0  0  0  0  0  0
   47.7449  -10.8325  100.5856 H   0  0  0  0  0  0  0  0  0  0  0  0
   46.1462  -14.0473  111.1427 H   0  0  0  0  0  0  0  0  0  0  0  0
   47.3479   -6.9792  115.0816 H   0  0  0  0  0  0  0  0  0  0  0  0
   43.7587   -5.1935  113.5345 H   0  0  0  0  0  0  0  0  0  0  0  0
   47.7049  -13.2320  104.1582 H   0  0  0  0  0  0  0  0  0  0  0  0
   48.3524  -12.9193  101.7803 H   0  0  0  0  0  0  0  0  0  0  0  0
   46.4641   -9.0636  101.7569 H   0  0  0  0  0  0  0  0  0  0  0  0
   46.9165   -9.0200  113.7404 H   0  0  0  0  0  0  0  0  0  0  0  0
   43.3256   -7.2237  112.1825 H   0  0  0  0  0  0  0  0  0  0  0  0
   45.8168   -9.3532  104.1335 H   0  0  0  0  0  0  0  0  0  0  0  0
   44.6764  -10.1283  110.1348 H   0  0  0  0  0  0  0  0  0  0  0  0
   41.4639  -12.0612  113.9103 H   0  0  0  0  0  0  0  0  0  0  0  0
   45.7709   -5.0634  114.9818 H   0  0  0  0  0  0  0  0  0  0  0  0
   38.1944  -15.7701  118.3032 H   0  0  0  0  0  0  0  0  0  0  0  0
   39.5756  -17.2191  122.0599 H   0  0  0  0  0  0  0  0  0  0  0  0
   40.8095  -18.2833  121.3039 H   0  0  0  0  0  0  0  0  0  0  0  0
   41.0386  -16.5017  121.3039 H   0  0  0  0  0  0  0  0  0  0  0  0
   39.8756  -19.3426  119.7629 H   0  0  0  0  0  0  0  0  0  0  0  0
   38.8647  -18.6515  118.4487 H   0  0  0  0  0  0  0  0  0  0  0  0
   40.6414  -18.3871  118.4487 H   0  0  0  0  0  0  0  0  0  0  0  0
   45.6855  -10.3280  107.8758 H   0  0  0  0  0  0  0  0  0  0  0  0
   47.1486  -14.2553  108.8854 H   0  0  0  0  0  0  0  0  0  0  0  0
   42.2742   -9.9554  113.1010 H   0  0  0  0  0  0  0  0  0  0  0  0
   42.4604   -9.3970  114.8210 H   0  0  0  0  0  0  0  0  0  0  0  0
   44.6389   -9.7816  114.6002 H   0  0  0  0  0  0  0  0  0  0  0  0
   44.1983  -11.5551  114.5769 H   0  0  0  0  0  0  0  0  0  0  0  0
   38.5050  -12.1113  115.3178 H   0  0  0  0  0  0  0  0  0  0  0  0
   43.9629   -9.2660  111.3701 H   0  0  0  0  0  0  0  0  0  0  0  0
   45.7670   -9.6123  111.3960 H   0  0  0  0  0  0  0  0  0  0  0  0
   38.4862  -17.0870  120.1004 H   0  0  0  0  0  0  0  0  0  0  0  0
   45.6601  -10.9021  106.0834 H   0  0  0  0  0  0  0  0  0  0  0  0
  1  6  2  0
  1  7  1  0
  2 19  2  0
  2 26  1  0
  3  8  2  0
  3 14  1  0
  4  9  1  0
  4 14  2  0
  5  6  1  0
  5 27  2  0
  7 10  2  0
  8 25  1  0
  9 25  2  0
 10 27  1  0
 11 18  1  0
 11 26  2  0
 12 20  1  0
 12 31  1  0
 13 22  1  0
 13 33  2  0
 15 30  1  0
 15 33  1  0
 24 16  1  0
 17 24  1  0
 18 28  2  0
 19 28  1  0
 20 21  1  0
 21 35  1  0
 22 29  2  0
 23 25  1  0
 23 35  1  0
 24 30  1  0
 26 32  1  0
 27 34  1  0
 28 42  1  0
 29 31  1  0
 29 41  1  0
 30 36  2  0
 31 37  2  0
 32 35  1  0
 32 38  2  0
 33 41  1  0
 42 34  1  6
 39 42  2  0
 40 42  2  0
  1 43  1  0
  2 44  1  0
  3 45  1  0
  4 46  1  0
  5 47  1  0
  6 48  1  0
  7 49  1  0
  8 50  1  0
  9 51  1  0
 10 52  1  0
 11 53  1  0
 12 54  1  0
 14 55  1  0
 15 56  1  0
 16 57  1  0
 16 58  1  0
 16 59  1  0
 17 60  1  0
 17 61  1  0
 17 62  1  0
 18 63  1  0
 19 64  1  0
 20 65  1  0
 20 66  1  0
 21 67  1  0
 21 68  1  0
 22 69  1  0
 23 70  1  0
 23 71  1  0
 24 72  1  1
 34 73  1  0
M  END
>  <filename_input>  (7) 
7QHG_T3B_docked.sdf

>  <pdb_id>  (7) 
7QHG_T3B

>  <pose_rank>  (7) 
6

>  <num_atoms_heavy>  (7) 
42

>  <num_torsions>  (7) 
11

>  <pose>  (7) 
[44.845388394183495, -11.945368168825551, 112.19817093939832, 1.41778288513186, -0.7892901709252649, -3.0228826450434108, 4.689181424565697, 3.6757700582807686, 4.003693591349788, 4.795795346214358, 0.20459972675593377, -6.0699142887177615, 0.4154255626360862, 11.532670139712236, 0.21262391645249892, -0.6127900303615875, -5.8037007323678145]

>  <energy>  (7) 
-643.7272451290136

>  <inter_energy>  (7) 
-705.0617632084494

>  <intra_energy>  (7) 
65.94954234205179

>  <rmsd>  (7) 
7.79447

>  <sdf_rank>  (7) 
0

$$$$

     RDKit          3D

 73 76  0  0  0  0  0  0  0  0999 V2000
   48.5753  -14.1038  101.0851 C   0  0  0  0  0  0  0  0  0  0  0  0
   46.7405  -12.4098  108.9002 C   0  0  0  0  0  0  0  0  0  0  0  0
   45.0901  -16.4580  111.2248 C   0  0  0  0  0  0  0  0  0  0  0  0
   42.7479  -16.5931  110.7627 C   0  0  0  0  0  0  0  0  0  0  0  0
   48.1752  -12.1286  102.3890 C   0  0  0  0  0  0  0  0  0  0  0  0
   48.3175  -12.7484  101.1577 C   0  0  0  0  0  0  0  0  0  0  0  0
   48.7018  -14.8424  102.2444 C   0  0  0  0  0  0  0  0  0  0  0  0
   45.0380  -15.0786  111.0946 C   0  0  0  0  0  0  0  0  0  0  0  0
   42.6924  -15.2150  110.6354 C   0  0  0  0  0  0  0  0  0  0  0  0
   48.5593  -14.2367  103.4795 C   0  0  0  0  0  0  0  0  0  0  0  0
   45.3998  -10.4296  108.7587 C   0  0  0  0  0  0  0  0  0  0  0  0
   42.8973  -11.8005  114.7586 N   0  0  0  0  0  0  0  0  0  0  0  0
   40.1984  -12.7819  118.2903 N   0  0  0  0  0  0  0  0  0  0  0  0
   43.9450  -17.2155  111.0595 C   0  0  0  0  0  0  0  0  0  0  0  0
   38.6795  -14.4733  117.6674 N   0  0  0  0  0  0  0  0  0  0  0  0
   35.7450  -15.5432  117.7412 C   0  0  0  0  0  0  0  0  0  0  0  0
   37.6851  -16.9796  118.4410 C   0  0  0  0  0  0  0  0  0  0  0  0
   45.6497  -10.3508  107.3989 C   0  0  0  0  0  0  0  0  0  0  0  0
   46.9942  -12.3417  107.5431 C   0  0  0  0  0  0  0  0  0  0  0  0
   43.5794  -11.2979  113.5703 C   0  0  0  0  0  0  0  0  0  0  0  0
   44.5645  -12.3145  112.9920 C   0  0  0  0  0  0  0  0  0  0  0  0
   41.0487  -11.8619  117.7008 C   0  0  0  0  0  0  0  0  0  0  0  0
   43.7483  -12.9315  110.7168 C   0  0  0  0  0  0  0  0  0  0  0  0
   37.0308  -16.2404  117.2849 C   0  0  2  0  0  0  0  0  0  0  0  0
   43.8349  -14.4380  110.8063 C   0  0  0  0  0  0  0  0  0  0  0  0
   45.9497  -11.4511  109.5299 C   0  0  0  0  0  0  0  0  0  0  0  0
   48.2809  -12.8757  103.5573 C   0  0  0  0  0  0  0  0  0  0  0  0
   46.4565  -11.3038  106.7999 C   0  0  0  0  0  0  0  0  0  0  0  0
   41.0678  -11.8304  116.3345 C   0  0  0  0  0  0  0  0  0  0  0  0
   38.0045  -15.2080  116.7255 C   0  0  0  0  0  0  0  0  0  0  0  0
   41.8385  -11.1617  115.2642 C   0  0  0  0  0  0  0  0  0  0  0  0
   45.7738  -11.5151  111.0170 C   0  0  0  0  0  0  0  0  0  0  0  0
   39.5680  -13.4596  117.3638 C   0  0  0  0  0  0  0  0  0  0  0  0
   48.0503  -12.2559  104.8275 N   0  0  0  0  0  0  0  0  0  0  0  0
   44.7320  -12.2083  111.5325 N   0  0  0  0  0  0  0  0  0  0  0  0
   38.1473  -15.0423  115.5149 O   0  0  0  0  0  0  0  0  0  0  0  0
   41.4579  -10.0857  114.8176 O   0  0  0  0  0  0  0  0  0  0  0  0
   46.5855  -10.9529  111.7320 O   0  0  0  0  0  0  0  0  0  0  0  0
   45.7541  -11.6179  104.3179 O   0  0  0  0  0  0  0  0  0  0  0  0
   47.4058   -9.8531  104.8633 O   0  0  0  0  0  0  0  0  0  0  0  0
   39.9422  -13.0075  115.7387 S   0  0  0  0  0  0  0  0  0  0  0  0
   46.8688  -11.1598  105.0918 S   0  0  1  0  0  0  0  0  0  0  0  0
   48.6795  -14.5933  100.1056 H   0  0  0  0  0  0  0  0  0  0  0  0
   47.1691  -13.2325  109.4913 H   0  0  0  0  0  0  0  0  0  0  0  0
   46.0448  -16.9511  111.4601 H   0  0  0  0  0  0  0  0  0  0  0  0
   41.8363  -17.1936  110.6271 H   0  0  0  0  0  0  0  0  0  0  0  0
   47.9789  -11.0476  102.4422 H   0  0  0  0  0  0  0  0  0  0  0  0
   48.2247  -12.1586  100.2339 H   0  0  0  0  0  0  0  0  0  0  0  0
   48.9173  -15.9194  102.1854 H   0  0  0  0  0  0  0  0  0  0  0  0
   45.9552  -14.4845  111.2201 H   0  0  0  0  0  0  0  0  0  0  0  0
   41.7349  -14.7290  110.3966 H   0  0  0  0  0  0  0  0  0  0  0  0
   48.6660  -14.8303  104.3994 H   0  0  0  0  0  0  0  0  0  0  0  0
   44.7579   -9.6749  109.2366 H   0  0  0  0  0  0  0  0  0  0  0  0
   43.2369  -12.6597  115.2139 H   0  0  0  0  0  0  0  0  0  0  0  0
   43.9871  -18.3097  111.1639 H   0  0  0  0  0  0  0  0  0  0  0  0
   38.5140  -14.6905  118.6605 H   0  0  0  0  0  0  0  0  0  0  0  0
   35.7089  -15.5236  118.8405 H   0  0  0  0  0  0  0  0  0  0  0  0
   35.7296  -14.5132  117.3555 H   0  0  0  0  0  0  0  0  0  0  0  0
   34.8734  -16.0923  117.3555 H   0  0  0  0  0  0  0  0  0  0  0  0
   37.3202  -16.5673  119.3933 H   0  0  0  0  0  0  0  0  0  0  0  0
   37.4317  -18.0485  118.3831 H   0  0  0  0  0  0  0  0  0  0  0  0
   38.7768  -16.8579  118.3831 H   0  0  0  0  0  0  0  0  0  0  0  0
   45.2114   -9.5389  106.8000 H   0  0  0  0  0  0  0  0  0  0  0  0
   47.6183  -13.1060  107.0570 H   0  0  0  0  0  0  0  0  0  0  0  0
   42.8264  -11.0601  112.8044 H   0  0  0  0  0  0  0  0  0  0  0  0
   44.1511  -10.4050  113.8633 H   0  0  0  0  0  0  0  0  0  0  0  0
   45.5444  -12.1583  113.4669 H   0  0  0  0  0  0  0  0  0  0  0  0
   44.1547  -13.3143  113.1980 H   0  0  0  0  0  0  0  0  0  0  0  0
   41.6779  -11.1895  118.3025 H   0  0  0  0  0  0  0  0  0  0  0  0
   43.8963  -12.6421  109.6659 H   0  0  0  0  0  0  0  0  0  0  0  0
   42.7583  -12.6546  111.1082 H   0  0  0  0  0  0  0  0  0  0  0  0
   36.7714  -16.9698  116.5034 H   0  0  0  0  0  0  0  0  0  0  0  0
   48.6612  -12.5149  105.6153 H   0  0  0  0  0  0  0  0  0  0  0  0
  1  6  2  0
  1  7  1  0
  2 19  2  0
  2 26  1  0
  3  8  2  0
  3 14  1  0
  4  9  1  0
  4 14  2  0
  5  6  1  0
  5 27  2  0
  7 10  2  0
  8 25  1  0
  9 25  2  0
 10 27  1  0
 11 18  1  0
 11 26  2  0
 12 20  1  0
 12 31  1  0
 13 22  1  0
 13 33  2  0
 15 30  1  0
 15 33  1  0
 24 16  1  0
 17 24  1  0
 18 28  2  0
 19 28  1  0
 20 21  1  0
 21 35  1  0
 22 29  2  0
 23 25  1  0
 23 35  1  0
 24 30  1  0
 26 32  1  0
 27 34  1  0
 28 42  1  0
 29 31  1  0
 29 41  1  0
 30 36  2  0
 31 37  2  0
 32 35  1  0
 32 38  2  0
 33 41  1  0
 42 34  1  1
 39 42  2  0
 40 42  2  0
  1 43  1  0
  2 44  1  0
  3 45  1  0
  4 46  1  0
  5 47  1  0
  6 48  1  0
  7 49  1  0
  8 50  1  0
  9 51  1  0
 10 52  1  0
 11 53  1  0
 12 54  1  0
 14 55  1  0
 15 56  1  0
 16 57  1  0
 16 58  1  0
 16 59  1  0
 17 60  1  0
 17 61  1  0
 17 62  1  0
 18 63  1  0
 19 64  1  0
 20 65  1  0
 20 66  1  0
 21 67  1  0
 21 68  1  0
 22 69  1  0
 23 70  1  0
 23 71  1  0
 24 72  1  6
 34 73  1  0
M  END
>  <filename_input>  (8) 
7QHG_T3B_docked.sdf

>  <pdb_id>  (8) 
7QHG_T3B

>  <pose_rank>  (8) 
7

>  <num_atoms_heavy>  (8) 
42

>  <num_torsions>  (8) 
11

>  <pose>  (8) 
[45.77380752769674, -11.515091053783241, 111.01702049516481, -2.7103336451616973, -0.6282751374552106, 4.0416970719261025, 12.93655800086025, -5.458572631487852, 3.4682989114647933, -1.1919021392095266, -8.877760484299031, 0.9224527756254762, 2.114020492015971, -4.534393293626757, -2.121611806881411, 16.59579193492684, 11.445129874233933]

>  <energy>  (8) 
-643.3383992728632

>  <inter_energy>  (8) 
-650.9259323203672

>  <intra_energy>  (8) 
16.61484150973927

>  <rmsd>  (8) 
6.67996

>  <sdf_rank>  (8) 
0

$$$$

     RDKit          3D

 73 76  0  0  0  0  0  0  0  0999 V2000
   41.8009    0.7097  120.6834 C   0  0  0  0  0  0  0  0  0  0  0  0
   45.4928   -5.3158  115.1549 C   0  0  0  0  0  0  0  0  0  0  0  0
   43.1822  -12.1389  112.9958 C   0  0  0  0  0  0  0  0  0  0  0  0
   45.0974  -12.0612  114.4255 C   0  0  0  0  0  0  0  0  0  0  0  0
   41.4372   -0.6556  118.7430 C   0  0  0  0  0  0  0  0  0  0  0  0
   40.9890    0.2965  119.6448 C   0  0  0  0  0  0  0  0  0  0  0  0
   43.0606    0.1645  120.8298 C   0  0  0  0  0  0  0  0  0  0  0  0
   43.0386  -10.7646  113.1105 C   0  0  0  0  0  0  0  0  0  0  0  0
   44.9581  -10.6878  114.5390 C   0  0  0  0  0  0  0  0  0  0  0  0
   43.5211   -0.7844  119.9352 C   0  0  0  0  0  0  0  0  0  0  0  0
   43.1737   -5.4138  114.5628 C   0  0  0  0  0  0  0  0  0  0  0  0
   46.1926  -10.5839  111.1419 N   0  0  0  0  0  0  0  0  0  0  0  0
   46.6433  -13.8387  107.7923 N   0  0  0  0  0  0  0  0  0  0  0  0
   44.2120  -12.7874  113.6527 C   0  0  0  0  0  0  0  0  0  0  0  0
   45.5243  -15.6806  108.7466 N   0  0  0  0  0  0  0  0  0  0  0  0
   45.3201  -18.2852  108.3804 C   0  0  0  0  0  0  0  0  0  0  0  0
   43.0064  -17.9690  109.3097 C   0  0  0  0  0  0  0  0  0  0  0  0
   42.8390   -4.7763  115.7458 C   0  0  0  0  0  0  0  0  0  0  0  0
   45.1697   -4.6769  116.3373 C   0  0  0  0  0  0  0  0  0  0  0  0
   46.2324   -9.2928  111.8212 C   0  0  0  0  0  0  0  0  0  0  0  0
   44.9044   -8.5416  111.7201 C   0  0  0  0  0  0  0  0  0  0  0  0
   46.8510  -12.4918  108.0364 C   0  0  0  0  0  0  0  0  0  0  0  0
   43.8238   -8.5144  113.9684 C   0  0  0  0  0  0  0  0  0  0  0  0
   44.4909  -17.7476  109.5512 C   0  0  2  0  0  0  0  0  0  0  0  0
   43.9313  -10.0195  113.8779 C   0  0  0  0  0  0  0  0  0  0  0  0
   44.5013   -5.7028  114.2559 C   0  0  0  0  0  0  0  0  0  0  0  0
   42.7143   -1.1898  118.8767 C   0  0  0  0  0  0  0  0  0  0  0  0
   43.8409   -4.4207  116.6331 C   0  0  0  0  0  0  0  0  0  0  0  0
   46.2930  -11.9805  109.1745 C   0  0  0  0  0  0  0  0  0  0  0  0
   44.7600  -16.2568  109.7298 C   0  0  0  0  0  0  0  0  0  0  0  0
   46.1174  -10.6569  109.8101 C   0  0  0  0  0  0  0  0  0  0  0  0
   44.8907   -6.4705  113.0288 C   0  0  0  0  0  0  0  0  0  0  0  0
   45.9169  -14.3559  108.7513 C   0  0  0  0  0  0  0  0  0  0  0  0
   43.2122   -2.1097  117.8986 N   0  0  0  0  0  0  0  0  0  0  0  0
   44.5641   -7.7805  112.9344 N   0  0  0  0  0  0  0  0  0  0  0  0
   44.3345  -15.6342  110.7018 O   0  0  0  0  0  0  0  0  0  0  0  0
   45.9806   -9.6575  109.1139 O   0  0  0  0  0  0  0  0  0  0  0  0
   45.4808   -5.8914  112.1329 O   0  0  0  0  0  0  0  0  0  0  0  0
   42.1343   -4.1870  118.5786 O   0  0  0  0  0  0  0  0  0  0  0  0
   44.5400   -3.8562  119.0722 O   0  0  0  0  0  0  0  0  0  0  0  0
   45.4703  -13.2588  110.0092 S   0  0  0  0  0  0  0  0  0  0  0  0
   43.4247   -3.7028  118.1887 S   0  0  1  0  0  0  0  0  0  0  0  0
   41.4443    1.4715  121.3923 H   0  0  0  0  0  0  0  0  0  0  0  0
   46.5477   -5.5215  114.9204 H   0  0  0  0  0  0  0  0  0  0  0  0
   42.4752  -12.7148  112.3806 H   0  0  0  0  0  0  0  0  0  0  0  0
   45.9151  -12.5750  114.9520 H   0  0  0  0  0  0  0  0  0  0  0  0
   40.7840   -0.9882  117.9228 H   0  0  0  0  0  0  0  0  0  0  0  0
   39.9822    0.7252  119.5331 H   0  0  0  0  0  0  0  0  0  0  0  0
   43.7022    0.4867  121.6632 H   0  0  0  0  0  0  0  0  0  0  0  0
   42.2121  -10.2579  112.5908 H   0  0  0  0  0  0  0  0  0  0  0  0
   45.6668  -10.1188  115.1587 H   0  0  0  0  0  0  0  0  0  0  0  0
   44.5242   -1.2181  120.0604 H   0  0  0  0  0  0  0  0  0  0  0  0
   42.3799   -5.6959  113.8555 H   0  0  0  0  0  0  0  0  0  0  0  0
   46.2228  -11.4509  111.6971 H   0  0  0  0  0  0  0  0  0  0  0  0
   44.3257  -13.8776  113.5602 H   0  0  0  0  0  0  0  0  0  0  0  0
   45.8234  -16.2713  107.9576 H   0  0  0  0  0  0  0  0  0  0  0  0
   46.1835  -18.8451  108.7691 H   0  0  0  0  0  0  0  0  0  0  0  0
   44.6974  -18.9519  107.7657 H   0  0  0  0  0  0  0  0  0  0  0  0
   45.6747  -17.4447  107.7657 H   0  0  0  0  0  0  0  0  0  0  0  0
   42.4854  -18.0468  110.2753 H   0  0  0  0  0  0  0  0  0  0  0  0
   42.5973  -17.1220  108.7395 H   0  0  0  0  0  0  0  0  0  0  0  0
   42.8624  -18.8986  108.7395 H   0  0  0  0  0  0  0  0  0  0  0  0
   41.7870   -4.5546  115.9785 H   0  0  0  0  0  0  0  0  0  0  0  0
   45.9617   -4.3741  117.0380 H   0  0  0  0  0  0  0  0  0  0  0  0
   46.4645   -9.4592  112.8835 H   0  0  0  0  0  0  0  0  0  0  0  0
   47.0036   -8.6794  111.3324 H   0  0  0  0  0  0  0  0  0  0  0  0
   44.9652   -7.8397  110.8753 H   0  0  0  0  0  0  0  0  0  0  0  0
   44.1164   -9.2963  111.5808 H   0  0  0  0  0  0  0  0  0  0  0  0
   47.4363  -11.8642  107.3483 H   0  0  0  0  0  0  0  0  0  0  0  0
   42.7612   -8.2418  113.8870 H   0  0  0  0  0  0  0  0  0  0  0  0
   44.2726   -8.2295  114.9315 H   0  0  0  0  0  0  0  0  0  0  0  0
   44.7835  -18.2907  110.4619 H   0  0  0  0  0  0  0  0  0  0  0  0
   43.4486   -1.7479  116.9637 H   0  0  0  0  0  0  0  0  0  0  0  0
  1  6  2  0
  1  7  1  0
  2 19  2  0
  2 26  1  0
  3  8  2  0
  3 14  1  0
  4  9  1  0
  4 14  2  0
  5  6  1  0
  5 27  2  0
  7 10  2  0
  8 25  1  0
  9 25  2  0
 10 27  1  0
 11 18  1  0
 11 26  2  0
 12 20  1  0
 12 31  1  0
 13 22  1  0
 13 33  2  0
 15 30  1  0
 15 33  1  0
 24 16  1  0
 17 24  1  0
 18 28  2  0
 19 28  1  0
 20 21  1  0
 21 35  1  0
 22 29  2  0
 23 25  1  0
 23 35  1  0
 24 30  1  0
 26 32  1  0
 27 34  1  0
 28 42  1  0
 29 31  1  0
 29 41  1  0
 30 36  2  0
 31 37  2  0
 32 35  1  0
 32 38  2  0
 33 41  1  0
 42 34  1  6
 39 42  2  0
 40 42  2  0
  1 43  1  0
  2 44  1  0
  3 45  1  0
  4 46  1  0
  5 47  1  0
  6 48  1  0
  7 49  1  0
  8 50  1  0
  9 51  1  0
 10 52  1  0
 11 53  1  0
 12 54  1  0
 14 55  1  0
 15 56  1  0
 16 57  1  0
 16 58  1  0
 16 59  1  0
 17 60  1  0
 17 61  1  0
 17 62  1  0
 18 63  1  0
 19 64  1  0
 20 65  1  0
 20 66  1  0
 21 67  1  0
 21 68  1  0
 22 69  1  0
 23 70  1  0
 23 71  1  0
 24 72  1  1
 34 73  1  0
M  END
>  <filename_input>  (9) 
7QHG_T3B_docked.sdf

>  <pdb_id>  (9) 
7QHG_T3B

>  <pose_rank>  (9) 
8

>  <num_atoms_heavy>  (9) 
42

>  <num_torsions>  (9) 
11

>  <pose>  (9) 
[44.89074898207007, -6.470509240520952, 113.0288336284217, 0.5166700470709468, 3.0514459622557797, -1.3753622840704607, -2.4159288999149924, 2.7037187782257313, 3.821318224367664, 2.493079814493919, -2.6430197122252332, 0.8143535429849873, -0.0305147385750527, -2.3835163115510256, 2.935084660380185, -0.7140803338961809, 4.0984284342626305]

>  <energy>  (9) 
-573.2558560789001

>  <inter_energy>  (9) 
-622.3630565232945

>  <intra_energy>  (9) 
53.70361804074617

>  <rmsd>  (9) 
12.4522

>  <sdf_rank>  (9) 
0

$$$$

     RDKit          3D

 73 76  0  0  0  0  0  0  0  0999 V2000
   43.6395   -2.0858  117.3722 C   0  0  0  0  0  0  0  0  0  0  0  0
   46.4175   -9.9248  113.5686 C   0  0  0  0  0  0  0  0  0  0  0  0
   48.0360  -12.9589  107.4544 C   0  0  0  0  0  0  0  0  0  0  0  0
   47.0379  -11.0794  106.3640 C   0  0  0  0  0  0  0  0  0  0  0  0
   44.4889   -4.3305  117.4124 C   0  0  0  0  0  0  0  0  0  0  0  0
   44.1631   -3.1559  118.0718 C   0  0  0  0  0  0  0  0  0  0  0  0
   43.4492   -2.1832  116.0085 C   0  0  0  0  0  0  0  0  0  0  0  0
   47.6340  -12.4610  108.6844 C   0  0  0  0  0  0  0  0  0  0  0  0
   46.6322  -10.5815  107.5912 C   0  0  0  0  0  0  0  0  0  0  0  0
   43.7675   -3.3505  115.3387 C   0  0  0  0  0  0  0  0  0  0  0  0
   44.4986   -8.9697  112.4990 C   0  0  0  0  0  0  0  0  0  0  0  0
   45.5567  -15.4591  110.5143 N   0  0  0  0  0  0  0  0  0  0  0  0
   43.2745  -19.1384  108.7295 N   0  0  0  0  0  0  0  0  0  0  0  0
   47.7375  -12.2685  106.2939 C   0  0  0  0  0  0  0  0  0  0  0  0
   45.0595  -20.0911  107.5204 N   0  0  0  0  0  0  0  0  0  0  0  0
   48.2512  -21.4369  106.1640 C   0  0  0  0  0  0  0  0  0  0  0  0
   46.2125  -21.0126  104.7567 C   0  0  0  0  0  0  0  0  0  0  0  0
   44.7210   -7.7717  113.1571 C   0  0  0  0  0  0  0  0  0  0  0  0
   46.6498   -8.7327  114.2286 C   0  0  0  0  0  0  0  0  0  0  0  0
   45.8602  -14.1611  111.1086 C   0  0  0  0  0  0  0  0  0  0  0  0
   45.3727  -12.9979  110.2440 C   0  0  0  0  0  0  0  0  0  0  0  0
   43.0099  -18.0317  109.5183 C   0  0  0  0  0  0  0  0  0  0  0  0
   46.4233  -10.7401  110.0946 C   0  0  0  0  0  0  0  0  0  0  0  0
   46.7295  -21.2579  106.1652 C   0  0  2  0  0  0  0  0  0  0  0  0
   46.9184  -11.2685  108.7677 C   0  0  0  0  0  0  0  0  0  0  0  0
   45.3346  -10.0650  112.7034 C   0  0  0  0  0  0  0  0  0  0  0  0
   44.2774   -4.4374  116.0419 C   0  0  0  0  0  0  0  0  0  0  0  0
   45.7918   -7.6639  114.0286 C   0  0  0  0  0  0  0  0  0  0  0  0
   44.0327  -17.1416  109.6911 C   0  0  0  0  0  0  0  0  0  0  0  0
   46.3512  -20.0802  107.0578 C   0  0  0  0  0  0  0  0  0  0  0  0
   44.3056  -15.9269  110.4890 C   0  0  0  0  0  0  0  0  0  0  0  0
   45.0710  -11.4014  112.0777 C   0  0  0  0  0  0  0  0  0  0  0  0
   44.5114  -19.0920  108.3018 C   0  0  0  0  0  0  0  0  0  0  0  0
   44.5327   -5.6771  115.3721 N   0  0  0  0  0  0  0  0  0  0  0  0
   45.5888  -11.6765  110.8580 N   0  0  0  0  0  0  0  0  0  0  0  0
   47.1504  -19.1818  107.3173 O   0  0  0  0  0  0  0  0  0  0  0  0
   43.3839  -15.3401  111.0441 O   0  0  0  0  0  0  0  0  0  0  0  0
   44.4072  -12.2195  112.6911 O   0  0  0  0  0  0  0  0  0  0  0  0
   46.6702   -6.5164  116.1883 O   0  0  0  0  0  0  0  0  0  0  0  0
   46.6111   -5.1978  114.0911 O   0  0  0  0  0  0  0  0  0  0  0  0
   45.4108  -17.7037  108.8008 S   0  0  0  0  0  0  0  0  0  0  0  0
   46.0285   -6.1810  114.9524 S   0  0  1  0  0  0  0  0  0  0  0  0
   43.3748   -1.1582  117.9008 H   0  0  0  0  0  0  0  0  0  0  0  0
   47.0972  -10.7747  113.7287 H   0  0  0  0  0  0  0  0  0  0  0  0
   48.5939  -13.9055  107.4015 H   0  0  0  0  0  0  0  0  0  0  0  0
   46.8024  -10.5264  105.4427 H   0  0  0  0  0  0  0  0  0  0  0  0
   44.9140   -5.1768  117.9719 H   0  0  0  0  0  0  0  0  0  0  0  0
   44.3222   -3.0753  119.1572 H   0  0  0  0  0  0  0  0  0  0  0  0
   43.0419   -1.3269  115.4510 H   0  0  0  0  0  0  0  0  0  0  0  0
   47.8824  -13.0126  109.6030 H   0  0  0  0  0  0  0  0  0  0  0  0
   46.0777   -9.6326  107.6367 H   0  0  0  0  0  0  0  0  0  0  0  0
   43.6177   -3.4197  114.2512 H   0  0  0  0  0  0  0  0  0  0  0  0
   43.6497   -9.0575  111.8049 H   0  0  0  0  0  0  0  0  0  0  0  0
   46.3177  -16.0224  110.1088 H   0  0  0  0  0  0  0  0  0  0  0  0
   48.0560  -12.6649  105.3185 H   0  0  0  0  0  0  0  0  0  0  0  0
   44.4624  -20.8922  107.2701 H   0  0  0  0  0  0  0  0  0  0  0  0
   48.6161  -21.4799  107.2008 H   0  0  0  0  0  0  0  0  0  0  0  0
   48.5100  -22.3717  105.6452 H   0  0  0  0  0  0  0  0  0  0  0  0
   48.7199  -20.5877  105.6452 H   0  0  0  0  0  0  0  0  0  0  0  0
   45.2197  -20.5416  104.8074 H   0  0  0  0  0  0  0  0  0  0  0  0
   46.9068  -20.3479  104.2218 H   0  0  0  0  0  0  0  0  0  0  0  0
   46.1369  -21.9708  104.2218 H   0  0  0  0  0  0  0  0  0  0  0  0
   44.0533   -6.9138  112.9893 H   0  0  0  0  0  0  0  0  0  0  0  0
   47.5096   -8.6336  114.9075 H   0  0  0  0  0  0  0  0  0  0  0  0
   45.3716  -14.0997  112.0922 H   0  0  0  0  0  0  0  0  0  0  0  0
   46.9536  -14.0792  111.1968 H   0  0  0  0  0  0  0  0  0  0  0  0
   45.9106  -13.0280  109.2850 H   0  0  0  0  0  0  0  0  0  0  0  0
   44.2869  -13.1218  110.1186 H   0  0  0  0  0  0  0  0  0  0  0  0
   42.0250  -17.8765  109.9830 H   0  0  0  0  0  0  0  0  0  0  0  0
   47.2989  -10.4832  110.7088 H   0  0  0  0  0  0  0  0  0  0  0  0
   45.7853   -9.8742  109.8642 H   0  0  0  0  0  0  0  0  0  0  0  0
   46.2719  -22.1805  106.5516 H   0  0  0  0  0  0  0  0  0  0  0  0
   43.7315   -6.2824  115.1431 H   0  0  0  0  0  0  0  0  0  0  0  0
  1  6  2  0
  1  7  1  0
  2 19  2  0
  2 26  1  0
  3  8  2  0
  3 14  1  0
  4  9  1  0
  4 14  2  0
  5  6  1  0
  5 27  2  0
  7 10  2  0
  8 25  1  0
  9 25  2  0
 10 27  1  0
 11 18  1  0
 11 26  2  0
 12 20  1  0
 12 31  1  0
 13 22  1  0
 13 33  2  0
 15 30  1  0
 15 33  1  0
 24 16  1  0
 17 24  1  0
 18 28  2  0
 19 28  1  0
 20 21  1  0
 21 35  1  0
 22 29  2  0
 23 25  1  0
 23 35  1  0
 24 30  1  0
 26 32  1  0
 27 34  1  0
 28 42  1  0
 29 31  1  0
 29 41  1  0
 30 36  2  0
 31 37  2  0
 32 35  1  0
 32 38  2  0
 33 41  1  0
 42 34  1  1
 39 42  2  0
 40 42  2  0
  1 43  1  0
  2 44  1  0
  3 45  1  0
  4 46  1  0
  5 47  1  0
  6 48  1  0
  7 49  1  0
  8 50  1  0
  9 51  1  0
 10 52  1  0
 11 53  1  0
 12 54  1  0
 14 55  1  0
 15 56  1  0
 16 57  1  0
 16 58  1  0
 16 59  1  0
 17 60  1  0
 17 61  1  0
 17 62  1  0
 18 63  1  0
 19 64  1  0
 20 65  1  0
 20 66  1  0
 21 67  1  0
 21 68  1  0
 22 69  1  0
 23 70  1  0
 23 71  1  0
 24 72  1  1
 34 73  1  0
M  END
>  <filename_input>  (10) 
7QHG_T3B_docked.sdf

>  <pdb_id>  (10) 
7QHG_T3B

>  <pose_rank>  (10) 
9

>  <num_atoms_heavy>  (10) 
42

>  <num_torsions>  (10) 
11

>  <pose>  (10) 
[45.07095854867376, -11.401361677686534, 112.07772799062084, -3.813474419258499, 0.10461569662893572, -1.1572500377727486, -12.230452793820007, -7.741068508374252, -2.239957627118753, 3.017170092667057, 13.567364073552504, 1.3856774472922664, -2.5020941653873385, -3.1966120849963615, 0.04129347884795888, -19.900264253527713, -1.5998979413882521]

>  <energy>  (10) 
-588.6922435639017

>  <inter_energy>  (10) 
-648.39501483615

>  <intra_energy>  (10) 
59.76175227322653

>  <rmsd>  (10) 
12.0355

>  <sdf_rank>  (10) 
0

$$$$

     RDKit          3D

 73 76  0  0  0  0  0  0  0  0999 V2000
   38.0821   -3.3132  120.1891 C   0  0  0  0  0  0  0  0  0  0  0  0
   44.9093   -3.1579  117.7256 C   0  0  0  0  0  0  0  0  0  0  0  0
   39.9283   -4.1315  116.1814 C   0  0  0  0  0  0  0  0  0  0  0  0
   39.8133   -6.2230  115.0279 C   0  0  0  0  0  0  0  0  0  0  0  0
   39.6031   -1.7302  121.1599 C   0  0  0  0  0  0  0  0  0  0  0  0
   38.3088   -2.1355  120.8750 C   0  0  0  0  0  0  0  0  0  0  0  0
   39.1498   -4.0848  119.7768 C   0  0  0  0  0  0  0  0  0  0  0  0
   41.2823   -4.3280  116.4062 C   0  0  0  0  0  0  0  0  0  0  0  0
   41.1664   -6.4201  115.2482 C   0  0  0  0  0  0  0  0  0  0  0  0
   40.4462   -3.6932  120.0570 C   0  0  0  0  0  0  0  0  0  0  0  0
   43.1737   -2.0293  116.5204 C   0  0  0  0  0  0  0  0  0  0  0  0
   45.1259   -7.9857  113.0620 N   0  0  0  0  0  0  0  0  0  0  0  0
   45.0938  -11.1781  109.9222 N   0  0  0  0  0  0  0  0  0  0  0  0
   39.1937   -5.0786  115.4917 C   0  0  0  0  0  0  0  0  0  0  0  0
   44.8884  -13.4596  110.4775 N   0  0  0  0  0  0  0  0  0  0  0  0
   43.4456  -15.7925  109.8497 C   0  0  0  0  0  0  0  0  0  0  0  0
   44.4020  -16.8634  111.9125 C   0  0  0  0  0  0  0  0  0  0  0  0
   42.7633   -1.4040  117.6859 C   0  0  0  0  0  0  0  0  0  0  0  0
   44.5093   -2.5371  118.8940 C   0  0  0  0  0  0  0  0  0  0  0  0
   45.1830   -7.1100  114.2281 C   0  0  0  0  0  0  0  0  0  0  0  0
   44.6165   -5.7194  113.9390 C   0  0  0  0  0  0  0  0  0  0  0  0
   45.3841   -9.9689  110.5309 C   0  0  0  0  0  0  0  0  0  0  0  0
   43.4074   -5.6765  116.1206 C   0  0  0  0  0  0  0  0  0  0  0  0
   44.6563  -15.8760  110.7849 C   0  0  2  0  0  0  0  0  0  0  0  0
   41.9212   -5.4725  115.9342 C   0  0  0  0  0  0  0  0  0  0  0  0
   44.2428   -2.9224  116.5251 C   0  0  0  0  0  0  0  0  0  0  0  0
   40.6789   -2.5176  120.7639 C   0  0  0  0  0  0  0  0  0  0  0  0
   43.4286   -1.6709  118.8707 C   0  0  0  0  0  0  0  0  0  0  0  0
   45.6808  -10.0080  111.8645 C   0  0  0  0  0  0  0  0  0  0  0  0
   44.9485  -14.4986  111.3717 C   0  0  0  0  0  0  0  0  0  0  0  0
   45.9307   -9.0471  112.9605 C   0  0  0  0  0  0  0  0  0  0  0  0
   44.6555   -3.6839  115.3018 C   0  0  0  0  0  0  0  0  0  0  0  0
   45.1662  -12.1455  110.8019 C   0  0  0  0  0  0  0  0  0  0  0  0
   42.0123   -2.1457  121.1304 N   0  0  0  0  0  0  0  0  0  0  0  0
   44.2530   -4.9673  115.1522 N   0  0  0  0  0  0  0  0  0  0  0  0
   45.2375  -14.3485  112.5580 O   0  0  0  0  0  0  0  0  0  0  0  0
   46.8095   -9.2741  113.7841 O   0  0  0  0  0  0  0  0  0  0  0  0
   45.3334   -3.1228  114.4581 O   0  0  0  0  0  0  0  0  0  0  0  0
   43.9863   -0.7194  121.2236 O   0  0  0  0  0  0  0  0  0  0  0  0
   41.9544    0.1036  120.0684 O   0  0  0  0  0  0  0  0  0  0  0  0
   45.6142  -11.6569  112.3975 S   0  0  0  0  0  0  0  0  0  0  0  0
   42.8546   -0.9643  120.3806 S   0  0  1  0  0  0  0  0  0  0  0  0
   37.0530   -3.6353  119.9722 H   0  0  0  0  0  0  0  0  0  0  0  0
   45.7661   -3.8475  117.7439 H   0  0  0  0  0  0  0  0  0  0  0  0
   39.4373   -3.2199  116.5526 H   0  0  0  0  0  0  0  0  0  0  0  0
   39.2305   -6.9796  114.4822 H   0  0  0  0  0  0  0  0  0  0  0  0
   39.7792   -0.7873  121.6982 H   0  0  0  0  0  0  0  0  0  0  0  0
   37.4581   -1.5167  121.1964 H   0  0  0  0  0  0  0  0  0  0  0  0
   38.9684   -5.0171  119.2218 H   0  0  0  0  0  0  0  0  0  0  0  0
   41.8574   -3.5731  116.9624 H   0  0  0  0  0  0  0  0  0  0  0  0
   41.6501   -7.3356  114.8770 H   0  0  0  0  0  0  0  0  0  0  0  0
   41.2926   -4.3105  119.7214 H   0  0  0  0  0  0  0  0  0  0  0  0
   42.6481   -1.8178  115.5775 H   0  0  0  0  0  0  0  0  0  0  0  0
   44.4558   -7.7825  112.3067 H   0  0  0  0  0  0  0  0  0  0  0  0
   38.1197   -4.9214  115.3129 H   0  0  0  0  0  0  0  0  0  0  0  0
   44.6201  -13.6720  109.5061 H   0  0  0  0  0  0  0  0  0  0  0  0
   42.5243  -15.7290  110.4474 H   0  0  0  0  0  0  0  0  0  0  0  0
   43.5334  -14.8983  109.2152 H   0  0  0  0  0  0  0  0  0  0  0  0
   43.4099  -16.6903  109.2152 H   0  0  0  0  0  0  0  0  0  0  0  0
   44.5325  -16.3567  112.8801 H   0  0  0  0  0  0  0  0  0  0  0  0
   43.3750  -17.2500  111.8367 H   0  0  0  0  0  0  0  0  0  0  0  0
   45.1145  -17.6980  111.8367 H   0  0  0  0  0  0  0  0  0  0  0  0
   41.9167   -0.7018  117.6706 H   0  0  0  0  0  0  0  0  0  0  0  0
   45.0451   -2.7294  119.8353 H   0  0  0  0  0  0  0  0  0  0  0  0
   44.6008   -7.5667  115.0421 H   0  0  0  0  0  0  0  0  0  0  0  0
   46.2402   -6.9908  114.5076 H   0  0  0  0  0  0  0  0  0  0  0  0
   45.3734   -5.1434  113.3864 H   0  0  0  0  0  0  0  0  0  0  0  0
   43.6930   -5.8614  113.3584 H   0  0  0  0  0  0  0  0  0  0  0  0
   45.3762   -9.0233  109.9689 H   0  0  0  0  0  0  0  0  0  0  0  0
   43.6766   -5.3288  117.1289 H   0  0  0  0  0  0  0  0  0  0  0  0
   43.5942   -6.7496  115.9670 H   0  0  0  0  0  0  0  0  0  0  0  0
   45.5218  -16.2239  110.2019 H   0  0  0  0  0  0  0  0  0  0  0  0
   42.4637   -2.6493  121.9073 H   0  0  0  0  0  0  0  0  0  0  0  0
  1  6  2  0
  1  7  1  0
  2 19  2  0
  2 26  1  0
  3  8  2  0
  3 14  1  0
  4  9  1  0
  4 14  2  0
  5  6  1  0
  5 27  2  0
  7 10  2  0
  8 25  1  0
  9 25  2  0
 10 27  1  0
 11 18  1  0
 11 26  2  0
 12 20  1  0
 12 31  1  0
 13 22  1  0
 13 33  2  0
 15 30  1  0
 15 33  1  0
 24 16  1  0
 17 24  1  0
 18 28  2  0
 19 28  1  0
 20 21  1  0
 21 35  1  0
 22 29  2  0
 23 25  1  0
 23 35  1  0
 24 30  1  0
 26 32  1  0
 27 34  1  0
 28 42  1  0
 29 31  1  0
 29 41  1  0
 30 36  2  0
 31 37  2  0
 32 35  1  0
 32 38  2  0
 33 41  1  0
 42 34  1  1
 39 42  2  0
 40 42  2  0
  1 43  1  0
  2 44  1  0
  3 45  1  0
  4 46  1  0
  5 47  1  0
  6 48  1  0
  7 49  1  0
  8 50  1  0
  9 51  1  0
 10 52  1  0
 11 53  1  0
 12 54  1  0
 14 55  1  0
 15 56  1  0
 16 57  1  0
 16 58  1  0
 16 59  1  0
 17 60  1  0
 17 61  1  0
 17 62  1  0
 18 63  1  0
 19 64  1  0
 20 65  1  0
 20 66  1  0
 21 67  1  0
 21 68  1  0
 22 69  1  0
 23 70  1  0
 23 71  1  0
 24 72  1  6
 34 73  1  0
M  END
>  <filename_input>  (11) 
7QHG_T3B_docked.sdf

>  <pdb_id>  (11) 
7QHG_T3B

>  <pose_rank>  (11) 
10

>  <num_atoms_heavy>  (11) 
42

>  <num_torsions>  (11) 
11

>  <pose>  (11) 
[44.65551451226128, -3.6838791429060507, 115.30181513699195, 0.6434973863029836, 3.036616539902171, -1.2949384322897874, 3.3236386732540035, -0.3694402851986562, -0.5506102862915074, -3.2411878001806023, 10.580177124332714, -5.160874802557962, -4.760614167849431, -5.392518553994681, 2.0397878694155027, 22.4599523177442, 4.243336992119184]

>  <energy>  (11) 
-548.0954453630711

>  <inter_energy>  (11) 
-600.4643653874966

>  <intra_energy>  (11) 
47.43307343467899

>  <rmsd>  (11) 
13.8147

>  <sdf_rank>  (11) 
0

$$$$

     RDKit          3D

 73 76  0  0  0  0  0  0  0  0999 V2000
   49.4677   -2.0998  109.3046 C   0  0  0  0  0  0  0  0  0  0  0  0
   44.6745   -8.5412  110.9480 C   0  0  0  0  0  0  0  0  0  0  0  0
   47.8441  -14.8373  112.8694 C   0  0  0  0  0  0  0  0  0  0  0  0
   47.1024  -13.7210  114.8497 C   0  0  0  0  0  0  0  0  0  0  0  0
   48.4936   -4.2846  109.5033 C   0  0  0  0  0  0  0  0  0  0  0  0
   49.4789   -3.4481  109.0033 C   0  0  0  0  0  0  0  0  0  0  0  0
   48.4650   -1.5814  110.0991 C   0  0  0  0  0  0  0  0  0  0  0  0
   47.2272  -13.8700  112.0910 C   0  0  0  0  0  0  0  0  0  0  0  0
   46.4882  -12.7515  114.0743 C   0  0  0  0  0  0  0  0  0  0  0  0
   47.4774   -2.4057  110.6068 C   0  0  0  0  0  0  0  0  0  0  0  0
   44.7668   -8.7520  113.3324 C   0  0  0  0  0  0  0  0  0  0  0  0
   44.9585  -13.1160  109.5543 N   0  0  0  0  0  0  0  0  0  0  0  0
   48.5558  -12.3075  106.8711 N   0  0  0  0  0  0  0  0  0  0  0  0
   47.7824  -14.7627  114.2489 C   0  0  0  0  0  0  0  0  0  0  0  0
   47.7671  -11.6960  104.7358 N   0  0  0  0  0  0  0  0  0  0  0  0
   46.1418   -9.9939  102.0128 C   0  0  0  0  0  0  0  0  0  0  0  0
   47.4057  -12.0796  101.4054 C   0  0  0  0  0  0  0  0  0  0  0  0
   45.4646   -7.5588  113.4165 C   0  0  0  0  0  0  0  0  0  0  0  0
   45.3684   -7.3479  111.0211 C   0  0  0  0  0  0  0  0  0  0  0  0
   43.8513  -13.6404  110.3475 C   0  0  0  0  0  0  0  0  0  0  0  0
   43.8036  -13.0348  111.7508 C   0  0  0  0  0  0  0  0  0  0  0  0
   48.0987  -12.9176  108.0268 C   0  0  0  0  0  0  0  0  0  0  0  0
   45.9180  -11.7147  111.8526 C   0  0  0  0  0  0  0  0  0  0  0  0
   47.2082  -11.0001  102.4575 C   0  0  2  0  0  0  0  0  0  0  0  0
   46.5477  -12.8085  112.6846 C   0  0  0  0  0  0  0  0  0  0  0  0
   44.3726   -9.2657  112.0990 C   0  0  0  0  0  0  0  0  0  0  0  0
   47.4950   -3.7673  110.3217 C   0  0  0  0  0  0  0  0  0  0  0  0
   45.7714   -6.8679  112.2563 C   0  0  0  0  0  0  0  0  0  0  0  0
   46.8055  -13.3599  108.0179 C   0  0  0  0  0  0  0  0  0  0  0  0
   46.7890  -11.6448  103.7748 C   0  0  0  0  0  0  0  0  0  0  0  0
   45.8381  -13.9380  108.9753 C   0  0  0  0  0  0  0  0  0  0  0  0
   43.6963  -10.5966  111.9650 C   0  0  0  0  0  0  0  0  0  0  0  0
   47.6002  -12.2815  105.9762 C   0  0  0  0  0  0  0  0  0  0  0  0
   46.5252   -4.6422  110.9089 N   0  0  0  0  0  0  0  0  0  0  0  0
   44.4497  -11.7144  111.8449 N   0  0  0  0  0  0  0  0  0  0  0  0
   45.6589  -12.1013  103.9413 O   0  0  0  0  0  0  0  0  0  0  0  0
   45.8129  -15.1489  109.1631 O   0  0  0  0  0  0  0  0  0  0  0  0
   42.4783  -10.6442  111.9838 O   0  0  0  0  0  0  0  0  0  0  0  0
   46.1736   -4.5304  113.3179 O   0  0  0  0  0  0  0  0  0  0  0  0
   48.1248   -5.7792  112.4382 O   0  0  0  0  0  0  0  0  0  0  0  0
   46.1136  -13.0133  106.4659 S   0  0  0  0  0  0  0  0  0  0  0  0
   46.7479   -5.4022  112.3372 S   0  0  1  0  0  0  0  0  0  0  0  0
   50.2562   -1.4409  108.9122 H   0  0  0  0  0  0  0  0  0  0  0  0
   44.3562   -8.9241  109.9671 H   0  0  0  0  0  0  0  0  0  0  0  0
   48.3840  -15.6663  112.3885 H   0  0  0  0  0  0  0  0  0  0  0  0
   47.0487  -13.6613  115.9467 H   0  0  0  0  0  0  0  0  0  0  0  0
   48.5013   -5.3558  109.2535 H   0  0  0  0  0  0  0  0  0  0  0  0
   50.2735   -3.8595  108.3635 H   0  0  0  0  0  0  0  0  0  0  0  0
   48.4514   -0.5060  110.3298 H   0  0  0  0  0  0  0  0  0  0  0  0
   47.2747  -13.9413  110.9943 H   0  0  0  0  0  0  0  0  0  0  0  0
   45.9472  -11.9273  114.5621 H   0  0  0  0  0  0  0  0  0  0  0  0
   46.6786   -1.9852  111.2354 H   0  0  0  0  0  0  0  0  0  0  0  0
   44.5203   -9.3021  114.2526 H   0  0  0  0  0  0  0  0  0  0  0  0
   45.0631  -12.0978  109.4393 H   0  0  0  0  0  0  0  0  0  0  0  0
   48.2730  -15.5301  114.8657 H   0  0  0  0  0  0  0  0  0  0  0  0
   48.6808  -11.2726  104.5195 H   0  0  0  0  0  0  0  0  0  0  0  0
   45.6677   -9.5464  102.8988 H   0  0  0  0  0  0  0  0  0  0  0  0
   46.6125   -9.2031  101.4101 H   0  0  0  0  0  0  0  0  0  0  0  0
   45.3797  -10.5096  101.4101 H   0  0  0  0  0  0  0  0  0  0  0  0
   47.5825  -13.0459  101.9004 H   0  0  0  0  0  0  0  0  0  0  0  0
   46.5053  -12.1487  100.7774 H   0  0  0  0  0  0  0  0  0  0  0  0
   48.2722  -11.8253  100.7774 H   0  0  0  0  0  0  0  0  0  0  0  0
   45.7722   -7.1635  114.3959 H   0  0  0  0  0  0  0  0  0  0  0  0
   45.5988   -6.7839  110.1053 H   0  0  0  0  0  0  0  0  0  0  0  0
   42.9072  -13.4117  109.8314 H   0  0  0  0  0  0  0  0  0  0  0  0
   43.9987  -14.7252  110.4544 H   0  0  0  0  0  0  0  0  0  0  0  0
   42.7499  -12.9285  112.0481 H   0  0  0  0  0  0  0  0  0  0  0  0
   44.3589  -13.7139  112.4145 H   0  0  0  0  0  0  0  0  0  0  0  0
   48.7446  -13.0404  108.9088 H   0  0  0  0  0  0  0  0  0  0  0  0
   46.2583  -10.7459  112.2471 H   0  0  0  0  0  0  0  0  0  0  0  0
   46.2329  -11.8956  110.8143 H   0  0  0  0  0  0  0  0  0  0  0  0
   48.1583  -10.4622  102.5916 H   0  0  0  0  0  0  0  0  0  0  0  0
   45.6413   -4.8003  110.4043 H   0  0  0  0  0  0  0  0  0  0  0  0
  1  6  2  0
  1  7  1  0
  2 19  2  0
  2 26  1  0
  3  8  2  0
  3 14  1  0
  4  9  1  0
  4 14  2  0
  5  6  1  0
  5 27  2  0
  7 10  2  0
  8 25  1  0
  9 25  2  0
 10 27  1  0
 11 18  1  0
 11 26  2  0
 12 20  1  0
 12 31  1  0
 13 22  1  0
 13 33  2  0
 15 30  1  0
 15 33  1  0
 24 16  1  0
 17 24  1  0
 18 28  2  0
 19 28  1  0
 20 21  1  0
 21 35  1  0
 22 29  2  0
 23 25  1  0
 23 35  1  0
 24 30  1  0
 26 32  1  0
 27 34  1  0
 28 42  1  0
 29 31  1  0
 29 41  1  0
 30 36  2  0
 31 37  2  0
 32 35  1  0
 32 38  2  0
 33 41  1  0
 42 34  1  6
 39 42  2  0
 40 42  2  0
  1 43  1  0
  2 44  1  0
  3 45  1  0
  4 46  1  0
  5 47  1  0
  6 48  1  0
  7 49  1  0
  8 50  1  0
  9 51  1  0
 10 52  1  0
 11 53  1  0
 12 54  1  0
 14 55  1  0
 15 56  1  0
 16 57  1  0
 16 58  1  0
 16 59  1  0
 17 60  1  0
 17 61  1  0
 17 62  1  0
 18 63  1  0
 19 64  1  0
 20 65  1  0
 20 66  1  0
 21 67  1  0
 21 68  1  0
 22 69  1  0
 23 70  1  0
 23 71  1  0
 24 72  1  1
 34 73  1  0
M  END
>  <filename_input>  (12) 
7QHG_T3B_docked.sdf

>  <pdb_id>  (12) 
7QHG_T3B

>  <pose_rank>  (12) 
11

>  <num_atoms_heavy>  (12) 
42

>  <num_torsions>  (12) 
11

>  <pose>  (12) 
[43.696287090654124, -10.59659916175443, 111.96501327105463, 1.1241562067845212, -0.7198800555788729, 1.080731897435783, -9.033391311667536, 1.311103992149753, -1.8596297431488948, -0.36042133643961494, 3.8517757707003493, -13.833204263093174, -11.6030828819797, -4.461937531884319, 0.48114161894336915, -8.070647367709496, 7.572030138277233]

>  <energy>  (12) 
-610.0831935206678

>  <inter_energy>  (12) 
-638.8481675074837

>  <intra_energy>  (12) 
40.80604717653024

>  <rmsd>  (12) 
9.27549

>  <sdf_rank>  (12) 
0

$$$$

     RDKit          3D

 73 76  0  0  0  0  0  0  0  0999 V2000
   45.0107   -9.7560  101.3944 C   0  0  0  0  0  0  0  0  0  0  0  0
   45.7705  -12.8281  107.9011 C   0  0  0  0  0  0  0  0  0  0  0  0
   44.4048   -7.9709  113.5525 C   0  0  0  0  0  0  0  0  0  0  0  0
   46.4831   -8.9191  114.2594 C   0  0  0  0  0  0  0  0  0  0  0  0
   46.4234  -11.6743  101.6877 C   0  0  0  0  0  0  0  0  0  0  0  0
   45.7172  -10.8161  100.8598 C   0  0  0  0  0  0  0  0  0  0  0  0
   44.9996   -9.5565  102.7603 C   0  0  0  0  0  0  0  0  0  0  0  0
   44.4396   -8.7468  112.4039 C   0  0  0  0  0  0  0  0  0  0  0  0
   46.5186   -9.6976  113.1144 C   0  0  0  0  0  0  0  0  0  0  0  0
   45.7023  -10.4039  103.5973 C   0  0  0  0  0  0  0  0  0  0  0  0
   47.7105  -11.9100  108.9651 C   0  0  0  0  0  0  0  0  0  0  0  0
   42.8625  -12.0608  114.0090 N   0  0  0  0  0  0  0  0  0  0  0  0
   40.2576  -12.5051  117.6635 N   0  0  0  0  0  0  0  0  0  0  0  0
   45.4263   -8.0574  114.4808 C   0  0  0  0  0  0  0  0  0  0  0  0
   39.2350  -10.7567  118.8690 N   0  0  0  0  0  0  0  0  0  0  0  0
   38.9692   -8.2500  121.2584 C   0  0  0  0  0  0  0  0  0  0  0  0
   37.7382  -10.4259  121.0007 C   0  0  0  0  0  0  0  0  0  0  0  0
   48.2641  -11.6302  107.7269 C   0  0  0  0  0  0  0  0  0  0  0  0
   46.3130  -12.5508  106.6603 C   0  0  0  0  0  0  0  0  0  0  0  0
   43.3705  -11.9219  112.6478 C   0  0  0  0  0  0  0  0  0  0  0  0
   44.8388  -12.3327  112.5307 C   0  0  0  0  0  0  0  0  0  0  0  0
   40.9907  -12.6959  116.5046 C   0  0  0  0  0  0  0  0  0  0  0  0
   45.5201  -10.5219  110.9558 C   0  0  0  0  0  0  0  0  0  0  0  0
   38.1314   -9.1246  120.3201 C   0  0  2  0  0  0  0  0  0  0  0  0
   45.4942   -9.6276  112.1742 C   0  0  0  0  0  0  0  0  0  0  0  0
   46.4637  -12.5222  109.0702 C   0  0  0  0  0  0  0  0  0  0  0  0
   46.4307  -11.4616  103.0621 C   0  0  0  0  0  0  0  0  0  0  0  0
   47.5647  -11.9633  106.5790 C   0  0  0  0  0  0  0  0  0  0  0  0
   41.2854  -11.5795  115.7732 C   0  0  0  0  0  0  0  0  0  0  0  0
   38.9281   -9.4325  119.0563 C   0  0  0  0  0  0  0  0  0  0  0  0
   41.9013  -11.2549  114.4686 C   0  0  0  0  0  0  0  0  0  0  0  0
   45.8759  -12.9204  110.3903 C   0  0  0  0  0  0  0  0  0  0  0  0
   39.9883  -11.2322  117.8128 C   0  0  0  0  0  0  0  0  0  0  0  0
   47.2275  -12.2946  103.9118 N   0  0  0  0  0  0  0  0  0  0  0  0
   45.4542  -11.9599  111.2454 N   0  0  0  0  0  0  0  0  0  0  0  0
   39.2820   -8.5447  118.2818 O   0  0  0  0  0  0  0  0  0  0  0  0
   41.4779  -10.3117  113.8103 O   0  0  0  0  0  0  0  0  0  0  0  0
   45.7754  -14.1054  110.6582 O   0  0  0  0  0  0  0  0  0  0  0  0
   48.3534  -10.3002  104.7447 O   0  0  0  0  0  0  0  0  0  0  0  0
   49.4937  -12.4933  104.9193 O   0  0  0  0  0  0  0  0  0  0  0  0
   40.6256  -10.1966  116.5854 S   0  0  0  0  0  0  0  0  0  0  0  0
   48.2990  -11.7092  104.9964 S   0  0  1  0  0  0  0  0  0  0  0  0
   44.4581   -9.0725  100.7331 H   0  0  0  0  0  0  0  0  0  0  0  0
   44.7775  -13.2967  107.9663 H   0  0  0  0  0  0  0  0  0  0  0  0
   43.5626   -7.2849  113.7258 H   0  0  0  0  0  0  0  0  0  0  0  0
   47.2987   -8.9871  114.9944 H   0  0  0  0  0  0  0  0  0  0  0  0
   46.9772  -12.5223  101.2585 H   0  0  0  0  0  0  0  0  0  0  0  0
   45.7193  -10.9796   99.7721 H   0  0  0  0  0  0  0  0  0  0  0  0
   44.4283   -8.7182  103.1856 H   0  0  0  0  0  0  0  0  0  0  0  0
   43.6268   -8.6660  111.6671 H   0  0  0  0  0  0  0  0  0  0  0  0
   47.3656  -10.3790  112.9460 H   0  0  0  0  0  0  0  0  0  0  0  0
   45.6854  -10.2419  104.6852 H   0  0  0  0  0  0  0  0  0  0  0  0
   48.2632  -11.6449  109.8785 H   0  0  0  0  0  0  0  0  0  0  0  0
   43.2505  -12.7903  114.6238 H   0  0  0  0  0  0  0  0  0  0  0  0
   45.3973   -7.4422  115.3922 H   0  0  0  0  0  0  0  0  0  0  0  0
   38.8826  -11.4373  119.5572 H   0  0  0  0  0  0  0  0  0  0  0  0
   38.7304   -8.4993  122.3028 H   0  0  0  0  0  0  0  0  0  0  0  0
   40.0380   -8.4326  121.0730 H   0  0  0  0  0  0  0  0  0  0  0  0
   38.7408   -7.1900  121.0730 H   0  0  0  0  0  0  0  0  0  0  0  0
   37.7777  -10.2953  122.0922 H   0  0  0  0  0  0  0  0  0  0  0  0
   36.7165  -10.7023  120.7012 H   0  0  0  0  0  0  0  0  0  0  0  0
   38.4360  -11.2218  120.7012 H   0  0  0  0  0  0  0  0  0  0  0  0
   49.2501  -11.1479  107.6558 H   0  0  0  0  0  0  0  0  0  0  0  0
   45.7549  -12.7950  105.7444 H   0  0  0  0  0  0  0  0  0  0  0  0
   42.7710  -12.5581  111.9801 H   0  0  0  0  0  0  0  0  0  0  0  0
   43.2949  -10.8609  112.3675 H   0  0  0  0  0  0  0  0  0  0  0  0
   45.4019  -11.8455  113.3403 H   0  0  0  0  0  0  0  0  0  0  0  0
   44.8734  -13.4300  112.5989 H   0  0  0  0  0  0  0  0  0  0  0  0
   41.3199  -13.6967  116.1882 H   0  0  0  0  0  0  0  0  0  0  0  0
   44.6602  -10.2609  110.3214 H   0  0  0  0  0  0  0  0  0  0  0  0
   46.4896  -10.3492  110.4656 H   0  0  0  0  0  0  0  0  0  0  0  0
   37.2155   -8.5744  120.0584 H   0  0  0  0  0  0  0  0  0  0  0  0
   47.1191  -13.3160  103.8350 H   0  0  0  0  0  0  0  0  0  0  0  0
  1  6  2  0
  1  7  1  0
  2 19  2  0
  2 26  1  0
  3  8  2  0
  3 14  1  0
  4  9  1  0
  4 14  2  0
  5  6  1  0
  5 27  2  0
  7 10  2  0
  8 25  1  0
  9 25  2  0
 10 27  1  0
 11 18  1  0
 11 26  2  0
 12 20  1  0
 12 31  1  0
 13 22  1  0
 13 33  2  0
 15 30  1  0
 15 33  1  0
 24 16  1  0
 17 24  1  0
 18 28  2  0
 19 28  1  0
 20 21  1  0
 21 35  1  0
 22 29  2  0
 23 25  1  0
 23 35  1  0
 24 30  1  0
 26 32  1  0
 27 34  1  0
 28 42  1  0
 29 31  1  0
 29 41  1  0
 30 36  2  0
 31 37  2  0
 32 35  1  0
 32 38  2  0
 33 41  1  0
 42 34  1  6
 39 42  2  0
 40 42  2  0
  1 43  1  0
  2 44  1  0
  3 45  1  0
  4 46  1  0
  5 47  1  0
  6 48  1  0
  7 49  1  0
  8 50  1  0
  9 51  1  0
 10 52  1  0
 11 53  1  0
 12 54  1  0
 14 55  1  0
 15 56  1  0
 16 57  1  0
 16 58  1  0
 16 59  1  0
 17 60  1  0
 17 61  1  0
 17 62  1  0
 18 63  1  0
 19 64  1  0
 20 65  1  0
 20 66  1  0
 21 67  1  0
 21 68  1  0
 22 69  1  0
 23 70  1  0
 23 71  1  0
 24 72  1  6
 34 73  1  0
M  END
>  <filename_input>  (13) 
7QHG_T3B_docked.sdf

>  <pdb_id>  (13) 
7QHG_T3B

>  <pose_rank>  (13) 
12

>  <num_atoms_heavy>  (13) 
42

>  <num_torsions>  (13) 
11

>  <pose>  (13) 
[45.87586895276402, -12.92039610017021, 110.39031804187361, -1.2177173084240487, 0.1487297507763512, 2.555378261052664, 6.283183136809548, 0.9638830320038986, -3.607287700011262, 0.3366037857958786, -0.017607986084535624, -4.6364065472118625, 1.3737519605042943, -0.4293743706478209, -1.4628851715870461, 5.632553993046763, -2.6509479196918835]

>  <energy>  (13) 
-590.3731671181985

>  <inter_energy>  (13) 
-628.9543296240105

>  <intra_energy>  (13) 
54.29149241720845

>  <rmsd>  (13) 
5.57733

>  <sdf_rank>  (13) 
0

$$$$

     RDKit          3D

 73 76  0  0  0  0  0  0  0  0999 V2000
   36.3467   -2.2920  111.6252 C   0  0  0  0  0  0  0  0  0  0  0  0
   41.6210   -5.6462  116.0258 C   0  0  0  0  0  0  0  0  0  0  0  0
   45.1889   -4.4408  117.8609 C   0  0  0  0  0  0  0  0  0  0  0  0
   44.7696   -2.3974  116.6919 C   0  0  0  0  0  0  0  0  0  0  0  0
   37.0916   -4.3716  112.5642 C   0  0  0  0  0  0  0  0  0  0  0  0
   36.9952   -3.5041  111.4877 C   0  0  0  0  0  0  0  0  0  0  0  0
   35.7833   -1.9475  112.8374 C   0  0  0  0  0  0  0  0  0  0  0  0
   44.8217   -5.1622  116.7353 C   0  0  0  0  0  0  0  0  0  0  0  0
   44.4056   -3.1157  115.5649 C   0  0  0  0  0  0  0  0  0  0  0  0
   35.8748   -2.8028  113.9202 C   0  0  0  0  0  0  0  0  0  0  0  0
   40.4598   -6.9806  114.4103 C   0  0  0  0  0  0  0  0  0  0  0  0
   45.7834   -8.9345  112.3514 N   0  0  0  0  0  0  0  0  0  0  0  0
   45.6268  -12.9589  110.3320 N   0  0  0  0  0  0  0  0  0  0  0  0
   45.1635   -3.0583  117.8393 C   0  0  0  0  0  0  0  0  0  0  0  0
   46.6047  -13.0852  108.1911 N   0  0  0  0  0  0  0  0  0  0  0  0
   48.7713  -12.8620  105.2430 C   0  0  0  0  0  0  0  0  0  0  0  0
   46.4685  -13.8440  105.0197 C   0  0  0  0  0  0  0  0  0  0  0  0
   39.2782   -6.3226  114.7079 C   0  0  0  0  0  0  0  0  0  0  0  0
   40.4475   -4.9815  116.3285 C   0  0  0  0  0  0  0  0  0  0  0  0
   45.7312   -7.5532  112.8197 C   0  0  0  0  0  0  0  0  0  0  0  0
   45.3050   -7.4520  114.2848 C   0  0  0  0  0  0  0  0  0  0  0  0
   45.1570  -12.0060  111.2198 C   0  0  0  0  0  0  0  0  0  0  0  0
   44.0842   -5.2766  114.3147 C   0  0  0  0  0  0  0  0  0  0  0  0
   47.5866  -13.4877  105.9863 C   0  0  2  0  0  0  0  0  0  0  0  0
   44.4331   -4.5076  115.5685 C   0  0  0  0  0  0  0  0  0  0  0  0
   41.6435   -6.6611  115.0716 C   0  0  0  0  0  0  0  0  0  0  0  0
   36.5433   -4.0163  113.7919 C   0  0  0  0  0  0  0  0  0  0  0  0
   39.2772   -5.3320  115.6756 C   0  0  0  0  0  0  0  0  0  0  0  0
   45.2132  -10.7034  110.8096 C   0  0  0  0  0  0  0  0  0  0  0  0
   47.0615  -12.5095  107.0324 C   0  0  0  0  0  0  0  0  0  0  0  0
   44.9691   -9.3622  111.3826 C   0  0  0  0  0  0  0  0  0  0  0  0
   42.9189   -7.4135  114.8390 C   0  0  0  0  0  0  0  0  0  0  0  0
   46.0482  -12.3755  109.2380 C   0  0  0  0  0  0  0  0  0  0  0  0
   36.7148   -4.8714  114.9277 N   0  0  0  0  0  0  0  0  0  0  0  0
   44.0334   -6.7347  114.4804 N   0  0  0  0  0  0  0  0  0  0  0  0
   47.0354  -11.2966  106.8289 O   0  0  0  0  0  0  0  0  0  0  0  0
   44.0859   -8.6504  110.9183 O   0  0  0  0  0  0  0  0  0  0  0  0
   42.9276   -8.6225  114.9946 O   0  0  0  0  0  0  0  0  0  0  0  0
   37.2343   -5.2452  117.2793 O   0  0  0  0  0  0  0  0  0  0  0  0
   37.9761   -3.1429  116.1972 O   0  0  0  0  0  0  0  0  0  0  0  0
   45.8758  -10.6566  109.2075 S   0  0  0  0  0  0  0  0  0  0  0  0
   37.7632   -4.5569  116.1398 S   0  0  1  0  0  0  0  0  0  0  0  0
   36.2794   -1.6028  110.7704 H   0  0  0  0  0  0  0  0  0  0  0  0
   42.5503   -5.3700  116.5456 H   0  0  0  0  0  0  0  0  0  0  0  0
   45.5011   -4.9695  118.7736 H   0  0  0  0  0  0  0  0  0  0  0  0
   44.7451   -1.2979  116.6732 H   0  0  0  0  0  0  0  0  0  0  0  0
   37.6010   -5.3396  112.4477 H   0  0  0  0  0  0  0  0  0  0  0  0
   37.4370   -3.7819  110.5194 H   0  0  0  0  0  0  0  0  0  0  0  0
   35.2583   -0.9866  112.9427 H   0  0  0  0  0  0  0  0  0  0  0  0
   44.8374   -6.2617  116.7637 H   0  0  0  0  0  0  0  0  0  0  0  0
   44.0912   -2.5803  114.6569 H   0  0  0  0  0  0  0  0  0  0  0  0
   35.4196   -2.5240  114.8820 H   0  0  0  0  0  0  0  0  0  0  0  0
   40.4637   -7.7667  113.6409 H   0  0  0  0  0  0  0  0  0  0  0  0
   46.4576   -9.5887  112.7737 H   0  0  0  0  0  0  0  0  0  0  0  0
   45.4559   -2.4868  118.7326 H   0  0  0  0  0  0  0  0  0  0  0  0
   46.6813  -14.1079  108.2863 H   0  0  0  0  0  0  0  0  0  0  0  0
   49.4997  -12.4773  105.9720 H   0  0  0  0  0  0  0  0  0  0  0  0
   49.2518  -13.6240  104.6117 H   0  0  0  0  0  0  0  0  0  0  0  0
   48.4129  -12.0356  104.6117 H   0  0  0  0  0  0  0  0  0  0  0  0
   45.5707  -14.1302  105.5871 H   0  0  0  0  0  0  0  0  0  0  0  0
   46.2403  -12.9741  104.3864 H   0  0  0  0  0  0  0  0  0  0  0  0
   46.7858  -14.6856  104.3864 H   0  0  0  0  0  0  0  0  0  0  0  0
   38.3490   -6.5843  114.1805 H   0  0  0  0  0  0  0  0  0  0  0  0
   40.4430   -4.1804  117.0822 H   0  0  0  0  0  0  0  0  0  0  0  0
   46.7296   -7.1047  112.7101 H   0  0  0  0  0  0  0  0  0  0  0  0
   44.9825   -7.0211  112.2144 H   0  0  0  0  0  0  0  0  0  0  0  0
   45.1953   -8.4702  114.6863 H   0  0  0  0  0  0  0  0  0  0  0  0
   46.0834   -6.8777  114.8085 H   0  0  0  0  0  0  0  0  0  0  0  0
   44.7583  -12.2835  112.2067 H   0  0  0  0  0  0  0  0  0  0  0  0
   43.0968   -4.9370  113.9687 H   0  0  0  0  0  0  0  0  0  0  0  0
   44.8901   -5.0750  113.5936 H   0  0  0  0  0  0  0  0  0  0  0  0
   47.9327  -14.4088  106.4780 H   0  0  0  0  0  0  0  0  0  0  0  0
   36.1475   -5.7294  114.9830 H   0  0  0  0  0  0  0  0  0  0  0  0
  1  6  2  0
  1  7  1  0
  2 19  2  0
  2 26  1  0
  3  8  2  0
  3 14  1  0
  4  9  1  0
  4 14  2  0
  5  6  1  0
  5 27  2  0
  7 10  2  0
  8 25  1  0
  9 25  2  0
 10 27  1  0
 11 18  1  0
 11 26  2  0
 12 20  1  0
 12 31  1  0
 13 22  1  0
 13 33  2  0
 15 30  1  0
 15 33  1  0
 24 16  1  0
 17 24  1  0
 18 28  2  0
 19 28  1  0
 20 21  1  0
 21 35  1  0
 22 29  2  0
 23 25  1  0
 23 35  1  0
 24 30  1  0
 26 32  1  0
 27 34  1  0
 28 42  1  0
 29 31  1  0
 29 41  1  0
 30 36  2  0
 31 37  2  0
 32 35  1  0
 32 38  2  0
 33 41  1  0
 42 34  1  6
 39 42  2  0
 40 42  2  0
  1 43  1  0
  2 44  1  0
  3 45  1  0
  4 46  1  0
  5 47  1  0
  6 48  1  0
  7 49  1  0
  8 50  1  0
  9 51  1  0
 10 52  1  0
 11 53  1  0
 12 54  1  0
 14 55  1  0
 15 56  1  0
 16 57  1  0
 16 58  1  0
 16 59  1  0
 17 60  1  0
 17 61  1  0
 17 62  1  0
 18 63  1  0
 19 64  1  0
 20 65  1  0
 20 66  1  0
 21 67  1  0
 21 68  1  0
 22 69  1  0
 23 70  1  0
 23 71  1  0
 24 72  1  1
 34 73  1  0
M  END
>  <filename_input>  (14) 
7QHG_T3B_docked.sdf

>  <pdb_id>  (14) 
7QHG_T3B

>  <pose_rank>  (14) 
13

>  <num_atoms_heavy>  (14) 
42

>  <num_torsions>  (14) 
11

>  <pose>  (14) 
[42.918871091715644, -7.413454647298397, 114.83897069065064, -2.1953154523828666, -0.5928756007136038, -2.6273298559079543, 0.9606179436874374, 3.8411575983802337, -0.7720553284048266, -0.07053711444419238, -2.3993207803289693, 2.5521829744910782, 0.792539948960162, 1.2884275970973538, 0.2768204393239178, 3.673289789865177, -0.5123206488134746]

>  <energy>  (14) 
-533.1888512798819

>  <inter_energy>  (14) 
-593.8900191856311

>  <intra_energy>  (14) 
58.95583369789708

>  <rmsd>  (14) 
12.4145

>  <sdf_rank>  (14) 
0

$$$$

     RDKit          3D

 73 76  0  0  0  0  0  0  0  0999 V2000
   43.5742  -16.5482  110.9076 C   0  0  0  0  0  0  0  0  0  0  0  0
   44.0123  -10.1274  110.4055 C   0  0  0  0  0  0  0  0  0  0  0  0
   46.5649  -12.7907  113.8129 C   0  0  0  0  0  0  0  0  0  0  0  0
   45.0340  -13.8129  112.2867 C   0  0  0  0  0  0  0  0  0  0  0  0
   43.8823  -14.7547  109.3423 C   0  0  0  0  0  0  0  0  0  0  0  0
   43.0482  -15.5432  110.1189 C   0  0  0  0  0  0  0  0  0  0  0  0
   44.9359  -16.7748  110.9146 C   0  0  0  0  0  0  0  0  0  0  0  0
   45.7104  -11.7070  113.9469 C   0  0  0  0  0  0  0  0  0  0  0  0
   44.1771  -12.7332  112.4214 C   0  0  0  0  0  0  0  0  0  0  0  0
   45.7796  -15.9933  110.1464 C   0  0  0  0  0  0  0  0  0  0  0  0
   46.3728  -10.1655  110.8117 C   0  0  0  0  0  0  0  0  0  0  0  0
   43.8192   -5.9445  115.2646 N   0  0  0  0  0  0  0  0  0  0  0  0
   45.2593   -2.5719  118.1079 N   0  0  0  0  0  0  0  0  0  0  0  0
   46.2266  -13.8441  112.9833 C   0  0  0  0  0  0  0  0  0  0  0  0
   43.1907   -1.7772  118.9111 N   0  0  0  0  0  0  0  0  0  0  0  0
   40.2074   -1.5647  120.7727 C   0  0  0  0  0  0  0  0  0  0  0  0
   40.4790    0.3624  119.1823 C   0  0  0  0  0  0  0  0  0  0  0  0
   46.5401  -11.0816  109.7867 C   0  0  0  0  0  0  0  0  0  0  0  0
   44.1687  -11.0397  109.3789 C   0  0  0  0  0  0  0  0  0  0  0  0
   43.6244   -6.8580  114.1432 C   0  0  0  0  0  0  0  0  0  0  0  0
   43.9310   -8.3091  114.5156 C   0  0  0  0  0  0  0  0  0  0  0  0
   45.7532   -3.4251  117.1358 C   0  0  0  0  0  0  0  0  0  0  0  0
   43.5306  -10.5222  113.4361 C   0  0  0  0  0  0  0  0  0  0  0  0
   41.1876   -0.7766  119.8978 C   0  0  2  0  0  0  0  0  0  0  0  0
   44.4998  -11.6686  113.2584 C   0  0  0  0  0  0  0  0  0  0  0  0
   45.1081   -9.6849  111.1433 C   0  0  0  0  0  0  0  0  0  0  0  0
   45.2565  -14.9679  109.3651 C   0  0  0  0  0  0  0  0  0  0  0  0
   45.4326  -11.5224  109.0820 C   0  0  0  0  0  0  0  0  0  0  0  0
   44.8346   -4.0247  116.3204 C   0  0  0  0  0  0  0  0  0  0  0  0
   41.8210   -1.7074  118.8687 C   0  0  0  0  0  0  0  0  0  0  0  0
   44.8173   -5.0565  115.2613 C   0  0  0  0  0  0  0  0  0  0  0  0
   44.8804   -8.7633  112.3033 C   0  0  0  0  0  0  0  0  0  0  0  0
   43.9526   -2.5254  118.0343 C   0  0  0  0  0  0  0  0  0  0  0  0
   46.1283  -14.1011  108.6306 N   0  0  0  0  0  0  0  0  0  0  0  0
   44.1339   -9.1863  113.3499 N   0  0  0  0  0  0  0  0  0  0  0  0
   41.1415   -2.3272  118.0517 O   0  0  0  0  0  0  0  0  0  0  0  0
   45.6622   -5.0360  114.3737 O   0  0  0  0  0  0  0  0  0  0  0  0
   45.3883   -7.6553  112.2852 O   0  0  0  0  0  0  0  0  0  0  0  0
   44.3139  -13.1009  107.3471 O   0  0  0  0  0  0  0  0  0  0  0  0
   46.6404  -12.3534  106.9355 O   0  0  0  0  0  0  0  0  0  0  0  0
   43.2523   -3.4808  116.7765 S   0  0  0  0  0  0  0  0  0  0  0  0
   45.6145  -12.7650  107.8444 S   0  0  1  0  0  0  0  0  0  0  0  0
   42.9094  -17.1664  111.5287 H   0  0  0  0  0  0  0  0  0  0  0  0
   43.0086   -9.7454  110.6432 H   0  0  0  0  0  0  0  0  0  0  0  0
   47.5143  -12.8125  114.3679 H   0  0  0  0  0  0  0  0  0  0  0  0
   44.7642  -14.6479  111.6234 H   0  0  0  0  0  0  0  0  0  0  0  0
   43.4582  -13.9616  108.7090 H   0  0  0  0  0  0  0  0  0  0  0  0
   41.9623  -15.3681  110.1073 H   0  0  0  0  0  0  0  0  0  0  0  0
   45.3525  -17.5819  111.5350 H   0  0  0  0  0  0  0  0  0  0  0  0
   45.9909  -10.8699  114.6030 H   0  0  0  0  0  0  0  0  0  0  0  0
   43.2308  -12.7166  111.8607 H   0  0  0  0  0  0  0  0  0  0  0  0
   46.8632  -16.1824  110.1531 H   0  0  0  0  0  0  0  0  0  0  0  0
   47.2511   -9.8125  111.3721 H   0  0  0  0  0  0  0  0  0  0  0  0
   43.1782   -5.9849  116.0698 H   0  0  0  0  0  0  0  0  0  0  0  0
   46.9047  -14.7038  112.8784 H   0  0  0  0  0  0  0  0  0  0  0  0
   43.6804   -1.2394  119.6404 H   0  0  0  0  0  0  0  0  0  0  0  0
   40.4343   -1.3823  121.8334 H   0  0  0  0  0  0  0  0  0  0  0  0
   39.1792   -1.2390  120.5564 H   0  0  0  0  0  0  0  0  0  0  0  0
   40.3048   -2.6388  120.5564 H   0  0  0  0  0  0  0  0  0  0  0  0
   40.0502    1.0515  119.9248 H   0  0  0  0  0  0  0  0  0  0  0  0
   41.1996    0.9043  118.5522 H   0  0  0  0  0  0  0  0  0  0  0  0
   39.6744   -0.0446  118.5522 H   0  0  0  0  0  0  0  0  0  0  0  0
   47.5434  -11.4556  109.5347 H   0  0  0  0  0  0  0  0  0  0  0  0
   43.2960  -11.3798  108.8020 H   0  0  0  0  0  0  0  0  0  0  0  0
   42.5778   -6.7919  113.8110 H   0  0  0  0  0  0  0  0  0  0  0  0
   44.3196   -6.5621  113.3438 H   0  0  0  0  0  0  0  0  0  0  0  0
   44.8455   -8.3256  115.1267 H   0  0  0  0  0  0  0  0  0  0  0  0
   43.0567   -8.6940  115.0610 H   0  0  0  0  0  0  0  0  0  0  0  0
   46.8317   -3.6111  117.0250 H   0  0  0  0  0  0  0  0  0  0  0  0
   42.7605  -10.6009  112.6546 H   0  0  0  0  0  0  0  0  0  0  0  0
   43.1263  -10.6139  114.4550 H   0  0  0  0  0  0  0  0  0  0  0  0
   41.9680   -0.3523  120.5467 H   0  0  0  0  0  0  0  0  0  0  0  0
   47.1314  -14.3324  108.5963 H   0  0  0  0  0  0  0  0  0  0  0  0
  1  6  2  0
  1  7  1  0
  2 19  2  0
  2 26  1  0
  3  8  2  0
  3 14  1  0
  4  9  1  0
  4 14  2  0
  5  6  1  0
  5 27  2  0
  7 10  2  0
  8 25  1  0
  9 25  2  0
 10 27  1  0
 11 18  1  0
 11 26  2  0
 12 20  1  0
 12 31  1  0
 13 22  1  0
 13 33  2  0
 15 30  1  0
 15 33  1  0
 24 16  1  0
 17 24  1  0
 18 28  2  0
 19 28  1  0
 20 21  1  0
 21 35  1  0
 22 29  2  0
 23 25  1  0
 23 35  1  0
 24 30  1  0
 26 32  1  0
 27 34  1  0
 28 42  1  0
 29 31  1  0
 29 41  1  0
 30 36  2  0
 31 37  2  0
 32 35  1  0
 32 38  2  0
 33 41  1  0
 42 34  1  1
 39 42  2  0
 40 42  2  0
  1 43  1  0
  2 44  1  0
  3 45  1  0
  4 46  1  0
  5 47  1  0
  6 48  1  0
  7 49  1  0
  8 50  1  0
  9 51  1  0
 10 52  1  0
 11 53  1  0
 12 54  1  0
 14 55  1  0
 15 56  1  0
 16 57  1  0
 16 58  1  0
 16 59  1  0
 17 60  1  0
 17 61  1  0
 17 62  1  0
 18 63  1  0
 19 64  1  0
 20 65  1  0
 20 66  1  0
 21 67  1  0
 21 68  1  0
 22 69  1  0
 23 70  1  0
 23 71  1  0
 24 72  1  1
 34 73  1  0
M  END
>  <filename_input>  (15) 
7QHG_T3B_docked.sdf

>  <pdb_id>  (15) 
7QHG_T3B

>  <pose_rank>  (15) 
14

>  <num_atoms_heavy>  (15) 
42

>  <num_torsions>  (15) 
11

>  <pose>  (15) 
[44.88040193867634, -8.763342892002301, 112.30327635530708, -0.0009801729150789584, -0.0446085272621689, -0.7790504750870714, -3.2414573905178172, -1.010831278628836, -4.086841739308555, 4.4908343202667345, 2.75214253377862, 8.030170975601914, 13.26988976029313, 8.828325219149521, 0.6723192566876189, -3.223938265975382, 0.19977320777300006]

>  <energy>  (15) 
-469.042610795629

>  <inter_energy>  (15) 
-649.2201086790589

>  <intra_energy>  (15) 
178.47044581923248

>  <rmsd>  (15) 
5.53507

>  <sdf_rank>  (15) 
0

$$$$

     RDKit          3D

 73 76  0  0  0  0  0  0  0  0999 V2000
   45.4611   -3.1927  115.6885 C   0  0  0  0  0  0  0  0  0  0  0  0
   46.5878  -10.3303  111.6566 C   0  0  0  0  0  0  0  0  0  0  0  0
   47.2578  -12.1025  105.0118 C   0  0  0  0  0  0  0  0  0  0  0  0
   47.7510   -9.9881  106.0139 C   0  0  0  0  0  0  0  0  0  0  0  0
   46.0946   -4.8289  114.0505 C   0  0  0  0  0  0  0  0  0  0  0  0
   46.1757   -3.5422  114.5590 C   0  0  0  0  0  0  0  0  0  0  0  0
   44.6547   -4.1262  116.3079 C   0  0  0  0  0  0  0  0  0  0  0  0
   46.5585  -12.4798  106.1480 C   0  0  0  0  0  0  0  0  0  0  0  0
   47.0501  -10.3613  107.1488 C   0  0  0  0  0  0  0  0  0  0  0  0
   44.5670   -5.4144  115.8123 C   0  0  0  0  0  0  0  0  0  0  0  0
   44.4100  -11.3216  111.5423 C   0  0  0  0  0  0  0  0  0  0  0  0
   45.3787  -15.9097  109.2505 N   0  0  0  0  0  0  0  0  0  0  0  0
   40.7692  -16.6955  109.3998 N   0  0  0  0  0  0  0  0  0  0  0  0
   47.8537  -10.8564  104.9443 C   0  0  0  0  0  0  0  0  0  0  0  0
   40.4741  -18.7901  108.3600 N   0  0  0  0  0  0  0  0  0  0  0  0
   38.6812  -20.0830  106.8047 C   0  0  0  0  0  0  0  0  0  0  0  0
   39.5239  -21.9296  108.2867 C   0  0  0  0  0  0  0  0  0  0  0  0
   43.8633  -10.2042  112.1509 C   0  0  0  0  0  0  0  0  0  0  0  0
   46.0518   -9.2093  112.2623 C   0  0  0  0  0  0  0  0  0  0  0  0
   46.6893  -15.3524  109.5690 C   0  0  0  0  0  0  0  0  0  0  0  0
   46.9709  -14.0570  108.8069 C   0  0  0  0  0  0  0  0  0  0  0  0
   41.7898  -15.8978  109.8887 C   0  0  0  0  0  0  0  0  0  0  0  0
   45.6323  -11.9819  108.4524 C   0  0  0  0  0  0  0  0  0  0  0  0
   39.9061  -20.8920  107.2433 C   0  0  2  0  0  0  0  0  0  0  0  0
   46.4383  -11.6093  107.2291 C   0  0  0  0  0  0  0  0  0  0  0  0
   45.7787  -11.4061  111.2974 C   0  0  0  0  0  0  0  0  0  0  0  0
   45.2993   -5.7764  114.6861 C   0  0  0  0  0  0  0  0  0  0  0  0
   44.6915   -9.1568  112.5180 C   0  0  0  0  0  0  0  0  0  0  0  0
   43.0628  -16.3760  109.7512 C   0  0  0  0  0  0  0  0  0  0  0  0
   40.9612  -19.9544  107.8216 C   0  0  0  0  0  0  0  0  0  0  0  0
   44.4268  -16.0021  110.1832 C   0  0  0  0  0  0  0  0  0  0  0  0
   46.4152  -12.6358  110.7236 C   0  0  0  0  0  0  0  0  0  0  0  0
   41.2701  -17.7927  108.8896 C   0  0  0  0  0  0  0  0  0  0  0  0
   45.2795   -7.1282  114.2139 N   0  0  0  0  0  0  0  0  0  0  0  0
   46.3194  -12.8739  109.3948 N   0  0  0  0  0  0  0  0  0  0  0  0
   42.1604  -20.2259  107.7811 O   0  0  0  0  0  0  0  0  0  0  0  0
   44.6404  -15.7184  111.3562 O   0  0  0  0  0  0  0  0  0  0  0  0
   47.0211  -13.3884  111.4670 O   0  0  0  0  0  0  0  0  0  0  0  0
   43.6586   -6.7740  112.4288 O   0  0  0  0  0  0  0  0  0  0  0  0
   43.0614   -8.2495  114.3280 O   0  0  0  0  0  0  0  0  0  0  0  0
   42.9931  -17.9097  108.9448 S   0  0  0  0  0  0  0  0  0  0  0  0
   44.0280   -7.7732  113.3863 S   0  0  1  0  0  0  0  0  0  0  0  0
   45.5347   -2.1726  116.0935 H   0  0  0  0  0  0  0  0  0  0  0  0
   47.6684  -10.3735  111.4554 H   0  0  0  0  0  0  0  0  0  0  0  0
   47.3388  -12.7961  104.1619 H   0  0  0  0  0  0  0  0  0  0  0  0
   48.2272   -8.9978  105.9642 H   0  0  0  0  0  0  0  0  0  0  0  0
   46.6583   -5.1002  113.1457 H   0  0  0  0  0  0  0  0  0  0  0  0
   46.8120   -2.7958  114.0609 H   0  0  0  0  0  0  0  0  0  0  0  0
   44.0782   -3.8438  117.2011 H   0  0  0  0  0  0  0  0  0  0  0  0
   46.0942  -13.4758  106.1963 H   0  0  0  0  0  0  0  0  0  0  0  0
   46.9761   -9.6638  107.9961 H   0  0  0  0  0  0  0  0  0  0  0  0
   43.9188   -6.1520  116.3081 H   0  0  0  0  0  0  0  0  0  0  0  0
   43.7542  -12.1543  111.2482 H   0  0  0  0  0  0  0  0  0  0  0  0
   45.1849  -16.2365  108.2931 H   0  0  0  0  0  0  0  0  0  0  0  0
   48.4074  -10.5576  104.0420 H   0  0  0  0  0  0  0  0  0  0  0  0
   39.4535  -18.6513  108.3699 H   0  0  0  0  0  0  0  0  0  0  0  0
   38.1403  -19.7257  107.6934 H   0  0  0  0  0  0  0  0  0  0  0  0
   39.0069  -19.2217  106.2028 H   0  0  0  0  0  0  0  0  0  0  0  0
   38.0169  -20.7206  106.2028 H   0  0  0  0  0  0  0  0  0  0  0  0
   39.6778  -21.5119  109.2926 H   0  0  0  0  0  0  0  0  0  0  0  0
   38.4660  -22.2033  108.1612 H   0  0  0  0  0  0  0  0  0  0  0  0
   40.1516  -22.8242  108.1612 H   0  0  0  0  0  0  0  0  0  0  0  0
   42.7812  -10.1491  112.3409 H   0  0  0  0  0  0  0  0  0  0  0  0
   46.7007   -8.3654  112.5392 H   0  0  0  0  0  0  0  0  0  0  0  0
   46.7321  -15.1441  110.6483 H   0  0  0  0  0  0  0  0  0  0  0  0
   47.4495  -16.0896  109.2712 H   0  0  0  0  0  0  0  0  0  0  0  0
   48.0577  -13.8874  108.7986 H   0  0  0  0  0  0  0  0  0  0  0  0
   46.5596  -14.1822  107.7944 H   0  0  0  0  0  0  0  0  0  0  0  0
   41.5861  -14.9271  110.3643 H   0  0  0  0  0  0  0  0  0  0  0  0
   45.3721  -11.0557  108.9858 H   0  0  0  0  0  0  0  0  0  0  0  0
   44.7539  -12.5344  108.0877 H   0  0  0  0  0  0  0  0  0  0  0  0
   40.3119  -21.4120  106.3630 H   0  0  0  0  0  0  0  0  0  0  0  0
   46.0969   -7.7247  114.4063 H   0  0  0  0  0  0  0  0  0  0  0  0
  1  6  2  0
  1  7  1  0
  2 19  2  0
  2 26  1  0
  3  8  2  0
  3 14  1  0
  4  9  1  0
  4 14  2  0
  5  6  1  0
  5 27  2  0
  7 10  2  0
  8 25  1  0
  9 25  2  0
 10 27  1  0
 11 18  1  0
 11 26  2  0
 12 20  1  0
 12 31  1  0
 13 22  1  0
 13 33  2  0
 15 30  1  0
 15 33  1  0
 24 16  1  0
 17 24  1  0
 18 28  2  0
 19 28  1  0
 20 21  1  0
 21 35  1  0
 22 29  2  0
 23 25  1  0
 23 35  1  0
 24 30  1  0
 26 32  1  0
 27 34  1  0
 28 42  1  0
 29 31  1  0
 29 41  1  0
 30 36  2  0
 31 37  2  0
 32 35  1  0
 32 38  2  0
 33 41  1  0
 42 34  1  1
 39 42  2  0
 40 42  2  0
  1 43  1  0
  2 44  1  0
  3 45  1  0
  4 46  1  0
  5 47  1  0
  6 48  1  0
  7 49  1  0
  8 50  1  0
  9 51  1  0
 10 52  1  0
 11 53  1  0
 12 54  1  0
 14 55  1  0
 15 56  1  0
 16 57  1  0
 16 58  1  0
 16 59  1  0
 17 60  1  0
 17 61  1  0
 17 62  1  0
 18 63  1  0
 19 64  1  0
 20 65  1  0
 20 66  1  0
 21 67  1  0
 21 68  1  0
 22 69  1  0
 23 70  1  0
 23 71  1  0
 24 72  1  6
 34 73  1  0
M  END
>  <filename_input>  (16) 
7QHG_T3B_docked.sdf

>  <pdb_id>  (16) 
7QHG_T3B

>  <pose_rank>  (16) 
15

>  <num_atoms_heavy>  (16) 
42

>  <num_torsions>  (16) 
11

>  <pose>  (16) 
[46.4151794368249, -12.635849682839554, 110.7236173484623, -3.1431374385797843, -1.931135021848227, -0.5848668949392857, 0.13977698683744372, 0.585352100349782, 3.577697041442643, -3.7384592857939625, -3.4484438137802633, -0.305833877608075, -3.253261031015332, -2.0974641059254533, -3.0187365971415105, 4.373759916415133, 0.7549447706945756]

>  <energy>  (16) 
-540.7678582433228

>  <inter_energy>  (16) 
-579.983199645956

>  <intra_energy>  (16) 
41.2502144597199

>  <rmsd>  (16) 
11.3447

>  <sdf_rank>  (16) 
0

$$$$

     RDKit          3D

 73 76  0  0  0  0  0  0  0  0999 V2000
   55.9356  -16.6783  114.4695 C   0  0  0  0  0  0  0  0  0  0  0  0
   48.0451  -14.5228  112.4686 C   0  0  0  0  0  0  0  0  0  0  0  0
   46.1958  -13.1011  106.4145 C   0  0  0  0  0  0  0  0  0  0  0  0
   47.2202  -10.9415  106.3466 C   0  0  0  0  0  0  0  0  0  0  0  0
   53.5750  -17.1128  114.4524 C   0  0  0  0  0  0  0  0  0  0  0  0
   54.8397  -17.3602  114.9622 C   0  0  0  0  0  0  0  0  0  0  0  0
   55.7718  -15.7537  113.4577 C   0  0  0  0  0  0  0  0  0  0  0  0
   46.2521  -13.0861  107.7998 C   0  0  0  0  0  0  0  0  0  0  0  0
   47.2746  -10.9226  107.7304 C   0  0  0  0  0  0  0  0  0  0  0  0
   54.5148  -15.4954  112.9420 C   0  0  0  0  0  0  0  0  0  0  0  0
   47.9823  -14.9335  110.1094 C   0  0  0  0  0  0  0  0  0  0  0  0
   44.4985  -10.3625  112.3005 N   0  0  0  0  0  0  0  0  0  0  0  0
   47.0684   -7.2368  114.4711 N   0  0  0  0  0  0  0  0  0  0  0  0
   46.6792  -12.0285  105.6877 C   0  0  0  0  0  0  0  0  0  0  0  0
   45.9718   -5.3421  115.3447 N   0  0  0  0  0  0  0  0  0  0  0  0
   44.0388   -2.9335  117.3234 C   0  0  0  0  0  0  0  0  0  0  0  0
   44.9955   -2.2420  115.1045 C   0  0  0  0  0  0  0  0  0  0  0  0
   49.2918  -15.3828  110.1471 C   0  0  0  0  0  0  0  0  0  0  0  0
   49.3516  -14.9716  112.5176 C   0  0  0  0  0  0  0  0  0  0  0  0
   43.8803  -11.6305  111.9264 C   0  0  0  0  0  0  0  0  0  0  0  0
   44.3901  -12.1514  110.5821 C   0  0  0  0  0  0  0  0  0  0  0  0
   46.7643   -8.4923  113.9731 C   0  0  0  0  0  0  0  0  0  0  0  0
   46.8030  -11.9333  109.9870 C   0  0  0  0  0  0  0  0  0  0  0  0
   45.0762   -3.2487  116.2408 C   0  0  2  0  0  0  0  0  0  0  0  0
   46.7852  -11.9912  108.4765 C   0  0  0  0  0  0  0  0  0  0  0  0
   47.3449  -14.4869  111.2647 C   0  0  0  0  0  0  0  0  0  0  0  0
   53.4057  -16.1658  113.4480 C   0  0  0  0  0  0  0  0  0  0  0  0
   49.9736  -15.3887  111.3524 C   0  0  0  0  0  0  0  0  0  0  0  0
   45.4395   -8.8215  113.9040 C   0  0  0  0  0  0  0  0  0  0  0  0
   44.8380   -4.6526  115.6939 C   0  0  0  0  0  0  0  0  0  0  0  0
   44.6207  -10.0104  113.5834 C   0  0  0  0  0  0  0  0  0  0  0  0
   45.9613  -13.9107  111.2441 C   0  0  0  0  0  0  0  0  0  0  0  0
   45.9650   -6.6066  114.7879 C   0  0  0  0  0  0  0  0  0  0  0  0
   52.0910  -15.8465  112.9786 N   0  0  0  0  0  0  0  0  0  0  0  0
   45.7494  -12.7154  110.6459 N   0  0  0  0  0  0  0  0  0  0  0  0
   43.7045   -5.1116  115.5605 O   0  0  0  0  0  0  0  0  0  0  0  0
   44.1371  -10.6817  114.4876 O   0  0  0  0  0  0  0  0  0  0  0  0
   45.0516  -14.5419  111.7542 O   0  0  0  0  0  0  0  0  0  0  0  0
   51.7727  -17.2300  110.9976 O   0  0  0  0  0  0  0  0  0  0  0  0
   52.4390  -14.8592  110.7215 O   0  0  0  0  0  0  0  0  0  0  0  0
   44.5054   -7.4775  114.4774 S   0  0  0  0  0  0  0  0  0  0  0  0
   51.6722  -15.8590  111.4001 S   0  0  1  0  0  0  0  0  0  0  0  0
   56.9366  -16.8718  114.8825 H   0  0  0  0  0  0  0  0  0  0  0  0
   47.5513  -14.1893  113.3932 H   0  0  0  0  0  0  0  0  0  0  0  0
   45.7654  -13.9683  105.8924 H   0  0  0  0  0  0  0  0  0  0  0  0
   47.6088  -10.0887  105.7707 H   0  0  0  0  0  0  0  0  0  0  0  0
   52.7066  -17.6646  114.8415 H   0  0  0  0  0  0  0  0  0  0  0  0
   54.9716  -18.1028  115.7629 H   0  0  0  0  0  0  0  0  0  0  0  0
   56.6465  -15.2189  113.0591 H   0  0  0  0  0  0  0  0  0  0  0  0
   45.8724  -13.9468  108.3699 H   0  0  0  0  0  0  0  0  0  0  0  0
   47.7094  -10.0535  108.2458 H   0  0  0  0  0  0  0  0  0  0  0  0
   54.3921  -14.7607  112.1326 H   0  0  0  0  0  0  0  0  0  0  0  0
   47.4379  -14.9293  109.1536 H   0  0  0  0  0  0  0  0  0  0  0  0
   44.8453   -9.7302  111.5652 H   0  0  0  0  0  0  0  0  0  0  0  0
   46.6331  -12.0409  104.5887 H   0  0  0  0  0  0  0  0  0  0  0  0
   46.8828   -4.8897  115.5074 H   0  0  0  0  0  0  0  0  0  0  0  0
   44.4917   -3.0711  118.3163 H   0  0  0  0  0  0  0  0  0  0  0  0
   43.7012   -1.8921  117.2155 H   0  0  0  0  0  0  0  0  0  0  0  0
   43.1789   -3.6108  117.2155 H   0  0  0  0  0  0  0  0  0  0  0  0
   44.9142   -1.2265  115.5195 H   0  0  0  0  0  0  0  0  0  0  0  0
   45.9023   -2.3137  114.4860 H   0  0  0  0  0  0  0  0  0  0  0  0
   44.1118   -2.4572  114.4860 H   0  0  0  0  0  0  0  0  0  0  0  0
   49.7856  -15.7316  109.2282 H   0  0  0  0  0  0  0  0  0  0  0  0
   49.8931  -14.9973  113.4747 H   0  0  0  0  0  0  0  0  0  0  0  0
   44.1054  -12.3763  112.7030 H   0  0  0  0  0  0  0  0  0  0  0  0
   42.7974  -11.4618  111.8326 H   0  0  0  0  0  0  0  0  0  0  0  0
   43.7041  -12.9360  110.2303 H   0  0  0  0  0  0  0  0  0  0  0  0
   44.4292  -11.2919  109.8967 H   0  0  0  0  0  0  0  0  0  0  0  0
   47.5501   -9.1906  113.6491 H   0  0  0  0  0  0  0  0  0  0  0  0
   47.7765  -12.3114  110.3324 H   0  0  0  0  0  0  0  0  0  0  0  0
   46.6240  -10.8825  110.2585 H   0  0  0  0  0  0  0  0  0  0  0  0
   46.0776   -3.1895  116.6921 H   0  0  0  0  0  0  0  0  0  0  0  0
   51.3722  -15.5960  113.6725 H   0  0  0  0  0  0  0  0  0  0  0  0
  1  6  2  0
  1  7  1  0
  2 19  2  0
  2 26  1  0
  3  8  2  0
  3 14  1  0
  4  9  1  0
  4 14  2  0
  5  6  1  0
  5 27  2  0
  7 10  2  0
  8 25  1  0
  9 25  2  0
 10 27  1  0
 11 18  1  0
 11 26  2  0
 12 20  1  0
 12 31  1  0
 13 22  1  0
 13 33  2  0
 15 30  1  0
 15 33  1  0
 24 16  1  0
 17 24  1  0
 18 28  2  0
 19 28  1  0
 20 21  1  0
 21 35  1  0
 22 29  2  0
 23 25  1  0
 23 35  1  0
 24 30  1  0
 26 32  1  0
 27 34  1  0
 28 42  1  0
 29 31  1  0
 29 41  1  0
 30 36  2  0
 31 37  2  0
 32 35  1  0
 32 38  2  0
 33 41  1  0
 42 34  1  1
 39 42  2  0
 40 42  2  0
  1 43  1  0
  2 44  1  0
  3 45  1  0
  4 46  1  0
  5 47  1  0
  6 48  1  0
  7 49  1  0
  8 50  1  0
  9 51  1  0
 10 52  1  0
 11 53  1  0
 12 54  1  0
 14 55  1  0
 15 56  1  0
 16 57  1  0
 16 58  1  0
 16 59  1  0
 17 60  1  0
 17 61  1  0
 17 62  1  0
 18 63  1  0
 19 64  1  0
 20 65  1  0
 20 66  1  0
 21 67  1  0
 21 68  1  0
 22 69  1  0
 23 70  1  0
 23 71  1  0
 24 72  1  1
 34 73  1  0
M  END
>  <filename_input>  (17) 
7QHG_T3B_docked.sdf

>  <pdb_id>  (17) 
7QHG_T3B

>  <pose_rank>  (17) 
16

>  <num_atoms_heavy>  (17) 
42

>  <num_torsions>  (17) 
11

>  <pose>  (17) 
[45.96134261606598, -13.910743799152835, 111.24412672482177, 2.7509105938398877, -1.2029072398019685, -1.48165291108324, 3.8641058597428968, 1.0900587075806283, 3.956732592037608, 2.1557971574824886, 3.261191328600264, -0.3855995045286159, 2.3734797051713272, -1.1894843639231218, 0.26819738233095414, 3.9196512517462336, -1.0982474574654086]

>  <energy>  (17) 
-473.7337864381636

>  <inter_energy>  (17) 
-503.13199575375495

>  <intra_energy>  (17) 
34.39421819355952

>  <rmsd>  (17) 
7.10781

>  <sdf_rank>  (17) 
0

$$$$

     RDKit          3D

 73 76  0  0  0  0  0  0  0  0999 V2000
   41.7941  -17.8381  102.3993 C   0  0  0  0  0  0  0  0  0  0  0  0
   45.6134  -13.6422  108.4752 C   0  0  0  0  0  0  0  0  0  0  0  0
   43.1604  -16.0236  110.9158 C   0  0  0  0  0  0  0  0  0  0  0  0
   45.2186  -15.7824  112.1089 C   0  0  0  0  0  0  0  0  0  0  0  0
   42.0164  -15.4825  102.8035 C   0  0  0  0  0  0  0  0  0  0  0  0
   41.4022  -16.5375  102.1474 C   0  0  0  0  0  0  0  0  0  0  0  0
   42.8090  -18.0877  103.3012 C   0  0  0  0  0  0  0  0  0  0  0  0
   43.1530  -14.6628  110.6502 C   0  0  0  0  0  0  0  0  0  0  0  0
   45.2152  -14.4233  111.8421 C   0  0  0  0  0  0  0  0  0  0  0  0
   43.4282  -17.0442  103.9647 C   0  0  0  0  0  0  0  0  0  0  0  0
   46.1684  -11.6219  107.3136 C   0  0  0  0  0  0  0  0  0  0  0  0
   45.4186   -9.0018  113.2044 N   0  0  0  0  0  0  0  0  0  0  0  0
   46.8128   -5.3349  115.3532 N   0  0  0  0  0  0  0  0  0  0  0  0
   44.1935  -16.5838  111.6446 C   0  0  0  0  0  0  0  0  0  0  0  0
   45.5908   -3.9817  116.8470 N   0  0  0  0  0  0  0  0  0  0  0  0
   43.4950   -1.3667  118.0011 C   0  0  0  0  0  0  0  0  0  0  0  0
   45.9446   -1.8351  118.3117 C   0  0  0  0  0  0  0  0  0  0  0  0
   45.8848  -12.2330  106.1037 C   0  0  0  0  0  0  0  0  0  0  0  0
   45.3253  -14.2607  107.2730 C   0  0  0  0  0  0  0  0  0  0  0  0
   44.8651  -10.2821  112.7749 C   0  0  0  0  0  0  0  0  0  0  0  0
   45.9278  -11.2020  112.1726 C   0  0  0  0  0  0  0  0  0  0  0  0
   46.6235   -6.4357  114.5352 C   0  0  0  0  0  0  0  0  0  0  0  0
   44.2236  -12.3706  110.7749 C   0  0  0  0  0  0  0  0  0  0  0  0
   44.5409   -2.4118  118.4028 C   0  0  2  0  0  0  0  0  0  0  0  0
   44.1863  -13.8457  111.1033 C   0  0  0  0  0  0  0  0  0  0  0  0
   46.0486  -12.3192  108.5136 C   0  0  0  0  0  0  0  0  0  0  0  0
   43.0242  -15.7340  103.7284 C   0  0  0  0  0  0  0  0  0  0  0  0
   45.4744  -13.5555  106.0902 C   0  0  0  0  0  0  0  0  0  0  0  0
   45.3623   -6.9609  114.4939 C   0  0  0  0  0  0  0  0  0  0  0  0
   44.4306   -3.6275  117.4881 C   0  0  0  0  0  0  0  0  0  0  0  0
   44.6839   -8.1389  113.9117 C   0  0  0  0  0  0  0  0  0  0  0  0
   46.4331  -11.7174  109.8314 C   0  0  0  0  0  0  0  0  0  0  0  0
   45.6861   -5.0223  115.9430 C   0  0  0  0  0  0  0  0  0  0  0  0
   43.6018  -14.6538  104.4702 N   0  0  0  0  0  0  0  0  0  0  0  0
   45.5534  -11.7540  110.8592 N   0  0  0  0  0  0  0  0  0  0  0  0
   43.3663   -4.2237  117.3296 O   0  0  0  0  0  0  0  0  0  0  0  0
   43.4971   -8.3378  114.1439 O   0  0  0  0  0  0  0  0  0  0  0  0
   47.5400  -11.2212  109.9530 O   0  0  0  0  0  0  0  0  0  0  0  0
   45.4866  -13.4566  103.4935 O   0  0  0  0  0  0  0  0  0  0  0  0
   45.8820  -15.6415  104.5938 O   0  0  0  0  0  0  0  0  0  0  0  0
   44.3360   -6.0158  115.5240 S   0  0  0  0  0  0  0  0  0  0  0  0
   45.2095  -14.3789  104.5539 S   0  0  1  0  0  0  0  0  0  0  0  0
   41.2985  -18.6730  101.8824 H   0  0  0  0  0  0  0  0  0  0  0  0
   45.4974  -14.2023  109.4147 H   0  0  0  0  0  0  0  0  0  0  0  0
   42.3424  -16.6592  110.5458 H   0  0  0  0  0  0  0  0  0  0  0  0
   46.0396  -16.2249  112.6921 H   0  0  0  0  0  0  0  0  0  0  0  0
   41.7073  -14.4480  102.5931 H   0  0  0  0  0  0  0  0  0  0  0  0
   40.5990  -16.3383  101.4227 H   0  0  0  0  0  0  0  0  0  0  0  0
   43.1271  -19.1230  103.4932 H   0  0  0  0  0  0  0  0  0  0  0  0
   42.3233  -14.2243  110.0762 H   0  0  0  0  0  0  0  0  0  0  0  0
   46.0347  -13.7933  112.2182 H   0  0  0  0  0  0  0  0  0  0  0  0
   44.2394  -17.2499  104.6787 H   0  0  0  0  0  0  0  0  0  0  0  0
   46.4930  -10.5710  107.3274 H   0  0  0  0  0  0  0  0  0  0  0  0
   46.3892   -8.7602  112.9587 H   0  0  0  0  0  0  0  0  0  0  0  0
   44.1991  -17.6637  111.8540 H   0  0  0  0  0  0  0  0  0  0  0  0
   46.4421   -3.4391  117.0520 H   0  0  0  0  0  0  0  0  0  0  0  0
   43.0523   -0.9245  118.9057 H   0  0  0  0  0  0  0  0  0  0  0  0
   43.9756   -0.5774  117.4045 H   0  0  0  0  0  0  0  0  0  0  0  0
   42.7060   -1.8481  117.4045 H   0  0  0  0  0  0  0  0  0  0  0  0
   46.3406   -1.6724  119.3250 H   0  0  0  0  0  0  0  0  0  0  0  0
   46.5957   -2.5386  117.7721 H   0  0  0  0  0  0  0  0  0  0  0  0
   45.9132   -0.8770  117.7721 H   0  0  0  0  0  0  0  0  0  0  0  0
   45.9845  -11.6731  105.1622 H   0  0  0  0  0  0  0  0  0  0  0  0
   44.9803  -15.3051  107.2559 H   0  0  0  0  0  0  0  0  0  0  0  0
   44.4160  -10.7830  113.6452 H   0  0  0  0  0  0  0  0  0  0  0  0
   44.1151  -10.0798  111.9960 H   0  0  0  0  0  0  0  0  0  0  0  0
   46.8590  -10.6282  112.0562 H   0  0  0  0  0  0  0  0  0  0  0  0
   46.0443  -12.0535  112.8592 H   0  0  0  0  0  0  0  0  0  0  0  0
   47.4475   -6.8665  113.9474 H   0  0  0  0  0  0  0  0  0  0  0  0
   43.8499  -12.2391  109.7487 H   0  0  0  0  0  0  0  0  0  0  0  0
   43.6016  -11.8694  111.5311 H   0  0  0  0  0  0  0  0  0  0  0  0
   44.3508   -2.7105  119.4442 H   0  0  0  0  0  0  0  0  0  0  0  0
   42.9705  -14.0171  104.9772 H   0  0  0  0  0  0  0  0  0  0  0  0
  1  6  2  0
  1  7  1  0
  2 19  2  0
  2 26  1  0
  3  8  2  0
  3 14  1  0
  4  9  1  0
  4 14  2  0
  5  6  1  0
  5 27  2  0
  7 10  2  0
  8 25  1  0
  9 25  2  0
 10 27  1  0
 11 18  1  0
 11 26  2  0
 12 20  1  0
 12 31  1  0
 13 22  1  0
 13 33  2  0
 15 30  1  0
 15 33  1  0
 24 16  1  0
 17 24  1  0
 18 28  2  0
 19 28  1  0
 20 21  1  0
 21 35  1  0
 22 29  2  0
 23 25  1  0
 23 35  1  0
 24 30  1  0
 26 32  1  0
 27 34  1  0
 28 42  1  0
 29 31  1  0
 29 41  1  0
 30 36  2  0
 31 37  2  0
 32 35  1  0
 32 38  2  0
 33 41  1  0
 42 34  1  1
 39 42  2  0
 40 42  2  0
  1 43  1  0
  2 44  1  0
  3 45  1  0
  4 46  1  0
  5 47  1  0
  6 48  1  0
  7 49  1  0
  8 50  1  0
  9 51  1  0
 10 52  1  0
 11 53  1  0
 12 54  1  0
 14 55  1  0
 15 56  1  0
 16 57  1  0
 16 58  1  0
 16 59  1  0
 17 60  1  0
 17 61  1  0
 17 62  1  0
 18 63  1  0
 19 64  1  0
 20 65  1  0
 20 66  1  0
 21 67  1  0
 21 68  1  0
 22 69  1  0
 23 70  1  0
 23 71  1  0
 24 72  1  1
 34 73  1  0
M  END
>  <filename_input>  (18) 
7QHG_T3B_docked.sdf

>  <pdb_id>  (18) 
7QHG_T3B

>  <pose_rank>  (18) 
17

>  <num_atoms_heavy>  (18) 
42

>  <num_torsions>  (18) 
11

>  <pose>  (18) 
[46.43310166089909, -11.717390911083347, 109.83139002425504, -0.5361344392592108, -0.2312429126274858, 4.745600872062627, 1.0195348703915958, 2.2016376620376263, 4.423253495537742, 2.1682446311009804, -1.980611728760411, 2.3364784489362256, 2.0601667214424797, 0.12803930975239394, -1.301622120592087, 3.6492865690150422, 2.8923213217414183]

>  <energy>  (18) 
-453.71542143704534

>  <inter_energy>  (18) 
-520.9940373821655

>  <intra_energy>  (18) 
72.25390977295622

>  <rmsd>  (18) 
3.68666

>  <sdf_rank>  (18) 
0

$$$$

     RDKit          3D

 73 76  0  0  0  0  0  0  0  0999 V2000
   45.1546   -9.7672  113.0862 C   0  0  0  0  0  0  0  0  0  0  0  0
   45.6110  -11.1746  106.7731 C   0  0  0  0  0  0  0  0  0  0  0  0
   48.1927  -13.6909  103.2770 C   0  0  0  0  0  0  0  0  0  0  0  0
   47.8610  -12.5426  101.2060 C   0  0  0  0  0  0  0  0  0  0  0  0
   45.3458  -12.1509  112.8782 C   0  0  0  0  0  0  0  0  0  0  0  0
   45.2691  -11.0149  113.6683 C   0  0  0  0  0  0  0  0  0  0  0  0
   45.1267   -9.6504  111.7111 C   0  0  0  0  0  0  0  0  0  0  0  0
   47.3332  -12.8047  103.9080 C   0  0  0  0  0  0  0  0  0  0  0  0
   46.9993  -11.6580  101.8333 C   0  0  0  0  0  0  0  0  0  0  0  0
   45.1996  -10.7762  110.9111 C   0  0  0  0  0  0  0  0  0  0  0  0
   47.9330  -10.8473  107.2630 C   0  0  0  0  0  0  0  0  0  0  0  0
   44.1673   -7.1631  103.0852 N   0  0  0  0  0  0  0  0  0  0  0  0
   41.1382   -4.0156  104.0521 N   0  0  0  0  0  0  0  0  0  0  0  0
   48.4563  -13.5604  101.9258 C   0  0  0  0  0  0  0  0  0  0  0  0
   39.7210   -2.8639  102.5619 N   0  0  0  0  0  0  0  0  0  0  0  0
   38.7301   -0.1338  101.5676 C   0  0  0  0  0  0  0  0  0  0  0  0
   37.0621   -1.9051  102.1977 C   0  0  0  0  0  0  0  0  0  0  0  0
   47.8749  -11.8389  108.2279 C   0  0  0  0  0  0  0  0  0  0  0  0
   45.5429  -12.1677  107.7322 C   0  0  0  0  0  0  0  0  0  0  0  0
   44.9256   -8.3190  102.6175 C   0  0  0  0  0  0  0  0  0  0  0  0
   46.2701   -8.4599  103.3321 C   0  0  0  0  0  0  0  0  0  0  0  0
   42.1588   -4.9507  104.0233 C   0  0  0  0  0  0  0  0  0  0  0  0
   45.7347  -10.8407  103.8503 C   0  0  0  0  0  0  0  0  0  0  0  0
   38.1697   -1.5193  101.2304 C   0  0  2  0  0  0  0  0  0  0  0  0
   46.7180  -11.7807  103.1912 C   0  0  0  0  0  0  0  0  0  0  0  0
   46.8018  -10.4931  106.5312 C   0  0  0  0  0  0  0  0  0  0  0  0
   45.2959  -12.0363  111.4930 C   0  0  0  0  0  0  0  0  0  0  0  0
   46.6743  -12.4871  108.4647 C   0  0  0  0  0  0  0  0  0  0  0  0
   42.5571   -5.3877  102.7909 C   0  0  0  0  0  0  0  0  0  0  0  0
   39.2868   -2.5559  101.2973 C   0  0  0  0  0  0  0  0  0  0  0  0
   43.4676   -6.4100  102.2320 C   0  0  0  0  0  0  0  0  0  0  0  0
   46.8073   -9.3648  105.5445 C   0  0  0  0  0  0  0  0  0  0  0  0
   40.7536   -3.7418  102.8306 C   0  0  0  0  0  0  0  0  0  0  0  0
   45.2890  -13.2127  110.6765 N   0  0  0  0  0  0  0  0  0  0  0  0
   46.3084   -9.5671  104.3028 N   0  0  0  0  0  0  0  0  0  0  0  0
   39.7687   -3.0545  100.2812 O   0  0  0  0  0  0  0  0  0  0  0  0
   43.5101   -6.5946  101.0211 O   0  0  0  0  0  0  0  0  0  0  0  0
   47.2477   -8.2816  105.8891 O   0  0  0  0  0  0  0  0  0  0  0  0
   46.1653  -14.9309  109.1867 O   0  0  0  0  0  0  0  0  0  0  0  0
   47.7439  -13.5996  110.5564 O   0  0  0  0  0  0  0  0  0  0  0  0
   41.6164   -4.5711  101.5843 S   0  0  0  0  0  0  0  0  0  0  0  0
   46.5578  -13.6781  109.7595 S   0  0  1  0  0  0  0  0  0  0  0  0
   45.0859   -8.8688  113.7172 H   0  0  0  0  0  0  0  0  0  0  0  0
   44.7123  -10.9189  106.1926 H   0  0  0  0  0  0  0  0  0  0  0  0
   48.6662  -14.4998  103.8527 H   0  0  0  0  0  0  0  0  0  0  0  0
   48.0718  -12.4344  100.1318 H   0  0  0  0  0  0  0  0  0  0  0  0
   45.4459  -13.1415  113.3458 H   0  0  0  0  0  0  0  0  0  0  0  0
   45.2995  -11.1071  114.7640 H   0  0  0  0  0  0  0  0  0  0  0  0
   45.0459   -8.6556  111.2486 H   0  0  0  0  0  0  0  0  0  0  0  0
   47.1351  -12.9111  104.9848 H   0  0  0  0  0  0  0  0  0  0  0  0
   46.5321  -10.8495  101.2520 H   0  0  0  0  0  0  0  0  0  0  0  0
   45.1814  -10.6754  109.8159 H   0  0  0  0  0  0  0  0  0  0  0  0
   48.8858  -10.3320  107.0718 H   0  0  0  0  0  0  0  0  0  0  0  0
   44.1716   -6.9245  104.0872 H   0  0  0  0  0  0  0  0  0  0  0  0
   49.1376  -14.2646  101.4258 H   0  0  0  0  0  0  0  0  0  0  0  0
   39.2487   -2.4136  103.3589 H   0  0  0  0  0  0  0  0  0  0  0  0
   38.7786   -0.0138  102.6600 H   0  0  0  0  0  0  0  0  0  0  0  0
   39.7396   -0.0332  101.1425 H   0  0  0  0  0  0  0  0  0  0  0  0
   38.0744    0.6403  101.1425 H   0  0  0  0  0  0  0  0  0  0  0  0
   37.4181   -1.7811  103.2311 H   0  0  0  0  0  0  0  0  0  0  0  0
   36.1880   -1.2585  102.0309 H   0  0  0  0  0  0  0  0  0  0  0  0
   36.7788   -2.9548  102.0309 H   0  0  0  0  0  0  0  0  0  0  0  0
   48.7741  -12.1093  108.8009 H   0  0  0  0  0  0  0  0  0  0  0  0
   44.5974  -12.7002  107.9124 H   0  0  0  0  0  0  0  0  0  0  0  0
   44.3324   -9.2276  102.7981 H   0  0  0  0  0  0  0  0  0  0  0  0
   45.1278   -8.1771  101.5456 H   0  0  0  0  0  0  0  0  0  0  0  0
   47.0496   -8.6335  102.5755 H   0  0  0  0  0  0  0  0  0  0  0  0
   46.4348   -7.5301  103.8963 H   0  0  0  0  0  0  0  0  0  0  0  0
   42.6261   -5.3237  104.9466 H   0  0  0  0  0  0  0  0  0  0  0  0
   44.9363  -10.6185  103.1270 H   0  0  0  0  0  0  0  0  0  0  0  0
   45.3723  -11.3548  104.7527 H   0  0  0  0  0  0  0  0  0  0  0  0
   37.7521   -1.4866  100.2133 H   0  0  0  0  0  0  0  0  0  0  0  0
   44.4399  -13.7956  110.6671 H   0  0  0  0  0  0  0  0  0  0  0  0
  1  6  2  0
  1  7  1  0
  2 19  2  0
  2 26  1  0
  3  8  2  0
  3 14  1  0
  4  9  1  0
  4 14  2  0
  5  6  1  0
  5 27  2  0
  7 10  2  0
  8 25  1  0
  9 25  2  0
 10 27  1  0
 11 18  1  0
 11 26  2  0
 12 20  1  0
 12 31  1  0
 13 22  1  0
 13 33  2  0
 15 30  1  0
 15 33  1  0
 24 16  1  0
 17 24  1  0
 18 28  2  0
 19 28  1  0
 20 21  1  0
 21 35  1  0
 22 29  2  0
 23 25  1  0
 23 35  1  0
 24 30  1  0
 26 32  1  0
 27 34  1  0
 28 42  1  0
 29 31  1  0
 29 41  1  0
 30 36  2  0
 31 37  2  0
 32 35  1  0
 32 38  2  0
 33 41  1  0
 42 34  1  1
 39 42  2  0
 40 42  2  0
  1 43  1  0
  2 44  1  0
  3 45  1  0
  4 46  1  0
  5 47  1  0
  6 48  1  0
  7 49  1  0
  8 50  1  0
  9 51  1  0
 10 52  1  0
 11 53  1  0
 12 54  1  0
 14 55  1  0
 15 56  1  0
 16 57  1  0
 16 58  1  0
 16 59  1  0
 17 60  1  0
 17 61  1  0
 17 62  1  0
 18 63  1  0
 19 64  1  0
 20 65  1  0
 20 66  1  0
 21 67  1  0
 21 68  1  0
 22 69  1  0
 23 70  1  0
 23 71  1  0
 24 72  1  6
 34 73  1  0
M  END
>  <filename_input>  (19) 
7QHG_T3B_docked.sdf

>  <pdb_id>  (19) 
7QHG_T3B

>  <pose_rank>  (19) 
18

>  <num_atoms_heavy>  (19) 
42

>  <num_torsions>  (19) 
11

>  <pose>  (19) 
[46.80732560433258, -9.364817307230496, 105.5444728607196, -0.1502241876412737, 3.604845974240298, 0.9669765428539222, 1.0543011184546112, 0.09474863151729465, -0.39939787979861513, 2.497963912014478, -0.32435746548476496, 0.1724715843315293, 1.2225539286849922, 0.10262803882189879, -2.2191338576214465, 0.5161613482327068, 1.050661709996035]

>  <energy>  (19) 
-434.4206574597915

>  <inter_energy>  (19) 
-474.6619280368857

>  <intra_energy>  (19) 
36.40760099497026

>  <rmsd>  (19) 
10.0584

>  <sdf_rank>  (19) 
0

$$$$

     RDKit          3D

 73 76  0  0  0  0  0  0  0  0999 V2000
   43.9487  -17.1304  111.3860 C   0  0  0  0  0  0  0  0  0  0  0  0
   43.9851  -11.6429  111.8617 C   0  0  0  0  0  0  0  0  0  0  0  0
   45.8685   -7.2451  114.0708 C   0  0  0  0  0  0  0  0  0  0  0  0
   43.7835   -6.0893  114.2573 C   0  0  0  0  0  0  0  0  0  0  0  0
   45.9351  -16.0876  110.5325 C   0  0  0  0  0  0  0  0  0  0  0  0
   45.3180  -16.9505  111.4242 C   0  0  0  0  0  0  0  0  0  0  0  0
   43.1903  -16.4398  110.4622 C   0  0  0  0  0  0  0  0  0  0  0  0
   45.1913   -8.4357  113.8561 C   0  0  0  0  0  0  0  0  0  0  0  0
   43.1046   -7.2768  114.0398 C   0  0  0  0  0  0  0  0  0  0  0  0
   43.7940  -15.5777  109.5649 C   0  0  0  0  0  0  0  0  0  0  0  0
   45.7521  -12.8979  112.8823 C   0  0  0  0  0  0  0  0  0  0  0  0
   40.8354  -11.9785  117.0109 N   0  0  0  0  0  0  0  0  0  0  0  0
   39.7639  -15.0512  120.0714 N   0  0  0  0  0  0  0  0  0  0  0  0
   45.1648   -6.0715  114.2707 C   0  0  0  0  0  0  0  0  0  0  0  0
   38.3289  -16.8879  119.7209 N   0  0  0  0  0  0  0  0  0  0  0  0
   37.3269  -18.9306  121.0836 C   0  0  0  0  0  0  0  0  0  0  0  0
   37.4574  -20.0482  118.8363 C   0  0  0  0  0  0  0  0  0  0  0  0
   46.3003  -13.1503  111.6358 C   0  0  0  0  0  0  0  0  0  0  0  0
   44.5255  -11.8870  110.6130 C   0  0  0  0  0  0  0  0  0  0  0  0
   41.0896  -11.1346  115.8476 C   0  0  0  0  0  0  0  0  0  0  0  0
   42.5167  -10.5858  115.8284 C   0  0  0  0  0  0  0  0  0  0  0  0
   40.1451  -13.8785  119.4420 C   0  0  0  0  0  0  0  0  0  0  0  0
   43.0449   -9.7432  113.5405 C   0  0  0  0  0  0  0  0  0  0  0  0
   36.8964  -18.8689  119.6145 C   0  0  2  0  0  0  0  0  0  0  0  0
   43.7987   -8.4651  113.8293 C   0  0  0  0  0  0  0  0  0  0  0  0
   44.5827  -12.1522  113.0126 C   0  0  0  0  0  0  0  0  0  0  0  0
   45.1746  -15.4077  109.5871 C   0  0  0  0  0  0  0  0  0  0  0  0
   45.6757  -12.6512  110.5051 C   0  0  0  0  0  0  0  0  0  0  0  0
   39.5393  -13.5961  118.2497 C   0  0  0  0  0  0  0  0  0  0  0  0
   37.3878  -17.5673  118.9890 C   0  0  0  0  0  0  0  0  0  0  0  0
   39.6605  -12.5944  117.1687 C   0  0  0  0  0  0  0  0  0  0  0  0
   43.9139  -11.9364  114.3365 C   0  0  0  0  0  0  0  0  0  0  0  0
   38.8629  -15.6689  119.3493 C   0  0  0  0  0  0  0  0  0  0  0  0
   45.8176  -14.5814  108.6101 N   0  0  0  0  0  0  0  0  0  0  0  0
   43.2126  -10.7984  114.5477 N   0  0  0  0  0  0  0  0  0  0  0  0
   36.9468  -17.1578  117.9161 O   0  0  0  0  0  0  0  0  0  0  0  0
   38.7214  -12.4024  116.4049 O   0  0  0  0  0  0  0  0  0  0  0  0
   44.0034  -12.8014  115.1908 O   0  0  0  0  0  0  0  0  0  0  0  0
   45.6141  -12.2474  107.9389 O   0  0  0  0  0  0  0  0  0  0  0  0
   47.7315  -13.0307  108.9604 O   0  0  0  0  0  0  0  0  0  0  0  0
   38.4064  -14.8597  117.8925 S   0  0  0  0  0  0  0  0  0  0  0  0
   46.3016  -13.0499  108.9058 S   0  0  1  0  0  0  0  0  0  0  0  0
   43.4638  -17.8224  112.0902 H   0  0  0  0  0  0  0  0  0  0  0  0
   43.0704  -11.0381  111.9479 H   0  0  0  0  0  0  0  0  0  0  0  0
   46.9684   -7.2339  114.0820 H   0  0  0  0  0  0  0  0  0  0  0  0
   43.2213   -5.1579  114.4197 H   0  0  0  0  0  0  0  0  0  0  0  0
   47.0245  -15.9406  110.5725 H   0  0  0  0  0  0  0  0  0  0  0  0
   45.9211  -17.4948  112.1658 H   0  0  0  0  0  0  0  0  0  0  0  0
   42.0990  -16.5760  110.4395 H   0  0  0  0  0  0  0  0  0  0  0  0
   45.7589   -9.3659  113.7057 H   0  0  0  0  0  0  0  0  0  0  0  0
   42.0046   -7.2810  114.0332 H   0  0  0  0  0  0  0  0  0  0  0  0
   43.1831  -15.0271  108.8345 H   0  0  0  0  0  0  0  0  0  0  0  0
   46.2471  -13.2918  113.7822 H   0  0  0  0  0  0  0  0  0  0  0  0
   41.5722  -12.1009  117.7202 H   0  0  0  0  0  0  0  0  0  0  0  0
   45.7030   -5.1272  114.4399 H   0  0  0  0  0  0  0  0  0  0  0  0
   38.6570  -17.3122  120.6002 H   0  0  0  0  0  0  0  0  0  0  0  0
   36.4456  -18.8043  121.7296 H   0  0  0  0  0  0  0  0  0  0  0  0
   37.7948  -19.9049  121.2880 H   0  0  0  0  0  0  0  0  0  0  0  0
   38.0495  -18.1268  121.2880 H   0  0  0  0  0  0  0  0  0  0  0  0
   37.8207  -20.8121  119.5395 H   0  0  0  0  0  0  0  0  0  0  0  0
   36.6676  -20.4788  118.2031 H   0  0  0  0  0  0  0  0  0  0  0  0
   38.2898  -19.7072  118.2031 H   0  0  0  0  0  0  0  0  0  0  0  0
   47.2232  -13.7419  111.5448 H   0  0  0  0  0  0  0  0  0  0  0  0
   44.0456  -11.4776  109.7119 H   0  0  0  0  0  0  0  0  0  0  0  0
   40.9274  -11.7298  114.9369 H   0  0  0  0  0  0  0  0  0  0  0  0
   40.4008  -10.2784  115.8965 H   0  0  0  0  0  0  0  0  0  0  0  0
   42.4762   -9.5046  116.0270 H   0  0  0  0  0  0  0  0  0  0  0  0
   43.0827  -11.1313  116.5978 H   0  0  0  0  0  0  0  0  0  0  0  0
   40.8985  -13.2071  119.8798 H   0  0  0  0  0  0  0  0  0  0  0  0
   41.9740   -9.5011  113.4736 H   0  0  0  0  0  0  0  0  0  0  0  0
   43.4594  -10.1418  112.6028 H   0  0  0  0  0  0  0  0  0  0  0  0
   35.7980  -18.9110  119.5727 H   0  0  0  0  0  0  0  0  0  0  0  0
   45.9835  -14.9734  107.6721 H   0  0  0  0  0  0  0  0  0  0  0  0
  1  6  2  0
  1  7  1  0
  2 19  2  0
  2 26  1  0
  3  8  2  0
  3 14  1  0
  4  9  1  0
  4 14  2  0
  5  6  1  0
  5 27  2  0
  7 10  2  0
  8 25  1  0
  9 25  2  0
 10 27  1  0
 11 18  1  0
 11 26  2  0
 12 20  1  0
 12 31  1  0
 13 22  1  0
 13 33  2  0
 15 30  1  0
 15 33  1  0
 24 16  1  0
 17 24  1  0
 18 28  2  0
 19 28  1  0
 20 21  1  0
 21 35  1  0
 22 29  2  0
 23 25  1  0
 23 35  1  0
 24 30  1  0
 26 32  1  0
 27 34  1  0
 28 42  1  0
 29 31  1  0
 29 41  1  0
 30 36  2  0
 31 37  2  0
 32 35  1  0
 32 38  2  0
 33 41  1  0
 42 34  1  6
 39 42  2  0
 40 42  2  0
  1 43  1  0
  2 44  1  0
  3 45  1  0
  4 46  1  0
  5 47  1  0
  6 48  1  0
  7 49  1  0
  8 50  1  0
  9 51  1  0
 10 52  1  0
 11 53  1  0
 12 54  1  0
 14 55  1  0
 15 56  1  0
 16 57  1  0
 16 58  1  0
 16 59  1  0
 17 60  1  0
 17 61  1  0
 17 62  1  0
 18 63  1  0
 19 64  1  0
 20 65  1  0
 20 66  1  0
 21 67  1  0
 21 68  1  0
 22 69  1  0
 23 70  1  0
 23 71  1  0
 24 72  1  1
 34 73  1  0
M  END
>  <filename_input>  (20) 
7QHG_T3B_docked.sdf

>  <pdb_id>  (20) 
7QHG_T3B

>  <pose_rank>  (20) 
19

>  <num_atoms_heavy>  (20) 
42

>  <num_torsions>  (20) 
11

>  <pose>  (20) 
[43.913924186265746, -11.936389928182432, 114.33651914281158, 1.4656371229528649, -0.7284156551935714, -2.528211491047188, 1.3888334230441137, -0.7813846548142492, 0.6811246698086006, -3.316052403279388, 0.44359471956040064, 0.5688718525983426, -4.326899885255115, 0.5492293276754017, 3.0446254845600653, 0.2060140441300617, 0.4964871392160392]

>  <energy>  (20) 
-430.1974157988815

>  <inter_energy>  (20) 
-488.6911684706872

>  <intra_energy>  (20) 
63.66034145015621

>  <rmsd>  (20) 
9.83253

>  <sdf_rank>  (20) 
0

$$$$

     RDKit          3D

 73 76  0  0  0  0  0  0  0  0999 V2000
   45.8038   -6.9689  115.4987 C   0  0  0  0  0  0  0  0  0  0  0  0
   46.0397  -13.8340  109.7466 C   0  0  0  0  0  0  0  0  0  0  0  0
   48.8926   -9.2983  105.1316 C   0  0  0  0  0  0  0  0  0  0  0  0
   50.9171  -10.5462  104.8820 C   0  0  0  0  0  0  0  0  0  0  0  0
   45.9510   -9.1691  114.5507 C   0  0  0  0  0  0  0  0  0  0  0  0
   46.2475   -8.2755  115.5676 C   0  0  0  0  0  0  0  0  0  0  0  0
   45.0704   -6.5487  114.4074 C   0  0  0  0  0  0  0  0  0  0  0  0
   48.3859  -10.2837  105.9650 C   0  0  0  0  0  0  0  0  0  0  0  0
   50.4145  -11.5304  105.7170 C   0  0  0  0  0  0  0  0  0  0  0  0
   44.7653   -7.4311  113.3871 C   0  0  0  0  0  0  0  0  0  0  0  0
   45.9118  -11.6474  108.7766 C   0  0  0  0  0  0  0  0  0  0  0  0
   47.7496  -12.0588  103.8116 N   0  0  0  0  0  0  0  0  0  0  0  0
   43.8841  -10.0421  102.0636 N   0  0  0  0  0  0  0  0  0  0  0  0
   50.1585   -9.4290  104.5904 C   0  0  0  0  0  0  0  0  0  0  0  0
   44.7375   -7.8970  101.5885 N   0  0  0  0  0  0  0  0  0  0  0  0
   45.5765   -4.5802  102.1973 C   0  0  0  0  0  0  0  0  0  0  0  0
   43.9105   -5.6023  100.6173 C   0  0  0  0  0  0  0  0  0  0  0  0
   45.5636  -11.1158  110.0071 C   0  0  0  0  0  0  0  0  0  0  0  0
   45.6951  -13.3132  110.9798 C   0  0  0  0  0  0  0  0  0  0  0  0
   48.6443  -13.0481  104.4039 C   0  0  0  0  0  0  0  0  0  0  0  0
   47.9190  -13.9794  105.3760 C   0  0  0  0  0  0  0  0  0  0  0  0
   44.3259  -11.2743  102.5144 C   0  0  0  0  0  0  0  0  0  0  0  0
   48.6312  -12.4662  107.2270 C   0  0  0  0  0  0  0  0  0  0  0  0
   45.3633   -5.5901  101.0649 C   0  0  2  0  0  0  0  0  0  0  0  0
   49.1450  -11.4098  106.2756 C   0  0  0  0  0  0  0  0  0  0  0  0
   46.1430  -13.0128  108.6260 C   0  0  0  0  0  0  0  0  0  0  0  0
   45.1938   -8.7527  113.4610 C   0  0  0  0  0  0  0  0  0  0  0  0
   45.4464  -11.9560  111.1016 C   0  0  0  0  0  0  0  0  0  0  0  0
   45.6516  -11.3730  102.8321 C   0  0  0  0  0  0  0  0  0  0  0  0
   45.7611   -6.9846  101.5381 C   0  0  0  0  0  0  0  0  0  0  0  0
   46.6095  -12.4298  103.2224 C   0  0  0  0  0  0  0  0  0  0  0  0
   46.4330  -13.6335  107.2929 C   0  0  0  0  0  0  0  0  0  0  0  0
   44.8838   -9.1967  102.0339 C   0  0  0  0  0  0  0  0  0  0  0  0
   44.8137   -9.6940  112.4509 N   0  0  0  0  0  0  0  0  0  0  0  0
   47.5996  -13.3491  106.6684 N   0  0  0  0  0  0  0  0  0  0  0  0
   46.9158   -7.2510  101.8684 O   0  0  0  0  0  0  0  0  0  0  0  0
   46.3152  -13.6094  103.0674 O   0  0  0  0  0  0  0  0  0  0  0  0
   45.6158  -14.3964  106.8068 O   0  0  0  0  0  0  0  0  0  0  0  0
   43.5529  -11.7376  112.8679 O   0  0  0  0  0  0  0  0  0  0  0  0
   45.9050  -11.5913  113.6341 O   0  0  0  0  0  0  0  0  0  0  0  0
   46.3985   -9.8295  102.5727 S   0  0  0  0  0  0  0  0  0  0  0  0
   44.9034  -11.3125  112.6507 S   0  0  1  0  0  0  0  0  0  0  0  0
   46.0345   -6.2649  116.3119 H   0  0  0  0  0  0  0  0  0  0  0  0
   46.2352  -14.9120  109.6488 H   0  0  0  0  0  0  0  0  0  0  0  0
   48.2862   -8.4102  104.9002 H   0  0  0  0  0  0  0  0  0  0  0  0
   51.9228  -10.6544  104.4500 H   0  0  0  0  0  0  0  0  0  0  0  0
   46.3140  -10.2061  114.6054 H   0  0  0  0  0  0  0  0  0  0  0  0
   46.8387   -8.6079  116.4335 H   0  0  0  0  0  0  0  0  0  0  0  0
   44.7265   -5.5055  114.3488 H   0  0  0  0  0  0  0  0  0  0  0  0
   47.3750  -10.1753  106.3849 H   0  0  0  0  0  0  0  0  0  0  0  0
   51.0253  -12.4173  105.9412 H   0  0  0  0  0  0  0  0  0  0  0  0
   44.1845   -7.0884  112.5181 H   0  0  0  0  0  0  0  0  0  0  0  0
   46.0072  -10.9819  107.9059 H   0  0  0  0  0  0  0  0  0  0  0  0
   48.0008  -11.0606  103.8483 H   0  0  0  0  0  0  0  0  0  0  0  0
   50.5601   -8.6462  103.9301 H   0  0  0  0  0  0  0  0  0  0  0  0
   43.8040   -7.5948  101.2753 H   0  0  0  0  0  0  0  0  0  0  0  0
   45.4692   -5.0885  103.1669 H   0  0  0  0  0  0  0  0  0  0  0  0
   46.5855   -4.1492  102.1189 H   0  0  0  0  0  0  0  0  0  0  0  0
   44.8280   -3.7780  102.1189 H   0  0  0  0  0  0  0  0  0  0  0  0
   43.2547   -5.6079  101.5005 H   0  0  0  0  0  0  0  0  0  0  0  0
   43.7052   -4.7059  100.0138 H   0  0  0  0  0  0  0  0  0  0  0  0
   43.7203   -6.5021  100.0138 H   0  0  0  0  0  0  0  0  0  0  0  0
   45.3817  -10.0362  110.1140 H   0  0  0  0  0  0  0  0  0  0  0  0
   45.6190  -13.9715  111.8577 H   0  0  0  0  0  0  0  0  0  0  0  0
   49.0861  -13.6526  103.5981 H   0  0  0  0  0  0  0  0  0  0  0  0
   49.4165  -12.5066  104.9701 H   0  0  0  0  0  0  0  0  0  0  0  0
   46.9795  -14.3079  104.9075 H   0  0  0  0  0  0  0  0  0  0  0  0
   48.5978  -14.8193  105.5854 H   0  0  0  0  0  0  0  0  0  0  0  0
   43.6436  -12.1316  102.6120 H   0  0  0  0  0  0  0  0  0  0  0  0
   49.4825  -13.0891  107.5387 H   0  0  0  0  0  0  0  0  0  0  0  0
   48.1586  -11.9275  108.0616 H   0  0  0  0  0  0  0  0  0  0  0  0
   45.9911   -5.2927  100.2120 H   0  0  0  0  0  0  0  0  0  0  0  0
   44.4656   -9.3316  111.5518 H   0  0  0  0  0  0  0  0  0  0  0  0
  1  6  2  0
  1  7  1  0
  2 19  2  0
  2 26  1  0
  3  8  2  0
  3 14  1  0
  4  9  1  0
  4 14  2  0
  5  6  1  0
  5 27  2  0
  7 10  2  0
  8 25  1  0
  9 25  2  0
 10 27  1  0
 11 18  1  0
 11 26  2  0
 12 20  1  0
 12 31  1  0
 13 22  1  0
 13 33  2  0
 15 30  1  0
 15 33  1  0
 24 16  1  0
 17 24  1  0
 18 28  2  0
 19 28  1  0
 20 21  1  0
 21 35  1  0
 22 29  2  0
 23 25  1  0
 23 35  1  0
 24 30  1  0
 26 32  1  0
 27 34  1  0
 28 42  1  0
 29 31  1  0
 29 41  1  0
 30 36  2  0
 31 37  2  0
 32 35  1  0
 32 38  2  0
 33 41  1  0
 42 34  1  6
 39 42  2  0
 40 42  2  0
  1 43  1  0
  2 44  1  0
  3 45  1  0
  4 46  1  0
  5 47  1  0
  6 48  1  0
  7 49  1  0
  8 50  1  0
  9 51  1  0
 10 52  1  0
 11 53  1  0
 12 54  1  0
 14 55  1  0
 15 56  1  0
 16 57  1  0
 16 58  1  0
 16 59  1  0
 17 60  1  0
 17 61  1  0
 17 62  1  0
 18 63  1  0
 19 64  1  0
 20 65  1  0
 20 66  1  0
 21 67  1  0
 21 68  1  0
 22 69  1  0
 23 70  1  0
 23 71  1  0
 24 72  1  6
 34 73  1  0
M  END
>  <filename_input>  (21) 
7QHG_T3B_docked.sdf

>  <pdb_id>  (21) 
7QHG_T3B

>  <pose_rank>  (21) 
20

>  <num_atoms_heavy>  (21) 
42

>  <num_torsions>  (21) 
11

>  <pose>  (21) 
[46.43304658582289, -13.633522940575329, 107.29285213167486, 2.4568639739151297, -0.860510138079657, 1.414756938998198, -12.606474220779267, -8.518364873886396, 4.621824736929116, 4.659296554262996, -8.085402375499793, -21.85140322884459, -8.426293011153492, 3.594486617432075, -1.4593243187348899, -0.1767180177555263, 0.6761010623622589]

>  <energy>  (21) 
-348.9088893083474

>  <inter_energy>  (21) 
-566.8335803097187

>  <intra_energy>  (21) 
215.01547838312976

>  <rmsd>  (21) 
10.3593

>  <sdf_rank>  (21) 
0

$$$$

     RDKit          3D

 73 76  0  0  0  0  0  0  0  0999 V2000
   44.2875  -21.9620  102.8004 C   0  0  0  0  0  0  0  0  0  0  0  0
   45.5649  -16.2803  109.1494 C   0  0  0  0  0  0  0  0  0  0  0  0
   46.9847  -12.6397  105.1059 C   0  0  0  0  0  0  0  0  0  0  0  0
   48.4125  -11.4978  106.6471 C   0  0  0  0  0  0  0  0  0  0  0  0
   45.8489  -21.0442  104.3756 C   0  0  0  0  0  0  0  0  0  0  0  0
   45.5388  -21.9635  103.3861 C   0  0  0  0  0  0  0  0  0  0  0  0
   43.3383  -21.0471  103.2096 C   0  0  0  0  0  0  0  0  0  0  0  0
   46.1142  -12.9499  106.1394 C   0  0  0  0  0  0  0  0  0  0  0  0
   47.5428  -11.8035  107.6808 C   0  0  0  0  0  0  0  0  0  0  0  0
   43.6357  -20.1225  104.1940 C   0  0  0  0  0  0  0  0  0  0  0  0
   47.6930  -15.5745  108.3058 C   0  0  0  0  0  0  0  0  0  0  0  0
   44.4722  -10.1437  111.5189 N   0  0  0  0  0  0  0  0  0  0  0  0
   42.7777   -7.4934  114.6900 N   0  0  0  0  0  0  0  0  0  0  0  0
   48.1337  -11.9131  105.3594 C   0  0  0  0  0  0  0  0  0  0  0  0
   43.6849   -5.4417  115.4134 N   0  0  0  0  0  0  0  0  0  0  0  0
   45.3723   -3.2710  117.5270 C   0  0  0  0  0  0  0  0  0  0  0  0
   42.9663   -3.3318  116.8027 C   0  0  0  0  0  0  0  0  0  0  0  0
   47.7153  -16.6562  107.4412 C   0  0  0  0  0  0  0  0  0  0  0  0
   45.5761  -17.3618  108.2887 C   0  0  0  0  0  0  0  0  0  0  0  0
   45.1496  -10.8002  110.4052 C   0  0  0  0  0  0  0  0  0  0  0  0
   45.9856  -11.9978  110.8580 C   0  0  0  0  0  0  0  0  0  0  0  0
   43.1216   -8.5748  113.8969 C   0  0  0  0  0  0  0  0  0  0  0  0
   45.4125  -12.8078  108.5691 C   0  0  0  0  0  0  0  0  0  0  0  0
   44.4119   -3.2941  116.3334 C   0  0  2  0  0  0  0  0  0  0  0  0
   46.3783  -12.5276  107.4405 C   0  0  0  0  0  0  0  0  0  0  0  0
   46.6256  -15.3775  109.1789 C   0  0  0  0  0  0  0  0  0  0  0  0
   44.9005  -20.1079  104.7735 C   0  0  0  0  0  0  0  0  0  0  0  0
   46.6588  -17.5515  107.4459 C   0  0  0  0  0  0  0  0  0  0  0  0
   44.3651   -8.5502  113.3301 C   0  0  0  0  0  0  0  0  0  0  0  0
   44.6972   -4.5171  115.4676 C   0  0  0  0  0  0  0  0  0  0  0  0
   45.1420   -9.3473  112.3566 C   0  0  0  0  0  0  0  0  0  0  0  0
   46.6112  -14.2701  110.1889 C   0  0  0  0  0  0  0  0  0  0  0  0
   43.7670   -6.6360  114.7234 C   0  0  0  0  0  0  0  0  0  0  0  0
   45.2447  -19.1030  105.7340 N   0  0  0  0  0  0  0  0  0  0  0  0
   46.0435  -13.0848  109.8656 N   0  0  0  0  0  0  0  0  0  0  0  0
   45.7705   -4.6607  114.8839 O   0  0  0  0  0  0  0  0  0  0  0  0
   46.3582   -9.2122  112.2877 O   0  0  0  0  0  0  0  0  0  0  0  0
   47.0983  -14.4681  111.2887 O   0  0  0  0  0  0  0  0  0  0  0  0
   47.6224  -18.7372  105.3439 O   0  0  0  0  0  0  0  0  0  0  0  0
   46.9138  -20.1321  107.2656 O   0  0  0  0  0  0  0  0  0  0  0  0
   45.1709   -7.0974  113.8281 S   0  0  0  0  0  0  0  0  0  0  0  0
   46.7193  -18.9890  106.4268 S   0  0  1  0  0  0  0  0  0  0  0  0
   44.0482  -22.6882  102.0096 H   0  0  0  0  0  0  0  0  0  0  0  0
   44.7064  -16.1303  109.8206 H   0  0  0  0  0  0  0  0  0  0  0  0
   46.7609  -12.9724  104.0816 H   0  0  0  0  0  0  0  0  0  0  0  0
   49.3276  -10.9229  106.8521 H   0  0  0  0  0  0  0  0  0  0  0  0
   46.8434  -21.0549  104.8455 H   0  0  0  0  0  0  0  0  0  0  0  0
   46.2924  -22.6979  103.0655 H   0  0  0  0  0  0  0  0  0  0  0  0
   42.3390  -21.0536  102.7497 H   0  0  0  0  0  0  0  0  0  0  0  0
   45.2065  -13.5348  105.9302 H   0  0  0  0  0  0  0  0  0  0  0  0
   47.7748  -11.4703  108.7032 H   0  0  0  0  0  0  0  0  0  0  0  0
   42.8731  -19.3993  104.5186 H   0  0  0  0  0  0  0  0  0  0  0  0
   48.5301  -14.8609  108.3029 H   0  0  0  0  0  0  0  0  0  0  0  0
   43.4636  -10.2967  111.6610 H   0  0  0  0  0  0  0  0  0  0  0  0
   48.8233  -11.6666  104.5385 H   0  0  0  0  0  0  0  0  0  0  0  0
   42.8113   -5.2330  115.9175 H   0  0  0  0  0  0  0  0  0  0  0  0
   44.7944   -3.2849  118.4629 H   0  0  0  0  0  0  0  0  0  0  0  0
   46.0275   -4.1536  117.4875 H   0  0  0  0  0  0  0  0  0  0  0  0
   45.9843   -2.3578  117.4875 H   0  0  0  0  0  0  0  0  0  0  0  0
   42.9377   -3.3325  117.9024 H   0  0  0  0  0  0  0  0  0  0  0  0
   42.4343   -2.4472  116.4227 H   0  0  0  0  0  0  0  0  0  0  0  0
   42.4811   -4.2429  116.4227 H   0  0  0  0  0  0  0  0  0  0  0  0
   48.5642  -16.8027  106.7572 H   0  0  0  0  0  0  0  0  0  0  0  0
   44.7316  -18.0664  108.2732 H   0  0  0  0  0  0  0  0  0  0  0  0
   44.3929  -11.1485  109.6869 H   0  0  0  0  0  0  0  0  0  0  0  0
   45.8314  -10.0680  109.9479 H   0  0  0  0  0  0  0  0  0  0  0  0
   47.0110  -11.6517  111.0550 H   0  0  0  0  0  0  0  0  0  0  0  0
   45.5025  -12.4072  111.7574 H   0  0  0  0  0  0  0  0  0  0  0  0
   42.4283   -9.4126  113.7311 H   0  0  0  0  0  0  0  0  0  0  0  0
   44.7599  -11.9301  108.6868 H   0  0  0  0  0  0  0  0  0  0  0  0
   44.8662  -13.7207  108.2895 H   0  0  0  0  0  0  0  0  0  0  0  0
   44.5666   -2.3772  115.7458 H   0  0  0  0  0  0  0  0  0  0  0  0
   44.5250  -18.4166  106.0018 H   0  0  0  0  0  0  0  0  0  0  0  0
  1  6  2  0
  1  7  1  0
  2 19  2  0
  2 26  1  0
  3  8  2  0
  3 14  1  0
  4  9  1  0
  4 14  2  0
  5  6  1  0
  5 27  2  0
  7 10  2  0
  8 25  1  0
  9 25  2  0
 10 27  1  0
 11 18  1  0
 11 26  2  0
 12 20  1  0
 12 31  1  0
 13 22  1  0
 13 33  2  0
 15 30  1  0
 15 33  1  0
 24 16  1  0
 17 24  1  0
 18 28  2  0
 19 28  1  0
 20 21  1  0
 21 35  1  0
 22 29  2  0
 23 25  1  0
 23 35  1  0
 24 30  1  0
 26 32  1  0
 27 34  1  0
 28 42  1  0
 29 31  1  0
 29 41  1  0
 30 36  2  0
 31 37  2  0
 32 35  1  0
 32 38  2  0
 33 41  1  0
 42 34  1  6
 39 42  2  0
 40 42  2  0
  1 43  1  0
  2 44  1  0
  3 45  1  0
  4 46  1  0
  5 47  1  0
  6 48  1  0
  7 49  1  0
  8 50  1  0
  9 51  1  0
 10 52  1  0
 11 53  1  0
 12 54  1  0
 14 55  1  0
 15 56  1  0
 16 57  1  0
 16 58  1  0
 16 59  1  0
 17 60  1  0
 17 61  1  0
 17 62  1  0
 18 63  1  0
 19 64  1  0
 20 65  1  0
 20 66  1  0
 21 67  1  0
 21 68  1  0
 22 69  1  0
 23 70  1  0
 23 71  1  0
 24 72  1  6
 34 73  1  0
M  END
>  <filename_input>  (22) 
7QHG_T3B_docked.sdf

>  <pdb_id>  (22) 
7QHG_T3B

>  <pose_rank>  (22) 
21

>  <num_atoms_heavy>  (22) 
42

>  <num_torsions>  (22) 
11

>  <pose>  (22) 
[46.611182950568654, -14.27008646240152, 110.18890734202333, -0.8191620160571038, 1.8921548648037387, 2.9340272058029875, -12.178417679145657, -10.772056308187441, -8.67369383284614, -1.898769646572661, 5.2722422522235926, 0.876014271157242, 0.09511511009711628, 0.48074983902144036, -1.474406329585596, 0.757206534481198, 1.8867920461943395]

>  <energy>  (22) 
-514.4889325346417

>  <inter_energy>  (22) 
-537.4274454025009

>  <intra_energy>  (22) 
36.43023442396102

>  <rmsd>  (22) 
6.04102

>  <sdf_rank>  (22) 
0

$$$$

     RDKit          3D

 73 76  0  0  0  0  0  0  0  0999 V2000
   47.2258  -16.3749  108.3645 C   0  0  0  0  0  0  0  0  0  0  0  0
   45.5039  -11.6194  107.4985 C   0  0  0  0  0  0  0  0  0  0  0  0
   49.2128  -14.7083  103.1892 C   0  0  0  0  0  0  0  0  0  0  0  0
   46.8850  -14.1620  103.2236 C   0  0  0  0  0  0  0  0  0  0  0  0
   45.1011  -15.8290  109.3387 C   0  0  0  0  0  0  0  0  0  0  0  0
   45.8522  -16.5188  108.4003 C   0  0  0  0  0  0  0  0  0  0  0  0
   47.8522  -15.5324  109.2608 C   0  0  0  0  0  0  0  0  0  0  0  0
   49.4370  -13.8258  104.2348 C   0  0  0  0  0  0  0  0  0  0  0  0
   47.1059  -13.2823  104.2703 C   0  0  0  0  0  0  0  0  0  0  0  0
   47.1146  -14.8404  110.2040 C   0  0  0  0  0  0  0  0  0  0  0  0
   47.1783  -10.7653  108.9837 C   0  0  0  0  0  0  0  0  0  0  0  0
   51.1709   -9.6309  104.2748 N   0  0  0  0  0  0  0  0  0  0  0  0
   55.4027   -7.6498  104.6610 N   0  0  0  0  0  0  0  0  0  0  0  0
   47.9366  -14.8771  102.6838 C   0  0  0  0  0  0  0  0  0  0  0  0
   54.8884   -5.3944  105.1132 N   0  0  0  0  0  0  0  0  0  0  0  0
   55.9279   -3.0660  106.2870 C   0  0  0  0  0  0  0  0  0  0  0  0
   53.6265   -2.0605  106.1904 C   0  0  0  0  0  0  0  0  0  0  0  0
   46.5449  -11.3718  110.0555 C   0  0  0  0  0  0  0  0  0  0  0  0
   44.8654  -12.2308  108.5612 C   0  0  0  0  0  0  0  0  0  0  0  0
   50.1336  -10.6537  104.1853 C   0  0  0  0  0  0  0  0  0  0  0  0
   48.7557  -10.1200  104.5788 C   0  0  0  0  0  0  0  0  0  0  0  0
   54.7669   -8.8763  104.5705 C   0  0  0  0  0  0  0  0  0  0  0  0
   48.6000  -12.1835  105.9721 C   0  0  0  0  0  0  0  0  0  0  0  0
   54.6113   -2.9953  105.5066 C   0  0  2  0  0  0  0  0  0  0  0  0
   48.3833  -13.1070  104.7951 C   0  0  0  0  0  0  0  0  0  0  0  0
   46.6620  -10.8700  107.6941 C   0  0  0  0  0  0  0  0  0  0  0  0
   45.7331  -14.9966  110.2562 C   0  0  0  0  0  0  0  0  0  0  0  0
   45.3832  -12.0936  109.8385 C   0  0  0  0  0  0  0  0  0  0  0  0
   53.4140   -8.8830  104.7648 C   0  0  0  0  0  0  0  0  0  0  0  0
   54.0003   -4.3890  105.4018 C   0  0  0  0  0  0  0  0  0  0  0  0
   52.3296   -9.8804  104.8910 C   0  0  0  0  0  0  0  0  0  0  0  0
   47.2707  -10.1528  106.5271 C   0  0  0  0  0  0  0  0  0  0  0  0
   54.5259   -6.7152  104.9310 C   0  0  0  0  0  0  0  0  0  0  0  0
   44.9699  -14.3491  111.2805 N   0  0  0  0  0  0  0  0  0  0  0  0
   48.1754  -10.7952  105.7523 N   0  0  0  0  0  0  0  0  0  0  0  0
   52.7936   -4.5792  105.5461 O   0  0  0  0  0  0  0  0  0  0  0  0
   52.5324  -10.9320  105.4870 O   0  0  0  0  0  0  0  0  0  0  0  0
   46.9236   -9.0082  106.2915 O   0  0  0  0  0  0  0  0  0  0  0  0
   45.0072  -12.1888  112.4080 O   0  0  0  0  0  0  0  0  0  0  0  0
   43.1075  -12.7402  110.9154 O   0  0  0  0  0  0  0  0  0  0  0  0
   52.8903   -7.2565  105.0616 S   0  0  0  0  0  0  0  0  0  0  0  0
   44.5084  -12.7843  111.2046 S   0  0  1  0  0  0  0  0  0  0  0  0
   47.8190  -16.9304  107.6233 H   0  0  0  0  0  0  0  0  0  0  0  0
   45.0919  -11.7261  106.4842 H   0  0  0  0  0  0  0  0  0  0  0  0
   50.0521  -15.2757  102.7606 H   0  0  0  0  0  0  0  0  0  0  0  0
   45.8696  -14.2917  102.8210 H   0  0  0  0  0  0  0  0  0  0  0  0
   44.0068  -15.9397  109.3577 H   0  0  0  0  0  0  0  0  0  0  0  0
   45.3525  -17.1840  107.6807 H   0  0  0  0  0  0  0  0  0  0  0  0
   48.9448  -15.4107  109.2245 H   0  0  0  0  0  0  0  0  0  0  0  0
   50.4565  -13.6919  104.6256 H   0  0  0  0  0  0  0  0  0  0  0  0
   46.2624  -12.7158  104.6917 H   0  0  0  0  0  0  0  0  0  0  0  0
   47.6197  -14.1671  110.9122 H   0  0  0  0  0  0  0  0  0  0  0  0
   48.1021  -10.1927  109.1530 H   0  0  0  0  0  0  0  0  0  0  0  0
   51.0073   -8.7038  103.8569 H   0  0  0  0  0  0  0  0  0  0  0  0
   47.7595  -15.5782  101.8549 H   0  0  0  0  0  0  0  0  0  0  0  0
   55.8852   -5.1498  105.0272 H   0  0  0  0  0  0  0  0  0  0  0  0
   55.7154   -3.0546  107.3663 H   0  0  0  0  0  0  0  0  0  0  0  0
   56.4585   -3.9940  106.0276 H   0  0  0  0  0  0  0  0  0  0  0  0
   56.5549   -2.2003  106.0276 H   0  0  0  0  0  0  0  0  0  0  0  0
   53.7273   -2.1562  107.2816 H   0  0  0  0  0  0  0  0  0  0  0  0
   53.8381   -1.0231  105.8922 H   0  0  0  0  0  0  0  0  0  0  0  0
   52.6015   -2.3259  105.8922 H   0  0  0  0  0  0  0  0  0  0  0  0
   46.9608  -11.2810  111.0698 H   0  0  0  0  0  0  0  0  0  0  0  0
   43.9529  -12.8218  108.3936 H   0  0  0  0  0  0  0  0  0  0  0  0
   50.0878  -11.0212  103.1495 H   0  0  0  0  0  0  0  0  0  0  0  0
   50.3948  -11.4596  104.8868 H   0  0  0  0  0  0  0  0  0  0  0  0
   48.8497   -9.0478  104.8056 H   0  0  0  0  0  0  0  0  0  0  0  0
   48.0815  -10.3104  103.7308 H   0  0  0  0  0  0  0  0  0  0  0  0
   55.3232   -9.8000  104.3528 H   0  0  0  0  0  0  0  0  0  0  0  0
   48.0361  -12.5823  106.8282 H   0  0  0  0  0  0  0  0  0  0  0  0
   49.6860  -12.1514  106.1444 H   0  0  0  0  0  0  0  0  0  0  0  0
   54.8249   -2.6054  104.5004 H   0  0  0  0  0  0  0  0  0  0  0  0
   44.6980  -14.8988  112.1080 H   0  0  0  0  0  0  0  0  0  0  0  0
  1  6  2  0
  1  7  1  0
  2 19  2  0
  2 26  1  0
  3  8  2  0
  3 14  1  0
  4  9  1  0
  4 14  2  0
  5  6  1  0
  5 27  2  0
  7 10  2  0
  8 25  1  0
  9 25  2  0
 10 27  1  0
 11 18  1  0
 11 26  2  0
 12 20  1  0
 12 31  1  0
 13 22  1  0
 13 33  2  0
 15 30  1  0
 15 33  1  0
 24 16  1  0
 17 24  1  0
 18 28  2  0
 19 28  1  0
 20 21  1  0
 21 35  1  0
 22 29  2  0
 23 25  1  0
 23 35  1  0
 24 30  1  0
 26 32  1  0
 27 34  1  0
 28 42  1  0
 29 31  1  0
 29 41  1  0
 30 36  2  0
 31 37  2  0
 32 35  1  0
 32 38  2  0
 33 41  1  0
 42 34  1  1
 39 42  2  0
 40 42  2  0
  1 43  1  0
  2 44  1  0
  3 45  1  0
  4 46  1  0
  5 47  1  0
  6 48  1  0
  7 49  1  0
  8 50  1  0
  9 51  1  0
 10 52  1  0
 11 53  1  0
 12 54  1  0
 14 55  1  0
 15 56  1  0
 16 57  1  0
 16 58  1  0
 16 59  1  0
 17 60  1  0
 17 61  1  0
 17 62  1  0
 18 63  1  0
 19 64  1  0
 20 65  1  0
 20 66  1  0
 21 67  1  0
 21 68  1  0
 22 69  1  0
 23 70  1  0
 23 71  1  0
 24 72  1  6
 34 73  1  0
M  END
>  <filename_input>  (23) 
7QHG_T3B_docked.sdf

>  <pdb_id>  (23) 
7QHG_T3B

>  <pose_rank>  (23) 
22

>  <num_atoms_heavy>  (23) 
42

>  <num_torsions>  (23) 
11

>  <pose>  (23) 
[47.27067782245045, -10.152819163784857, 106.52712871327878, -0.9487402517173661, 2.749131298154764, -0.315592269818427, 0.418266503733828, 2.4482509150981286, 0.6291058937807812, -3.651235233442053, -1.5961616901155853, -3.7548642695152785, 1.0706078622205402, -2.2878105949742404, 2.0555799978263978, -2.0302043657594484, 1.5216580652541656]

>  <energy>  (23) 
-459.32886079661193

>  <inter_energy>  (23) 
-494.6567482525646

>  <intra_energy>  (23) 
47.42335565399904

>  <rmsd>  (23) 
9.62416

>  <sdf_rank>  (23) 
0

$$$$

     RDKit          3D

 73 76  0  0  0  0  0  0  0  0999 V2000
   49.1410   -2.6005  109.2276 C   0  0  0  0  0  0  0  0  0  0  0  0
   45.3878   -8.1816  112.3298 C   0  0  0  0  0  0  0  0  0  0  0  0
   41.0778  -11.3515  115.1090 C   0  0  0  0  0  0  0  0  0  0  0  0
   41.4346  -10.8818  112.7917 C   0  0  0  0  0  0  0  0  0  0  0  0
   47.4306   -2.0968  110.8345 C   0  0  0  0  0  0  0  0  0  0  0  0
   48.3981   -1.6759  109.9360 C   0  0  0  0  0  0  0  0  0  0  0  0
   48.9259   -3.9500  109.4229 C   0  0  0  0  0  0  0  0  0  0  0  0
   42.4425  -11.2661  115.3383 C   0  0  0  0  0  0  0  0  0  0  0  0
   42.7981  -10.7926  113.0187 C   0  0  0  0  0  0  0  0  0  0  0  0
   47.9616   -4.3833  110.3145 C   0  0  0  0  0  0  0  0  0  0  0  0
   47.3208   -8.3410  113.7358 C   0  0  0  0  0  0  0  0  0  0  0  0
   45.7200  -12.3253  110.6999 N   0  0  0  0  0  0  0  0  0  0  0  0
   46.9412  -10.2694  106.9187 N   0  0  0  0  0  0  0  0  0  0  0  0
   40.5735  -11.1588  113.8358 C   0  0  0  0  0  0  0  0  0  0  0  0
   46.9586  -11.1504  104.7325 N   0  0  0  0  0  0  0  0  0  0  0  0
   48.2485  -12.6862  101.8610 C   0  0  0  0  0  0  0  0  0  0  0  0
   47.4238  -10.3492  102.2794 C   0  0  0  0  0  0  0  0  0  0  0  0
   47.3175   -6.9667  113.9057 C   0  0  0  0  0  0  0  0  0  0  0  0
   45.3741   -6.8093  112.4949 C   0  0  0  0  0  0  0  0  0  0  0  0
   45.0719  -13.0687  111.7757 C   0  0  0  0  0  0  0  0  0  0  0  0
   45.6438  -12.7193  113.1502 C   0  0  0  0  0  0  0  0  0  0  0  0
   46.6794  -10.6773  108.2156 C   0  0  0  0  0  0  0  0  0  0  0  0
   44.8047  -10.8237  114.5381 C   0  0  0  0  0  0  0  0  0  0  0  0
   47.0919  -11.8290  102.3854 C   0  0  2  0  0  0  0  0  0  0  0  0
   43.3204  -10.9766  114.2960 C   0  0  0  0  0  0  0  0  0  0  0  0
   46.3654   -8.9662  112.9378 C   0  0  0  0  0  0  0  0  0  0  0  0
   47.1979   -3.4559  111.0162 C   0  0  0  0  0  0  0  0  0  0  0  0
   46.3480   -6.2062  113.2736 C   0  0  0  0  0  0  0  0  0  0  0  0
   46.3389  -11.9895  108.3900 C   0  0  0  0  0  0  0  0  0  0  0  0
   46.8086  -12.1833  103.8417 C   0  0  0  0  0  0  0  0  0  0  0  0
   45.8693  -12.8636  109.4864 C   0  0  0  0  0  0  0  0  0  0  0  0
   46.3934  -10.4389  112.6601 C   0  0  0  0  0  0  0  0  0  0  0  0
   46.7944  -11.2796  106.0984 C   0  0  0  0  0  0  0  0  0  0  0  0
   46.1421   -3.8930  111.8793 N   0  0  0  0  0  0  0  0  0  0  0  0
   45.6589  -11.2736  113.4318 N   0  0  0  0  0  0  0  0  0  0  0  0
   46.4911  -13.3224  104.1808 O   0  0  0  0  0  0  0  0  0  0  0  0
   45.5621  -14.0268  109.2522 O   0  0  0  0  0  0  0  0  0  0  0  0
   47.0669  -10.8516  111.7316 O   0  0  0  0  0  0  0  0  0  0  0  0
   45.2477   -4.0185  114.1429 O   0  0  0  0  0  0  0  0  0  0  0  0
   47.7030   -4.0538  113.8102 O   0  0  0  0  0  0  0  0  0  0  0  0
   46.3627  -12.7768  106.8450 S   0  0  0  0  0  0  0  0  0  0  0  0
   46.3913   -4.4478  113.3950 S   0  0  1  0  0  0  0  0  0  0  0  0
   49.9024   -2.2620  108.5094 H   0  0  0  0  0  0  0  0  0  0  0  0
   44.6160   -8.6609  111.7097 H   0  0  0  0  0  0  0  0  0  0  0  0
   40.3944  -11.5732  115.9420 H   0  0  0  0  0  0  0  0  0  0  0  0
   41.0365  -10.7317  111.7774 H   0  0  0  0  0  0  0  0  0  0  0  0
   46.8477   -1.3572  111.4030 H   0  0  0  0  0  0  0  0  0  0  0  0
   48.5753   -0.6006  109.7861 H   0  0  0  0  0  0  0  0  0  0  0  0
   49.5252   -4.6852  108.8659 H   0  0  0  0  0  0  0  0  0  0  0  0
   42.8358  -11.4285  116.3527 H   0  0  0  0  0  0  0  0  0  0  0  0
   43.4758  -10.5740  112.1803 H   0  0  0  0  0  0  0  0  0  0  0  0
   47.7986   -5.4602  110.4687 H   0  0  0  0  0  0  0  0  0  0  0  0
   48.0887   -8.9476  114.2382 H   0  0  0  0  0  0  0  0  0  0  0  0
   46.0670  -11.3722  110.8788 H   0  0  0  0  0  0  0  0  0  0  0  0
   39.4905  -11.2257  113.6551 H   0  0  0  0  0  0  0  0  0  0  0  0
   47.2085  -10.2230  104.3607 H   0  0  0  0  0  0  0  0  0  0  0  0
   48.8104  -13.1027  102.7100 H   0  0  0  0  0  0  0  0  0  0  0  0
   47.8479  -13.5072  101.2483 H   0  0  0  0  0  0  0  0  0  0  0  0
   48.9175  -12.0641  101.2483 H   0  0  0  0  0  0  0  0  0  0  0  0
   47.5197   -9.9217  103.2884 H   0  0  0  0  0  0  0  0  0  0  0  0
   48.3723  -10.2241  101.7365 H   0  0  0  0  0  0  0  0  0  0  0  0
   46.6195   -9.8310  101.7365 H   0  0  0  0  0  0  0  0  0  0  0  0
   48.0779   -6.4835  114.5369 H   0  0  0  0  0  0  0  0  0  0  0  0
   44.5956   -6.2007  112.0115 H   0  0  0  0  0  0  0  0  0  0  0  0
   43.9972  -12.8344  111.7699 H   0  0  0  0  0  0  0  0  0  0  0  0
   45.2511  -14.1397  111.5995 H   0  0  0  0  0  0  0  0  0  0  0  0
   45.0329  -13.2168  113.9178 H   0  0  0  0  0  0  0  0  0  0  0  0
   46.6892  -13.0613  113.1613 H   0  0  0  0  0  0  0  0  0  0  0  0
   46.7422   -9.9797  109.0637 H   0  0  0  0  0  0  0  0  0  0  0  0
   45.0137   -9.7594  114.7207 H   0  0  0  0  0  0  0  0  0  0  0  0
   45.0461  -11.4673  115.3969 H   0  0  0  0  0  0  0  0  0  0  0  0
   46.2021  -12.0342  101.7721 H   0  0  0  0  0  0  0  0  0  0  0  0
   45.1754   -3.8555  111.5259 H   0  0  0  0  0  0  0  0  0  0  0  0
  1  6  2  0
  1  7  1  0
  2 19  2  0
  2 26  1  0
  3  8  2  0
  3 14  1  0
  4  9  1  0
  4 14  2  0
  5  6  1  0
  5 27  2  0
  7 10  2  0
  8 25  1  0
  9 25  2  0
 10 27  1  0
 11 18  1  0
 11 26  2  0
 12 20  1  0
 12 31  1  0
 13 22  1  0
 13 33  2  0
 15 30  1  0
 15 33  1  0
 24 16  1  0
 17 24  1  0
 18 28  2  0
 19 28  1  0
 20 21  1  0
 21 35  1  0
 22 29  2  0
 23 25  1  0
 23 35  1  0
 24 30  1  0
 26 32  1  0
 27 34  1  0
 28 42  1  0
 29 31  1  0
 29 41  1  0
 30 36  2  0
 31 37  2  0
 32 35  1  0
 32 38  2  0
 33 41  1  0
 42 34  1  6
 39 42  2  0
 40 42  2  0
  1 43  1  0
  2 44  1  0
  3 45  1  0
  4 46  1  0
  5 47  1  0
  6 48  1  0
  7 49  1  0
  8 50  1  0
  9 51  1  0
 10 52  1  0
 11 53  1  0
 12 54  1  0
 14 55  1  0
 15 56  1  0
 16 57  1  0
 16 58  1  0
 16 59  1  0
 17 60  1  0
 17 61  1  0
 17 62  1  0
 18 63  1  0
 19 64  1  0
 20 65  1  0
 20 66  1  0
 21 67  1  0
 21 68  1  0
 22 69  1  0
 23 70  1  0
 23 71  1  0
 24 72  1  6
 34 73  1  0
M  END
>  <filename_input>  (24) 
7QHG_T3B_docked.sdf

>  <pdb_id>  (24) 
7QHG_T3B

>  <pose_rank>  (24) 
23

>  <num_atoms_heavy>  (24) 
42

>  <num_torsions>  (24) 
11

>  <pose>  (24) 
[46.39343760115458, -10.438928926020314, 112.66012206074481, -1.0136471120195827, -1.891392216659875, 2.022805320170073, 0.4243625687957325, 0.22245217623810037, -0.9277181249231702, 2.613089952606643, 0.906937519210533, -0.7753791064959439, 1.343370897464774, 0.10489866697346326, -1.3986151586023297, -2.2325474117871718, 1.9271918384694129]

>  <energy>  (24) 
-457.146242163531

>  <inter_energy>  (24) 
-549.0139401103879

>  <intra_energy>  (24) 
99.33505920602492

>  <rmsd>  (24) 
9.56303

>  <sdf_rank>  (24) 
0

$$$$

     RDKit          3D

 73 76  0  0  0  0  0  0  0  0999 V2000
   45.9056   -9.6362  108.1468 C   0  0  0  0  0  0  0  0  0  0  0  0
   46.8361  -14.9866  108.5165 C   0  0  0  0  0  0  0  0  0  0  0  0
   44.0005  -10.4547  111.6896 C   0  0  0  0  0  0  0  0  0  0  0  0
   44.8019  -11.3381  113.7621 C   0  0  0  0  0  0  0  0  0  0  0  0
   47.6378  -11.2893  107.9788 C   0  0  0  0  0  0  0  0  0  0  0  0
   46.6602  -10.6426  108.7181 C   0  0  0  0  0  0  0  0  0  0  0  0
   46.1332   -9.2659  106.8366 C   0  0  0  0  0  0  0  0  0  0  0  0
   44.5044  -11.5602  111.0216 C   0  0  0  0  0  0  0  0  0  0  0  0
   45.3032  -12.4452  113.0976 C   0  0  0  0  0  0  0  0  0  0  0  0
   47.1038   -9.9050  106.0869 C   0  0  0  0  0  0  0  0  0  0  0  0
   45.0847  -14.1466  107.1144 C   0  0  0  0  0  0  0  0  0  0  0  0
   41.3340  -15.9673  112.0517 N   0  0  0  0  0  0  0  0  0  0  0  0
   39.4257  -18.8116  115.2030 N   0  0  0  0  0  0  0  0  0  0  0  0
   44.1486  -10.3437  113.0601 C   0  0  0  0  0  0  0  0  0  0  0  0
   38.4189  -17.2120  116.6113 N   0  0  0  0  0  0  0  0  0  0  0  0
   37.3279  -17.0345  119.0787 C   0  0  0  0  0  0  0  0  0  0  0  0
   35.8753  -15.4786  117.7425 C   0  0  0  0  0  0  0  0  0  0  0  0
   46.0243  -13.6852  106.2077 C   0  0  0  0  0  0  0  0  0  0  0  0
   47.7819  -14.5321  107.6168 C   0  0  0  0  0  0  0  0  0  0  0  0
   42.2206  -15.3419  111.0755 C   0  0  0  0  0  0  0  0  0  0  0  0
   43.6334  -15.1345  111.6226 C   0  0  0  0  0  0  0  0  0  0  0  0
   40.2863  -18.8670  114.1199 C   0  0  0  0  0  0  0  0  0  0  0  0
   45.6609  -13.8138  111.0156 C   0  0  0  0  0  0  0  0  0  0  0  0
   37.2884  -15.7622  118.2261 C   0  0  2  0  0  0  0  0  0  0  0  0
   45.1555  -12.5752  111.7194 C   0  0  0  0  0  0  0  0  0  0  0  0
   45.4761  -14.7922  108.2851 C   0  0  0  0  0  0  0  0  0  0  0  0
   47.8533  -10.9319  106.6520 C   0  0  0  0  0  0  0  0  0  0  0  0
   47.3710  -13.8716  106.4706 C   0  0  0  0  0  0  0  0  0  0  0  0
   40.7793  -17.6759  113.6654 C   0  0  0  0  0  0  0  0  0  0  0  0
   38.2149  -15.9195  117.0246 C   0  0  0  0  0  0  0  0  0  0  0  0
   41.5920  -17.1875  112.5307 C   0  0  0  0  0  0  0  0  0  0  0  0
   44.4911  -15.2235  109.3294 C   0  0  0  0  0  0  0  0  0  0  0  0
   39.2590  -17.5665  115.5733 C   0  0  0  0  0  0  0  0  0  0  0  0
   48.8029  -11.6547  105.8605 N   0  0  0  0  0  0  0  0  0  0  0  0
   44.6140  -14.7522  110.5921 N   0  0  0  0  0  0  0  0  0  0  0  0
   38.7507  -14.9503  116.4891 O   0  0  0  0  0  0  0  0  0  0  0  0
   42.5179  -17.8677  112.1041 O   0  0  0  0  0  0  0  0  0  0  0  0
   43.5882  -15.9790  109.0129 O   0  0  0  0  0  0  0  0  0  0  0  0
   49.8311  -13.8526  105.6336 O   0  0  0  0  0  0  0  0  0  0  0  0
   48.0413  -13.1870  104.0543 O   0  0  0  0  0  0  0  0  0  0  0  0
   40.1489  -16.4017  114.6587 S   0  0  0  0  0  0  0  0  0  0  0  0
   48.5818  -13.1997  105.3793 S   0  0  1  0  0  0  0  0  0  0  0  0
   45.1252   -9.1310  108.7347 H   0  0  0  0  0  0  0  0  0  0  0  0
   47.1618  -15.5092  109.4280 H   0  0  0  0  0  0  0  0  0  0  0  0
   43.4817   -9.6639  111.1281 H   0  0  0  0  0  0  0  0  0  0  0  0
   44.9243  -11.2505  114.8518 H   0  0  0  0  0  0  0  0  0  0  0  0
   48.2424  -12.0839  108.4404 H   0  0  0  0  0  0  0  0  0  0  0  0
   46.4842  -10.9320  109.7646 H   0  0  0  0  0  0  0  0  0  0  0  0
   45.5388   -8.4574  106.3860 H   0  0  0  0  0  0  0  0  0  0  0  0
   44.3889  -11.6367  109.9303 H   0  0  0  0  0  0  0  0  0  0  0  0
   45.8239  -13.2305  113.6652 H   0  0  0  0  0  0  0  0  0  0  0  0
   47.2831   -9.6017  105.0449 H   0  0  0  0  0  0  0  0  0  0  0  0
   44.0142  -14.0013  106.9072 H   0  0  0  0  0  0  0  0  0  0  0  0
   40.4978  -15.4609  112.3758 H   0  0  0  0  0  0  0  0  0  0  0  0
   43.7477   -9.4667  113.5893 H   0  0  0  0  0  0  0  0  0  0  0  0
   37.9154  -17.9630  117.1047 H   0  0  0  0  0  0  0  0  0  0  0  0
   37.3195  -16.7622  120.1444 H   0  0  0  0  0  0  0  0  0  0  0  0
   36.4486  -17.6553  118.8519 H   0  0  0  0  0  0  0  0  0  0  0  0
   38.2441  -17.5996  118.8519 H   0  0  0  0  0  0  0  0  0  0  0  0
   35.2110  -15.3453  118.6090 H   0  0  0  0  0  0  0  0  0  0  0  0
   35.8729  -14.5621  117.1342 H   0  0  0  0  0  0  0  0  0  0  0  0
   35.5195  -16.3233  117.1342 H   0  0  0  0  0  0  0  0  0  0  0  0
   45.7038  -13.1753  105.2873 H   0  0  0  0  0  0  0  0  0  0  0  0
   48.8528  -14.6937  107.8095 H   0  0  0  0  0  0  0  0  0  0  0  0
   42.2771  -15.9860  110.1856 H   0  0  0  0  0  0  0  0  0  0  0  0
   41.8064  -14.3528  110.8305 H   0  0  0  0  0  0  0  0  0  0  0  0
   43.5991  -14.3395  112.3820 H   0  0  0  0  0  0  0  0  0  0  0  0
   43.9625  -16.0975  112.0400 H   0  0  0  0  0  0  0  0  0  0  0  0
   40.5598  -19.8224  113.6484 H   0  0  0  0  0  0  0  0  0  0  0  0
   46.2176  -13.4962  110.1216 H   0  0  0  0  0  0  0  0  0  0  0  0
   46.2826  -14.3527  111.7457 H   0  0  0  0  0  0  0  0  0  0  0  0
   37.6232  -14.9180  118.8468 H   0  0  0  0  0  0  0  0  0  0  0  0
   49.6703  -11.1753  105.5800 H   0  0  0  0  0  0  0  0  0  0  0  0
  1  6  2  0
  1  7  1  0
  2 19  2  0
  2 26  1  0
  3  8  2  0
  3 14  1  0
  4  9  1  0
  4 14  2  0
  5  6  1  0
  5 27  2  0
  7 10  2  0
  8 25  1  0
  9 25  2  0
 10 27  1  0
 11 18  1  0
 11 26  2  0
 12 20  1  0
 12 31  1  0
 13 22  1  0
 13 33  2  0
 15 30  1  0
 15 33  1  0
 24 16  1  0
 17 24  1  0
 18 28  2  0
 19 28  1  0
 20 21  1  0
 21 35  1  0
 22 29  2  0
 23 25  1  0
 23 35  1  0
 24 30  1  0
 26 32  1  0
 27 34  1  0
 28 42  1  0
 29 31  1  0
 29 41  1  0
 30 36  2  0
 31 37  2  0
 32 35  1  0
 32 38  2  0
 33 41  1  0
 42 34  1  1
 39 42  2  0
 40 42  2  0
  1 43  1  0
  2 44  1  0
  3 45  1  0
  4 46  1  0
  5 47  1  0
  6 48  1  0
  7 49  1  0
  8 50  1  0
  9 51  1  0
 10 52  1  0
 11 53  1  0
 12 54  1  0
 14 55  1  0
 15 56  1  0
 16 57  1  0
 16 58  1  0
 16 59  1  0
 17 60  1  0
 17 61  1  0
 17 62  1  0
 18 63  1  0
 19 64  1  0
 20 65  1  0
 20 66  1  0
 21 67  1  0
 21 68  1  0
 22 69  1  0
 23 70  1  0
 23 71  1  0
 24 72  1  1
 34 73  1  0
M  END
>  <filename_input>  (25) 
7QHG_T3B_docked.sdf

>  <pdb_id>  (25) 
7QHG_T3B

>  <pose_rank>  (25) 
24

>  <num_atoms_heavy>  (25) 
42

>  <num_torsions>  (25) 
11

>  <pose>  (25) 
[44.49107371781525, -15.223490316536937, 109.32940375553066, -0.7919121482262166, -0.07041345902350923, 1.7401265672395334, 2.9316958714028996, -0.6394769937444138, 0.45638744395193287, -0.6820153074790568, 1.4191079177470973, 1.253391602295459, -2.3103521327101313, 2.6935266039362835, -3.015775174044604, -1.9502062051588025, -1.903412670925165]

>  <energy>  (25) 
-384.7277521597213

>  <inter_energy>  (25) 
-493.82118070973434

>  <intra_energy>  (25) 
113.46371285038815

>  <rmsd>  (25) 
7.99673

>  <sdf_rank>  (25) 
0

$$$$

     RDKit          3D

 73 76  0  0  0  0  0  0  0  0999 V2000
   45.5200   -8.9870  103.3660 C   0  0  0  0  0  0  0  0  0  0  0  0
   47.4590  -11.4170  108.0160 C   0  0  0  0  0  0  0  0  0  0  0  0
   42.5260  -15.6060  110.3950 C   0  0  0  0  0  0  0  0  0  0  0  0
   44.0490  -16.8260  111.7770 C   0  0  0  0  0  0  0  0  0  0  0  0
   47.6550   -9.5950  104.2790 C   0  0  0  0  0  0  0  0  0  0  0  0
   46.6030   -8.6990  104.1740 C   0  0  0  0  0  0  0  0  0  0  0  0
   45.4900  -10.1680  102.6520 C   0  0  0  0  0  0  0  0  0  0  0  0
   43.4670  -14.5990  110.2440 C   0  0  0  0  0  0  0  0  0  0  0  0
   44.9920  -15.8230  111.6250 C   0  0  0  0  0  0  0  0  0  0  0  0
   46.5320  -11.0720  102.7500 C   0  0  0  0  0  0  0  0  0  0  0  0
   45.6970  -12.9410  107.4580 C   0  0  0  0  0  0  0  0  0  0  0  0
   45.9530  -10.3250  113.2080 N   0  0  0  0  0  0  0  0  0  0  0  0
   47.1180   -6.2730  114.7190 N   0  0  0  0  0  0  0  0  0  0  0  0
   42.8170  -16.7200  111.1610 C   0  0  0  0  0  0  0  0  0  0  0  0
   45.7020   -4.5300  115.4350 N   0  0  0  0  0  0  0  0  0  0  0  0
   43.0950   -2.2580  116.8250 C   0  0  0  0  0  0  0  0  0  0  0  0
   44.7670   -1.5860  115.0730 C   0  0  0  0  0  0  0  0  0  0  0  0
   46.3890  -13.3350  106.3250 C   0  0  0  0  0  0  0  0  0  0  0  0
   48.1590  -11.8050  106.8890 C   0  0  0  0  0  0  0  0  0  0  0  0
   45.4290  -11.6710  112.9990 C   0  0  0  0  0  0  0  0  0  0  0  0
   44.5490  -11.7650  111.7520 C   0  0  0  0  0  0  0  0  0  0  0  0
   47.0310   -7.5560  114.2060 C   0  0  0  0  0  0  0  0  0  0  0  0
   45.7750  -13.6380  110.6510 C   0  0  0  0  0  0  0  0  0  0  0  0
   44.4570   -2.5650  116.1940 C   0  0  2  0  0  0  0  0  0  0  0  0
   44.7170  -14.6990  110.8510 C   0  0  0  0  0  0  0  0  0  0  0  0
   46.2150  -11.9700  108.3120 C   0  0  0  0  0  0  0  0  0  0  0  0
   47.6160  -10.7950  103.5770 C   0  0  0  0  0  0  0  0  0  0  0  0
   47.6140  -12.7550  106.0410 C   0  0  0  0  0  0  0  0  0  0  0  0
   45.7740   -8.0470  113.9890 C   0  0  0  0  0  0  0  0  0  0  0  0
   44.4590   -3.9870  115.6420 C   0  0  0  0  0  0  0  0  0  0  0  0
   45.1510   -9.3280  113.5920 C   0  0  0  0  0  0  0  0  0  0  0  0
   45.4530  -11.4560  109.4960 C   0  0  0  0  0  0  0  0  0  0  0  0
   45.9160   -5.7850  114.8980 C   0  0  0  0  0  0  0  0  0  0  0  0
   48.6600  -11.7600  103.7490 N   0  0  0  0  0  0  0  0  0  0  0  0
   45.2620  -12.2650  110.5640 N   0  0  0  0  0  0  0  0  0  0  0  0
   43.4140   -4.5830  115.3850 O   0  0  0  0  0  0  0  0  0  0  0  0
   43.9380   -9.4740  113.6890 O   0  0  0  0  0  0  0  0  0  0  0  0
   45.0350  -10.3110  109.4770 O   0  0  0  0  0  0  0  0  0  0  0  0
   49.7830  -13.6000  104.8860 O   0  0  0  0  0  0  0  0  0  0  0  0
   47.6110  -14.0160  103.7680 O   0  0  0  0  0  0  0  0  0  0  0  0
   44.6210   -6.8300  114.4330 S   0  0  0  0  0  0  0  0  0  0  0  0
   48.4590  -13.1690  104.5500 S   0  0  1  0  0  0  0  0  0  0  0  0
   44.6834   -8.2767  103.2918 H   0  0  0  0  0  0  0  0  0  0  0  0
   47.8902  -10.6609  108.6886 H   0  0  0  0  0  0  0  0  0  0  0  0
   41.5454  -15.5186  109.9042 H   0  0  0  0  0  0  0  0  0  0  0  0
   44.2817  -17.7093  112.3898 H   0  0  0  0  0  0  0  0  0  0  0  0
   48.5194   -9.3575  104.9165 H   0  0  0  0  0  0  0  0  0  0  0  0
   46.6304   -7.7541  104.7366 H   0  0  0  0  0  0  0  0  0  0  0  0
   44.6319  -10.3915  102.0010 H   0  0  0  0  0  0  0  0  0  0  0  0
   43.2243  -13.7128  109.6392 H   0  0  0  0  0  0  0  0  0  0  0  0
   45.9692  -15.9156  112.1214 H   0  0  0  0  0  0  0  0  0  0  0  0
   46.5038  -12.0091  102.1747 H   0  0  0  0  0  0  0  0  0  0  0  0
   44.7245  -13.4013  107.6868 H   0  0  0  0  0  0  0  0  0  0  0  0
   46.9552  -10.1412  113.0573 H   0  0  0  0  0  0  0  0  0  0  0  0
   42.0702  -17.5189  111.2794 H   0  0  0  0  0  0  0  0  0  0  0  0
   46.5251   -3.9683  115.6956 H   0  0  0  0  0  0  0  0  0  0  0  0
   43.1857   -2.2785  117.9211 H   0  0  0  0  0  0  0  0  0  0  0  0
   42.7582   -1.2614  116.5035 H   0  0  0  0  0  0  0  0  0  0  0  0
   42.3632   -3.0137  116.5035 H   0  0  0  0  0  0  0  0  0  0  0  0
   45.0726   -0.6208  115.5032 H   0  0  0  0  0  0  0  0  0  0  0  0
   45.5826   -1.9855  114.4524 H   0  0  0  0  0  0  0  0  0  0  0  0
   43.8701   -1.4433  114.4524 H   0  0  0  0  0  0  0  0  0  0  0  0
   45.9695  -14.1015  105.6568 H   0  0  0  0  0  0  0  0  0  0  0  0
   49.1414  -11.3627  106.6672 H   0  0  0  0  0  0  0  0  0  0  0  0
   46.2742  -12.3663  112.8885 H   0  0  0  0  0  0  0  0  0  0  0  0
   44.8074  -11.9286  113.8692 H   0  0  0  0  0  0  0  0  0  0  0  0
   43.7120  -12.4455  111.9674 H   0  0  0  0  0  0  0  0  0  0  0  0
   44.2093  -10.7450  111.5191 H   0  0  0  0  0  0  0  0  0  0  0  0
   47.9292   -8.1509  113.9840 H   0  0  0  0  0  0  0  0  0  0  0  0
   46.4748  -13.6887  111.4982 H   0  0  0  0  0  0  0  0  0  0  0  0
   46.2496  -13.8530  109.6822 H   0  0  0  0  0  0  0  0  0  0  0  0
   45.2296   -2.4657  116.9707 H   0  0  0  0  0  0  0  0  0  0  0  0
   49.5857  -11.5548  103.3467 H   0  0  0  0  0  0  0  0  0  0  0  0
  1  6  2  0
  1  7  1  0
  2 19  2  0
  2 26  1  0
  3  8  2  0
  3 14  1  0
  4  9  1  0
  4 14  2  0
  5  6  1  0
  5 27  2  0
  7 10  2  0
  8 25  1  0
  9 25  2  0
 10 27  1  0
 11 18  1  0
 11 26  2  0
 12 20  1  0
 12 31  1  0
 13 22  1  0
 13 33  2  0
 15 30  1  0
 15 33  1  0
 24 16  1  0
 17 24  1  0
 18 28  2  0
 19 28  1  0
 20 21  1  0
 21 35  1  0
 22 29  2  0
 23 25  1  0
 23 35  1  0
 24 30  1  0
 26 32  1  0
 27 34  1  0
 28 42  1  0
 29 31  1  0
 29 41  1  0
 30 36  2  0
 31 37  2  0
 32 35  1  0
 32 38  2  0
 33 41  1  0
 42 34  1  6
 39 42  2  0
 40 42  2  0
  1 43  1  0
  2 44  1  0
  3 45  1  0
  4 46  1  0
  5 47  1  0
  6 48  1  0
  7 49  1  0
  8 50  1  0
  9 51  1  0
 10 52  1  0
 11 53  1  0
 12 54  1  0
 14 55  1  0
 15 56  1  0
 16 57  1  0
 16 58  1  0
 16 59  1  0
 17 60  1  0
 17 61  1  0
 17 62  1  0
 18 63  1  0
 19 64  1  0
 20 65  1  0
 20 66  1  0
 21 67  1  0
 21 68  1  0
 22 69  1  0
 23 70  1  0
 23 71  1  0
 24 72  1  1
 34 73  1  0
M  END
>  <filename_input>  (26) 
7QHG_T3B_docked.sdf

>  <pdb_id>  (26) 
7QHG_T3B

>  <pose_rank>  (26) 
25

>  <num_atoms_heavy>  (26) 
42

>  <num_torsions>  (26) 
11

>  <pose>  (26) 
[45.453, -11.456, 109.496, 1e-06, 1e-06, 1e-06, 0.0, 0.0, 0.0, 0.0, 0.0, 0.0, 0.0, 0.0, 0.0, 0.0, 0.0]

>  <energy>  (26) 
-1190.3310434850496

>  <inter_energy>  (26) 
-1215.1869705187055

>  <intra_energy>  (26) 
32.15796322945272

>  <rmsd>  (26) 
0.0

>  <sdf_rank>  (26) 
0

$$$$
