
     RDKit          3D

 55 59  0  0  0  0  0  0  0  0999 V2000
   24.2172  -20.8733   38.0105 N   0  0  0  0  0  0  0  0  0  0  0  0
   21.9917  -14.0347   38.5418 N   0  0  0  0  0  0  0  0  0  0  0  0
   22.3887  -14.4684   37.3333 C   0  0  0  0  0  0  0  0  0  0  0  0
   21.9435  -14.8742   39.7235 C   0  0  0  0  0  0  0  0  0  0  0  0
   23.1544  -14.6591   40.5815 C   0  0  0  0  0  0  0  0  0  0  0  0
   24.3015  -15.4074   40.3980 C   0  0  0  0  0  0  0  0  0  0  0  0
   25.4195  -15.2107   41.1866 C   0  0  0  0  0  0  0  0  0  0  0  0
   27.6307  -13.4225   42.7364 C   0  0  0  0  0  0  0  0  0  0  0  0
   24.2162  -13.5571   42.4357 C   0  0  0  0  0  0  0  0  0  0  0  0
   22.0173  -13.7908   36.1555 C   0  0  0  0  0  0  0  0  0  0  0  0
   21.9507  -13.5555   32.4541 C   0  0  1  0  0  0  0  0  0  0  0  0
   21.5230  -14.9156   31.7752 C   0  0  0  0  0  0  0  0  0  0  0  0
   22.4208  -14.2941   34.9137 C   0  0  0  0  0  0  0  0  0  0  0  0
   24.1068  -19.9300   36.8759 C   0  0  0  0  0  0  0  0  0  0  0  0
   23.9551  -18.4746   37.2482 C   0  0  0  0  0  0  0  0  0  0  0  0
   24.5010  -17.3886   35.8747 S   0  0  0  0  0  0  0  0  0  0  0  0
   23.4751  -15.9854   35.9865 C   0  0  0  0  0  0  0  0  0  0  0  0
   23.1726  -15.5522   37.2393 N   0  0  0  0  0  0  0  0  0  0  0  0
   25.3529  -14.3023   42.2269 C   0  0  0  0  0  0  0  0  0  0  0  0
   26.4914  -14.0786   43.0425 N   0  0  0  0  0  0  0  0  0  0  0  0
   28.4614  -13.5215   43.8254 C   0  0  0  0  0  0  0  0  0  0  0  0
   27.7693  -14.2940   44.7405 C   0  0  0  0  0  0  0  0  0  0  0  0
   26.5652  -14.6575   44.2698 N   0  0  0  0  0  0  0  0  0  0  0  0
   23.1199  -13.7381   41.6130 C   0  0  0  0  0  0  0  0  0  0  0  0
   21.3312  -12.6716   35.8798 N   0  0  0  0  0  0  0  0  0  0  0  0
   21.2218  -12.5005   34.5333 N   0  0  0  0  0  0  0  0  0  0  0  0
   21.8985  -13.4722   33.9346 C   0  0  0  0  0  0  0  0  0  0  0  0
   23.3235  -13.7131   31.8143 C   0  0  0  0  0  0  0  0  0  0  0  0
   22.7681  -14.8511   30.9122 C   0  0  0  0  0  0  0  0  0  0  0  0
   23.1625  -15.4181   34.8078 N   0  0  0  0  0  0  0  0  0  0  0  0
   24.1562  -20.3525   38.8970 H   0  0  0  0  0  0  0  0  0  0  0  0
   23.4507  -21.5596   37.9621 H   0  0  0  0  0  0  0  0  0  0  0  0
   25.1213  -21.3642   37.9621 H   0  0  0  0  0  0  0  0  0  0  0  0
   21.7052  -13.0496   38.6341 H   0  0  0  0  0  0  0  0  0  0  0  0
   21.0422  -14.6277   40.3040 H   0  0  0  0  0  0  0  0  0  0  0  0
   21.9197  -15.9271   39.4062 H   0  0  0  0  0  0  0  0  0  0  0  0
   24.3253  -16.1741   39.6096 H   0  0  0  0  0  0  0  0  0  0  0  0
   26.3473  -15.7679   40.9898 H   0  0  0  0  0  0  0  0  0  0  0  0
   27.8524  -12.9053   41.7912 H   0  0  0  0  0  0  0  0  0  0  0  0
   24.1793  -12.8213   43.2525 H   0  0  0  0  0  0  0  0  0  0  0  0
   21.3533  -12.6438   32.3060 H   0  0  0  0  0  0  0  0  0  0  0  0
   21.4929  -15.7742   32.4622 H   0  0  0  0  0  0  0  0  0  0  0  0
   20.5277  -15.0309   31.3214 H   0  0  0  0  0  0  0  0  0  0  0  0
   25.0154  -20.0296   36.2638 H   0  0  0  0  0  0  0  0  0  0  0  0
   23.1815  -20.2029   36.3475 H   0  0  0  0  0  0  0  0  0  0  0  0
   22.8981  -18.2683   37.4724 H   0  0  0  0  0  0  0  0  0  0  0  0
   24.5813  -18.2696   38.1291 H   0  0  0  0  0  0  0  0  0  0  0  0
   29.4623  -13.0810   43.9445 H   0  0  0  0  0  0  0  0  0  0  0  0
   28.1569  -14.5755   45.7307 H   0  0  0  0  0  0  0  0  0  0  0  0
   22.2100  -13.1431   41.7806 H   0  0  0  0  0  0  0  0  0  0  0  0
   20.9420  -12.0317   36.5870 H   0  0  0  0  0  0  0  0  0  0  0  0
   23.6657  -12.8266   31.2601 H   0  0  0  0  0  0  0  0  0  0  0  0
   24.2140  -13.8798   32.4380 H   0  0  0  0  0  0  0  0  0  0  0  0
   23.3722  -15.7703   30.9238 H   0  0  0  0  0  0  0  0  0  0  0  0
   22.6881  -14.7139   29.8238 H   0  0  0  0  0  0  0  0  0  0  0  0
  1 14  1  0
  2  3  1  0
  2  4  1  0
  3 10  2  0
  3 18  1  0
  4  5  1  0
  5  6  2  0
  5 24  1  0
  6  7  1  0
  7 19  2  0
  8 20  1  0
  8 21  2  0
  9 19  1  0
  9 24  2  0
 10 13  1  0
 10 25  1  0
 11 12  1  0
 11 27  1  0
 11 28  1  0
 12 29  1  0
 13 27  1  0
 13 30  2  0
 14 15  1  0
 15 16  1  0
 16 17  1  0
 17 18  2  0
 17 30  1  0
 19 20  1  0
 20 23  1  0
 21 22  1  0
 22 23  2  0
 25 26  1  0
 26 27  2  0
 28 29  1  0
  1 31  1  0
  1 32  1  0
  1 33  1  0
  2 34  1  0
  4 35  1  0
  4 36  1  0
  6 37  1  0
  7 38  1  0
  8 39  1  0
  9 40  1  0
 11 41  1  6
 12 42  1  0
 12 43  1  0
 14 44  1  0
 14 45  1  0
 15 46  1  0
 15 47  1  0
 21 48  1  0
 22 49  1  0
 24 50  1  0
 25 51  1  0
 28 52  1  0
 28 53  1  0
 29 54  1  0
 29 55  1  0
M  CHG  1   1   1
M  END
>  <filename_input>  (1) 
7QHL_D5P_docked.sdf

>  <pdb_id>  (1) 
7QHL_D5P

>  <pose_rank>  (1) 
0

>  <num_atoms_heavy>  (1) 
30

>  <num_torsions>  (1) 
8

>  <pose>  (1) 
[22.38870252367519, -14.468437999766879, 37.333265478919856, 2.7320355558362768, -2.8280206512520305, 4.759837268426239, -0.24104146730933299, -0.06648041248047798, 0.15217763213898786, 0.6207361101197346, -2.0957162499470607, 0.4619698279639785, 1.2858527074949033, 1.5413405623030099]

>  <energy>  (1) 
-2101.123447366235

>  <inter_energy>  (1) 
-2109.481847583966

>  <intra_energy>  (1) 
8.685543080000697

>  <rmsd>  (1) 
0.749294

>  <sdf_rank>  (1) 
0

$$$$

     RDKit          3D

 55 59  0  0  0  0  0  0  0  0999 V2000
   22.4241  -18.6967   32.6981 N   0  0  0  0  0  0  0  0  0  0  0  0
   21.8791  -14.0409   38.5508 N   0  0  0  0  0  0  0  0  0  0  0  0
   22.3209  -14.4502   37.3492 C   0  0  0  0  0  0  0  0  0  0  0  0
   22.7238  -13.4143   39.5494 C   0  0  0  0  0  0  0  0  0  0  0  0
   23.3545  -14.4442   40.4382 C   0  0  0  0  0  0  0  0  0  0  0  0
   24.7280  -14.5706   40.5216 C   0  0  0  0  0  0  0  0  0  0  0  0
   25.3123  -15.5183   41.3407 C   0  0  0  0  0  0  0  0  0  0  0  0
   25.8431  -18.4401   42.5455 C   0  0  0  0  0  0  0  0  0  0  0  0
   23.1306  -16.3045   41.9445 C   0  0  0  0  0  0  0  0  0  0  0  0
   21.9585  -13.7733   36.1681 C   0  0  0  0  0  0  0  0  0  0  0  0
   21.9802  -13.5045   32.4685 C   0  0  1  0  0  0  0  0  0  0  0  0
   21.2056  -14.6668   31.7317 C   0  0  0  0  0  0  0  0  0  0  0  0
   22.4100  -14.2515   34.9330 C   0  0  0  0  0  0  0  0  0  0  0  0
   22.8668  -17.8291   33.8118 C   0  0  0  0  0  0  0  0  0  0  0  0
   23.6602  -18.5142   34.8986 C   0  0  0  0  0  0  0  0  0  0  0  0
   24.5627  -17.2875   35.9207 S   0  0  0  0  0  0  0  0  0  0  0  0
   23.4898  -15.9187   36.0180 C   0  0  0  0  0  0  0  0  0  0  0  0
   23.1413  -15.5075   37.2662 N   0  0  0  0  0  0  0  0  0  0  0  0
   24.4998  -16.4039   42.0244 C   0  0  0  0  0  0  0  0  0  0  0  0
   25.0783  -17.3783   42.8772 N   0  0  0  0  0  0  0  0  0  0  0  0
   26.1141  -19.1234   43.7054 C   0  0  0  0  0  0  0  0  0  0  0  0
   25.4392  -18.4357   44.6977 C   0  0  0  0  0  0  0  0  0  0  0  0
   24.7855  -17.3714   44.2042 N   0  0  0  0  0  0  0  0  0  0  0  0
   22.5618  -15.3255   41.1511 C   0  0  0  0  0  0  0  0  0  0  0  0
   21.2443  -12.6739   35.8845 N   0  0  0  0  0  0  0  0  0  0  0  0
   21.1643  -12.4933   34.5372 N   0  0  0  0  0  0  0  0  0  0  0  0
   21.8871  -13.4373   33.9478 C   0  0  0  0  0  0  0  0  0  0  0  0
   23.2749  -14.0453   31.8769 C   0  0  0  0  0  0  0  0  0  0  0  0
   22.4533  -14.9538   30.9193 C   0  0  0  0  0  0  0  0  0  0  0  0
   23.1898  -15.3504   34.8365 N   0  0  0  0  0  0  0  0  0  0  0  0
   21.9892  -19.5492   33.0790 H   0  0  0  0  0  0  0  0  0  0  0  0
   21.7384  -18.1903   32.1200 H   0  0  0  0  0  0  0  0  0  0  0  0
   23.2366  -18.9547   32.1200 H   0  0  0  0  0  0  0  0  0  0  0  0
   20.8835  -14.1804   38.7752 H   0  0  0  0  0  0  0  0  0  0  0  0
   23.5151  -12.8414   39.0438 H   0  0  0  0  0  0  0  0  0  0  0  0
   22.1033  -12.7487   40.1674 H   0  0  0  0  0  0  0  0  0  0  0  0
   25.3685  -13.9046   39.9248 H   0  0  0  0  0  0  0  0  0  0  0  0
   26.4061  -15.5672   41.4471 H   0  0  0  0  0  0  0  0  0  0  0  0
   26.1851  -18.7080   41.5349 H   0  0  0  0  0  0  0  0  0  0  0  0
   22.4916  -16.9998   42.5086 H   0  0  0  0  0  0  0  0  0  0  0  0
   21.6823  -12.4552   32.3262 H   0  0  0  0  0  0  0  0  0  0  0  0
   20.8948  -15.4915   32.3899 H   0  0  0  0  0  0  0  0  0  0  0  0
   20.2417  -14.4769   31.2369 H   0  0  0  0  0  0  0  0  0  0  0  0
   23.4926  -17.0293   33.3892 H   0  0  0  0  0  0  0  0  0  0  0  0
   21.9469  -17.4670   34.2943 H   0  0  0  0  0  0  0  0  0  0  0  0
   22.9731  -19.0834   35.5419 H   0  0  0  0  0  0  0  0  0  0  0  0
   24.3923  -19.1873   34.4286 H   0  0  0  0  0  0  0  0  0  0  0  0
   26.7348  -20.0242   43.8206 H   0  0  0  0  0  0  0  0  0  0  0  0
   25.4380  -18.7247   45.7590 H   0  0  0  0  0  0  0  0  0  0  0  0
   21.4665  -15.2466   41.0860 H   0  0  0  0  0  0  0  0  0  0  0  0
   20.8167  -12.0536   36.5869 H   0  0  0  0  0  0  0  0  0  0  0  0
   23.8858  -13.2878   31.3642 H   0  0  0  0  0  0  0  0  0  0  0  0
   24.0486  -14.4772   32.5287 H   0  0  0  0  0  0  0  0  0  0  0  0
   22.7616  -16.0096   30.9252 H   0  0  0  0  0  0  0  0  0  0  0  0
   22.4666  -14.7789   29.8334 H   0  0  0  0  0  0  0  0  0  0  0  0
  1 14  1  0
  2  3  1  0
  2  4  1  0
  3 10  2  0
  3 18  1  0
  4  5  1  0
  5  6  2  0
  5 24  1  0
  6  7  1  0
  7 19  2  0
  8 20  1  0
  8 21  2  0
  9 19  1  0
  9 24  2  0
 10 13  1  0
 10 25  1  0
 11 12  1  0
 11 27  1  0
 11 28  1  0
 12 29  1  0
 13 27  1  0
 13 30  2  0
 14 15  1  0
 15 16  1  0
 16 17  1  0
 17 18  2  0
 17 30  1  0
 19 20  1  0
 20 23  1  0
 21 22  1  0
 22 23  2  0
 25 26  1  0
 26 27  2  0
 28 29  1  0
  1 31  1  0
  1 32  1  0
  1 33  1  0
  2 34  1  0
  4 35  1  0
  4 36  1  0
  6 37  1  0
  7 38  1  0
  8 39  1  0
  9 40  1  0
 11 41  1  6
 12 42  1  0
 12 43  1  0
 14 44  1  0
 14 45  1  0
 15 46  1  0
 15 47  1  0
 21 48  1  0
 22 49  1  0
 24 50  1  0
 25 51  1  0
 28 52  1  0
 28 53  1  0
 29 54  1  0
 29 55  1  0
M  CHG  1   1   1
M  END
>  <filename_input>  (2) 
7QHL_D5P_docked.sdf

>  <pdb_id>  (2) 
7QHL_D5P

>  <pose_rank>  (2) 
1

>  <num_atoms_heavy>  (2) 
30

>  <num_torsions>  (2) 
8

>  <pose>  (2) 
[22.320915767922067, -14.45016636012644, 37.349224260258474, 3.464215787810227, -2.1128241369433054, 4.7057780755260445, 0.08853968444747909, 7.826127964515306, -9.413231935484998, 4.2733405272950655, 1.7440930464900943, 1.9479243531253316, -0.6560875780989448, 1.6428098022147193]

>  <energy>  (2) 
-1874.0324724326751

>  <inter_energy>  (2) 
-1900.202612052771

>  <intra_energy>  (2) 
40.01676340274945

>  <rmsd>  (2) 
2.57207

>  <sdf_rank>  (2) 
0

$$$$

     RDKit          3D

 55 59  0  0  0  0  0  0  0  0999 V2000
   23.7614  -18.1653   31.6302 N   0  0  0  0  0  0  0  0  0  0  0  0
   22.1566  -14.1951   38.4860 N   0  0  0  0  0  0  0  0  0  0  0  0
   22.5137  -14.5734   37.2468 C   0  0  0  0  0  0  0  0  0  0  0  0
   21.5780  -15.0927   39.4673 C   0  0  0  0  0  0  0  0  0  0  0  0
   22.6441  -15.8942   40.1525 C   0  0  0  0  0  0  0  0  0  0  0  0
   22.3468  -16.7003   41.2347 C   0  0  0  0  0  0  0  0  0  0  0  0
   23.3272  -17.4411   41.8677 C   0  0  0  0  0  0  0  0  0  0  0  0
   25.8304  -19.4022   42.0933 C   0  0  0  0  0  0  0  0  0  0  0  0
   24.9593  -16.4979   40.3880 C   0  0  0  0  0  0  0  0  0  0  0  0
   22.1130  -13.8377   36.1143 C   0  0  0  0  0  0  0  0  0  0  0  0
   21.9378  -13.4254   32.4320 C   0  0  1  0  0  0  0  0  0  0  0  0
   21.2203  -14.6268   31.7002 C   0  0  0  0  0  0  0  0  0  0  0  0
   22.4750  -14.2839   34.8384 C   0  0  0  0  0  0  0  0  0  0  0  0
   23.8421  -17.4489   32.9222 C   0  0  0  0  0  0  0  0  0  0  0  0
   23.8317  -18.3208   34.1549 C   0  0  0  0  0  0  0  0  0  0  0  0
   24.5570  -17.4351   35.5878 S   0  0  0  0  0  0  0  0  0  0  0  0
   23.5467  -16.0317   35.7972 C   0  0  0  0  0  0  0  0  0  0  0  0
   23.2854  -15.6568   37.0777 N   0  0  0  0  0  0  0  0  0  0  0  0
   24.6396  -17.3055   41.4541 C   0  0  0  0  0  0  0  0  0  0  0  0
   25.6599  -18.0630   42.0840 N   0  0  0  0  0  0  0  0  0  0  0  0
   26.9212  -19.6671   42.8842 C   0  0  0  0  0  0  0  0  0  0  0  0
   27.3342  -18.4347   43.3572 C   0  0  0  0  0  0  0  0  0  0  0  0
   26.5614  -17.4413   42.8886 N   0  0  0  0  0  0  0  0  0  0  0  0
   23.9609  -15.7939   39.7407 C   0  0  0  0  0  0  0  0  0  0  0  0
   21.4283  -12.7018   35.9130 N   0  0  0  0  0  0  0  0  0  0  0  0
   21.2801  -12.4659   34.5801 N   0  0  0  0  0  0  0  0  0  0  0  0
   21.9305  -13.4126   33.9157 C   0  0  0  0  0  0  0  0  0  0  0  0
   23.2346  -13.8335   31.7462 C   0  0  0  0  0  0  0  0  0  0  0  0
   22.4354  -14.7793   30.8061 C   0  0  0  0  0  0  0  0  0  0  0  0
   23.2037  -15.4067   34.6567 N   0  0  0  0  0  0  0  0  0  0  0  0
   23.6477  -19.1742   31.8036 H   0  0  0  0  0  0  0  0  0  0  0  0
   22.9544  -17.8160   31.0938 H   0  0  0  0  0  0  0  0  0  0  0  0
   24.6258  -18.0043   31.0938 H   0  0  0  0  0  0  0  0  0  0  0  0
   22.3022  -13.2113   38.7542 H   0  0  0  0  0  0  0  0  0  0  0  0
   21.0325  -14.5023   40.2182 H   0  0  0  0  0  0  0  0  0  0  0  0
   20.8947  -15.7838   38.9521 H   0  0  0  0  0  0  0  0  0  0  0  0
   21.3104  -16.7535   41.5994 H   0  0  0  0  0  0  0  0  0  0  0  0
   23.0676  -18.1274   42.6872 H   0  0  0  0  0  0  0  0  0  0  0  0
   25.2112  -20.1427   41.5658 H   0  0  0  0  0  0  0  0  0  0  0  0
   26.0033  -16.4125   40.0522 H   0  0  0  0  0  0  0  0  0  0  0  0
   21.5441  -12.4019   32.3456 H   0  0  0  0  0  0  0  0  0  0  0  0
   21.0214  -15.4954   32.3451 H   0  0  0  0  0  0  0  0  0  0  0  0
   20.2152  -14.5057   31.2699 H   0  0  0  0  0  0  0  0  0  0  0  0
   24.7750  -16.8661   32.9281 H   0  0  0  0  0  0  0  0  0  0  0  0
   22.9321  -16.8337   32.9818 H   0  0  0  0  0  0  0  0  0  0  0  0
   22.7939  -18.5988   34.3909 H   0  0  0  0  0  0  0  0  0  0  0  0
   24.4337  -19.2195   33.9553 H   0  0  0  0  0  0  0  0  0  0  0  0
   27.3702  -20.6486   43.0961 H   0  0  0  0  0  0  0  0  0  0  0  0
   28.1893  -18.2867   44.0332 H   0  0  0  0  0  0  0  0  0  0  0  0
   24.2165  -15.1468   38.8887 H   0  0  0  0  0  0  0  0  0  0  0  0
   21.0658  -12.0938   36.6612 H   0  0  0  0  0  0  0  0  0  0  0  0
   23.7467  -13.0104   31.2264 H   0  0  0  0  0  0  0  0  0  0  0  0
   24.0807  -14.2169   32.3354 H   0  0  0  0  0  0  0  0  0  0  0  0
   22.8316  -15.8042   30.7556 H   0  0  0  0  0  0  0  0  0  0  0  0
   22.3670  -14.5702   29.7283 H   0  0  0  0  0  0  0  0  0  0  0  0
  1 14  1  0
  2  3  1  0
  2  4  1  0
  3 10  2  0
  3 18  1  0
  4  5  1  0
  5  6  2  0
  5 24  1  0
  6  7  1  0
  7 19  2  0
  8 20  1  0
  8 21  2  0
  9 19  1  0
  9 24  2  0
 10 13  1  0
 10 25  1  0
 11 12  1  0
 11 27  1  0
 11 28  1  0
 12 29  1  0
 13 27  1  0
 13 30  2  0
 14 15  1  0
 15 16  1  0
 16 17  1  0
 17 18  2  0
 17 30  1  0
 19 20  1  0
 20 23  1  0
 21 22  1  0
 22 23  2  0
 25 26  1  0
 26 27  2  0
 28 29  1  0
  1 31  1  0
  1 32  1  0
  1 33  1  0
  2 34  1  0
  4 35  1  0
  4 36  1  0
  6 37  1  0
  7 38  1  0
  8 39  1  0
  9 40  1  0
 11 41  1  6
 12 42  1  0
 12 43  1  0
 14 44  1  0
 14 45  1  0
 15 46  1  0
 15 47  1  0
 21 48  1  0
 22 49  1  0
 24 50  1  0
 25 51  1  0
 28 52  1  0
 28 53  1  0
 29 54  1  0
 29 55  1  0
M  CHG  1   1   1
M  END
>  <filename_input>  (3) 
7QHL_D5P_docked.sdf

>  <pdb_id>  (3) 
7QHL_D5P

>  <pose_rank>  (3) 
2

>  <num_atoms_heavy>  (3) 
30

>  <num_torsions>  (3) 
8

>  <pose>  (3) 
[22.51373660724799, -14.573353333598103, 37.24677812142525, 0.08973630191940755, -4.158824189394392, 4.545098719079156, -0.03603108014169203, 5.729856316508206, 6.124860691845419, -1.0931253578885487, 4.048918110225258, 2.2710241125323094, -0.24095724886896738, 1.5667621023663851]

>  <energy>  (3) 
-1668.3167987423205

>  <inter_energy>  (3) 
-1779.7595519858914

>  <intra_energy>  (3) 
81.43927878936827

>  <rmsd>  (3) 
2.83831

>  <sdf_rank>  (3) 
0

$$$$

     RDKit          3D

 55 59  0  0  0  0  0  0  0  0999 V2000
   23.1478  -18.8672   33.6178 N   0  0  0  0  0  0  0  0  0  0  0  0
   21.8302  -14.1141   38.4593 N   0  0  0  0  0  0  0  0  0  0  0  0
   22.2489  -14.5336   37.2529 C   0  0  0  0  0  0  0  0  0  0  0  0
   22.7158  -13.5965   39.4845 C   0  0  0  0  0  0  0  0  0  0  0  0
   23.4482  -14.7109   40.1704 C   0  0  0  0  0  0  0  0  0  0  0  0
   24.3395  -14.4553   41.1950 C   0  0  0  0  0  0  0  0  0  0  0  0
   25.0151  -15.4805   41.8298 C   0  0  0  0  0  0  0  0  0  0  0  0
   25.7481  -19.0942   41.5601 C   0  0  0  0  0  0  0  0  0  0  0  0
   23.9786  -17.0493   40.3442 C   0  0  0  0  0  0  0  0  0  0  0  0
   21.9247  -13.8244   36.0798 C   0  0  0  0  0  0  0  0  0  0  0  0
   21.9616  -13.5153   32.3834 C   0  0  1  0  0  0  0  0  0  0  0  0
   20.6890  -14.0003   31.5842 C   0  0  0  0  0  0  0  0  0  0  0  0
   22.3491  -14.3128   34.8390 C   0  0  0  0  0  0  0  0  0  0  0  0
   22.5779  -19.3993   34.8752 C   0  0  0  0  0  0  0  0  0  0  0  0
   23.1916  -18.8669   36.1479 C   0  0  0  0  0  0  0  0  0  0  0  0
   24.3305  -17.4741   35.7912 S   0  0  0  0  0  0  0  0  0  0  0  0
   23.3349  -16.0493   35.9046 C   0  0  0  0  0  0  0  0  0  0  0  0
   23.0095  -15.6336   37.1576 N   0  0  0  0  0  0  0  0  0  0  0  0
   24.8502  -16.7746   41.3718 C   0  0  0  0  0  0  0  0  0  0  0  0
   25.5271  -17.8424   42.0145 N   0  0  0  0  0  0  0  0  0  0  0  0
   26.3906  -19.7816   42.5603 C   0  0  0  0  0  0  0  0  0  0  0  0
   26.4853  -18.8881   43.6117 C   0  0  0  0  0  0  0  0  0  0  0  0
   25.9462  -17.6984   43.2992 N   0  0  0  0  0  0  0  0  0  0  0  0
   23.2807  -16.0167   39.7459 C   0  0  0  0  0  0  0  0  0  0  0  0
   21.2724  -12.6839   35.8090 N   0  0  0  0  0  0  0  0  0  0  0  0
   21.2027  -12.4840   34.4639 N   0  0  0  0  0  0  0  0  0  0  0  0
   21.8722  -13.4597   33.8634 C   0  0  0  0  0  0  0  0  0  0  0  0
   22.7370  -14.6767   31.7765 C   0  0  0  0  0  0  0  0  0  0  0  0
   21.5781  -14.9189   30.7688 C   0  0  0  0  0  0  0  0  0  0  0  0
   23.0669  -15.4519   34.7298 N   0  0  0  0  0  0  0  0  0  0  0  0
   23.8834  -18.1806   33.8378 H   0  0  0  0  0  0  0  0  0  0  0  0
   23.5523  -19.6401   33.0701 H   0  0  0  0  0  0  0  0  0  0  0  0
   22.4046  -18.4106   33.0701 H   0  0  0  0  0  0  0  0  0  0  0  0
   20.8227  -14.1632   38.6675 H   0  0  0  0  0  0  0  0  0  0  0  0
   23.4462  -12.9174   39.0204 H   0  0  0  0  0  0  0  0  0  0  0  0
   22.1131  -13.0594   40.2316 H   0  0  0  0  0  0  0  0  0  0  0  0
   24.5145  -13.4164   41.5114 H   0  0  0  0  0  0  0  0  0  0  0  0
   25.6735  -15.2702   42.6856 H   0  0  0  0  0  0  0  0  0  0  0  0
   25.4661  -19.4897   40.5731 H   0  0  0  0  0  0  0  0  0  0  0  0
   23.8376  -18.0846   40.0003 H   0  0  0  0  0  0  0  0  0  0  0  0
   22.3198  -12.4794   32.2904 H   0  0  0  0  0  0  0  0  0  0  0  0
   19.9411  -14.5230   32.1986 H   0  0  0  0  0  0  0  0  0  0  0  0
   20.0228  -13.2768   31.0915 H   0  0  0  0  0  0  0  0  0  0  0  0
   21.5051  -19.1563   34.8896 H   0  0  0  0  0  0  0  0  0  0  0  0
   22.7901  -20.4786   34.8680 H   0  0  0  0  0  0  0  0  0  0  0  0
   22.3905  -18.5156   36.8148 H   0  0  0  0  0  0  0  0  0  0  0  0
   23.7634  -19.6750   36.6276 H   0  0  0  0  0  0  0  0  0  0  0  0
   26.7524  -20.8201   42.5314 H   0  0  0  0  0  0  0  0  0  0  0  0
   26.9451  -19.1226   44.5831 H   0  0  0  0  0  0  0  0  0  0  0  0
   22.5844  -16.2360   38.9230 H   0  0  0  0  0  0  0  0  0  0  0  0
   20.8796  -12.0490   36.5186 H   0  0  0  0  0  0  0  0  0  0  0  0
   23.6880  -14.3857   31.3065 H   0  0  0  0  0  0  0  0  0  0  0  0
   23.1037  -15.4959   32.4126 H   0  0  0  0  0  0  0  0  0  0  0  0
   21.2294  -15.9612   30.7254 H   0  0  0  0  0  0  0  0  0  0  0  0
   21.7263  -14.7442   29.6929 H   0  0  0  0  0  0  0  0  0  0  0  0
  1 14  1  0
  2  3  1  0
  2  4  1  0
  3 10  2  0
  3 18  1  0
  4  5  1  0
  5  6  2  0
  5 24  1  0
  6  7  1  0
  7 19  2  0
  8 20  1  0
  8 21  2  0
  9 19  1  0
  9 24  2  0
 10 13  1  0
 10 25  1  0
 11 12  1  0
 11 27  1  0
 11 28  1  0
 12 29  1  0
 13 27  1  0
 13 30  2  0
 14 15  1  0
 15 16  1  0
 16 17  1  0
 17 18  2  0
 17 30  1  0
 19 20  1  0
 20 23  1  0
 21 22  1  0
 22 23  2  0
 25 26  1  0
 26 27  2  0
 28 29  1  0
  1 31  1  0
  1 32  1  0
  1 33  1  0
  2 34  1  0
  4 35  1  0
  4 36  1  0
  6 37  1  0
  7 38  1  0
  8 39  1  0
  9 40  1  0
 11 41  1  6
 12 42  1  0
 12 43  1  0
 14 44  1  0
 14 45  1  0
 15 46  1  0
 15 47  1  0
 21 48  1  0
 22 49  1  0
 24 50  1  0
 25 51  1  0
 28 52  1  0
 28 53  1  0
 29 54  1  0
 29 55  1  0
M  CHG  1   1   1
M  END
>  <filename_input>  (4) 
7QHL_D5P_docked.sdf

>  <pdb_id>  (4) 
7QHL_D5P

>  <pose_rank>  (4) 
3

>  <num_atoms_heavy>  (4) 
30

>  <num_torsions>  (4) 
8

>  <pose>  (4) 
[22.248892006645754, -14.53355767589509, 37.252942995032974, 1.450341166921072, -1.3646158813202423, 5.838957597413457, 6.9249887555709515, 7.781027112924991, 9.638900491639152, -0.9463251526489973, 0.06890970412278766, 1.123794283824848, 0.3073886595014939, -1.04066703477408]

>  <energy>  (4) 
-1721.5939337062812

>  <inter_energy>  (4) 
-1784.4918403992292

>  <intra_energy>  (4) 
70.18006920302277

>  <rmsd>  (4) 
2.55615

>  <sdf_rank>  (4) 
0

$$$$

     RDKit          3D

 55 59  0  0  0  0  0  0  0  0999 V2000
   24.8322  -21.5086   35.8430 N   0  0  0  0  0  0  0  0  0  0  0  0
   22.2296  -14.1618   38.7556 N   0  0  0  0  0  0  0  0  0  0  0  0
   22.5667  -14.8896   37.6771 C   0  0  0  0  0  0  0  0  0  0  0  0
   22.0480  -14.7219   40.0810 C   0  0  0  0  0  0  0  0  0  0  0  0
   23.3146  -14.6292   40.8784 C   0  0  0  0  0  0  0  0  0  0  0  0
   23.8873  -13.4057   41.1692 C   0  0  0  0  0  0  0  0  0  0  0  0
   25.0542  -13.3170   41.9048 C   0  0  0  0  0  0  0  0  0  0  0  0
   27.5611  -13.3189   43.4635 C   0  0  0  0  0  0  0  0  0  0  0  0
   25.1502  -15.7098   41.9931 C   0  0  0  0  0  0  0  0  0  0  0  0
   22.3713  -14.3959   36.3723 C   0  0  0  0  0  0  0  0  0  0  0  0
   22.4585  -14.8763   32.6952 C   0  0  1  0  0  0  0  0  0  0  0  0
   21.4015  -14.2442   31.7068 C   0  0  0  0  0  0  0  0  0  0  0  0
   22.7019  -15.1982   35.2746 C   0  0  0  0  0  0  0  0  0  0  0  0
   24.6474  -20.2966   35.0147 C   0  0  0  0  0  0  0  0  0  0  0  0
   23.5571  -19.3553   35.4676 C   0  0  0  0  0  0  0  0  0  0  0  0
   24.0968  -18.3842   36.9269 S   0  0  0  0  0  0  0  0  0  0  0  0
   23.3677  -16.8174   36.7091 C   0  0  0  0  0  0  0  0  0  0  0  0
   23.1217  -16.0996   37.8373 N   0  0  0  0  0  0  0  0  0  0  0  0
   25.6957  -14.4816   42.2843 C   0  0  0  0  0  0  0  0  0  0  0  0
   26.8894  -14.4133   43.0473 N   0  0  0  0  0  0  0  0  0  0  0  0
   28.6869  -13.7575   44.1163 C   0  0  0  0  0  0  0  0  0  0  0  0
   28.6505  -15.1364   44.0157 C   0  0  0  0  0  0  0  0  0  0  0  0
   27.5624  -15.5547   43.3489 N   0  0  0  0  0  0  0  0  0  0  0  0
   23.9617  -15.7803   41.2904 C   0  0  0  0  0  0  0  0  0  0  0  0
   21.9297  -13.2421   35.8496 N   0  0  0  0  0  0  0  0  0  0  0  0
   21.8949  -13.3185   34.4905 N   0  0  0  0  0  0  0  0  0  0  0  0
   22.3817  -14.4985   34.1279 C   0  0  0  0  0  0  0  0  0  0  0  0
   21.9364  -16.2539   32.3101 C   0  0  0  0  0  0  0  0  0  0  0  0
   21.1553  -15.6219   31.1236 C   0  0  0  0  0  0  0  0  0  0  0  0
   23.2079  -16.4413   35.4277 N   0  0  0  0  0  0  0  0  0  0  0  0
   24.7932  -21.2524   36.8398 H   0  0  0  0  0  0  0  0  0  0  0  0
   24.0847  -22.1853   35.6328 H   0  0  0  0  0  0  0  0  0  0  0  0
   25.7474  -21.9318   35.6328 H   0  0  0  0  0  0  0  0  0  0  0  0
   22.0923  -13.1483   38.6338 H   0  0  0  0  0  0  0  0  0  0  0  0
   21.2535  -14.1667   40.6010 H   0  0  0  0  0  0  0  0  0  0  0  0
   21.7726  -15.7821   39.9802 H   0  0  0  0  0  0  0  0  0  0  0  0
   23.4056  -12.4849   40.8084 H   0  0  0  0  0  0  0  0  0  0  0  0
   25.4657  -12.3358   42.1839 H   0  0  0  0  0  0  0  0  0  0  0  0
   27.2626  -12.2716   43.3088 H   0  0  0  0  0  0  0  0  0  0  0  0
   25.6565  -16.6310   42.3175 H   0  0  0  0  0  0  0  0  0  0  0  0
   23.5261  -14.6258   32.6081 H   0  0  0  0  0  0  0  0  0  0  0  0
   20.5263  -13.8005   32.2040 H   0  0  0  0  0  0  0  0  0  0  0  0
   21.6714  -13.3974   31.0587 H   0  0  0  0  0  0  0  0  0  0  0  0
   25.5961  -19.7398   35.0138 H   0  0  0  0  0  0  0  0  0  0  0  0
   24.3407  -20.6557   34.0212 H   0  0  0  0  0  0  0  0  0  0  0  0
   23.3124  -18.6657   34.6463 H   0  0  0  0  0  0  0  0  0  0  0  0
   22.6737  -19.9484   35.7467 H   0  0  0  0  0  0  0  0  0  0  0  0
   29.4530  -13.1438   44.6127 H   0  0  0  0  0  0  0  0  0  0  0  0
   29.4175  -15.8071   44.4303 H   0  0  0  0  0  0  0  0  0  0  0  0
   23.5257  -16.7627   41.0562 H   0  0  0  0  0  0  0  0  0  0  0  0
   21.6555  -12.4151   36.3989 H   0  0  0  0  0  0  0  0  0  0  0  0
   22.7203  -16.9629   32.0056 H   0  0  0  0  0  0  0  0  0  0  0  0
   21.4165  -16.8804   33.0498 H   0  0  0  0  0  0  0  0  0  0  0  0
   20.0944  -15.9091   31.0789 H   0  0  0  0  0  0  0  0  0  0  0  0
   21.4366  -15.8483   30.0845 H   0  0  0  0  0  0  0  0  0  0  0  0
  1 14  1  0
  2  3  1  0
  2  4  1  0
  3 10  2  0
  3 18  1  0
  4  5  1  0
  5  6  2  0
  5 24  1  0
  6  7  1  0
  7 19  2  0
  8 20  1  0
  8 21  2  0
  9 19  1  0
  9 24  2  0
 10 13  1  0
 10 25  1  0
 11 12  1  0
 11 27  1  0
 11 28  1  0
 12 29  1  0
 13 27  1  0
 13 30  2  0
 14 15  1  0
 15 16  1  0
 16 17  1  0
 17 18  2  0
 17 30  1  0
 19 20  1  0
 20 23  1  0
 21 22  1  0
 22 23  2  0
 25 26  1  0
 26 27  2  0
 28 29  1  0
  1 31  1  0
  1 32  1  0
  1 33  1  0
  2 34  1  0
  4 35  1  0
  4 36  1  0
  6 37  1  0
  7 38  1  0
  8 39  1  0
  9 40  1  0
 11 41  1  6
 12 42  1  0
 12 43  1  0
 14 44  1  0
 14 45  1  0
 15 46  1  0
 15 47  1  0
 21 48  1  0
 22 49  1  0
 24 50  1  0
 25 51  1  0
 28 52  1  0
 28 53  1  0
 29 54  1  0
 29 55  1  0
M  CHG  1   1   1
M  END
>  <filename_input>  (5) 
7QHL_D5P_docked.sdf

>  <pdb_id>  (5) 
7QHL_D5P

>  <pose_rank>  (5) 
4

>  <num_atoms_heavy>  (5) 
30

>  <num_torsions>  (5) 
8

>  <pose>  (5) 
[22.566749268620335, -14.889557561316817, 37.67712304334695, -0.23353966993066438, -0.0015352891398579098, -0.2868663602849887, 1.4635106346268192, 6.273522687553823, 6.339560647749839, -3.0318339770953653, 2.8878550267614633, -3.8103502818446473, 1.2345042183730888, 0.1290061664549359]

>  <energy>  (5) 
-1181.9420644630984

>  <inter_energy>  (5) 
-1189.7091638329373

>  <intra_energy>  (5) 
6.753475390928038

>  <rmsd>  (5) 
1.37212

>  <sdf_rank>  (5) 
0

$$$$

     RDKit          3D

 55 59  0  0  0  0  0  0  0  0999 V2000
   25.3136  -20.4904   36.1364 N   0  0  0  0  0  0  0  0  0  0  0  0
   21.9697  -14.0333   38.6529 N   0  0  0  0  0  0  0  0  0  0  0  0
   22.3787  -14.4877   37.4560 C   0  0  0  0  0  0  0  0  0  0  0  0
   22.8598  -13.4609   39.6446 C   0  0  0  0  0  0  0  0  0  0  0  0
   23.6042  -14.5361   40.3785 C   0  0  0  0  0  0  0  0  0  0  0  0
   24.2476  -14.2715   41.5724 C   0  0  0  0  0  0  0  0  0  0  0  0
   24.9337  -15.2607   42.2516 C   0  0  0  0  0  0  0  0  0  0  0  0
   25.7520  -18.8692   42.0933 C   0  0  0  0  0  0  0  0  0  0  0  0
   24.4189  -16.7954   40.4846 C   0  0  0  0  0  0  0  0  0  0  0  0
   22.0004  -13.8436   36.2617 C   0  0  0  0  0  0  0  0  0  0  0  0
   21.9441  -13.6940   32.5557 C   0  0  1  0  0  0  0  0  0  0  0  0
   20.9198  -14.6665   31.8494 C   0  0  0  0  0  0  0  0  0  0  0  0
   22.4172  -14.3681   35.0332 C   0  0  0  0  0  0  0  0  0  0  0  0
   24.4127  -19.9327   37.1691 C   0  0  0  0  0  0  0  0  0  0  0  0
   23.5344  -18.7889   36.7218 C   0  0  0  0  0  0  0  0  0  0  0  0
   24.5460  -17.4038   36.0719 S   0  0  0  0  0  0  0  0  0  0  0  0
   23.4959  -16.0162   36.1481 C   0  0  0  0  0  0  0  0  0  0  0  0
   23.1813  -15.5598   37.3895 N   0  0  0  0  0  0  0  0  0  0  0  0
   25.0399  -16.5148   41.6790 C   0  0  0  0  0  0  0  0  0  0  0  0
   25.7318  -17.5466   42.3631 N   0  0  0  0  0  0  0  0  0  0  0  0
   26.5117  -19.4705   43.0666 C   0  0  0  0  0  0  0  0  0  0  0  0
   26.8830  -18.4477   43.9205 C   0  0  0  0  0  0  0  0  0  0  0  0
   26.3996  -17.2631   43.5122 N   0  0  0  0  0  0  0  0  0  0  0  0
   23.7035  -15.8052   39.8373 C   0  0  0  0  0  0  0  0  0  0  0  0
   21.2964  -12.7428   35.9581 N   0  0  0  0  0  0  0  0  0  0  0  0
   21.1893  -12.6044   34.6077 N   0  0  0  0  0  0  0  0  0  0  0  0
   21.8847  -13.5779   34.0337 C   0  0  0  0  0  0  0  0  0  0  0  0
   23.0773  -14.5242   31.9681 C   0  0  0  0  0  0  0  0  0  0  0  0
   22.0619  -15.2433   31.0358 C   0  0  0  0  0  0  0  0  0  0  0  0
   23.1783  -15.4814   34.9556 N   0  0  0  0  0  0  0  0  0  0  0  0
   26.0989  -20.9766   36.5922 H   0  0  0  0  0  0  0  0  0  0  0  0
   24.7918  -21.1565   35.5491 H   0  0  0  0  0  0  0  0  0  0  0  0
   25.6771  -19.7264   35.5491 H   0  0  0  0  0  0  0  0  0  0  0  0
   20.9667  -14.0951   38.8788 H   0  0  0  0  0  0  0  0  0  0  0  0
   23.5824  -12.8011   39.1422 H   0  0  0  0  0  0  0  0  0  0  0  0
   22.2593  -12.8914   40.3693 H   0  0  0  0  0  0  0  0  0  0  0  0
   24.2132  -13.2545   41.9901 H   0  0  0  0  0  0  0  0  0  0  0  0
   25.3878  -15.0536   43.2319 H   0  0  0  0  0  0  0  0  0  0  0  0
   25.2533  -19.3714   41.2513 H   0  0  0  0  0  0  0  0  0  0  0  0
   24.4909  -17.8019   40.0468 H   0  0  0  0  0  0  0  0  0  0  0  0
   21.8883  -12.6077   32.3922 H   0  0  0  0  0  0  0  0  0  0  0  0
   20.4387  -15.3867   32.5276 H   0  0  0  0  0  0  0  0  0  0  0  0
   20.0179  -14.2745   31.3565 H   0  0  0  0  0  0  0  0  0  0  0  0
   23.7584  -20.7440   37.5209 H   0  0  0  0  0  0  0  0  0  0  0  0
   25.0693  -19.5200   37.9492 H   0  0  0  0  0  0  0  0  0  0  0  0
   22.8572  -19.1427   35.9305 H   0  0  0  0  0  0  0  0  0  0  0  0
   22.9586  -18.4283   37.5869 H   0  0  0  0  0  0  0  0  0  0  0  0
   26.7695  -20.5366   43.1493 H   0  0  0  0  0  0  0  0  0  0  0  0
   27.4978  -18.5872   44.8219 H   0  0  0  0  0  0  0  0  0  0  0  0
   23.2077  -16.0291   38.8813 H   0  0  0  0  0  0  0  0  0  0  0  0
   20.8937  -12.0938   36.6491 H   0  0  0  0  0  0  0  0  0  0  0  0
   23.8373  -13.9341   31.4350 H   0  0  0  0  0  0  0  0  0  0  0  0
   23.7411  -15.1060   32.6244 H   0  0  0  0  0  0  0  0  0  0  0  0
   22.1248  -16.3411   31.0631 H   0  0  0  0  0  0  0  0  0  0  0  0
   22.1023  -15.0977   29.9462 H   0  0  0  0  0  0  0  0  0  0  0  0
  1 14  1  0
  2  3  1  0
  2  4  1  0
  3 10  2  0
  3 18  1  0
  4  5  1  0
  5  6  2  0
  5 24  1  0
  6  7  1  0
  7 19  2  0
  8 20  1  0
  8 21  2  0
  9 19  1  0
  9 24  2  0
 10 13  1  0
 10 25  1  0
 11 12  1  0
 11 27  1  0
 11 28  1  0
 12 29  1  0
 13 27  1  0
 13 30  2  0
 14 15  1  0
 15 16  1  0
 16 17  1  0
 17 18  2  0
 17 30  1  0
 19 20  1  0
 20 23  1  0
 21 22  1  0
 22 23  2  0
 25 26  1  0
 26 27  2  0
 28 29  1  0
  1 31  1  0
  1 32  1  0
  1 33  1  0
  2 34  1  0
  4 35  1  0
  4 36  1  0
  6 37  1  0
  7 38  1  0
  8 39  1  0
  9 40  1  0
 11 41  1  6
 12 42  1  0
 12 43  1  0
 14 44  1  0
 14 45  1  0
 15 46  1  0
 15 47  1  0
 21 48  1  0
 22 49  1  0
 24 50  1  0
 25 51  1  0
 28 52  1  0
 28 53  1  0
 29 54  1  0
 29 55  1  0
M  CHG  1   1   1
M  END
>  <filename_input>  (6) 
7QHL_D5P_docked.sdf

>  <pdb_id>  (6) 
7QHL_D5P

>  <pose_rank>  (6) 
5

>  <num_atoms_heavy>  (6) 
30

>  <num_torsions>  (6) 
8

>  <pose>  (6) 
[22.378716990603834, -14.487706630810163, 37.4559609830056, 4.073557487323956, -2.5656089515152267, 3.8669202503831945, 0.3010774069570904, -4.807427112888699, -2.948304555794172, -0.6745899889275824, -0.43874151363965447, 1.0000576577223461, 2.1994034318797966, -8.485316143419134]

>  <energy>  (6) 
-1739.3930666625233

>  <inter_energy>  (6) 
-1838.9360209292229

>  <intra_energy>  (6) 
78.3251720650978

>  <rmsd>  (6) 
2.23138

>  <sdf_rank>  (6) 
0

$$$$

     RDKit          3D

 55 59  0  0  0  0  0  0  0  0999 V2000
   24.3931  -19.2280   32.5517 N   0  0  0  0  0  0  0  0  0  0  0  0
   21.8071  -14.1449   38.5272 N   0  0  0  0  0  0  0  0  0  0  0  0
   22.2785  -14.5479   37.3348 C   0  0  0  0  0  0  0  0  0  0  0  0
   21.5945  -15.0350   39.6523 C   0  0  0  0  0  0  0  0  0  0  0  0
   22.7358  -14.9530   40.6216 C   0  0  0  0  0  0  0  0  0  0  0  0
   22.8574  -15.8572   41.6594 C   0  0  0  0  0  0  0  0  0  0  0  0
   23.9088  -15.7847   42.5538 C   0  0  0  0  0  0  0  0  0  0  0  0
   26.6834  -15.6415   43.8196 C   0  0  0  0  0  0  0  0  0  0  0  0
   24.6952  -13.8192   41.4309 C   0  0  0  0  0  0  0  0  0  0  0  0
   21.9516  -13.8602   36.1496 C   0  0  0  0  0  0  0  0  0  0  0  0
   22.0734  -13.5644   32.4540 C   0  0  1  0  0  0  0  0  0  0  0  0
   21.6052  -14.8824   31.7207 C   0  0  0  0  0  0  0  0  0  0  0  0
   22.4330  -14.3321   34.9233 C   0  0  0  0  0  0  0  0  0  0  0  0
   23.7599  -18.2224   33.4330 C   0  0  0  0  0  0  0  0  0  0  0  0
   23.6586  -18.6021   34.8910 C   0  0  0  0  0  0  0  0  0  0  0  0
   24.5410  -17.3880   35.9451 S   0  0  0  0  0  0  0  0  0  0  0  0
   23.4739  -16.0136   36.0242 C   0  0  0  0  0  0  0  0  0  0  0  0
   23.0946  -15.6095   37.2657 N   0  0  0  0  0  0  0  0  0  0  0  0
   24.8060  -14.7380   42.4480 C   0  0  0  0  0  0  0  0  0  0  0  0
   25.8971  -14.6498   43.3498 N   0  0  0  0  0  0  0  0  0  0  0  0
   27.5621  -15.0754   44.7103 C   0  0  0  0  0  0  0  0  0  0  0  0
   27.2160  -13.7373   44.7607 C   0  0  0  0  0  0  0  0  0  0  0  0
   26.1860  -13.4622   43.9439 N   0  0  0  0  0  0  0  0  0  0  0  0
   23.6600  -13.9287   40.5211 C   0  0  0  0  0  0  0  0  0  0  0  0
   21.2516  -12.7545   35.8553 N   0  0  0  0  0  0  0  0  0  0  0  0
   21.2085  -12.5636   34.5078 N   0  0  0  0  0  0  0  0  0  0  0  0
   21.9413  -13.5075   33.9307 C   0  0  0  0  0  0  0  0  0  0  0  0
   23.4688  -13.7924   31.8887 C   0  0  0  0  0  0  0  0  0  0  0  0
   22.8994  -14.8765   30.9308 C   0  0  0  0  0  0  0  0  0  0  0  0
   23.2087  -15.4348   34.8394 N   0  0  0  0  0  0  0  0  0  0  0  0
   24.8483  -19.9509   33.1272 H   0  0  0  0  0  0  0  0  0  0  0  0
   23.6743  -19.6648   31.9572 H   0  0  0  0  0  0  0  0  0  0  0  0
   25.0976  -18.7685   31.9572 H   0  0  0  0  0  0  0  0  0  0  0  0
   21.5842  -13.1467   38.6489 H   0  0  0  0  0  0  0  0  0  0  0  0
   20.6644  -14.7505   40.1660 H   0  0  0  0  0  0  0  0  0  0  0  0
   21.5254  -16.0665   39.2767 H   0  0  0  0  0  0  0  0  0  0  0  0
   22.1034  -16.6495   41.7761 H   0  0  0  0  0  0  0  0  0  0  0  0
   24.0299  -16.5475   43.3370 H   0  0  0  0  0  0  0  0  0  0  0  0
   26.6301  -16.7043   43.5411 H   0  0  0  0  0  0  0  0  0  0  0  0
   25.4259  -13.0018   41.3417 H   0  0  0  0  0  0  0  0  0  0  0  0
   21.5408  -12.6154   32.2937 H   0  0  0  0  0  0  0  0  0  0  0  0
   21.4846  -15.7509   32.3849 H   0  0  0  0  0  0  0  0  0  0  0  0
   20.6324  -14.9280   31.2092 H   0  0  0  0  0  0  0  0  0  0  0  0
   24.3478  -17.2952   33.3651 H   0  0  0  0  0  0  0  0  0  0  0  0
   22.7242  -18.1204   33.0766 H   0  0  0  0  0  0  0  0  0  0  0  0
   22.5985  -18.6297   35.1833 H   0  0  0  0  0  0  0  0  0  0  0  0
   24.1209  -19.5905   35.0301 H   0  0  0  0  0  0  0  0  0  0  0  0
   28.3682  -15.5782   45.2646 H   0  0  0  0  0  0  0  0  0  0  0  0
   27.7214  -12.9911   45.3913 H   0  0  0  0  0  0  0  0  0  0  0  0
   23.5703  -13.1931   39.7081 H   0  0  0  0  0  0  0  0  0  0  0  0
   20.8090  -12.1368   36.5507 H   0  0  0  0  0  0  0  0  0  0  0  0
   23.8944  -12.9176   31.3754 H   0  0  0  0  0  0  0  0  0  0  0  0
   24.3105  -14.0252   32.5575 H   0  0  0  0  0  0  0  0  0  0  0  0
   23.4460  -15.8308   30.9549 H   0  0  0  0  0  0  0  0  0  0  0  0
   22.8904  -14.7132   29.8430 H   0  0  0  0  0  0  0  0  0  0  0  0
  1 14  1  0
  2  3  1  0
  2  4  1  0
  3 10  2  0
  3 18  1  0
  4  5  1  0
  5  6  2  0
  5 24  1  0
  6  7  1  0
  7 19  2  0
  8 20  1  0
  8 21  2  0
  9 19  1  0
  9 24  2  0
 10 13  1  0
 10 25  1  0
 11 12  1  0
 11 27  1  0
 11 28  1  0
 12 29  1  0
 13 27  1  0
 13 30  2  0
 14 15  1  0
 15 16  1  0
 16 17  1  0
 17 18  2  0
 17 30  1  0
 19 20  1  0
 20 23  1  0
 21 22  1  0
 22 23  2  0
 25 26  1  0
 26 27  2  0
 28 29  1  0
  1 31  1  0
  1 32  1  0
  1 33  1  0
  2 34  1  0
  4 35  1  0
  4 36  1  0
  6 37  1  0
  7 38  1  0
  8 39  1  0
  9 40  1  0
 11 41  1  6
 12 42  1  0
 12 43  1  0
 14 44  1  0
 14 45  1  0
 15 46  1  0
 15 47  1  0
 21 48  1  0
 22 49  1  0
 24 50  1  0
 25 51  1  0
 28 52  1  0
 28 53  1  0
 29 54  1  0
 29 55  1  0
M  CHG  1   1   1
M  END
>  <filename_input>  (7) 
7QHL_D5P_docked.sdf

>  <pdb_id>  (7) 
7QHL_D5P

>  <pose_rank>  (7) 
6

>  <num_atoms_heavy>  (7) 
30

>  <num_torsions>  (7) 
8

>  <pose>  (7) 
[22.278457555207314, -14.54791351489886, 37.33479183673315, 2.8591356287309817, 0.24796476210572588, 5.514617983726524, -0.15452967735397194, 6.105464467471531, 6.436332107411889, -0.779329445940857, 3.627514757975464, 1.947421589435186, 0.057119088934474184, 0.9107429029830305]

>  <energy>  (7) 
-1863.9446758600272

>  <inter_energy>  (7) 
-1888.1799814260237

>  <intra_energy>  (7) 
16.303816416440682

>  <rmsd>  (7) 
1.63237

>  <sdf_rank>  (7) 
0

$$$$

     RDKit          3D

 55 59  0  0  0  0  0  0  0  0999 V2000
   24.0096  -21.3053   35.3186 N   0  0  0  0  0  0  0  0  0  0  0  0
   21.7122  -14.3494   38.7521 N   0  0  0  0  0  0  0  0  0  0  0  0
   22.2023  -14.6942   37.5491 C   0  0  0  0  0  0  0  0  0  0  0  0
   22.5393  -13.9552   39.8764 C   0  0  0  0  0  0  0  0  0  0  0  0
   23.3238  -15.1219   40.3977 C   0  0  0  0  0  0  0  0  0  0  0  0
   24.5713  -14.9470   40.9656 C   0  0  0  0  0  0  0  0  0  0  0  0
   25.2963  -16.0204   41.4480 C   0  0  0  0  0  0  0  0  0  0  0  0
   25.7870  -18.7365   43.0602 C   0  0  0  0  0  0  0  0  0  0  0  0
   23.5579  -17.4944   40.7078 C   0  0  0  0  0  0  0  0  0  0  0  0
   21.8341  -13.9954   36.3826 C   0  0  0  0  0  0  0  0  0  0  0  0
   21.9291  -13.5973   32.6958 C   0  0  1  0  0  0  0  0  0  0  0  0
   21.4133  -14.8711   31.9179 C   0  0  0  0  0  0  0  0  0  0  0  0
   22.3380  -14.4074   35.1438 C   0  0  0  0  0  0  0  0  0  0  0  0
   24.4692  -19.9233   35.0580 C   0  0  0  0  0  0  0  0  0  0  0  0
   23.6052  -18.8274   35.6347 C   0  0  0  0  0  0  0  0  0  0  0  0
   24.6175  -17.3651   36.0831 S   0  0  0  0  0  0  0  0  0  0  0  0
   23.4749  -16.0556   36.1992 C   0  0  0  0  0  0  0  0  0  0  0  0
   23.0767  -15.7059   37.4513 N   0  0  0  0  0  0  0  0  0  0  0  0
   24.7913  -17.2970   41.2830 C   0  0  0  0  0  0  0  0  0  0  0  0
   25.5148  -18.4117   41.7785 N   0  0  0  0  0  0  0  0  0  0  0  0
   26.5653  -19.8677   43.0357 C   0  0  0  0  0  0  0  0  0  0  0  0
   26.7601  -20.1450   41.6948 C   0  0  0  0  0  0  0  0  0  0  0  0
   26.1355  -19.2522   40.9097 N   0  0  0  0  0  0  0  0  0  0  0  0
   22.8280  -16.4066   40.2661 C   0  0  0  0  0  0  0  0  0  0  0  0
   21.0721  -12.9236   36.1181 N   0  0  0  0  0  0  0  0  0  0  0  0
   21.0148  -12.7005   34.7761 N   0  0  0  0  0  0  0  0  0  0  0  0
   21.7979  -13.5863   34.1737 C   0  0  0  0  0  0  0  0  0  0  0  0
   23.3156  -13.8571   32.1225 C   0  0  0  0  0  0  0  0  0  0  0  0
   22.7075  -14.8859   31.1281 C   0  0  0  0  0  0  0  0  0  0  0  0
   23.1744  -15.4621   35.0303 N   0  0  0  0  0  0  0  0  0  0  0  0
   23.9569  -21.4636   36.3350 H   0  0  0  0  0  0  0  0  0  0  0  0
   23.0779  -21.4417   34.9012 H   0  0  0  0  0  0  0  0  0  0  0  0
   24.6740  -21.9725   34.9012 H   0  0  0  0  0  0  0  0  0  0  0  0
   20.6907  -14.3662   38.8832 H   0  0  0  0  0  0  0  0  0  0  0  0
   23.2363  -13.1682   39.5524 H   0  0  0  0  0  0  0  0  0  0  0  0
   21.8866  -13.5829   40.6798 H   0  0  0  0  0  0  0  0  0  0  0  0
   24.9954  -13.9344   41.0352 H   0  0  0  0  0  0  0  0  0  0  0  0
   26.2595  -15.8617   41.9550 H   0  0  0  0  0  0  0  0  0  0  0  0
   25.4488  -18.1961   43.9566 H   0  0  0  0  0  0  0  0  0  0  0  0
   23.1544  -18.5120   40.5999 H   0  0  0  0  0  0  0  0  0  0  0  0
   21.4320  -12.6244   32.5685 H   0  0  0  0  0  0  0  0  0  0  0  0
   21.2601  -15.7569   32.5518 H   0  0  0  0  0  0  0  0  0  0  0  0
   20.4399  -14.8632   31.4056 H   0  0  0  0  0  0  0  0  0  0  0  0
   25.4784  -19.8168   35.4823 H   0  0  0  0  0  0  0  0  0  0  0  0
   24.4289  -19.7943   33.9664 H   0  0  0  0  0  0  0  0  0  0  0  0
   22.8539  -18.5303   34.8882 H   0  0  0  0  0  0  0  0  0  0  0  0
   23.1144  -19.2074   36.5429 H   0  0  0  0  0  0  0  0  0  0  0  0
   26.9509  -20.4320   43.8976 H   0  0  0  0  0  0  0  0  0  0  0  0
   27.3530  -20.9916   41.3182 H   0  0  0  0  0  0  0  0  0  0  0  0
   21.8419  -16.5643   39.8048 H   0  0  0  0  0  0  0  0  0  0  0  0
   20.5973  -12.3502   36.8299 H   0  0  0  0  0  0  0  0  0  0  0  0
   23.7737  -12.9814   31.6393 H   0  0  0  0  0  0  0  0  0  0  0  0
   24.1477  -14.1436   32.7825 H   0  0  0  0  0  0  0  0  0  0  0  0
   23.2185  -15.8600   31.1191 H   0  0  0  0  0  0  0  0  0  0  0  0
   22.7054  -14.6851   30.0465 H   0  0  0  0  0  0  0  0  0  0  0  0
  1 14  1  0
  2  3  1  0
  2  4  1  0
  3 10  2  0
  3 18  1  0
  4  5  1  0
  5  6  2  0
  5 24  1  0
  6  7  1  0
  7 19  2  0
  8 20  1  0
  8 21  2  0
  9 19  1  0
  9 24  2  0
 10 13  1  0
 10 25  1  0
 11 12  1  0
 11 27  1  0
 11 28  1  0
 12 29  1  0
 13 27  1  0
 13 30  2  0
 14 15  1  0
 15 16  1  0
 16 17  1  0
 17 18  2  0
 17 30  1  0
 19 20  1  0
 20 23  1  0
 21 22  1  0
 22 23  2  0
 25 26  1  0
 26 27  2  0
 28 29  1  0
  1 31  1  0
  1 32  1  0
  1 33  1  0
  2 34  1  0
  4 35  1  0
  4 36  1  0
  6 37  1  0
  7 38  1  0
  8 39  1  0
  9 40  1  0
 11 41  1  6
 12 42  1  0
 12 43  1  0
 14 44  1  0
 14 45  1  0
 15 46  1  0
 15 47  1  0
 21 48  1  0
 22 49  1  0
 24 50  1  0
 25 51  1  0
 28 52  1  0
 28 53  1  0
 29 54  1  0
 29 55  1  0
M  CHG  1   1   1
M  END
>  <filename_input>  (8) 
7QHL_D5P_docked.sdf

>  <pdb_id>  (8) 
7QHL_D5P

>  <pose_rank>  (8) 
7

>  <num_atoms_heavy>  (8) 
30

>  <num_torsions>  (8) 
8

>  <pose>  (8) 
[22.20228922688168, -14.69415410460149, 37.54905836197968, 5.3706322753174485, 0.9703515898974442, 3.102715577593742, -0.06083688234436051, 1.3303757226011768, 3.497920961954262, 4.779334013271132, -2.210504263502265, 1.5480510136892764, 1.5289029913681027, 1.3945988644319776]

>  <energy>  (8) 
-1596.568016685118

>  <inter_energy>  (8) 
-1657.3838893087518

>  <intra_energy>  (8) 
45.552111454828

>  <rmsd>  (8) 
2.69194

>  <sdf_rank>  (8) 
0

$$$$

     RDKit          3D

 55 59  0  0  0  0  0  0  0  0999 V2000
   24.3991  -20.1766   33.2962 N   0  0  0  0  0  0  0  0  0  0  0  0
   21.8239  -13.9287   38.6333 N   0  0  0  0  0  0  0  0  0  0  0  0
   22.2359  -14.4341   37.4581 C   0  0  0  0  0  0  0  0  0  0  0  0
   21.5870  -14.7321   39.8174 C   0  0  0  0  0  0  0  0  0  0  0  0
   22.7635  -15.6153   40.1080 C   0  0  0  0  0  0  0  0  0  0  0  0
   22.6805  -16.9867   39.9605 C   0  0  0  0  0  0  0  0  0  0  0  0
   23.7636  -17.8032   40.2267 C   0  0  0  0  0  0  0  0  0  0  0  0
   26.4425  -19.1806   40.3649 C   0  0  0  0  0  0  0  0  0  0  0  0
   25.0210  -15.8750   40.8928 C   0  0  0  0  0  0  0  0  0  0  0  0
   21.9545  -13.7802   36.2426 C   0  0  0  0  0  0  0  0  0  0  0  0
   22.0415  -13.6854   32.5354 C   0  0  1  0  0  0  0  0  0  0  0  0
   22.1397  -15.1451   31.9410 C   0  0  0  0  0  0  0  0  0  0  0  0
   22.3696  -14.3566   35.0370 C   0  0  0  0  0  0  0  0  0  0  0  0
   24.1542  -18.7829   33.7283 C   0  0  0  0  0  0  0  0  0  0  0  0
   23.3395  -18.6230   34.9894 C   0  0  0  0  0  0  0  0  0  0  0  0
   24.2025  -17.5399   36.1919 S   0  0  0  0  0  0  0  0  0  0  0  0
   23.2686  -16.0697   36.2117 C   0  0  0  0  0  0  0  0  0  0  0  0
   22.9491  -15.5693   37.4349 N   0  0  0  0  0  0  0  0  0  0  0  0
   24.9220  -17.2363   40.7253 C   0  0  0  0  0  0  0  0  0  0  0  0
   26.0481  -18.0547   40.9967 N   0  0  0  0  0  0  0  0  0  0  0  0
   27.5529  -19.6482   41.0239 C   0  0  0  0  0  0  0  0  0  0  0  0
   27.7457  -18.7720   42.0766 C   0  0  0  0  0  0  0  0  0  0  0  0
   26.8217  -17.7974   42.0839 N   0  0  0  0  0  0  0  0  0  0  0  0
   23.9414  -15.0684   40.5845 C   0  0  0  0  0  0  0  0  0  0  0  0
   21.3550  -12.6303   35.8993 N   0  0  0  0  0  0  0  0  0  0  0  0
   21.3073  -12.5051   34.5442 N   0  0  0  0  0  0  0  0  0  0  0  0
   21.9399  -13.5413   34.0086 C   0  0  0  0  0  0  0  0  0  0  0  0
   23.3895  -13.3773   31.8977 C   0  0  0  0  0  0  0  0  0  0  0  0
   23.2925  -14.6886   31.0682 C   0  0  0  0  0  0  0  0  0  0  0  0
   23.0385  -15.5297   35.0016 N   0  0  0  0  0  0  0  0  0  0  0  0
   24.5050  -20.7793   34.1247 H   0  0  0  0  0  0  0  0  0  0  0  0
   23.6031  -20.5059   32.7316 H   0  0  0  0  0  0  0  0  0  0  0  0
   25.2597  -20.2148   32.7316 H   0  0  0  0  0  0  0  0  0  0  0  0
   21.6673  -12.9127   38.6967 H   0  0  0  0  0  0  0  0  0  0  0  0
   21.4153  -14.0664   40.6760 H   0  0  0  0  0  0  0  0  0  0  0  0
   20.7058  -15.3666   39.6414 H   0  0  0  0  0  0  0  0  0  0  0  0
   21.7347  -17.4371   39.6250 H   0  0  0  0  0  0  0  0  0  0  0  0
   23.7049  -18.8864   40.0448 H   0  0  0  0  0  0  0  0  0  0  0  0
   25.9639  -19.6381   39.4864 H   0  0  0  0  0  0  0  0  0  0  0  0
   25.9539  -15.4305   41.2699 H   0  0  0  0  0  0  0  0  0  0  0  0
   21.1597  -13.0584   32.3370 H   0  0  0  0  0  0  0  0  0  0  0  0
   22.4082  -15.9164   32.6779 H   0  0  0  0  0  0  0  0  0  0  0  0
   21.2588  -15.6353   31.5009 H   0  0  0  0  0  0  0  0  0  0  0  0
   25.1304  -18.3036   33.8933 H   0  0  0  0  0  0  0  0  0  0  0  0
   23.5604  -18.3199   32.9264 H   0  0  0  0  0  0  0  0  0  0  0  0
   22.3667  -18.1765   34.7358 H   0  0  0  0  0  0  0  0  0  0  0  0
   23.1995  -19.6140   35.4459 H   0  0  0  0  0  0  0  0  0  0  0  0
   28.1589  -20.5301   40.7692 H   0  0  0  0  0  0  0  0  0  0  0  0
   28.5552  -18.8622   42.8159 H   0  0  0  0  0  0  0  0  0  0  0  0
   24.0199  -13.9795   40.7196 H   0  0  0  0  0  0  0  0  0  0  0  0
   20.9831  -11.9395   36.5667 H   0  0  0  0  0  0  0  0  0  0  0  0
   23.4004  -12.4605   31.2899 H   0  0  0  0  0  0  0  0  0  0  0  0
   24.2709  -13.1777   32.5249 H   0  0  0  0  0  0  0  0  0  0  0  0
   24.1854  -15.3281   31.1306 H   0  0  0  0  0  0  0  0  0  0  0  0
   23.1858  -14.6521   29.9740 H   0  0  0  0  0  0  0  0  0  0  0  0
  1 14  1  0
  2  3  1  0
  2  4  1  0
  3 10  2  0
  3 18  1  0
  4  5  1  0
  5  6  2  0
  5 24  1  0
  6  7  1  0
  7 19  2  0
  8 20  1  0
  8 21  2  0
  9 19  1  0
  9 24  2  0
 10 13  1  0
 10 25  1  0
 11 12  1  0
 11 27  1  0
 11 28  1  0
 12 29  1  0
 13 27  1  0
 13 30  2  0
 14 15  1  0
 15 16  1  0
 16 17  1  0
 17 18  2  0
 17 30  1  0
 19 20  1  0
 20 23  1  0
 21 22  1  0
 22 23  2  0
 25 26  1  0
 26 27  2  0
 28 29  1  0
  1 31  1  0
  1 32  1  0
  1 33  1  0
  2 34  1  0
  4 35  1  0
  4 36  1  0
  6 37  1  0
  7 38  1  0
  8 39  1  0
  9 40  1  0
 11 41  1  6
 12 42  1  0
 12 43  1  0
 14 44  1  0
 14 45  1  0
 15 46  1  0
 15 47  1  0
 21 48  1  0
 22 49  1  0
 24 50  1  0
 25 51  1  0
 28 52  1  0
 28 53  1  0
 29 54  1  0
 29 55  1  0
M  CHG  1   1   1
M  END
>  <filename_input>  (9) 
7QHL_D5P_docked.sdf

>  <pdb_id>  (9) 
7QHL_D5P

>  <pose_rank>  (9) 
8

>  <num_atoms_heavy>  (9) 
30

>  <num_torsions>  (9) 
8

>  <pose>  (9) 
[22.23594541460649, -14.434122331640951, 37.458113337513815, 2.918502223334232, -0.40632322786078406, 5.352405254617432, -0.6750963457735195, 6.1389550004521904, 5.59138051336305, 0.2440393462364721, 3.474758213264885, 2.1072732715135234, 0.6203927724419953, 1.0308340382423122]

>  <energy>  (9) 
-1794.0974057380054

>  <inter_energy>  (9) 
-1869.6227913613889

>  <intra_energy>  (9) 
63.248705927720586

>  <rmsd>  (9) 
2.73753

>  <sdf_rank>  (9) 
0

$$$$

     RDKit          3D

 55 59  0  0  0  0  0  0  0  0999 V2000
   26.1070  -19.7999   37.1238 N   0  0  0  0  0  0  0  0  0  0  0  0
   21.9200  -14.1903   38.6072 N   0  0  0  0  0  0  0  0  0  0  0  0
   22.3179  -14.6127   37.3949 C   0  0  0  0  0  0  0  0  0  0  0  0
   22.7423  -13.3854   39.4900 C   0  0  0  0  0  0  0  0  0  0  0  0
   23.4948  -14.2509   40.4561 C   0  0  0  0  0  0  0  0  0  0  0  0
   24.2047  -13.6993   41.5055 C   0  0  0  0  0  0  0  0  0  0  0  0
   24.8984  -14.4946   42.3982 C   0  0  0  0  0  0  0  0  0  0  0  0
   26.4414  -16.3381   44.1190 C   0  0  0  0  0  0  0  0  0  0  0  0
   24.2548  -16.4278   41.1367 C   0  0  0  0  0  0  0  0  0  0  0  0
   21.9717  -13.9077   36.2255 C   0  0  0  0  0  0  0  0  0  0  0  0
   21.9425  -13.6100   32.5282 C   0  0  1  0  0  0  0  0  0  0  0  0
   21.8515  -15.0293   31.8418 C   0  0  0  0  0  0  0  0  0  0  0  0
   22.3749  -14.3993   34.9790 C   0  0  0  0  0  0  0  0  0  0  0  0
   25.1139  -19.1681   38.0201 C   0  0  0  0  0  0  0  0  0  0  0  0
   23.8959  -18.5888   37.3412 C   0  0  0  0  0  0  0  0  0  0  0  0
   24.3783  -17.5544   35.9055 S   0  0  0  0  0  0  0  0  0  0  0  0
   23.3824  -16.1309   36.0322 C   0  0  0  0  0  0  0  0  0  0  0  0
   23.0786  -15.7119   37.2894 N   0  0  0  0  0  0  0  0  0  0  0  0
   24.9428  -15.8598   42.1831 C   0  0  0  0  0  0  0  0  0  0  0  0
   25.6414  -16.6950   43.0919 N   0  0  0  0  0  0  0  0  0  0  0  0
   26.9366  -17.4949   44.6688 C   0  0  0  0  0  0  0  0  0  0  0  0
   26.4239  -18.5157   43.8890 C   0  0  0  0  0  0  0  0  0  0  0  0
   25.6399  -18.0413   42.9072 N   0  0  0  0  0  0  0  0  0  0  0  0
   23.5334  -15.6218   40.2757 C   0  0  0  0  0  0  0  0  0  0  0  0
   21.3128  -12.7692   35.9629 N   0  0  0  0  0  0  0  0  0  0  0  0
   21.2188  -12.5736   34.6186 N   0  0  0  0  0  0  0  0  0  0  0  0
   21.8792  -13.5501   34.0094 C   0  0  0  0  0  0  0  0  0  0  0  0
   23.3095  -13.4288   31.8824 C   0  0  0  0  0  0  0  0  0  0  0  0
   23.0400  -14.6620   30.9749 C   0  0  0  0  0  0  0  0  0  0  0  0
   23.0926  -15.5375   34.8605 N   0  0  0  0  0  0  0  0  0  0  0  0
   26.8339  -20.2623   37.6884 H   0  0  0  0  0  0  0  0  0  0  0  0
   25.6379  -20.4983   36.5295 H   0  0  0  0  0  0  0  0  0  0  0  0
   26.5407  -19.0791   36.5295 H   0  0  0  0  0  0  0  0  0  0  0  0
   20.9771  -14.4533   38.9276 H   0  0  0  0  0  0  0  0  0  0  0  0
   23.4602  -12.8091   38.8879 H   0  0  0  0  0  0  0  0  0  0  0  0
   22.0886  -12.7084   40.0596 H   0  0  0  0  0  0  0  0  0  0  0  0
   24.2180  -12.6068   41.6329 H   0  0  0  0  0  0  0  0  0  0  0  0
   25.4069  -14.0487   43.2657 H   0  0  0  0  0  0  0  0  0  0  0  0
   26.6564  -15.3123   44.4531 H   0  0  0  0  0  0  0  0  0  0  0  0
   24.2783  -17.5171   40.9856 H   0  0  0  0  0  0  0  0  0  0  0  0
   21.1424  -12.8683   32.3882 H   0  0  0  0  0  0  0  0  0  0  0  0
   22.0324  -15.8737   32.5232 H   0  0  0  0  0  0  0  0  0  0  0  0
   20.9109  -15.3784   31.3908 H   0  0  0  0  0  0  0  0  0  0  0  0
   24.7717  -19.9299   38.7361 H   0  0  0  0  0  0  0  0  0  0  0  0
   25.6302  -18.3170   38.4880 H   0  0  0  0  0  0  0  0  0  0  0  0
   23.2523  -19.4102   36.9934 H   0  0  0  0  0  0  0  0  0  0  0  0
   23.3568  -17.9584   38.0637 H   0  0  0  0  0  0  0  0  0  0  0  0
   27.5989  -17.5894   45.5420 H   0  0  0  0  0  0  0  0  0  0  0  0
   26.6325  -19.5833   44.0526 H   0  0  0  0  0  0  0  0  0  0  0  0
   22.9840  -16.0757   39.4378 H   0  0  0  0  0  0  0  0  0  0  0  0
   20.9316  -12.1327   36.6774 H   0  0  0  0  0  0  0  0  0  0  0  0
   23.4254  -12.4829   31.3330 H   0  0  0  0  0  0  0  0  0  0  0  0
   24.2172  -13.3796   32.5019 H   0  0  0  0  0  0  0  0  0  0  0  0
   23.8477  -15.4088   30.9782 H   0  0  0  0  0  0  0  0  0  0  0  0
   22.9238  -14.5421   29.8876 H   0  0  0  0  0  0  0  0  0  0  0  0
  1 14  1  0
  2  3  1  0
  2  4  1  0
  3 10  2  0
  3 18  1  0
  4  5  1  0
  5  6  2  0
  5 24  1  0
  6  7  1  0
  7 19  2  0
  8 20  1  0
  8 21  2  0
  9 19  1  0
  9 24  2  0
 10 13  1  0
 10 25  1  0
 11 12  1  0
 11 27  1  0
 11 28  1  0
 12 29  1  0
 13 27  1  0
 13 30  2  0
 14 15  1  0
 15 16  1  0
 16 17  1  0
 17 18  2  0
 17 30  1  0
 19 20  1  0
 20 23  1  0
 21 22  1  0
 22 23  2  0
 25 26  1  0
 26 27  2  0
 28 29  1  0
  1 31  1  0
  1 32  1  0
  1 33  1  0
  2 34  1  0
  4 35  1  0
  4 36  1  0
  6 37  1  0
  7 38  1  0
  8 39  1  0
  9 40  1  0
 11 41  1  6
 12 42  1  0
 12 43  1  0
 14 44  1  0
 14 45  1  0
 15 46  1  0
 15 47  1  0
 21 48  1  0
 22 49  1  0
 24 50  1  0
 25 51  1  0
 28 52  1  0
 28 53  1  0
 29 54  1  0
 29 55  1  0
M  CHG  1   1   1
M  END
>  <filename_input>  (10) 
7QHL_D5P_docked.sdf

>  <pdb_id>  (10) 
7QHL_D5P

>  <pose_rank>  (10) 
9

>  <num_atoms_heavy>  (10) 
30

>  <num_torsions>  (10) 
8

>  <pose>  (10) 
[22.317927055218412, -14.612742858661619, 37.39492763483012, 1.60673470488312, -2.2270201441558357, 5.51938430593302, -0.5067831301351164, -4.5197422713524205, -3.2184541959216584, -0.8078496913169794, 2.772880853762103, 0.380472880348722, 2.620918789641151, -2.0356580817780205]

>  <energy>  (10) 
-1780.5868774489036

>  <inter_energy>  (10) 
-1792.275027532463

>  <intra_energy>  (10) 
27.573975493261063

>  <rmsd>  (10) 
1.79595

>  <sdf_rank>  (10) 
0

$$$$

     RDKit          3D

 55 59  0  0  0  0  0  0  0  0999 V2000
   24.0113  -18.7005   31.5241 N   0  0  0  0  0  0  0  0  0  0  0  0
   22.0866  -14.3513   38.4113 N   0  0  0  0  0  0  0  0  0  0  0  0
   22.4430  -14.6901   37.1605 C   0  0  0  0  0  0  0  0  0  0  0  0
   22.0871  -15.2767   39.5280 C   0  0  0  0  0  0  0  0  0  0  0  0
   23.0187  -14.8115   40.6070 C   0  0  0  0  0  0  0  0  0  0  0  0
   23.0107  -15.3970   41.8586 C   0  0  0  0  0  0  0  0  0  0  0  0
   23.8690  -14.9711   42.8549 C   0  0  0  0  0  0  0  0  0  0  0  0
   26.6001  -14.1111   44.2008 C   0  0  0  0  0  0  0  0  0  0  0  0
   24.7049  -13.2804   41.3766 C   0  0  0  0  0  0  0  0  0  0  0  0
   22.0322  -13.9253   36.0511 C   0  0  0  0  0  0  0  0  0  0  0  0
   21.8416  -13.4074   32.3830 C   0  0  1  0  0  0  0  0  0  0  0  0
   21.2432  -14.6523   31.6175 C   0  0  0  0  0  0  0  0  0  0  0  0
   22.3940  -14.3308   34.7617 C   0  0  0  0  0  0  0  0  0  0  0  0
   24.1604  -17.8068   32.6937 C   0  0  0  0  0  0  0  0  0  0  0  0
   23.7277  -18.3868   34.0190 C   0  0  0  0  0  0  0  0  0  0  0  0
   24.5062  -17.4839   35.4127 S   0  0  0  0  0  0  0  0  0  0  0  0
   23.4841  -16.0963   35.6660 C   0  0  0  0  0  0  0  0  0  0  0  0
   23.2236  -15.7612   36.9576 N   0  0  0  0  0  0  0  0  0  0  0  0
   24.6913  -13.8866   42.6108 C   0  0  0  0  0  0  0  0  0  0  0  0
   25.5859  -13.4388   43.6161 N   0  0  0  0  0  0  0  0  0  0  0  0
   27.1386  -13.2837   45.1554 C   0  0  0  0  0  0  0  0  0  0  0  0
   26.3650  -12.1377   45.1203 C   0  0  0  0  0  0  0  0  0  0  0  0
   25.3979  -12.2226   44.1923 N   0  0  0  0  0  0  0  0  0  0  0  0
   23.8682  -13.7439   40.3784 C   0  0  0  0  0  0  0  0  0  0  0  0
   21.3369  -12.7902   35.8851 N   0  0  0  0  0  0  0  0  0  0  0  0
   21.1824  -12.5168   34.5601 N   0  0  0  0  0  0  0  0  0  0  0  0
   21.8389  -13.4379   33.8664 C   0  0  0  0  0  0  0  0  0  0  0  0
   23.1696  -13.6656   31.6843 C   0  0  0  0  0  0  0  0  0  0  0  0
   22.4639  -14.6584   30.7180 C   0  0  0  0  0  0  0  0  0  0  0  0
   23.1321  -15.4414   34.5452 N   0  0  0  0  0  0  0  0  0  0  0  0
   23.8505  -19.6652   31.8474 H   0  0  0  0  0  0  0  0  0  0  0  0
   23.2104  -18.3910   30.9553 H   0  0  0  0  0  0  0  0  0  0  0  0
   24.8694  -18.6676   30.9553 H   0  0  0  0  0  0  0  0  0  0  0  0
   21.7964  -13.3787   38.5868 H   0  0  0  0  0  0  0  0  0  0  0  0
   21.0686  -15.3478   39.9374 H   0  0  0  0  0  0  0  0  0  0  0  0
   22.4264  -16.2599   39.1700 H   0  0  0  0  0  0  0  0  0  0  0  0
   22.3081  -16.2176   42.0661 H   0  0  0  0  0  0  0  0  0  0  0  0
   23.8975  -15.4866   43.8262 H   0  0  0  0  0  0  0  0  0  0  0  0
   26.9331  -15.1310   43.9579 H   0  0  0  0  0  0  0  0  0  0  0  0
   25.3777  -12.4316   41.1846 H   0  0  0  0  0  0  0  0  0  0  0  0
   21.3485  -12.4257   32.3266 H   0  0  0  0  0  0  0  0  0  0  0  0
   21.1336  -15.5544   32.2372 H   0  0  0  0  0  0  0  0  0  0  0  0
   20.2294  -14.6188   31.1920 H   0  0  0  0  0  0  0  0  0  0  0  0
   25.2222  -17.5313   32.7757 H   0  0  0  0  0  0  0  0  0  0  0  0
   23.4919  -16.9535   32.5067 H   0  0  0  0  0  0  0  0  0  0  0  0
   22.6338  -18.3100   34.1060 H   0  0  0  0  0  0  0  0  0  0  0  0
   24.0430  -19.4398   34.0620 H   0  0  0  0  0  0  0  0  0  0  0  0
   28.0001  -13.4884   45.8080 H   0  0  0  0  0  0  0  0  0  0  0  0
   26.5223  -11.2652   45.7714 H   0  0  0  0  0  0  0  0  0  0  0  0
   23.8779  -13.2584   39.3914 H   0  0  0  0  0  0  0  0  0  0  0  0
   20.9714  -12.2075   36.6518 H   0  0  0  0  0  0  0  0  0  0  0  0
   23.5959  -12.7814   31.1879 H   0  0  0  0  0  0  0  0  0  0  0  0
   24.0517  -13.9804   32.2612 H   0  0  0  0  0  0  0  0  0  0  0  0
   22.9591  -15.6373   30.6375 H   0  0  0  0  0  0  0  0  0  0  0  0
   22.3709  -14.4262   29.6468 H   0  0  0  0  0  0  0  0  0  0  0  0
  1 14  1  0
  2  3  1  0
  2  4  1  0
  3 10  2  0
  3 18  1  0
  4  5  1  0
  5  6  2  0
  5 24  1  0
  6  7  1  0
  7 19  2  0
  8 20  1  0
  8 21  2  0
  9 19  1  0
  9 24  2  0
 10 13  1  0
 10 25  1  0
 11 12  1  0
 11 27  1  0
 11 28  1  0
 12 29  1  0
 13 27  1  0
 13 30  2  0
 14 15  1  0
 15 16  1  0
 16 17  1  0
 17 18  2  0
 17 30  1  0
 19 20  1  0
 20 23  1  0
 21 22  1  0
 22 23  2  0
 25 26  1  0
 26 27  2  0
 28 29  1  0
  1 31  1  0
  1 32  1  0
  1 33  1  0
  2 34  1  0
  4 35  1  0
  4 36  1  0
  6 37  1  0
  7 38  1  0
  8 39  1  0
  9 40  1  0
 11 41  1  1
 12 42  1  0
 12 43  1  0
 14 44  1  0
 14 45  1  0
 15 46  1  0
 15 47  1  0
 21 48  1  0
 22 49  1  0
 24 50  1  0
 25 51  1  0
 28 52  1  0
 28 53  1  0
 29 54  1  0
 29 55  1  0
M  CHG  1   1   1
M  END
>  <filename_input>  (11) 
7QHL_D5P_docked.sdf

>  <pdb_id>  (11) 
7QHL_D5P

>  <pose_rank>  (11) 
10

>  <num_atoms_heavy>  (11) 
30

>  <num_torsions>  (11) 
8

>  <pose>  (11) 
[22.443036302454217, -14.690062941832624, 37.160485862833625, -1.369867471705091, -4.418002925363467, 4.071783361533155, -0.12604386046127097, 6.224402006421014, 6.793407359872605, -1.1601794195867685, 3.9812034665838505, 2.215059929474416, 0.17305494334454125, 1.5773704358756349]

>  <energy>  (11) 
-1807.2574602662846

>  <inter_energy>  (11) 
-1811.6087944551978

>  <intra_energy>  (11) 
12.800257478235537

>  <rmsd>  (11) 
1.99436

>  <sdf_rank>  (11) 
0

$$$$

     RDKit          3D

 55 59  0  0  0  0  0  0  0  0999 V2000
   25.4917  -20.6714   33.8387 N   0  0  0  0  0  0  0  0  0  0  0  0
   21.9947  -14.5069   38.1781 N   0  0  0  0  0  0  0  0  0  0  0  0
   22.4542  -14.8488   36.9622 C   0  0  0  0  0  0  0  0  0  0  0  0
   21.8127  -15.4496   39.2651 C   0  0  0  0  0  0  0  0  0  0  0  0
   23.0463  -15.5313   40.1138 C   0  0  0  0  0  0  0  0  0  0  0  0
   23.6259  -14.3938   40.6425 C   0  0  0  0  0  0  0  0  0  0  0  0
   24.7623  -14.4660   41.4259 C   0  0  0  0  0  0  0  0  0  0  0  0
   27.0646  -14.8649   43.2433 C   0  0  0  0  0  0  0  0  0  0  0  0
   24.8164  -16.8373   41.0839 C   0  0  0  0  0  0  0  0  0  0  0  0
   22.0563  -14.1475   35.8071 C   0  0  0  0  0  0  0  0  0  0  0  0
   22.0577  -13.7410   32.1200 C   0  0  1  0  0  0  0  0  0  0  0  0
   20.8861  -14.4221   31.3093 C   0  0  0  0  0  0  0  0  0  0  0  0
   22.5287  -14.5565   34.5550 C   0  0  0  0  0  0  0  0  0  0  0  0
   24.7242  -19.4604   33.4738 C   0  0  0  0  0  0  0  0  0  0  0  0
   23.9007  -18.8497   34.5823 C   0  0  0  0  0  0  0  0  0  0  0  0
   24.8319  -17.5158   35.4293 S   0  0  0  0  0  0  0  0  0  0  0  0
   23.6923  -16.2068   35.5774 C   0  0  0  0  0  0  0  0  0  0  0  0
   23.3260  -15.8601   36.8400 N   0  0  0  0  0  0  0  0  0  0  0  0
   25.3688  -15.6945   41.6128 C   0  0  0  0  0  0  0  0  0  0  0  0
   26.5306  -15.7923   42.4204 N   0  0  0  0  0  0  0  0  0  0  0  0
   28.2189  -15.3985   43.7616 C   0  0  0  0  0  0  0  0  0  0  0  0
   28.3418  -16.6421   43.1688 C   0  0  0  0  0  0  0  0  0  0  0  0
   27.3226  -16.8930   42.3310 N   0  0  0  0  0  0  0  0  0  0  0  0
   23.6572  -16.7525   40.3352 C   0  0  0  0  0  0  0  0  0  0  0  0
   21.2876  -13.0753   35.5645 N   0  0  0  0  0  0  0  0  0  0  0  0
   21.1962  -12.8492   34.2248 N   0  0  0  0  0  0  0  0  0  0  0  0
   21.9640  -13.7334   33.6007 C   0  0  0  0  0  0  0  0  0  0  0  0
   23.0209  -14.7373   31.4890 C   0  0  0  0  0  0  0  0  0  0  0  0
   21.9187  -15.1550   30.4752 C   0  0  0  0  0  0  0  0  0  0  0  0
   23.3621  -15.6107   34.4178 N   0  0  0  0  0  0  0  0  0  0  0  0
   25.5416  -20.7502   34.8644 H   0  0  0  0  0  0  0  0  0  0  0  0
   25.0236  -21.5038   33.4528 H   0  0  0  0  0  0  0  0  0  0  0  0
   26.4443  -20.6034   33.4528 H   0  0  0  0  0  0  0  0  0  0  0  0
   21.7583  -13.5189   38.3477 H   0  0  0  0  0  0  0  0  0  0  0  0
   20.9676  -15.1220   39.8885 H   0  0  0  0  0  0  0  0  0  0  0  0
   21.6125  -16.4437   38.8389 H   0  0  0  0  0  0  0  0  0  0  0  0
   23.1743  -13.4122   40.4360 H   0  0  0  0  0  0  0  0  0  0  0  0
   25.1775  -13.5609   41.8931 H   0  0  0  0  0  0  0  0  0  0  0  0
   26.6522  -13.8681   43.4584 H   0  0  0  0  0  0  0  0  0  0  0  0
   25.2940  -17.8132   41.2555 H   0  0  0  0  0  0  0  0  0  0  0  0
   22.2307  -12.6570   32.0496 H   0  0  0  0  0  0  0  0  0  0  0  0
   20.2418  -15.0794   31.9116 H   0  0  0  0  0  0  0  0  0  0  0  0
   20.1033  -13.8146   30.8316 H   0  0  0  0  0  0  0  0  0  0  0  0
   25.4382  -18.6999   33.1247 H   0  0  0  0  0  0  0  0  0  0  0  0
   24.0042  -19.7810   32.7065 H   0  0  0  0  0  0  0  0  0  0  0  0
   22.9775  -18.4300   34.1561 H   0  0  0  0  0  0  0  0  0  0  0  0
   23.6626  -19.6335   35.3165 H   0  0  0  0  0  0  0  0  0  0  0  0
   28.8997  -14.9362   44.4915 H   0  0  0  0  0  0  0  0  0  0  0  0
   29.1712  -17.3389   43.3598 H   0  0  0  0  0  0  0  0  0  0  0  0
   23.2157  -17.6663   39.9110 H   0  0  0  0  0  0  0  0  0  0  0  0
   20.8309  -12.5036   36.2894 H   0  0  0  0  0  0  0  0  0  0  0  0
   23.9058  -14.2759   31.0263 H   0  0  0  0  0  0  0  0  0  0  0  0
   23.5257  -15.4939   32.1077 H   0  0  0  0  0  0  0  0  0  0  0  0
   21.7558  -16.2409   30.4091 H   0  0  0  0  0  0  0  0  0  0  0  0
   22.0314  -14.9345   29.4035 H   0  0  0  0  0  0  0  0  0  0  0  0
  1 14  1  0
  2  3  1  0
  2  4  1  0
  3 10  2  0
  3 18  1  0
  4  5  1  0
  5  6  2  0
  5 24  1  0
  6  7  1  0
  7 19  2  0
  8 20  1  0
  8 21  2  0
  9 19  1  0
  9 24  2  0
 10 13  1  0
 10 25  1  0
 11 12  1  0
 11 27  1  0
 11 28  1  0
 12 29  1  0
 13 27  1  0
 13 30  2  0
 14 15  1  0
 15 16  1  0
 16 17  1  0
 17 18  2  0
 17 30  1  0
 19 20  1  0
 20 23  1  0
 21 22  1  0
 22 23  2  0
 25 26  1  0
 26 27  2  0
 28 29  1  0
  1 31  1  0
  1 32  1  0
  1 33  1  0
  2 34  1  0
  4 35  1  0
  4 36  1  0
  6 37  1  0
  7 38  1  0
  8 39  1  0
  9 40  1  0
 11 41  1  6
 12 42  1  0
 12 43  1  0
 14 44  1  0
 14 45  1  0
 15 46  1  0
 15 47  1  0
 21 48  1  0
 22 49  1  0
 24 50  1  0
 25 51  1  0
 28 52  1  0
 28 53  1  0
 29 54  1  0
 29 55  1  0
M  CHG  1   1   1
M  END
>  <filename_input>  (12) 
7QHL_D5P_docked.sdf

>  <pdb_id>  (12) 
7QHL_D5P

>  <pose_rank>  (12) 
11

>  <num_atoms_heavy>  (12) 
30

>  <num_torsions>  (12) 
8

>  <pose>  (12) 
[22.454165253033466, -14.848772769152738, 36.96222043160776, -0.0022688579307592327, 0.02457722503801701, -0.0023275517055960995, 0.5727347292174223, 6.060140911750718, 6.299100889959099, -3.18035541192486, 3.1175530174317023, -4.481087338148138, 1.0601918857393755, 0.44787741393462754]

>  <energy>  (12) 
-1454.5431094231353

>  <inter_energy>  (12) 
-1490.2985716457

>  <intra_energy>  (12) 
16.63826778449959

>  <rmsd>  (12) 
1.65142

>  <sdf_rank>  (12) 
0

$$$$

     RDKit          3D

 55 59  0  0  0  0  0  0  0  0999 V2000
   24.4787  -20.9399   37.8281 N   0  0  0  0  0  0  0  0  0  0  0  0
   21.7289  -14.1280   38.5514 N   0  0  0  0  0  0  0  0  0  0  0  0
   22.2195  -14.5396   37.3698 C   0  0  0  0  0  0  0  0  0  0  0  0
   22.5553  -13.8055   39.6988 C   0  0  0  0  0  0  0  0  0  0  0  0
   23.2374  -15.0318   40.2275 C   0  0  0  0  0  0  0  0  0  0  0  0
   24.6158  -15.1244   40.2596 C   0  0  0  0  0  0  0  0  0  0  0  0
   25.2473  -16.2531   40.7474 C   0  0  0  0  0  0  0  0  0  0  0  0
   25.6664  -18.6902   42.8588 C   0  0  0  0  0  0  0  0  0  0  0  0
   23.1055  -17.2694   41.0969 C   0  0  0  0  0  0  0  0  0  0  0  0
   21.8809  -13.8840   36.1698 C   0  0  0  0  0  0  0  0  0  0  0  0
   22.0186  -13.6543   32.4700 C   0  0  1  0  0  0  0  0  0  0  0  0
   21.6309  -15.0123   31.7635 C   0  0  0  0  0  0  0  0  0  0  0  0
   22.3838  -14.3647   34.9556 C   0  0  0  0  0  0  0  0  0  0  0  0
   24.1419  -19.9694   36.7634 C   0  0  0  0  0  0  0  0  0  0  0  0
   23.8730  -18.5577   37.2268 C   0  0  0  0  0  0  0  0  0  0  0  0
   24.5720  -17.3387   36.0480 S   0  0  0  0  0  0  0  0  0  0  0  0
   23.4652  -15.9945   36.0945 C   0  0  0  0  0  0  0  0  0  0  0  0
   23.0663  -15.5782   37.3258 N   0  0  0  0  0  0  0  0  0  0  0  0
   24.4785  -17.3354   41.1339 C   0  0  0  0  0  0  0  0  0  0  0  0
   25.1059  -18.4999   41.6456 N   0  0  0  0  0  0  0  0  0  0  0  0
   26.1964  -19.9570   42.8669 C   0  0  0  0  0  0  0  0  0  0  0  0
   25.9548  -20.4594   41.6011 C   0  0  0  0  0  0  0  0  0  0  0  0
   25.3006  -19.5722   40.8339 N   0  0  0  0  0  0  0  0  0  0  0  0
   22.4887  -16.1182   40.6431 C   0  0  0  0  0  0  0  0  0  0  0  0
   21.1513  -12.8046   35.8504 N   0  0  0  0  0  0  0  0  0  0  0  0
   21.1117  -12.6404   34.4992 N   0  0  0  0  0  0  0  0  0  0  0  0
   21.8751  -13.5734   33.9446 C   0  0  0  0  0  0  0  0  0  0  0  0
   23.4279  -13.8137   31.9160 C   0  0  0  0  0  0  0  0  0  0  0  0
   22.9271  -14.9490   30.9793 C   0  0  0  0  0  0  0  0  0  0  0  0
   23.1914  -15.4459   34.8974 N   0  0  0  0  0  0  0  0  0  0  0  0
   24.3278  -20.5049   38.7495 H   0  0  0  0  0  0  0  0  0  0  0  0
   23.8769  -21.7709   37.7381 H   0  0  0  0  0  0  0  0  0  0  0  0
   25.4660  -21.2195   37.7381 H   0  0  0  0  0  0  0  0  0  0  0  0
   20.7075  -14.0363   38.6476 H   0  0  0  0  0  0  0  0  0  0  0  0
   23.3169  -13.0705   39.3991 H   0  0  0  0  0  0  0  0  0  0  0  0
   21.9128  -13.3917   40.4899 H   0  0  0  0  0  0  0  0  0  0  0  0
   25.2218  -14.2841   39.8900 H   0  0  0  0  0  0  0  0  0  0  0  0
   26.3438  -16.2896   40.8268 H   0  0  0  0  0  0  0  0  0  0  0  0
   25.6936  -17.9659   43.6863 H   0  0  0  0  0  0  0  0  0  0  0  0
   22.5013  -18.1275   41.4264 H   0  0  0  0  0  0  0  0  0  0  0  0
   21.4333  -12.7411   32.2869 H   0  0  0  0  0  0  0  0  0  0  0  0
   21.5566  -15.8720   32.4457 H   0  0  0  0  0  0  0  0  0  0  0  0
   20.6652  -15.1247   31.2488 H   0  0  0  0  0  0  0  0  0  0  0  0
   24.9834  -19.9384   36.0556 H   0  0  0  0  0  0  0  0  0  0  0  0
   23.1999  -20.3246   36.3203 H   0  0  0  0  0  0  0  0  0  0  0  0
   22.7864  -18.4040   37.3021 H   0  0  0  0  0  0  0  0  0  0  0  0
   24.3500  -18.4124   38.2074 H   0  0  0  0  0  0  0  0  0  0  0  0
   26.7040  -20.4635   43.7010 H   0  0  0  0  0  0  0  0  0  0  0  0
   26.2605  -21.4611   41.2646 H   0  0  0  0  0  0  0  0  0  0  0  0
   21.3904  -16.0657   40.6122 H   0  0  0  0  0  0  0  0  0  0  0  0
   20.6865  -12.1871   36.5312 H   0  0  0  0  0  0  0  0  0  0  0  0
   23.8055  -12.9270   31.3857 H   0  0  0  0  0  0  0  0  0  0  0  0
   24.2779  -13.9834   32.5933 H   0  0  0  0  0  0  0  0  0  0  0  0
   23.5274  -15.8696   31.0265 H   0  0  0  0  0  0  0  0  0  0  0  0
   22.9148  -14.8098   29.8882 H   0  0  0  0  0  0  0  0  0  0  0  0
  1 14  1  0
  2  3  1  0
  2  4  1  0
  3 10  2  0
  3 18  1  0
  4  5  1  0
  5  6  2  0
  5 24  1  0
  6  7  1  0
  7 19  2  0
  8 20  1  0
  8 21  2  0
  9 19  1  0
  9 24  2  0
 10 13  1  0
 10 25  1  0
 11 12  1  0
 11 27  1  0
 11 28  1  0
 12 29  1  0
 13 27  1  0
 13 30  2  0
 14 15  1  0
 15 16  1  0
 16 17  1  0
 17 18  2  0
 17 30  1  0
 19 20  1  0
 20 23  1  0
 21 22  1  0
 22 23  2  0
 25 26  1  0
 26 27  2  0
 28 29  1  0
  1 31  1  0
  1 32  1  0
  1 33  1  0
  2 34  1  0
  4 35  1  0
  4 36  1  0
  6 37  1  0
  7 38  1  0
  8 39  1  0
  9 40  1  0
 11 41  1  6
 12 42  1  0
 12 43  1  0
 14 44  1  0
 14 45  1  0
 15 46  1  0
 15 47  1  0
 21 48  1  0
 22 49  1  0
 24 50  1  0
 25 51  1  0
 28 52  1  0
 28 53  1  0
 29 54  1  0
 29 55  1  0
M  CHG  1   1   1
M  END
>  <filename_input>  (13) 
7QHL_D5P_docked.sdf

>  <pdb_id>  (13) 
7QHL_D5P

>  <pose_rank>  (13) 
12

>  <num_atoms_heavy>  (13) 
30

>  <num_torsions>  (13) 
8

>  <pose>  (13) 
[22.21950879131315, -14.539556118163864, 37.36977037709672, 5.225710216134264, 1.0617783553120295, 3.210859776081114, -0.18331570924384094, 1.2435756653122008, 3.5359075302939513, 4.2603355178010585, -2.0607768640469004, 0.595511122979045, 1.26830666526544, 1.2676975241468063]

>  <energy>  (13) 
-1814.0438857998477

>  <inter_energy>  (13) 
-1839.4624506855116

>  <intra_energy>  (13) 
28.107864292981887

>  <rmsd>  (13) 
2.75276

>  <sdf_rank>  (13) 
0

$$$$

     RDKit          3D

 55 59  0  0  0  0  0  0  0  0999 V2000
   24.2910  -19.4059   33.7256 N   0  0  0  0  0  0  0  0  0  0  0  0
   21.7851  -14.0468   38.8207 N   0  0  0  0  0  0  0  0  0  0  0  0
   22.4230  -14.3383   37.6742 C   0  0  0  0  0  0  0  0  0  0  0  0
   21.3724  -15.0441   39.7894 C   0  0  0  0  0  0  0  0  0  0  0  0
   22.3933  -15.1857   40.8786 C   0  0  0  0  0  0  0  0  0  0  0  0
   22.1669  -16.0061   41.9672 C   0  0  0  0  0  0  0  0  0  0  0  0
   23.1065  -16.1393   42.9722 C   0  0  0  0  0  0  0  0  0  0  0  0
   26.0124  -16.5669   44.2277 C   0  0  0  0  0  0  0  0  0  0  0  0
   24.4950  -14.5400   41.8512 C   0  0  0  0  0  0  0  0  0  0  0  0
   22.0765  -13.7058   36.4641 C   0  0  0  0  0  0  0  0  0  0  0  0
   22.4561  -13.3388   32.7925 C   0  0  1  0  0  0  0  0  0  0  0  0
   22.2590  -14.6991   32.0150 C   0  0  0  0  0  0  0  0  0  0  0  0
   22.7400  -14.0625   35.2848 C   0  0  0  0  0  0  0  0  0  0  0  0
   24.0356  -18.2024   34.5472 C   0  0  0  0  0  0  0  0  0  0  0  0
   24.5130  -18.2742   35.9779 C   0  0  0  0  0  0  0  0  0  0  0  0
   25.2833  -16.6904   36.4899 S   0  0  0  0  0  0  0  0  0  0  0  0
   23.9769  -15.5384   36.4742 C   0  0  0  0  0  0  0  0  0  0  0  0
   23.4248  -15.2295   37.6776 N   0  0  0  0  0  0  0  0  0  0  0  0
   24.2563  -15.3732   42.9187 C   0  0  0  0  0  0  0  0  0  0  0  0
   25.2374  -15.5011   43.9349 N   0  0  0  0  0  0  0  0  0  0  0  0
   26.7620  -16.2335   45.3290 C   0  0  0  0  0  0  0  0  0  0  0  0
   26.3514  -14.9588   45.6749 C   0  0  0  0  0  0  0  0  0  0  0  0
   25.4051  -14.5008   44.8392 N   0  0  0  0  0  0  0  0  0  0  0  0
   23.5626  -14.4479   40.8345 C   0  0  0  0  0  0  0  0  0  0  0  0
   21.2112  -12.7444   36.1087 N   0  0  0  0  0  0  0  0  0  0  0  0
   21.2486  -12.5452   34.7622 N   0  0  0  0  0  0  0  0  0  0  0  0
   22.1903  -13.3288   34.2521 C   0  0  0  0  0  0  0  0  0  0  0  0
   23.9134  -13.3429   32.3508 C   0  0  0  0  0  0  0  0  0  0  0  0
   23.6004  -14.4835   31.3418 C   0  0  0  0  0  0  0  0  0  0  0  0
   23.7110  -15.0014   35.2700 N   0  0  0  0  0  0  0  0  0  0  0  0
   24.4623  -20.2128   34.3425 H   0  0  0  0  0  0  0  0  0  0  0  0
   23.4717  -19.5960   33.1311 H   0  0  0  0  0  0  0  0  0  0  0  0
   25.1170  -19.2469   33.1311 H   0  0  0  0  0  0  0  0  0  0  0  0
   21.5774  -13.0584   39.0230 H   0  0  0  0  0  0  0  0  0  0  0  0
   20.4125  -14.7405   40.2325 H   0  0  0  0  0  0  0  0  0  0  0  0
   21.2693  -16.0115   39.2761 H   0  0  0  0  0  0  0  0  0  0  0  0
   21.2211  -16.5636   42.0353 H   0  0  0  0  0  0  0  0  0  0  0  0
   22.9422  -16.8435   43.8011 H   0  0  0  0  0  0  0  0  0  0  0  0
   26.0386  -17.5237   43.6855 H   0  0  0  0  0  0  0  0  0  0  0  0
   25.4224  -13.9501   41.8064 H   0  0  0  0  0  0  0  0  0  0  0  0
   21.8010  -12.4786   32.5903 H   0  0  0  0  0  0  0  0  0  0  0  0
   22.2153  -15.5876   32.6621 H   0  0  0  0  0  0  0  0  0  0  0  0
   21.3522  -14.8823   31.4199 H   0  0  0  0  0  0  0  0  0  0  0  0
   24.5384  -17.3510   34.0653 H   0  0  0  0  0  0  0  0  0  0  0  0
   22.9415  -18.1018   34.6005 H   0  0  0  0  0  0  0  0  0  0  0  0
   23.6557  -18.4865   36.6336 H   0  0  0  0  0  0  0  0  0  0  0  0
   25.2648  -19.0732   36.0583 H   0  0  0  0  0  0  0  0  0  0  0  0
   27.5251  -16.8482   45.8287 H   0  0  0  0  0  0  0  0  0  0  0  0
   26.7504  -14.3909   46.5282 H   0  0  0  0  0  0  0  0  0  0  0  0
   23.7527  -13.7804   39.9811 H   0  0  0  0  0  0  0  0  0  0  0  0
   20.6040  -12.2295   36.7622 H   0  0  0  0  0  0  0  0  0  0  0  0
   24.2435  -12.4048   31.8808 H   0  0  0  0  0  0  0  0  0  0  0  0
   24.7201  -13.4575   33.0899 H   0  0  0  0  0  0  0  0  0  0  0  0
   24.2818  -15.3444   31.4095 H   0  0  0  0  0  0  0  0  0  0  0  0
   23.6603  -14.3041   30.2581 H   0  0  0  0  0  0  0  0  0  0  0  0
  1 14  1  0
  2  3  1  0
  2  4  1  0
  3 10  2  0
  3 18  1  0
  4  5  1  0
  5  6  2  0
  5 24  1  0
  6  7  1  0
  7 19  2  0
  8 20  1  0
  8 21  2  0
  9 19  1  0
  9 24  2  0
 10 13  1  0
 10 25  1  0
 11 12  1  0
 11 27  1  0
 11 28  1  0
 12 29  1  0
 13 27  1  0
 13 30  2  0
 14 15  1  0
 15 16  1  0
 16 17  1  0
 17 18  2  0
 17 30  1  0
 19 20  1  0
 20 23  1  0
 21 22  1  0
 22 23  2  0
 25 26  1  0
 26 27  2  0
 28 29  1  0
  1 31  1  0
  1 32  1  0
  1 33  1  0
  2 34  1  0
  4 35  1  0
  4 36  1  0
  6 37  1  0
  7 38  1  0
  8 39  1  0
  9 40  1  0
 11 41  1  6
 12 42  1  0
 12 43  1  0
 14 44  1  0
 14 45  1  0
 15 46  1  0
 15 47  1  0
 21 48  1  0
 22 49  1  0
 24 50  1  0
 25 51  1  0
 28 52  1  0
 28 53  1  0
 29 54  1  0
 29 55  1  0
M  CHG  1   1   1
M  END
>  <filename_input>  (14) 
7QHL_D5P_docked.sdf

>  <pdb_id>  (14) 
7QHL_D5P

>  <pose_rank>  (14) 
13

>  <num_atoms_heavy>  (14) 
30

>  <num_torsions>  (14) 
8

>  <pose>  (14) 
[22.42297554000496, -14.338273944938006, 37.67419212365938, -0.8632628657628477, -3.7512450873946923, 5.163821432945458, -0.12023444115897598, 5.845552644207644, 6.375373060134768, -1.044239032126338, 4.06680641388154, 1.5529080738832723, -0.1341178348932419, 1.2183836867228368]

>  <energy>  (14) 
-1474.9408564325895

>  <inter_energy>  (14) 
-1486.7242085588723

>  <intra_energy>  (14) 
23.81929660269202

>  <rmsd>  (14) 
1.82549

>  <sdf_rank>  (14) 
0

$$$$

     RDKit          3D

 55 59  0  0  0  0  0  0  0  0999 V2000
   23.9915  -13.7965   31.1141 N   0  0  0  0  0  0  0  0  0  0  0  0
   22.0577  -14.2691   38.8029 N   0  0  0  0  0  0  0  0  0  0  0  0
   22.4114  -14.7801   37.6112 C   0  0  0  0  0  0  0  0  0  0  0  0
   22.0651  -15.0276   40.0391 C   0  0  0  0  0  0  0  0  0  0  0  0
   23.3744  -14.8723   40.7534 C   0  0  0  0  0  0  0  0  0  0  0  0
   24.1915  -15.9610   40.9912 C   0  0  0  0  0  0  0  0  0  0  0  0
   25.3993  -15.8208   41.6485 C   0  0  0  0  0  0  0  0  0  0  0  0
   27.5681  -13.2684   43.2410 C   0  0  0  0  0  0  0  0  0  0  0  0
   24.9458  -13.4847   41.9302 C   0  0  0  0  0  0  0  0  0  0  0  0
   22.8596  -16.1101   37.4904 C   0  0  0  0  0  0  0  0  0  0  0  0
   24.2536  -18.8705   35.4418 C   0  0  1  0  0  0  0  0  0  0  0  0
   25.5781  -18.4645   34.6838 C   0  0  0  0  0  0  0  0  0  0  0  0
   23.2529  -16.5943   36.2378 C   0  0  0  0  0  0  0  0  0  0  0  0
   22.5800  -14.2236   31.2328 C   0  0  0  0  0  0  0  0  0  0  0  0
   22.1703  -14.7589   32.5839 C   0  0  0  0  0  0  0  0  0  0  0  0
   22.6276  -13.5857   33.9175 S   0  0  0  0  0  0  0  0  0  0  0  0
   22.7629  -14.5723   35.3466 C   0  0  0  0  0  0  0  0  0  0  0  0
   22.3167  -14.0239   36.5079 N   0  0  0  0  0  0  0  0  0  0  0  0
   25.7512  -14.5787   42.1436 C   0  0  0  0  0  0  0  0  0  0  0  0
   26.9901  -14.4109   42.8133 N   0  0  0  0  0  0  0  0  0  0  0  0
   28.7871  -13.6057   43.7758 C   0  0  0  0  0  0  0  0  0  0  0  0
   28.8969  -14.9725   43.5951 C   0  0  0  0  0  0  0  0  0  0  0  0
   27.8098  -15.4801   42.9916 N   0  0  0  0  0  0  0  0  0  0  0  0
   23.7594  -13.6346   41.2365 C   0  0  0  0  0  0  0  0  0  0  0  0
   23.0047  -17.1437   38.3330 N   0  0  0  0  0  0  0  0  0  0  0  0
   23.5409  -18.2142   37.6843 N   0  0  0  0  0  0  0  0  0  0  0  0
   23.6781  -17.8977   36.4030 C   0  0  0  0  0  0  0  0  0  0  0  0
   23.5664  -19.0018   34.0894 C   0  0  0  0  0  0  0  0  0  0  0  0
   24.9496  -18.9263   33.3835 C   0  0  0  0  0  0  0  0  0  0  0  0
   23.2149  -15.8206   35.1311 N   0  0  0  0  0  0  0  0  0  0  0  0
   24.3936  -13.6749   32.0546 H   0  0  0  0  0  0  0  0  0  0  0  0
   24.5254  -14.5137   30.6026 H   0  0  0  0  0  0  0  0  0  0  0  0
   24.0383  -12.9038   30.6026 H   0  0  0  0  0  0  0  0  0  0  0  0
   21.7647  -13.2824   38.8404 H   0  0  0  0  0  0  0  0  0  0  0  0
   21.2549  -14.6652   40.6889 H   0  0  0  0  0  0  0  0  0  0  0  0
   21.9187  -16.0913   39.8000 H   0  0  0  0  0  0  0  0  0  0  0  0
   23.8748  -16.9580   40.6511 H   0  0  0  0  0  0  0  0  0  0  0  0
   26.0698  -16.6835   41.7756 H   0  0  0  0  0  0  0  0  0  0  0  0
   27.1421  -12.2565   43.1738 H   0  0  0  0  0  0  0  0  0  0  0  0
   25.2439  -12.4960   42.3092 H   0  0  0  0  0  0  0  0  0  0  0  0
   24.2541  -19.6997   36.1646 H   0  0  0  0  0  0  0  0  0  0  0  0
   25.8076  -17.3893   34.7184 H   0  0  0  0  0  0  0  0  0  0  0  0
   26.5549  -18.8534   35.0073 H   0  0  0  0  0  0  0  0  0  0  0  0
   21.9438  -13.3554   31.0059 H   0  0  0  0  0  0  0  0  0  0  0  0
   22.4592  -15.0604   30.5290 H   0  0  0  0  0  0  0  0  0  0  0  0
   21.0810  -14.9113   32.5959 H   0  0  0  0  0  0  0  0  0  0  0  0
   22.6929  -15.7110   32.7584 H   0  0  0  0  0  0  0  0  0  0  0  0
   29.5191  -12.9332   44.2468 H   0  0  0  0  0  0  0  0  0  0  0  0
   29.7665  -15.5697   43.9068 H   0  0  0  0  0  0  0  0  0  0  0  0
   23.1143  -12.7599   41.0667 H   0  0  0  0  0  0  0  0  0  0  0  0
   22.7468  -17.1296   39.3301 H   0  0  0  0  0  0  0  0  0  0  0  0
   23.0388  -19.9560   33.9438 H   0  0  0  0  0  0  0  0  0  0  0  0
   22.7568  -18.3132   33.8057 H   0  0  0  0  0  0  0  0  0  0  0  0
   25.0008  -18.1866   32.5709 H   0  0  0  0  0  0  0  0  0  0  0  0
   25.3518  -19.7976   32.8458 H   0  0  0  0  0  0  0  0  0  0  0  0
  1 14  1  0
  2  3  1  0
  2  4  1  0
  3 10  2  0
  3 18  1  0
  4  5  1  0
  5  6  2  0
  5 24  1  0
  6  7  1  0
  7 19  2  0
  8 20  1  0
  8 21  2  0
  9 19  1  0
  9 24  2  0
 10 13  1  0
 10 25  1  0
 11 12  1  0
 11 27  1  0
 11 28  1  0
 12 29  1  0
 13 27  1  0
 13 30  2  0
 14 15  1  0
 15 16  1  0
 16 17  1  0
 17 18  2  0
 17 30  1  0
 19 20  1  0
 20 23  1  0
 21 22  1  0
 22 23  2  0
 25 26  1  0
 26 27  2  0
 28 29  1  0
  1 31  1  0
  1 32  1  0
  1 33  1  0
  2 34  1  0
  4 35  1  0
  4 36  1  0
  6 37  1  0
  7 38  1  0
  8 39  1  0
  9 40  1  0
 11 41  1  1
 12 42  1  0
 12 43  1  0
 14 44  1  0
 14 45  1  0
 15 46  1  0
 15 47  1  0
 21 48  1  0
 22 49  1  0
 24 50  1  0
 25 51  1  0
 28 52  1  0
 28 53  1  0
 29 54  1  0
 29 55  1  0
M  CHG  1   1   1
M  END
>  <filename_input>  (15) 
7QHL_D5P_docked.sdf

>  <pdb_id>  (15) 
7QHL_D5P

>  <pose_rank>  (15) 
14

>  <num_atoms_heavy>  (15) 
30

>  <num_torsions>  (15) 
8

>  <pose>  (15) 
[22.41141047183365, -14.780060800581369, 37.611158667049004, -0.9107966037076541, 0.908910038807244, 2.488905607444906, -0.12366525742832701, 3.412795897567593, 0.03537226008550762, 0.12121196850296383, -0.35106803846204815, -2.68522621011222, 2.2801242063410996, -0.29098557425504273]

>  <energy>  (15) 
-1020.4232378143723

>  <inter_energy>  (15) 
-1042.3286997181708

>  <intra_energy>  (15) 
39.72207285231674

>  <rmsd>  (15) 
3.94771

>  <sdf_rank>  (15) 
0

$$$$

     RDKit          3D

 55 59  0  0  0  0  0  0  0  0999 V2000
   25.1288  -10.8943   40.2909 N   0  0  0  0  0  0  0  0  0  0  0  0
   22.3756  -15.8908   38.1067 N   0  0  0  0  0  0  0  0  0  0  0  0
   22.4416  -14.9852   37.1158 C   0  0  0  0  0  0  0  0  0  0  0  0
   21.8533  -15.6024   39.4286 C   0  0  0  0  0  0  0  0  0  0  0  0
   22.9101  -14.9900   40.2987 C   0  0  0  0  0  0  0  0  0  0  0  0
   24.0782  -15.6690   40.5883 C   0  0  0  0  0  0  0  0  0  0  0  0
   25.0545  -15.1067   41.3891 C   0  0  0  0  0  0  0  0  0  0  0  0
   25.6457  -12.3984   43.8015 C   0  0  0  0  0  0  0  0  0  0  0  0
   23.6530  -13.1891   41.7074 C   0  0  0  0  0  0  0  0  0  0  0  0
   22.1988  -15.3484   35.7766 C   0  0  0  0  0  0  0  0  0  0  0  0
   22.1021  -14.4910   32.1689 C   0  0  1  0  0  0  0  0  0  0  0  0
   21.6735  -15.4717   31.0077 C   0  0  0  0  0  0  0  0  0  0  0  0
   22.3124  -14.3840   34.7690 C   0  0  0  0  0  0  0  0  0  0  0  0
   24.5456  -10.4238   39.0152 C   0  0  0  0  0  0  0  0  0  0  0  0
   23.2993  -11.1451   38.5608 C   0  0  0  0  0  0  0  0  0  0  0  0
   23.2025  -11.1919   36.7298 S   0  0  0  0  0  0  0  0  0  0  0  0
   22.8494  -12.8545   36.3485 C   0  0  0  0  0  0  0  0  0  0  0  0
   22.7200  -13.7050   37.4013 N   0  0  0  0  0  0  0  0  0  0  0  0
   24.8149  -13.8756   41.9712 C   0  0  0  0  0  0  0  0  0  0  0  0
   25.8069  -13.2766   42.7891 N   0  0  0  0  0  0  0  0  0  0  0  0
   26.8991  -12.0600   44.2488 C   0  0  0  0  0  0  0  0  0  0  0  0
   27.7751  -12.7432   43.4249 C   0  0  0  0  0  0  0  0  0  0  0  0
   27.1216  -13.4821   42.5134 N   0  0  0  0  0  0  0  0  0  0  0  0
   22.7035  -13.7485   40.8725 C   0  0  0  0  0  0  0  0  0  0  0  0
   21.8318  -16.4762   35.1499 N   0  0  0  0  0  0  0  0  0  0  0  0
   21.7904  -16.2798   33.8031 N   0  0  0  0  0  0  0  0  0  0  0  0
   22.0622  -15.0038   33.5606 C   0  0  0  0  0  0  0  0  0  0  0  0
   23.4699  -14.3720   31.5103 C   0  0  0  0  0  0  0  0  0  0  0  0
   22.9109  -15.0610   30.2336 C   0  0  0  0  0  0  0  0  0  0  0  0
   22.6491  -13.1047   35.0423 N   0  0  0  0  0  0  0  0  0  0  0  0
   24.6125  -10.4778   41.0788 H   0  0  0  0  0  0  0  0  0  0  0  0
   25.0620  -11.9209   40.3410 H   0  0  0  0  0  0  0  0  0  0  0  0
   26.1181  -10.6118   40.3410 H   0  0  0  0  0  0  0  0  0  0  0  0
   22.7153  -16.8444   37.9163 H   0  0  0  0  0  0  0  0  0  0  0  0
   21.0105  -14.9014   39.3380 H   0  0  0  0  0  0  0  0  0  0  0  0
   21.5211  -16.5446   39.8889 H   0  0  0  0  0  0  0  0  0  0  0  0
   24.2341  -16.6759   40.1738 H   0  0  0  0  0  0  0  0  0  0  0  0
   26.0066  -15.6301   41.5605 H   0  0  0  0  0  0  0  0  0  0  0  0
   24.6890  -12.0239   44.1948 H   0  0  0  0  0  0  0  0  0  0  0  0
   23.4800  -12.2006   42.1579 H   0  0  0  0  0  0  0  0  0  0  0  0
   21.5002  -13.5996   32.3994 H   0  0  0  0  0  0  0  0  0  0  0  0
   21.6522  -16.5329   31.2967 H   0  0  0  0  0  0  0  0  0  0  0  0
   20.6747  -15.4036   30.5519 H   0  0  0  0  0  0  0  0  0  0  0  0
   24.2969   -9.3584   39.1297 H   0  0  0  0  0  0  0  0  0  0  0  0
   25.3057  -10.6236   38.2456 H   0  0  0  0  0  0  0  0  0  0  0  0
   23.3179  -12.1749   38.9471 H   0  0  0  0  0  0  0  0  0  0  0  0
   22.4209  -10.6066   38.9459 H   0  0  0  0  0  0  0  0  0  0  0  0
   27.1522  -11.3894   45.0832 H   0  0  0  0  0  0  0  0  0  0  0  0
   28.8707  -12.6883   43.5060 H   0  0  0  0  0  0  0  0  0  0  0  0
   21.7734  -13.2001   40.6623 H   0  0  0  0  0  0  0  0  0  0  0  0
   21.6122  -17.3654   35.6211 H   0  0  0  0  0  0  0  0  0  0  0  0
   23.8042  -13.3360   31.3524 H   0  0  0  0  0  0  0  0  0  0  0  0
   24.3663  -14.7671   32.0106 H   0  0  0  0  0  0  0  0  0  0  0  0
   23.5183  -15.9049   29.8747 H   0  0  0  0  0  0  0  0  0  0  0  0
   22.8211  -14.5027   29.2901 H   0  0  0  0  0  0  0  0  0  0  0  0
  1 14  1  0
  2  3  1  0
  2  4  1  0
  3 10  2  0
  3 18  1  0
  4  5  1  0
  5  6  2  0
  5 24  1  0
  6  7  1  0
  7 19  2  0
  8 20  1  0
  8 21  2  0
  9 19  1  0
  9 24  2  0
 10 13  1  0
 10 25  1  0
 11 12  1  0
 11 27  1  0
 11 28  1  0
 12 29  1  0
 13 27  1  0
 13 30  2  0
 14 15  1  0
 15 16  1  0
 16 17  1  0
 17 18  2  0
 17 30  1  0
 19 20  1  0
 20 23  1  0
 21 22  1  0
 22 23  2  0
 25 26  1  0
 26 27  2  0
 28 29  1  0
  1 31  1  0
  1 32  1  0
  1 33  1  0
  2 34  1  0
  4 35  1  0
  4 36  1  0
  6 37  1  0
  7 38  1  0
  8 39  1  0
  9 40  1  0
 11 41  1  1
 12 42  1  0
 12 43  1  0
 14 44  1  0
 14 45  1  0
 15 46  1  0
 15 47  1  0
 21 48  1  0
 22 49  1  0
 24 50  1  0
 25 51  1  0
 28 52  1  0
 28 53  1  0
 29 54  1  0
 29 55  1  0
M  CHG  1   1   1
M  END
>  <filename_input>  (16) 
7QHL_D5P_docked.sdf

>  <pdb_id>  (16) 
7QHL_D5P

>  <pose_rank>  (16) 
15

>  <num_atoms_heavy>  (16) 
30

>  <num_torsions>  (16) 
8

>  <pose>  (16) 
[22.441577774085165, -14.985156822382184, 37.115805265723615, -0.1252682956802738, 0.6474403484994942, -4.007954989529542, 2.063377531261306, 0.9496162428743413, 3.2363654471979184, 1.129415732800423, 0.24547546213281207, 6.086778224871734, 1.0087368128629293, 2.490239997940691]

>  <energy>  (16) 
-797.0718067312362

>  <inter_energy>  (16) 
-851.6291159843277

>  <intra_energy>  (16) 
26.042057598590006

>  <rmsd>  (16) 
3.32679

>  <sdf_rank>  (16) 
0

$$$$

     RDKit          3D

 55 59  0  0  0  0  0  0  0  0999 V2000
   23.9589  -19.4371   32.5720 N   0  0  0  0  0  0  0  0  0  0  0  0
   21.9380  -14.2483   38.4433 N   0  0  0  0  0  0  0  0  0  0  0  0
   22.4265  -14.6108   37.2449 C   0  0  0  0  0  0  0  0  0  0  0  0
   21.4879  -15.1915   39.4489 C   0  0  0  0  0  0  0  0  0  0  0  0
   22.4982  -15.3219   40.5494 C   0  0  0  0  0  0  0  0  0  0  0  0
   22.3423  -16.2571   41.5547 C   0  0  0  0  0  0  0  0  0  0  0  0
   23.2724  -16.3803   42.5697 C   0  0  0  0  0  0  0  0  0  0  0  0
   26.1865  -16.6071   43.8610 C   0  0  0  0  0  0  0  0  0  0  0  0
   24.4995  -14.5473   41.6332 C   0  0  0  0  0  0  0  0  0  0  0  0
   22.0649  -13.9228   36.0700 C   0  0  0  0  0  0  0  0  0  0  0  0
   22.1666  -13.5684   32.3790 C   0  0  1  0  0  0  0  0  0  0  0  0
   21.9729  -14.9543   31.6472 C   0  0  0  0  0  0  0  0  0  0  0  0
   22.5668  -14.3530   34.8367 C   0  0  0  0  0  0  0  0  0  0  0  0
   23.6708  -18.3408   33.5227 C   0  0  0  0  0  0  0  0  0  0  0  0
   23.8955  -18.6637   34.9805 C   0  0  0  0  0  0  0  0  0  0  0  0
   24.8223  -17.3173   35.8126 S   0  0  0  0  0  0  0  0  0  0  0  0
   23.6897  -15.9977   35.9123 C   0  0  0  0  0  0  0  0  0  0  0  0
   23.2931  -15.6303   37.1599 N   0  0  0  0  0  0  0  0  0  0  0  0
   24.3332  -15.4946   42.6160 C   0  0  0  0  0  0  0  0  0  0  0  0
   25.3038  -15.6091   43.6439 N   0  0  0  0  0  0  0  0  0  0  0  0
   26.8743  -16.2981   45.0087 C   0  0  0  0  0  0  0  0  0  0  0  0
   26.3190  -15.1132   45.4565 C   0  0  0  0  0  0  0  0  0  0  0  0
   25.3432  -14.6849   44.6393 N   0  0  0  0  0  0  0  0  0  0  0  0
   23.5812  -14.4630   40.6032 C   0  0  0  0  0  0  0  0  0  0  0  0
   21.3115  -12.8483   35.7923 N   0  0  0  0  0  0  0  0  0  0  0  0
   21.2572  -12.6404   34.4477 N   0  0  0  0  0  0  0  0  0  0  0  0
   22.0341  -13.5392   33.8564 C   0  0  0  0  0  0  0  0  0  0  0  0
   23.5759  -13.5071   31.8056 C   0  0  0  0  0  0  0  0  0  0  0  0
   23.2341  -14.6849   30.8499 C   0  0  0  0  0  0  0  0  0  0  0  0
   23.3950  -15.4155   34.7362 N   0  0  0  0  0  0  0  0  0  0  0  0
   24.1844  -20.2951   33.0954 H   0  0  0  0  0  0  0  0  0  0  0  0
   23.1331  -19.6036   31.9793 H   0  0  0  0  0  0  0  0  0  0  0  0
   24.7598  -19.1760   31.9793 H   0  0  0  0  0  0  0  0  0  0  0  0
   21.8798  -13.2430   38.6601 H   0  0  0  0  0  0  0  0  0  0  0  0
   20.5363  -14.8389   39.8734 H   0  0  0  0  0  0  0  0  0  0  0  0
   21.3556  -16.1751   38.9745 H   0  0  0  0  0  0  0  0  0  0  0  0
   21.4614  -16.9159   41.5470 H   0  0  0  0  0  0  0  0  0  0  0  0
   23.1703  -17.1702   43.3284 H   0  0  0  0  0  0  0  0  0  0  0  0
   26.3282  -17.5008   43.2356 H   0  0  0  0  0  0  0  0  0  0  0  0
   25.3581  -13.8606   41.6665 H   0  0  0  0  0  0  0  0  0  0  0  0
   21.4507  -12.7480   32.2225 H   0  0  0  0  0  0  0  0  0  0  0  0
   22.0358  -15.8291   32.3112 H   0  0  0  0  0  0  0  0  0  0  0  0
   21.0270  -15.1976   31.1412 H   0  0  0  0  0  0  0  0  0  0  0  0
   24.3156  -17.4887   33.2618 H   0  0  0  0  0  0  0  0  0  0  0  0
   22.5953  -18.1323   33.4237 H   0  0  0  0  0  0  0  0  0  0  0  0
   22.9216  -18.7903   35.4758 H   0  0  0  0  0  0  0  0  0  0  0  0
   24.4842  -19.5905   35.0489 H   0  0  0  0  0  0  0  0  0  0  0  0
   27.6915  -16.8701   45.4723 H   0  0  0  0  0  0  0  0  0  0  0  0
   26.6371  -14.5870   46.3687 H   0  0  0  0  0  0  0  0  0  0  0  0
   23.7133  -13.7045   39.8176 H   0  0  0  0  0  0  0  0  0  0  0  0
   20.8405  -12.2629   36.4968 H   0  0  0  0  0  0  0  0  0  0  0  0
   23.8112  -12.5640   31.2906 H   0  0  0  0  0  0  0  0  0  0  0  0
   24.4512  -13.5631   32.4694 H   0  0  0  0  0  0  0  0  0  0  0  0
   23.9641  -15.5076   30.8701 H   0  0  0  0  0  0  0  0  0  0  0  0
   23.1858  -14.5272   29.7624 H   0  0  0  0  0  0  0  0  0  0  0  0
  1 14  1  0
  2  3  1  0
  2  4  1  0
  3 10  2  0
  3 18  1  0
  4  5  1  0
  5  6  2  0
  5 24  1  0
  6  7  1  0
  7 19  2  0
  8 20  1  0
  8 21  2  0
  9 19  1  0
  9 24  2  0
 10 13  1  0
 10 25  1  0
 11 12  1  0
 11 27  1  0
 11 28  1  0
 12 29  1  0
 13 27  1  0
 13 30  2  0
 14 15  1  0
 15 16  1  0
 16 17  1  0
 17 18  2  0
 17 30  1  0
 19 20  1  0
 20 23  1  0
 21 22  1  0
 22 23  2  0
 25 26  1  0
 26 27  2  0
 28 29  1  0
  1 31  1  0
  1 32  1  0
  1 33  1  0
  2 34  1  0
  4 35  1  0
  4 36  1  0
  6 37  1  0
  7 38  1  0
  8 39  1  0
  9 40  1  0
 11 41  1  6
 12 42  1  0
 12 43  1  0
 14 44  1  0
 14 45  1  0
 15 46  1  0
 15 47  1  0
 21 48  1  0
 22 49  1  0
 24 50  1  0
 25 51  1  0
 28 52  1  0
 28 53  1  0
 29 54  1  0
 29 55  1  0
M  CHG  1   1   1
M  END
>  <filename_input>  (17) 
7QHL_D5P_docked.sdf

>  <pdb_id>  (17) 
7QHL_D5P

>  <pose_rank>  (17) 
16

>  <num_atoms_heavy>  (17) 
30

>  <num_torsions>  (17) 
8

>  <pose>  (17) 
[22.426511187348762, -14.610758754406325, 37.244895197820746, 5.2430201828660525, 0.5894314024199862, 3.3763285846651767, -0.31206111466809827, 5.853228552974026, 6.5192299145808, -0.8518415014268416, 4.069933716000986, 1.7890262308090712, -0.04658402275253609, 1.136319908826643]

>  <energy>  (17) 
-1730.536076693556

>  <inter_energy>  (17) 
-1743.5555484013464

>  <intra_energy>  (17) 
14.63212748040802

>  <rmsd>  (17) 
1.93653

>  <sdf_rank>  (17) 
0

$$$$

     RDKit          3D

 55 59  0  0  0  0  0  0  0  0999 V2000
   24.3158  -20.8057   36.5198 N   0  0  0  0  0  0  0  0  0  0  0  0
   21.8921  -14.1915   38.5592 N   0  0  0  0  0  0  0  0  0  0  0  0
   22.3174  -14.6060   37.3535 C   0  0  0  0  0  0  0  0  0  0  0  0
   22.7460  -13.5425   39.5356 C   0  0  0  0  0  0  0  0  0  0  0  0
   23.4954  -14.5562   40.3476 C   0  0  0  0  0  0  0  0  0  0  0  0
   23.9870  -14.2450   41.6010 C   0  0  0  0  0  0  0  0  0  0  0  0
   24.6772  -15.1776   42.3522 C   0  0  0  0  0  0  0  0  0  0  0  0
   26.1646  -17.2794   43.7966 C   0  0  0  0  0  0  0  0  0  0  0  0
   24.4772  -16.7416   40.5477 C   0  0  0  0  0  0  0  0  0  0  0  0
   22.0131  -13.8833   36.1833 C   0  0  0  0  0  0  0  0  0  0  0  0
   22.0894  -13.5444   32.4901 C   0  0  1  0  0  0  0  0  0  0  0  0
   21.6374  -14.8684   31.7576 C   0  0  0  0  0  0  0  0  0  0  0  0
   22.4436  -14.3666   34.9426 C   0  0  0  0  0  0  0  0  0  0  0  0
   24.8029  -19.7807   37.4691 C   0  0  0  0  0  0  0  0  0  0  0  0
   24.0601  -18.4662   37.4497 C   0  0  0  0  0  0  0  0  0  0  0  0
   24.3776  -17.5594   35.8874 S   0  0  0  0  0  0  0  0  0  0  0  0
   23.3982  -16.1236   36.0031 C   0  0  0  0  0  0  0  0  0  0  0  0
   23.0657  -15.7143   37.2563 N   0  0  0  0  0  0  0  0  0  0  0  0
   24.9451  -16.4162   41.7991 C   0  0  0  0  0  0  0  0  0  0  0  0
   25.6442  -17.3909   42.5560 N   0  0  0  0  0  0  0  0  0  0  0  0
   26.7974  -18.4649   44.0794 C   0  0  0  0  0  0  0  0  0  0  0  0
   26.6544  -19.2336   42.9385 C   0  0  0  0  0  0  0  0  0  0  0  0
   25.9630  -18.5836   41.9882 N   0  0  0  0  0  0  0  0  0  0  0  0
   23.7544  -15.8106   39.8251 C   0  0  0  0  0  0  0  0  0  0  0  0
   21.3771  -12.7329   35.9157 N   0  0  0  0  0  0  0  0  0  0  0  0
   21.3228  -12.5212   34.5717 N   0  0  0  0  0  0  0  0  0  0  0  0
   21.9863  -13.4999   33.9696 C   0  0  0  0  0  0  0  0  0  0  0  0
   23.4779  -13.7357   31.8950 C   0  0  0  0  0  0  0  0  0  0  0  0
   22.9147  -14.8270   30.9415 C   0  0  0  0  0  0  0  0  0  0  0  0
   23.1487  -15.5134   34.8308 N   0  0  0  0  0  0  0  0  0  0  0  0
   23.9354  -21.6063   37.0444 H   0  0  0  0  0  0  0  0  0  0  0  0
   23.5769  -20.4012   35.9271 H   0  0  0  0  0  0  0  0  0  0  0  0
   25.0961  -21.1231   35.9271 H   0  0  0  0  0  0  0  0  0  0  0  0
   20.9032  -14.3433   38.8038 H   0  0  0  0  0  0  0  0  0  0  0  0
   23.4661  -12.8967   39.0118 H   0  0  0  0  0  0  0  0  0  0  0  0
   22.1165  -12.9457   40.2120 H   0  0  0  0  0  0  0  0  0  0  0  0
   23.8259  -13.2361   42.0086 H   0  0  0  0  0  0  0  0  0  0  0  0
   25.0081  -14.9383   43.3736 H   0  0  0  0  0  0  0  0  0  0  0  0
   26.0950  -16.4027   44.4574 H   0  0  0  0  0  0  0  0  0  0  0  0
   24.6768  -17.7369   40.1240 H   0  0  0  0  0  0  0  0  0  0  0  0
   21.5315  -12.6072   32.3472 H   0  0  0  0  0  0  0  0  0  0  0  0
   21.5509  -15.7437   32.4181 H   0  0  0  0  0  0  0  0  0  0  0  0
   20.6557  -14.9337   31.2658 H   0  0  0  0  0  0  0  0  0  0  0  0
   24.7272  -20.1969   38.4845 H   0  0  0  0  0  0  0  0  0  0  0  0
   25.8322  -19.5486   37.1584 H   0  0  0  0  0  0  0  0  0  0  0  0
   22.9813  -18.6606   37.5407 H   0  0  0  0  0  0  0  0  0  0  0  0
   24.4115  -17.8511   38.2913 H   0  0  0  0  0  0  0  0  0  0  0  0
   27.3082  -18.7434   45.0129 H   0  0  0  0  0  0  0  0  0  0  0  0
   27.0570  -20.2508   42.8238 H   0  0  0  0  0  0  0  0  0  0  0  0
   23.3810  -16.0702   38.8235 H   0  0  0  0  0  0  0  0  0  0  0  0
   20.9852  -12.0991   36.6268 H   0  0  0  0  0  0  0  0  0  0  0  0
   23.8722  -12.8478   31.3791 H   0  0  0  0  0  0  0  0  0  0  0  0
   24.3385  -13.9528   32.5449 H   0  0  0  0  0  0  0  0  0  0  0  0
   23.4840  -15.7682   30.9480 H   0  0  0  0  0  0  0  0  0  0  0  0
   22.8795  -14.6570   29.8553 H   0  0  0  0  0  0  0  0  0  0  0  0
  1 14  1  0
  2  3  1  0
  2  4  1  0
  3 10  2  0
  3 18  1  0
  4  5  1  0
  5  6  2  0
  5 24  1  0
  6  7  1  0
  7 19  2  0
  8 20  1  0
  8 21  2  0
  9 19  1  0
  9 24  2  0
 10 13  1  0
 10 25  1  0
 11 12  1  0
 11 27  1  0
 11 28  1  0
 12 29  1  0
 13 27  1  0
 13 30  2  0
 14 15  1  0
 15 16  1  0
 16 17  1  0
 17 18  2  0
 17 30  1  0
 19 20  1  0
 20 23  1  0
 21 22  1  0
 22 23  2  0
 25 26  1  0
 26 27  2  0
 28 29  1  0
  1 31  1  0
  1 32  1  0
  1 33  1  0
  2 34  1  0
  4 35  1  0
  4 36  1  0
  6 37  1  0
  7 38  1  0
  8 39  1  0
  9 40  1  0
 11 41  1  6
 12 42  1  0
 12 43  1  0
 14 44  1  0
 14 45  1  0
 15 46  1  0
 15 47  1  0
 21 48  1  0
 22 49  1  0
 24 50  1  0
 25 51  1  0
 28 52  1  0
 28 53  1  0
 29 54  1  0
 29 55  1  0
M  CHG  1   1   1
M  END
>  <filename_input>  (18) 
7QHL_D5P_docked.sdf

>  <pdb_id>  (18) 
7QHL_D5P

>  <pose_rank>  (18) 
17

>  <num_atoms_heavy>  (18) 
30

>  <num_torsions>  (18) 
8

>  <pose>  (18) 
[22.31739929602535, -14.605973527482826, 37.35353565451655, 0.9005182528657073, -0.8163445640454297, 6.039781724881528, -0.23961349285912947, -4.648491722329046, -3.048350634623233, -0.5576902575060234, 2.872848025212781, 0.21173878274726263, 1.8110440096566671, -2.4038387154612497]

>  <energy>  (18) 
-1782.6836213271847

>  <inter_energy>  (18) 
-1857.8744299583855

>  <intra_energy>  (18) 
57.48828654074688

>  <rmsd>  (18) 
2.03555

>  <sdf_rank>  (18) 
0

$$$$

     RDKit          3D

 55 59  0  0  0  0  0  0  0  0999 V2000
   24.1217  -19.6012   32.5551 N   0  0  0  0  0  0  0  0  0  0  0  0
   21.8170  -14.1107   38.5583 N   0  0  0  0  0  0  0  0  0  0  0  0
   22.2745  -14.5142   37.3607 C   0  0  0  0  0  0  0  0  0  0  0  0
   21.4994  -15.0156   39.6463 C   0  0  0  0  0  0  0  0  0  0  0  0
   22.7396  -15.4136   40.3895 C   0  0  0  0  0  0  0  0  0  0  0  0
   22.6845  -16.3025   41.4460 C   0  0  0  0  0  0  0  0  0  0  0  0
   23.8260  -16.6721   42.1322 C   0  0  0  0  0  0  0  0  0  0  0  0
   26.5785  -17.6662   42.9362 C   0  0  0  0  0  0  0  0  0  0  0  0
   25.1031  -15.1782   40.7610 C   0  0  0  0  0  0  0  0  0  0  0  0
   21.9309  -13.8293   36.1787 C   0  0  0  0  0  0  0  0  0  0  0  0
   22.0057  -13.5388   32.4814 C   0  0  1  0  0  0  0  0  0  0  0  0
   20.7907  -13.0056   31.6252 C   0  0  0  0  0  0  0  0  0  0  0  0
   22.3983  -14.3016   34.9472 C   0  0  0  0  0  0  0  0  0  0  0  0
   24.2707  -18.4019   33.4086 C   0  0  0  0  0  0  0  0  0  0  0  0
   23.6956  -18.5145   34.8002 C   0  0  0  0  0  0  0  0  0  0  0  0
   24.5277  -17.3500   35.9472 S   0  0  0  0  0  0  0  0  0  0  0  0
   23.4577  -15.9785   36.0375 C   0  0  0  0  0  0  0  0  0  0  0  0
   23.0928  -15.5736   37.2831 N   0  0  0  0  0  0  0  0  0  0  0  0
   25.0286  -16.0759   41.8001 C   0  0  0  0  0  0  0  0  0  0  0  0
   26.2134  -16.4472   42.4855 N   0  0  0  0  0  0  0  0  0  0  0  0
   27.7786  -17.5158   43.5866 C   0  0  0  0  0  0  0  0  0  0  0  0
   28.0569  -16.1623   43.5262 C   0  0  0  0  0  0  0  0  0  0  0  0
   27.0988  -15.4898   42.8678 N   0  0  0  0  0  0  0  0  0  0  0  0
   23.9584  -14.8490   40.0592 C   0  0  0  0  0  0  0  0  0  0  0  0
   21.2241  -12.7260   35.8915 N   0  0  0  0  0  0  0  0  0  0  0  0
   21.1637  -12.5373   34.5443 N   0  0  0  0  0  0  0  0  0  0  0  0
   21.8919  -13.4800   33.9596 C   0  0  0  0  0  0  0  0  0  0  0  0
   21.8218  -14.8995   31.8232 C   0  0  0  0  0  0  0  0  0  0  0  0
   20.8668  -14.2597   30.7763 C   0  0  0  0  0  0  0  0  0  0  0  0
   23.1761  -15.4023   34.8553 N   0  0  0  0  0  0  0  0  0  0  0  0
   24.0181  -20.4354   33.1502 H   0  0  0  0  0  0  0  0  0  0  0  0
   23.2871  -19.4978   31.9604 H   0  0  0  0  0  0  0  0  0  0  0  0
   24.9563  -19.7051   31.9604 H   0  0  0  0  0  0  0  0  0  0  0  0
   21.6842  -13.1009   38.7122 H   0  0  0  0  0  0  0  0  0  0  0  0
   20.8082  -14.5156   40.3407 H   0  0  0  0  0  0  0  0  0  0  0  0
   21.0348  -15.9203   39.2272 H   0  0  0  0  0  0  0  0  0  0  0  0
   21.7139  -16.7240   41.7466 H   0  0  0  0  0  0  0  0  0  0  0  0
   23.7786  -17.4283   42.9296 H   0  0  0  0  0  0  0  0  0  0  0  0
   26.0193  -18.6045   42.8067 H   0  0  0  0  0  0  0  0  0  0  0  0
   26.0679  -14.7248   40.4899 H   0  0  0  0  0  0  0  0  0  0  0  0
   22.9759  -13.0208   32.4596 H   0  0  0  0  0  0  0  0  0  0  0  0
   19.8526  -12.8977   32.1894 H   0  0  0  0  0  0  0  0  0  0  0  0
   20.8216  -12.0084   31.1620 H   0  0  0  0  0  0  0  0  0  0  0  0
   25.3450  -18.1854   33.5032 H   0  0  0  0  0  0  0  0  0  0  0  0
   23.6979  -17.6058   32.9105 H   0  0  0  0  0  0  0  0  0  0  0  0
   22.6212  -18.2807   34.7661 H   0  0  0  0  0  0  0  0  0  0  0  0
   23.8537  -19.5403   35.1644 H   0  0  0  0  0  0  0  0  0  0  0  0
   28.3878  -18.3028   44.0550 H   0  0  0  0  0  0  0  0  0  0  0  0
   28.9517  -15.6948   43.9630 H   0  0  0  0  0  0  0  0  0  0  0  0
   24.0175  -14.1300   39.2288 H   0  0  0  0  0  0  0  0  0  0  0  0
   20.7885  -12.1085   36.5914 H   0  0  0  0  0  0  0  0  0  0  0  0
   22.7433  -15.3195   31.3937 H   0  0  0  0  0  0  0  0  0  0  0  0
   21.4982  -15.7673   32.4167 H   0  0  0  0  0  0  0  0  0  0  0  0
   19.9072  -14.7850   30.6617 H   0  0  0  0  0  0  0  0  0  0  0  0
   21.1563  -14.2015   29.7166 H   0  0  0  0  0  0  0  0  0  0  0  0
  1 14  1  0
  2  3  1  0
  2  4  1  0
  3 10  2  0
  3 18  1  0
  4  5  1  0
  5  6  2  0
  5 24  1  0
  6  7  1  0
  7 19  2  0
  8 20  1  0
  8 21  2  0
  9 19  1  0
  9 24  2  0
 10 13  1  0
 10 25  1  0
 11 12  1  0
 11 27  1  0
 11 28  1  0
 12 29  1  0
 13 27  1  0
 13 30  2  0
 14 15  1  0
 15 16  1  0
 16 17  1  0
 17 18  2  0
 17 30  1  0
 19 20  1  0
 20 23  1  0
 21 22  1  0
 22 23  2  0
 25 26  1  0
 26 27  2  0
 28 29  1  0
  1 31  1  0
  1 32  1  0
  1 33  1  0
  2 34  1  0
  4 35  1  0
  4 36  1  0
  6 37  1  0
  7 38  1  0
  8 39  1  0
  9 40  1  0
 11 41  1  6
 12 42  1  0
 12 43  1  0
 14 44  1  0
 14 45  1  0
 15 46  1  0
 15 47  1  0
 21 48  1  0
 22 49  1  0
 24 50  1  0
 25 51  1  0
 28 52  1  0
 28 53  1  0
 29 54  1  0
 29 55  1  0
M  CHG  1   1   1
M  END
>  <filename_input>  (19) 
7QHL_D5P_docked.sdf

>  <pdb_id>  (19) 
7QHL_D5P

>  <pose_rank>  (19) 
18

>  <num_atoms_heavy>  (19) 
30

>  <num_torsions>  (19) 
8

>  <pose>  (19) 
[22.27453097200538, -14.514189997065602, 37.36073725179704, 3.0866532239247215, -0.9258428694359958, 5.317533533521915, 1.4435744879509118, 5.998211211830604, 6.122729772208534, -0.9261164459653163, 3.5576921842047935, 2.022330369906476, 0.4319493303667237, 1.5163708969067968]

>  <energy>  (19) 
-1727.309197846663

>  <inter_energy>  (19) 
-1773.686662357511

>  <intra_energy>  (19) 
40.055976614933364

>  <rmsd>  (19) 
2.06697

>  <sdf_rank>  (19) 
0

$$$$

     RDKit          3D

 55 59  0  0  0  0  0  0  0  0999 V2000
   22.8910  -13.0371   35.8500 N   0  0  0  0  0  0  0  0  0  0  0  0
   24.8954  -18.8127   40.3940 N   0  0  0  0  0  0  0  0  0  0  0  0
   24.3837  -18.0339   39.4255 C   0  0  0  0  0  0  0  0  0  0  0  0
   26.3086  -18.8781   40.7131 C   0  0  0  0  0  0  0  0  0  0  0  0
   26.5191  -18.9431   42.1964 C   0  0  0  0  0  0  0  0  0  0  0  0
   27.0394  -20.0748   42.7948 C   0  0  0  0  0  0  0  0  0  0  0  0
   27.2354  -20.1373   44.1616 C   0  0  0  0  0  0  0  0  0  0  0  0
   26.3625  -19.8390   47.2737 C   0  0  0  0  0  0  0  0  0  0  0  0
   26.2936  -17.9437   44.3713 C   0  0  0  0  0  0  0  0  0  0  0  0
   24.7000  -18.2507   38.0700 C   0  0  0  0  0  0  0  0  0  0  0  0
   24.4950  -17.2364   34.5079 C   0  0  1  0  0  0  0  0  0  0  0  0
   23.8848  -15.7853   34.3827 C   0  0  0  0  0  0  0  0  0  0  0  0
   24.1755  -17.3960   37.0941 C   0  0  0  0  0  0  0  0  0  0  0  0
   22.2762  -13.0389   37.1957 C   0  0  0  0  0  0  0  0  0  0  0  0
   21.4705  -14.2673   37.5447 C   0  0  0  0  0  0  0  0  0  0  0  0
   22.0095  -14.9671   39.1522 S   0  0  0  0  0  0  0  0  0  0  0  0
   23.1160  -16.2442   38.7292 C   0  0  0  0  0  0  0  0  0  0  0  0
   23.5369  -17.0444   39.7446 N   0  0  0  0  0  0  0  0  0  0  0  0
   26.8266  -19.0739   44.9452 C   0  0  0  0  0  0  0  0  0  0  0  0
   27.0266  -19.1137   46.3488 N   0  0  0  0  0  0  0  0  0  0  0  0
   26.8733  -19.4965   48.5015 C   0  0  0  0  0  0  0  0  0  0  0  0
   27.8181  -18.5203   48.2419 C   0  0  0  0  0  0  0  0  0  0  0  0
   27.9135  -18.2621   46.9274 N   0  0  0  0  0  0  0  0  0  0  0  0
   26.1405  -17.8817   42.9986 C   0  0  0  0  0  0  0  0  0  0  0  0
   25.4229  -19.1582   37.3969 N   0  0  0  0  0  0  0  0  0  0  0  0
   25.4379  -18.8631   36.0676 N   0  0  0  0  0  0  0  0  0  0  0  0
   24.6652  -17.8028   35.8687 C   0  0  0  0  0  0  0  0  0  0  0  0
   23.3281  -17.7561   33.6791 C   0  0  0  0  0  0  0  0  0  0  0  0
   22.9486  -16.2956   33.3047 C   0  0  0  0  0  0  0  0  0  0  0  0
   23.3677  -16.3614   37.4132 N   0  0  0  0  0  0  0  0  0  0  0  0
   23.9170  -13.0341   35.9413 H   0  0  0  0  0  0  0  0  0  0  0  0
   22.5945  -13.8790   35.3360 H   0  0  0  0  0  0  0  0  0  0  0  0
   22.5897  -12.1970   35.3360 H   0  0  0  0  0  0  0  0  0  0  0  0
   24.2467  -19.3967   40.9409 H   0  0  0  0  0  0  0  0  0  0  0  0
   26.7419  -19.7758   40.2480 H   0  0  0  0  0  0  0  0  0  0  0  0
   26.7985  -17.9717   40.3277 H   0  0  0  0  0  0  0  0  0  0  0  0
   27.3025  -20.9422   42.1717 H   0  0  0  0  0  0  0  0  0  0  0  0
   27.7090  -21.0187   44.6185 H   0  0  0  0  0  0  0  0  0  0  0  0
   25.5619  -20.5680   47.0799 H   0  0  0  0  0  0  0  0  0  0  0  0
   25.9907  -17.0939   45.0006 H   0  0  0  0  0  0  0  0  0  0  0  0
   25.5365  -17.4330   34.2133 H   0  0  0  0  0  0  0  0  0  0  0  0
   23.3771  -15.4283   35.2908 H   0  0  0  0  0  0  0  0  0  0  0  0
   24.5325  -14.9149   34.2014 H   0  0  0  0  0  0  0  0  0  0  0  0
   23.0836  -12.9423   37.9365 H   0  0  0  0  0  0  0  0  0  0  0  0
   21.5638  -12.2008   37.2015 H   0  0  0  0  0  0  0  0  0  0  0  0
   20.4069  -13.9943   37.6091 H   0  0  0  0  0  0  0  0  0  0  0  0
   21.6258  -15.0241   36.7617 H   0  0  0  0  0  0  0  0  0  0  0  0
   26.5915  -19.9099   49.4812 H   0  0  0  0  0  0  0  0  0  0  0  0
   28.4168  -18.0178   49.0159 H   0  0  0  0  0  0  0  0  0  0  0  0
   25.7130  -16.9782   42.5394 H   0  0  0  0  0  0  0  0  0  0  0  0
   25.8996  -19.9647   37.8250 H   0  0  0  0  0  0  0  0  0  0  0  0
   23.6269  -18.3769   32.8215 H   0  0  0  0  0  0  0  0  0  0  0  0
   22.5820  -18.4293   34.1265 H   0  0  0  0  0  0  0  0  0  0  0  0
   21.8902  -16.0480   33.4733 H   0  0  0  0  0  0  0  0  0  0  0  0
   23.0430  -15.9411   32.2677 H   0  0  0  0  0  0  0  0  0  0  0  0
  1 14  1  0
  2  3  1  0
  2  4  1  0
  3 10  2  0
  3 18  1  0
  4  5  1  0
  5  6  2  0
  5 24  1  0
  6  7  1  0
  7 19  2  0
  8 20  1  0
  8 21  2  0
  9 19  1  0
  9 24  2  0
 10 13  1  0
 10 25  1  0
 11 12  1  0
 11 27  1  0
 11 28  1  0
 12 29  1  0
 13 27  1  0
 13 30  2  0
 14 15  1  0
 15 16  1  0
 16 17  1  0
 17 18  2  0
 17 30  1  0
 19 20  1  0
 20 23  1  0
 21 22  1  0
 22 23  2  0
 25 26  1  0
 26 27  2  0
 28 29  1  0
  1 31  1  0
  1 32  1  0
  1 33  1  0
  2 34  1  0
  4 35  1  0
  4 36  1  0
  6 37  1  0
  7 38  1  0
  8 39  1  0
  9 40  1  0
 11 41  1  6
 12 42  1  0
 12 43  1  0
 14 44  1  0
 14 45  1  0
 15 46  1  0
 15 47  1  0
 21 48  1  0
 22 49  1  0
 24 50  1  0
 25 51  1  0
 28 52  1  0
 28 53  1  0
 29 54  1  0
 29 55  1  0
M  CHG  1   1   1
M  END
>  <filename_input>  (20) 
7QHL_D5P_docked.sdf

>  <pdb_id>  (20) 
7QHL_D5P

>  <pose_rank>  (20) 
19

>  <num_atoms_heavy>  (20) 
30

>  <num_torsions>  (20) 
8

>  <pose>  (20) 
[24.383660738931404, -18.0339138798075, 39.425503245700504, 0.05144606441323054, -0.6011382449363543, 3.0564573271305577, -0.9104858073609408, 4.57677484996869, 32.27666828182102, 4.159011140914675, 7.915852220737338, 3.0798492973902882, -2.9801761074027175, 1.0393378680955987]

>  <energy>  (20) 
-435.06729771536845

>  <inter_energy>  (20) 
-444.42265117634633

>  <intra_energy>  (20) 
18.487648640978296

>  <rmsd>  (20) 
5.52935

>  <sdf_rank>  (20) 
0

$$$$

     RDKit          3D

 55 59  0  0  0  0  0  0  0  0999 V2000
   24.8928  -20.6902   37.2252 N   0  0  0  0  0  0  0  0  0  0  0  0
   21.6764  -14.2205   38.4629 N   0  0  0  0  0  0  0  0  0  0  0  0
   22.1689  -14.4996   37.2440 C   0  0  0  0  0  0  0  0  0  0  0  0
   22.1666  -13.1449   39.3033 C   0  0  0  0  0  0  0  0  0  0  0  0
   23.3265  -13.6035   40.1358 C   0  0  0  0  0  0  0  0  0  0  0  0
   23.7641  -14.9134   40.0906 C   0  0  0  0  0  0  0  0  0  0  0  0
   24.8336  -15.3388   40.8560 C   0  0  0  0  0  0  0  0  0  0  0  0
   27.8406  -14.6843   42.2913 C   0  0  0  0  0  0  0  0  0  0  0  0
   24.9902  -13.1460   41.8099 C   0  0  0  0  0  0  0  0  0  0  0  0
   21.7794  -13.7583   36.1112 C   0  0  0  0  0  0  0  0  0  0  0  0
   21.8486  -13.1939   32.4456 C   0  0  1  0  0  0  0  0  0  0  0  0
   21.0154  -14.2293   31.5927 C   0  0  0  0  0  0  0  0  0  0  0  0
   22.2872  -14.1026   34.8535 C   0  0  0  0  0  0  0  0  0  0  0  0
   24.6001  -19.7670   36.1067 C   0  0  0  0  0  0  0  0  0  0  0  0
   23.8796  -18.4940   36.4812 C   0  0  0  0  0  0  0  0  0  0  0  0
   24.6390  -17.0452   35.6517 S   0  0  0  0  0  0  0  0  0  0  0  0
   23.4667  -15.7692   35.8302 C   0  0  0  0  0  0  0  0  0  0  0  0
   23.0662  -15.4852   37.0981 N   0  0  0  0  0  0  0  0  0  0  0  0
   25.4193  -14.4505   41.7391 C   0  0  0  0  0  0  0  0  0  0  0  0
   26.5236  -14.8638   42.5273 N   0  0  0  0  0  0  0  0  0  0  0  0
   28.5236  -15.3111   43.3044 C   0  0  0  0  0  0  0  0  0  0  0  0
   27.5480  -15.8888   44.0965 C   0  0  0  0  0  0  0  0  0  0  0  0
   26.3159  -15.6374   43.6251 N   0  0  0  0  0  0  0  0  0  0  0  0
   23.9445  -12.7263   41.0087 C   0  0  0  0  0  0  0  0  0  0  0  0
   20.9915  -12.6939   35.8976 N   0  0  0  0  0  0  0  0  0  0  0  0
   20.9230  -12.4125   34.5670 N   0  0  0  0  0  0  0  0  0  0  0  0
   21.7239  -13.2520   33.9229 C   0  0  0  0  0  0  0  0  0  0  0  0
   23.1178  -13.7690   31.8316 C   0  0  0  0  0  0  0  0  0  0  0  0
   22.2604  -14.5293   30.7809 C   0  0  0  0  0  0  0  0  0  0  0  0
   23.1473  -15.1313   34.6900 N   0  0  0  0  0  0  0  0  0  0  0  0
   24.7388  -20.2046   38.1204 H   0  0  0  0  0  0  0  0  0  0  0  0
   24.2700  -21.5085   37.1670 H   0  0  0  0  0  0  0  0  0  0  0  0
   25.8733  -21.0001   37.1670 H   0  0  0  0  0  0  0  0  0  0  0  0
   20.9066  -14.8039   38.8207 H   0  0  0  0  0  0  0  0  0  0  0  0
   22.4889  -12.3082   38.6661 H   0  0  0  0  0  0  0  0  0  0  0  0
   21.3560  -12.8258   39.9749 H   0  0  0  0  0  0  0  0  0  0  0  0
   23.2516  -15.6312   39.4333 H   0  0  0  0  0  0  0  0  0  0  0  0
   25.2126  -16.3673   40.7641 H   0  0  0  0  0  0  0  0  0  0  0  0
   28.2837  -14.1380   41.4457 H   0  0  0  0  0  0  0  0  0  0  0  0
   25.4760  -12.4405   42.5000 H   0  0  0  0  0  0  0  0  0  0  0  0
   21.6262  -12.1179   32.3931 H   0  0  0  0  0  0  0  0  0  0  0  0
   20.6333  -15.0855   32.1679 H   0  0  0  0  0  0  0  0  0  0  0  0
   20.0791  -13.9295   31.0993 H   0  0  0  0  0  0  0  0  0  0  0  0
   25.5559  -19.4893   35.6385 H   0  0  0  0  0  0  0  0  0  0  0  0
   23.9181  -20.3124   35.4378 H   0  0  0  0  0  0  0  0  0  0  0  0
   22.8259  -18.5730   36.1754 H   0  0  0  0  0  0  0  0  0  0  0  0
   23.9537  -18.3550   37.5699 H   0  0  0  0  0  0  0  0  0  0  0  0
   29.6129  -15.3463   43.4538 H   0  0  0  0  0  0  0  0  0  0  0  0
   27.7555  -16.4805   45.0003 H   0  0  0  0  0  0  0  0  0  0  0  0
   23.6002  -11.6832   41.0661 H   0  0  0  0  0  0  0  0  0  0  0  0
   20.5067  -12.1641   36.6359 H   0  0  0  0  0  0  0  0  0  0  0  0
   23.7912  -13.0135   31.4007 H   0  0  0  0  0  0  0  0  0  0  0  0
   23.8442  -14.3100   32.4559 H   0  0  0  0  0  0  0  0  0  0  0  0
   22.4961  -15.6005   30.6971 H   0  0  0  0  0  0  0  0  0  0  0  0
   22.3123  -14.2600   29.7156 H   0  0  0  0  0  0  0  0  0  0  0  0
  1 14  1  0
  2  3  1  0
  2  4  1  0
  3 10  2  0
  3 18  1  0
  4  5  1  0
  5  6  2  0
  5 24  1  0
  6  7  1  0
  7 19  2  0
  8 20  1  0
  8 21  2  0
  9 19  1  0
  9 24  2  0
 10 13  1  0
 10 25  1  0
 11 12  1  0
 11 27  1  0
 11 28  1  0
 12 29  1  0
 13 27  1  0
 13 30  2  0
 14 15  1  0
 15 16  1  0
 16 17  1  0
 17 18  2  0
 17 30  1  0
 19 20  1  0
 20 23  1  0
 21 22  1  0
 22 23  2  0
 25 26  1  0
 26 27  2  0
 28 29  1  0
  1 31  1  0
  1 32  1  0
  1 33  1  0
  2 34  1  0
  4 35  1  0
  4 36  1  0
  6 37  1  0
  7 38  1  0
  8 39  1  0
  9 40  1  0
 11 41  1  6
 12 42  1  0
 12 43  1  0
 14 44  1  0
 14 45  1  0
 15 46  1  0
 15 47  1  0
 21 48  1  0
 22 49  1  0
 24 50  1  0
 25 51  1  0
 28 52  1  0
 28 53  1  0
 29 54  1  0
 29 55  1  0
M  CHG  1   1   1
M  END
>  <filename_input>  (21) 
7QHL_D5P_docked.sdf

>  <pdb_id>  (21) 
7QHL_D5P

>  <pose_rank>  (21) 
20

>  <num_atoms_heavy>  (21) 
30

>  <num_torsions>  (21) 
8

>  <pose>  (21) 
[22.168944171056985, -14.499589073905707, 37.243963295475126, 5.61171204612894, 0.4394804397533227, 2.8923394688856083, 0.23067860568538415, 2.042581817462895, 3.1866035896178975, 2.1355242686599434, -1.6792210996138228, 0.7628781874664653, 1.596696388154602, 1.1626513999900616]

>  <energy>  (21) 
-1662.3123447228286

>  <inter_energy>  (21) 
-1681.2650327913057

>  <intra_energy>  (21) 
26.81440444789135

>  <rmsd>  (21) 
1.12181

>  <sdf_rank>  (21) 
0

$$$$

     RDKit          3D

 55 59  0  0  0  0  0  0  0  0999 V2000
   24.6711  -20.6866   37.0220 N   0  0  0  0  0  0  0  0  0  0  0  0
   21.8575  -14.1848   38.6321 N   0  0  0  0  0  0  0  0  0  0  0  0
   22.2882  -14.5908   37.4254 C   0  0  0  0  0  0  0  0  0  0  0  0
   22.7126  -13.5656   39.6265 C   0  0  0  0  0  0  0  0  0  0  0  0
   23.3062  -14.5978   40.5381 C   0  0  0  0  0  0  0  0  0  0  0  0
   24.2032  -14.2449   41.5281 C   0  0  0  0  0  0  0  0  0  0  0  0
   24.7512  -15.1939   42.3705 C   0  0  0  0  0  0  0  0  0  0  0  0
   25.4849  -17.3704   44.2685 C   0  0  0  0  0  0  0  0  0  0  0  0
   23.5727  -16.9016   41.1716 C   0  0  0  0  0  0  0  0  0  0  0  0
   21.9604  -13.8785   36.2550 C   0  0  0  0  0  0  0  0  0  0  0  0
   22.0124  -13.5453   32.5610 C   0  0  1  0  0  0  0  0  0  0  0  0
   21.7169  -14.9202   31.8424 C   0  0  0  0  0  0  0  0  0  0  0  0
   22.3979  -14.3532   35.0135 C   0  0  0  0  0  0  0  0  0  0  0  0
   25.2222  -19.4858   37.6879 C   0  0  0  0  0  0  0  0  0  0  0  0
   24.3577  -18.2494   37.6261 C   0  0  0  0  0  0  0  0  0  0  0  0
   24.4172  -17.4933   35.9561 S   0  0  0  0  0  0  0  0  0  0  0  0
   23.4018  -16.0830   36.0733 C   0  0  0  0  0  0  0  0  0  0  0  0
   23.0642  -15.6798   37.3271 N   0  0  0  0  0  0  0  0  0  0  0  0
   24.4522  -16.5274   42.1603 C   0  0  0  0  0  0  0  0  0  0  0  0
   24.9966  -17.5166   43.0185 N   0  0  0  0  0  0  0  0  0  0  0  0
   25.9530  -18.5982   44.6676 C   0  0  0  0  0  0  0  0  0  0  0  0
   25.7525  -19.4329   43.5831 C   0  0  0  0  0  0  0  0  0  0  0  0
   25.1811  -18.7814   42.5571 N   0  0  0  0  0  0  0  0  0  0  0  0
   23.0028  -15.9360   40.3628 C   0  0  0  0  0  0  0  0  0  0  0  0
   21.2941  -12.7454   35.9880 N   0  0  0  0  0  0  0  0  0  0  0  0
   21.2286  -12.5378   34.6438 N   0  0  0  0  0  0  0  0  0  0  0  0
   21.9145  -13.5005   34.0408 C   0  0  0  0  0  0  0  0  0  0  0  0
   23.4099  -13.5748   31.9569 C   0  0  0  0  0  0  0  0  0  0  0  0
   22.9747  -14.7338   31.0163 C   0  0  0  0  0  0  0  0  0  0  0  0
   23.1318  -15.4817   34.9008 N   0  0  0  0  0  0  0  0  0  0  0  0
   24.3610  -21.3625   37.7347 H   0  0  0  0  0  0  0  0  0  0  0  0
   23.8701  -20.4159   36.4339 H   0  0  0  0  0  0  0  0  0  0  0  0
   25.3987  -21.1174   36.4339 H   0  0  0  0  0  0  0  0  0  0  0  0
   20.8633  -14.3213   38.8639 H   0  0  0  0  0  0  0  0  0  0  0  0
   23.5242  -13.0250   39.1175 H   0  0  0  0  0  0  0  0  0  0  0  0
   22.1072  -12.8715   40.2280 H   0  0  0  0  0  0  0  0  0  0  0  0
   24.4865  -13.1888   41.6482 H   0  0  0  0  0  0  0  0  0  0  0  0
   25.4145  -14.8931   43.1949 H   0  0  0  0  0  0  0  0  0  0  0  0
   25.5044  -16.4415   44.8573 H   0  0  0  0  0  0  0  0  0  0  0  0
   23.3240  -17.9630   41.0251 H   0  0  0  0  0  0  0  0  0  0  0  0
   21.3456  -12.6828   32.4149 H   0  0  0  0  0  0  0  0  0  0  0  0
   21.7400  -15.7938   32.5105 H   0  0  0  0  0  0  0  0  0  0  0  0
   20.7468  -15.1066   31.3585 H   0  0  0  0  0  0  0  0  0  0  0  0
   25.3854  -19.7317   38.7476 H   0  0  0  0  0  0  0  0  0  0  0  0
   26.1436  -19.2357   37.1416 H   0  0  0  0  0  0  0  0  0  0  0  0
   23.3187  -18.5241   37.8604 H   0  0  0  0  0  0  0  0  0  0  0  0
   24.7356  -17.5190   38.3567 H   0  0  0  0  0  0  0  0  0  0  0  0
   26.3928  -18.8614   45.6409 H   0  0  0  0  0  0  0  0  0  0  0  0
   26.0270  -20.4979   43.5634 H   0  0  0  0  0  0  0  0  0  0  0  0
   22.3002  -16.2351   39.5710 H   0  0  0  0  0  0  0  0  0  0  0  0
   20.8890  -12.1204   36.6995 H   0  0  0  0  0  0  0  0  0  0  0  0
   23.6919  -12.6507   31.4310 H   0  0  0  0  0  0  0  0  0  0  0  0
   24.2944  -13.6818   32.6019 H   0  0  0  0  0  0  0  0  0  0  0  0
   23.6524  -15.6002   31.0260 H   0  0  0  0  0  0  0  0  0  0  0  0
   22.9123  -14.5788   29.9291 H   0  0  0  0  0  0  0  0  0  0  0  0
  1 14  1  0
  2  3  1  0
  2  4  1  0
  3 10  2  0
  3 18  1  0
  4  5  1  0
  5  6  2  0
  5 24  1  0
  6  7  1  0
  7 19  2  0
  8 20  1  0
  8 21  2  0
  9 19  1  0
  9 24  2  0
 10 13  1  0
 10 25  1  0
 11 12  1  0
 11 27  1  0
 11 28  1  0
 12 29  1  0
 13 27  1  0
 13 30  2  0
 14 15  1  0
 15 16  1  0
 16 17  1  0
 17 18  2  0
 17 30  1  0
 19 20  1  0
 20 23  1  0
 21 22  1  0
 22 23  2  0
 25 26  1  0
 26 27  2  0
 28 29  1  0
  1 31  1  0
  1 32  1  0
  1 33  1  0
  2 34  1  0
  4 35  1  0
  4 36  1  0
  6 37  1  0
  7 38  1  0
  8 39  1  0
  9 40  1  0
 11 41  1  6
 12 42  1  0
 12 43  1  0
 14 44  1  0
 14 45  1  0
 15 46  1  0
 15 47  1  0
 21 48  1  0
 22 49  1  0
 24 50  1  0
 25 51  1  0
 28 52  1  0
 28 53  1  0
 29 54  1  0
 29 55  1  0
M  CHG  1   1   1
M  END
>  <filename_input>  (22) 
7QHL_D5P_docked.sdf

>  <pdb_id>  (22) 
7QHL_D5P

>  <pose_rank>  (22) 
21

>  <num_atoms_heavy>  (22) 
30

>  <num_torsions>  (22) 
8

>  <pose>  (22) 
[22.288169510731315, -14.590768453023077, 37.42538381388747, 1.2761615426607213, -1.2633037239787295, 5.91827352246461, -0.33390815551531106, -4.698094134157438, -3.1668326707932284, -1.009017709889866, 3.282857990595447, 0.045228901557113704, 1.8730609333790489, -2.5085301343171738]

>  <energy>  (22) 
-1790.0360381803703

>  <inter_energy>  (22) 
-1830.129425525386

>  <intra_energy>  (22) 
26.180482649280375

>  <rmsd>  (22) 
2.22025

>  <sdf_rank>  (22) 
0

$$$$

     RDKit          3D

 55 59  0  0  0  0  0  0  0  0999 V2000
   22.6510  -16.4681   41.8837 N   0  0  0  0  0  0  0  0  0  0  0  0
   24.7936  -19.0388   36.1250 N   0  0  0  0  0  0  0  0  0  0  0  0
   24.1123  -17.8864   36.2433 C   0  0  0  0  0  0  0  0  0  0  0  0
   26.1826  -19.1155   35.7146 C   0  0  0  0  0  0  0  0  0  0  0  0
   26.3552  -20.0966   34.5938 C   0  0  0  0  0  0  0  0  0  0  0  0
   26.8591  -19.7006   33.3695 C   0  0  0  0  0  0  0  0  0  0  0  0
   27.0203  -20.6029   32.3349 C   0  0  0  0  0  0  0  0  0  0  0  0
   26.7654  -24.1979   31.5417 C   0  0  0  0  0  0  0  0  0  0  0  0
   26.0755  -22.3175   33.7170 C   0  0  0  0  0  0  0  0  0  0  0  0
   23.7708  -17.1201   35.1117 C   0  0  0  0  0  0  0  0  0  0  0  0
   22.3204  -14.0535   33.6108 C   0  0  1  0  0  0  0  0  0  0  0  0
   20.8251  -14.0577   33.1030 C   0  0  0  0  0  0  0  0  0  0  0  0
   23.0922  -15.9077   35.2789 C   0  0  0  0  0  0  0  0  0  0  0  0
   23.8914  -15.7410   41.5346 C   0  0  0  0  0  0  0  0  0  0  0  0
   24.1581  -15.5750   40.0577 C   0  0  0  0  0  0  0  0  0  0  0  0
   22.6041  -15.7141   39.0934 S   0  0  0  0  0  0  0  0  0  0  0  0
   23.1098  -16.2522   37.5158 C   0  0  0  0  0  0  0  0  0  0  0  0
   23.7262  -17.4625   37.4554 N   0  0  0  0  0  0  0  0  0  0  0  0
   26.5928  -21.9060   32.5111 C   0  0  0  0  0  0  0  0  0  0  0  0
   26.7570  -22.8501   31.4656 N   0  0  0  0  0  0  0  0  0  0  0  0
   27.0164  -24.6743   30.2785 C   0  0  0  0  0  0  0  0  0  0  0  0
   27.1935  -23.5486   29.4947 C   0  0  0  0  0  0  0  0  0  0  0  0
   27.0535  -22.4210   30.2107 N   0  0  0  0  0  0  0  0  0  0  0  0
   25.9574  -21.4116   34.7546 C   0  0  0  0  0  0  0  0  0  0  0  0
   23.9176  -17.2658   33.7864 N   0  0  0  0  0  0  0  0  0  0  0  0
   23.4379  -16.1724   33.1318 N   0  0  0  0  0  0  0  0  0  0  0  0
   22.9148  -15.3469   34.0295 C   0  0  0  0  0  0  0  0  0  0  0  0
   22.7384  -13.5026   32.2542 C   0  0  0  0  0  0  0  0  0  0  0  0
   21.2485  -13.2131   31.9171 C   0  0  0  0  0  0  0  0  0  0  0  0
   22.7505  -15.4455   36.5013 N   0  0  0  0  0  0  0  0  0  0  0  0
   22.5609  -16.5209   42.9084 H   0  0  0  0  0  0  0  0  0  0  0  0
   21.8391  -15.9692   41.4929 H   0  0  0  0  0  0  0  0  0  0  0  0
   22.6896  -17.4203   41.4929 H   0  0  0  0  0  0  0  0  0  0  0  0
   24.3011  -19.9180   36.3381 H   0  0  0  0  0  0  0  0  0  0  0  0
   26.5141  -18.1221   35.3781 H   0  0  0  0  0  0  0  0  0  0  0  0
   26.7847  -19.4511   36.5718 H   0  0  0  0  0  0  0  0  0  0  0  0
   27.1371  -18.6476   33.2154 H   0  0  0  0  0  0  0  0  0  0  0  0
   27.4813  -20.2894   31.3867 H   0  0  0  0  0  0  0  0  0  0  0  0
   26.6018  -24.8016   32.4466 H   0  0  0  0  0  0  0  0  0  0  0  0
   25.7576  -23.3615   33.8551 H   0  0  0  0  0  0  0  0  0  0  0  0
   22.5931  -13.5393   34.5442 H   0  0  0  0  0  0  0  0  0  0  0  0
   20.4411  -15.0531   32.8353 H   0  0  0  0  0  0  0  0  0  0  0  0
   20.0051  -13.7348   33.7613 H   0  0  0  0  0  0  0  0  0  0  0  0
   23.8329  -14.7380   41.9825 H   0  0  0  0  0  0  0  0  0  0  0  0
   24.7182  -16.3544   41.9220 H   0  0  0  0  0  0  0  0  0  0  0  0
   24.6044  -14.5853   39.8811 H   0  0  0  0  0  0  0  0  0  0  0  0
   24.8460  -16.3696   39.7329 H   0  0  0  0  0  0  0  0  0  0  0  0
   27.0659  -25.7256   29.9586 H   0  0  0  0  0  0  0  0  0  0  0  0
   27.4208  -23.5737   28.4188 H   0  0  0  0  0  0  0  0  0  0  0  0
   25.5426  -21.7403   35.7189 H   0  0  0  0  0  0  0  0  0  0  0  0
   24.3344  -18.0889   33.3283 H   0  0  0  0  0  0  0  0  0  0  0  0
   23.3698  -12.6036   32.3092 H   0  0  0  0  0  0  0  0  0  0  0  0
   23.3574  -14.1057   31.5737 H   0  0  0  0  0  0  0  0  0  0  0  0
   20.9221  -13.6078   30.9436 H   0  0  0  0  0  0  0  0  0  0  0  0
   20.8897  -12.1788   31.8101 H   0  0  0  0  0  0  0  0  0  0  0  0
  1 14  1  0
  2  3  1  0
  2  4  1  0
  3 10  2  0
  3 18  1  0
  4  5  1  0
  5  6  2  0
  5 24  1  0
  6  7  1  0
  7 19  2  0
  8 20  1  0
  8 21  2  0
  9 19  1  0
  9 24  2  0
 10 13  1  0
 10 25  1  0
 11 12  1  0
 11 27  1  0
 11 28  1  0
 12 29  1  0
 13 27  1  0
 13 30  2  0
 14 15  1  0
 15 16  1  0
 16 17  1  0
 17 18  2  0
 17 30  1  0
 19 20  1  0
 20 23  1  0
 21 22  1  0
 22 23  2  0
 25 26  1  0
 26 27  2  0
 28 29  1  0
  1 31  1  0
  1 32  1  0
  1 33  1  0
  2 34  1  0
  4 35  1  0
  4 36  1  0
  6 37  1  0
  7 38  1  0
  8 39  1  0
  9 40  1  0
 11 41  1  1
 12 42  1  0
 12 43  1  0
 14 44  1  0
 14 45  1  0
 15 46  1  0
 15 47  1  0
 21 48  1  0
 22 49  1  0
 24 50  1  0
 25 51  1  0
 28 52  1  0
 28 53  1  0
 29 54  1  0
 29 55  1  0
M  CHG  1   1   1
M  END
>  <filename_input>  (23) 
7QHL_D5P_docked.sdf

>  <pdb_id>  (23) 
7QHL_D5P

>  <pose_rank>  (23) 
22

>  <num_atoms_heavy>  (23) 
30

>  <num_torsions>  (23) 
8

>  <pose>  (23) 
[24.112342006733364, -17.88636210128898, 36.24331409589146, -0.8425004923877942, 1.725297221851659, -2.689052975820182, 3.420169486749428, -1.6335021301662254, -3.827867544768128, -2.004261493428778, -0.5764967915362438, 0.8785503145621903, 2.307886223905807, -0.8046404440913147]

>  <energy>  (23) 
-612.228334858489

>  <inter_energy>  (23) 
-597.8213254491683

>  <intra_energy>  (23) 
1.1669239003636003

>  <rmsd>  (23) 
8.62552

>  <sdf_rank>  (23) 
0

$$$$

     RDKit          3D

 55 59  0  0  0  0  0  0  0  0999 V2000
   23.3651  -16.3008   42.6324 N   0  0  0  0  0  0  0  0  0  0  0  0
   25.2087  -19.9372   37.7742 N   0  0  0  0  0  0  0  0  0  0  0  0
   24.7998  -18.6874   37.4961 C   0  0  0  0  0  0  0  0  0  0  0  0
   26.5007  -20.2522   38.3529 C   0  0  0  0  0  0  0  0  0  0  0  0
   26.4589  -20.1379   39.8475 C   0  0  0  0  0  0  0  0  0  0  0  0
   27.2453  -20.9447   40.6476 C   0  0  0  0  0  0  0  0  0  0  0  0
   27.2097  -20.8409   42.0255 C   0  0  0  0  0  0  0  0  0  0  0  0
   26.3260  -18.7149   44.7647 C   0  0  0  0  0  0  0  0  0  0  0  0
   25.5081  -19.1649   41.8297 C   0  0  0  0  0  0  0  0  0  0  0  0
   24.4792  -18.2993   36.1804 C   0  0  0  0  0  0  0  0  0  0  0  0
   23.5075  -15.6848   33.7350 C   0  0  1  0  0  0  0  0  0  0  0  0
   21.9845  -15.4844   33.3692 C   0  0  0  0  0  0  0  0  0  0  0  0
   24.0915  -16.9791   35.9259 C   0  0  0  0  0  0  0  0  0  0  0  0
   22.8567  -16.8584   41.3598 C   0  0  0  0  0  0  0  0  0  0  0  0
   22.5921  -15.8529   40.2649 C   0  0  0  0  0  0  0  0  0  0  0  0
   24.1516  -15.3750   39.4259 S   0  0  0  0  0  0  0  0  0  0  0  0
   24.3274  -16.5267   38.1310 C   0  0  0  0  0  0  0  0  0  0  0  0
   24.6691  -17.7937   38.4870 N   0  0  0  0  0  0  0  0  0  0  0  0
   26.3098  -19.9670   42.6073 C   0  0  0  0  0  0  0  0  0  0  0  0
   26.2631  -19.8385   44.0190 N   0  0  0  0  0  0  0  0  0  0  0  0
   26.3021  -19.1005   46.0825 C   0  0  0  0  0  0  0  0  0  0  0  0
   26.2684  -20.4829   46.0555 C   0  0  0  0  0  0  0  0  0  0  0  0
   26.2600  -20.9524   44.7972 N   0  0  0  0  0  0  0  0  0  0  0  0
   25.5842  -19.2531   40.4521 C   0  0  0  0  0  0  0  0  0  0  0  0
   24.4201  -18.9225   34.9940 N   0  0  0  0  0  0  0  0  0  0  0  0
   24.0946  -18.0402   34.0093 N   0  0  0  0  0  0  0  0  0  0  0  0
   23.8728  -16.8571   34.5679 C   0  0  0  0  0  0  0  0  0  0  0  0
   23.8140  -15.7669   32.2458 C   0  0  0  0  0  0  0  0  0  0  0  0
   22.3852  -15.2435   31.9268 C   0  0  0  0  0  0  0  0  0  0  0  0
   24.0132  -16.0574   36.9104 N   0  0  0  0  0  0  0  0  0  0  0  0
   22.9203  -16.7886   43.4230 H   0  0  0  0  0  0  0  0  0  0  0  0
   24.3859  -16.4294   42.6800 H   0  0  0  0  0  0  0  0  0  0  0  0
   23.1430  -15.2961   42.6800 H   0  0  0  0  0  0  0  0  0  0  0  0
   24.5679  -20.7157   37.5642 H   0  0  0  0  0  0  0  0  0  0  0  0
   26.7776  -21.2807   38.0778 H   0  0  0  0  0  0  0  0  0  0  0  0
   27.2430  -19.5384   37.9661 H   0  0  0  0  0  0  0  0  0  0  0  0
   27.9123  -21.6834   40.1792 H   0  0  0  0  0  0  0  0  0  0  0  0
   27.8862  -21.4437   42.6490 H   0  0  0  0  0  0  0  0  0  0  0  0
   26.3853  -17.6834   44.3873 H   0  0  0  0  0  0  0  0  0  0  0  0
   24.8102  -18.4572   42.3010 H   0  0  0  0  0  0  0  0  0  0  0  0
   24.0263  -14.9653   34.3856 H   0  0  0  0  0  0  0  0  0  0  0  0
   21.3612  -16.3777   33.5223 H   0  0  0  0  0  0  0  0  0  0  0  0
   21.3653  -14.7548   33.9118 H   0  0  0  0  0  0  0  0  0  0  0  0
   23.5992  -17.5784   40.9854 H   0  0  0  0  0  0  0  0  0  0  0  0
   21.8810  -17.3075   41.5972 H   0  0  0  0  0  0  0  0  0  0  0  0
   21.9070  -16.2956   39.5269 H   0  0  0  0  0  0  0  0  0  0  0  0
   22.1441  -14.9539   40.7134 H   0  0  0  0  0  0  0  0  0  0  0  0
   26.3084  -18.4495   46.9692 H   0  0  0  0  0  0  0  0  0  0  0  0
   26.2506  -21.1187   46.9529 H   0  0  0  0  0  0  0  0  0  0  0  0
   24.9420  -18.6125   39.8298 H   0  0  0  0  0  0  0  0  0  0  0  0
   24.5963  -19.9268   34.8485 H   0  0  0  0  0  0  0  0  0  0  0  0
   24.6221  -15.0977   31.9154 H   0  0  0  0  0  0  0  0  0  0  0  0
   24.1764  -16.7057   31.8016 H   0  0  0  0  0  0  0  0  0  0  0  0
   21.8337  -15.8555   31.1979 H   0  0  0  0  0  0  0  0  0  0  0  0
   22.2413  -14.2564   31.4633 H   0  0  0  0  0  0  0  0  0  0  0  0
  1 14  1  0
  2  3  1  0
  2  4  1  0
  3 10  2  0
  3 18  1  0
  4  5  1  0
  5  6  2  0
  5 24  1  0
  6  7  1  0
  7 19  2  0
  8 20  1  0
  8 21  2  0
  9 19  1  0
  9 24  2  0
 10 13  1  0
 10 25  1  0
 11 12  1  0
 11 27  1  0
 11 28  1  0
 12 29  1  0
 13 27  1  0
 13 30  2  0
 14 15  1  0
 15 16  1  0
 16 17  1  0
 17 18  2  0
 17 30  1  0
 19 20  1  0
 20 23  1  0
 21 22  1  0
 22 23  2  0
 25 26  1  0
 26 27  2  0
 28 29  1  0
  1 31  1  0
  1 32  1  0
  1 33  1  0
  2 34  1  0
  4 35  1  0
  4 36  1  0
  6 37  1  0
  7 38  1  0
  8 39  1  0
  9 40  1  0
 11 41  1  1
 12 42  1  0
 12 43  1  0
 14 44  1  0
 14 45  1  0
 15 46  1  0
 15 47  1  0
 21 48  1  0
 22 49  1  0
 24 50  1  0
 25 51  1  0
 28 52  1  0
 28 53  1  0
 29 54  1  0
 29 55  1  0
M  CHG  1   1   1
M  END
>  <filename_input>  (24) 
7QHL_D5P_docked.sdf

>  <pdb_id>  (24) 
7QHL_D5P

>  <pose_rank>  (24) 
23

>  <num_atoms_heavy>  (24) 
30

>  <num_torsions>  (24) 
8

>  <pose>  (24) 
[24.799763339306285, -18.687449839104143, 37.49609796231299, 0.5765655994661527, -1.0553042277803202, 2.366745003672195, -2.833006861596206, 5.526042726462209, 31.31577117894681, 4.772188748814295, 5.1544484336747765, -1.466123786044683, 0.27430783255047475, 0.19157583002139852]

>  <energy>  (24) 
-459.74757463961316

>  <inter_energy>  (24) 
-490.82922238433014

>  <intra_energy>  (24) 
58.857777723241185

>  <rmsd>  (24) 
5.17825

>  <sdf_rank>  (24) 
0

$$$$

     RDKit          3D

 55 59  0  0  0  0  0  0  0  0999 V2000
   26.5295   -9.7365   47.2212 N   0  0  0  0  0  0  0  0  0  0  0  0
   23.6447  -13.8257   41.1830 N   0  0  0  0  0  0  0  0  0  0  0  0
   24.5679  -13.8633   42.1591 C   0  0  0  0  0  0  0  0  0  0  0  0
   22.8624  -14.9746   40.7690 C   0  0  0  0  0  0  0  0  0  0  0  0
   22.9517  -15.1754   39.2857 C   0  0  0  0  0  0  0  0  0  0  0  0
   23.6080  -16.2676   38.7512 C   0  0  0  0  0  0  0  0  0  0  0  0
   23.6911  -16.4559   37.3844 C   0  0  0  0  0  0  0  0  0  0  0  0
   22.5327  -15.0375   34.1752 C   0  0  0  0  0  0  0  0  0  0  0  0
   22.5294  -14.3861   37.0544 C   0  0  0  0  0  0  0  0  0  0  0  0
   25.3596  -15.0089   42.3722 C   0  0  0  0  0  0  0  0  0  0  0  0
   27.9006  -16.8514   44.3491 C   0  0  1  0  0  0  0  0  0  0  0  0
   27.4402  -17.2129   45.8158 C   0  0  0  0  0  0  0  0  0  0  0  0
   26.2852  -15.0221   43.4216 C   0  0  0  0  0  0  0  0  0  0  0  0
   26.8804  -11.1456   47.5044 C   0  0  0  0  0  0  0  0  0  0  0  0
   26.2072  -12.1756   46.6293 C   0  0  0  0  0  0  0  0  0  0  0  0
   25.9053  -11.5075   44.9480 S   0  0  0  0  0  0  0  0  0  0  0  0
   25.6537  -12.9144   43.9523 C   0  0  0  0  0  0  0  0  0  0  0  0
   24.7618  -12.7865   42.9341 N   0  0  0  0  0  0  0  0  0  0  0  0
   23.1743  -15.4877   36.5433 C   0  0  0  0  0  0  0  0  0  0  0  0
   23.2410  -15.6654   35.1377 N   0  0  0  0  0  0  0  0  0  0  0  0
   22.9039  -15.5885   32.9733 C   0  0  0  0  0  0  0  0  0  0  0  0
   23.8135  -16.5798   33.2942 C   0  0  0  0  0  0  0  0  0  0  0  0
   24.0197  -16.6510   34.6194 N   0  0  0  0  0  0  0  0  0  0  0  0
   22.4205  -14.2325   38.4241 C   0  0  0  0  0  0  0  0  0  0  0  0
   25.4914  -16.1984   41.7665 N   0  0  0  0  0  0  0  0  0  0  0  0
   26.3903  -16.9743   42.4330 N   0  0  0  0  0  0  0  0  0  0  0  0
   26.8950  -16.2611   43.4317 C   0  0  0  0  0  0  0  0  0  0  0  0
   28.9343  -15.9075   44.9484 C   0  0  0  0  0  0  0  0  0  0  0  0
   28.6830  -16.5290   46.3512 C   0  0  0  0  0  0  0  0  0  0  0  0
   26.4457  -13.9618   44.2431 N   0  0  0  0  0  0  0  0  0  0  0  0
   26.4031   -9.2291   48.1086 H   0  0  0  0  0  0  0  0  0  0  0  0
   27.2866   -9.2964   46.6789 H   0  0  0  0  0  0  0  0  0  0  0  0
   25.6545   -9.7029   46.6789 H   0  0  0  0  0  0  0  0  0  0  0  0
   23.4836  -12.9296   40.7015 H   0  0  0  0  0  0  0  0  0  0  0  0
   23.2436  -15.8723   41.2777 H   0  0  0  0  0  0  0  0  0  0  0  0
   21.8102  -14.7990   41.0376 H   0  0  0  0  0  0  0  0  0  0  0  0
   24.0733  -17.0011   39.4262 H   0  0  0  0  0  0  0  0  0  0  0  0
   24.1606  -17.3613   36.9724 H   0  0  0  0  0  0  0  0  0  0  0  0
   21.7961  -14.2345   34.3254 H   0  0  0  0  0  0  0  0  0  0  0  0
   22.1025  -13.6314   36.3775 H   0  0  0  0  0  0  0  0  0  0  0  0
   28.1920  -17.6428   43.6429 H   0  0  0  0  0  0  0  0  0  0  0  0
   26.4958  -16.7399   46.1229 H   0  0  0  0  0  0  0  0  0  0  0  0
   27.2039  -18.2509   46.0930 H   0  0  0  0  0  0  0  0  0  0  0  0
   27.9679  -11.2548   47.3798 H   0  0  0  0  0  0  0  0  0  0  0  0
   26.5271  -11.3433   48.5271 H   0  0  0  0  0  0  0  0  0  0  0  0
   26.8537  -13.0623   46.5539 H   0  0  0  0  0  0  0  0  0  0  0  0
   25.2403  -12.4428   47.0806 H   0  0  0  0  0  0  0  0  0  0  0  0
   22.5531  -15.3028   31.9707 H   0  0  0  0  0  0  0  0  0  0  0  0
   24.3066  -17.2291   32.5558 H   0  0  0  0  0  0  0  0  0  0  0  0
   21.9057  -13.3507   38.8333 H   0  0  0  0  0  0  0  0  0  0  0  0
   24.9842  -16.4846   40.9169 H   0  0  0  0  0  0  0  0  0  0  0  0
   29.9550  -16.0575   44.5665 H   0  0  0  0  0  0  0  0  0  0  0  0
   28.8523  -14.8211   44.7966 H   0  0  0  0  0  0  0  0  0  0  0  0
   28.4854  -15.7905   47.1421 H   0  0  0  0  0  0  0  0  0  0  0  0
   29.4692  -17.1109   46.8545 H   0  0  0  0  0  0  0  0  0  0  0  0
  1 14  1  0
  2  3  1  0
  2  4  1  0
  3 10  2  0
  3 18  1  0
  4  5  1  0
  5  6  2  0
  5 24  1  0
  6  7  1  0
  7 19  2  0
  8 20  1  0
  8 21  2  0
  9 19  1  0
  9 24  2  0
 10 13  1  0
 10 25  1  0
 11 12  1  0
 11 27  1  0
 11 28  1  0
 12 29  1  0
 13 27  1  0
 13 30  2  0
 14 15  1  0
 15 16  1  0
 16 17  1  0
 17 18  2  0
 17 30  1  0
 19 20  1  0
 20 23  1  0
 21 22  1  0
 22 23  2  0
 25 26  1  0
 26 27  2  0
 28 29  1  0
  1 31  1  0
  1 32  1  0
  1 33  1  0
  2 34  1  0
  4 35  1  0
  4 36  1  0
  6 37  1  0
  7 38  1  0
  8 39  1  0
  9 40  1  0
 11 41  1  6
 12 42  1  0
 12 43  1  0
 14 44  1  0
 14 45  1  0
 15 46  1  0
 15 47  1  0
 21 48  1  0
 22 49  1  0
 24 50  1  0
 25 51  1  0
 28 52  1  0
 28 53  1  0
 29 54  1  0
 29 55  1  0
M  CHG  1   1   1
M  END
>  <filename_input>  (25) 
7QHL_D5P_docked.sdf

>  <pdb_id>  (25) 
7QHL_D5P

>  <pose_rank>  (25) 
24

>  <num_atoms_heavy>  (25) 
30

>  <num_torsions>  (25) 
8

>  <pose>  (25) 
[24.567918933702998, -13.863348283782333, 42.159097125441654, -2.114164980363779, -0.9226247730338369, 0.5469511982782388, 0.08661165366110177, -2.2363902162313525, 2.474055641401317, -2.1495481032404173, -0.5344867287158811, 2.3408469699151557, 1.5295562980052784, -0.6432660870604048]

>  <energy>  (25) 
-617.7450722501034

>  <inter_energy>  (25) 
-631.3320178945585

>  <intra_energy>  (25) 
19.09607454149257

>  <rmsd>  (25) 
9.7521

>  <sdf_rank>  (25) 
0

$$$$

     RDKit          3D

 55 59  0  0  0  0  0  0  0  0999 V2000
   23.4320  -19.9160   37.0490 N   0  0  0  0  0  0  0  0  0  0  0  0
   21.8870  -14.1390   38.5870 N   0  0  0  0  0  0  0  0  0  0  0  0
   22.3770  -14.4770   37.3820 C   0  0  0  0  0  0  0  0  0  0  0  0
   21.9260  -15.0100   39.7460 C   0  0  0  0  0  0  0  0  0  0  0  0
   23.1810  -14.7910   40.5370 C   0  0  0  0  0  0  0  0  0  0  0  0
   24.0300  -15.8400   40.8340 C   0  0  0  0  0  0  0  0  0  0  0  0
   25.1880  -15.6410   41.5620 C   0  0  0  0  0  0  0  0  0  0  0  0
   26.9660  -13.0860   43.5680 C   0  0  0  0  0  0  0  0  0  0  0  0
   24.6140  -13.3260   41.7940 C   0  0  0  0  0  0  0  0  0  0  0  0
   22.0060  -13.7740   36.2190 C   0  0  0  0  0  0  0  0  0  0  0  0
   22.0970  -13.3590   32.5340 C   0  0  1  0  0  0  0  0  0  0  0  0
   21.5080  -14.5930   31.7440 C   0  0  0  0  0  0  0  0  0  0  0  0
   22.5100  -14.1790   34.9780 C   0  0  0  0  0  0  0  0  0  0  0  0
   23.5820  -18.6760   37.8420 C   0  0  0  0  0  0  0  0  0  0  0  0
   24.8370  -17.8790   37.5780 C   0  0  0  0  0  0  0  0  0  0  0  0
   24.7980  -17.1350   35.9020 S   0  0  0  0  0  0  0  0  0  0  0  0
   23.6520  -15.8290   36.0250 C   0  0  0  0  0  0  0  0  0  0  0  0
   23.2540  -15.4860   37.2790 N   0  0  0  0  0  0  0  0  0  0  0  0
   25.4530  -14.3810   42.0660 C   0  0  0  0  0  0  0  0  0  0  0  0
   26.6400  -14.1530   42.8080 N   0  0  0  0  0  0  0  0  0  0  0  0
   28.2400  -13.2950   44.0360 C   0  0  0  0  0  0  0  0  0  0  0  0
   28.6390  -14.4960   43.4780 C   0  0  0  0  0  0  0  0  0  0  0  0
   27.6750  -15.0280   42.7090 N   0  0  0  0  0  0  0  0  0  0  0  0
   23.4800  -13.5340   41.0310 C   0  0  0  0  0  0  0  0  0  0  0  0
   21.2410  -12.7030   35.9600 N   0  0  0  0  0  0  0  0  0  0  0  0
   21.1820  -12.4740   34.6190 N   0  0  0  0  0  0  0  0  0  0  0  0
   21.9670  -13.3550   34.0120 C   0  0  0  0  0  0  0  0  0  0  0  0
   23.4660  -13.6930   31.9570 C   0  0  0  0  0  0  0  0  0  0  0  0
   22.7990  -14.6750   30.9530 C   0  0  0  0  0  0  0  0  0  0  0  0
   23.3490  -15.2310   34.8590 N   0  0  0  0  0  0  0  0  0  0  0  0
   23.3347  -20.7205   37.6848 H   0  0  0  0  0  0  0  0  0  0  0  0
   22.5935  -19.8444   36.4551 H   0  0  0  0  0  0  0  0  0  0  0  0
   24.2634  -20.0464   36.4551 H   0  0  0  0  0  0  0  0  0  0  0  0
   21.4593  -13.2081   38.6935 H   0  0  0  0  0  0  0  0  0  0  0  0
   21.0559  -14.7987   40.3850 H   0  0  0  0  0  0  0  0  0  0  0  0
   21.9048  -16.0546   39.4019 H   0  0  0  0  0  0  0  0  0  0  0  0
   23.7796  -16.8525   40.4845 H   0  0  0  0  0  0  0  0  0  0  0  0
   25.8875  -16.4716   41.7376 H   0  0  0  0  0  0  0  0  0  0  0  0
   26.3300  -12.2124   43.7739 H   0  0  0  0  0  0  0  0  0  0  0  0
   24.8438  -12.3224   42.1812 H   0  0  0  0  0  0  0  0  0  0  0  0
   21.6571  -12.3576   32.4167 H   0  0  0  0  0  0  0  0  0  0  0  0
   21.3039  -15.4747   32.3693 H   0  0  0  0  0  0  0  0  0  0  0  0
   20.5366  -14.5236   31.2325 H   0  0  0  0  0  0  0  0  0  0  0  0
   22.7189  -18.0294   37.6251 H   0  0  0  0  0  0  0  0  0  0  0  0
   23.6455  -18.9970   38.8922 H   0  0  0  0  0  0  0  0  0  0  0  0
   24.9187  -17.0770   38.3264 H   0  0  0  0  0  0  0  0  0  0  0  0
   25.7029  -18.5543   37.6431 H   0  0  0  0  0  0  0  0  0  0  0  0
   28.8189  -12.6465   44.7100 H   0  0  0  0  0  0  0  0  0  0  0  0
   29.6235  -14.9580   43.6435 H   0  0  0  0  0  0  0  0  0  0  0  0
   22.8080  -12.6905   40.8143 H   0  0  0  0  0  0  0  0  0  0  0  0
   20.7653  -12.1340   36.6747 H   0  0  0  0  0  0  0  0  0  0  0  0
   23.9739  -12.8406   31.4821 H   0  0  0  0  0  0  0  0  0  0  0  0
   24.2802  -14.0338   32.6135 H   0  0  0  0  0  0  0  0  0  0  0  0
   23.2527  -15.6769   30.9341 H   0  0  0  0  0  0  0  0  0  0  0  0
   22.8083  -14.4637   29.8735 H   0  0  0  0  0  0  0  0  0  0  0  0
  1 14  1  0
  2  3  1  0
  2  4  1  0
  3 10  2  0
  3 18  1  0
  4  5  1  0
  5  6  2  0
  5 24  1  0
  6  7  1  0
  7 19  2  0
  8 20  1  0
  8 21  2  0
  9 19  1  0
  9 24  2  0
 10 13  1  0
 10 25  1  0
 11 12  1  0
 11 27  1  0
 11 28  1  0
 12 29  1  0
 13 27  1  0
 13 30  2  0
 14 15  1  0
 15 16  1  0
 16 17  1  0
 17 18  2  0
 17 30  1  0
 19 20  1  0
 20 23  1  0
 21 22  1  0
 22 23  2  0
 25 26  1  0
 26 27  2  0
 28 29  1  0
  1 31  1  0
  1 32  1  0
  1 33  1  0
  2 34  1  0
  4 35  1  0
  4 36  1  0
  6 37  1  0
  7 38  1  0
  8 39  1  0
  9 40  1  0
 11 41  1  6
 12 42  1  0
 12 43  1  0
 14 44  1  0
 14 45  1  0
 15 46  1  0
 15 47  1  0
 21 48  1  0
 22 49  1  0
 24 50  1  0
 25 51  1  0
 28 52  1  0
 28 53  1  0
 29 54  1  0
 29 55  1  0
M  CHG  1   1   1
M  END
>  <filename_input>  (26) 
7QHL_D5P_docked.sdf

>  <pdb_id>  (26) 
7QHL_D5P

>  <pose_rank>  (26) 
25

>  <num_atoms_heavy>  (26) 
30

>  <num_torsions>  (26) 
8

>  <pose>  (26) 
[22.377, -14.477, 37.382, 1e-06, 1e-06, 1e-06, 0.0, 0.0, 0.0, 0.0, 0.0, 0.0, 0.0, 0.0]

>  <energy>  (26) 
-1987.6275447992161

>  <inter_energy>  (26) 
-2002.5120798849557

>  <intra_energy>  (26) 
15.187271574284441

>  <rmsd>  (26) 
0.0

>  <sdf_rank>  (26) 
0

$$$$
