
     RDKit          3D

 74 76  0  0  0  0  0  0  0  0999 V2000
   16.8322   17.6189   34.2656 O   0  0  0  0  0  0  0  0  0  0  0  0
    3.9291   25.6105   34.4571 O   0  0  0  0  0  0  0  0  0  0  0  0
   14.1557   17.4526   35.4383 C   0  0  1  0  0  0  0  0  0  0  0  0
   14.7591   16.3987   34.5041 C   0  0  0  0  0  0  0  0  0  0  0  0
   15.7243   16.9940   33.5764 C   0  0  1  0  0  0  0  0  0  0  0  0
   15.0352   18.1159   32.7338 C   0  0  0  0  0  0  0  0  0  0  0  0
   14.3536   19.1618   33.5441 C   0  0  0  0  0  0  0  0  0  0  0  0
   14.3022   20.4718   33.1758 C   0  0  0  0  0  0  0  0  0  0  0  0
   13.7013   21.5995   33.9838 C   0  0  0  0  0  0  0  0  0  0  0  0
   13.5063   22.8081   33.4228 C   0  0  0  0  0  0  0  0  0  0  0  0
   13.6189   23.1547   31.9586 C   0  0  0  0  0  0  0  0  0  0  0  0
   13.5005   18.5813   34.7179 C   0  0  0  0  0  0  0  0  0  0  0  0
   12.2917   23.5415   31.3460 C   0  0  0  0  0  0  0  0  0  0  0  0
   11.5656   24.5262   32.1243 C   0  0  0  0  0  0  0  0  0  0  0  0
   11.3884   24.1418   33.6391 C   0  0  1  0  0  0  0  0  0  0  0  0
   12.6428   23.7273   34.2069 C   0  0  1  0  0  0  0  0  0  0  0  0
   12.5684   23.7637   35.7319 C   0  0  0  0  0  0  0  0  0  0  0  0
   11.2923   24.7290   35.9794 C   0  0  0  0  0  0  0  0  0  0  0  0
   10.9286   25.2774   34.6898 C   0  0  2  0  0  0  0  0  0  0  0  0
   10.4783   22.8918   33.6884 C   0  0  0  0  0  0  0  0  0  0  0  0
   12.2457   19.0188   34.9253 C   0  0  0  0  0  0  0  0  0  0  0  0
    9.4600   25.7843   34.4937 C   0  0  2  0  0  0  0  0  0  0  0  0
    9.4359   27.1863   35.1254 C   0  0  0  0  0  0  0  0  0  0  0  0
    8.3452   24.9447   35.1111 C   0  0  0  0  0  0  0  0  0  0  0  0
    6.9228   25.5183   34.7174 C   0  0  0  0  0  0  0  0  0  0  0  0
    5.9906   24.3411   34.3611 C   0  0  0  0  0  0  0  0  0  0  0  0
    4.7056   24.7969   33.6306 C   0  0  2  0  0  0  0  0  0  0  0  0
    5.0394   25.6010   32.3718 C   0  0  0  0  0  0  0  0  0  0  0  0
    3.8976   23.5674   33.2669 C   0  0  0  0  0  0  0  0  0  0  0  0
   13.2595   16.8868   36.3892 O   0  0  0  0  0  0  0  0  0  0  0  0
   16.6976   17.5430   35.2435 H   0  0  0  0  0  0  0  0  0  0  0  0
    4.1271   25.4030   35.4046 H   0  0  0  0  0  0  0  0  0  0  0  0
   15.0166   17.8709   35.9804 H   0  0  0  0  0  0  0  0  0  0  0  0
   15.2691   15.6347   35.1092 H   0  0  0  0  0  0  0  0  0  0  0  0
   13.9444   15.9520   33.9154 H   0  0  0  0  0  0  0  0  0  0  0  0
   16.0933   16.1720   32.9454 H   0  0  0  0  0  0  0  0  0  0  0  0
   15.8042   18.6048   32.1176 H   0  0  0  0  0  0  0  0  0  0  0  0
   14.2546   17.6242   32.1348 H   0  0  0  0  0  0  0  0  0  0  0  0
   14.7382   20.7337   32.2005 H   0  0  0  0  0  0  0  0  0  0  0  0
   13.4221   21.4320   35.0345 H   0  0  0  0  0  0  0  0  0  0  0  0
   14.3159   23.9986   31.8495 H   0  0  0  0  0  0  0  0  0  0  0  0
   13.9789   22.2585   31.4321 H   0  0  0  0  0  0  0  0  0  0  0  0
   12.4772   23.9562   30.3442 H   0  0  0  0  0  0  0  0  0  0  0  0
   11.6723   22.6332   31.3107 H   0  0  0  0  0  0  0  0  0  0  0  0
   12.1115   25.4797   32.0712 H   0  0  0  0  0  0  0  0  0  0  0  0
   10.5559   24.5909   31.6926 H   0  0  0  0  0  0  0  0  0  0  0  0
   13.4480   24.4549   34.0275 H   0  0  0  0  0  0  0  0  0  0  0  0
   12.3979   22.7600   36.1485 H   0  0  0  0  0  0  0  0  0  0  0  0
   13.4925   24.1150   36.2143 H   0  0  0  0  0  0  0  0  0  0  0  0
   10.4542   24.1504   36.3951 H   0  0  0  0  0  0  0  0  0  0  0  0
   11.5341   25.5286   36.6951 H   0  0  0  0  0  0  0  0  0  0  0  0
   11.4389   26.2410   34.5443 H   0  0  0  0  0  0  0  0  0  0  0  0
   10.2820   22.6223   34.7366 H   0  0  0  0  0  0  0  0  0  0  0  0
    9.5268   23.1109   33.1818 H   0  0  0  0  0  0  0  0  0  0  0  0
   10.9789   22.0536   33.1818 H   0  0  0  0  0  0  0  0  0  0  0  0
   11.8535   19.8629   34.3391 H   0  0  0  0  0  0  0  0  0  0  0  0
   11.6116   18.5324   35.6813 H   0  0  0  0  0  0  0  0  0  0  0  0
    9.2406   25.7411   33.4167 H   0  0  0  0  0  0  0  0  0  0  0  0
    9.4375   27.0946   36.2215 H   0  0  0  0  0  0  0  0  0  0  0  0
   10.3245   27.7490   34.8032 H   0  0  0  0  0  0  0  0  0  0  0  0
    8.5284   27.7180   34.8032 H   0  0  0  0  0  0  0  0  0  0  0  0
    8.4298   23.9101   34.7473 H   0  0  0  0  0  0  0  0  0  0  0  0
    8.4464   24.9761   36.2060 H   0  0  0  0  0  0  0  0  0  0  0  0
    6.5027   26.0783   35.5658 H   0  0  0  0  0  0  0  0  0  0  0  0
    7.0188   26.1925   33.8536 H   0  0  0  0  0  0  0  0  0  0  0  0
    6.5375   23.6441   33.7091 H   0  0  0  0  0  0  0  0  0  0  0  0
    5.6851   23.8625   35.3031 H   0  0  0  0  0  0  0  0  0  0  0  0
    5.4464   26.5815   32.6602 H   0  0  0  0  0  0  0  0  0  0  0  0
    5.7854   25.0555   31.7752 H   0  0  0  0  0  0  0  0  0  0  0  0
    4.1264   25.7441   31.7752 H   0  0  0  0  0  0  0  0  0  0  0  0
    3.5654   23.0620   34.1857 H   0  0  0  0  0  0  0  0  0  0  0  0
    3.0199   23.8672   32.6755 H   0  0  0  0  0  0  0  0  0  0  0  0
    4.5210   22.8807   32.6755 H   0  0  0  0  0  0  0  0  0  0  0  0
   13.5790   17.0885   37.3043 H   0  0  0  0  0  0  0  0  0  0  0  0
  5  1  1  0
 27  2  1  1
  3  4  1  0
  3 12  1  0
  3 30  1  0
  4  5  1  0
  5  6  1  0
  6  7  1  0
  7  8  2  3
  7 12  1  0
  8  9  1  0
  9 10  2  3
 10 11  1  0
 10 16  1  0
 11 13  1  0
 12 21  2  0
 13 14  1  0
 14 15  1  0
 15 16  1  0
 15 19  1  0
 15 20  1  6
 16 17  1  0
 17 18  1  0
 19 18  1  0
 19 22  1  0
 22 23  1  0
 22 24  1  0
 24 25  1  0
 25 26  1  0
 26 27  1  0
 27 28  1  0
 27 29  1  0
  1 31  1  0
  2 32  1  0
  3 33  1  1
  4 34  1  0
  4 35  1  0
  5 36  1  6
  6 37  1  0
  6 38  1  0
  8 39  1  0
  9 40  1  0
 11 41  1  0
 11 42  1  0
 13 43  1  0
 13 44  1  0
 14 45  1  0
 14 46  1  0
 16 47  1  6
 17 48  1  0
 17 49  1  0
 18 50  1  0
 18 51  1  0
 19 52  1  6
 20 53  1  0
 20 54  1  0
 20 55  1  0
 21 56  1  0
 21 57  1  0
 22 58  1  6
 23 59  1  0
 23 60  1  0
 23 61  1  0
 24 62  1  0
 24 63  1  0
 25 64  1  0
 25 65  1  0
 26 66  1  0
 26 67  1  0
 28 68  1  0
 28 69  1  0
 28 70  1  0
 29 71  1  0
 29 72  1  0
 29 73  1  0
 30 74  1  0
M  END
>  <filename_input>  (1) 
7QPP_VDX_docked.sdf

>  <pdb_id>  (1) 
7QPP_VDX

>  <pose_rank>  (1) 
0

>  <num_atoms_heavy>  (1) 
30

>  <num_torsions>  (1) 
6

>  <pose>  (1) 
[13.701301520974662, 21.59949669409759, 33.98380571948742, -0.051664214987042906, 0.11240188818931392, 0.031415903258375885, 0.021437305190400956, -0.03065537874007772, -0.1298111728917734, -0.5401555893932762, 0.4331362238688491, -0.07622181151959186]

>  <energy>  (1) 
-1267.645858222949

>  <inter_energy>  (1) 
-1276.1753882148735

>  <intra_energy>  (1) 
7.970456938071462

>  <rmsd>  (1) 
0.478712

>  <sdf_rank>  (1) 
0

$$$$

     RDKit          3D

 74 76  0  0  0  0  0  0  0  0999 V2000
   17.0763   17.4947   34.3793 O   0  0  0  0  0  0  0  0  0  0  0  0
    8.4630   28.8449   34.5050 O   0  0  0  0  0  0  0  0  0  0  0  0
   14.3200   17.2843   35.3410 C   0  0  1  0  0  0  0  0  0  0  0  0
   14.9788   16.2930   34.3764 C   0  0  0  0  0  0  0  0  0  0  0  0
   16.0150   16.9399   33.5675 C   0  0  1  0  0  0  0  0  0  0  0  0
   15.4008   18.1317   32.7639 C   0  0  0  0  0  0  0  0  0  0  0  0
   14.6729   19.1255   33.5992 C   0  0  0  0  0  0  0  0  0  0  0  0
   14.6620   20.4598   33.3272 C   0  0  0  0  0  0  0  0  0  0  0  0
   14.0156   21.5340   34.1720 C   0  0  0  0  0  0  0  0  0  0  0  0
   13.2487   22.4803   33.5975 C   0  0  0  0  0  0  0  0  0  0  0  0
   12.7483   22.4982   32.1742 C   0  0  0  0  0  0  0  0  0  0  0  0
   13.7307   18.4734   34.6619 C   0  0  0  0  0  0  0  0  0  0  0  0
   11.2460   22.3551   32.0812 C   0  0  0  0  0  0  0  0  0  0  0  0
   10.5281   23.2546   32.9631 C   0  0  0  0  0  0  0  0  0  0  0  0
   11.0010   23.1954   34.4620 C   0  0  1  0  0  0  0  0  0  0  0  0
   12.4339   23.2824   34.5452 C   0  0  1  0  0  0  0  0  0  0  0  0
   12.8580   23.6466   35.9664 C   0  0  0  0  0  0  0  0  0  0  0  0
   11.4872   24.2555   36.5764 C   0  0  0  0  0  0  0  0  0  0  0  0
   10.5561   24.3715   35.4738 C   0  0  2  0  0  0  0  0  0  0  0  0
   10.6396   21.7901   34.9984 C   0  0  0  0  0  0  0  0  0  0  0  0
   12.4686   18.9140   34.8109 C   0  0  0  0  0  0  0  0  0  0  0  0
    9.0255   24.3975   35.8033 C   0  0  2  0  0  0  0  0  0  0  0  0
    8.8192   23.2649   36.8229 C   0  0  0  0  0  0  0  0  0  0  0  0
    8.0591   24.1968   34.6394 C   0  0  0  0  0  0  0  0  0  0  0  0
    7.2196   25.5121   34.3698 C   0  0  0  0  0  0  0  0  0  0  0  0
    8.1422   26.5715   33.7309 C   0  0  0  0  0  0  0  0  0  0  0  0
    8.7832   27.5138   34.7767 C   0  0  2  0  0  0  0  0  0  0  0  0
    8.2835   27.1969   36.1882 C   0  0  0  0  0  0  0  0  0  0  0  0
   10.2889   27.3559   34.7071 C   0  0  0  0  0  0  0  0  0  0  0  0
   13.3512   16.6641   36.1802 O   0  0  0  0  0  0  0  0  0  0  0  0
   16.8542   17.3786   35.3370 H   0  0  0  0  0  0  0  0  0  0  0  0
    8.3448   29.3363   35.3563 H   0  0  0  0  0  0  0  0  0  0  0  0
   15.1434   17.6479   35.9733 H   0  0  0  0  0  0  0  0  0  0  0  0
   15.4355   15.4784   34.9576 H   0  0  0  0  0  0  0  0  0  0  0  0
   14.2045   15.9039   33.6989 H   0  0  0  0  0  0  0  0  0  0  0  0
   16.4205   16.1611   32.9049 H   0  0  0  0  0  0  0  0  0  0  0  0
   16.2175   18.6526   32.2427 H   0  0  0  0  0  0  0  0  0  0  0  0
   14.6607   17.6980   32.0753 H   0  0  0  0  0  0  0  0  0  0  0  0
   15.1704   20.7860   32.4079 H   0  0  0  0  0  0  0  0  0  0  0  0
   14.1723   21.5427   35.2608 H   0  0  0  0  0  0  0  0  0  0  0  0
   13.0401   23.4522   31.7107 H   0  0  0  0  0  0  0  0  0  0  0  0
   13.1965   21.6389   31.6539 H   0  0  0  0  0  0  0  0  0  0  0  0
   10.9389   22.5628   31.0455 H   0  0  0  0  0  0  0  0  0  0  0  0
   10.9969   21.3290   32.3897 H   0  0  0  0  0  0  0  0  0  0  0  0
   10.6679   24.2824   32.5969 H   0  0  0  0  0  0  0  0  0  0  0  0
    9.4744   22.9392   32.9496 H   0  0  0  0  0  0  0  0  0  0  0  0
   12.8374   24.1412   33.9887 H   0  0  0  0  0  0  0  0  0  0  0  0
   13.1856   22.7584   36.5265 H   0  0  0  0  0  0  0  0  0  0  0  0
   13.7117   24.3387   36.0126 H   0  0  0  0  0  0  0  0  0  0  0  0
   11.0821   23.5811   37.3452 H   0  0  0  0  0  0  0  0  0  0  0  0
   11.6645   25.2329   37.0489 H   0  0  0  0  0  0  0  0  0  0  0  0
   10.6307   25.3777   35.0356 H   0  0  0  0  0  0  0  0  0  0  0  0
   10.6435   21.8053   36.0983 H   0  0  0  0  0  0  0  0  0  0  0  0
    9.6394   21.5065   34.6392 H   0  0  0  0  0  0  0  0  0  0  0  0
   11.3791   21.0592   34.6392 H   0  0  0  0  0  0  0  0  0  0  0  0
   12.1289   19.8052   34.2628 H   0  0  0  0  0  0  0  0  0  0  0  0
   11.7763   18.3832   35.4809 H   0  0  0  0  0  0  0  0  0  0  0  0
    8.7850   25.4105   36.1583 H   0  0  0  0  0  0  0  0  0  0  0  0
    8.8932   23.6714   37.8424 H   0  0  0  0  0  0  0  0  0  0  0  0
    7.8248   22.8176   36.6779 H   0  0  0  0  0  0  0  0  0  0  0  0
    9.5920   22.4957   36.6779 H   0  0  0  0  0  0  0  0  0  0  0  0
    8.6319   23.9434   33.7351 H   0  0  0  0  0  0  0  0  0  0  0  0
    7.3650   23.3826   34.8948 H   0  0  0  0  0  0  0  0  0  0  0  0
    6.3882   25.2858   33.6861 H   0  0  0  0  0  0  0  0  0  0  0  0
    6.8123   25.8950   35.3171 H   0  0  0  0  0  0  0  0  0  0  0  0
    8.9447   26.0552   33.1838 H   0  0  0  0  0  0  0  0  0  0  0  0
    7.5252   27.1889   33.0615 H   0  0  0  0  0  0  0  0  0  0  0  0
    8.9715   27.6333   36.9273 H   0  0  0  0  0  0  0  0  0  0  0  0
    7.2789   27.6232   36.3259 H   0  0  0  0  0  0  0  0  0  0  0  0
    8.2411   26.1063   36.3259 H   0  0  0  0  0  0  0  0  0  0  0  0
   10.7006   27.3127   35.7263 H   0  0  0  0  0  0  0  0  0  0  0  0
   10.5358   26.4269   34.1723 H   0  0  0  0  0  0  0  0  0  0  0  0
   10.7232   28.2134   34.1723 H   0  0  0  0  0  0  0  0  0  0  0  0
   13.5900   16.8170   37.1288 H   0  0  0  0  0  0  0  0  0  0  0  0
  5  1  1  0
 27  2  1  6
  3  4  1  0
  3 12  1  0
  3 30  1  0
  4  5  1  0
  5  6  1  0
  6  7  1  0
  7  8  2  3
  7 12  1  0
  8  9  1  0
  9 10  2  3
 10 11  1  0
 10 16  1  0
 11 13  1  0
 12 21  2  0
 13 14  1  0
 14 15  1  0
 15 16  1  0
 15 19  1  0
 15 20  1  1
 16 17  1  0
 17 18  1  0
 19 18  1  0
 19 22  1  0
 22 23  1  0
 22 24  1  0
 24 25  1  0
 25 26  1  0
 26 27  1  0
 27 28  1  0
 27 29  1  0
  1 31  1  0
  2 32  1  0
  3 33  1  1
  4 34  1  0
  4 35  1  0
  5 36  1  6
  6 37  1  0
  6 38  1  0
  8 39  1  0
  9 40  1  0
 11 41  1  0
 11 42  1  0
 13 43  1  0
 13 44  1  0
 14 45  1  0
 14 46  1  0
 16 47  1  6
 17 48  1  0
 17 49  1  0
 18 50  1  0
 18 51  1  0
 19 52  1  6
 20 53  1  0
 20 54  1  0
 20 55  1  0
 21 56  1  0
 21 57  1  0
 22 58  1  1
 23 59  1  0
 23 60  1  0
 23 61  1  0
 24 62  1  0
 24 63  1  0
 25 64  1  0
 25 65  1  0
 26 66  1  0
 26 67  1  0
 28 68  1  0
 28 69  1  0
 28 70  1  0
 29 71  1  0
 29 72  1  0
 29 73  1  0
 30 74  1  0
M  END
>  <filename_input>  (2) 
7QPP_VDX_docked.sdf

>  <pdb_id>  (2) 
7QPP_VDX

>  <pose_rank>  (2) 
1

>  <num_atoms_heavy>  (2) 
30

>  <num_torsions>  (2) 
6

>  <pose>  (2) 
[14.015552725785748, 21.53401751913878, 34.172006766269995, -0.24292486886920212, 0.4805170718595558, 0.3529169442070235, 0.6342522677511221, 4.052302007313036, 0.9410472214427567, 4.604843917885969, 7.9831472507543895, -1.0993375038068693]

>  <energy>  (2) 
-1052.1147923177973

>  <inter_energy>  (2) 
-1153.4191289194748

>  <intra_energy>  (2) 
97.6584182234975

>  <rmsd>  (2) 
2.4214

>  <sdf_rank>  (2) 
0

$$$$

     RDKit          3D

 74 76  0  0  0  0  0  0  0  0999 V2000
   15.2384   17.4920   36.2423 O   0  0  0  0  0  0  0  0  0  0  0  0
    5.3140   25.6197   35.5292 O   0  0  0  0  0  0  0  0  0  0  0  0
   13.5456   16.9780   33.9107 C   0  0  1  0  0  0  0  0  0  0  0  0
   14.8388   16.2197   34.2261 C   0  0  0  0  0  0  0  0  0  0  0  0
   15.7815   17.0550   34.9746 C   0  0  1  0  0  0  0  0  0  0  0  0
   16.1114   18.3493   34.1626 C   0  0  0  0  0  0  0  0  0  0  0  0
   14.9174   19.1317   33.7417 C   0  0  0  0  0  0  0  0  0  0  0  0
   14.9070   20.4914   33.6692 C   0  0  0  0  0  0  0  0  0  0  0  0
   13.7130   21.3546   33.3301 C   0  0  0  0  0  0  0  0  0  0  0  0
   12.8717   21.7613   34.2997 C   0  0  0  0  0  0  0  0  0  0  0  0
   13.0816   21.6406   35.7890 C   0  0  0  0  0  0  0  0  0  0  0  0
   13.7676   18.2470   33.1605 C   0  0  0  0  0  0  0  0  0  0  0  0
   13.2403   22.9827   36.4673 C   0  0  0  0  0  0  0  0  0  0  0  0
   12.2130   23.9371   36.0986 C   0  0  0  0  0  0  0  0  0  0  0  0
   12.0319   24.1161   34.5465 C   0  0  1  0  0  0  0  0  0  0  0  0
   11.9302   22.8370   33.8973 C   0  0  1  0  0  0  0  0  0  0  0  0
   11.3435   23.0021   32.4970 C   0  0  0  0  0  0  0  0  0  0  0  0
   10.6476   24.4606   32.5982 C   0  0  0  0  0  0  0  0  0  0  0  0
   10.7104   24.8564   33.9894 C   0  0  2  0  0  0  0  0  0  0  0  0
   13.3344   24.7523   34.0063 C   0  0  0  0  0  0  0  0  0  0  0  0
   13.1592   18.5938   32.0121 C   0  0  0  0  0  0  0  0  0  0  0  0
   10.6348   26.3844   34.3236 C   0  0  2  0  0  0  0  0  0  0  0  0
   12.0734   26.7816   34.6947 C   0  0  0  0  0  0  0  0  0  0  0  0
    9.6989   26.8047   35.4532 C   0  0  0  0  0  0  0  0  0  0  0  0
    8.1955   26.8384   34.9574 C   0  0  0  0  0  0  0  0  0  0  0  0
    7.6488   25.3956   34.9216 C   0  0  0  0  0  0  0  0  0  0  0  0
    6.1717   25.3278   34.4675 C   0  0  2  0  0  0  0  0  0  0  0  0
    5.8878   26.3373   33.3527 C   0  0  0  0  0  0  0  0  0  0  0  0
    5.8811   23.9207   33.9854 C   0  0  0  0  0  0  0  0  0  0  0  0
   12.5900   16.1661   33.2361 O   0  0  0  0  0  0  0  0  0  0  0  0
   15.7518   17.0790   36.9812 H   0  0  0  0  0  0  0  0  0  0  0  0
    5.7834   25.4600   36.3861 H   0  0  0  0  0  0  0  0  0  0  0  0
   13.1350   17.2510   34.8940 H   0  0  0  0  0  0  0  0  0  0  0  0
   14.5947   15.3306   34.8260 H   0  0  0  0  0  0  0  0  0  0  0  0
   15.3115   15.9324   33.2753 H   0  0  0  0  0  0  0  0  0  0  0  0
   16.6747   16.4360   35.1449 H   0  0  0  0  0  0  0  0  0  0  0  0
   16.7437   18.9963   34.7883 H   0  0  0  0  0  0  0  0  0  0  0  0
   16.6136   18.0220   33.2402 H   0  0  0  0  0  0  0  0  0  0  0  0
   15.8549   21.0097   33.8764 H   0  0  0  0  0  0  0  0  0  0  0  0
   13.5307   21.6516   32.2868 H   0  0  0  0  0  0  0  0  0  0  0  0
   12.2131   21.1261   36.2261 H   0  0  0  0  0  0  0  0  0  0  0  0
   14.0121   21.0760   35.9484 H   0  0  0  0  0  0  0  0  0  0  0  0
   13.2008   22.8304   37.5560 H   0  0  0  0  0  0  0  0  0  0  0  0
   14.2046   23.4001   36.1417 H   0  0  0  0  0  0  0  0  0  0  0  0
   11.2564   23.5959   36.5212 H   0  0  0  0  0  0  0  0  0  0  0  0
   12.5283   24.9130   36.4964 H   0  0  0  0  0  0  0  0  0  0  0  0
   11.1703   22.1890   34.3585 H   0  0  0  0  0  0  0  0  0  0  0  0
   12.1306   22.9864   31.7287 H   0  0  0  0  0  0  0  0  0  0  0  0
   10.6514   22.1979   32.2067 H   0  0  0  0  0  0  0  0  0  0  0  0
   11.1916   25.1843   31.9733 H   0  0  0  0  0  0  0  0  0  0  0  0
    9.6071   24.4279   32.2429 H   0  0  0  0  0  0  0  0  0  0  0  0
    9.7867   24.5469   34.5004 H   0  0  0  0  0  0  0  0  0  0  0  0
   13.9685   25.0621   34.8501 H   0  0  0  0  0  0  0  0  0  0  0  0
   13.8746   24.0166   33.3924 H   0  0  0  0  0  0  0  0  0  0  0  0
   13.0862   25.6306   33.3924 H   0  0  0  0  0  0  0  0  0  0  0  0
   13.3931   19.5569   31.5349 H   0  0  0  0  0  0  0  0  0  0  0  0
   12.4279   17.9143   31.5502 H   0  0  0  0  0  0  0  0  0  0  0  0
   10.2107   26.8906   33.4439 H   0  0  0  0  0  0  0  0  0  0  0  0
   12.1751   26.8096   35.7897 H   0  0  0  0  0  0  0  0  0  0  0  0
   12.7761   26.0438   34.2800 H   0  0  0  0  0  0  0  0  0  0  0  0
   12.2980   27.7753   34.2800 H   0  0  0  0  0  0  0  0  0  0  0  0
    9.7890   26.0868   36.2818 H   0  0  0  0  0  0  0  0  0  0  0  0
    9.9817   27.8139   35.7873 H   0  0  0  0  0  0  0  0  0  0  0  0
    7.5921   27.4449   35.6488 H   0  0  0  0  0  0  0  0  0  0  0  0
    8.1444   27.2814   33.9519 H   0  0  0  0  0  0  0  0  0  0  0  0
    8.2593   24.8053   34.2225 H   0  0  0  0  0  0  0  0  0  0  0  0
    7.7004   24.9954   35.9449 H   0  0  0  0  0  0  0  0  0  0  0  0
    5.6152   27.3064   33.7962 H   0  0  0  0  0  0  0  0  0  0  0  0
    6.7866   26.4587   32.7303 H   0  0  0  0  0  0  0  0  0  0  0  0
    5.0574   25.9724   32.7303 H   0  0  0  0  0  0  0  0  0  0  0  0
    5.7441   23.2571   34.8520 H   0  0  0  0  0  0  0  0  0  0  0  0
    4.9646   23.9234   33.3771 H   0  0  0  0  0  0  0  0  0  0  0  0
    6.7238   23.5601   33.3771 H   0  0  0  0  0  0  0  0  0  0  0  0
   12.0315   15.6916   33.9018 H   0  0  0  0  0  0  0  0  0  0  0  0
  5  1  1  0
 27  2  1  1
  3  4  1  0
  3 12  1  0
  3 30  1  0
  4  5  1  0
  5  6  1  0
  6  7  1  0
  7  8  2  3
  7 12  1  0
  8  9  1  0
  9 10  2  3
 10 11  1  0
 10 16  1  0
 11 13  1  0
 12 21  2  0
 13 14  1  0
 14 15  1  0
 15 16  1  0
 15 19  1  0
 15 20  1  6
 16 17  1  0
 17 18  1  0
 19 18  1  0
 19 22  1  0
 22 23  1  0
 22 24  1  0
 24 25  1  0
 25 26  1  0
 26 27  1  0
 27 28  1  0
 27 29  1  0
  1 31  1  0
  2 32  1  0
  3 33  1  1
  4 34  1  0
  4 35  1  0
  5 36  1  1
  6 37  1  0
  6 38  1  0
  8 39  1  0
  9 40  1  0
 11 41  1  0
 11 42  1  0
 13 43  1  0
 13 44  1  0
 14 45  1  0
 14 46  1  0
 16 47  1  1
 17 48  1  0
 17 49  1  0
 18 50  1  0
 18 51  1  0
 19 52  1  1
 20 53  1  0
 20 54  1  0
 20 55  1  0
 21 56  1  0
 21 57  1  0
 22 58  1  6
 23 59  1  0
 23 60  1  0
 23 61  1  0
 24 62  1  0
 24 63  1  0
 25 64  1  0
 25 65  1  0
 26 66  1  0
 26 67  1  0
 28 68  1  0
 28 69  1  0
 28 70  1  0
 29 71  1  0
 29 72  1  0
 29 73  1  0
 30 74  1  0
M  END
>  <filename_input>  (3) 
7QPP_VDX_docked.sdf

>  <pdb_id>  (3) 
7QPP_VDX

>  <pose_rank>  (3) 
2

>  <num_atoms_heavy>  (3) 
30

>  <num_torsions>  (3) 
6

>  <pose>  (3) 
[13.713004898692777, 21.354560739207837, 33.33009685054476, -2.176887176225971, 2.738496027508736, 0.44623838431717794, -1.7872725901150366, 3.010503870148865, 1.5511794660925649, 10.999845935132004, 6.4500466652400625, -0.381090629823675]

>  <energy>  (3) 
-840.7675059279347

>  <inter_energy>  (3) 
-899.702936857362

>  <intra_energy>  (3) 
72.89282765920478

>  <rmsd>  (3) 
2.34611

>  <sdf_rank>  (3) 
0

$$$$

     RDKit          3D

 74 76  0  0  0  0  0  0  0  0999 V2000
    2.7805   25.6537   32.4198 O   0  0  0  0  0  0  0  0  0  0  0  0
   13.9589   17.2554   32.5195 O   0  0  0  0  0  0  0  0  0  0  0  0
    4.0409   23.5774   34.0528 C   0  0  1  0  0  0  0  0  0  0  0  0
    2.9151   24.4965   34.5378 C   0  0  0  0  0  0  0  0  0  0  0  0
    2.9452   25.7901   33.8506 C   0  0  1  0  0  0  0  0  0  0  0  0
    4.3282   26.4834   34.0747 C   0  0  0  0  0  0  0  0  0  0  0  0
    5.5019   25.6485   33.6998 C   0  0  0  0  0  0  0  0  0  0  0  0
    6.6419   26.1661   33.1643 C   0  0  0  0  0  0  0  0  0  0  0  0
    7.8380   25.3750   32.6856 C   0  0  0  0  0  0  0  0  0  0  0  0
    9.0852   25.7671   33.0088 C   0  0  0  0  0  0  0  0  0  0  0  0
    9.4690   26.8280   34.0107 C   0  0  0  0  0  0  0  0  0  0  0  0
    5.4000   24.1718   34.2011 C   0  0  0  0  0  0  0  0  0  0  0  0
   10.1934   26.2628   35.2116 C   0  0  0  0  0  0  0  0  0  0  0  0
   11.2824   25.3730   34.8584 C   0  0  0  0  0  0  0  0  0  0  0  0
   10.8749   24.2251   33.8633 C   0  0  1  0  0  0  0  0  0  0  0  0
   10.1433   24.7588   32.7463 C   0  0  1  0  0  0  0  0  0  0  0  0
   10.1185   23.7482   31.6015 C   0  0  0  0  0  0  0  0  0  0  0  0
   11.3478   22.7704   31.9948 C   0  0  0  0  0  0  0  0  0  0  0  0
   12.0325   23.3901   33.1099 C   0  0  2  0  0  0  0  0  0  0  0  0
    9.8788   23.3071   34.6103 C   0  0  0  0  0  0  0  0  0  0  0  0
    6.4452   23.5908   34.8168 C   0  0  0  0  0  0  0  0  0  0  0  0
   12.8860   22.4738   34.0500 C   0  0  2  0  0  0  0  0  0  0  0  0
   13.6929   23.4460   34.9269 C   0  0  0  0  0  0  0  0  0  0  0  0
   13.8483   21.4952   33.3826 C   0  0  0  0  0  0  0  0  0  0  0  0
   13.4257   19.9982   33.6782 C   0  0  0  0  0  0  0  0  0  0  0  0
   14.6995   19.1432   33.8455 C   0  0  0  0  0  0  0  0  0  0  0  0
   14.4115   17.6246   33.7871 C   0  0  2  0  0  0  0  0  0  0  0  0
   15.6726   16.8096   34.0834 C   0  0  0  0  0  0  0  0  0  0  0  0
   13.3300   17.3012   34.7985 C   0  0  0  0  0  0  0  0  0  0  0  0
    3.9944   22.2920   34.6636 O   0  0  0  0  0  0  0  0  0  0  0  0
    2.0319   25.0338   32.2314 H   0  0  0  0  0  0  0  0  0  0  0  0
   13.1951   16.6322   32.6103 H   0  0  0  0  0  0  0  0  0  0  0  0
    3.8569   23.4552   32.9753 H   0  0  0  0  0  0  0  0  0  0  0  0
    1.9478   24.0105   34.3429 H   0  0  0  0  0  0  0  0  0  0  0  0
    3.0539   24.6740   35.6145 H   0  0  0  0  0  0  0  0  0  0  0  0
    2.1156   26.3803   34.2670 H   0  0  0  0  0  0  0  0  0  0  0  0
    4.3536   27.4033   33.4721 H   0  0  0  0  0  0  0  0  0  0  0  0
    4.4117   26.6760   35.1545 H   0  0  0  0  0  0  0  0  0  0  0  0
    6.6977   27.2607   33.0715 H   0  0  0  0  0  0  0  0  0  0  0  0
    7.6890   24.4753   32.0707 H   0  0  0  0  0  0  0  0  0  0  0  0
   10.1256   27.5585   33.5154 H   0  0  0  0  0  0  0  0  0  0  0  0
    8.5407   27.2944   34.3723 H   0  0  0  0  0  0  0  0  0  0  0  0
   10.6021   27.0989   35.7981 H   0  0  0  0  0  0  0  0  0  0  0  0
    9.4631   25.6724   35.7843 H   0  0  0  0  0  0  0  0  0  0  0  0
   12.0787   25.9701   34.3899 H   0  0  0  0  0  0  0  0  0  0  0  0
   11.6092   24.8858   35.7889 H   0  0  0  0  0  0  0  0  0  0  0  0
   10.6648   25.5978   32.2624 H   0  0  0  0  0  0  0  0  0  0  0  0
    9.1651   23.2004   31.5715 H   0  0  0  0  0  0  0  0  0  0  0  0
   10.2130   24.2028   30.6043 H   0  0  0  0  0  0  0  0  0  0  0  0
   10.9665   21.7808   32.2868 H   0  0  0  0  0  0  0  0  0  0  0  0
   12.0284   22.6282   31.1425 H   0  0  0  0  0  0  0  0  0  0  0  0
   12.8517   24.0198   32.7326 H   0  0  0  0  0  0  0  0  0  0  0  0
   10.0109   23.4289   35.6955 H   0  0  0  0  0  0  0  0  0  0  0  0
    8.8499   23.5803   34.3333 H   0  0  0  0  0  0  0  0  0  0  0  0
   10.0672   22.2594   34.3333 H   0  0  0  0  0  0  0  0  0  0  0  0
    7.4109   24.1144   34.8731 H   0  0  0  0  0  0  0  0  0  0  0  0
    6.3342   22.5919   35.2640 H   0  0  0  0  0  0  0  0  0  0  0  0
   12.1874   21.8141   34.5855 H   0  0  0  0  0  0  0  0  0  0  0  0
   13.5076   23.2227   35.9879 H   0  0  0  0  0  0  0  0  0  0  0  0
   14.7652   23.3317   34.7100 H   0  0  0  0  0  0  0  0  0  0  0  0
   13.3830   24.4789   34.7100 H   0  0  0  0  0  0  0  0  0  0  0  0
   13.8381   21.6646   32.2958 H   0  0  0  0  0  0  0  0  0  0  0  0
   14.8572   21.6625   33.7877 H   0  0  0  0  0  0  0  0  0  0  0  0
   12.8301   19.9581   34.6022 H   0  0  0  0  0  0  0  0  0  0  0  0
   12.8227   19.6095   32.8444 H   0  0  0  0  0  0  0  0  0  0  0  0
   15.4033   19.3990   33.0397 H   0  0  0  0  0  0  0  0  0  0  0  0
   15.1196   19.3637   34.8379 H   0  0  0  0  0  0  0  0  0  0  0  0
   15.8061   16.7233   35.1719 H   0  0  0  0  0  0  0  0  0  0  0  0
   15.5715   15.8055   33.6457 H   0  0  0  0  0  0  0  0  0  0  0  0
   16.5466   17.3141   33.6457 H   0  0  0  0  0  0  0  0  0  0  0  0
   13.7315   17.4213   35.8156 H   0  0  0  0  0  0  0  0  0  0  0  0
   12.4796   17.9844   34.6570 H   0  0  0  0  0  0  0  0  0  0  0  0
   12.9942   16.2634   34.6570 H   0  0  0  0  0  0  0  0  0  0  0  0
    3.9981   22.3942   35.6483 H   0  0  0  0  0  0  0  0  0  0  0  0
  5  1  1  0
 27  2  1  6
  3  4  1  0
  3 12  1  0
  3 30  1  0
  4  5  1  0
  5  6  1  0
  6  7  1  0
  7  8  2  3
  7 12  1  0
  8  9  1  0
  9 10  2  3
 10 11  1  0
 10 16  1  0
 11 13  1  0
 12 21  2  0
 13 14  1  0
 14 15  1  0
 15 16  1  0
 15 19  1  0
 15 20  1  1
 16 17  1  0
 17 18  1  0
 19 18  1  0
 19 22  1  0
 22 23  1  0
 22 24  1  0
 24 25  1  0
 25 26  1  0
 26 27  1  0
 27 28  1  0
 27 29  1  0
  1 31  1  0
  2 32  1  0
  3 33  1  6
  4 34  1  0
  4 35  1  0
  5 36  1  1
  6 37  1  0
  6 38  1  0
  8 39  1  0
  9 40  1  0
 11 41  1  0
 11 42  1  0
 13 43  1  0
 13 44  1  0
 14 45  1  0
 14 46  1  0
 16 47  1  6
 17 48  1  0
 17 49  1  0
 18 50  1  0
 18 51  1  0
 19 52  1  6
 20 53  1  0
 20 54  1  0
 20 55  1  0
 21 56  1  0
 21 57  1  0
 22 58  1  1
 23 59  1  0
 23 60  1  0
 23 61  1  0
 24 62  1  0
 24 63  1  0
 25 64  1  0
 25 65  1  0
 26 66  1  0
 26 67  1  0
 28 68  1  0
 28 69  1  0
 28 70  1  0
 29 71  1  0
 29 72  1  0
 29 73  1  0
 30 74  1  0
M  END
>  <filename_input>  (4) 
7QPP_VDX_docked.sdf

>  <pdb_id>  (4) 
7QPP_VDX

>  <pose_rank>  (4) 
3

>  <num_atoms_heavy>  (4) 
30

>  <num_torsions>  (4) 
6

>  <pose>  (4) 
[7.838034083281153, 25.37503891929037, 32.68563676864576, 1.7342521744942345, 2.1187788459460557, -0.6338598277806635, 6.890741042415512, 1.5063629721025047, 0.9097803967795994, 0.8336319231242182, 0.4309166465143762, -4.102446581591346]

>  <energy>  (4) 
-765.2624346458729

>  <inter_energy>  (4) 
-772.8418016563977

>  <intra_energy>  (4) 
18.90276491089376

>  <rmsd>  (4) 
9.49762

>  <sdf_rank>  (4) 
0

$$$$

     RDKit          3D

 74 76  0  0  0  0  0  0  0  0999 V2000
   12.5043   17.2975   34.2661 O   0  0  0  0  0  0  0  0  0  0  0  0
    4.0537   23.5249   34.8419 O   0  0  0  0  0  0  0  0  0  0  0  0
   14.4163   18.9006   32.7362 C   0  0  1  0  0  0  0  0  0  0  0  0
   14.7296   17.5331   33.3518 C   0  0  0  0  0  0  0  0  0  0  0  0
   13.9229   17.2867   34.5498 C   0  0  1  0  0  0  0  0  0  0  0  0
   14.1737   18.4123   35.6050 C   0  0  0  0  0  0  0  0  0  0  0  0
   13.9648   19.7935   35.0915 C   0  0  0  0  0  0  0  0  0  0  0  0
   13.4618   20.8026   35.8550 C   0  0  0  0  0  0  0  0  0  0  0  0
   13.1471   22.2035   35.3818 C   0  0  0  0  0  0  0  0  0  0  0  0
   12.5323   22.3991   34.1997 C   0  0  0  0  0  0  0  0  0  0  0  0
   11.8923   21.3470   33.3278 C   0  0  0  0  0  0  0  0  0  0  0  0
   14.5998   20.0363   33.6843 C   0  0  0  0  0  0  0  0  0  0  0  0
   10.3916   21.5039   33.2290 C   0  0  0  0  0  0  0  0  0  0  0  0
    9.9757   22.8562   32.9118 C   0  0  0  0  0  0  0  0  0  0  0  0
   10.5888   23.9536   33.8571 C   0  0  1  0  0  0  0  0  0  0  0  0
   12.0093   23.7728   33.9888 C   0  0  1  0  0  0  0  0  0  0  0  0
   12.6534   25.0439   34.5384 C   0  0  0  0  0  0  0  0  0  0  0  0
   11.5128   26.1523   34.2348 C   0  0  0  0  0  0  0  0  0  0  0  0
   10.5095   25.5042   33.4166 C   0  0  2  0  0  0  0  0  0  0  0  0
   10.0080   23.7132   35.2707 C   0  0  0  0  0  0  0  0  0  0  0  0
   15.3405   21.1352   33.4548 C   0  0  0  0  0  0  0  0  0  0  0  0
    9.0628   26.1034   33.4145 C   0  0  2  0  0  0  0  0  0  0  0  0
    9.1593   27.3780   34.2695 C   0  0  0  0  0  0  0  0  0  0  0  0
    7.9437   25.2232   33.9638 C   0  0  0  0  0  0  0  0  0  0  0  0
    6.5701   25.5417   33.2433 C   0  0  0  0  0  0  0  0  0  0  0  0
    5.4283   25.4383   34.2764 C   0  0  0  0  0  0  0  0  0  0  0  0
    4.3135   24.4596   33.8385 C   0  0  2  0  0  0  0  0  0  0  0  0
    3.0068   25.2020   33.5485 C   0  0  0  0  0  0  0  0  0  0  0  0
    4.7813   23.7209   32.6005 C   0  0  0  0  0  0  0  0  0  0  0  0
   15.1452   19.1363   31.5359 O   0  0  0  0  0  0  0  0  0  0  0  0
   11.9976   17.3013   35.1166 H   0  0  0  0  0  0  0  0  0  0  0  0
    4.1720   23.9505   35.7279 H   0  0  0  0  0  0  0  0  0  0  0  0
   13.3456   18.8563   32.4877 H   0  0  0  0  0  0  0  0  0  0  0  0
   14.5163   16.7496   32.6098 H   0  0  0  0  0  0  0  0  0  0  0  0
   15.7908   17.5195   33.6412 H   0  0  0  0  0  0  0  0  0  0  0  0
   14.2209   16.2963   34.9243 H   0  0  0  0  0  0  0  0  0  0  0  0
   13.4871   18.2516   36.4493 H   0  0  0  0  0  0  0  0  0  0  0  0
   15.2326   18.3414   35.8942 H   0  0  0  0  0  0  0  0  0  0  0  0
   13.2664   20.5777   36.9139 H   0  0  0  0  0  0  0  0  0  0  0  0
   13.4214   23.0669   36.0057 H   0  0  0  0  0  0  0  0  0  0  0  0
   12.3208   21.4192   32.3172 H   0  0  0  0  0  0  0  0  0  0  0  0
   12.0942   20.3679   33.7866 H   0  0  0  0  0  0  0  0  0  0  0  0
   10.0214   20.8310   32.4414 H   0  0  0  0  0  0  0  0  0  0  0  0
    9.9728   21.2573   34.2157 H   0  0  0  0  0  0  0  0  0  0  0  0
   10.2823   23.0790   31.8792 H   0  0  0  0  0  0  0  0  0  0  0  0
    8.8847   22.8932   33.0477 H   0  0  0  0  0  0  0  0  0  0  0  0
   12.5167   23.6949   33.0159 H   0  0  0  0  0  0  0  0  0  0  0  0
   12.8514   24.9582   35.6170 H   0  0  0  0  0  0  0  0  0  0  0  0
   13.6308   25.2769   34.0908 H   0  0  0  0  0  0  0  0  0  0  0  0
   11.0652   26.5033   35.1763 H   0  0  0  0  0  0  0  0  0  0  0  0
   11.9381   27.0268   33.7204 H   0  0  0  0  0  0  0  0  0  0  0  0
   10.7403   25.6699   32.3539 H   0  0  0  0  0  0  0  0  0  0  0  0
   10.7460   24.0186   36.0271 H   0  0  0  0  0  0  0  0  0  0  0  0
    9.0891   24.3050   35.3950 H   0  0  0  0  0  0  0  0  0  0  0  0
    9.7759   22.6452   35.3950 H   0  0  0  0  0  0  0  0  0  0  0  0
   15.4124   21.9202   34.2221 H   0  0  0  0  0  0  0  0  0  0  0  0
   15.8745   21.2491   32.4999 H   0  0  0  0  0  0  0  0  0  0  0  0
    8.7727   26.2529   32.3640 H   0  0  0  0  0  0  0  0  0  0  0  0
    9.1388   27.1070   35.3354 H   0  0  0  0  0  0  0  0  0  0  0  0
   10.0996   27.9016   34.0423 H   0  0  0  0  0  0  0  0  0  0  0  0
    8.3085   28.0372   34.0423 H   0  0  0  0  0  0  0  0  0  0  0  0
    8.2014   24.1669   33.7973 H   0  0  0  0  0  0  0  0  0  0  0  0
    7.8322   25.4263   35.0392 H   0  0  0  0  0  0  0  0  0  0  0  0
    6.5993   26.5589   32.8257 H   0  0  0  0  0  0  0  0  0  0  0  0
    6.4013   24.8228   32.4280 H   0  0  0  0  0  0  0  0  0  0  0  0
    5.8482   25.0889   35.2312 H   0  0  0  0  0  0  0  0  0  0  0  0
    4.9755   26.4363   34.3719 H   0  0  0  0  0  0  0  0  0  0  0  0
    2.5229   25.4769   34.4973 H   0  0  0  0  0  0  0  0  0  0  0  0
    3.2229   26.1122   32.9698 H   0  0  0  0  0  0  0  0  0  0  0  0
    2.3355   24.5504   32.9698 H   0  0  0  0  0  0  0  0  0  0  0  0
    5.3477   22.8266   32.8993 H   0  0  0  0  0  0  0  0  0  0  0  0
    3.9090   23.4195   32.0019 H   0  0  0  0  0  0  0  0  0  0  0  0
    5.4266   24.3806   32.0019 H   0  0  0  0  0  0  0  0  0  0  0  0
   16.0627   19.4330   31.7599 H   0  0  0  0  0  0  0  0  0  0  0  0
  5  1  1  0
 27  2  1  1
  3  4  1  0
  3 12  1  0
  3 30  1  0
  4  5  1  0
  5  6  1  0
  6  7  1  0
  7  8  2  3
  7 12  1  0
  8  9  1  0
  9 10  2  3
 10 11  1  0
 10 16  1  0
 11 13  1  0
 12 21  2  0
 13 14  1  0
 14 15  1  0
 15 16  1  0
 15 19  1  0
 15 20  1  1
 16 17  1  0
 17 18  1  0
 19 18  1  0
 19 22  1  0
 22 23  1  0
 22 24  1  0
 24 25  1  0
 25 26  1  0
 26 27  1  0
 27 28  1  0
 27 29  1  0
  1 31  1  0
  2 32  1  0
  3 33  1  6
  4 34  1  0
  4 35  1  0
  5 36  1  1
  6 37  1  0
  6 38  1  0
  8 39  1  0
  9 40  1  0
 11 41  1  0
 11 42  1  0
 13 43  1  0
 13 44  1  0
 14 45  1  0
 14 46  1  0
 16 47  1  6
 17 48  1  0
 17 49  1  0
 18 50  1  0
 18 51  1  0
 19 52  1  6
 20 53  1  0
 20 54  1  0
 20 55  1  0
 21 56  1  0
 21 57  1  0
 22 58  1  6
 23 59  1  0
 23 60  1  0
 23 61  1  0
 24 62  1  0
 24 63  1  0
 25 64  1  0
 25 65  1  0
 26 66  1  0
 26 67  1  0
 28 68  1  0
 28 69  1  0
 28 70  1  0
 29 71  1  0
 29 72  1  0
 29 73  1  0
 30 74  1  0
M  END
>  <filename_input>  (5) 
7QPP_VDX_docked.sdf

>  <pdb_id>  (5) 
7QPP_VDX

>  <pose_rank>  (5) 
4

>  <num_atoms_heavy>  (5) 
30

>  <num_torsions>  (5) 
6

>  <pose>  (5) 
[13.147068874303004, 22.203491975119288, 35.38175138526574, 4.278539308761705, -2.4889199741832297, 0.5726352209544311, -2.570320183769107, 4.9243034889067365, 0.3153269743332301, -5.437870519681956, 1.1404179039824691, 3.2638297604840623]

>  <energy>  (5) 
-717.5925874751562

>  <inter_energy>  (5) 
-795.6969332666946

>  <intra_energy>  (5) 
93.40324173645755

>  <rmsd>  (5) 
2.46703

>  <sdf_rank>  (5) 
0

$$$$

     RDKit          3D

 74 76  0  0  0  0  0  0  0  0999 V2000
    3.8730   26.6155   34.8010 O   0  0  0  0  0  0  0  0  0  0  0  0
   14.1836   16.5853   34.7011 O   0  0  0  0  0  0  0  0  0  0  0  0
    4.4660   24.7818   32.5982 C   0  0  1  0  0  0  0  0  0  0  0  0
    3.2566   24.6539   33.5299 C   0  0  0  0  0  0  0  0  0  0  0  0
    3.5400   25.2087   34.8560 C   0  0  1  0  0  0  0  0  0  0  0  0
    4.7732   24.4844   35.4870 C   0  0  0  0  0  0  0  0  0  0  0  0
    5.9913   24.4873   34.6318 C   0  0  0  0  0  0  0  0  0  0  0  0
    7.2536   24.5692   35.1360 C   0  0  0  0  0  0  0  0  0  0  0  0
    8.5290   24.6593   34.3292 C   0  0  0  0  0  0  0  0  0  0  0  0
    9.7149   24.8131   34.9484 C   0  0  0  0  0  0  0  0  0  0  0  0
    9.9852   24.6941   36.4281 C   0  0  0  0  0  0  0  0  0  0  0  0
    5.7012   24.1428   33.1353 C   0  0  0  0  0  0  0  0  0  0  0  0
   10.8632   23.5110   36.7683 C   0  0  0  0  0  0  0  0  0  0  0  0
   12.0566   23.4276   35.9490 C   0  0  0  0  0  0  0  0  0  0  0  0
   11.7773   23.4866   34.4023 C   0  0  1  0  0  0  0  0  0  0  0  0
   10.9024   24.5834   34.0868 C   0  0  1  0  0  0  0  0  0  0  0  0
   10.9691   24.8978   32.5937 C   0  0  0  0  0  0  0  0  0  0  0  0
   12.3607   24.1886   32.1667 C   0  0  0  0  0  0  0  0  0  0  0  0
   13.0048   23.7640   33.3918 C   0  0  2  0  0  0  0  0  0  0  0  0
   10.9886   22.2082   34.0327 C   0  0  0  0  0  0  0  0  0  0  0  0
    6.4634   23.2448   32.4859 C   0  0  0  0  0  0  0  0  0  0  0  0
   14.0501   22.6010   33.3083 C   0  0  2  0  0  0  0  0  0  0  0  0
   13.8602   21.9958   31.9074 C   0  0  0  0  0  0  0  0  0  0  0  0
   13.9383   21.4884   34.3467 C   0  0  0  0  0  0  0  0  0  0  0  0
   14.8240   20.2419   33.9357 C   0  0  0  0  0  0  0  0  0  0  0  0
   14.3366   19.0033   34.7167 C   0  0  0  0  0  0  0  0  0  0  0  0
   14.7875   17.6731   34.0688 C   0  0  2  0  0  0  0  0  0  0  0  0
   14.4028   17.6195   32.5884 C   0  0  0  0  0  0  0  0  0  0  0  0
   16.2900   17.5481   34.2236 C   0  0  0  0  0  0  0  0  0  0  0  0
    4.1935   24.3038   31.2849 O   0  0  0  0  0  0  0  0  0  0  0  0
    3.9572   26.9709   35.7212 H   0  0  0  0  0  0  0  0  0  0  0  0
   14.2461   16.6978   35.6827 H   0  0  0  0  0  0  0  0  0  0  0  0
    4.6602   25.8629   32.5395 H   0  0  0  0  0  0  0  0  0  0  0  0
    2.4070   25.1965   33.0895 H   0  0  0  0  0  0  0  0  0  0  0  0
    3.0210   23.5857   33.6455 H   0  0  0  0  0  0  0  0  0  0  0  0
    2.6272   25.0645   35.4526 H   0  0  0  0  0  0  0  0  0  0  0  0
    5.0176   24.9843   36.4358 H   0  0  0  0  0  0  0  0  0  0  0  0
    4.4849   23.4311   35.6194 H   0  0  0  0  0  0  0  0  0  0  0  0
    7.3546   24.5699   36.2313 H   0  0  0  0  0  0  0  0  0  0  0  0
    8.4881   24.5989   33.2317 H   0  0  0  0  0  0  0  0  0  0  0  0
   10.4849   25.6127   36.7694 H   0  0  0  0  0  0  0  0  0  0  0  0
    9.0183   24.5454   36.9312 H   0  0  0  0  0  0  0  0  0  0  0  0
   11.1683   23.5943   37.8219 H   0  0  0  0  0  0  0  0  0  0  0  0
   10.2733   22.6023   36.5780 H   0  0  0  0  0  0  0  0  0  0  0  0
   12.7168   24.2667   36.2133 H   0  0  0  0  0  0  0  0  0  0  0  0
   12.5137   22.4479   36.1522 H   0  0  0  0  0  0  0  0  0  0  0  0
   11.2523   25.5370   34.5088 H   0  0  0  0  0  0  0  0  0  0  0  0
   10.1154   24.4617   32.0542 H   0  0  0  0  0  0  0  0  0  0  0  0
   10.9281   25.9725   32.3629 H   0  0  0  0  0  0  0  0  0  0  0  0
   12.1611   23.3196   31.5225 H   0  0  0  0  0  0  0  0  0  0  0  0
   13.0015   24.8826   31.6029 H   0  0  0  0  0  0  0  0  0  0  0  0
   13.6881   24.5530   33.7389 H   0  0  0  0  0  0  0  0  0  0  0  0
   10.6715   21.6943   34.9521 H   0  0  0  0  0  0  0  0  0  0  0  0
   10.1023   22.4822   33.4415 H   0  0  0  0  0  0  0  0  0  0  0  0
   11.6311   21.5390   33.4415 H   0  0  0  0  0  0  0  0  0  0  0  0
    7.3594   22.8305   32.9713 H   0  0  0  0  0  0  0  0  0  0  0  0
    6.1907   22.9245   31.4695 H   0  0  0  0  0  0  0  0  0  0  0  0
   15.0398   23.0361   33.5113 H   0  0  0  0  0  0  0  0  0  0  0  0
   13.5322   20.9501   32.0011 H   0  0  0  0  0  0  0  0  0  0  0  0
   13.0994   22.5711   31.3595 H   0  0  0  0  0  0  0  0  0  0  0  0
   14.8133   22.0334   31.3595 H   0  0  0  0  0  0  0  0  0  0  0  0
   14.2809   21.8685   35.3204 H   0  0  0  0  0  0  0  0  0  0  0  0
   12.8876   21.1685   34.4078 H   0  0  0  0  0  0  0  0  0  0  0  0
   14.7260   20.0593   32.8554 H   0  0  0  0  0  0  0  0  0  0  0  0
   15.8797   20.4403   34.1727 H   0  0  0  0  0  0  0  0  0  0  0  0
   14.7395   19.0510   35.7392 H   0  0  0  0  0  0  0  0  0  0  0  0
   13.2367   19.0191   34.7116 H   0  0  0  0  0  0  0  0  0  0  0  0
   13.3171   17.4681   32.4969 H   0  0  0  0  0  0  0  0  0  0  0  0
   14.6833   18.5654   32.1021 H   0  0  0  0  0  0  0  0  0  0  0  0
   14.9315   16.7864   32.1021 H   0  0  0  0  0  0  0  0  0  0  0  0
   16.5479   17.5266   35.2928 H   0  0  0  0  0  0  0  0  0  0  0  0
   16.6318   16.6184   33.7453 H   0  0  0  0  0  0  0  0  0  0  0  0
   16.7808   18.4085   33.7453 H   0  0  0  0  0  0  0  0  0  0  0  0
    3.7039   23.4452   31.3412 H   0  0  0  0  0  0  0  0  0  0  0  0
  5  1  1  0
 27  2  1  1
  3  4  1  0
  3 12  1  0
  3 30  1  0
  4  5  1  0
  5  6  1  0
  6  7  1  0
  7  8  2  3
  7 12  1  0
  8  9  1  0
  9 10  2  3
 10 11  1  0
 10 16  1  0
 11 13  1  0
 12 21  2  0
 13 14  1  0
 14 15  1  0
 15 16  1  0
 15 19  1  0
 15 20  1  6
 16 17  1  0
 17 18  1  0
 19 18  1  0
 19 22  1  0
 22 23  1  0
 22 24  1  0
 24 25  1  0
 25 26  1  0
 26 27  1  0
 27 28  1  0
 27 29  1  0
  1 31  1  0
  2 32  1  0
  3 33  1  6
  4 34  1  0
  4 35  1  0
  5 36  1  1
  6 37  1  0
  6 38  1  0
  8 39  1  0
  9 40  1  0
 11 41  1  0
 11 42  1  0
 13 43  1  0
 13 44  1  0
 14 45  1  0
 14 46  1  0
 16 47  1  1
 17 48  1  0
 17 49  1  0
 18 50  1  0
 18 51  1  0
 19 52  1  1
 20 53  1  0
 20 54  1  0
 20 55  1  0
 21 56  1  0
 21 57  1  0
 22 58  1  6
 23 59  1  0
 23 60  1  0
 23 61  1  0
 24 62  1  0
 24 63  1  0
 25 64  1  0
 25 65  1  0
 26 66  1  0
 26 67  1  0
 28 68  1  0
 28 69  1  0
 28 70  1  0
 29 71  1  0
 29 72  1  0
 29 73  1  0
 30 74  1  0
M  END
>  <filename_input>  (6) 
7QPP_VDX_docked.sdf

>  <pdb_id>  (6) 
7QPP_VDX

>  <pose_rank>  (6) 
5

>  <num_atoms_heavy>  (6) 
30

>  <num_torsions>  (6) 
6

>  <pose>  (6) 
[8.528998029414328, 24.659277815401346, 34.329235444266054, -1.6379864130811652, -2.4020677514699496, -0.45154063489723334, -0.2422161044956163, -1.661709926322495, -0.4480579605989991, 0.527567172808933, -0.1544632488243294, -1.9702812641953362]

>  <energy>  (6) 
-750.7548247038059

>  <inter_energy>  (6) 
-781.2133532557528

>  <intra_energy>  (6) 
31.24414697830816

>  <rmsd>  (6) 
9.47331

>  <sdf_rank>  (6) 
0

$$$$

     RDKit          3D

 74 76  0  0  0  0  0  0  0  0999 V2000
    4.6011   24.1228   31.8659 O   0  0  0  0  0  0  0  0  0  0  0  0
   13.1043   17.4510   35.9214 O   0  0  0  0  0  0  0  0  0  0  0  0
    4.6567   24.5757   34.7569 C   0  0  1  0  0  0  0  0  0  0  0  0
    3.6523   25.2229   33.7979 C   0  0  0  0  0  0  0  0  0  0  0  0
    4.2200   25.3869   32.4572 C   0  0  1  0  0  0  0  0  0  0  0  0
    5.5187   26.2540   32.5280 C   0  0  0  0  0  0  0  0  0  0  0  0
    6.5408   25.7524   33.4865 C   0  0  0  0  0  0  0  0  0  0  0  0
    7.8807   25.8572   33.2672 C   0  0  0  0  0  0  0  0  0  0  0  0
    8.9726   25.3010   34.1526 C   0  0  0  0  0  0  0  0  0  0  0  0
    9.2636   23.9864   34.1276 C   0  0  0  0  0  0  0  0  0  0  0  0
    8.7641   22.9679   33.1328 C   0  0  0  0  0  0  0  0  0  0  0  0
    5.9426   25.3220   34.8647 C   0  0  0  0  0  0  0  0  0  0  0  0
    9.8672   22.4147   32.2591 C   0  0  0  0  0  0  0  0  0  0  0  0
   11.0282   21.9766   33.0092 C   0  0  0  0  0  0  0  0  0  0  0  0
   11.5940   23.0565   34.0029 C   0  0  1  0  0  0  0  0  0  0  0  0
   10.5356   23.6167   34.7990 C   0  0  1  0  0  0  0  0  0  0  0  0
   11.1147   24.3280   36.0200 C   0  0  0  0  0  0  0  0  0  0  0  0
   12.5975   23.6832   36.1079 C   0  0  0  0  0  0  0  0  0  0  0  0
   12.6393   22.6023   35.1457 C   0  0  2  0  0  0  0  0  0  0  0  0
   12.1314   24.2269   33.1458 C   0  0  0  0  0  0  0  0  0  0  0  0
    6.5171   25.7297   36.0105 C   0  0  0  0  0  0  0  0  0  0  0  0
   14.0381   22.1546   34.6027 C   0  0  2  0  0  0  0  0  0  0  0  0
   14.5429   23.3475   33.7737 C   0  0  0  0  0  0  0  0  0  0  0  0
   14.0796   20.8984   33.7372 C   0  0  0  0  0  0  0  0  0  0  0  0
   13.4818   19.6563   34.5164 C   0  0  0  0  0  0  0  0  0  0  0  0
   14.0005   18.3588   33.8615 C   0  0  0  0  0  0  0  0  0  0  0  0
   13.8023   17.1156   34.7602 C   0  0  2  0  0  0  0  0  0  0  0  0
   13.0016   16.0305   34.0364 C   0  0  0  0  0  0  0  0  0  0  0  0
   15.1662   16.5846   35.1536 C   0  0  0  0  0  0  0  0  0  0  0  0
    4.1059   24.3511   36.0506 O   0  0  0  0  0  0  0  0  0  0  0  0
    4.7982   23.4691   32.5829 H   0  0  0  0  0  0  0  0  0  0  0  0
   13.6392   17.1940   36.7138 H   0  0  0  0  0  0  0  0  0  0  0  0
    4.8859   23.5997   34.3043 H   0  0  0  0  0  0  0  0  0  0  0  0
    2.7586   24.5850   33.7322 H   0  0  0  0  0  0  0  0  0  0  0  0
    3.3946   26.2186   34.1880 H   0  0  0  0  0  0  0  0  0  0  0  0
    3.4385   25.8635   31.8472 H   0  0  0  0  0  0  0  0  0  0  0  0
    5.9704   26.2797   31.5254 H   0  0  0  0  0  0  0  0  0  0  0  0
    5.2134   27.2482   32.8862 H   0  0  0  0  0  0  0  0  0  0  0  0
    8.1978   26.3964   32.3624 H   0  0  0  0  0  0  0  0  0  0  0  0
    9.5319   25.9731   34.8200 H   0  0  0  0  0  0  0  0  0  0  0  0
    8.3009   22.1359   33.6835 H   0  0  0  0  0  0  0  0  0  0  0  0
    8.0415   23.4731   32.4750 H   0  0  0  0  0  0  0  0  0  0  0  0
    9.4703   21.5563   31.6973 H   0  0  0  0  0  0  0  0  0  0  0  0
   10.1961   23.2282   31.5957 H   0  0  0  0  0  0  0  0  0  0  0  0
   10.7483   21.0853   33.5900 H   0  0  0  0  0  0  0  0  0  0  0  0
   11.8221   21.7727   32.2756 H   0  0  0  0  0  0  0  0  0  0  0  0
    9.9220   22.8456   35.2878 H   0  0  0  0  0  0  0  0  0  0  0  0
   11.1599   25.4162   35.8655 H   0  0  0  0  0  0  0  0  0  0  0  0
   10.5182   24.1986   36.9351 H   0  0  0  0  0  0  0  0  0  0  0  0
   13.3555   24.4408   35.8601 H   0  0  0  0  0  0  0  0  0  0  0  0
   12.8100   23.3173   37.1233 H   0  0  0  0  0  0  0  0  0  0  0  0
   12.3639   21.6597   35.6414 H   0  0  0  0  0  0  0  0  0  0  0  0
   12.4986   25.0264   33.8061 H   0  0  0  0  0  0  0  0  0  0  0  0
   12.9552   23.8684   32.5110 H   0  0  0  0  0  0  0  0  0  0  0  0
   11.3227   24.6180   32.5110 H   0  0  0  0  0  0  0  0  0  0  0  0
    7.4713   26.2762   35.9833 H   0  0  0  0  0  0  0  0  0  0  0  0
    6.0327   25.5165   36.9748 H   0  0  0  0  0  0  0  0  0  0  0  0
   14.6540   21.8816   35.4722 H   0  0  0  0  0  0  0  0  0  0  0  0
   14.8811   24.1467   34.4496 H   0  0  0  0  0  0  0  0  0  0  0  0
   15.3814   23.0245   33.1393 H   0  0  0  0  0  0  0  0  0  0  0  0
   13.7272   23.7245   33.1393 H   0  0  0  0  0  0  0  0  0  0  0  0
   13.4892   21.0696   32.8250 H   0  0  0  0  0  0  0  0  0  0  0  0
   15.1273   20.6820   33.4814 H   0  0  0  0  0  0  0  0  0  0  0  0
   13.8008   19.6920   35.5685 H   0  0  0  0  0  0  0  0  0  0  0  0
   12.3830   19.6825   34.4727 H   0  0  0  0  0  0  0  0  0  0  0  0
   13.4588   18.2003   32.9173 H   0  0  0  0  0  0  0  0  0  0  0  0
   15.0811   18.4797   33.6953 H   0  0  0  0  0  0  0  0  0  0  0  0
   12.5186   15.3759   34.7768 H   0  0  0  0  0  0  0  0  0  0  0  0
   12.2327   16.5011   33.4061 H   0  0  0  0  0  0  0  0  0  0  0  0
   13.6781   15.4346   33.4061 H   0  0  0  0  0  0  0  0  0  0  0  0
   15.2453   16.5537   36.2504 H   0  0  0  0  0  0  0  0  0  0  0  0
   15.2957   15.5703   34.7480 H   0  0  0  0  0  0  0  0  0  0  0  0
   15.9475   17.2442   34.7480 H   0  0  0  0  0  0  0  0  0  0  0  0
    4.7634   24.6193   36.7404 H   0  0  0  0  0  0  0  0  0  0  0  0
  5  1  1  0
 27  2  1  1
  3  4  1  0
  3 12  1  0
  3 30  1  0
  4  5  1  0
  5  6  1  0
  6  7  1  0
  7  8  2  3
  7 12  1  0
  8  9  1  0
  9 10  2  3
 10 11  1  0
 10 16  1  0
 11 13  1  0
 12 21  2  0
 13 14  1  0
 14 15  1  0
 15 16  1  0
 15 19  1  0
 15 20  1  6
 16 17  1  0
 17 18  1  0
 19 18  1  0
 19 22  1  0
 22 23  1  0
 22 24  1  0
 24 25  1  0
 25 26  1  0
 26 27  1  0
 27 28  1  0
 27 29  1  0
  1 31  1  0
  2 32  1  0
  3 33  1  6
  4 34  1  0
  4 35  1  0
  5 36  1  6
  6 37  1  0
  6 38  1  0
  8 39  1  0
  9 40  1  0
 11 41  1  0
 11 42  1  0
 13 43  1  0
 13 44  1  0
 14 45  1  0
 14 46  1  0
 16 47  1  1
 17 48  1  0
 17 49  1  0
 18 50  1  0
 18 51  1  0
 19 52  1  1
 20 53  1  0
 20 54  1  0
 20 55  1  0
 21 56  1  0
 21 57  1  0
 22 58  1  1
 23 59  1  0
 23 60  1  0
 23 61  1  0
 24 62  1  0
 24 63  1  0
 25 64  1  0
 25 65  1  0
 26 66  1  0
 26 67  1  0
 28 68  1  0
 28 69  1  0
 28 70  1  0
 29 71  1  0
 29 72  1  0
 29 73  1  0
 30 74  1  0
M  END
>  <filename_input>  (7) 
7QPP_VDX_docked.sdf

>  <pdb_id>  (7) 
7QPP_VDX

>  <pose_rank>  (7) 
6

>  <num_atoms_heavy>  (7) 
30

>  <num_torsions>  (7) 
6

>  <pose>  (7) 
[8.972647365609337, 25.301014918833257, 34.15255513613131, 0.4932569562001146, 0.694820313437996, 3.2403166443276863, -1.9718279278673225, 3.6743470480784652, 1.920609554932792, 0.5634619331127045, -0.09386932432421352, 1.1131849172504673]

>  <energy>  (7) 
-741.5899255822317

>  <inter_energy>  (7) 
-759.1201939050629

>  <intra_energy>  (7) 
49.63066108169188

>  <rmsd>  (7) 
9.141

>  <sdf_rank>  (7) 
0

$$$$

     RDKit          3D

 74 76  0  0  0  0  0  0  0  0999 V2000
   16.9857   17.6910   34.7195 O   0  0  0  0  0  0  0  0  0  0  0  0
    3.5156   24.9738   35.4200 O   0  0  0  0  0  0  0  0  0  0  0  0
   14.1548   17.2588   35.3245 C   0  0  1  0  0  0  0  0  0  0  0  0
   14.9867   16.3716   34.3928 C   0  0  0  0  0  0  0  0  0  0  0  0
   16.0666   17.1284   33.7542 C   0  0  1  0  0  0  0  0  0  0  0  0
   15.4746   18.3314   32.9506 C   0  0  0  0  0  0  0  0  0  0  0  0
   14.5894   19.2254   33.7457 C   0  0  0  0  0  0  0  0  0  0  0  0
   14.5230   20.5714   33.5504 C   0  0  0  0  0  0  0  0  0  0  0  0
   13.7122   21.5496   34.3696 C   0  0  0  0  0  0  0  0  0  0  0  0
   13.5750   22.8261   33.9630 C   0  0  0  0  0  0  0  0  0  0  0  0
   13.9680   23.3957   32.6222 C   0  0  0  0  0  0  0  0  0  0  0  0
   13.5731   18.4525   34.6470 C   0  0  0  0  0  0  0  0  0  0  0  0
   12.7769   23.8463   31.8070 C   0  0  0  0  0  0  0  0  0  0  0  0
   11.8571   24.6854   32.5502 C   0  0  0  0  0  0  0  0  0  0  0  0
   11.3925   24.0694   33.9207 C   0  0  1  0  0  0  0  0  0  0  0  0
   12.5230   23.5969   34.6733 C   0  0  1  0  0  0  0  0  0  0  0  0
   12.1353   23.3971   36.1369 C   0  0  0  0  0  0  0  0  0  0  0  0
   10.7879   24.2881   36.2483 C   0  0  0  0  0  0  0  0  0  0  0  0
   10.6692   25.0210   35.0054 C   0  0  2  0  0  0  0  0  0  0  0  0
   10.5568   22.8093   33.5938 C   0  0  0  0  0  0  0  0  0  0  0  0
   12.2761   18.8082   34.6657 C   0  0  0  0  0  0  0  0  0  0  0  0
    9.2483   25.5234   34.5805 C   0  0  2  0  0  0  0  0  0  0  0  0
    9.2875   27.0469   34.7865 C   0  0  0  0  0  0  0  0  0  0  0  0
    8.0526   24.9528   35.3378 C   0  0  0  0  0  0  0  0  0  0  0  0
    6.9020   24.5265   34.3370 C   0  0  0  0  0  0  0  0  0  0  0  0
    5.7047   25.4837   34.5154 C   0  0  0  0  0  0  0  0  0  0  0  0
    4.3422   24.7801   34.3123 C   0  0  2  0  0  0  0  0  0  0  0  0
    3.6105   25.3327   33.0868 C   0  0  0  0  0  0  0  0  0  0  0  0
    4.5885   23.2937   34.1482 C   0  0  0  0  0  0  0  0  0  0  0  0
   13.1366   16.5305   36.0028 O   0  0  0  0  0  0  0  0  0  0  0  0
   16.6642   17.4942   35.6349 H   0  0  0  0  0  0  0  0  0  0  0  0
    4.0414   24.8506   36.2497 H   0  0  0  0  0  0  0  0  0  0  0  0
   14.8721   17.6285   36.0720 H   0  0  0  0  0  0  0  0  0  0  0  0
   15.4241   15.5494   34.9783 H   0  0  0  0  0  0  0  0  0  0  0  0
   14.3252   15.9821   33.6050 H   0  0  0  0  0  0  0  0  0  0  0  0
   16.5978   16.4187   33.1030 H   0  0  0  0  0  0  0  0  0  0  0  0
   16.3112   18.9314   32.5632 H   0  0  0  0  0  0  0  0  0  0  0  0
   14.8512   17.9002   32.1534 H   0  0  0  0  0  0  0  0  0  0  0  0
   15.1140   20.9851   32.7200 H   0  0  0  0  0  0  0  0  0  0  0  0
   13.2321   21.2173   35.3019 H   0  0  0  0  0  0  0  0  0  0  0  0
   14.6286   24.2597   32.7871 H   0  0  0  0  0  0  0  0  0  0  0  0
   14.4738   22.5982   32.0581 H   0  0  0  0  0  0  0  0  0  0  0  0
   13.1428   24.4135   30.9384 H   0  0  0  0  0  0  0  0  0  0  0  0
   12.2252   22.9423   31.5095 H   0  0  0  0  0  0  0  0  0  0  0  0
   12.3528   25.6462   32.7533 H   0  0  0  0  0  0  0  0  0  0  0  0
   10.9557   24.7961   31.9296 H   0  0  0  0  0  0  0  0  0  0  0  0
   13.3097   24.3589   34.7760 H   0  0  0  0  0  0  0  0  0  0  0  0
   11.9344   22.3382   36.3569 H   0  0  0  0  0  0  0  0  0  0  0  0
   12.9214   23.6879   36.8493 H   0  0  0  0  0  0  0  0  0  0  0  0
    9.9130   23.6362   36.3889 H   0  0  0  0  0  0  0  0  0  0  0  0
   10.8363   24.9726   37.1080 H   0  0  0  0  0  0  0  0  0  0  0  0
   11.1486   26.0051   35.1132 H   0  0  0  0  0  0  0  0  0  0  0  0
   10.2375   22.3280   34.5299 H   0  0  0  0  0  0  0  0  0  0  0  0
    9.6708   23.0984   33.0094 H   0  0  0  0  0  0  0  0  0  0  0  0
   11.1678   22.1056   33.0094 H   0  0  0  0  0  0  0  0  0  0  0  0
   11.9457   19.7113   34.1316 H   0  0  0  0  0  0  0  0  0  0  0  0
   11.5458   18.1960   35.2151 H   0  0  0  0  0  0  0  0  0  0  0  0
    9.0773   25.1846   33.5480 H   0  0  0  0  0  0  0  0  0  0  0  0
    9.2933   27.2712   35.8634 H   0  0  0  0  0  0  0  0  0  0  0  0
   10.1965   27.4565   34.3218 H   0  0  0  0  0  0  0  0  0  0  0  0
    8.4008   27.5027   34.3218 H   0  0  0  0  0  0  0  0  0  0  0  0
    8.3764   24.0715   35.9109 H   0  0  0  0  0  0  0  0  0  0  0  0
    7.6618   25.7277   36.0136 H   0  0  0  0  0  0  0  0  0  0  0  0
    7.2715   24.5860   33.3026 H   0  0  0  0  0  0  0  0  0  0  0  0
    6.5882   23.4935   34.5480 H   0  0  0  0  0  0  0  0  0  0  0  0
    5.7368   25.9015   35.5324 H   0  0  0  0  0  0  0  0  0  0  0  0
    5.7904   26.2690   33.7499 H   0  0  0  0  0  0  0  0  0  0  0  0
    2.7725   25.9654   33.4146 H   0  0  0  0  0  0  0  0  0  0  0  0
    4.3077   25.9316   32.4826 H   0  0  0  0  0  0  0  0  0  0  0  0
    3.2252   24.4981   32.4826 H   0  0  0  0  0  0  0  0  0  0  0  0
    4.6665   22.8233   35.1395 H   0  0  0  0  0  0  0  0  0  0  0  0
    3.7529   22.8426   33.5930 H   0  0  0  0  0  0  0  0  0  0  0  0
    5.5250   23.1363   33.5930 H   0  0  0  0  0  0  0  0  0  0  0  0
   13.2622   16.6204   36.9807 H   0  0  0  0  0  0  0  0  0  0  0  0
  5  1  1  0
 27  2  1  1
  3  4  1  0
  3 12  1  0
  3 30  1  0
  4  5  1  0
  5  6  1  0
  6  7  1  0
  7  8  2  3
  7 12  1  0
  8  9  1  0
  9 10  2  3
 10 11  1  0
 10 16  1  0
 11 13  1  0
 12 21  2  0
 13 14  1  0
 14 15  1  0
 15 16  1  0
 15 19  1  0
 15 20  1  6
 16 17  1  0
 17 18  1  0
 19 18  1  0
 19 22  1  0
 22 23  1  0
 22 24  1  0
 24 25  1  0
 25 26  1  0
 26 27  1  0
 27 28  1  0
 27 29  1  0
  1 31  1  0
  2 32  1  0
  3 33  1  1
  4 34  1  0
  4 35  1  0
  5 36  1  6
  6 37  1  0
  6 38  1  0
  8 39  1  0
  9 40  1  0
 11 41  1  0
 11 42  1  0
 13 43  1  0
 13 44  1  0
 14 45  1  0
 14 46  1  0
 16 47  1  1
 17 48  1  0
 17 49  1  0
 18 50  1  0
 18 51  1  0
 19 52  1  1
 20 53  1  0
 20 54  1  0
 20 55  1  0
 21 56  1  0
 21 57  1  0
 22 58  1  6
 23 59  1  0
 23 60  1  0
 23 61  1  0
 24 62  1  0
 24 63  1  0
 25 64  1  0
 25 65  1  0
 26 66  1  0
 26 67  1  0
 28 68  1  0
 28 69  1  0
 28 70  1  0
 29 71  1  0
 29 72  1  0
 29 73  1  0
 30 74  1  0
M  END
>  <filename_input>  (8) 
7QPP_VDX_docked.sdf

>  <pdb_id>  (8) 
7QPP_VDX

>  <pose_rank>  (8) 
7

>  <num_atoms_heavy>  (8) 
30

>  <num_torsions>  (8) 
6

>  <pose>  (8) 
[13.712152066855861, 21.549636606840185, 34.36960940138447, 3.921358756177934, -4.208027666447757, 2.892885724461945, -0.007690457556651527, 6.7285507887671585, 0.578683473195905, -4.879308404326751, 0.7818037722841414, 3.2256527633463103]

>  <energy>  (8) 
-1407.3981361199067

>  <inter_energy>  (8) 
-1407.3120316876598

>  <intra_energy>  (8) 
0.15051299791413628

>  <rmsd>  (8) 
0.658075

>  <sdf_rank>  (8) 
0

$$$$

     RDKit          3D

 74 76  0  0  0  0  0  0  0  0999 V2000
    7.9700   27.8905   33.3806 O   0  0  0  0  0  0  0  0  0  0  0  0
   13.5800   15.1118   34.0253 O   0  0  0  0  0  0  0  0  0  0  0  0
    7.8217   25.2681   34.6720 C   0  0  1  0  0  0  0  0  0  0  0  0
    7.4649   26.5918   35.3559 C   0  0  0  0  0  0  0  0  0  0  0  0
    8.2273   27.7091   34.7927 C   0  0  1  0  0  0  0  0  0  0  0  0
    9.7599   27.4366   34.9339 C   0  0  0  0  0  0  0  0  0  0  0  0
   10.2083   26.1378   34.3618 C   0  0  0  0  0  0  0  0  0  0  0  0
   11.4181   25.9683   33.7601 C   0  0  0  0  0  0  0  0  0  0  0  0
   11.9071   24.7061   33.0870 C   0  0  0  0  0  0  0  0  0  0  0  0
   13.0058   24.0750   33.5431 C   0  0  0  0  0  0  0  0  0  0  0  0
   13.7391   24.3527   34.8322 C   0  0  0  0  0  0  0  0  0  0  0  0
    9.2747   24.9402   34.7314 C   0  0  0  0  0  0  0  0  0  0  0  0
   13.6470   23.2075   35.8153 C   0  0  0  0  0  0  0  0  0  0  0  0
   13.9660   21.9205   35.2285 C   0  0  0  0  0  0  0  0  0  0  0  0
   13.1584   21.5957   33.9185 C   0  0  1  0  0  0  0  0  0  0  0  0
   13.2064   22.7054   33.0052 C   0  0  1  0  0  0  0  0  0  0  0  0
   12.8026   22.2522   31.6038 C   0  0  0  0  0  0  0  0  0  0  0  0
   13.0024   20.6484   31.7028 C   0  0  0  0  0  0  0  0  0  0  0  0
   13.6525   20.3871   32.9697 C   0  0  2  0  0  0  0  0  0  0  0  0
   11.6717   21.4560   34.3227 C   0  0  0  0  0  0  0  0  0  0  0  0
    9.7984   23.7843   35.1772 C   0  0  0  0  0  0  0  0  0  0  0  0
   13.4912   18.9624   33.5992 C   0  0  2  0  0  0  0  0  0  0  0  0
   12.4411   19.1351   34.7093 C   0  0  0  0  0  0  0  0  0  0  0  0
   14.7399   18.3192   34.1956 C   0  0  0  0  0  0  0  0  0  0  0  0
   15.2091   17.0832   33.3241 C   0  0  0  0  0  0  0  0  0  0  0  0
   15.8162   16.0151   34.2580 C   0  0  0  0  0  0  0  0  0  0  0  0
   14.7730   14.9784   34.7372 C   0  0  2  0  0  0  0  0  0  0  0  0
   15.2776   13.5483   34.5304 C   0  0  0  0  0  0  0  0  0  0  0  0
   14.4890   15.2256   36.2053 C   0  0  0  0  0  0  0  0  0  0  0  0
    7.0486   24.1774   35.1620 O   0  0  0  0  0  0  0  0  0  0  0  0
    7.1668   28.4568   33.2616 H   0  0  0  0  0  0  0  0  0  0  0  0
   12.8247   15.1962   34.6598 H   0  0  0  0  0  0  0  0  0  0  0  0
    7.5681   25.4237   33.6130 H   0  0  0  0  0  0  0  0  0  0  0  0
    6.3910   26.7868   35.2192 H   0  0  0  0  0  0  0  0  0  0  0  0
    7.7143   26.5070   36.4239 H   0  0  0  0  0  0  0  0  0  0  0  0
    7.9150   28.6064   35.3470 H   0  0  0  0  0  0  0  0  0  0  0  0
   10.3018   28.2443   34.4201 H   0  0  0  0  0  0  0  0  0  0  0  0
    9.9736   27.3953   36.0122 H   0  0  0  0  0  0  0  0  0  0  0  0
   12.1027   26.8294   33.7642 H   0  0  0  0  0  0  0  0  0  0  0  0
   11.3631   24.3014   32.2208 H   0  0  0  0  0  0  0  0  0  0  0  0
   14.7993   24.5341   34.6018 H   0  0  0  0  0  0  0  0  0  0  0  0
   13.2681   25.2301   35.2996 H   0  0  0  0  0  0  0  0  0  0  0  0
   14.3488   23.3985   36.6405 H   0  0  0  0  0  0  0  0  0  0  0  0
   12.6039   23.1582   36.1610 H   0  0  0  0  0  0  0  0  0  0  0  0
   15.0387   21.9077   34.9854 H   0  0  0  0  0  0  0  0  0  0  0  0
   13.6899   21.1561   35.9698 H   0  0  0  0  0  0  0  0  0  0  0  0
   14.2331   23.0521   32.8162 H   0  0  0  0  0  0  0  0  0  0  0  0
   11.7565   22.5126   31.3848 H   0  0  0  0  0  0  0  0  0  0  0  0
   13.3843   22.7244   30.7984 H   0  0  0  0  0  0  0  0  0  0  0  0
   12.0266   20.1420   31.6659 H   0  0  0  0  0  0  0  0  0  0  0  0
   13.6060   20.2726   30.8635 H   0  0  0  0  0  0  0  0  0  0  0  0
   14.7425   20.3624   32.8239 H   0  0  0  0  0  0  0  0  0  0  0  0
   11.5892   21.4483   35.4196 H   0  0  0  0  0  0  0  0  0  0  0  0
   11.1005   22.3045   33.9180 H   0  0  0  0  0  0  0  0  0  0  0  0
   11.2685   20.5161   33.9180 H   0  0  0  0  0  0  0  0  0  0  0  0
   10.8889   23.6396   35.1803 H   0  0  0  0  0  0  0  0  0  0  0  0
    9.1363   22.9837   35.5387 H   0  0  0  0  0  0  0  0  0  0  0  0
   13.2181   18.2747   32.7852 H   0  0  0  0  0  0  0  0  0  0  0  0
   12.9295   19.0548   35.6917 H   0  0  0  0  0  0  0  0  0  0  0  0
   11.9671   20.1232   34.6152 H   0  0  0  0  0  0  0  0  0  0  0  0
   11.6757   18.3507   34.6152 H   0  0  0  0  0  0  0  0  0  0  0  0
   15.5484   19.0644   34.2286 H   0  0  0  0  0  0  0  0  0  0  0  0
   14.5029   17.9648   35.2096 H   0  0  0  0  0  0  0  0  0  0  0  0
   14.3461   16.6592   32.7899 H   0  0  0  0  0  0  0  0  0  0  0  0
   15.9617   17.4084   32.5907 H   0  0  0  0  0  0  0  0  0  0  0  0
   16.6142   15.4865   33.7160 H   0  0  0  0  0  0  0  0  0  0  0  0
   16.2028   16.5331   35.1480 H   0  0  0  0  0  0  0  0  0  0  0  0
   15.4451   13.0735   35.5084 H   0  0  0  0  0  0  0  0  0  0  0  0
   14.5282   12.9730   33.9670 H   0  0  0  0  0  0  0  0  0  0  0  0
   16.2221   13.5706   33.9670 H   0  0  0  0  0  0  0  0  0  0  0  0
   15.1780   14.6259   36.8181 H   0  0  0  0  0  0  0  0  0  0  0  0
   14.6311   16.2926   36.4316 H   0  0  0  0  0  0  0  0  0  0  0  0
   13.4518   14.9378   36.4316 H   0  0  0  0  0  0  0  0  0  0  0  0
    7.0552   24.1866   36.1519 H   0  0  0  0  0  0  0  0  0  0  0  0
  5  1  1  0
 27  2  1  6
  3  4  1  0
  3 12  1  0
  3 30  1  0
  4  5  1  0
  5  6  1  0
  6  7  1  0
  7  8  2  3
  7 12  1  0
  8  9  1  0
  9 10  2  3
 10 11  1  0
 10 16  1  0
 11 13  1  0
 12 21  2  0
 13 14  1  0
 14 15  1  0
 15 16  1  0
 15 19  1  0
 15 20  1  1
 16 17  1  0
 17 18  1  0
 19 18  1  0
 19 22  1  0
 22 23  1  0
 22 24  1  0
 24 25  1  0
 25 26  1  0
 26 27  1  0
 27 28  1  0
 27 29  1  0
  1 31  1  0
  2 32  1  0
  3 33  1  6
  4 34  1  0
  4 35  1  0
  5 36  1  1
  6 37  1  0
  6 38  1  0
  8 39  1  0
  9 40  1  0
 11 41  1  0
 11 42  1  0
 13 43  1  0
 13 44  1  0
 14 45  1  0
 14 46  1  0
 16 47  1  6
 17 48  1  0
 17 49  1  0
 18 50  1  0
 18 51  1  0
 19 52  1  6
 20 53  1  0
 20 54  1  0
 20 55  1  0
 21 56  1  0
 21 57  1  0
 22 58  1  6
 23 59  1  0
 23 60  1  0
 23 61  1  0
 24 62  1  0
 24 63  1  0
 25 64  1  0
 25 65  1  0
 26 66  1  0
 26 67  1  0
 28 68  1  0
 28 69  1  0
 28 70  1  0
 29 71  1  0
 29 72  1  0
 29 73  1  0
 30 74  1  0
M  END
>  <filename_input>  (9) 
7QPP_VDX_docked.sdf

>  <pdb_id>  (9) 
7QPP_VDX

>  <pose_rank>  (9) 
8

>  <num_atoms_heavy>  (9) 
30

>  <num_torsions>  (9) 
6

>  <pose>  (9) 
[11.90713587255405, 24.706088975958046, 33.08695534614796, -2.775568041848828, -1.575775717465014, 0.3771168284915737, 0.8920394771119816, -3.226490033403152, 0.9902233351298334, 0.7905512770203394, -1.3567863315011097, 1.2206316908196617]

>  <energy>  (9) 
-609.0808660768042

>  <inter_energy>  (9) 
-670.1588885747308

>  <intra_energy>  (9) 
79.57240846477873

>  <rmsd>  (9) 
9.32789

>  <sdf_rank>  (9) 
0

$$$$

     RDKit          3D

 74 76  0  0  0  0  0  0  0  0999 V2000
   16.0837   32.0671   32.9975 O   0  0  0  0  0  0  0  0  0  0  0  0
   15.8839   17.4090   35.1312 O   0  0  0  0  0  0  0  0  0  0  0  0
   16.4950   29.7634   31.2395 C   0  0  1  0  0  0  0  0  0  0  0  0
   16.2138   31.1876   30.7496 C   0  0  0  0  0  0  0  0  0  0  0  0
   15.4158   31.9409   31.7203 C   0  0  1  0  0  0  0  0  0  0  0  0
   14.0673   31.1997   31.9952 C   0  0  0  0  0  0  0  0  0  0  0  0
   14.2209   29.7795   32.4129 C   0  0  0  0  0  0  0  0  0  0  0  0
   13.3900   29.1727   33.3049 C   0  0  0  0  0  0  0  0  0  0  0  0
   13.5319   27.7645   33.8363 C   0  0  0  0  0  0  0  0  0  0  0  0
   12.4380   27.0314   34.1182 C   0  0  0  0  0  0  0  0  0  0  0  0
   11.0098   27.3639   33.7627 C   0  0  0  0  0  0  0  0  0  0  0  0
   15.2615   28.9885   31.5562 C   0  0  0  0  0  0  0  0  0  0  0  0
   10.4183   26.4007   32.7583 C   0  0  0  0  0  0  0  0  0  0  0  0
   10.6232   25.0087   33.1087 C   0  0  0  0  0  0  0  0  0  0  0  0
   12.1203   24.6396   33.4187 C   0  0  1  0  0  0  0  0  0  0  0  0
   12.6959   25.5854   34.3364 C   0  0  1  0  0  0  0  0  0  0  0  0
   13.9687   25.0113   34.9552 C   0  0  0  0  0  0  0  0  0  0  0  0
   13.7902   23.4270   34.6724 C   0  0  0  0  0  0  0  0  0  0  0  0
   12.4487   23.2439   34.1597 C   0  0  2  0  0  0  0  0  0  0  0  0
   12.9129   24.8065   32.1007 C   0  0  0  0  0  0  0  0  0  0  0  0
   14.9569   27.7707   31.0732 C   0  0  0  0  0  0  0  0  0  0  0  0
   12.1583   21.9693   33.2977 C   0  0  2  0  0  0  0  0  0  0  0  0
   11.0563   21.2159   34.0612 C   0  0  0  0  0  0  0  0  0  0  0  0
   13.3247   21.0178   33.0467 C   0  0  0  0  0  0  0  0  0  0  0  0
   13.3906   19.8986   34.1648 C   0  0  0  0  0  0  0  0  0  0  0  0
   14.5072   18.8965   33.8035 C   0  0  0  0  0  0  0  0  0  0  0  0
   14.5651   17.6920   34.7723 C   0  0  2  0  0  0  0  0  0  0  0  0
   13.7869   17.9778   36.0588 C   0  0  0  0  0  0  0  0  0  0  0  0
   13.9861   16.4810   34.0687 C   0  0  0  0  0  0  0  0  0  0  0  0
   17.3205   29.0319   30.3390 O   0  0  0  0  0  0  0  0  0  0  0  0
   15.4263   31.9429   33.7273 H   0  0  0  0  0  0  0  0  0  0  0  0
   15.9610   17.3925   36.1180 H   0  0  0  0  0  0  0  0  0  0  0  0
   17.0449   29.8961   32.1828 H   0  0  0  0  0  0  0  0  0  0  0  0
   17.1705   31.7073   30.5931 H   0  0  0  0  0  0  0  0  0  0  0  0
   15.6449   31.1237   29.8103 H   0  0  0  0  0  0  0  0  0  0  0  0
   15.2570   32.9374   31.2824 H   0  0  0  0  0  0  0  0  0  0  0  0
   13.5355   31.7377   32.7938 H   0  0  0  0  0  0  0  0  0  0  0  0
   13.5150   31.1894   31.0440 H   0  0  0  0  0  0  0  0  0  0  0  0
   12.5368   29.7615   33.6728 H   0  0  0  0  0  0  0  0  0  0  0  0
   14.5331   27.3368   33.9933 H   0  0  0  0  0  0  0  0  0  0  0  0
   10.4027   27.3330   34.6795 H   0  0  0  0  0  0  0  0  0  0  0  0
   11.0059   28.3643   33.3053 H   0  0  0  0  0  0  0  0  0  0  0  0
    9.3365   26.5880   32.6903 H   0  0  0  0  0  0  0  0  0  0  0  0
   10.9302   26.5741   31.8003 H   0  0  0  0  0  0  0  0  0  0  0  0
   10.0200   24.7844   34.0008 H   0  0  0  0  0  0  0  0  0  0  0  0
   10.3237   24.4133   32.2336 H   0  0  0  0  0  0  0  0  0  0  0  0
   12.0807   25.7271   35.2372 H   0  0  0  0  0  0  0  0  0  0  0  0
   14.8680   25.4074   34.4610 H   0  0  0  0  0  0  0  0  0  0  0  0
   14.0988   25.2618   36.0184 H   0  0  0  0  0  0  0  0  0  0  0  0
   14.5289   23.0888   33.9308 H   0  0  0  0  0  0  0  0  0  0  0  0
   13.9461   22.8414   35.5905 H   0  0  0  0  0  0  0  0  0  0  0  0
   11.7659   23.0188   34.9922 H   0  0  0  0  0  0  0  0  0  0  0  0
   13.9653   25.0281   32.3313 H   0  0  0  0  0  0  0  0  0  0  0  0
   12.8535   23.8761   31.5168 H   0  0  0  0  0  0  0  0  0  0  0  0
   12.4833   25.6339   31.5168 H   0  0  0  0  0  0  0  0  0  0  0  0
   14.0175   27.2808   31.3692 H   0  0  0  0  0  0  0  0  0  0  0  0
   15.6471   27.2647   30.3821 H   0  0  0  0  0  0  0  0  0  0  0  0
   11.8913   22.3122   32.2872 H   0  0  0  0  0  0  0  0  0  0  0  0
   11.2185   21.3268   35.1435 H   0  0  0  0  0  0  0  0  0  0  0  0
   10.0741   21.6324   33.7931 H   0  0  0  0  0  0  0  0  0  0  0  0
   11.0879   20.1495   33.7931 H   0  0  0  0  0  0  0  0  0  0  0  0
   13.1942   20.5390   32.0650 H   0  0  0  0  0  0  0  0  0  0  0  0
   14.2609   21.5948   33.0709 H   0  0  0  0  0  0  0  0  0  0  0  0
   13.6106   20.3615   35.1381 H   0  0  0  0  0  0  0  0  0  0  0  0
   12.4251   19.3750   34.2256 H   0  0  0  0  0  0  0  0  0  0  0  0
   14.3269   18.5209   32.7855 H   0  0  0  0  0  0  0  0  0  0  0  0
   15.4673   19.4283   33.8770 H   0  0  0  0  0  0  0  0  0  0  0  0
   14.4188   17.7458   36.9288 H   0  0  0  0  0  0  0  0  0  0  0  0
   13.5008   19.0396   36.0862 H   0  0  0  0  0  0  0  0  0  0  0  0
   12.8817   17.3534   36.0862 H   0  0  0  0  0  0  0  0  0  0  0  0
   13.6383   15.7536   34.8171 H   0  0  0  0  0  0  0  0  0  0  0  0
   13.1395   16.7926   33.4392 H   0  0  0  0  0  0  0  0  0  0  0  0
   14.7601   16.0177   33.4392 H   0  0  0  0  0  0  0  0  0  0  0  0
   17.9536   28.4709   30.8534 H   0  0  0  0  0  0  0  0  0  0  0  0
  5  1  1  0
 27  2  1  1
  3  4  1  0
  3 12  1  0
  3 30  1  0
  4  5  1  0
  5  6  1  0
  6  7  1  0
  7  8  2  3
  7 12  1  0
  8  9  1  0
  9 10  2  3
 10 11  1  0
 10 16  1  0
 11 13  1  0
 12 21  2  0
 13 14  1  0
 14 15  1  0
 15 16  1  0
 15 19  1  0
 15 20  1  6
 16 17  1  0
 17 18  1  0
 19 18  1  0
 19 22  1  0
 22 23  1  0
 22 24  1  0
 24 25  1  0
 25 26  1  0
 26 27  1  0
 27 28  1  0
 27 29  1  0
  1 31  1  0
  2 32  1  0
  3 33  1  1
  4 34  1  0
  4 35  1  0
  5 36  1  6
  6 37  1  0
  6 38  1  0
  8 39  1  0
  9 40  1  0
 11 41  1  0
 11 42  1  0
 13 43  1  0
 13 44  1  0
 14 45  1  0
 14 46  1  0
 16 47  1  1
 17 48  1  0
 17 49  1  0
 18 50  1  0
 18 51  1  0
 19 52  1  1
 20 53  1  0
 20 54  1  0
 20 55  1  0
 21 56  1  0
 21 57  1  0
 22 58  1  6
 23 59  1  0
 23 60  1  0
 23 61  1  0
 24 62  1  0
 24 63  1  0
 25 64  1  0
 25 65  1  0
 26 66  1  0
 26 67  1  0
 28 68  1  0
 28 69  1  0
 28 70  1  0
 29 71  1  0
 29 72  1  0
 29 73  1  0
 30 74  1  0
M  END
>  <filename_input>  (10) 
7QPP_VDX_docked.sdf

>  <pdb_id>  (10) 
7QPP_VDX

>  <pose_rank>  (10) 
9

>  <num_atoms_heavy>  (10) 
30

>  <num_torsions>  (10) 
6

>  <pose>  (10) 
[13.531891808038914, 27.7644888804503, 33.83628948676072, -2.0882540665577785, -0.3080629138612378, -3.38230335195964, 6.701753096467426, 0.6586713890273435, -1.7681184729625574, 0.11875258822287721, 0.27249535083261023, 4.948961024902997]

>  <energy>  (10) 
-518.6246085765852

>  <inter_energy>  (10) 
-507.8263978869981

>  <intra_energy>  (10) 
1.4537160708244743

>  <rmsd>  (10) 
9.53847

>  <sdf_rank>  (10) 
0

$$$$

     RDKit          3D

 74 76  0  0  0  0  0  0  0  0999 V2000
   17.3577   30.4807   34.7630 O   0  0  0  0  0  0  0  0  0  0  0  0
    4.1272   24.9334   35.3051 O   0  0  0  0  0  0  0  0  0  0  0  0
   16.9525   30.0292   31.8997 C   0  0  1  0  0  0  0  0  0  0  0  0
   17.2711   31.3910   32.5253 C   0  0  0  0  0  0  0  0  0  0  0  0
   16.7693   31.4808   33.8989 C   0  0  1  0  0  0  0  0  0  0  0  0
   15.2257   31.2358   33.9221 C   0  0  0  0  0  0  0  0  0  0  0  0
   14.7953   29.9665   33.2749 C   0  0  0  0  0  0  0  0  0  0  0  0
   13.7437   29.2244   33.7196 C   0  0  0  0  0  0  0  0  0  0  0  0
   13.3004   27.8894   33.1657 C   0  0  0  0  0  0  0  0  0  0  0  0
   13.0226   26.8674   33.9974 C   0  0  0  0  0  0  0  0  0  0  0  0
   12.8850   26.9343   35.4985 C   0  0  0  0  0  0  0  0  0  0  0  0
   15.4993   29.6968   31.9059 C   0  0  0  0  0  0  0  0  0  0  0  0
   11.4758   26.6535   35.9692 C   0  0  0  0  0  0  0  0  0  0  0  0
   10.9029   25.4571   35.3838 C   0  0  0  0  0  0  0  0  0  0  0  0
   10.9851   25.4093   33.8139 C   0  0  1  0  0  0  0  0  0  0  0  0
   12.3147   25.7247   33.3662 C   0  0  1  0  0  0  0  0  0  0  0  0
   12.5037   25.2753   31.9188 C   0  0  0  0  0  0  0  0  0  0  0  0
   11.2976   24.2096   31.7416 C   0  0  0  0  0  0  0  0  0  0  0  0
   10.7226   24.0092   33.0552 C   0  0  2  0  0  0  0  0  0  0  0  0
   10.0860   26.5474   33.2759 C   0  0  0  0  0  0  0  0  0  0  0  0
   14.7780   29.3208   30.8347 C   0  0  0  0  0  0  0  0  0  0  0  0
    9.2467   23.4930   33.1411 C   0  0  2  0  0  0  0  0  0  0  0  0
    9.2639   22.1222   32.4443 C   0  0  0  0  0  0  0  0  0  0  0  0
    8.1673   24.3601   32.4994 C   0  0  0  0  0  0  0  0  0  0  0  0
    6.7225   23.8552   32.9056 C   0  0  0  0  0  0  0  0  0  0  0  0
    6.2071   24.7099   34.0826 C   0  0  0  0  0  0  0  0  0  0  0  0
    4.6800   24.9486   34.0236 C   0  0  2  0  0  0  0  0  0  0  0  0
    4.3552   26.3062   33.3959 C   0  0  0  0  0  0  0  0  0  0  0  0
    4.0501   23.8335   33.2132 C   0  0  0  0  0  0  0  0  0  0  0  0
   17.4839   29.8971   30.5853 O   0  0  0  0  0  0  0  0  0  0  0  0
   17.2092   30.7331   35.7087 H   0  0  0  0  0  0  0  0  0  0  0  0
    4.8531   24.9533   35.9779 H   0  0  0  0  0  0  0  0  0  0  0  0
   17.4544   29.2985   32.5508 H   0  0  0  0  0  0  0  0  0  0  0  0
   18.3617   31.5345   32.5329 H   0  0  0  0  0  0  0  0  0  0  0  0
   16.7780   32.1704   31.9257 H   0  0  0  0  0  0  0  0  0  0  0  0
   17.0329   32.4863   34.2587 H   0  0  0  0  0  0  0  0  0  0  0  0
   14.8962   31.2160   34.9714 H   0  0  0  0  0  0  0  0  0  0  0  0
   14.7692   32.0533   33.3448 H   0  0  0  0  0  0  0  0  0  0  0  0
   13.1632   29.6341   34.5593 H   0  0  0  0  0  0  0  0  0  0  0  0
   13.2044   27.7522   32.0785 H   0  0  0  0  0  0  0  0  0  0  0  0
   13.5604   26.1909   35.9471 H   0  0  0  0  0  0  0  0  0  0  0  0
   13.1414   27.9576   35.8101 H   0  0  0  0  0  0  0  0  0  0  0  0
   11.4902   26.5347   37.0627 H   0  0  0  0  0  0  0  0  0  0  0  0
   10.8516   27.5021   35.6525 H   0  0  0  0  0  0  0  0  0  0  0  0
   11.4399   24.5848   35.7848 H   0  0  0  0  0  0  0  0  0  0  0  0
    9.8347   25.4550   35.6464 H   0  0  0  0  0  0  0  0  0  0  0  0
   13.0836   25.1181   33.8670 H   0  0  0  0  0  0  0  0  0  0  0  0
   12.3985   26.1188   31.2207 H   0  0  0  0  0  0  0  0  0  0  0  0
   13.5000   24.8590   31.7085 H   0  0  0  0  0  0  0  0  0  0  0  0
   10.5383   24.6077   31.0523 H   0  0  0  0  0  0  0  0  0  0  0  0
   11.6657   23.2617   31.3222 H   0  0  0  0  0  0  0  0  0  0  0  0
   11.2088   23.1501   33.5407 H   0  0  0  0  0  0  0  0  0  0  0  0
    9.6494   27.1002   34.1207 H   0  0  0  0  0  0  0  0  0  0  0  0
   10.6895   27.2324   32.6622 H   0  0  0  0  0  0  0  0  0  0  0  0
    9.2800   26.1189   32.6622 H   0  0  0  0  0  0  0  0  0  0  0  0
   13.7067   29.0963   30.9442 H   0  0  0  0  0  0  0  0  0  0  0  0
   15.2594   29.2377   29.8491 H   0  0  0  0  0  0  0  0  0  0  0  0
    8.9646   23.4857   34.2043 H   0  0  0  0  0  0  0  0  0  0  0  0
    9.2739   21.3255   33.2027 H   0  0  0  0  0  0  0  0  0  0  0  0
    8.3670   22.0190   31.8159 H   0  0  0  0  0  0  0  0  0  0  0  0
   10.1632   22.0415   31.8159 H   0  0  0  0  0  0  0  0  0  0  0  0
    8.2933   25.3999   32.8357 H   0  0  0  0  0  0  0  0  0  0  0  0
    8.2680   24.2955   31.4060 H   0  0  0  0  0  0  0  0  0  0  0  0
    6.0409   23.9579   32.0483 H   0  0  0  0  0  0  0  0  0  0  0  0
    6.7676   22.7975   33.2045 H   0  0  0  0  0  0  0  0  0  0  0  0
    6.4464   24.1932   35.0238 H   0  0  0  0  0  0  0  0  0  0  0  0
    6.6994   25.6916   34.0208 H   0  0  0  0  0  0  0  0  0  0  0  0
    4.1784   27.0450   34.1914 H   0  0  0  0  0  0  0  0  0  0  0  0
    5.2004   26.6335   32.7726 H   0  0  0  0  0  0  0  0  0  0  0  0
    3.4534   26.2156   32.7726 H   0  0  0  0  0  0  0  0  0  0  0  0
    3.6250   23.0808   33.8935 H   0  0  0  0  0  0  0  0  0  0  0  0
    3.2521   24.2468   32.5789 H   0  0  0  0  0  0  0  0  0  0  0  0
    4.8161   23.3634   32.5789 H   0  0  0  0  0  0  0  0  0  0  0  0
   18.4432   29.6585   30.6397 H   0  0  0  0  0  0  0  0  0  0  0  0
  5  1  1  0
 27  2  1  1
  3  4  1  0
  3 12  1  0
  3 30  1  0
  4  5  1  0
  5  6  1  0
  6  7  1  0
  7  8  2  3
  7 12  1  0
  8  9  1  0
  9 10  2  3
 10 11  1  0
 10 16  1  0
 11 13  1  0
 12 21  2  0
 13 14  1  0
 14 15  1  0
 15 16  1  0
 15 19  1  0
 15 20  1  6
 16 17  1  0
 17 18  1  0
 19 18  1  0
 19 22  1  0
 22 23  1  0
 22 24  1  0
 24 25  1  0
 25 26  1  0
 26 27  1  0
 27 28  1  0
 27 29  1  0
  1 31  1  0
  2 32  1  0
  3 33  1  1
  4 34  1  0
  4 35  1  0
  5 36  1  1
  6 37  1  0
  6 38  1  0
  8 39  1  0
  9 40  1  0
 11 41  1  0
 11 42  1  0
 13 43  1  0
 13 44  1  0
 14 45  1  0
 14 46  1  0
 16 47  1  1
 17 48  1  0
 17 49  1  0
 18 50  1  0
 18 51  1  0
 19 52  1  1
 20 53  1  0
 20 54  1  0
 20 55  1  0
 21 56  1  0
 21 57  1  0
 22 58  1  1
 23 59  1  0
 23 60  1  0
 23 61  1  0
 24 62  1  0
 24 63  1  0
 25 64  1  0
 25 65  1  0
 26 66  1  0
 26 67  1  0
 28 68  1  0
 28 69  1  0
 28 70  1  0
 29 71  1  0
 29 72  1  0
 29 73  1  0
 30 74  1  0
M  END
>  <filename_input>  (11) 
7QPP_VDX_docked.sdf

>  <pdb_id>  (11) 
7QPP_VDX

>  <pose_rank>  (11) 
10

>  <num_atoms_heavy>  (11) 
30

>  <num_torsions>  (11) 
6

>  <pose>  (11) 
[13.300420547466807, 27.88939722991454, 33.165693866486194, -3.4279439249452057, -0.0221646102714107, -0.5004891819418176, 5.290756427568992, -0.37423514887910586, 6.255584091073807, -1.2395079645517222, -0.42493312544000567, -2.7500124530249703]

>  <energy>  (11) 
-447.47204360147833

>  <inter_energy>  (11) 
-465.5071920969309

>  <intra_energy>  (11) 
18.655106116465763

>  <rmsd>  (11) 
7.92242

>  <sdf_rank>  (11) 
0

$$$$

     RDKit          3D

 74 76  0  0  0  0  0  0  0  0999 V2000
   12.5241   17.0580   35.0387 O   0  0  0  0  0  0  0  0  0  0  0  0
    4.3281   24.3188   32.8664 O   0  0  0  0  0  0  0  0  0  0  0  0
   14.4939   18.3591   33.3085 C   0  0  1  0  0  0  0  0  0  0  0  0
   14.7671   17.1005   34.1384 C   0  0  0  0  0  0  0  0  0  0  0  0
   13.9379   17.0637   35.3457 C   0  0  1  0  0  0  0  0  0  0  0  0
   14.1990   18.3372   36.2137 C   0  0  0  0  0  0  0  0  0  0  0  0
   14.0291   19.6233   35.4844 C   0  0  0  0  0  0  0  0  0  0  0  0
   13.5383   20.7508   36.0694 C   0  0  0  0  0  0  0  0  0  0  0  0
   13.2625   22.0649   35.3748 C   0  0  0  0  0  0  0  0  0  0  0  0
   12.4985   22.1001   34.2664 C   0  0  0  0  0  0  0  0  0  0  0  0
   11.6625   20.9750   33.7077 C   0  0  0  0  0  0  0  0  0  0  0  0
   14.6896   19.6269   34.0680 C   0  0  0  0  0  0  0  0  0  0  0  0
   10.1792   21.2608   33.7738 C   0  0  0  0  0  0  0  0  0  0  0  0
    9.8225   22.5664   33.2535 C   0  0  0  0  0  0  0  0  0  0  0  0
   10.6460   23.7519   33.8781 C   0  0  1  0  0  0  0  0  0  0  0  0
   12.0533   23.4569   33.8589 C   0  0  1  0  0  0  0  0  0  0  0  0
   12.8625   24.7363   34.0608 C   0  0  0  0  0  0  0  0  0  0  0  0
   11.7749   25.8786   33.6947 C   0  0  0  0  0  0  0  0  0  0  0  0
   10.6182   25.1949   33.1557 C   0  0  2  0  0  0  0  0  0  0  0  0
   10.2608   23.8356   35.3740 C   0  0  0  0  0  0  0  0  0  0  0  0
   15.4585   20.6603   33.6806 C   0  0  0  0  0  0  0  0  0  0  0  0
    9.2348   25.9255   33.2220 C   0  0  2  0  0  0  0  0  0  0  0  0
    9.5477   27.3177   33.7955 C   0  0  0  0  0  0  0  0  0  0  0  0
    8.1440   25.2758   34.0688 C   0  0  0  0  0  0  0  0  0  0  0  0
    6.7519   25.3049   33.3148 C   0  0  0  0  0  0  0  0  0  0  0  0
    5.6552   25.7446   34.3074 C   0  0  0  0  0  0  0  0  0  0  0  0
    4.3135   25.0096   34.0791 C   0  0  2  0  0  0  0  0  0  0  0  0
    4.0442   23.9903   35.1887 C   0  0  0  0  0  0  0  0  0  0  0  0
    3.2026   26.0396   34.0342 C   0  0  0  0  0  0  0  0  0  0  0  0
   15.2452   18.3866   32.0993 O   0  0  0  0  0  0  0  0  0  0  0  0
   12.0035   17.0559   35.8807 H   0  0  0  0  0  0  0  0  0  0  0  0
    4.3487   23.3447   33.0417 H   0  0  0  0  0  0  0  0  0  0  0  0
   13.4262   18.2975   33.0512 H   0  0  0  0  0  0  0  0  0  0  0  0
   14.5467   16.2137   33.5261 H   0  0  0  0  0  0  0  0  0  0  0  0
   15.8234   17.1116   34.4451 H   0  0  0  0  0  0  0  0  0  0  0  0
   14.2078   16.1394   35.8776 H   0  0  0  0  0  0  0  0  0  0  0  0
   13.4970   18.3264   37.0605 H   0  0  0  0  0  0  0  0  0  0  0  0
   15.2518   18.2917   36.5292 H   0  0  0  0  0  0  0  0  0  0  0  0
   13.3226   20.7007   37.1469 H   0  0  0  0  0  0  0  0  0  0  0  0
   13.6877   22.9965   35.7765 H   0  0  0  0  0  0  0  0  0  0  0  0
   11.9437   20.8165   32.6561 H   0  0  0  0  0  0  0  0  0  0  0  0
   11.8561   20.0819   34.3200 H   0  0  0  0  0  0  0  0  0  0  0  0
    9.6497   20.4950   33.1879 H   0  0  0  0  0  0  0  0  0  0  0  0
    9.8912   21.2435   34.8353 H   0  0  0  0  0  0  0  0  0  0  0  0
    9.9913   22.5632   32.1665 H   0  0  0  0  0  0  0  0  0  0  0  0
    8.7687   22.7371   33.5186 H   0  0  0  0  0  0  0  0  0  0  0  0
   12.4066   23.1506   32.8633 H   0  0  0  0  0  0  0  0  0  0  0  0
   13.2084   24.8314   35.1007 H   0  0  0  0  0  0  0  0  0  0  0  0
   13.7790   24.7836   33.4543 H   0  0  0  0  0  0  0  0  0  0  0  0
   11.4961   26.4401   34.5986 H   0  0  0  0  0  0  0  0  0  0  0  0
   12.1842   26.5962   32.9684 H   0  0  0  0  0  0  0  0  0  0  0  0
   10.7036   25.1380   32.0605 H   0  0  0  0  0  0  0  0  0  0  0  0
   11.1495   23.6425   35.9929 H   0  0  0  0  0  0  0  0  0  0  0  0
    9.8701   24.8395   35.5965 H   0  0  0  0  0  0  0  0  0  0  0  0
    9.4888   23.0842   35.5965 H   0  0  0  0  0  0  0  0  0  0  0  0
   15.5371   21.5554   34.3151 H   0  0  0  0  0  0  0  0  0  0  0  0
   16.0086   20.6103   32.7294 H   0  0  0  0  0  0  0  0  0  0  0  0
    8.8086   25.9106   32.2080 H   0  0  0  0  0  0  0  0  0  0  0  0
    9.5375   27.2723   34.8945 H   0  0  0  0  0  0  0  0  0  0  0  0
   10.5410   27.6413   33.4511 H   0  0  0  0  0  0  0  0  0  0  0  0
    8.7884   28.0352   33.4511 H   0  0  0  0  0  0  0  0  0  0  0  0
    8.4211   24.2312   34.2735 H   0  0  0  0  0  0  0  0  0  0  0  0
    8.0466   25.8385   35.0089 H   0  0  0  0  0  0  0  0  0  0  0  0
    6.7999   26.0173   32.4780 H   0  0  0  0  0  0  0  0  0  0  0  0
    6.5197   24.3039   32.9221 H   0  0  0  0  0  0  0  0  0  0  0  0
    6.0016   25.5350   35.3301 H   0  0  0  0  0  0  0  0  0  0  0  0
    5.4764   26.8186   34.1504 H   0  0  0  0  0  0  0  0  0  0  0  0
    4.1717   24.4730   36.1688 H   0  0  0  0  0  0  0  0  0  0  0  0
    3.0154   23.6120   35.0973 H   0  0  0  0  0  0  0  0  0  0  0  0
    4.7521   23.1533   35.0973 H   0  0  0  0  0  0  0  0  0  0  0  0
    2.9114   26.3097   35.0600 H   0  0  0  0  0  0  0  0  0  0  0  0
    3.5558   26.9370   33.5051 H   0  0  0  0  0  0  0  0  0  0  0  0
    2.3344   25.6198   33.5051 H   0  0  0  0  0  0  0  0  0  0  0  0
   16.2114   18.4219   32.3118 H   0  0  0  0  0  0  0  0  0  0  0  0
  5  1  1  0
 27  2  1  6
  3  4  1  0
  3 12  1  0
  3 30  1  0
  4  5  1  0
  5  6  1  0
  6  7  1  0
  7  8  2  3
  7 12  1  0
  8  9  1  0
  9 10  2  3
 10 11  1  0
 10 16  1  0
 11 13  1  0
 12 21  2  0
 13 14  1  0
 14 15  1  0
 15 16  1  0
 15 19  1  0
 15 20  1  1
 16 17  1  0
 17 18  1  0
 19 18  1  0
 19 22  1  0
 22 23  1  0
 22 24  1  0
 24 25  1  0
 25 26  1  0
 26 27  1  0
 27 28  1  0
 27 29  1  0
  1 31  1  0
  2 32  1  0
  3 33  1  6
  4 34  1  0
  4 35  1  0
  5 36  1  1
  6 37  1  0
  6 38  1  0
  8 39  1  0
  9 40  1  0
 11 41  1  0
 11 42  1  0
 13 43  1  0
 13 44  1  0
 14 45  1  0
 14 46  1  0
 16 47  1  6
 17 48  1  0
 17 49  1  0
 18 50  1  0
 18 51  1  0
 19 52  1  6
 20 53  1  0
 20 54  1  0
 20 55  1  0
 21 56  1  0
 21 57  1  0
 22 58  1  6
 23 59  1  0
 23 60  1  0
 23 61  1  0
 24 62  1  0
 24 63  1  0
 25 64  1  0
 25 65  1  0
 26 66  1  0
 26 67  1  0
 28 68  1  0
 28 69  1  0
 28 70  1  0
 29 71  1  0
 29 72  1  0
 29 73  1  0
 30 74  1  0
M  END
>  <filename_input>  (12) 
7QPP_VDX_docked.sdf

>  <pdb_id>  (12) 
7QPP_VDX

>  <pose_rank>  (12) 
11

>  <num_atoms_heavy>  (12) 
30

>  <num_torsions>  (12) 
6

>  <pose>  (12) 
[13.262457005100542, 22.064909203209442, 35.37479457005224, 3.9586221444804175, -2.5174232113528086, 0.6584624770057763, -2.3989873431011834, 4.920669153734612, 0.5433934256728268, -5.301732490357387, 0.8238800691596919, 0.8286093253300472]

>  <energy>  (12) 
-773.4557682384045

>  <inter_energy>  (12) 
-832.9067370434107

>  <intra_energy>  (12) 
62.49708019235799

>  <rmsd>  (12) 
2.49276

>  <sdf_rank>  (12) 
0

$$$$

     RDKit          3D

 74 76  0  0  0  0  0  0  0  0999 V2000
    3.7556   26.8294   34.4655 O   0  0  0  0  0  0  0  0  0  0  0  0
   14.3990   26.3208   29.9331 O   0  0  0  0  0  0  0  0  0  0  0  0
    4.9881   25.2549   32.3281 C   0  0  1  0  0  0  0  0  0  0  0  0
    3.5338   25.1049   32.7861 C   0  0  0  0  0  0  0  0  0  0  0  0
    3.3773   25.4586   34.1993 C   0  0  1  0  0  0  0  0  0  0  0  0
    4.3053   24.5621   35.0816 C   0  0  0  0  0  0  0  0  0  0  0  0
    5.7382   24.5781   34.6793 C   0  0  0  0  0  0  0  0  0  0  0  0
    6.7624   24.4924   35.5725 C   0  0  0  0  0  0  0  0  0  0  0  0
    8.2359   24.5836   35.2470 C   0  0  0  0  0  0  0  0  0  0  0  0
    9.1199   23.7804   35.8690 C   0  0  0  0  0  0  0  0  0  0  0  0
    8.8033   22.5928   36.7442 C   0  0  0  0  0  0  0  0  0  0  0  0
    5.9521   24.4548   33.1361 C   0  0  0  0  0  0  0  0  0  0  0  0
    9.2514   21.2829   36.1361 C   0  0  0  0  0  0  0  0  0  0  0  0
   10.6214   21.3092   35.6620 C   0  0  0  0  0  0  0  0  0  0  0  0
   10.9427   22.5092   34.6974 C   0  0  1  0  0  0  0  0  0  0  0  0
   10.4718   23.7481   35.2555 C   0  0  1  0  0  0  0  0  0  0  0  0
   11.1379   24.9293   34.5528 C   0  0  0  0  0  0  0  0  0  0  0  0
   12.4250   24.2253   33.8674 C   0  0  0  0  0  0  0  0  0  0  0  0
   12.4831   22.8731   34.3813 C   0  0  2  0  0  0  0  0  0  0  0  0
   10.1131   22.2933   33.4097 C   0  0  0  0  0  0  0  0  0  0  0  0
    6.8571   23.5901   32.6437 C   0  0  0  0  0  0  0  0  0  0  0  0
   13.2419   21.7964   33.5347 C   0  0  2  0  0  0  0  0  0  0  0  0
   14.5677   21.5672   34.2795 C   0  0  0  0  0  0  0  0  0  0  0  0
   13.5458   22.1419   32.0796 C   0  0  0  0  0  0  0  0  0  0  0  0
   14.4288   23.4528   31.9835 C   0  0  0  0  0  0  0  0  0  0  0  0
   14.3947   23.9728   30.5309 C   0  0  0  0  0  0  0  0  0  0  0  0
   13.5836   25.2816   30.3839 C   0  0  2  0  0  0  0  0  0  0  0  0
   12.4441   25.1170   29.3754 C   0  0  0  0  0  0  0  0  0  0  0  0
   13.0288   25.6585   31.7430 C   0  0  0  0  0  0  0  0  0  0  0  0
    5.1531   24.9745   30.9419 O   0  0  0  0  0  0  0  0  0  0  0  0
    3.7963   26.9766   35.4436 H   0  0  0  0  0  0  0  0  0  0  0  0
   14.7778   26.8037   30.7099 H   0  0  0  0  0  0  0  0  0  0  0  0
    5.2261   26.3154   32.4973 H   0  0  0  0  0  0  0  0  0  0  0  0
    2.8978   25.7663   32.1795 H   0  0  0  0  0  0  0  0  0  0  0  0
    3.2382   24.0531   32.6586 H   0  0  0  0  0  0  0  0  0  0  0  0
    2.3137   25.3121   34.4383 H   0  0  0  0  0  0  0  0  0  0  0  0
    4.2360   24.9137   36.1215 H   0  0  0  0  0  0  0  0  0  0  0  0
    3.9550   23.5271   34.9548 H   0  0  0  0  0  0  0  0  0  0  0  0
    6.4927   24.3431   36.6285 H   0  0  0  0  0  0  0  0  0  0  0  0
    8.5875   25.3092   34.4988 H   0  0  0  0  0  0  0  0  0  0  0  0
    9.3106   22.7234   37.7114 H   0  0  0  0  0  0  0  0  0  0  0  0
    7.7103   22.5481   36.8604 H   0  0  0  0  0  0  0  0  0  0  0  0
    9.1608   20.4951   36.8985 H   0  0  0  0  0  0  0  0  0  0  0  0
    8.6086   21.0919   35.2641 H   0  0  0  0  0  0  0  0  0  0  0  0
   11.2878   21.3789   36.5344 H   0  0  0  0  0  0  0  0  0  0  0  0
   10.7752   20.3864   35.0834 H   0  0  0  0  0  0  0  0  0  0  0  0
   10.8201   23.9055   36.2869 H   0  0  0  0  0  0  0  0  0  0  0  0
   10.4732   25.3716   33.7961 H   0  0  0  0  0  0  0  0  0  0  0  0
   11.3915   25.7619   35.2254 H   0  0  0  0  0  0  0  0  0  0  0  0
   12.3111   24.2105   32.7734 H   0  0  0  0  0  0  0  0  0  0  0  0
   13.3479   24.7768   34.0999 H   0  0  0  0  0  0  0  0  0  0  0  0
   13.1306   22.8465   35.2701 H   0  0  0  0  0  0  0  0  0  0  0  0
    9.0810   22.0247   33.6791 H   0  0  0  0  0  0  0  0  0  0  0  0
   10.1080   23.2200   32.8171 H   0  0  0  0  0  0  0  0  0  0  0  0
   10.5605   21.4817   32.8171 H   0  0  0  0  0  0  0  0  0  0  0  0
    7.5261   23.0459   33.3265 H   0  0  0  0  0  0  0  0  0  0  0  0
    6.9283   23.4272   31.5581 H   0  0  0  0  0  0  0  0  0  0  0  0
   12.5817   20.9204   33.4527 H   0  0  0  0  0  0  0  0  0  0  0  0
   14.3888   21.5981   35.3644 H   0  0  0  0  0  0  0  0  0  0  0  0
   14.9782   20.5847   34.0035 H   0  0  0  0  0  0  0  0  0  0  0  0
   15.2843   22.3547   34.0035 H   0  0  0  0  0  0  0  0  0  0  0  0
   14.0907   21.3058   31.6170 H   0  0  0  0  0  0  0  0  0  0  0  0
   12.5957   22.3185   31.5542 H   0  0  0  0  0  0  0  0  0  0  0  0
   14.0250   24.2204   32.6601 H   0  0  0  0  0  0  0  0  0  0  0  0
   15.4652   23.2263   32.2742 H   0  0  0  0  0  0  0  0  0  0  0  0
   15.4269   24.1594   30.1997 H   0  0  0  0  0  0  0  0  0  0  0  0
   13.9022   23.2058   29.9151 H   0  0  0  0  0  0  0  0  0  0  0  0
   11.4948   24.9800   29.9139 H   0  0  0  0  0  0  0  0  0  0  0  0
   12.3810   26.0154   28.7437 H   0  0  0  0  0  0  0  0  0  0  0  0
   12.6377   24.2375   28.7437 H   0  0  0  0  0  0  0  0  0  0  0  0
   13.6638   25.2271   32.5308 H   0  0  0  0  0  0  0  0  0  0  0  0
   13.0146   26.7539   31.8423 H   0  0  0  0  0  0  0  0  0  0  0  0
   12.0052   25.2681   31.8423 H   0  0  0  0  0  0  0  0  0  0  0  0
    5.6523   24.1264   30.8339 H   0  0  0  0  0  0  0  0  0  0  0  0
  5  1  1  0
 27  2  1  6
  3  4  1  0
  3 12  1  0
  3 30  1  0
  4  5  1  0
  5  6  1  0
  6  7  1  0
  7  8  2  3
  7 12  1  0
  8  9  1  0
  9 10  2  3
 10 11  1  0
 10 16  1  0
 11 13  1  0
 12 21  2  0
 13 14  1  0
 14 15  1  0
 15 16  1  0
 15 19  1  0
 15 20  1  6
 16 17  1  0
 17 18  1  0
 19 18  1  0
 19 22  1  0
 22 23  1  0
 22 24  1  0
 24 25  1  0
 25 26  1  0
 26 27  1  0
 27 28  1  0
 27 29  1  0
  1 31  1  0
  2 32  1  0
  3 33  1  6
  4 34  1  0
  4 35  1  0
  5 36  1  1
  6 37  1  0
  6 38  1  0
  8 39  1  0
  9 40  1  0
 11 41  1  0
 11 42  1  0
 13 43  1  0
 13 44  1  0
 14 45  1  0
 14 46  1  0
 16 47  1  1
 17 48  1  0
 17 49  1  0
 18 50  1  0
 18 51  1  0
 19 52  1  1
 20 53  1  0
 20 54  1  0
 20 55  1  0
 21 56  1  0
 21 57  1  0
 22 58  1  6
 23 59  1  0
 23 60  1  0
 23 61  1  0
 24 62  1  0
 24 63  1  0
 25 64  1  0
 25 65  1  0
 26 66  1  0
 26 67  1  0
 28 68  1  0
 28 69  1  0
 28 70  1  0
 29 71  1  0
 29 72  1  0
 29 73  1  0
 30 74  1  0
M  END
>  <filename_input>  (13) 
7QPP_VDX_docked.sdf

>  <pdb_id>  (13) 
7QPP_VDX

>  <pose_rank>  (13) 
12

>  <num_atoms_heavy>  (13) 
30

>  <num_torsions>  (13) 
6

>  <pose>  (13) 
[8.235906060195838, 24.58361174665722, 35.2470180642694, 2.02875245089025, 2.0722646575243027, 1.9788276647238987, 0.5167366979571858, 0.39811821875290826, -2.32955581193911, 0.46243395964287776, -1.051293747089961, -3.1876792121117967]

>  <energy>  (13) 
-484.2572826978193

>  <inter_energy>  (13) 
-519.2445524997963

>  <intra_energy>  (13) 
74.28328512620489

>  <rmsd>  (13) 
8.92934

>  <sdf_rank>  (13) 
0

$$$$

     RDKit          3D

 74 76  0  0  0  0  0  0  0  0999 V2000
    3.1445   22.7809   34.2729 O   0  0  0  0  0  0  0  0  0  0  0  0
   17.6925   29.6768   31.9794 O   0  0  0  0  0  0  0  0  0  0  0  0
    3.8713   25.6141   34.1694 C   0  0  1  0  0  0  0  0  0  0  0  0
    2.8603   24.9445   33.2331 C   0  0  0  0  0  0  0  0  0  0  0  0
    3.1713   23.5267   33.0336 C   0  0  1  0  0  0  0  0  0  0  0  0
    4.6142   23.3717   32.4526 C   0  0  0  0  0  0  0  0  0  0  0  0
    5.6736   24.0470   33.2506 C   0  0  0  0  0  0  0  0  0  0  0  0
    6.9332   23.5481   33.3873 C   0  0  0  0  0  0  0  0  0  0  0  0
    8.0330   24.1331   34.2439 C   0  0  0  0  0  0  0  0  0  0  0  0
    9.3018   24.1629   33.7935 C   0  0  0  0  0  0  0  0  0  0  0  0
    9.7710   23.8652   32.3906 C   0  0  0  0  0  0  0  0  0  0  0  0
    5.2833   25.4896   33.7078 C   0  0  0  0  0  0  0  0  0  0  0  0
   10.3385   25.0813   31.6940 C   0  0  0  0  0  0  0  0  0  0  0  0
   11.3113   25.7994   32.4943 C   0  0  0  0  0  0  0  0  0  0  0  0
   10.8061   26.1698   33.9370 C   0  0  1  0  0  0  0  0  0  0  0  0
   10.2222   25.0233   34.5794 C   0  0  1  0  0  0  0  0  0  0  0  0
   10.1233   25.2568   36.0854 C   0  0  0  0  0  0  0  0  0  0  0  0
   11.1791   26.4648   36.3044 C   0  0  0  0  0  0  0  0  0  0  0  0
   11.8776   26.6403   35.0485 C   0  0  2  0  0  0  0  0  0  0  0  0
    9.6498   27.1836   33.7684 C   0  0  0  0  0  0  0  0  0  0  0  0
    6.1487   26.5075   33.5533 C   0  0  0  0  0  0  0  0  0  0  0  0
   12.5388   28.0306   34.7626 C   0  0  2  0  0  0  0  0  0  0  0  0
   11.3617   28.9817   34.4890 C   0  0  0  0  0  0  0  0  0  0  0  0
   13.5190   28.1088   33.5955 C   0  0  0  0  0  0  0  0  0  0  0  0
   14.5201   29.3216   33.7797 C   0  0  0  0  0  0  0  0  0  0  0  0
   15.3275   29.5052   32.4775 C   0  0  0  0  0  0  0  0  0  0  0  0
   16.6541   30.2689   32.6999 C   0  0  2  0  0  0  0  0  0  0  0  0
   16.5406   31.7233   32.2369 C   0  0  0  0  0  0  0  0  0  0  0  0
   16.9983   30.2150   34.1749 C   0  0  0  0  0  0  0  0  0  0  0  0
    3.5539   26.9783   34.4261 O   0  0  0  0  0  0  0  0  0  0  0  0
    3.1671   23.4098   35.0371 H   0  0  0  0  0  0  0  0  0  0  0  0
   18.3566   29.2981   32.6085 H   0  0  0  0  0  0  0  0  0  0  0  0
    3.7892   25.0563   35.1139 H   0  0  0  0  0  0  0  0  0  0  0  0
    1.8550   25.0318   33.6711 H   0  0  0  0  0  0  0  0  0  0  0  0
    2.9069   25.4491   32.2568 H   0  0  0  0  0  0  0  0  0  0  0  0
    2.4059   23.1365   32.3467 H   0  0  0  0  0  0  0  0  0  0  0  0
    4.8518   22.2989   32.4032 H   0  0  0  0  0  0  0  0  0  0  0  0
    4.6086   23.8555   31.4647 H   0  0  0  0  0  0  0  0  0  0  0  0
    7.1727   22.6352   32.8223 H   0  0  0  0  0  0  0  0  0  0  0  0
    7.7958   24.5363   35.2395 H   0  0  0  0  0  0  0  0  0  0  0  0
   10.5508   23.0908   32.4375 H   0  0  0  0  0  0  0  0  0  0  0  0
    8.8975   23.5291   31.8128 H   0  0  0  0  0  0  0  0  0  0  0  0
   10.8250   24.7550   30.7630 H   0  0  0  0  0  0  0  0  0  0  0  0
    9.5009   25.7689   31.5051 H   0  0  0  0  0  0  0  0  0  0  0  0
   12.2089   25.1714   32.5930 H   0  0  0  0  0  0  0  0  0  0  0  0
   11.5123   26.7479   31.9747 H   0  0  0  0  0  0  0  0  0  0  0  0
   10.8830   24.1442   34.5553 H   0  0  0  0  0  0  0  0  0  0  0  0
    9.1061   25.5562   36.3781 H   0  0  0  0  0  0  0  0  0  0  0  0
   10.3380   24.3630   36.6895 H   0  0  0  0  0  0  0  0  0  0  0  0
   10.6471   27.3889   36.5746 H   0  0  0  0  0  0  0  0  0  0  0  0
   11.8816   26.2333   37.1186 H   0  0  0  0  0  0  0  0  0  0  0  0
   12.7972   26.0367   35.0533 H   0  0  0  0  0  0  0  0  0  0  0  0
    9.2908   27.4984   34.7594 H   0  0  0  0  0  0  0  0  0  0  0  0
   10.0104   28.0619   33.2130 H   0  0  0  0  0  0  0  0  0  0  0  0
    8.8261   26.7113   33.2130 H   0  0  0  0  0  0  0  0  0  0  0  0
    7.1735   26.3103   33.2057 H   0  0  0  0  0  0  0  0  0  0  0  0
    5.8316   27.5374   33.7746 H   0  0  0  0  0  0  0  0  0  0  0  0
   13.1633   28.2805   35.6329 H   0  0  0  0  0  0  0  0  0  0  0  0
   10.9376   29.3244   35.4444 H   0  0  0  0  0  0  0  0  0  0  0  0
   11.7172   29.8491   33.9135 H   0  0  0  0  0  0  0  0  0  0  0  0
   10.5883   28.4519   33.9135 H   0  0  0  0  0  0  0  0  0  0  0  0
   14.0934   27.1721   33.5441 H   0  0  0  0  0  0  0  0  0  0  0  0
   12.9490   28.2610   32.6671 H   0  0  0  0  0  0  0  0  0  0  0  0
   13.9529   30.2392   33.9951 H   0  0  0  0  0  0  0  0  0  0  0  0
   15.2039   29.1167   34.6166 H   0  0  0  0  0  0  0  0  0  0  0  0
   15.5582   28.5125   32.0635 H   0  0  0  0  0  0  0  0  0  0  0  0
   14.7129   30.1013   31.7869 H   0  0  0  0  0  0  0  0  0  0  0  0
   16.4890   32.3846   33.1144 H   0  0  0  0  0  0  0  0  0  0  0  0
   17.4211   31.9852   31.6317 H   0  0  0  0  0  0  0  0  0  0  0  0
   15.6302   31.8455   31.6317 H   0  0  0  0  0  0  0  0  0  0  0  0
   16.0845   30.3582   34.7702 H   0  0  0  0  0  0  0  0  0  0  0  0
   17.4411   29.2364   34.4126 H   0  0  0  0  0  0  0  0  0  0  0  0
   17.7193   31.0111   34.4126 H   0  0  0  0  0  0  0  0  0  0  0  0
    3.5185   27.1305   35.4036 H   0  0  0  0  0  0  0  0  0  0  0  0
  5  1  1  0
 27  2  1  6
  3  4  1  0
  3 12  1  0
  3 30  1  0
  4  5  1  0
  5  6  1  0
  6  7  1  0
  7  8  2  3
  7 12  1  0
  8  9  1  0
  9 10  2  3
 10 11  1  0
 10 16  1  0
 11 13  1  0
 12 21  2  0
 13 14  1  0
 14 15  1  0
 15 16  1  0
 15 19  1  0
 15 20  1  6
 16 17  1  0
 17 18  1  0
 19 18  1  0
 19 22  1  0
 22 23  1  0
 22 24  1  0
 24 25  1  0
 25 26  1  0
 26 27  1  0
 27 28  1  0
 27 29  1  0
  1 31  1  0
  2 32  1  0
  3 33  1  1
  4 34  1  0
  4 35  1  0
  5 36  1  6
  6 37  1  0
  6 38  1  0
  8 39  1  0
  9 40  1  0
 11 41  1  0
 11 42  1  0
 13 43  1  0
 13 44  1  0
 14 45  1  0
 14 46  1  0
 16 47  1  1
 17 48  1  0
 17 49  1  0
 18 50  1  0
 18 51  1  0
 19 52  1  1
 20 53  1  0
 20 54  1  0
 20 55  1  0
 21 56  1  0
 21 57  1  0
 22 58  1  1
 23 59  1  0
 23 60  1  0
 23 61  1  0
 24 62  1  0
 24 63  1  0
 25 64  1  0
 25 65  1  0
 26 66  1  0
 26 67  1  0
 28 68  1  0
 28 69  1  0
 28 70  1  0
 29 71  1  0
 29 72  1  0
 29 73  1  0
 30 74  1  0
M  END
>  <filename_input>  (14) 
7QPP_VDX_docked.sdf

>  <pdb_id>  (14) 
7QPP_VDX

>  <pose_rank>  (14) 
13

>  <num_atoms_heavy>  (14) 
30

>  <num_torsions>  (14) 
6

>  <pose>  (14) 
[8.033028820871749, 24.133146396230988, 34.24390214885884, -0.13645283386765547, 0.090363338620718, 4.652202109218158, 19.376136586476346, -2.6981783959330894, 6.474131984142278, 0.3653447757754556, 6.840217288811959, 9.721532446236]

>  <energy>  (14) 
-487.21516567703713

>  <inter_energy>  (14) 
-545.2239429798027

>  <intra_energy>  (14) 
51.19624663068325

>  <rmsd>  (14) 
9.42788

>  <sdf_rank>  (14) 
0

$$$$

     RDKit          3D

 74 76  0  0  0  0  0  0  0  0999 V2000
   12.4731   16.8164   35.5739 O   0  0  0  0  0  0  0  0  0  0  0  0
    3.9204   24.0706   33.2140 O   0  0  0  0  0  0  0  0  0  0  0  0
   14.5682   18.1210   34.0007 C   0  0  1  0  0  0  0  0  0  0  0  0
   14.8205   17.0169   35.0324 C   0  0  0  0  0  0  0  0  0  0  0  0
   13.8074   17.0302   36.0908 C   0  0  1  0  0  0  0  0  0  0  0  0
   13.7916   18.4233   36.7994 C   0  0  0  0  0  0  0  0  0  0  0  0
   13.6209   19.5795   35.8779 C   0  0  0  0  0  0  0  0  0  0  0  0
   12.9298   20.7033   36.2149 C   0  0  0  0  0  0  0  0  0  0  0  0
   12.6466   21.8786   35.3071 C   0  0  0  0  0  0  0  0  0  0  0  0
   11.7153   21.7805   34.3394 C   0  0  0  0  0  0  0  0  0  0  0  0
   10.7132   20.6671   34.1576 C   0  0  0  0  0  0  0  0  0  0  0  0
   14.5071   19.4873   34.5939 C   0  0  0  0  0  0  0  0  0  0  0  0
    9.2881   21.1221   34.3774 C   0  0  0  0  0  0  0  0  0  0  0  0
    8.9536   22.3320   33.6517 C   0  0  0  0  0  0  0  0  0  0  0  0
    9.9590   23.5186   33.8863 C   0  0  1  0  0  0  0  0  0  0  0  0
   11.3164   23.0722   33.7249 C   0  0  1  0  0  0  0  0  0  0  0  0
   12.2453   24.2692   33.5331 C   0  0  0  0  0  0  0  0  0  0  0  0
   11.2048   25.4308   33.0972 C   0  0  0  0  0  0  0  0  0  0  0  0
    9.9251   24.7867   32.8883 C   0  0  2  0  0  0  0  0  0  0  0  0
    9.8337   23.9350   35.3709 C   0  0  0  0  0  0  0  0  0  0  0  0
   15.2244   20.5498   34.1870 C   0  0  0  0  0  0  0  0  0  0  0  0
    8.6330   25.6641   33.0001 C   0  0  2  0  0  0  0  0  0  0  0  0
    8.9835   26.7592   34.0215 C   0  0  0  0  0  0  0  0  0  0  0  0
    7.3523   24.9642   33.4458 C   0  0  0  0  0  0  0  0  0  0  0  0
    6.1047   25.4966   32.6289 C   0  0  0  0  0  0  0  0  0  0  0  0
    5.1058   26.1464   33.6094 C   0  0  0  0  0  0  0  0  0  0  0  0
    4.0018   25.1673   34.0734 C   0  0  2  0  0  0  0  0  0  0  0  0
    4.2895   24.6334   35.4786 C   0  0  0  0  0  0  0  0  0  0  0  0
    2.6732   25.8962   34.0526 C   0  0  0  0  0  0  0  0  0  0  0  0
   15.5060   18.0888   32.9297 O   0  0  0  0  0  0  0  0  0  0  0  0
   11.8395   16.7149   36.3278 H   0  0  0  0  0  0  0  0  0  0  0  0
    3.8585   23.2381   33.7463 H   0  0  0  0  0  0  0  0  0  0  0  0
   13.5705   17.9000   33.5935 H   0  0  0  0  0  0  0  0  0  0  0  0
   14.7950   16.0411   34.5253 H   0  0  0  0  0  0  0  0  0  0  0  0
   15.8037   17.1929   35.4932 H   0  0  0  0  0  0  0  0  0  0  0  0
   14.0737   16.2180   36.7833 H   0  0  0  0  0  0  0  0  0  0  0  0
   12.9615   18.4330   37.5211 H   0  0  0  0  0  0  0  0  0  0  0  0
   14.7755   18.5443   37.2763 H   0  0  0  0  0  0  0  0  0  0  0  0
   12.5417   20.7614   37.2425 H   0  0  0  0  0  0  0  0  0  0  0  0
   13.2038   22.8181   35.4376 H   0  0  0  0  0  0  0  0  0  0  0  0
   10.8037   20.2762   33.1335 H   0  0  0  0  0  0  0  0  0  0  0  0
   10.9349   19.8952   34.9093 H   0  0  0  0  0  0  0  0  0  0  0  0
    8.6110   20.3197   34.0492 H   0  0  0  0  0  0  0  0  0  0  0  0
    9.1788   21.3445   35.4491 H   0  0  0  0  0  0  0  0  0  0  0  0
    8.9399   22.0979   32.5770 H   0  0  0  0  0  0  0  0  0  0  0  0
    7.9746   22.6664   34.0254 H   0  0  0  0  0  0  0  0  0  0  0  0
   11.4754   22.5402   32.7754 H   0  0  0  0  0  0  0  0  0  0  0  0
   12.7644   24.5269   34.4680 H   0  0  0  0  0  0  0  0  0  0  0  0
   13.0500   24.0957   32.8034 H   0  0  0  0  0  0  0  0  0  0  0  0
   11.1238   26.1853   33.8935 H   0  0  0  0  0  0  0  0  0  0  0  0
   11.5435   25.9429   32.1845 H   0  0  0  0  0  0  0  0  0  0  0  0
    9.8239   24.5077   31.8291 H   0  0  0  0  0  0  0  0  0  0  0  0
   10.0907   23.0806   36.0143 H   0  0  0  0  0  0  0  0  0  0  0  0
   10.5207   24.7690   35.5770 H   0  0  0  0  0  0  0  0  0  0  0  0
    8.8006   24.2515   35.5770 H   0  0  0  0  0  0  0  0  0  0  0  0
   15.1063   21.5194   34.6928 H   0  0  0  0  0  0  0  0  0  0  0  0
   15.9291   20.4491   33.3484 H   0  0  0  0  0  0  0  0  0  0  0  0
    8.3883   26.0157   31.9870 H   0  0  0  0  0  0  0  0  0  0  0  0
    8.8571   26.3643   35.0403 H   0  0  0  0  0  0  0  0  0  0  0  0
   10.0274   27.0745   33.8773 H   0  0  0  0  0  0  0  0  0  0  0  0
    8.3166   27.6220   33.8773 H   0  0  0  0  0  0  0  0  0  0  0  0
    7.4566   23.8819   33.2794 H   0  0  0  0  0  0  0  0  0  0  0  0
    7.1896   25.1745   34.5131 H   0  0  0  0  0  0  0  0  0  0  0  0
    6.4370   26.2426   31.8919 H   0  0  0  0  0  0  0  0  0  0  0  0
    5.6202   24.6614   32.1019 H   0  0  0  0  0  0  0  0  0  0  0  0
    5.6584   26.4979   34.4932 H   0  0  0  0  0  0  0  0  0  0  0  0
    4.6134   26.9759   33.0809 H   0  0  0  0  0  0  0  0  0  0  0  0
    3.9068   25.3438   36.2262 H   0  0  0  0  0  0  0  0  0  0  0  0
    3.7935   23.6604   35.6098 H   0  0  0  0  0  0  0  0  0  0  0  0
    5.3749   24.5123   35.6098 H   0  0  0  0  0  0  0  0  0  0  0  0
    2.3393   26.0794   35.0846 H   0  0  0  0  0  0  0  0  0  0  0  0
    2.7899   26.8566   33.5291 H   0  0  0  0  0  0  0  0  0  0  0  0
    1.9260   25.2817   33.5291 H   0  0  0  0  0  0  0  0  0  0  0  0
   16.4250   18.0573   33.2966 H   0  0  0  0  0  0  0  0  0  0  0  0
  5  1  1  0
 27  2  1  6
  3  4  1  0
  3 12  1  0
  3 30  1  0
  4  5  1  0
  5  6  1  0
  6  7  1  0
  7  8  2  3
  7 12  1  0
  8  9  1  0
  9 10  2  3
 10 11  1  0
 10 16  1  0
 11 13  1  0
 12 21  2  0
 13 14  1  0
 14 15  1  0
 15 16  1  0
 15 19  1  0
 15 20  1  1
 16 17  1  0
 17 18  1  0
 19 18  1  0
 19 22  1  0
 22 23  1  0
 22 24  1  0
 24 25  1  0
 25 26  1  0
 26 27  1  0
 27 28  1  0
 27 29  1  0
  1 31  1  0
  2 32  1  0
  3 33  1  6
  4 34  1  0
  4 35  1  0
  5 36  1  1
  6 37  1  0
  6 38  1  0
  8 39  1  0
  9 40  1  0
 11 41  1  0
 11 42  1  0
 13 43  1  0
 13 44  1  0
 14 45  1  0
 14 46  1  0
 16 47  1  6
 17 48  1  0
 17 49  1  0
 18 50  1  0
 18 51  1  0
 19 52  1  6
 20 53  1  0
 20 54  1  0
 20 55  1  0
 21 56  1  0
 21 57  1  0
 22 58  1  6
 23 59  1  0
 23 60  1  0
 23 61  1  0
 24 62  1  0
 24 63  1  0
 25 64  1  0
 25 65  1  0
 26 66  1  0
 26 67  1  0
 28 68  1  0
 28 69  1  0
 28 70  1  0
 29 71  1  0
 29 72  1  0
 29 73  1  0
 30 74  1  0
M  END
>  <filename_input>  (15) 
7QPP_VDX_docked.sdf

>  <pdb_id>  (15) 
7QPP_VDX

>  <pose_rank>  (15) 
14

>  <num_atoms_heavy>  (15) 
30

>  <num_torsions>  (15) 
6

>  <pose>  (15) 
[12.646617144144068, 21.87862953572733, 35.307121666608516, 3.635325819475391, -2.5028273970801678, 0.6941350610677189, -2.012251494533708, 4.313295313786002, 0.47711175971713293, -5.006858807882108, 1.6729293824976164, 0.7243374564407726]

>  <energy>  (15) 
-681.6719546717193

>  <inter_energy>  (15) 
-699.8642761046941

>  <intra_energy>  (15) 
35.303398099222306

>  <rmsd>  (15) 
2.83971

>  <sdf_rank>  (15) 
0

$$$$

     RDKit          3D

 74 76  0  0  0  0  0  0  0  0999 V2000
    9.5086   29.0830   34.0813 O   0  0  0  0  0  0  0  0  0  0  0  0
   15.2801   15.3741   34.3586 O   0  0  0  0  0  0  0  0  0  0  0  0
    9.9779   27.0764   36.1598 C   0  0  1  0  0  0  0  0  0  0  0  0
   10.4314   28.5372   36.2479 C   0  0  0  0  0  0  0  0  0  0  0  0
   10.6875   29.1003   34.9197 C   0  0  1  0  0  0  0  0  0  0  0  0
   11.7723   28.2530   34.1790 C   0  0  0  0  0  0  0  0  0  0  0  0
   11.4652   26.7991   34.0959 C   0  0  0  0  0  0  0  0  0  0  0  0
   11.8059   26.0270   33.0272 C   0  0  0  0  0  0  0  0  0  0  0  0
   11.4572   24.5683   32.8371 C   0  0  0  0  0  0  0  0  0  0  0  0
   12.4171   23.6262   32.9036 C   0  0  0  0  0  0  0  0  0  0  0  0
   13.8388   23.8146   33.3729 C   0  0  0  0  0  0  0  0  0  0  0  0
   10.9418   26.1964   35.4395 C   0  0  0  0  0  0  0  0  0  0  0  0
   14.1341   23.0704   34.6555 C   0  0  0  0  0  0  0  0  0  0  0  0
   13.7086   21.6846   34.6260 C   0  0  0  0  0  0  0  0  0  0  0  0
   12.2081   21.4840   34.1992 C   0  0  1  0  0  0  0  0  0  0  0  0
   11.9162   22.2320   33.0062 C   0  0  1  0  0  0  0  0  0  0  0  0
   10.6279   21.7200   32.3654 C   0  0  0  0  0  0  0  0  0  0  0  0
   10.4765   20.2585   33.0457 C   0  0  0  0  0  0  0  0  0  0  0  0
   11.7008   20.0109   33.7777 C   0  0  2  0  0  0  0  0  0  0  0  0
   11.3313   22.1133   35.3075 C   0  0  0  0  0  0  0  0  0  0  0  0
   11.4506   25.0435   35.9095 C   0  0  0  0  0  0  0  0  0  0  0  0
   11.6581   18.9795   34.9551 C   0  0  2  0  0  0  0  0  0  0  0  0
   10.2950   19.2040   35.6309 C   0  0  0  0  0  0  0  0  0  0  0  0
   12.7557   19.0815   36.0104 C   0  0  0  0  0  0  0  0  0  0  0  0
   13.6702   17.7889   36.0002 C   0  0  0  0  0  0  0  0  0  0  0  0
   13.7721   17.2604   34.5538 C   0  0  0  0  0  0  0  0  0  0  0  0
   15.1916   16.7580   34.2002 C   0  0  2  0  0  0  0  0  0  0  0  0
   15.5477   17.0808   32.7471 C   0  0  0  0  0  0  0  0  0  0  0  0
   16.1823   17.4155   35.1400 C   0  0  0  0  0  0  0  0  0  0  0  0
    9.6649   26.5265   37.4353 O   0  0  0  0  0  0  0  0  0  0  0  0
    8.6989   29.0710   34.6507 H   0  0  0  0  0  0  0  0  0  0  0  0
   15.2943   15.1526   35.3234 H   0  0  0  0  0  0  0  0  0  0  0  0
    9.0562   27.1059   35.5601 H   0  0  0  0  0  0  0  0  0  0  0  0
    9.6443   29.1268   36.7405 H   0  0  0  0  0  0  0  0  0  0  0  0
   11.3671   28.5741   36.8250 H   0  0  0  0  0  0  0  0  0  0  0  0
   11.0145   30.1380   35.0822 H   0  0  0  0  0  0  0  0  0  0  0  0
   11.8732   28.6425   33.1552 H   0  0  0  0  0  0  0  0  0  0  0  0
   12.6980   28.3455   34.7660 H   0  0  0  0  0  0  0  0  0  0  0  0
   12.3886   26.5092   32.2285 H   0  0  0  0  0  0  0  0  0  0  0  0
   10.4148   24.2752   32.6436 H   0  0  0  0  0  0  0  0  0  0  0  0
   14.5191   23.4492   32.5895 H   0  0  0  0  0  0  0  0  0  0  0  0
   13.9837   24.8870   33.5704 H   0  0  0  0  0  0  0  0  0  0  0  0
   15.2193   23.0986   34.8335 H   0  0  0  0  0  0  0  0  0  0  0  0
   13.5693   23.5675   35.4579 H   0  0  0  0  0  0  0  0  0  0  0  0
   14.3464   21.1422   33.9125 H   0  0  0  0  0  0  0  0  0  0  0  0
   13.8007   21.3019   35.6531 H   0  0  0  0  0  0  0  0  0  0  0  0
   12.6352   22.0340   32.1976 H   0  0  0  0  0  0  0  0  0  0  0  0
    9.7733   22.3671   32.6124 H   0  0  0  0  0  0  0  0  0  0  0  0
   10.6556   21.6985   31.2660 H   0  0  0  0  0  0  0  0  0  0  0  0
    9.6161   20.2467   33.7311 H   0  0  0  0  0  0  0  0  0  0  0  0
   10.3076   19.4832   32.2838 H   0  0  0  0  0  0  0  0  0  0  0  0
   12.4102   19.4712   33.1332 H   0  0  0  0  0  0  0  0  0  0  0  0
   11.7271   21.8293   36.2937 H   0  0  0  0  0  0  0  0  0  0  0  0
   11.3453   23.2088   35.2084 H   0  0  0  0  0  0  0  0  0  0  0  0
   10.2979   21.7495   35.2084 H   0  0  0  0  0  0  0  0  0  0  0  0
   12.1581   24.4646   35.2977 H   0  0  0  0  0  0  0  0  0  0  0  0
   11.1591   24.6794   36.9058 H   0  0  0  0  0  0  0  0  0  0  0  0
   11.8182   17.9815   34.5211 H   0  0  0  0  0  0  0  0  0  0  0  0
   10.4196   19.1834   36.7236 H   0  0  0  0  0  0  0  0  0  0  0  0
    9.8911   20.1807   35.3262 H   0  0  0  0  0  0  0  0  0  0  0  0
    9.5992   18.4083   35.3262 H   0  0  0  0  0  0  0  0  0  0  0  0
   13.3773   19.9642   35.7997 H   0  0  0  0  0  0  0  0  0  0  0  0
   12.2846   19.1712   37.0004 H   0  0  0  0  0  0  0  0  0  0  0  0
   14.6737   18.0435   36.3719 H   0  0  0  0  0  0  0  0  0  0  0  0
   13.2315   17.0167   36.6492 H   0  0  0  0  0  0  0  0  0  0  0  0
   13.0637   16.4276   34.4328 H   0  0  0  0  0  0  0  0  0  0  0  0
   13.5374   18.0958   33.8777 H   0  0  0  0  0  0  0  0  0  0  0  0
   16.3625   17.8195   32.7247 H   0  0  0  0  0  0  0  0  0  0  0  0
   15.8715   16.1621   32.2361 H   0  0  0  0  0  0  0  0  0  0  0  0
   14.6650   17.4929   32.2361 H   0  0  0  0  0  0  0  0  0  0  0  0
   15.8861   17.2189   36.1810 H   0  0  0  0  0  0  0  0  0  0  0  0
   17.1865   17.0040   34.9605 H   0  0  0  0  0  0  0  0  0  0  0  0
   16.1932   18.5007   34.9605 H   0  0  0  0  0  0  0  0  0  0  0  0
   10.0060   27.1257   38.1457 H   0  0  0  0  0  0  0  0  0  0  0  0
  5  1  1  0
 27  2  1  6
  3  4  1  0
  3 12  1  0
  3 30  1  0
  4  5  1  0
  5  6  1  0
  6  7  1  0
  7  8  2  3
  7 12  1  0
  8  9  1  0
  9 10  2  3
 10 11  1  0
 10 16  1  0
 11 13  1  0
 12 21  2  0
 13 14  1  0
 14 15  1  0
 15 16  1  0
 15 19  1  0
 15 20  1  1
 16 17  1  0
 17 18  1  0
 19 18  1  0
 19 22  1  0
 22 23  1  0
 22 24  1  0
 24 25  1  0
 25 26  1  0
 26 27  1  0
 27 28  1  0
 27 29  1  0
  1 31  1  0
  2 32  1  0
  3 33  1  6
  4 34  1  0
  4 35  1  0
  5 36  1  1
  6 37  1  0
  6 38  1  0
  8 39  1  0
  9 40  1  0
 11 41  1  0
 11 42  1  0
 13 43  1  0
 13 44  1  0
 14 45  1  0
 14 46  1  0
 16 47  1  6
 17 48  1  0
 17 49  1  0
 18 50  1  0
 18 51  1  0
 19 52  1  6
 20 53  1  0
 20 54  1  0
 20 55  1  0
 21 56  1  0
 21 57  1  0
 22 58  1  6
 23 59  1  0
 23 60  1  0
 23 61  1  0
 24 62  1  0
 24 63  1  0
 25 64  1  0
 25 65  1  0
 26 66  1  0
 26 67  1  0
 28 68  1  0
 28 69  1  0
 28 70  1  0
 29 71  1  0
 29 72  1  0
 29 73  1  0
 30 74  1  0
M  END
>  <filename_input>  (16) 
7QPP_VDX_docked.sdf

>  <pdb_id>  (16) 
7QPP_VDX

>  <pose_rank>  (16) 
15

>  <num_atoms_heavy>  (16) 
30

>  <num_torsions>  (16) 
6

>  <pose>  (16) 
[11.457205899031447, 24.568298071242904, 32.837120013396124, -2.654502902542463, -0.8888025080996371, 1.4860233891243564, 1.0450528668062233, -2.098913092233298, 0.9134803342484666, -2.35940925729655, -0.5104063220246878, 2.7233573263123962]

>  <energy>  (16) 
-515.7837313749051

>  <inter_energy>  (16) 
-567.4540438101448

>  <intra_energy>  (16) 
60.730559566293536

>  <rmsd>  (16) 
8.99484

>  <sdf_rank>  (16) 
0

$$$$

     RDKit          3D

 74 76  0  0  0  0  0  0  0  0999 V2000
    4.5587   23.3726   32.1981 O   0  0  0  0  0  0  0  0  0  0  0  0
   16.9110   25.0589   41.8576 O   0  0  0  0  0  0  0  0  0  0  0  0
    4.7298   24.2148   34.9959 C   0  0  1  0  0  0  0  0  0  0  0  0
    3.7943   24.8431   33.9579 C   0  0  0  0  0  0  0  0  0  0  0  0
    4.3502   24.7450   32.6059 C   0  0  1  0  0  0  0  0  0  0  0  0
    5.7480   25.4425   32.5498 C   0  0  0  0  0  0  0  0  0  0  0  0
    6.7192   24.9549   33.5667 C   0  0  0  0  0  0  0  0  0  0  0  0
    8.0569   24.8581   33.3309 C   0  0  0  0  0  0  0  0  0  0  0  0
    9.0891   24.2978   34.2829 C   0  0  0  0  0  0  0  0  0  0  0  0
   10.3942   24.3053   33.9510 C   0  0  0  0  0  0  0  0  0  0  0  0
   11.0269   25.0230   32.7842 C   0  0  0  0  0  0  0  0  0  0  0  0
    6.1006   24.8005   34.9935 C   0  0  0  0  0  0  0  0  0  0  0  0
   11.9502   26.1397   33.2163 C   0  0  0  0  0  0  0  0  0  0  0  0
   12.8981   25.7379   34.2374 C   0  0  0  0  0  0  0  0  0  0  0  0
   12.2392   25.0459   35.4867 C   0  0  1  0  0  0  0  0  0  0  0  0
   11.3242   24.0169   35.0722 C   0  0  1  0  0  0  0  0  0  0  0  0
   11.0162   23.0837   36.2412 C   0  0  0  0  0  0  0  0  0  0  0  0
   12.2483   23.3916   37.2457 C   0  0  0  0  0  0  0  0  0  0  0  0
   13.1757   24.2348   36.5211 C   0  0  2  0  0  0  0  0  0  0  0  0
   11.3699   26.1131   36.1928 C   0  0  0  0  0  0  0  0  0  0  0  0
    6.7449   25.2886   36.0686 C   0  0  0  0  0  0  0  0  0  0  0  0
   14.1545   25.1333   37.3496 C   0  0  2  0  0  0  0  0  0  0  0  0
   15.5577   24.5897   37.0326 C   0  0  0  0  0  0  0  0  0  0  0  0
   13.9643   25.1580   38.8636 C   0  0  0  0  0  0  0  0  0  0  0  0
   15.3476   25.3762   39.6026 C   0  0  0  0  0  0  0  0  0  0  0  0
   15.1285   26.3181   40.8052 C   0  0  0  0  0  0  0  0  0  0  0  0
   16.3252   26.3236   41.7853 C   0  0  2  0  0  0  0  0  0  0  0  0
   17.4062   27.3089   41.3344 C   0  0  0  0  0  0  0  0  0  0  0  0
   15.8167   26.6993   43.1627 C   0  0  0  0  0  0  0  0  0  0  0  0
    4.1821   24.2446   36.3100 O   0  0  0  0  0  0  0  0  0  0  0  0
    4.6457   22.7995   33.0007 H   0  0  0  0  0  0  0  0  0  0  0  0
   17.0292   24.8038   42.8069 H   0  0  0  0  0  0  0  0  0  0  0  0
    4.8262   23.1641   34.6852 H   0  0  0  0  0  0  0  0  0  0  0  0
    2.8269   24.3202   33.9856 H   0  0  0  0  0  0  0  0  0  0  0  0
    3.6707   25.9080   34.2041 H   0  0  0  0  0  0  0  0  0  0  0  0
    3.6218   25.2263   31.9369 H   0  0  0  0  0  0  0  0  0  0  0  0
    6.1786   25.2705   31.5523 H   0  0  0  0  0  0  0  0  0  0  0  0
    5.5763   26.5076   32.7647 H   0  0  0  0  0  0  0  0  0  0  0  0
    8.4199   25.2210   32.3581 H   0  0  0  0  0  0  0  0  0  0  0  0
    8.7727   23.8823   35.2510 H   0  0  0  0  0  0  0  0  0  0  0  0
   11.6056   24.2958   32.1958 H   0  0  0  0  0  0  0  0  0  0  0  0
   10.2163   25.4729   32.1922 H   0  0  0  0  0  0  0  0  0  0  0  0
   12.5114   26.4886   32.3369 H   0  0  0  0  0  0  0  0  0  0  0  0
   11.3223   26.9326   33.6488 H   0  0  0  0  0  0  0  0  0  0  0  0
   13.6121   25.0322   33.7878 H   0  0  0  0  0  0  0  0  0  0  0  0
   13.3817   26.6565   34.6012 H   0  0  0  0  0  0  0  0  0  0  0  0
   11.7787   23.3086   34.3639 H   0  0  0  0  0  0  0  0  0  0  0  0
   10.0499   23.3294   36.7058 H   0  0  0  0  0  0  0  0  0  0  0  0
   10.9293   22.0252   35.9548 H   0  0  0  0  0  0  0  0  0  0  0  0
   11.8843   23.9127   38.1434 H   0  0  0  0  0  0  0  0  0  0  0  0
   12.7336   22.4604   37.5734 H   0  0  0  0  0  0  0  0  0  0  0  0
   13.9323   23.6073   36.0273 H   0  0  0  0  0  0  0  0  0  0  0  0
   11.4629   25.9990   37.2829 H   0  0  0  0  0  0  0  0  0  0  0  0
   11.7108   27.1168   35.8988 H   0  0  0  0  0  0  0  0  0  0  0  0
   10.3181   25.9824   35.8988 H   0  0  0  0  0  0  0  0  0  0  0  0
    7.7590   25.7011   35.9617 H   0  0  0  0  0  0  0  0  0  0  0  0
    6.2577   25.2753   37.0547 H   0  0  0  0  0  0  0  0  0  0  0  0
   13.9681   26.1768   37.0556 H   0  0  0  0  0  0  0  0  0  0  0  0
   16.0916   24.3828   37.9719 H   0  0  0  0  0  0  0  0  0  0  0  0
   15.4681   23.6612   36.4496 H   0  0  0  0  0  0  0  0  0  0  0  0
   16.1170   25.3362   36.4496 H   0  0  0  0  0  0  0  0  0  0  0  0
   13.2814   25.9789   39.1276 H   0  0  0  0  0  0  0  0  0  0  0  0
   13.5444   24.1921   39.1812 H   0  0  0  0  0  0  0  0  0  0  0  0
   15.7338   24.4089   39.9566 H   0  0  0  0  0  0  0  0  0  0  0  0
   16.0752   25.8214   38.9080 H   0  0  0  0  0  0  0  0  0  0  0  0
   14.9775   27.3405   40.4284 H   0  0  0  0  0  0  0  0  0  0  0  0
   14.2493   25.9537   41.3566 H   0  0  0  0  0  0  0  0  0  0  0  0
   17.8910   27.7507   42.2174 H   0  0  0  0  0  0  0  0  0  0  0  0
   18.1573   26.7782   40.7308 H   0  0  0  0  0  0  0  0  0  0  0  0
   16.9472   28.1058   40.7308 H   0  0  0  0  0  0  0  0  0  0  0  0
   16.4518   26.2301   43.9285 H   0  0  0  0  0  0  0  0  0  0  0  0
   15.8484   27.7926   43.2796 H   0  0  0  0  0  0  0  0  0  0  0  0
   14.7809   26.3479   43.2796 H   0  0  0  0  0  0  0  0  0  0  0  0
    4.9152   24.2047   36.9740 H   0  0  0  0  0  0  0  0  0  0  0  0
  5  1  1  0
 27  2  1  1
  3  4  1  0
  3 12  1  0
  3 30  1  0
  4  5  1  0
  5  6  1  0
  6  7  1  0
  7  8  2  3
  7 12  1  0
  8  9  1  0
  9 10  2  3
 10 11  1  0
 10 16  1  0
 11 13  1  0
 12 21  2  0
 13 14  1  0
 14 15  1  0
 15 16  1  0
 15 19  1  0
 15 20  1  1
 16 17  1  0
 17 18  1  0
 19 18  1  0
 19 22  1  0
 22 23  1  0
 22 24  1  0
 24 25  1  0
 25 26  1  0
 26 27  1  0
 27 28  1  0
 27 29  1  0
  1 31  1  0
  2 32  1  0
  3 33  1  6
  4 34  1  0
  4 35  1  0
  5 36  1  6
  6 37  1  0
  6 38  1  0
  8 39  1  0
  9 40  1  0
 11 41  1  0
 11 42  1  0
 13 43  1  0
 13 44  1  0
 14 45  1  0
 14 46  1  0
 16 47  1  6
 17 48  1  0
 17 49  1  0
 18 50  1  0
 18 51  1  0
 19 52  1  6
 20 53  1  0
 20 54  1  0
 20 55  1  0
 21 56  1  0
 21 57  1  0
 22 58  1  6
 23 59  1  0
 23 60  1  0
 23 61  1  0
 24 62  1  0
 24 63  1  0
 25 64  1  0
 25 65  1  0
 26 66  1  0
 26 67  1  0
 28 68  1  0
 28 69  1  0
 28 70  1  0
 29 71  1  0
 29 72  1  0
 29 73  1  0
 30 74  1  0
M  END
>  <filename_input>  (17) 
7QPP_VDX_docked.sdf

>  <pdb_id>  (17) 
7QPP_VDX

>  <pose_rank>  (17) 
16

>  <num_atoms_heavy>  (17) 
30

>  <num_torsions>  (17) 
6

>  <pose>  (17) 
[9.089092349974882, 24.29782845158541, 34.2829304516671, -1.6029268127693912, -1.2768573557041023, 3.68485483495219, -12.696206993370632, 6.851362660796025, -0.7652412973532132, -19.332350359593633, -0.06117468223761704, 0.4299424929281288]

>  <energy>  (17) 
-451.230276854434

>  <inter_energy>  (17) 
-462.711369288311

>  <intra_energy>  (17) 
0.0

>  <rmsd>  (17) 
9.36451

>  <sdf_rank>  (17) 
0

$$$$

     RDKit          3D

 74 76  0  0  0  0  0  0  0  0999 V2000
   13.5795   24.1737   35.2788 O   0  0  0  0  0  0  0  0  0  0  0  0
    2.8796   31.6513   30.6037 O   0  0  0  0  0  0  0  0  0  0  0  0
   12.2406   21.6292   34.7315 C   0  0  1  0  0  0  0  0  0  0  0  0
   13.7479   21.8632   34.5883 C   0  0  0  0  0  0  0  0  0  0  0  0
   14.0450   23.2595   34.2586 C   0  0  1  0  0  0  0  0  0  0  0  0
   13.3184   23.6634   32.9349 C   0  0  0  0  0  0  0  0  0  0  0  0
   11.8513   23.4126   32.9381 C   0  0  0  0  0  0  0  0  0  0  0  0
   10.9574   24.2207   32.3039 C   0  0  0  0  0  0  0  0  0  0  0  0
    9.4528   24.0758   32.3313 C   0  0  0  0  0  0  0  0  0  0  0  0
    8.7544   24.4468   33.4213 C   0  0  0  0  0  0  0  0  0  0  0  0
    9.2726   25.2227   34.6070 C   0  0  0  0  0  0  0  0  0  0  0  0
   11.4605   22.0165   33.5217 C   0  0  0  0  0  0  0  0  0  0  0  0
    8.6515   26.5964   34.7231 C   0  0  0  0  0  0  0  0  0  0  0  0
    7.2050   26.5825   34.6223 C   0  0  0  0  0  0  0  0  0  0  0  0
    6.6583   25.8300   33.3540 C   0  0  1  0  0  0  0  0  0  0  0  0
    7.2866   24.5436   33.2180 C   0  0  1  0  0  0  0  0  0  0  0  0
    6.4785   23.6603   32.2697 C   0  0  0  0  0  0  0  0  0  0  0  0
    5.0406   24.4048   32.2664 C   0  0  0  0  0  0  0  0  0  0  0  0
    5.0973   25.4247   33.2924 C   0  0  2  0  0  0  0  0  0  0  0  0
    7.1045   26.6418   32.1151 C   0  0  0  0  0  0  0  0  0  0  0  0
   10.5839   21.2307   32.8712 C   0  0  0  0  0  0  0  0  0  0  0  0
    4.1170   26.6402   33.1763 C   0  0  2  0  0  0  0  0  0  0  0  0
    2.7107   26.0177   33.1729 C   0  0  0  0  0  0  0  0  0  0  0  0
    4.2631   27.5381   31.9511 C   0  0  0  0  0  0  0  0  0  0  0  0
    3.6439   28.9697   32.2236 C   0  0  0  0  0  0  0  0  0  0  0  0
    4.4630   30.0240   31.4495 C   0  0  0  0  0  0  0  0  0  0  0  0
    3.8682   31.4469   31.5675 C   0  0  2  0  0  0  0  0  0  0  0  0
    3.2285   31.6680   32.9402 C   0  0  0  0  0  0  0  0  0  0  0  0
    4.9790   32.4526   31.3400 C   0  0  0  0  0  0  0  0  0  0  0  0
   11.9317   20.2921   35.1115 O   0  0  0  0  0  0  0  0  0  0  0  0
   13.7720   23.7956   36.1733 H   0  0  0  0  0  0  0  0  0  0  0  0
    2.0147   31.8300   31.0509 H   0  0  0  0  0  0  0  0  0  0  0  0
   11.9299   22.3006   35.5456 H   0  0  0  0  0  0  0  0  0  0  0  0
   14.2413   21.6071   35.5375 H   0  0  0  0  0  0  0  0  0  0  0  0
   14.1197   21.2286   33.7703 H   0  0  0  0  0  0  0  0  0  0  0  0
   15.1389   23.3290   34.1665 H   0  0  0  0  0  0  0  0  0  0  0  0
   13.4834   24.7377   32.7657 H   0  0  0  0  0  0  0  0  0  0  0  0
   13.7429   23.0340   32.1389 H   0  0  0  0  0  0  0  0  0  0  0  0
   11.3679   25.0560   31.7176 H   0  0  0  0  0  0  0  0  0  0  0  0
    8.9262   23.6655   31.4570 H   0  0  0  0  0  0  0  0  0  0  0  0
    9.0483   24.6567   35.5232 H   0  0  0  0  0  0  0  0  0  0  0  0
   10.3552   25.3587   34.4672 H   0  0  0  0  0  0  0  0  0  0  0  0
    8.9293   27.0239   35.6978 H   0  0  0  0  0  0  0  0  0  0  0  0
    9.0307   27.1973   33.8834 H   0  0  0  0  0  0  0  0  0  0  0  0
    6.8008   26.0888   35.5182 H   0  0  0  0  0  0  0  0  0  0  0  0
    6.8826   27.6304   34.5336 H   0  0  0  0  0  0  0  0  0  0  0  0
    7.2333   23.9483   34.1415 H   0  0  0  0  0  0  0  0  0  0  0  0
    6.9224   23.6424   31.2634 H   0  0  0  0  0  0  0  0  0  0  0  0
    6.4324   22.6047   32.5754 H   0  0  0  0  0  0  0  0  0  0  0  0
    4.8542   24.8648   31.2847 H   0  0  0  0  0  0  0  0  0  0  0  0
    4.2258   23.6922   32.4617 H   0  0  0  0  0  0  0  0  0  0  0  0
    4.7137   25.0145   34.2383 H   0  0  0  0  0  0  0  0  0  0  0  0
    7.6104   27.5621   32.4424 H   0  0  0  0  0  0  0  0  0  0  0  0
    7.7974   26.0377   31.5109 H   0  0  0  0  0  0  0  0  0  0  0  0
    6.2232   26.9029   31.5109 H   0  0  0  0  0  0  0  0  0  0  0  0
   10.0566   21.6117   31.9842 H   0  0  0  0  0  0  0  0  0  0  0  0
   10.3943   20.2070   33.2263 H   0  0  0  0  0  0  0  0  0  0  0  0
    4.3375   27.3189   34.0135 H   0  0  0  0  0  0  0  0  0  0  0  0
    2.3733   25.8683   34.2091 H   0  0  0  0  0  0  0  0  0  0  0  0
    2.0130   26.6910   32.6535 H   0  0  0  0  0  0  0  0  0  0  0  0
    2.7401   25.0485   32.6535 H   0  0  0  0  0  0  0  0  0  0  0  0
    5.3307   27.6473   31.7097 H   0  0  0  0  0  0  0  0  0  0  0  0
    3.7247   27.0763   31.1103 H   0  0  0  0  0  0  0  0  0  0  0  0
    2.5984   28.9909   31.8824 H   0  0  0  0  0  0  0  0  0  0  0  0
    3.6753   29.1906   33.3008 H   0  0  0  0  0  0  0  0  0  0  0  0
    5.4876   30.0366   31.8494 H   0  0  0  0  0  0  0  0  0  0  0  0
    4.4447   29.7435   30.3860 H   0  0  0  0  0  0  0  0  0  0  0  0
    3.9543   31.4172   33.7278 H   0  0  0  0  0  0  0  0  0  0  0  0
    2.9290   32.7218   33.0398 H   0  0  0  0  0  0  0  0  0  0  0  0
    2.3423   31.0240   33.0398 H   0  0  0  0  0  0  0  0  0  0  0  0
    5.3631   32.8004   32.3103 H   0  0  0  0  0  0  0  0  0  0  0  0
    5.7928   31.9779   30.7723 H   0  0  0  0  0  0  0  0  0  0  0  0
    4.5872   33.3095   30.7723 H   0  0  0  0  0  0  0  0  0  0  0  0
   11.9162   20.2249   36.0990 H   0  0  0  0  0  0  0  0  0  0  0  0
  5  1  1  0
 27  2  1  6
  3  4  1  0
  3 12  1  0
  3 30  1  0
  4  5  1  0
  5  6  1  0
  6  7  1  0
  7  8  2  3
  7 12  1  0
  8  9  1  0
  9 10  2  3
 10 11  1  0
 10 16  1  0
 11 13  1  0
 12 21  2  0
 13 14  1  0
 14 15  1  0
 15 16  1  0
 15 19  1  0
 15 20  1  6
 16 17  1  0
 17 18  1  0
 19 18  1  0
 19 22  1  0
 22 23  1  0
 22 24  1  0
 24 25  1  0
 25 26  1  0
 26 27  1  0
 27 28  1  0
 27 29  1  0
  1 31  1  0
  2 32  1  0
  3 33  1  1
  4 34  1  0
  4 35  1  0
  5 36  1  6
  6 37  1  0
  6 38  1  0
  8 39  1  0
  9 40  1  0
 11 41  1  0
 11 42  1  0
 13 43  1  0
 13 44  1  0
 14 45  1  0
 14 46  1  0
 16 47  1  1
 17 48  1  0
 17 49  1  0
 18 50  1  0
 18 51  1  0
 19 52  1  1
 20 53  1  0
 20 54  1  0
 20 55  1  0
 21 56  1  0
 21 57  1  0
 22 58  1  1
 23 59  1  0
 23 60  1  0
 23 61  1  0
 24 62  1  0
 24 63  1  0
 25 64  1  0
 25 65  1  0
 26 66  1  0
 26 67  1  0
 28 68  1  0
 28 69  1  0
 28 70  1  0
 29 71  1  0
 29 72  1  0
 29 73  1  0
 30 74  1  0
M  END
>  <filename_input>  (18) 
7QPP_VDX_docked.sdf

>  <pdb_id>  (18) 
7QPP_VDX

>  <pose_rank>  (18) 
17

>  <num_atoms_heavy>  (18) 
30

>  <num_torsions>  (18) 
6

>  <pose>  (18) 
[9.452773976623261, 24.075794698619283, 32.3313034010162, -3.428067466891236, 2.337581094959724, -0.01953820786804731, -8.274787591484744, 5.86758899198848, 6.448963660194612, -25.510351100484506, 0.10624771334069646, -0.4580473994053913]

>  <energy>  (18) 
-409.60911095111595

>  <inter_energy>  (18) 
-420.97211110683804

>  <intra_energy>  (18) 
22.51520905380773

>  <rmsd>  (18) 
5.97242

>  <sdf_rank>  (18) 
0

$$$$

     RDKit          3D

 74 76  0  0  0  0  0  0  0  0999 V2000
    3.6195   20.4970   40.4624 O   0  0  0  0  0  0  0  0  0  0  0  0
   14.7256   17.2527   32.9479 O   0  0  0  0  0  0  0  0  0  0  0  0
    5.8580   18.6750   40.9474 C   0  0  1  0  0  0  0  0  0  0  0  0
    5.0189   19.3287   42.0499 C   0  0  0  0  0  0  0  0  0  0  0  0
    4.4800   20.6212   41.6187 C   0  0  1  0  0  0  0  0  0  0  0  0
    5.6462   21.5761   41.2045 C   0  0  0  0  0  0  0  0  0  0  0  0
    6.5694   21.0112   40.1829 C   0  0  0  0  0  0  0  0  0  0  0  0
    7.1648   21.7673   39.2195 C   0  0  0  0  0  0  0  0  0  0  0  0
    8.0458   21.2530   38.1038 C   0  0  0  0  0  0  0  0  0  0  0  0
    8.2005   21.9707   36.9748 C   0  0  0  0  0  0  0  0  0  0  0  0
    7.7566   23.3934   36.7391 C   0  0  0  0  0  0  0  0  0  0  0  0
    6.9805   19.5305   40.4673 C   0  0  0  0  0  0  0  0  0  0  0  0
    8.9174   24.3447   36.5551 C   0  0  0  0  0  0  0  0  0  0  0  0
    9.8991   23.8738   35.5975 C   0  0  0  0  0  0  0  0  0  0  0  0
   10.4146   22.4137   35.8736 C   0  0  1  0  0  0  0  0  0  0  0  0
    9.3103   21.5201   36.0970 C   0  0  1  0  0  0  0  0  0  0  0  0
    9.7663   20.0706   35.9440 C   0  0  0  0  0  0  0  0  0  0  0  0
   11.1441   20.2419   35.1107 C   0  0  0  0  0  0  0  0  0  0  0  0
   11.2209   21.6322   34.7143 C   0  0  2  0  0  0  0  0  0  0  0  0
   11.1939   22.4509   37.2094 C   0  0  0  0  0  0  0  0  0  0  0  0
    8.2705   19.1578   40.3896 C   0  0  0  0  0  0  0  0  0  0  0  0
   12.6327   22.2285   34.3930 C   0  0  2  0  0  0  0  0  0  0  0  0
   12.3635   23.3789   33.4085 C   0  0  0  0  0  0  0  0  0  0  0  0
   13.6642   21.2851   33.7807 C   0  0  0  0  0  0  0  0  0  0  0  0
   14.1492   20.2143   34.8415 C   0  0  0  0  0  0  0  0  0  0  0  0
   13.6225   18.8247   34.4253 C   0  0  0  0  0  0  0  0  0  0  0  0
   14.7554   17.7887   34.2363 C   0  0  2  0  0  0  0  0  0  0  0  0
   16.1310   18.4284   34.4393 C   0  0  0  0  0  0  0  0  0  0  0  0
   14.5496   16.6643   35.2315 C   0  0  0  0  0  0  0  0  0  0  0  0
    6.3421   17.3895   41.3226 O   0  0  0  0  0  0  0  0  0  0  0  0
    2.6848   20.3622   40.7596 H   0  0  0  0  0  0  0  0  0  0  0  0
   14.6707   16.2657   33.0023 H   0  0  0  0  0  0  0  0  0  0  0  0
    5.1628   18.5502   40.1042 H   0  0  0  0  0  0  0  0  0  0  0  0
    4.1835   18.6608   42.3069 H   0  0  0  0  0  0  0  0  0  0  0  0
    5.6668   19.4984   42.9225 H   0  0  0  0  0  0  0  0  0  0  0  0
    3.9062   21.0159   42.4701 H   0  0  0  0  0  0  0  0  0  0  0  0
    5.2072   22.4994   40.7986 H   0  0  0  0  0  0  0  0  0  0  0  0
    6.2470   21.7490   42.1095 H   0  0  0  0  0  0  0  0  0  0  0  0
    6.9884   22.8525   39.2565 H   0  0  0  0  0  0  0  0  0  0  0  0
    8.5628   20.2884   38.2146 H   0  0  0  0  0  0  0  0  0  0  0  0
    7.1318   23.4216   35.8342 H   0  0  0  0  0  0  0  0  0  0  0  0
    7.1987   23.7188   37.6295 H   0  0  0  0  0  0  0  0  0  0  0  0
    8.5248   25.3111   36.2059 H   0  0  0  0  0  0  0  0  0  0  0  0
    9.4256   24.4303   37.5269 H   0  0  0  0  0  0  0  0  0  0  0  0
    9.4438   23.8961   34.5964 H   0  0  0  0  0  0  0  0  0  0  0  0
   10.7704   24.5398   35.6820 H   0  0  0  0  0  0  0  0  0  0  0  0
    8.5533   21.5777   35.3009 H   0  0  0  0  0  0  0  0  0  0  0  0
    9.9461   19.6021   36.9229 H   0  0  0  0  0  0  0  0  0  0  0  0
    9.0270   19.4208   35.4530 H   0  0  0  0  0  0  0  0  0  0  0  0
   12.0048   19.9801   35.7436 H   0  0  0  0  0  0  0  0  0  0  0  0
   11.1604   19.5789   34.2331 H   0  0  0  0  0  0  0  0  0  0  0  0
   10.7777   21.7533   33.7148 H   0  0  0  0  0  0  0  0  0  0  0  0
   10.4841   22.4171   38.0491 H   0  0  0  0  0  0  0  0  0  0  0  0
   11.8687   21.5839   37.2645 H   0  0  0  0  0  0  0  0  0  0  0  0
   11.7831   23.3781   37.2645 H   0  0  0  0  0  0  0  0  0  0  0  0
    9.0264   19.8663   40.0200 H   0  0  0  0  0  0  0  0  0  0  0  0
    8.5696   18.1444   40.6955 H   0  0  0  0  0  0  0  0  0  0  0  0
   13.0915   22.5159   35.3505 H   0  0  0  0  0  0  0  0  0  0  0  0
   12.1481   24.2996   33.9705 H   0  0  0  0  0  0  0  0  0  0  0  0
   13.2495   23.5345   32.7754 H   0  0  0  0  0  0  0  0  0  0  0  0
   11.5005   23.1253   32.7754 H   0  0  0  0  0  0  0  0  0  0  0  0
   13.2122   20.7642   32.9238 H   0  0  0  0  0  0  0  0  0  0  0  0
   14.5328   21.8767   33.4558 H   0  0  0  0  0  0  0  0  0  0  0  0
   15.2486   20.1980   34.8737 H   0  0  0  0  0  0  0  0  0  0  0  0
   13.7640   20.4758   35.8381 H   0  0  0  0  0  0  0  0  0  0  0  0
   12.9384   18.4596   35.2055 H   0  0  0  0  0  0  0  0  0  0  0  0
   13.1122   18.9391   33.4576 H   0  0  0  0  0  0  0  0  0  0  0  0
   16.3358   18.5237   35.5158 H   0  0  0  0  0  0  0  0  0  0  0  0
   16.9016   17.7964   33.9739 H   0  0  0  0  0  0  0  0  0  0  0  0
   16.1440   19.4251   33.9739 H   0  0  0  0  0  0  0  0  0  0  0  0
   14.6224   17.0621   36.2544 H   0  0  0  0  0  0  0  0  0  0  0  0
   13.5550   16.2191   35.0811 H   0  0  0  0  0  0  0  0  0  0  0  0
   15.3219   15.8956   35.0811 H   0  0  0  0  0  0  0  0  0  0  0  0
    6.3676   17.3218   42.3100 H   0  0  0  0  0  0  0  0  0  0  0  0
  5  1  1  0
 27  2  1  6
  3  4  1  0
  3 12  1  0
  3 30  1  0
  4  5  1  0
  5  6  1  0
  6  7  1  0
  7  8  2  3
  7 12  1  0
  8  9  1  0
  9 10  2  3
 10 11  1  0
 10 16  1  0
 11 13  1  0
 12 21  2  0
 13 14  1  0
 14 15  1  0
 15 16  1  0
 15 19  1  0
 15 20  1  1
 16 17  1  0
 17 18  1  0
 19 18  1  0
 19 22  1  0
 22 23  1  0
 22 24  1  0
 24 25  1  0
 25 26  1  0
 26 27  1  0
 27 28  1  0
 27 29  1  0
  1 31  1  0
  2 32  1  0
  3 33  1  6
  4 34  1  0
  4 35  1  0
  5 36  1  1
  6 37  1  0
  6 38  1  0
  8 39  1  0
  9 40  1  0
 11 41  1  0
 11 42  1  0
 13 43  1  0
 13 44  1  0
 14 45  1  0
 14 46  1  0
 16 47  1  6
 17 48  1  0
 17 49  1  0
 18 50  1  0
 18 51  1  0
 19 52  1  6
 20 53  1  0
 20 54  1  0
 20 55  1  0
 21 56  1  0
 21 57  1  0
 22 58  1  1
 23 59  1  0
 23 60  1  0
 23 61  1  0
 24 62  1  0
 24 63  1  0
 25 64  1  0
 25 65  1  0
 26 66  1  0
 26 67  1  0
 28 68  1  0
 28 69  1  0
 28 70  1  0
 29 71  1  0
 29 72  1  0
 29 73  1  0
 30 74  1  0
M  END
>  <filename_input>  (19) 
7QPP_VDX_docked.sdf

>  <pdb_id>  (19) 
7QPP_VDX

>  <pose_rank>  (19) 
18

>  <num_atoms_heavy>  (19) 
30

>  <num_torsions>  (19) 
6

>  <pose>  (19) 
[8.04580588600879, 21.253045199738626, 38.103772011775405, 0.019642689496453074, -2.5272349250928348, 2.1588510001927967, -0.5778576715186873, 1.2394764766684205, 1.6993119171911943, -1.000899432499238, -0.819343127957646, -1.1046517298402998]

>  <energy>  (19) 
-416.1944209778092

>  <inter_energy>  (19) 
-434.0602799353191

>  <intra_energy>  (19) 
47.56687551431422

>  <rmsd>  (19) 
9.18068

>  <sdf_rank>  (19) 
0

$$$$

     RDKit          3D

 74 76  0  0  0  0  0  0  0  0999 V2000
    6.8237   28.2857   25.4646 O   0  0  0  0  0  0  0  0  0  0  0  0
   12.0248   18.5858   34.4020 O   0  0  0  0  0  0  0  0  0  0  0  0
    9.2110   26.6141   25.1944 C   0  0  1  0  0  0  0  0  0  0  0  0
    8.0142   26.5759   24.2387 C   0  0  0  0  0  0  0  0  0  0  0  0
    6.7713   26.9462   24.9205 C   0  0  1  0  0  0  0  0  0  0  0  0
    6.5160   25.9859   26.1272 C   0  0  0  0  0  0  0  0  0  0  0  0
    7.6486   25.8924   27.0882 C   0  0  0  0  0  0  0  0  0  0  0  0
    7.4746   25.7335   28.4294 C   0  0  0  0  0  0  0  0  0  0  0  0
    8.5696   25.7121   29.4716 C   0  0  0  0  0  0  0  0  0  0  0  0
    8.2632   25.7922   30.7805 C   0  0  0  0  0  0  0  0  0  0  0  0
    6.8898   25.6861   31.3963 C   0  0  0  0  0  0  0  0  0  0  0  0
    9.0418   25.7469   26.3952 C   0  0  0  0  0  0  0  0  0  0  0  0
    6.7267   24.4497   32.2512 C   0  0  0  0  0  0  0  0  0  0  0  0
    7.8073   24.2611   33.1996 C   0  0  0  0  0  0  0  0  0  0  0  0
    9.2411   24.3065   32.5546 C   0  0  1  0  0  0  0  0  0  0  0  0
    9.3775   25.4572   31.7031 C   0  0  1  0  0  0  0  0  0  0  0  0
   10.8533   25.7331   31.4228 C   0  0  0  0  0  0  0  0  0  0  0  0
   11.5771   24.9146   32.6178 C   0  0  0  0  0  0  0  0  0  0  0  0
   10.5293   24.4709   33.5129 C   0  0  2  0  0  0  0  0  0  0  0  0
    9.3579   23.0815   31.6172 C   0  0  0  0  0  0  0  0  0  0  0  0
    9.9149   24.8146   26.8164 C   0  0  0  0  0  0  0  0  0  0  0  0
   10.8183   23.2330   34.4272 C   0  0  2  0  0  0  0  0  0  0  0  0
   10.3409   23.6530   35.8274 C   0  0  0  0  0  0  0  0  0  0  0  0
   12.2658   22.7586   34.5201 C   0  0  0  0  0  0  0  0  0  0  0  0
   12.3468   21.3185   35.1734 C   0  0  0  0  0  0  0  0  0  0  0  0
   13.4782   20.5225   34.4894 C   0  0  0  0  0  0  0  0  0  0  0  0
   13.3309   18.9942   34.6770 C   0  0  2  0  0  0  0  0  0  0  0  0
   14.2629   18.2279   33.7353 C   0  0  0  0  0  0  0  0  0  0  0  0
   13.6493   18.6539   36.1191 C   0  0  0  0  0  0  0  0  0  0  0  0
   10.4397   26.3164   24.5392 O   0  0  0  0  0  0  0  0  0  0  0  0
    6.8220   28.2404   26.4535 H   0  0  0  0  0  0  0  0  0  0  0  0
   11.5406   18.4343   35.2521 H   0  0  0  0  0  0  0  0  0  0  0  0
    9.2516   27.6544   25.5496 H   0  0  0  0  0  0  0  0  0  0  0  0
    8.1930   27.2808   23.4134 H   0  0  0  0  0  0  0  0  0  0  0  0
    7.9075   25.5488   23.8597 H   0  0  0  0  0  0  0  0  0  0  0  0
    5.9739   26.8811   24.1656 H   0  0  0  0  0  0  0  0  0  0  0  0
    5.6310   26.3460   26.6722 H   0  0  0  0  0  0  0  0  0  0  0  0
    6.3789   24.9797   25.7043 H   0  0  0  0  0  0  0  0  0  0  0  0
    6.4420   25.6092   28.7876 H   0  0  0  0  0  0  0  0  0  0  0  0
    9.6212   25.6308   29.1593 H   0  0  0  0  0  0  0  0  0  0  0  0
    6.7162   26.5729   32.0236 H   0  0  0  0  0  0  0  0  0  0  0  0
    6.1617   25.6198   30.5744 H   0  0  0  0  0  0  0  0  0  0  0  0
    5.7828   24.5335   32.8097 H   0  0  0  0  0  0  0  0  0  0  0  0
    6.7325   23.5826   31.5743 H   0  0  0  0  0  0  0  0  0  0  0  0
    7.7441   25.0552   33.9581 H   0  0  0  0  0  0  0  0  0  0  0  0
    7.6829   23.2552   33.6271 H   0  0  0  0  0  0  0  0  0  0  0  0
    9.0907   26.3917   32.2076 H   0  0  0  0  0  0  0  0  0  0  0  0
   11.1520   25.3490   30.4363 H   0  0  0  0  0  0  0  0  0  0  0  0
   11.1091   26.8026   31.3972 H   0  0  0  0  0  0  0  0  0  0  0  0
   12.1191   24.0487   32.2100 H   0  0  0  0  0  0  0  0  0  0  0  0
   12.3063   25.5472   33.1452 H   0  0  0  0  0  0  0  0  0  0  0  0
   10.3895   25.2152   34.3107 H   0  0  0  0  0  0  0  0  0  0  0  0
    9.4452   22.1655   32.2200 H   0  0  0  0  0  0  0  0  0  0  0  0
    8.4617   23.0187   30.9825 H   0  0  0  0  0  0  0  0  0  0  0  0
   10.2498   23.1892   30.9825 H   0  0  0  0  0  0  0  0  0  0  0  0
    9.6967   24.2244   27.7186 H   0  0  0  0  0  0  0  0  0  0  0  0
   10.8473   24.6424   26.2587 H   0  0  0  0  0  0  0  0  0  0  0  0
   10.2989   22.3708   33.9834 H   0  0  0  0  0  0  0  0  0  0  0  0
   10.9360   23.1293   36.5901 H   0  0  0  0  0  0  0  0  0  0  0  0
   10.4660   24.7393   35.9469 H   0  0  0  0  0  0  0  0  0  0  0  0
    9.2794   23.3908   35.9469 H   0  0  0  0  0  0  0  0  0  0  0  0
   12.6980   22.7204   33.5092 H   0  0  0  0  0  0  0  0  0  0  0  0
   12.8271   23.4633   35.1512 H   0  0  0  0  0  0  0  0  0  0  0  0
   12.5591   21.4122   36.2487 H   0  0  0  0  0  0  0  0  0  0  0  0
   11.3889   20.7943   35.0402 H   0  0  0  0  0  0  0  0  0  0  0  0
   13.4657   20.7477   33.4128 H   0  0  0  0  0  0  0  0  0  0  0  0
   14.4267   20.8246   34.9574 H   0  0  0  0  0  0  0  0  0  0  0  0
   14.9791   17.6391   34.3273 H   0  0  0  0  0  0  0  0  0  0  0  0
   13.6694   17.5532   33.1009 H   0  0  0  0  0  0  0  0  0  0  0  0
   14.8101   18.9407   33.1009 H   0  0  0  0  0  0  0  0  0  0  0  0
   13.0520   19.2922   36.7869 H   0  0  0  0  0  0  0  0  0  0  0  0
   13.4077   17.5976   36.3086 H   0  0  0  0  0  0  0  0  0  0  0  0
   14.7192   18.8250   36.3086 H   0  0  0  0  0  0  0  0  0  0  0  0
   11.1418   26.1463   25.2161 H   0  0  0  0  0  0  0  0  0  0  0  0
  5  1  1  0
 27  2  1  6
  3  4  1  0
  3 12  1  0
  3 30  1  0
  4  5  1  0
  5  6  1  0
  6  7  1  0
  7  8  2  3
  7 12  1  0
  8  9  1  0
  9 10  2  3
 10 11  1  0
 10 16  1  0
 11 13  1  0
 12 21  2  0
 13 14  1  0
 14 15  1  0
 15 16  1  0
 15 19  1  0
 15 20  1  6
 16 17  1  0
 17 18  1  0
 19 18  1  0
 19 22  1  0
 22 23  1  0
 22 24  1  0
 24 25  1  0
 25 26  1  0
 26 27  1  0
 27 28  1  0
 27 29  1  0
  1 31  1  0
  2 32  1  0
  3 33  1  1
  4 34  1  0
  4 35  1  0
  5 36  1  6
  6 37  1  0
  6 38  1  0
  8 39  1  0
  9 40  1  0
 11 41  1  0
 11 42  1  0
 13 43  1  0
 13 44  1  0
 14 45  1  0
 14 46  1  0
 16 47  1  1
 17 48  1  0
 17 49  1  0
 18 50  1  0
 18 51  1  0
 19 52  1  1
 20 53  1  0
 20 54  1  0
 20 55  1  0
 21 56  1  0
 21 57  1  0
 22 58  1  6
 23 59  1  0
 23 60  1  0
 23 61  1  0
 24 62  1  0
 24 63  1  0
 25 64  1  0
 25 65  1  0
 26 66  1  0
 26 67  1  0
 28 68  1  0
 28 69  1  0
 28 70  1  0
 29 71  1  0
 29 72  1  0
 29 73  1  0
 30 74  1  0
M  END
>  <filename_input>  (20) 
7QPP_VDX_docked.sdf

>  <pdb_id>  (20) 
7QPP_VDX

>  <pose_rank>  (20) 
19

>  <num_atoms_heavy>  (20) 
30

>  <num_torsions>  (20) 
6

>  <pose>  (20) 
[8.569579810977023, 25.712115761749892, 29.471578400370976, 0.928985552618637, 1.7043889775992946, 1.1926881411082875, 5.896109479347802, 0.8838015319408515, 0.027171894006990813, -0.4308013827112711, 0.5358720750886619, 1.8619396184786436]

>  <energy>  (20) 
-324.5118110922171

>  <inter_energy>  (20) 
-316.0284253392259

>  <intra_energy>  (20) 
0.29586796312117736

>  <rmsd>  (20) 
9.86348

>  <sdf_rank>  (20) 
0

$$$$

     RDKit          3D

 74 76  0  0  0  0  0  0  0  0999 V2000
   12.5188   17.6984   35.0726 O   0  0  0  0  0  0  0  0  0  0  0  0
    3.4219   24.1671   32.9031 O   0  0  0  0  0  0  0  0  0  0  0  0
   14.4160   19.3256   33.5496 C   0  0  1  0  0  0  0  0  0  0  0  0
   14.8057   18.1223   34.4141 C   0  0  0  0  0  0  0  0  0  0  0  0
   13.8714   17.9365   35.5273 C   0  0  1  0  0  0  0  0  0  0  0  0
   13.8238   19.2273   36.4074 C   0  0  0  0  0  0  0  0  0  0  0  0
   13.5200   20.4741   35.6536 C   0  0  0  0  0  0  0  0  0  0  0  0
   12.7894   21.4986   36.1741 C   0  0  0  0  0  0  0  0  0  0  0  0
   12.3734   22.7550   35.4434 C   0  0  0  0  0  0  0  0  0  0  0  0
   11.8385   22.6778   34.2099 C   0  0  0  0  0  0  0  0  0  0  0  0
   11.3798   21.4283   33.4992 C   0  0  0  0  0  0  0  0  0  0  0  0
   14.3165   20.6010   34.3149 C   0  0  0  0  0  0  0  0  0  0  0  0
    9.8837   21.3951   33.2827 C   0  0  0  0  0  0  0  0  0  0  0  0
    9.3598   22.6188   32.7077 C   0  0  0  0  0  0  0  0  0  0  0  0
    9.7814   23.9219   33.4809 C   0  0  1  0  0  0  0  0  0  0  0  0
   11.1978   23.9282   33.7290 C   0  0  1  0  0  0  0  0  0  0  0  0
   11.6640   25.3383   34.0848 C   0  0  0  0  0  0  0  0  0  0  0  0
   10.4451   26.2433   33.5216 C   0  0  0  0  0  0  0  0  0  0  0  0
    9.5811   25.3572   32.7704 C   0  0  2  0  0  0  0  0  0  0  0  0
    9.1168   23.8586   34.8764 C   0  0  0  0  0  0  0  0  0  0  0  0
   14.9391   21.7516   34.0025 C   0  0  0  0  0  0  0  0  0  0  0  0
    8.0860   25.7794   32.5743 C   0  0  2  0  0  0  0  0  0  0  0  0
    7.5823   26.1251   33.9856 C   0  0  0  0  0  0  0  0  0  0  0  0
    7.1471   24.7492   31.9529 C   0  0  0  0  0  0  0  0  0  0  0  0
    5.6605   25.2927   31.9123 C   0  0  0  0  0  0  0  0  0  0  0  0
    5.2409   25.7073   33.3384 C   0  0  0  0  0  0  0  0  0  0  0  0
    3.8077   25.2487   33.6964 C   0  0  2  0  0  0  0  0  0  0  0  0
    3.7166   24.8056   35.1585 C   0  0  0  0  0  0  0  0  0  0  0  0
    2.8562   26.3998   33.4384 C   0  0  0  0  0  0  0  0  0  0  0  0
   15.2756   19.4892   32.4263 O   0  0  0  0  0  0  0  0  0  0  0  0
   11.9213   17.5933   35.8549 H   0  0  0  0  0  0  0  0  0  0  0  0
    3.1525   23.4117   33.4835 H   0  0  0  0  0  0  0  0  0  0  0  0
   13.4067   19.0896   33.1814 H   0  0  0  0  0  0  0  0  0  0  0  0
   14.8020   17.2170   33.7893 H   0  0  0  0  0  0  0  0  0  0  0  0
   15.8071   18.3061   34.8306 H   0  0  0  0  0  0  0  0  0  0  0  0
   14.2338   17.0650   36.0923 H   0  0  0  0  0  0  0  0  0  0  0  0
   13.0479   19.0918   37.1753 H   0  0  0  0  0  0  0  0  0  0  0  0
   14.8302   19.3548   36.8328 H   0  0  0  0  0  0  0  0  0  0  0  0
   12.4725   21.4031   37.2232 H   0  0  0  0  0  0  0  0  0  0  0  0
   12.5083   23.7365   35.9213 H   0  0  0  0  0  0  0  0  0  0  0  0
   11.8782   21.3776   32.5199 H   0  0  0  0  0  0  0  0  0  0  0  0
   11.6424   20.5697   34.1347 H   0  0  0  0  0  0  0  0  0  0  0  0
    9.6476   20.5617   32.6047 H   0  0  0  0  0  0  0  0  0  0  0  0
    9.4145   21.2722   34.2699 H   0  0  0  0  0  0  0  0  0  0  0  0
    9.7238   22.6979   31.6727 H   0  0  0  0  0  0  0  0  0  0  0  0
    8.2634   22.5542   32.7679 H   0  0  0  0  0  0  0  0  0  0  0  0
   11.7865   23.7457   32.8179 H   0  0  0  0  0  0  0  0  0  0  0  0
   11.7829   25.4585   35.1717 H   0  0  0  0  0  0  0  0  0  0  0  0
   12.6455   25.6020   33.6639 H   0  0  0  0  0  0  0  0  0  0  0  0
    9.8905   26.6946   34.3575 H   0  0  0  0  0  0  0  0  0  0  0  0
   10.8195   27.0612   32.8884 H   0  0  0  0  0  0  0  0  0  0  0  0
    9.8781   25.3668   31.7113 H   0  0  0  0  0  0  0  0  0  0  0  0
    9.8906   23.9323   35.6547 H   0  0  0  0  0  0  0  0  0  0  0  0
    8.4084   24.6933   34.9834 H   0  0  0  0  0  0  0  0  0  0  0  0
    8.5787   22.9051   34.9834 H   0  0  0  0  0  0  0  0  0  0  0  0
   14.8002   22.6413   34.6343 H   0  0  0  0  0  0  0  0  0  0  0  0
   15.5872   21.8029   33.1152 H   0  0  0  0  0  0  0  0  0  0  0  0
    8.0722   26.6039   31.8462 H   0  0  0  0  0  0  0  0  0  0  0  0
    8.2469   25.6690   34.7341 H   0  0  0  0  0  0  0  0  0  0  0  0
    7.5781   27.2174   34.1161 H   0  0  0  0  0  0  0  0  0  0  0  0
    6.5616   25.7363   34.1161 H   0  0  0  0  0  0  0  0  0  0  0  0
    7.4793   24.5315   30.9271 H   0  0  0  0  0  0  0  0  0  0  0  0
    7.1713   23.8363   32.5661 H   0  0  0  0  0  0  0  0  0  0  0  0
    5.6038   26.1637   31.2429 H   0  0  0  0  0  0  0  0  0  0  0  0
    4.9866   24.5075   31.5389 H   0  0  0  0  0  0  0  0  0  0  0  0
    5.9435   25.2587   34.0563 H   0  0  0  0  0  0  0  0  0  0  0  0
    5.2591   26.8062   33.3837 H   0  0  0  0  0  0  0  0  0  0  0  0
    3.8943   25.6699   35.8153 H   0  0  0  0  0  0  0  0  0  0  0  0
    2.7152   24.3951   35.3555 H   0  0  0  0  0  0  0  0  0  0  0  0
    4.4747   24.0333   35.3555 H   0  0  0  0  0  0  0  0  0  0  0  0
    2.5135   26.8144   34.3980 H   0  0  0  0  0  0  0  0  0  0  0  0
    3.3745   27.1825   32.8650 H   0  0  0  0  0  0  0  0  0  0  0  0
    1.9900   26.0381   32.8650 H   0  0  0  0  0  0  0  0  0  0  0  0
   16.1981   19.6648   32.7396 H   0  0  0  0  0  0  0  0  0  0  0  0
  5  1  1  0
 27  2  1  6
  3  4  1  0
  3 12  1  0
  3 30  1  0
  4  5  1  0
  5  6  1  0
  6  7  1  0
  7  8  2  3
  7 12  1  0
  8  9  1  0
  9 10  2  3
 10 11  1  0
 10 16  1  0
 11 13  1  0
 12 21  2  0
 13 14  1  0
 14 15  1  0
 15 16  1  0
 15 19  1  0
 15 20  1  1
 16 17  1  0
 17 18  1  0
 19 18  1  0
 19 22  1  0
 22 23  1  0
 22 24  1  0
 24 25  1  0
 25 26  1  0
 26 27  1  0
 27 28  1  0
 27 29  1  0
  1 31  1  0
  2 32  1  0
  3 33  1  6
  4 34  1  0
  4 35  1  0
  5 36  1  1
  6 37  1  0
  6 38  1  0
  8 39  1  0
  9 40  1  0
 11 41  1  0
 11 42  1  0
 13 43  1  0
 13 44  1  0
 14 45  1  0
 14 46  1  0
 16 47  1  6
 17 48  1  0
 17 49  1  0
 18 50  1  0
 18 51  1  0
 19 52  1  6
 20 53  1  0
 20 54  1  0
 20 55  1  0
 21 56  1  0
 21 57  1  0
 22 58  1  6
 23 59  1  0
 23 60  1  0
 23 61  1  0
 24 62  1  0
 24 63  1  0
 25 64  1  0
 25 65  1  0
 26 66  1  0
 26 67  1  0
 28 68  1  0
 28 69  1  0
 28 70  1  0
 29 71  1  0
 29 72  1  0
 29 73  1  0
 30 74  1  0
M  END
>  <filename_input>  (21) 
7QPP_VDX_docked.sdf

>  <pdb_id>  (21) 
7QPP_VDX

>  <pose_rank>  (21) 
20

>  <num_atoms_heavy>  (21) 
30

>  <num_torsions>  (21) 
6

>  <pose>  (21) 
[12.373428978740133, 22.75497667691287, 35.44338921140561, 4.499211908073326, -1.7883489726881412, 0.5316381389277333, -2.4975565729358404, 3.9586634993956635, -0.2826970433008581, -3.9023685041267084, 0.9343525333468998, 1.4341300766274734]

>  <energy>  (21) 
-560.7495207778504

>  <inter_energy>  (21) 
-701.2694288203279

>  <intra_energy>  (21) 
136.05035533357085

>  <rmsd>  (21) 
2.9241

>  <sdf_rank>  (21) 
0

$$$$

     RDKit          3D

 74 76  0  0  0  0  0  0  0  0999 V2000
   11.4669   20.1608   24.3093 O   0  0  0  0  0  0  0  0  0  0  0  0
    8.7844   24.4132   33.3456 O   0  0  0  0  0  0  0  0  0  0  0  0
   10.2355   18.5955   26.4541 C   0  0  1  0  0  0  0  0  0  0  0  0
    9.5159   19.0227   25.1708 C   0  0  0  0  0  0  0  0  0  0  0  0
   10.0631   20.2741   24.6402 C   0  0  1  0  0  0  0  0  0  0  0  0
    9.9491   21.4055   25.7127 C   0  0  0  0  0  0  0  0  0  0  0  0
   10.5575   21.0684   27.0285 C   0  0  0  0  0  0  0  0  0  0  0  0
   11.1793   21.9876   27.8176 C   0  0  0  0  0  0  0  0  0  0  0  0
   11.8885   21.7047   29.1224 C   0  0  0  0  0  0  0  0  0  0  0  0
   12.4887   22.7021   29.7995 C   0  0  0  0  0  0  0  0  0  0  0  0
   12.3683   24.1812   29.5267 C   0  0  0  0  0  0  0  0  0  0  0  0
   10.2035   19.6301   27.5270 C   0  0  0  0  0  0  0  0  0  0  0  0
   11.6620   24.9247   30.6379 C   0  0  0  0  0  0  0  0  0  0  0  0
   12.1811   24.6150   31.9559 C   0  0  0  0  0  0  0  0  0  0  0  0
   12.2499   23.0759   32.2722 C   0  0  1  0  0  0  0  0  0  0  0  0
   12.8780   22.3641   31.1921 C   0  0  1  0  0  0  0  0  0  0  0  0
   13.3216   20.9799   31.6609 C   0  0  0  0  0  0  0  0  0  0  0  0
   13.3321   21.1616   33.2698 C   0  0  0  0  0  0  0  0  0  0  0  0
   13.1240   22.5703   33.5313 C   0  0  2  0  0  0  0  0  0  0  0  0
   10.7939   22.5552   32.3199 C   0  0  0  0  0  0  0  0  0  0  0  0
    9.7921   19.4328   28.7922 C   0  0  0  0  0  0  0  0  0  0  0  0
   12.5464   22.9818   34.9274 C   0  0  2  0  0  0  0  0  0  0  0  0
   11.5969   21.8368   35.3178 C   0  0  0  0  0  0  0  0  0  0  0  0
   11.7859   24.3026   35.0045 C   0  0  0  0  0  0  0  0  0  0  0  0
   10.3023   24.0710   35.5069 C   0  0  0  0  0  0  0  0  0  0  0  0
    9.5329   25.4063   35.4250 C   0  0  0  0  0  0  0  0  0  0  0  0
    8.5288   25.4459   34.2491 C   0  0  2  0  0  0  0  0  0  0  0  0
    7.0896   25.2822   34.7435 C   0  0  0  0  0  0  0  0  0  0  0  0
    8.6865   26.7689   33.5267 C   0  0  0  0  0  0  0  0  0  0  0  0
    9.7608   17.3499   26.9546 O   0  0  0  0  0  0  0  0  0  0  0  0
   11.9999   20.1178   25.1425 H   0  0  0  0  0  0  0  0  0  0  0  0
    8.9899   23.5825   33.8434 H   0  0  0  0  0  0  0  0  0  0  0  0
   11.2870   18.4706   26.1563 H   0  0  0  0  0  0  0  0  0  0  0  0
    9.6335   18.2322   24.4149 H   0  0  0  0  0  0  0  0  0  0  0  0
    8.4537   19.1830   25.4074 H   0  0  0  0  0  0  0  0  0  0  0  0
    9.4837   20.5046   23.7341 H   0  0  0  0  0  0  0  0  0  0  0  0
   10.4510   22.3026   25.3212 H   0  0  0  0  0  0  0  0  0  0  0  0
    8.8751   21.5598   25.8935 H   0  0  0  0  0  0  0  0  0  0  0  0
   11.1643   23.0324   27.4738 H   0  0  0  0  0  0  0  0  0  0  0  0
   11.9143   20.6796   29.5206 H   0  0  0  0  0  0  0  0  0  0  0  0
   13.3784   24.6007   29.4095 H   0  0  0  0  0  0  0  0  0  0  0  0
   11.7684   24.3024   28.6127 H   0  0  0  0  0  0  0  0  0  0  0  0
   11.7759   26.0046   30.4627 H   0  0  0  0  0  0  0  0  0  0  0  0
   10.6079   24.6107   30.6211 H   0  0  0  0  0  0  0  0  0  0  0  0
   13.1970   25.0296   32.0335 H   0  0  0  0  0  0  0  0  0  0  0  0
   11.4854   25.0582   32.6837 H   0  0  0  0  0  0  0  0  0  0  0  0
   13.8470   22.7997   30.9069 H   0  0  0  0  0  0  0  0  0  0  0  0
   12.6066   20.2038   31.3503 H   0  0  0  0  0  0  0  0  0  0  0  0
   14.2865   20.6565   31.2432 H   0  0  0  0  0  0  0  0  0  0  0  0
   12.5243   20.5685   33.7235 H   0  0  0  0  0  0  0  0  0  0  0  0
   14.2833   20.8157   33.7007 H   0  0  0  0  0  0  0  0  0  0  0  0
   14.0977   23.0744   33.6191 H   0  0  0  0  0  0  0  0  0  0  0  0
   10.4790   22.4425   33.3678 H   0  0  0  0  0  0  0  0  0  0  0  0
   10.1313   23.2721   31.8129 H   0  0  0  0  0  0  0  0  0  0  0  0
   10.7362   21.5807   31.8129 H   0  0  0  0  0  0  0  0  0  0  0  0
    9.8071   20.2649   29.5115 H   0  0  0  0  0  0  0  0  0  0  0  0
    9.4405   18.4394   29.1077 H   0  0  0  0  0  0  0  0  0  0  0  0
   13.4017   23.1443   35.5997 H   0  0  0  0  0  0  0  0  0  0  0  0
   11.5386   21.7665   36.4140 H   0  0  0  0  0  0  0  0  0  0  0  0
   10.5951   22.0358   34.9093 H   0  0  0  0  0  0  0  0  0  0  0  0
   11.9778   20.8892   34.9093 H   0  0  0  0  0  0  0  0  0  0  0  0
   12.3025   24.9755   35.7048 H   0  0  0  0  0  0  0  0  0  0  0  0
   11.7514   24.7479   33.9992 H   0  0  0  0  0  0  0  0  0  0  0  0
    9.8096   23.3213   34.8703 H   0  0  0  0  0  0  0  0  0  0  0  0
   10.3126   23.7098   36.5458 H   0  0  0  0  0  0  0  0  0  0  0  0
    8.9800   25.5520   36.3648 H   0  0  0  0  0  0  0  0  0  0  0  0
   10.2706   26.2051   35.2589 H   0  0  0  0  0  0  0  0  0  0  0  0
    7.0777   25.2809   35.8434 H   0  0  0  0  0  0  0  0  0  0  0  0
    6.4769   26.1165   34.3711 H   0  0  0  0  0  0  0  0  0  0  0  0
    6.6799   24.3317   34.3711 H   0  0  0  0  0  0  0  0  0  0  0  0
    8.7831   27.5798   34.2637 H   0  0  0  0  0  0  0  0  0  0  0  0
    9.5872   26.7373   32.8961 H   0  0  0  0  0  0  0  0  0  0  0  0
    7.8036   26.9499   32.8961 H   0  0  0  0  0  0  0  0  0  0  0  0
    9.7676   17.3678   27.9444 H   0  0  0  0  0  0  0  0  0  0  0  0
  5  1  1  0
 27  2  1  6
  3  4  1  0
  3 12  1  0
  3 30  1  0
  4  5  1  0
  5  6  1  0
  6  7  1  0
  7  8  2  3
  7 12  1  0
  8  9  1  0
  9 10  2  3
 10 11  1  0
 10 16  1  0
 11 13  1  0
 12 21  2  0
 13 14  1  0
 14 15  1  0
 15 16  1  0
 15 19  1  0
 15 20  1  1
 16 17  1  0
 17 18  1  0
 19 18  1  0
 19 22  1  0
 22 23  1  0
 22 24  1  0
 24 25  1  0
 25 26  1  0
 26 27  1  0
 27 28  1  0
 27 29  1  0
  1 31  1  0
  2 32  1  0
  3 33  1  6
  4 34  1  0
  4 35  1  0
  5 36  1  6
  6 37  1  0
  6 38  1  0
  8 39  1  0
  9 40  1  0
 11 41  1  0
 11 42  1  0
 13 43  1  0
 13 44  1  0
 14 45  1  0
 14 46  1  0
 16 47  1  6
 17 48  1  0
 17 49  1  0
 18 50  1  0
 18 51  1  0
 19 52  1  6
 20 53  1  0
 20 54  1  0
 20 55  1  0
 21 56  1  0
 21 57  1  0
 22 58  1  1
 23 59  1  0
 23 60  1  0
 23 61  1  0
 24 62  1  0
 24 63  1  0
 25 64  1  0
 25 65  1  0
 26 66  1  0
 26 67  1  0
 28 68  1  0
 28 69  1  0
 28 70  1  0
 29 71  1  0
 29 72  1  0
 29 73  1  0
 30 74  1  0
M  END
>  <filename_input>  (22) 
7QPP_VDX_docked.sdf

>  <pdb_id>  (22) 
7QPP_VDX

>  <pose_rank>  (22) 
21

>  <num_atoms_heavy>  (22) 
30

>  <num_torsions>  (22) 
6

>  <pose>  (22) 
[11.888491752603667, 21.70466003962371, 29.1224335119079, 1.0685406461354867, 0.8876083213447533, -0.443058492913492, -0.19726175162391535, -20.873012067466966, -20.09724485196126, -37.39428351631448, -26.244914868546683, 0.7772743637114742]

>  <energy>  (22) 
-261.6154993443963

>  <inter_energy>  (22) 
-314.102502313297

>  <intra_energy>  (22) 
48.73451015634721

>  <rmsd>  (22) 
6.34821

>  <sdf_rank>  (22) 
0

$$$$

     RDKit          3D

 74 76  0  0  0  0  0  0  0  0999 V2000
    3.6736   16.3603   37.1097 O   0  0  0  0  0  0  0  0  0  0  0  0
    8.8046   24.2116   33.0311 O   0  0  0  0  0  0  0  0  0  0  0  0
    5.3738   17.7860   39.0184 C   0  0  1  0  0  0  0  0  0  0  0  0
    4.2979   16.7677   39.4092 C   0  0  0  0  0  0  0  0  0  0  0  0
    3.2101   16.7336   38.4283 C   0  0  1  0  0  0  0  0  0  0  0  0
    2.5701   18.1529   38.2891 C   0  0  0  0  0  0  0  0  0  0  0  0
    3.5410   19.2368   37.9770 C   0  0  0  0  0  0  0  0  0  0  0  0
    3.2376   20.3013   37.1838 C   0  0  0  0  0  0  0  0  0  0  0  0
    4.1923   21.3936   36.7583 C   0  0  0  0  0  0  0  0  0  0  0  0
    4.4412   21.6073   35.4522 C   0  0  0  0  0  0  0  0  0  0  0  0
    3.7006   21.0111   34.2806 C   0  0  0  0  0  0  0  0  0  0  0  0
    4.8463   19.1680   38.8338 C   0  0  0  0  0  0  0  0  0  0  0  0
    2.9365   22.0452   33.4849 C   0  0  0  0  0  0  0  0  0  0  0  0
    3.7321   23.2078   33.1415 C   0  0  0  0  0  0  0  0  0  0  0  0
    4.4567   23.8736   34.3684 C   0  0  1  0  0  0  0  0  0  0  0  0
    5.1423   22.8814   35.1516 C   0  0  1  0  0  0  0  0  0  0  0  0
    6.1674   23.5484   36.0664 C   0  0  0  0  0  0  0  0  0  0  0  0
    6.3519   24.9939   35.3605 C   0  0  0  0  0  0  0  0  0  0  0  0
    5.6422   24.9354   34.0999 C   0  0  2  0  0  0  0  0  0  0  0  0
    3.3554   24.4432   35.2937 C   0  0  0  0  0  0  0  0  0  0  0  0
    5.3269   20.2749   39.4279 C   0  0  0  0  0  0  0  0  0  0  0  0
    5.1707   26.2836   33.4580 C   0  0  2  0  0  0  0  0  0  0  0  0
    3.6645   26.0994   33.2082 C   0  0  0  0  0  0  0  0  0  0  0  0
    5.8403   26.7053   32.1531 C   0  0  0  0  0  0  0  0  0  0  0  0
    6.9884   25.6904   31.7543 C   0  0  0  0  0  0  0  0  0  0  0  0
    8.3562   26.3599   32.0045 C   0  0  0  0  0  0  0  0  0  0  0  0
    9.2699   25.5236   32.9309 C   0  0  2  0  0  0  0  0  0  0  0  0
   10.7016   25.4667   32.3926 C   0  0  0  0  0  0  0  0  0  0  0  0
    9.2548   26.1477   34.3119 C   0  0  0  0  0  0  0  0  0  0  0  0
    6.4709   17.7931   39.9261 O   0  0  0  0  0  0  0  0  0  0  0  0
    4.4419   15.7414   37.1930 H   0  0  0  0  0  0  0  0  0  0  0  0
    8.7170   23.9645   33.9858 H   0  0  0  0  0  0  0  0  0  0  0  0
    5.7381   17.4450   38.0381 H   0  0  0  0  0  0  0  0  0  0  0  0
    4.7558   15.7694   39.4702 H   0  0  0  0  0  0  0  0  0  0  0  0
    3.8774   17.0653   40.3811 H   0  0  0  0  0  0  0  0  0  0  0  0
    2.4876   15.9893   38.7944 H   0  0  0  0  0  0  0  0  0  0  0  0
    1.8240   18.1162   37.4816 H   0  0  0  0  0  0  0  0  0  0  0  0
    2.1309   18.3968   39.2677 H   0  0  0  0  0  0  0  0  0  0  0  0
    2.2023   20.3730   36.8191 H   0  0  0  0  0  0  0  0  0  0  0  0
    4.6857   22.0166   37.5189 H   0  0  0  0  0  0  0  0  0  0  0  0
    4.4284   20.5230   33.6158 H   0  0  0  0  0  0  0  0  0  0  0  0
    2.9693   20.2933   34.6807 H   0  0  0  0  0  0  0  0  0  0  0  0
    2.5818   21.5777   32.5546 H   0  0  0  0  0  0  0  0  0  0  0  0
    2.1062   22.3939   34.1166 H   0  0  0  0  0  0  0  0  0  0  0  0
    4.4971   22.9004   32.4134 H   0  0  0  0  0  0  0  0  0  0  0  0
    3.0384   23.9591   32.7361 H   0  0  0  0  0  0  0  0  0  0  0  0
    5.8006   22.2444   34.5428 H   0  0  0  0  0  0  0  0  0  0  0  0
    5.7827   23.6498   37.0919 H   0  0  0  0  0  0  0  0  0  0  0  0
    7.1044   22.9819   36.1724 H   0  0  0  0  0  0  0  0  0  0  0  0
    5.9280   25.7838   35.9978 H   0  0  0  0  0  0  0  0  0  0  0  0
    7.4161   25.2250   35.2048 H   0  0  0  0  0  0  0  0  0  0  0  0
    6.3350   24.6261   33.3034 H   0  0  0  0  0  0  0  0  0  0  0  0
    3.6454   24.2932   36.3441 H   0  0  0  0  0  0  0  0  0  0  0  0
    3.2315   25.5184   35.0974 H   0  0  0  0  0  0  0  0  0  0  0  0
    2.4064   23.9229   35.0974 H   0  0  0  0  0  0  0  0  0  0  0  0
    4.8655   21.2526   39.2248 H   0  0  0  0  0  0  0  0  0  0  0  0
    6.1813   20.2024   40.1168 H   0  0  0  0  0  0  0  0  0  0  0  0
    5.4451   27.0902   34.1538 H   0  0  0  0  0  0  0  0  0  0  0  0
    3.1382   26.0351   34.1720 H   0  0  0  0  0  0  0  0  0  0  0  0
    3.2800   26.9573   32.6370 H   0  0  0  0  0  0  0  0  0  0  0  0
    3.4980   25.1743   32.6370 H   0  0  0  0  0  0  0  0  0  0  0  0
    5.0863   26.7290   31.3526 H   0  0  0  0  0  0  0  0  0  0  0  0
    6.2844   27.7021   32.2918 H   0  0  0  0  0  0  0  0  0  0  0  0
    6.9055   24.7800   32.3661 H   0  0  0  0  0  0  0  0  0  0  0  0
    6.8945   25.4199   30.6923 H   0  0  0  0  0  0  0  0  0  0  0  0
    8.8639   26.4949   31.0380 H   0  0  0  0  0  0  0  0  0  0  0  0
    8.1687   27.3221   32.5035 H   0  0  0  0  0  0  0  0  0  0  0  0
   11.4090   25.4386   33.2345 H   0  0  0  0  0  0  0  0  0  0  0  0
   10.8266   24.5629   31.7782 H   0  0  0  0  0  0  0  0  0  0  0  0
   10.8980   26.3578   31.7782 H   0  0  0  0  0  0  0  0  0  0  0  0
    9.2740   25.3539   35.0732 H   0  0  0  0  0  0  0  0  0  0  0  0
   10.1376   26.7928   34.4324 H   0  0  0  0  0  0  0  0  0  0  0  0
    8.3418   26.7493   34.4324 H   0  0  0  0  0  0  0  0  0  0  0  0
    6.1302   17.7909   40.8556 H   0  0  0  0  0  0  0  0  0  0  0  0
  5  1  1  0
 27  2  1  1
  3  4  1  0
  3 12  1  0
  3 30  1  0
  4  5  1  0
  5  6  1  0
  6  7  1  0
  7  8  2  3
  7 12  1  0
  8  9  1  0
  9 10  2  3
 10 11  1  0
 10 16  1  0
 11 13  1  0
 12 21  2  0
 13 14  1  0
 14 15  1  0
 15 16  1  0
 15 19  1  0
 15 20  1  1
 16 17  1  0
 17 18  1  0
 19 18  1  0
 19 22  1  0
 22 23  1  0
 22 24  1  0
 24 25  1  0
 25 26  1  0
 26 27  1  0
 27 28  1  0
 27 29  1  0
  1 31  1  0
  2 32  1  0
  3 33  1  6
  4 34  1  0
  4 35  1  0
  5 36  1  1
  6 37  1  0
  6 38  1  0
  8 39  1  0
  9 40  1  0
 11 41  1  0
 11 42  1  0
 13 43  1  0
 13 44  1  0
 14 45  1  0
 14 46  1  0
 16 47  1  6
 17 48  1  0
 17 49  1  0
 18 50  1  0
 18 51  1  0
 19 52  1  6
 20 53  1  0
 20 54  1  0
 20 55  1  0
 21 56  1  0
 21 57  1  0
 22 58  1  1
 23 59  1  0
 23 60  1  0
 23 61  1  0
 24 62  1  0
 24 63  1  0
 25 64  1  0
 25 65  1  0
 26 66  1  0
 26 67  1  0
 28 68  1  0
 28 69  1  0
 28 70  1  0
 29 71  1  0
 29 72  1  0
 29 73  1  0
 30 74  1  0
M  END
>  <filename_input>  (23) 
7QPP_VDX_docked.sdf

>  <pdb_id>  (23) 
7QPP_VDX

>  <pose_rank>  (23) 
22

>  <num_atoms_heavy>  (23) 
30

>  <num_torsions>  (23) 
6

>  <pose>  (23) 
[4.192253943307205, 21.393611640288015, 36.75830822678252, 2.670542405593827, -1.8362639723498875, 3.544752154425947, 11.346951189378276, 2.63974167246373, -3.4249815705476334, 1.4794553903446281, -0.7799287519454471, 1.318064618513224]

>  <energy>  (23) 
-208.79903616566358

>  <inter_energy>  (23) 
-279.37200015436787

>  <intra_energy>  (23) 
71.77948850499214

>  <rmsd>  (23) 
8.69766

>  <sdf_rank>  (23) 
0

$$$$

     RDKit          3D

 74 76  0  0  0  0  0  0  0  0999 V2000
    8.8351   24.2303   35.2869 O   0  0  0  0  0  0  0  0  0  0  0  0
   20.5837   28.2920   32.0203 O   0  0  0  0  0  0  0  0  0  0  0  0
   10.4292   22.9510   33.1920 C   0  0  1  0  0  0  0  0  0  0  0  0
    9.8598   22.2226   34.4136 C   0  0  0  0  0  0  0  0  0  0  0  0
    9.7258   23.1237   35.5611 C   0  0  1  0  0  0  0  0  0  0  0  0
   11.1141   23.7481   35.9165 C   0  0  0  0  0  0  0  0  0  0  0  0
   11.7928   24.4252   34.7781 C   0  0  0  0  0  0  0  0  0  0  0  0
   12.5612   25.5395   34.9268 C   0  0  0  0  0  0  0  0  0  0  0  0
   13.2124   26.3257   33.8117 C   0  0  0  0  0  0  0  0  0  0  0  0
   12.7251   27.5294   33.4549 C   0  0  0  0  0  0  0  0  0  0  0  0
   11.6882   28.3404   34.1923 C   0  0  0  0  0  0  0  0  0  0  0  0
   11.7438   23.6055   33.4484 C   0  0  0  0  0  0  0  0  0  0  0  0
   12.2475   29.6246   34.7618 C   0  0  0  0  0  0  0  0  0  0  0  0
   13.0134   30.3933   33.8001 C   0  0  0  0  0  0  0  0  0  0  0  0
   14.1393   29.5702   33.0729 C   0  0  1  0  0  0  0  0  0  0  0  0
   13.6165   28.3267   32.5747 C   0  0  1  0  0  0  0  0  0  0  0  0
   14.5627   27.7381   31.5304 C   0  0  0  0  0  0  0  0  0  0  0  0
   15.4429   29.0315   31.1129 C   0  0  0  0  0  0  0  0  0  0  0  0
   14.8231   30.1781   31.7433 C   0  0  2  0  0  0  0  0  0  0  0  0
   15.1834   29.1803   34.1456 C   0  0  0  0  0  0  0  0  0  0  0  0
   12.8574   23.4393   32.7126 C   0  0  0  0  0  0  0  0  0  0  0  0
   15.7058   31.4474   31.9917 C   0  0  2  0  0  0  0  0  0  0  0  0
   14.8519   32.6278   31.4992 C   0  0  0  0  0  0  0  0  0  0  0  0
   17.0646   31.4972   31.2988 C   0  0  0  0  0  0  0  0  0  0  0  0
   18.2235   31.0943   32.2997 C   0  0  0  0  0  0  0  0  0  0  0  0
   19.2852   30.2786   31.5324 C   0  0  0  0  0  0  0  0  0  0  0  0
   20.2964   29.5809   32.4722 C   0  0  2  0  0  0  0  0  0  0  0  0
   21.6163   30.3530   32.5373 C   0  0  0  0  0  0  0  0  0  0  0  0
   19.6798   29.4817   33.8532 C   0  0  0  0  0  0  0  0  0  0  0  0
   10.5115   22.1091   32.0466 O   0  0  0  0  0  0  0  0  0  0  0  0
    8.5210   24.6205   36.1408 H   0  0  0  0  0  0  0  0  0  0  0  0
   20.7174   27.6922   32.7965 H   0  0  0  0  0  0  0  0  0  0  0  0
    9.7047   23.7516   32.9815 H   0  0  0  0  0  0  0  0  0  0  0  0
    8.8691   21.8181   34.1591 H   0  0  0  0  0  0  0  0  0  0  0  0
   10.5536   21.4144   34.6883 H   0  0  0  0  0  0  0  0  0  0  0  0
    9.3235   22.5164   36.3852 H   0  0  0  0  0  0  0  0  0  0  0  0
   10.9640   24.4877   36.7168 H   0  0  0  0  0  0  0  0  0  0  0  0
   11.7650   22.9147   36.2195 H   0  0  0  0  0  0  0  0  0  0  0  0
   12.7232   25.9009   35.9531 H   0  0  0  0  0  0  0  0  0  0  0  0
   14.0880   25.9128   33.2895 H   0  0  0  0  0  0  0  0  0  0  0  0
   10.8751   28.5897   33.4946 H   0  0  0  0  0  0  0  0  0  0  0  0
   11.3290   27.7321   35.0355 H   0  0  0  0  0  0  0  0  0  0  0  0
   11.4098   30.2436   35.1156 H   0  0  0  0  0  0  0  0  0  0  0  0
   12.9322   29.3483   35.5772 H   0  0  0  0  0  0  0  0  0  0  0  0
   12.3216   30.7810   33.0378 H   0  0  0  0  0  0  0  0  0  0  0  0
   13.5173   31.1936   34.3618 H   0  0  0  0  0  0  0  0  0  0  0  0
   12.7085   28.4633   31.9689 H   0  0  0  0  0  0  0  0  0  0  0  0
   15.1934   26.9471   31.9622 H   0  0  0  0  0  0  0  0  0  0  0  0
   14.0489   27.2576   30.6847 H   0  0  0  0  0  0  0  0  0  0  0  0
   16.4775   28.9167   31.4685 H   0  0  0  0  0  0  0  0  0  0  0  0
   15.4763   29.1511   30.0200 H   0  0  0  0  0  0  0  0  0  0  0  0
   14.1016   30.6327   31.0485 H   0  0  0  0  0  0  0  0  0  0  0  0
   14.7572   29.3395   35.1471 H   0  0  0  0  0  0  0  0  0  0  0  0
   15.4536   28.1207   34.0263 H   0  0  0  0  0  0  0  0  0  0  0  0
   16.0820   29.8035   34.0263 H   0  0  0  0  0  0  0  0  0  0  0  0
   13.7815   23.9697   32.9859 H   0  0  0  0  0  0  0  0  0  0  0  0
   12.8440   22.7731   31.8374 H   0  0  0  0  0  0  0  0  0  0  0  0
   15.9675   31.4593   33.0601 H   0  0  0  0  0  0  0  0  0  0  0  0
   14.4537   33.1784   32.3642 H   0  0  0  0  0  0  0  0  0  0  0  0
   15.4734   33.3011   30.8905 H   0  0  0  0  0  0  0  0  0  0  0  0
   14.0179   32.2483   30.8905 H   0  0  0  0  0  0  0  0  0  0  0  0
   17.0621   30.7975   30.4501 H   0  0  0  0  0  0  0  0  0  0  0  0
   17.2435   32.5246   30.9488 H   0  0  0  0  0  0  0  0  0  0  0  0
   18.6847   32.0023   32.7155 H   0  0  0  0  0  0  0  0  0  0  0  0
   17.8124   30.4907   33.1224 H   0  0  0  0  0  0  0  0  0  0  0  0
   18.7738   29.5107   30.9334 H   0  0  0  0  0  0  0  0  0  0  0  0
   19.8491   30.9796   30.8995 H   0  0  0  0  0  0  0  0  0  0  0  0
   21.8945   30.5157   33.5891 H   0  0  0  0  0  0  0  0  0  0  0  0
   22.4051   29.7739   32.0349 H   0  0  0  0  0  0  0  0  0  0  0  0
   21.4981   31.3244   32.0349 H   0  0  0  0  0  0  0  0  0  0  0  0
   20.4636   29.6078   34.6146 H   0  0  0  0  0  0  0  0  0  0  0  0
   18.9215   30.2693   33.9736 H   0  0  0  0  0  0  0  0  0  0  0  0
   19.2069   28.4958   33.9736 H   0  0  0  0  0  0  0  0  0  0  0  0
   10.6036   21.1667   32.3357 H   0  0  0  0  0  0  0  0  0  0  0  0
  5  1  1  0
 27  2  1  6
  3  4  1  0
  3 12  1  0
  3 30  1  0
  4  5  1  0
  5  6  1  0
  6  7  1  0
  7  8  2  3
  7 12  1  0
  8  9  1  0
  9 10  2  3
 10 11  1  0
 10 16  1  0
 11 13  1  0
 12 21  2  0
 13 14  1  0
 14 15  1  0
 15 16  1  0
 15 19  1  0
 15 20  1  1
 16 17  1  0
 17 18  1  0
 19 18  1  0
 19 22  1  0
 22 23  1  0
 22 24  1  0
 24 25  1  0
 25 26  1  0
 26 27  1  0
 27 28  1  0
 27 29  1  0
  1 31  1  0
  2 32  1  0
  3 33  1  6
  4 34  1  0
  4 35  1  0
  5 36  1  1
  6 37  1  0
  6 38  1  0
  8 39  1  0
  9 40  1  0
 11 41  1  0
 11 42  1  0
 13 43  1  0
 13 44  1  0
 14 45  1  0
 14 46  1  0
 16 47  1  6
 17 48  1  0
 17 49  1  0
 18 50  1  0
 18 51  1  0
 19 52  1  6
 20 53  1  0
 20 54  1  0
 20 55  1  0
 21 56  1  0
 21 57  1  0
 22 58  1  1
 23 59  1  0
 23 60  1  0
 23 61  1  0
 24 62  1  0
 24 63  1  0
 25 64  1  0
 25 65  1  0
 26 66  1  0
 26 67  1  0
 28 68  1  0
 28 69  1  0
 28 70  1  0
 29 71  1  0
 29 72  1  0
 29 73  1  0
 30 74  1  0
M  END
>  <filename_input>  (24) 
7QPP_VDX_docked.sdf

>  <pdb_id>  (24) 
7QPP_VDX

>  <pose_rank>  (24) 
23

>  <num_atoms_heavy>  (24) 
30

>  <num_torsions>  (24) 
6

>  <pose>  (24) 
[13.212373802818979, 26.325735634036718, 33.81173753414592, 0.740995115452765, -3.301138384736184, 1.059738173141903, -1.4534023522482027, 0.8873683753542296, 1.1799301170023884, -0.44529729382265026, 0.3990996709437172, -2.816266637281758]

>  <energy>  (24) 
-273.299217993846

>  <inter_energy>  (24) 
-269.4601332604018

>  <intra_energy>  (24) 
0.9071406659844714

>  <rmsd>  (24) 
9.52023

>  <sdf_rank>  (24) 
0

$$$$

     RDKit          3D

 74 76  0  0  0  0  0  0  0  0999 V2000
   12.9195   20.6680   32.4703 O   0  0  0  0  0  0  0  0  0  0  0  0
    1.5378   24.9105   32.7030 O   0  0  0  0  0  0  0  0  0  0  0  0
   13.6596   23.4742   32.8493 C   0  0  1  0  0  0  0  0  0  0  0  0
   14.6355   22.2984   32.9606 C   0  0  0  0  0  0  0  0  0  0  0  0
   13.9549   21.0757   33.3948 C   0  0  1  0  0  0  0  0  0  0  0  0
   13.2533   21.3135   34.7712 C   0  0  0  0  0  0  0  0  0  0  0  0
   12.3298   22.4803   34.7967 C   0  0  0  0  0  0  0  0  0  0  0  0
   11.1797   22.5026   35.5256 C   0  0  0  0  0  0  0  0  0  0  0  0
   10.1560   23.6150   35.5370 C   0  0  0  0  0  0  0  0  0  0  0  0
    9.5803   24.0202   34.3890 C   0  0  0  0  0  0  0  0  0  0  0  0
    9.6669   23.3409   33.0445 C   0  0  0  0  0  0  0  0  0  0  0  0
   12.9201   23.7555   34.1128 C   0  0  0  0  0  0  0  0  0  0  0  0
    8.3379   22.7866   32.5833 C   0  0  0  0  0  0  0  0  0  0  0  0
    7.2514   23.7414   32.6854 C   0  0  0  0  0  0  0  0  0  0  0  0
    7.1146   24.4071   34.1038 C   0  0  1  0  0  0  0  0  0  0  0  0
    8.3892   24.8900   34.5621 C   0  0  1  0  0  0  0  0  0  0  0  0
    8.1958   25.8850   35.7045 C   0  0  0  0  0  0  0  0  0  0  0  0
    6.6433   26.3058   35.5193 C   0  0  0  0  0  0  0  0  0  0  0  0
    6.2015   25.7279   34.2676 C   0  0  2  0  0  0  0  0  0  0  0  0
    6.7145   23.2889   35.0952 C   0  0  0  0  0  0  0  0  0  0  0  0
   12.8434   24.9507   34.7250 C   0  0  0  0  0  0  0  0  0  0  0  0
    4.6674   25.4828   34.0713 C   0  0  2  0  0  0  0  0  0  0  0  0
    4.1584   25.0273   35.4491 C   0  0  0  0  0  0  0  0  0  0  0  0
    4.2553   24.4503   33.0260 C   0  0  0  0  0  0  0  0  0  0  0  0
    3.9460   25.1456   31.6374 C   0  0  0  0  0  0  0  0  0  0  0  0
    3.2047   26.4738   31.8979 C   0  0  0  0  0  0  0  0  0  0  0  0
    1.7732   26.2617   32.4442 C   0  0  2  0  0  0  0  0  0  0  0  0
    1.5603   27.0270   33.7525 C   0  0  0  0  0  0  0  0  0  0  0  0
    0.7842   26.7316   31.3964 C   0  0  0  0  0  0  0  0  0  0  0  0
   14.2880   24.6588   32.3704 O   0  0  0  0  0  0  0  0  0  0  0  0
   12.1284   20.3564   32.9774 H   0  0  0  0  0  0  0  0  0  0  0  0
    1.5119   24.7615   33.6814 H   0  0  0  0  0  0  0  0  0  0  0  0
   12.9171   23.1513   32.1048 H   0  0  0  0  0  0  0  0  0  0  0  0
   15.0958   22.1215   31.9773 H   0  0  0  0  0  0  0  0  0  0  0  0
   15.3993   22.5532   33.7100 H   0  0  0  0  0  0  0  0  0  0  0  0
   14.7289   20.2965   33.4554 H   0  0  0  0  0  0  0  0  0  0  0  0
   12.6757   20.4119   35.0233 H   0  0  0  0  0  0  0  0  0  0  0  0
   14.0511   21.5284   35.4975 H   0  0  0  0  0  0  0  0  0  0  0  0
   10.9769   21.6309   36.1650 H   0  0  0  0  0  0  0  0  0  0  0  0
    9.8801   24.0955   36.4873 H   0  0  0  0  0  0  0  0  0  0  0  0
   10.0194   24.0726   32.3027 H   0  0  0  0  0  0  0  0  0  0  0  0
   10.3628   22.4948   33.1444 H   0  0  0  0  0  0  0  0  0  0  0  0
    8.4342   22.4785   31.5317 H   0  0  0  0  0  0  0  0  0  0  0  0
    8.0913   21.9410   33.2423 H   0  0  0  0  0  0  0  0  0  0  0  0
    7.4197   24.5371   31.9448 H   0  0  0  0  0  0  0  0  0  0  0  0
    6.3204   23.1839   32.5049 H   0  0  0  0  0  0  0  0  0  0  0  0
    8.8893   25.5302   33.8205 H   0  0  0  0  0  0  0  0  0  0  0  0
    8.3683   25.4107   36.6819 H   0  0  0  0  0  0  0  0  0  0  0  0
    8.8937   26.7348   35.6774 H   0  0  0  0  0  0  0  0  0  0  0  0
    6.0419   25.9118   36.3518 H   0  0  0  0  0  0  0  0  0  0  0  0
    6.5282   27.3998   35.5123 H   0  0  0  0  0  0  0  0  0  0  0  0
    6.3398   26.4591   33.4574 H   0  0  0  0  0  0  0  0  0  0  0  0
    6.8436   23.6497   36.1263 H   0  0  0  0  0  0  0  0  0  0  0  0
    5.6621   23.0136   34.9321 H   0  0  0  0  0  0  0  0  0  0  0  0
    7.3534   22.4085   34.9321 H   0  0  0  0  0  0  0  0  0  0  0  0
   12.2698   25.0550   35.6578 H   0  0  0  0  0  0  0  0  0  0  0  0
   13.3541   25.8238   34.2928 H   0  0  0  0  0  0  0  0  0  0  0  0
    4.2339   26.4176   33.6863 H   0  0  0  0  0  0  0  0  0  0  0  0
    4.7294   25.5383   36.2383 H   0  0  0  0  0  0  0  0  0  0  0  0
    3.0919   25.2783   35.5473 H   0  0  0  0  0  0  0  0  0  0  0  0
    4.2896   23.9396   35.5473 H   0  0  0  0  0  0  0  0  0  0  0  0
    5.0729   23.7267   32.8923 H   0  0  0  0  0  0  0  0  0  0  0  0
    3.3449   23.9407   33.3747 H   0  0  0  0  0  0  0  0  0  0  0  0
    4.8884   25.3465   31.1070 H   0  0  0  0  0  0  0  0  0  0  0  0
    3.3200   24.4841   31.0205 H   0  0  0  0  0  0  0  0  0  0  0  0
    3.7783   27.0588   32.6319 H   0  0  0  0  0  0  0  0  0  0  0  0
    3.1184   27.0003   30.9359 H   0  0  0  0  0  0  0  0  0  0  0  0
    1.7469   26.3563   34.6042 H   0  0  0  0  0  0  0  0  0  0  0  0
    2.2557   27.8781   33.7967 H   0  0  0  0  0  0  0  0  0  0  0  0
    0.5252   27.3966   33.7967 H   0  0  0  0  0  0  0  0  0  0  0  0
   -0.1027   27.1530   31.8921 H   0  0  0  0  0  0  0  0  0  0  0  0
    1.2542   27.5027   30.7682 H   0  0  0  0  0  0  0  0  0  0  0  0
    0.4833   25.8802   30.7682 H   0  0  0  0  0  0  0  0  0  0  0  0
   14.5808   25.2106   33.1384 H   0  0  0  0  0  0  0  0  0  0  0  0
  5  1  1  0
 27  2  1  1
  3  4  1  0
  3 12  1  0
  3 30  1  0
  4  5  1  0
  5  6  1  0
  6  7  1  0
  7  8  2  3
  7 12  1  0
  8  9  1  0
  9 10  2  3
 10 11  1  0
 10 16  1  0
 11 13  1  0
 12 21  2  0
 13 14  1  0
 14 15  1  0
 15 16  1  0
 15 19  1  0
 15 20  1  1
 16 17  1  0
 17 18  1  0
 19 18  1  0
 19 22  1  0
 22 23  1  0
 22 24  1  0
 24 25  1  0
 25 26  1  0
 26 27  1  0
 27 28  1  0
 27 29  1  0
  1 31  1  0
  2 32  1  0
  3 33  1  6
  4 34  1  0
  4 35  1  0
  5 36  1  1
  6 37  1  0
  6 38  1  0
  8 39  1  0
  9 40  1  0
 11 41  1  0
 11 42  1  0
 13 43  1  0
 13 44  1  0
 14 45  1  0
 14 46  1  0
 16 47  1  6
 17 48  1  0
 17 49  1  0
 18 50  1  0
 18 51  1  0
 19 52  1  6
 20 53  1  0
 20 54  1  0
 20 55  1  0
 21 56  1  0
 21 57  1  0
 22 58  1  6
 23 59  1  0
 23 60  1  0
 23 61  1  0
 24 62  1  0
 24 63  1  0
 25 64  1  0
 25 65  1  0
 26 66  1  0
 26 67  1  0
 28 68  1  0
 28 69  1  0
 28 70  1  0
 29 71  1  0
 29 72  1  0
 29 73  1  0
 30 74  1  0
M  END
>  <filename_input>  (25) 
7QPP_VDX_docked.sdf

>  <pdb_id>  (25) 
7QPP_VDX

>  <pose_rank>  (25) 
24

>  <num_atoms_heavy>  (25) 
30

>  <num_torsions>  (25) 
6

>  <pose>  (25) 
[10.155978692822927, 23.61501279002212, 35.537049893678585, 4.78938124380538, -1.0368946664904266, -2.2564326131732253, -2.333483366992549, 4.19013057507002, 1.2697365323001624, -3.627357887653955, 2.121184749663904, 1.1422990963226909]

>  <energy>  (25) 
-374.8273008015494

>  <inter_energy>  (25) 
-452.0556617125162

>  <intra_energy>  (25) 
83.87330002065329

>  <rmsd>  (25) 
4.99415

>  <sdf_rank>  (25) 
0

$$$$

     RDKit          3D

 74 76  0  0  0  0  0  0  0  0999 V2000
   16.9220   17.6000   34.6210 O   0  0  0  0  0  0  0  0  0  0  0  0
    4.3950   26.3520   34.8710 O   0  0  0  0  0  0  0  0  0  0  0  0
   14.1420   17.4440   35.5230 C   0  0  1  0  0  0  0  0  0  0  0  0
   14.8140   16.4170   34.6060 C   0  0  0  0  0  0  0  0  0  0  0  0
   15.8750   17.0290   33.8020 C   0  0  1  0  0  0  0  0  0  0  0  0
   15.2910   18.2000   32.9470 C   0  0  0  0  0  0  0  0  0  0  0  0
   14.5530   19.2260   33.7330 C   0  0  0  0  0  0  0  0  0  0  0  0
   14.5610   20.5510   33.4190 C   0  0  0  0  0  0  0  0  0  0  0  0
   13.9050   21.6570   34.2140 C   0  0  0  0  0  0  0  0  0  0  0  0
   13.8090   22.8980   33.7000 C   0  0  0  0  0  0  0  0  0  0  0  0
   14.0960   23.3130   32.2780 C   0  0  0  0  0  0  0  0  0  0  0  0
   13.5800   18.6160   34.7930 C   0  0  0  0  0  0  0  0  0  0  0  0
   12.8580   23.7750   31.5430 C   0  0  0  0  0  0  0  0  0  0  0  0
   12.0770   24.7440   32.2870 C   0  0  0  0  0  0  0  0  0  0  0  0
   11.7190   24.2910   33.7500 C   0  0  1  0  0  0  0  0  0  0  0  0
   12.8890   23.8060   34.4310 C   0  0  1  0  0  0  0  0  0  0  0  0
   12.6440   23.7690   35.9380 C   0  0  0  0  0  0  0  0  0  0  0  0
   11.3760   24.7640   36.0930 C   0  0  0  0  0  0  0  0  0  0  0  0
   11.1760   25.3880   34.8020 C   0  0  2  0  0  0  0  0  0  0  0  0
   10.7740   23.0720   33.6310 C   0  0  0  0  0  0  0  0  0  0  0  0
   12.3190   19.0720   34.8980 C   0  0  0  0  0  0  0  0  0  0  0  0
    9.7540   25.9540   34.4710 C   0  0  2  0  0  0  0  0  0  0  0  0
    9.7150   27.3420   35.1320 C   0  0  0  0  0  0  0  0  0  0  0  0
    8.5530   25.1440   34.9510 C   0  0  0  0  0  0  0  0  0  0  0  0
    7.2170   25.6630   34.2780 C   0  0  0  0  0  0  0  0  0  0  0  0
    6.0890   24.6480   34.5590 C   0  0  0  0  0  0  0  0  0  0  0  0
    4.6920   25.1840   34.1670 C   0  0  2  0  0  0  0  0  0  0  0  0
    4.6240   25.5140   32.6740 C   0  0  0  0  0  0  0  0  0  0  0  0
    3.6580   24.1330   34.5180 C   0  0  0  0  0  0  0  0  0  0  0  0
   13.1480   16.8590   36.3580 O   0  0  0  0  0  0  0  0  0  0  0  0
   16.6969   17.4773   35.5772 H   0  0  0  0  0  0  0  0  0  0  0  0
    4.4408   26.1719   35.8434 H   0  0  0  0  0  0  0  0  0  0  0  0
   14.9537   17.8202   36.1630 H   0  0  0  0  0  0  0  0  0  0  0  0
   15.2493   15.6173   35.2232 H   0  0  0  0  0  0  0  0  0  0  0  0
   14.0522   16.0133   33.9228 H   0  0  0  0  0  0  0  0  0  0  0  0
   16.2886   16.2261   33.1741 H   0  0  0  0  0  0  0  0  0  0  0  0
   16.1246   18.6971   32.4293 H   0  0  0  0  0  0  0  0  0  0  0  0
   14.5633   17.7511   32.2550 H   0  0  0  0  0  0  0  0  0  0  0  0
   15.0940   20.8436   32.5023 H   0  0  0  0  0  0  0  0  0  0  0  0
   13.5043   21.4471   35.2167 H   0  0  0  0  0  0  0  0  0  0  0  0
   14.8246   24.1369   32.2923 H   0  0  0  0  0  0  0  0  0  0  0  0
   14.4875   22.4323   31.7478 H   0  0  0  0  0  0  0  0  0  0  0  0
   13.1672   24.2324   30.5916 H   0  0  0  0  0  0  0  0  0  0  0  0
   12.2210   22.8913   31.3906 H   0  0  0  0  0  0  0  0  0  0  0  0
   12.6522   25.6797   32.3459 H   0  0  0  0  0  0  0  0  0  0  0  0
   11.1248   24.8646   31.7497 H   0  0  0  0  0  0  0  0  0  0  0  0
   13.7297   24.5136   34.3814 H   0  0  0  0  0  0  0  0  0  0  0  0
   12.3991   22.7523   36.2790 H   0  0  0  0  0  0  0  0  0  0  0  0
   13.5173   24.0640   36.5383 H   0  0  0  0  0  0  0  0  0  0  0  0
   10.4803   24.1944   36.3815 H   0  0  0  0  0  0  0  0  0  0  0  0
   11.5581   25.5181   36.8728 H   0  0  0  0  0  0  0  0  0  0  0  0
   11.7266   26.3396   34.7658 H   0  0  0  0  0  0  0  0  0  0  0  0
   10.5011   22.7200   34.6368 H   0  0  0  0  0  0  0  0  0  0  0  0
    9.8646   23.3649   33.0858 H   0  0  0  0  0  0  0  0  0  0  0  0
   11.2843   22.2643   33.0858 H   0  0  0  0  0  0  0  0  0  0  0  0
   12.0006   19.9483   34.3142 H   0  0  0  0  0  0  0  0  0  0  0  0
   11.6061   18.5687   35.5677 H   0  0  0  0  0  0  0  0  0  0  0  0
    9.6443   25.9422   33.3766 H   0  0  0  0  0  0  0  0  0  0  0  0
    9.7182   27.2273   36.2260 H   0  0  0  0  0  0  0  0  0  0  0  0
   10.5972   27.9210   34.8214 H   0  0  0  0  0  0  0  0  0  0  0  0
    8.8016   27.8705   34.8214 H   0  0  0  0  0  0  0  0  0  0  0  0
    8.7025   24.0868   34.6865 H   0  0  0  0  0  0  0  0  0  0  0  0
    8.4649   25.2581   36.0415 H   0  0  0  0  0  0  0  0  0  0  0  0
    6.9467   26.6419   34.7007 H   0  0  0  0  0  0  0  0  0  0  0  0
    7.3625   25.7676   33.1927 H   0  0  0  0  0  0  0  0  0  0  0  0
    6.2886   23.7319   33.9837 H   0  0  0  0  0  0  0  0  0  0  0  0
    6.0786   24.4543   35.6418 H   0  0  0  0  0  0  0  0  0  0  0  0
    4.4035   26.5839   32.5447 H   0  0  0  0  0  0  0  0  0  0  0  0
    5.5895   25.2789   32.2022 H   0  0  0  0  0  0  0  0  0  0  0  0
    3.8301   24.9164   32.2022 H   0  0  0  0  0  0  0  0  0  0  0  0
    3.5763   24.0499   35.6118 H   0  0  0  0  0  0  0  0  0  0  0  0
    2.6834   24.4230   34.0985 H   0  0  0  0  0  0  0  0  0  0  0  0
    3.9639   23.1632   34.0985 H   0  0  0  0  0  0  0  0  0  0  0  0
   13.3894   17.0010   37.3076 H   0  0  0  0  0  0  0  0  0  0  0  0
  5  1  1  0
 27  2  1  1
  3  4  1  0
  3 12  1  0
  3 30  1  0
  4  5  1  0
  5  6  1  0
  6  7  1  0
  7  8  2  3
  7 12  1  0
  8  9  1  0
  9 10  2  3
 10 11  1  0
 10 16  1  0
 11 13  1  0
 12 21  2  0
 13 14  1  0
 14 15  1  0
 15 16  1  0
 15 19  1  0
 15 20  1  6
 16 17  1  0
 17 18  1  0
 19 18  1  0
 19 22  1  0
 22 23  1  0
 22 24  1  0
 24 25  1  0
 25 26  1  0
 26 27  1  0
 27 28  1  0
 27 29  1  0
  1 31  1  0
  2 32  1  0
  3 33  1  1
  4 34  1  0
  4 35  1  0
  5 36  1  6
  6 37  1  0
  6 38  1  0
  8 39  1  0
  9 40  1  0
 11 41  1  0
 11 42  1  0
 13 43  1  0
 13 44  1  0
 14 45  1  0
 14 46  1  0
 16 47  1  1
 17 48  1  0
 17 49  1  0
 18 50  1  0
 18 51  1  0
 19 52  1  1
 20 53  1  0
 20 54  1  0
 20 55  1  0
 21 56  1  0
 21 57  1  0
 22 58  1  6
 23 59  1  0
 23 60  1  0
 23 61  1  0
 24 62  1  0
 24 63  1  0
 25 64  1  0
 25 65  1  0
 26 66  1  0
 26 67  1  0
 28 68  1  0
 28 69  1  0
 28 70  1  0
 29 71  1  0
 29 72  1  0
 29 73  1  0
 30 74  1  0
M  END
>  <filename_input>  (26) 
7QPP_VDX_docked.sdf

>  <pdb_id>  (26) 
7QPP_VDX

>  <pose_rank>  (26) 
25

>  <num_atoms_heavy>  (26) 
30

>  <num_torsions>  (26) 
6

>  <pose>  (26) 
[13.905, 21.657, 34.214, 1e-06, 1e-06, 1e-06, 0.0, 0.0, 0.0, 0.0, 0.0, 0.0]

>  <energy>  (26) 
-1386.107908167009

>  <inter_energy>  (26) 
-1380.5308579905761

>  <intra_energy>  (26) 
7.1483830750735775

>  <rmsd>  (26) 
0.0

>  <sdf_rank>  (26) 
0

$$$$
