
     RDKit          3D

 29 30  0  0  0  0  0  0  0  0999 V2000
    7.4427    5.3555  -10.1408 N   0  0  0  0  0  0  0  0  0  0  0  0
    7.3149    6.0152  -11.3564 C   0  0  0  0  0  0  0  0  0  0  0  0
    8.4441    5.9992  -12.1255 N   0  0  0  0  0  0  0  0  0  0  0  0
    9.6354    5.3575  -11.8512 C   0  0  0  0  0  0  0  0  0  0  0  0
    9.6966    4.7350  -10.5570 C   0  0  0  0  0  0  0  0  0  0  0  0
    8.6026    4.7168   -9.7806 C   0  0  0  0  0  0  0  0  0  0  0  0
    6.2919    6.5802  -11.7325 O   0  0  0  0  0  0  0  0  0  0  0  0
   10.5721    5.4325  -12.6442 O   0  0  0  0  0  0  0  0  0  0  0  0
    6.2945    5.3246   -9.2127 C   0  0  1  0  0  0  0  0  0  0  0  0
    6.0239    3.9012   -8.7134 C   0  0  1  0  0  0  0  0  0  0  0  0
    6.1495    4.0199   -7.1772 C   0  0  1  0  0  0  0  0  0  0  0  0
    5.9677    5.5243   -6.9328 C   0  0  2  0  0  0  0  0  0  0  0  0
    4.7908    3.4536   -9.2353 O   0  0  0  0  0  0  0  0  0  0  0  0
    5.2437    3.1997   -6.4468 O   0  0  0  0  0  0  0  0  0  0  0  0
    6.6130    6.1118   -8.0811 O   0  0  0  0  0  0  0  0  0  0  0  0
    6.6176    6.0484   -5.6741 C   0  0  0  0  0  0  0  0  0  0  0  0
    5.9147    7.2213   -5.2030 O   0  0  0  0  0  0  0  0  0  0  0  0
    8.4018    6.5254  -13.0100 H   0  0  0  0  0  0  0  0  0  0  0  0
   10.6331    4.2772  -10.2059 H   0  0  0  0  0  0  0  0  0  0  0  0
    8.6365    4.1727   -8.8252 H   0  0  0  0  0  0  0  0  0  0  0  0
    5.4089    5.7014   -9.7456 H   0  0  0  0  0  0  0  0  0  0  0  0
    6.7217    3.1209   -9.0514 H   0  0  0  0  0  0  0  0  0  0  0  0
    7.1138    3.6424   -6.8063 H   0  0  0  0  0  0  0  0  0  0  0  0
    4.9025    5.7657   -6.8024 H   0  0  0  0  0  0  0  0  0  0  0  0
    4.1783    3.2313   -8.4900 H   0  0  0  0  0  0  0  0  0  0  0  0
    5.3887    3.3310   -5.4763 H   0  0  0  0  0  0  0  0  0  0  0  0
    6.5872    5.2698   -4.8977 H   0  0  0  0  0  0  0  0  0  0  0  0
    7.6612    6.3180   -5.8933 H   0  0  0  0  0  0  0  0  0  0  0  0
    5.9107    7.2281   -4.2130 H   0  0  0  0  0  0  0  0  0  0  0  0
  1  2  1  0
  1  6  1  0
  9  1  1  0
  2  3  1  0
  2  7  2  0
  3  4  1  0
  4  5  1  0
  4  8  2  0
  5  6  2  0
  9 10  1  0
  9 15  1  0
 10 11  1  0
 10 13  1  0
 11 12  1  0
 11 14  1  0
 12 15  1  0
 12 16  1  0
 16 17  1  0
  3 18  1  0
  5 19  1  0
  6 20  1  0
  9 21  1  6
 10 22  1  6
 11 23  1  1
 12 24  1  1
 13 25  1  0
 14 26  1  0
 16 27  1  0
 16 28  1  0
 17 29  1  0
M  END
>  <filename_input>  (1) 
7QTA_URI_docked.sdf

>  <pdb_id>  (1) 
7QTA_URI

>  <pose_rank>  (1) 
0

>  <num_atoms_heavy>  (1) 
17

>  <num_torsions>  (1) 
2

>  <pose>  (1) 
[6.294451046399343, 5.3246354177002075, -9.212736326490917, -0.01913855785685522, -0.014712989234728396, 0.079568418327429, 0.11149302305066125, -5.920519205565462]

>  <energy>  (1) 
-582.6460191925315

>  <inter_energy>  (1) 
-576.9278222459202

>  <intra_energy>  (1) 
0.7267442631942324

>  <rmsd>  (1) 
0.215548

>  <sdf_rank>  (1) 
0

$$$$

     RDKit          3D

 29 30  0  0  0  0  0  0  0  0999 V2000
    7.6826    4.1920  -10.8312 N   0  0  0  0  0  0  0  0  0  0  0  0
    8.0010    3.6861   -9.5775 C   0  0  0  0  0  0  0  0  0  0  0  0
    7.0374    3.8864   -8.6297 N   0  0  0  0  0  0  0  0  0  0  0  0
    5.7953    4.4625   -8.8068 C   0  0  0  0  0  0  0  0  0  0  0  0
    5.5637    4.9953  -10.1216 C   0  0  0  0  0  0  0  0  0  0  0  0
    6.4803    4.8039  -11.0824 C   0  0  0  0  0  0  0  0  0  0  0  0
    9.0522    3.1108   -9.3104 O   0  0  0  0  0  0  0  0  0  0  0  0
    5.0275    4.5762   -7.8531 O   0  0  0  0  0  0  0  0  0  0  0  0
    8.6567    4.0556  -11.9327 C   0  0  1  0  0  0  0  0  0  0  0  0
   10.0148    4.6526  -11.5482 C   0  0  1  0  0  0  0  0  0  0  0  0
   10.9938    3.4654  -11.6956 C   0  0  1  0  0  0  0  0  0  0  0  0
   10.2264    2.4984  -12.6078 C   0  0  2  0  0  0  0  0  0  0  0  0
   10.2561    5.7998  -12.3351 O   0  0  0  0  0  0  0  0  0  0  0  0
   12.2835    3.8219  -12.1820 O   0  0  0  0  0  0  0  0  0  0  0  0
    8.8603    2.6778  -12.1813 O   0  0  0  0  0  0  0  0  0  0  0  0
   10.6075    1.0445  -12.4592 C   0  0  0  0  0  0  0  0  0  0  0  0
    9.5814    0.3337  -11.7289 O   0  0  0  0  0  0  0  0  0  0  0  0
    7.2632    3.5719   -7.6752 H   0  0  0  0  0  0  0  0  0  0  0  0
    4.6422    5.5555  -10.3383 H   0  0  0  0  0  0  0  0  0  0  0  0
    6.2611    5.1485  -12.1038 H   0  0  0  0  0  0  0  0  0  0  0  0
    8.2596    4.5830  -12.8126 H   0  0  0  0  0  0  0  0  0  0  0  0
   10.1076    5.0436  -10.5243 H   0  0  0  0  0  0  0  0  0  0  0  0
   11.2563    3.0173  -10.7259 H   0  0  0  0  0  0  0  0  0  0  0  0
   10.4348    2.7212  -13.6646 H   0  0  0  0  0  0  0  0  0  0  0  0
   10.4196    6.5770  -11.7440 H   0  0  0  0  0  0  0  0  0  0  0  0
   12.8897    3.9896  -11.4175 H   0  0  0  0  0  0  0  0  0  0  0  0
   10.7220    0.5947  -13.4565 H   0  0  0  0  0  0  0  0  0  0  0  0
   11.5560    0.9757  -11.9063 H   0  0  0  0  0  0  0  0  0  0  0  0
    9.7347    0.4399  -10.7566 H   0  0  0  0  0  0  0  0  0  0  0  0
  1  2  1  0
  1  6  1  0
  9  1  1  0
  2  3  1  0
  2  7  2  0
  3  4  1  0
  4  5  1  0
  4  8  2  0
  5  6  2  0
  9 10  1  0
  9 15  1  0
 10 11  1  0
 10 13  1  0
 11 12  1  0
 11 14  1  0
 12 15  1  0
 12 16  1  0
 16 17  1  0
  3 18  1  0
  5 19  1  0
  6 20  1  0
  9 21  1  6
 10 22  1  1
 11 23  1  1
 12 24  1  6
 13 25  1  0
 14 26  1  0
 16 27  1  0
 16 28  1  0
 17 29  1  0
M  END
>  <filename_input>  (2) 
7QTA_URI_docked.sdf

>  <pdb_id>  (2) 
7QTA_URI

>  <pose_rank>  (2) 
1

>  <num_atoms_heavy>  (2) 
17

>  <num_torsions>  (2) 
2

>  <pose>  (2) 
[8.656693273306155, 4.055645573170574, -11.932668702803625, 20.302205007242407, -16.53545465218241, 22.35408860243135, 3.145205911863806, -1.417233825305068]

>  <energy>  (2) 
-114.05591012293274

>  <inter_energy>  (2) 
-132.76594078102445

>  <intra_energy>  (2) 
30.798712201608655

>  <rmsd>  (2) 
6.22729

>  <sdf_rank>  (2) 
0

$$$$

     RDKit          3D

 29 30  0  0  0  0  0  0  0  0999 V2000
    7.5584    4.9946  -10.1167 N   0  0  0  0  0  0  0  0  0  0  0  0
    8.7001    4.6492  -10.8282 C   0  0  0  0  0  0  0  0  0  0  0  0
    8.9121    5.4007  -11.9494 N   0  0  0  0  0  0  0  0  0  0  0  0
    8.1655    6.4747  -12.3915 C   0  0  0  0  0  0  0  0  0  0  0  0
    6.9805    6.7381  -11.6216 C   0  0  0  0  0  0  0  0  0  0  0  0
    6.7475    6.0312  -10.5054 C   0  0  0  0  0  0  0  0  0  0  0  0
    9.4681    3.7466  -10.5076 O   0  0  0  0  0  0  0  0  0  0  0  0
    8.4798    7.0588  -13.4268 O   0  0  0  0  0  0  0  0  0  0  0  0
    7.2117    4.2374   -8.8973 C   0  0  1  0  0  0  0  0  0  0  0  0
    6.3239    5.0672   -7.9635 C   0  0  1  0  0  0  0  0  0  0  0  0
    5.0468    4.2096   -7.8113 C   0  0  1  0  0  0  0  0  0  0  0  0
    5.5213    2.8101   -8.2264 C   0  0  2  0  0  0  0  0  0  0  0  0
    7.0467    5.3765   -6.7908 O   0  0  0  0  0  0  0  0  0  0  0  0
    4.4529    4.2613   -6.5184 O   0  0  0  0  0  0  0  0  0  0  0  0
    6.4677    3.0953   -9.2767 O   0  0  0  0  0  0  0  0  0  0  0  0
    4.4391    1.9039   -8.7640 C   0  0  0  0  0  0  0  0  0  0  0  0
    4.7218    0.5296   -8.4135 O   0  0  0  0  0  0  0  0  0  0  0  0
    9.7204    5.1363  -12.5304 H   0  0  0  0  0  0  0  0  0  0  0  0
    6.2703    7.5133  -11.9452 H   0  0  0  0  0  0  0  0  0  0  0  0
    5.8790    6.2907   -9.8822 H   0  0  0  0  0  0  0  0  0  0  0  0
    8.1445    3.9726   -8.3778 H   0  0  0  0  0  0  0  0  0  0  0  0
    6.0236    6.0614   -8.3260 H   0  0  0  0  0  0  0  0  0  0  0  0
    4.2184    4.5796   -8.4333 H   0  0  0  0  0  0  0  0  0  0  0  0
    5.9163    2.2652   -7.3563 H   0  0  0  0  0  0  0  0  0  0  0  0
    6.5028    5.1437   -5.9970 H   0  0  0  0  0  0  0  0  0  0  0  0
    5.1597    4.1998   -5.8279 H   0  0  0  0  0  0  0  0  0  0  0  0
    3.4709    2.1976   -8.3324 H   0  0  0  0  0  0  0  0  0  0  0  0
    4.4039    1.9960   -9.8596 H   0  0  0  0  0  0  0  0  0  0  0  0
    4.7408    0.4376   -7.4279 H   0  0  0  0  0  0  0  0  0  0  0  0
  1  2  1  0
  1  6  1  0
  9  1  1  0
  2  3  1  0
  2  7  2  0
  3  4  1  0
  4  5  1  0
  4  8  2  0
  5  6  2  0
  9 10  1  0
  9 15  1  0
 10 11  1  0
 10 13  1  0
 11 12  1  0
 11 14  1  0
 12 15  1  0
 12 16  1  0
 16 17  1  0
  3 18  1  0
  5 19  1  0
  6 20  1  0
  9 21  1  1
 10 22  1  6
 11 23  1  6
 12 24  1  1
 13 25  1  0
 14 26  1  0
 16 27  1  0
 16 28  1  0
 17 29  1  0
M  END
>  <filename_input>  (3) 
7QTA_URI_docked.sdf

>  <pdb_id>  (3) 
7QTA_URI

>  <pose_rank>  (3) 
2

>  <num_atoms_heavy>  (3) 
17

>  <num_torsions>  (3) 
2

>  <pose>  (3) 
[7.211674791048993, 4.237380073749665, -8.897277597859837, 1.670798555386655, 0.8534050760383822, -2.3074587245192926, -5.7252892989596775, 0.46426713043919804]

>  <energy>  (3) 
-575.3714940863504

>  <inter_energy>  (3) 
-549.709170497748

>  <intra_energy>  (3) 
0.7616675321092874

>  <rmsd>  (3) 
3.3344

>  <sdf_rank>  (3) 
0

$$$$

     RDKit          3D

 29 30  0  0  0  0  0  0  0  0999 V2000
    7.4437    4.2414   -8.5127 N   0  0  0  0  0  0  0  0  0  0  0  0
    6.7227    4.5305   -7.3614 C   0  0  0  0  0  0  0  0  0  0  0  0
    6.0737    3.4567   -6.8206 N   0  0  0  0  0  0  0  0  0  0  0  0
    6.1173    2.1464   -7.2537 C   0  0  0  0  0  0  0  0  0  0  0  0
    6.8509    1.9424   -8.4729 C   0  0  0  0  0  0  0  0  0  0  0  0
    7.5143    2.9699   -9.0242 C   0  0  0  0  0  0  0  0  0  0  0  0
    6.6490    5.6457   -6.8532 O   0  0  0  0  0  0  0  0  0  0  0  0
    5.4757    1.2805   -6.6618 O   0  0  0  0  0  0  0  0  0  0  0  0
    8.1698    5.3276   -9.2009 C   0  0  1  0  0  0  0  0  0  0  0  0
    9.1933    4.7672  -10.1944 C   0  0  1  0  0  0  0  0  0  0  0  0
    8.7617    5.3737  -11.5492 C   0  0  1  0  0  0  0  0  0  0  0  0
    7.9005    6.5732  -11.1299 C   0  0  2  0  0  0  0  0  0  0  0  0
   10.4951    5.0596   -9.7329 O   0  0  0  0  0  0  0  0  0  0  0  0
    9.8407    5.7086  -12.4155 O   0  0  0  0  0  0  0  0  0  0  0  0
    7.2367    6.0876   -9.9451 O   0  0  0  0  0  0  0  0  0  0  0  0
    6.8637    6.9982  -12.1426 C   0  0  0  0  0  0  0  0  0  0  0  0
    5.6441    6.2448  -11.9516 O   0  0  0  0  0  0  0  0  0  0  0  0
    5.4853    3.6461   -5.9967 H   0  0  0  0  0  0  0  0  0  0  0  0
    6.8682    0.9515   -8.9501 H   0  0  0  0  0  0  0  0  0  0  0  0
    8.1344    2.7875   -9.9142 H   0  0  0  0  0  0  0  0  0  0  0  0
    8.6878    5.9323   -8.4419 H   0  0  0  0  0  0  0  0  0  0  0  0
    9.2215    3.6732  -10.3062 H   0  0  0  0  0  0  0  0  0  0  0  0
    8.2124    4.6536  -12.1735 H   0  0  0  0  0  0  0  0  0  0  0  0
    8.5269    7.4679  -10.9991 H   0  0  0  0  0  0  0  0  0  0  0  0
   10.5018    5.0611   -8.7430 H   0  0  0  0  0  0  0  0  0  0  0  0
   10.6332    5.9545  -11.8755 H   0  0  0  0  0  0  0  0  0  0  0  0
    6.6521    8.0705  -12.0185 H   0  0  0  0  0  0  0  0  0  0  0  0
    7.2498    6.8074  -13.1548 H   0  0  0  0  0  0  0  0  0  0  0  0
    5.4706    6.1377  -10.9828 H   0  0  0  0  0  0  0  0  0  0  0  0
  1  2  1  0
  1  6  1  0
  9  1  1  0
  2  3  1  0
  2  7  2  0
  3  4  1  0
  4  5  1  0
  4  8  2  0
  5  6  2  0
  9 10  1  0
  9 15  1  0
 10 11  1  0
 10 13  1  0
 11 12  1  0
 11 14  1  0
 12 15  1  0
 12 16  1  0
 16 17  1  0
  3 18  1  0
  5 19  1  0
  6 20  1  0
  9 21  1  1
 10 22  1  6
 11 23  1  6
 12 24  1  1
 13 25  1  0
 14 26  1  0
 16 27  1  0
 16 28  1  0
 17 29  1  0
M  END
>  <filename_input>  (4) 
7QTA_URI_docked.sdf

>  <pdb_id>  (4) 
7QTA_URI

>  <pose_rank>  (4) 
3

>  <num_atoms_heavy>  (4) 
17

>  <num_torsions>  (4) 
2

>  <pose>  (4) 
[8.169802019033202, 5.327625604986028, -9.20092596261363, 0.9755290140647049, -2.8679733671032817, -0.7226614668759218, 0.6949279228703469, -1.7280806638229145]

>  <energy>  (4) 
-534.7926367438453

>  <inter_energy>  (4) 
-521.7879322117363

>  <intra_energy>  (4) 
1.761747634915682

>  <rmsd>  (4) 
5.38664

>  <sdf_rank>  (4) 
0

$$$$

     RDKit          3D

 29 30  0  0  0  0  0  0  0  0999 V2000
    6.9085    3.8968   -7.9363 N   0  0  0  0  0  0  0  0  0  0  0  0
    6.3432    2.7020   -7.5097 C   0  0  0  0  0  0  0  0  0  0  0  0
    6.1281    2.6320   -6.1622 N   0  0  0  0  0  0  0  0  0  0  0  0
    6.3482    3.6228   -5.2262 C   0  0  0  0  0  0  0  0  0  0  0  0
    6.9721    4.8093   -5.7450 C   0  0  0  0  0  0  0  0  0  0  0  0
    7.1843    4.9206   -7.0651 C   0  0  0  0  0  0  0  0  0  0  0  0
    6.0573    1.7678   -8.2532 O   0  0  0  0  0  0  0  0  0  0  0  0
    6.1055    3.4135   -4.0391 O   0  0  0  0  0  0  0  0  0  0  0  0
    7.2088    4.0812   -9.3704 C   0  0  1  0  0  0  0  0  0  0  0  0
    6.9161    5.5176   -9.8174 C   0  0  1  0  0  0  0  0  0  0  0  0
    8.2743    6.0184  -10.3597 C   0  0  1  0  0  0  0  0  0  0  0  0
    9.0344    4.7145  -10.6395 C   0  0  2  0  0  0  0  0  0  0  0  0
    5.8197    5.5117  -10.7069 O   0  0  0  0  0  0  0  0  0  0  0  0
    8.1762    6.8857  -11.4844 O   0  0  0  0  0  0  0  0  0  0  0  0
    8.5908    3.8538   -9.5706 O   0  0  0  0  0  0  0  0  0  0  0  0
   10.5395    4.8316  -10.5923 C   0  0  0  0  0  0  0  0  0  0  0  0
   11.0982    4.5928  -11.9047 O   0  0  0  0  0  0  0  0  0  0  0  0
    5.7601    1.7391   -5.8042 H   0  0  0  0  0  0  0  0  0  0  0  0
    7.2733    5.6197   -5.0649 H   0  0  0  0  0  0  0  0  0  0  0  0
    7.5920    5.8621   -7.4615 H   0  0  0  0  0  0  0  0  0  0  0  0
    6.5844    3.3828   -9.9469 H   0  0  0  0  0  0  0  0  0  0  0  0
    6.5840    6.2173   -9.0363 H   0  0  0  0  0  0  0  0  0  0  0  0
    8.7962    6.6692   -9.6428 H   0  0  0  0  0  0  0  0  0  0  0  0
    8.8271    4.3613  -11.6604 H   0  0  0  0  0  0  0  0  0  0  0  0
    4.9754    5.5072  -10.1899 H   0  0  0  0  0  0  0  0  0  0  0  0
    8.0706    7.8194  -11.1728 H   0  0  0  0  0  0  0  0  0  0  0  0
   10.8154    5.8426  -10.2580 H   0  0  0  0  0  0  0  0  0  0  0  0
   10.9369    4.0837   -9.8904 H   0  0  0  0  0  0  0  0  0  0  0  0
   12.0045    4.2054  -11.8120 H   0  0  0  0  0  0  0  0  0  0  0  0
  1  2  1  0
  1  6  1  0
  9  1  1  0
  2  3  1  0
  2  7  2  0
  3  4  1  0
  4  5  1  0
  4  8  2  0
  5  6  2  0
  9 10  1  0
  9 15  1  0
 10 11  1  0
 10 13  1  0
 11 12  1  0
 11 14  1  0
 12 15  1  0
 12 16  1  0
 16 17  1  0
  3 18  1  0
  5 19  1  0
  6 20  1  0
  9 21  1  6
 10 22  1  1
 11 23  1  1
 12 24  1  6
 13 25  1  0
 14 26  1  0
 16 27  1  0
 16 28  1  0
 17 29  1  0
M  END
>  <filename_input>  (5) 
7QTA_URI_docked.sdf

>  <pdb_id>  (5) 
7QTA_URI

>  <pose_rank>  (5) 
4

>  <num_atoms_heavy>  (5) 
17

>  <num_torsions>  (5) 
2

>  <pose>  (5) 
[7.208766041326067, 4.081214788118282, -9.370362011530457, -2.4316725604074483, -0.4131439773068264, -1.4906792560718367, 0.30476857418279835, 1.0377071327893368]

>  <energy>  (5) 
-391.89434719710704

>  <inter_energy>  (5) 
-393.59748888497626

>  <intra_energy>  (5) 
0.7700440126413272

>  <rmsd>  (5) 
5.64368

>  <sdf_rank>  (5) 
0

$$$$

     RDKit          3D

 29 30  0  0  0  0  0  0  0  0999 V2000
    6.7459    5.5004  -10.1769 N   0  0  0  0  0  0  0  0  0  0  0  0
    7.6436    4.4563  -10.3586 C   0  0  0  0  0  0  0  0  0  0  0  0
    8.7207    4.7709  -11.1382 N   0  0  0  0  0  0  0  0  0  0  0  0
    9.0264    6.0000  -11.6880 C   0  0  0  0  0  0  0  0  0  0  0  0
    8.0258    7.0121  -11.4866 C   0  0  0  0  0  0  0  0  0  0  0  0
    6.9623    6.7448  -10.7135 C   0  0  0  0  0  0  0  0  0  0  0  0
    7.5055    3.3343   -9.8799 O   0  0  0  0  0  0  0  0  0  0  0  0
   10.0386    6.1336  -12.3731 O   0  0  0  0  0  0  0  0  0  0  0  0
    5.5298    5.2740   -9.3704 C   0  0  1  0  0  0  0  0  0  0  0  0
    5.0065    3.8444   -9.5465 C   0  0  1  0  0  0  0  0  0  0  0  0
    5.0145    3.2699   -8.1114 C   0  0  1  0  0  0  0  0  0  0  0  0
    5.0397    4.5310   -7.2367 C   0  0  2  0  0  0  0  0  0  0  0  0
    3.7703    3.8840  -10.2274 O   0  0  0  0  0  0  0  0  0  0  0  0
    3.9359    2.3861   -7.8244 O   0  0  0  0  0  0  0  0  0  0  0  0
    5.8632    5.4324   -8.0045 O   0  0  0  0  0  0  0  0  0  0  0  0
    5.6489    4.3445   -5.8673 C   0  0  0  0  0  0  0  0  0  0  0  0
    5.2244    5.4089   -4.9850 O   0  0  0  0  0  0  0  0  0  0  0  0
    9.3790    4.0045  -11.3384 H   0  0  0  0  0  0  0  0  0  0  0  0
    8.1311    7.9982  -11.9626 H   0  0  0  0  0  0  0  0  0  0  0  0
    6.2412    7.5483  -10.5033 H   0  0  0  0  0  0  0  0  0  0  0  0
    4.7605    5.9894   -9.6965 H   0  0  0  0  0  0  0  0  0  0  0  0
    5.6061    3.1764  -10.1824 H   0  0  0  0  0  0  0  0  0  0  0  0
    5.8754    2.6096   -7.9303 H   0  0  0  0  0  0  0  0  0  0  0  0
    4.0155    4.8734   -7.0276 H   0  0  0  0  0  0  0  0  0  0  0  0
    3.0315    3.9077   -9.5689 H   0  0  0  0  0  0  0  0  0  0  0  0
    3.8314    2.3005   -6.8436 H   0  0  0  0  0  0  0  0  0  0  0  0
    5.3250    3.3781   -5.4536 H   0  0  0  0  0  0  0  0  0  0  0  0
    6.7452    4.3655   -5.9551 H   0  0  0  0  0  0  0  0  0  0  0  0
    5.3384    5.1229   -4.0441 H   0  0  0  0  0  0  0  0  0  0  0  0
  1  2  1  0
  1  6  1  0
  9  1  1  0
  2  3  1  0
  2  7  2  0
  3  4  1  0
  4  5  1  0
  4  8  2  0
  5  6  2  0
  9 10  1  0
  9 15  1  0
 10 11  1  0
 10 13  1  0
 11 12  1  0
 11 14  1  0
 12 15  1  0
 12 16  1  0
 16 17  1  0
  3 18  1  0
  5 19  1  0
  6 20  1  0
  9 21  1  6
 10 22  1  6
 11 23  1  6
 12 24  1  1
 13 25  1  0
 14 26  1  0
 16 27  1  0
 16 28  1  0
 17 29  1  0
M  END
>  <filename_input>  (6) 
7QTA_URI_docked.sdf

>  <pdb_id>  (6) 
7QTA_URI

>  <pose_rank>  (6) 
5

>  <num_atoms_heavy>  (6) 
17

>  <num_torsions>  (6) 
2

>  <pose>  (6) 
[5.529771970353763, 5.273962365931376, -9.370389142175213, -5.6048465507281815, 1.0826851898865246, 1.2259443089991309, -2.77292272667341, 0.2339017516144504]

>  <energy>  (6) 
-447.48846716113354

>  <inter_energy>  (6) 
-476.2259243293537

>  <intra_energy>  (6) 
41.79895746688165

>  <rmsd>  (6) 
1.93108

>  <sdf_rank>  (6) 
0

$$$$

     RDKit          3D

 29 30  0  0  0  0  0  0  0  0999 V2000
    7.6416    4.2457   -9.5080 N   0  0  0  0  0  0  0  0  0  0  0  0
    6.7696    4.9334  -10.3421 C   0  0  0  0  0  0  0  0  0  0  0  0
    7.3567    5.4573  -11.4591 N   0  0  0  0  0  0  0  0  0  0  0  0
    8.6709    5.3179  -11.8584 C   0  0  0  0  0  0  0  0  0  0  0  0
    9.5127    4.6285  -10.9190 C   0  0  0  0  0  0  0  0  0  0  0  0
    8.9687    4.0866   -9.8188 C   0  0  0  0  0  0  0  0  0  0  0  0
    5.5715    5.0817  -10.1189 O   0  0  0  0  0  0  0  0  0  0  0  0
    9.0591    5.8505  -12.8964 O   0  0  0  0  0  0  0  0  0  0  0  0
    7.1268    3.6533   -8.2571 C   0  0  1  0  0  0  0  0  0  0  0  0
    6.2614    2.4212   -8.5427 C   0  0  1  0  0  0  0  0  0  0  0  0
    6.9691    1.2864   -7.7673 C   0  0  1  0  0  0  0  0  0  0  0  0
    7.8217    2.0494   -6.7441 C   0  0  2  0  0  0  0  0  0  0  0  0
    4.9212    2.7073   -8.2031 O   0  0  0  0  0  0  0  0  0  0  0  0
    6.0880    0.3289   -7.1897 O   0  0  0  0  0  0  0  0  0  0  0  0
    8.2279    3.2208   -7.4810 O   0  0  0  0  0  0  0  0  0  0  0  0
    9.0497    1.3134   -6.2628 C   0  0  0  0  0  0  0  0  0  0  0  0
    9.7072    2.0713   -5.2212 O   0  0  0  0  0  0  0  0  0  0  0  0
    6.7501    6.0199  -12.0727 H   0  0  0  0  0  0  0  0  0  0  0  0
   10.5944    4.5458  -11.1008 H   0  0  0  0  0  0  0  0  0  0  0  0
    9.6067    3.4962   -9.1446 H   0  0  0  0  0  0  0  0  0  0  0  0
    6.5242    4.4127   -7.7373 H   0  0  0  0  0  0  0  0  0  0  0  0
    6.1785    2.1122   -9.5952 H   0  0  0  0  0  0  0  0  0  0  0  0
    7.5703    0.6421   -8.4256 H   0  0  0  0  0  0  0  0  0  0  0  0
    7.2451    2.2336   -5.8256 H   0  0  0  0  0  0  0  0  0  0  0  0
    4.8276    2.7273   -7.2177 H   0  0  0  0  0  0  0  0  0  0  0  0
    6.1402    0.3856   -6.2027 H   0  0  0  0  0  0  0  0  0  0  0  0
    8.7530    0.3313   -5.8660 H   0  0  0  0  0  0  0  0  0  0  0  0
    9.7443    1.1824   -7.1057 H   0  0  0  0  0  0  0  0  0  0  0  0
    9.4168    1.7365   -4.3360 H   0  0  0  0  0  0  0  0  0  0  0  0
  1  2  1  0
  1  6  1  0
  9  1  1  0
  2  3  1  0
  2  7  2  0
  3  4  1  0
  4  5  1  0
  4  8  2  0
  5  6  2  0
  9 10  1  0
  9 15  1  0
 10 11  1  0
 10 13  1  0
 11 12  1  0
 11 14  1  0
 12 15  1  0
 12 16  1  0
 16 17  1  0
  3 18  1  0
  5 19  1  0
  6 20  1  0
  9 21  1  1
 10 22  1  6
 11 23  1  6
 12 24  1  1
 13 25  1  0
 14 26  1  0
 16 27  1  0
 16 28  1  0
 17 29  1  0
M  END
>  <filename_input>  (7) 
7QTA_URI_docked.sdf

>  <pdb_id>  (7) 
7QTA_URI

>  <pose_rank>  (7) 
6

>  <num_atoms_heavy>  (7) 
17

>  <num_torsions>  (7) 
2

>  <pose>  (7) 
[7.126767321204434, 3.6532995918394064, -8.257093532316244, -3.901199465655251, -2.923953709620367, 1.8327297934877815, -0.909461849225498, -0.018623489677501742]

>  <energy>  (7) 
-416.80622291726365

>  <inter_energy>  (7) 
-423.2884860221433

>  <intra_energy>  (7) 
7.949065125457388

>  <rmsd>  (7) 
2.85975

>  <sdf_rank>  (7) 
0

$$$$

     RDKit          3D

 29 30  0  0  0  0  0  0  0  0999 V2000
    6.6734    5.1569   -6.2537 N   0  0  0  0  0  0  0  0  0  0  0  0
    7.7105    5.3989   -5.3622 C   0  0  0  0  0  0  0  0  0  0  0  0
    7.4788    6.4316   -4.4980 N   0  0  0  0  0  0  0  0  0  0  0  0
    6.3289    7.1873   -4.3850 C   0  0  0  0  0  0  0  0  0  0  0  0
    5.3233    6.8994   -5.3709 C   0  0  0  0  0  0  0  0  0  0  0  0
    5.5087    5.8821   -6.2257 C   0  0  0  0  0  0  0  0  0  0  0  0
    8.7600    4.7626   -5.3329 O   0  0  0  0  0  0  0  0  0  0  0  0
    6.2652    8.0913   -3.5539 O   0  0  0  0  0  0  0  0  0  0  0  0
    6.8175    4.0786   -7.2523 C   0  0  1  0  0  0  0  0  0  0  0  0
    6.3577    2.7318   -6.6836 C   0  0  1  0  0  0  0  0  0  0  0  0
    5.2333    2.2895   -7.6479 C   0  0  1  0  0  0  0  0  0  0  0  0
    5.5080    3.1284   -8.9037 C   0  0  2  0  0  0  0  0  0  0  0  0
    7.4754    1.8798   -6.5490 O   0  0  0  0  0  0  0  0  0  0  0  0
    5.1798    0.8871   -7.8871 O   0  0  0  0  0  0  0  0  0  0  0  0
    5.9811    4.3752   -8.3543 O   0  0  0  0  0  0  0  0  0  0  0  0
    4.2994    3.3929   -9.7701 C   0  0  0  0  0  0  0  0  0  0  0  0
    4.6136    4.3883  -10.7711 O   0  0  0  0  0  0  0  0  0  0  0  0
    8.2492    6.6737   -3.8587 H   0  0  0  0  0  0  0  0  0  0  0  0
    4.4088    7.5085   -5.4242 H   0  0  0  0  0  0  0  0  0  0  0  0
    4.7017    5.6211   -6.9261 H   0  0  0  0  0  0  0  0  0  0  0  0
    7.8772    4.0132   -7.5400 H   0  0  0  0  0  0  0  0  0  0  0  0
    5.9447    2.7441   -5.6642 H   0  0  0  0  0  0  0  0  0  0  0  0
    4.2311    2.4654   -7.2300 H   0  0  0  0  0  0  0  0  0  0  0  0
    6.2042    2.6011   -9.5724 H   0  0  0  0  0  0  0  0  0  0  0  0
    7.6658    1.7346   -5.5884 H   0  0  0  0  0  0  0  0  0  0  0  0
    5.1615    0.4054   -7.0224 H   0  0  0  0  0  0  0  0  0  0  0  0
    3.9971    2.4596  -10.2675 H   0  0  0  0  0  0  0  0  0  0  0  0
    3.4783    3.7638   -9.1390 H   0  0  0  0  0  0  0  0  0  0  0  0
    4.8797    5.2315  -10.3259 H   0  0  0  0  0  0  0  0  0  0  0  0
  1  2  1  0
  1  6  1  0
  9  1  1  0
  2  3  1  0
  2  7  2  0
  3  4  1  0
  4  5  1  0
  4  8  2  0
  5  6  2  0
  9 10  1  0
  9 15  1  0
 10 11  1  0
 10 13  1  0
 11 12  1  0
 11 14  1  0
 12 15  1  0
 12 16  1  0
 16 17  1  0
  3 18  1  0
  5 19  1  0
  6 20  1  0
  9 21  1  6
 10 22  1  1
 11 23  1  1
 12 24  1  6
 13 25  1  0
 14 26  1  0
 16 27  1  0
 16 28  1  0
 17 29  1  0
M  END
>  <filename_input>  (8) 
7QTA_URI_docked.sdf

>  <pdb_id>  (8) 
7QTA_URI

>  <pose_rank>  (8) 
7

>  <num_atoms_heavy>  (8) 
17

>  <num_torsions>  (8) 
2

>  <pose>  (8) 
[6.8174627607641884, 4.078581724679963, -7.252325731638987, 1.0587979207590565, 3.3624780491723656, -1.2419161254253215, -0.6499609213827172, -0.29575839836954726]

>  <energy>  (8) 
-471.65579812936136

>  <inter_energy>  (8) 
-455.5374457077637

>  <intra_energy>  (8) 
0.9444765908007234

>  <rmsd>  (8) 
5.61916

>  <sdf_rank>  (8) 
0

$$$$

     RDKit          3D

 29 30  0  0  0  0  0  0  0  0999 V2000
    7.1602    5.5569   -9.7754 N   0  0  0  0  0  0  0  0  0  0  0  0
    6.7637    6.0108  -11.0267 C   0  0  0  0  0  0  0  0  0  0  0  0
    7.7807    6.1204  -11.9326 N   0  0  0  0  0  0  0  0  0  0  0  0
    9.1047    5.7732  -11.7517 C   0  0  0  0  0  0  0  0  0  0  0  0
    9.4370    5.3524  -10.4180 C   0  0  0  0  0  0  0  0  0  0  0  0
    8.4623    5.2176   -9.5060 C   0  0  0  0  0  0  0  0  0  0  0  0
    5.6087    6.3038  -11.3221 O   0  0  0  0  0  0  0  0  0  0  0  0
    9.9127    5.9293  -12.6652 O   0  0  0  0  0  0  0  0  0  0  0  0
    6.1519    5.4189   -8.7054 C   0  0  1  0  0  0  0  0  0  0  0  0
    5.5583    4.0063   -8.6824 C   0  0  1  0  0  0  0  0  0  0  0  0
    5.8732    3.4977   -7.2569 C   0  0  1  0  0  0  0  0  0  0  0  0
    6.1351    4.7949   -6.4794 C   0  0  2  0  0  0  0  0  0  0  0  0
    4.2018    4.0673   -9.0692 O   0  0  0  0  0  0  0  0  0  0  0  0
    4.8608    2.6743   -6.6879 O   0  0  0  0  0  0  0  0  0  0  0  0
    6.7908    5.6249   -7.4599 O   0  0  0  0  0  0  0  0  0  0  0  0
    7.0325    4.6450   -5.2738 C   0  0  0  0  0  0  0  0  0  0  0  0
    7.0994    5.8927   -4.5456 O   0  0  0  0  0  0  0  0  0  0  0  0
    7.5314    6.5057  -12.8547 H   0  0  0  0  0  0  0  0  0  0  0  0
   10.4823    5.1426  -10.1472 H   0  0  0  0  0  0  0  0  0  0  0  0
    8.7149    4.8226   -8.5109 H   0  0  0  0  0  0  0  0  0  0  0  0
    5.3513    6.1507   -8.8883 H   0  0  0  0  0  0  0  0  0  0  0  0
    5.9772    3.2854   -9.3999 H   0  0  0  0  0  0  0  0  0  0  0  0
    6.7319    2.8103   -7.2387 H   0  0  0  0  0  0  0  0  0  0  0  0
    5.1959    5.1895   -6.0643 H   0  0  0  0  0  0  0  0  0  0  0  0
    3.6293    4.0931   -8.2620 H   0  0  0  0  0  0  0  0  0  0  0  0
    4.9155    2.7188   -5.7004 H   0  0  0  0  0  0  0  0  0  0  0  0
    6.6298    3.8609   -4.6158 H   0  0  0  0  0  0  0  0  0  0  0  0
    8.0432    4.3695   -5.6095 H   0  0  0  0  0  0  0  0  0  0  0  0
    7.0895    5.7081   -3.5730 H   0  0  0  0  0  0  0  0  0  0  0  0
  1  2  1  0
  1  6  1  0
  9  1  1  0
  2  3  1  0
  2  7  2  0
  3  4  1  0
  4  5  1  0
  4  8  2  0
  5  6  2  0
  9 10  1  0
  9 15  1  0
 10 11  1  0
 10 13  1  0
 11 12  1  0
 11 14  1  0
 12 15  1  0
 12 16  1  0
 16 17  1  0
  3 18  1  0
  5 19  1  0
  6 20  1  0
  9 21  1  6
 10 22  1  6
 11 23  1  6
 12 24  1  1
 13 25  1  0
 14 26  1  0
 16 27  1  0
 16 28  1  0
 17 29  1  0
M  END
>  <filename_input>  (9) 
7QTA_URI_docked.sdf

>  <pdb_id>  (9) 
7QTA_URI

>  <pose_rank>  (9) 
8

>  <num_atoms_heavy>  (9) 
17

>  <num_torsions>  (9) 
2

>  <pose>  (9) 
[6.151899577929679, 5.418932646576884, -8.70535616539866, -5.01506698258981, -1.8162313599022024, 2.426475288398052, -0.5697400685680939, -0.006137247635024191]

>  <energy>  (9) 
-557.8281636605426

>  <inter_energy>  (9) 
-552.3611594718785

>  <intra_energy>  (9) 
0.3003130308503077

>  <rmsd>  (9) 
0.837038

>  <sdf_rank>  (9) 
0

$$$$

     RDKit          3D

 29 30  0  0  0  0  0  0  0  0999 V2000
    8.7962    5.1270  -10.5315 N   0  0  0  0  0  0  0  0  0  0  0  0
    8.9283    5.7020  -11.7889 C   0  0  0  0  0  0  0  0  0  0  0  0
    7.8256    6.3899  -12.2106 N   0  0  0  0  0  0  0  0  0  0  0  0
    6.6601    6.6171  -11.5063 C   0  0  0  0  0  0  0  0  0  0  0  0
    6.5901    5.9533  -10.2332 C   0  0  0  0  0  0  0  0  0  0  0  0
    7.6591    5.2818   -9.7790 C   0  0  0  0  0  0  0  0  0  0  0  0
    9.9329    5.6114  -12.4888 O   0  0  0  0  0  0  0  0  0  0  0  0
    5.7457    7.2594  -12.0194 O   0  0  0  0  0  0  0  0  0  0  0  0
    9.9153    4.3386   -9.9777 C   0  0  1  0  0  0  0  0  0  0  0  0
    9.8664    4.3073   -8.4463 C   0  0  1  0  0  0  0  0  0  0  0  0
    9.7810    2.8006   -8.1114 C   0  0  1  0  0  0  0  0  0  0  0  0
   10.2940    2.1336   -9.3952 C   0  0  2  0  0  0  0  0  0  0  0  0
   10.9657    5.0292   -7.9329 O   0  0  0  0  0  0  0  0  0  0  0  0
   10.4871    2.4172   -6.9361 O   0  0  0  0  0  0  0  0  0  0  0  0
    9.7873    3.0034  -10.4281 O   0  0  0  0  0  0  0  0  0  0  0  0
    9.7854    0.7312   -9.6315 C   0  0  0  0  0  0  0  0  0  0  0  0
    8.3445    0.6981   -9.5124 O   0  0  0  0  0  0  0  0  0  0  0  0
    7.8688    6.7835  -13.1614 H   0  0  0  0  0  0  0  0  0  0  0  0
    5.6673    5.9955   -9.6361 H   0  0  0  0  0  0  0  0  0  0  0  0
    7.6230    4.8415   -8.7716 H   0  0  0  0  0  0  0  0  0  0  0  0
   10.8586    4.7996  -10.3057 H   0  0  0  0  0  0  0  0  0  0  0  0
    9.0105    4.8093   -7.9716 H   0  0  0  0  0  0  0  0  0  0  0  0
    8.7595    2.4881   -7.8489 H   0  0  0  0  0  0  0  0  0  0  0  0
   11.3871    2.0170   -9.3563 H   0  0  0  0  0  0  0  0  0  0  0  0
   10.9389    5.0116   -6.9434 H   0  0  0  0  0  0  0  0  0  0  0  0
    9.9737    2.6959   -6.1369 H   0  0  0  0  0  0  0  0  0  0  0  0
   10.0745    0.4048  -10.6414 H   0  0  0  0  0  0  0  0  0  0  0  0
   10.2243    0.0578   -8.8805 H   0  0  0  0  0  0  0  0  0  0  0  0
    8.0926    0.6923   -8.5549 H   0  0  0  0  0  0  0  0  0  0  0  0
  1  2  1  0
  1  6  1  0
  9  1  1  0
  2  3  1  0
  2  7  2  0
  3  4  1  0
  4  5  1  0
  4  8  2  0
  5  6  2  0
  9 10  1  0
  9 15  1  0
 10 11  1  0
 10 13  1  0
 11 12  1  0
 11 14  1  0
 12 15  1  0
 12 16  1  0
 16 17  1  0
  3 18  1  0
  5 19  1  0
  6 20  1  0
  9 21  1  1
 10 22  1  6
 11 23  1  1
 12 24  1  1
 13 25  1  0
 14 26  1  0
 16 27  1  0
 16 28  1  0
 17 29  1  0
M  END
>  <filename_input>  (10) 
7QTA_URI_docked.sdf

>  <pdb_id>  (10) 
7QTA_URI

>  <pose_rank>  (10) 
9

>  <num_atoms_heavy>  (10) 
17

>  <num_torsions>  (10) 
2

>  <pose>  (10) 
[9.91526986678511, 4.338562681662636, -9.977745494305944, -0.27237476292125484, -2.0209063034753973, 2.7212719130631986, 0.5372985363521773, -2.3601355558448107]

>  <energy>  (10) 
-450.5529840764775

>  <inter_energy>  (10) 
-439.2575229499025

>  <intra_energy>  (10) 
0.6977095903379759

>  <rmsd>  (10) 
4.71111

>  <sdf_rank>  (10) 
0

$$$$

     RDKit          3D

 29 30  0  0  0  0  0  0  0  0999 V2000
    4.8050    5.5554   -5.8897 N   0  0  0  0  0  0  0  0  0  0  0  0
    5.7334    6.0527   -4.9844 C   0  0  0  0  0  0  0  0  0  0  0  0
    5.1938    6.8196   -3.9906 N   0  0  0  0  0  0  0  0  0  0  0  0
    3.8569    7.0837   -3.7687 C   0  0  0  0  0  0  0  0  0  0  0  0
    2.9690    6.5666   -4.7739 C   0  0  0  0  0  0  0  0  0  0  0  0
    3.4606    5.7960   -5.7559 C   0  0  0  0  0  0  0  0  0  0  0  0
    6.9418    5.8455   -5.0487 O   0  0  0  0  0  0  0  0  0  0  0  0
    3.5183    7.7970   -2.8261 O   0  0  0  0  0  0  0  0  0  0  0  0
    5.2719    4.7303   -7.0219 C   0  0  1  0  0  0  0  0  0  0  0  0
    6.6032    5.2506   -7.5746 C   0  0  1  0  0  0  0  0  0  0  0  0
    7.5588    4.0441   -7.4298 C   0  0  1  0  0  0  0  0  0  0  0  0
    6.5952    2.8558   -7.3048 C   0  0  2  0  0  0  0  0  0  0  0  0
    6.3959    5.7677   -8.8719 O   0  0  0  0  0  0  0  0  0  0  0  0
    8.5073    3.9138   -8.4835 O   0  0  0  0  0  0  0  0  0  0  0  0
    5.4990    3.4149   -6.5527 O   0  0  0  0  0  0  0  0  0  0  0  0
    7.1491    1.6616   -6.5644 C   0  0  0  0  0  0  0  0  0  0  0  0
    7.8937    2.0976   -5.4038 O   0  0  0  0  0  0  0  0  0  0  0  0
    5.8596    7.2493   -3.3327 H   0  0  0  0  0  0  0  0  0  0  0  0
    1.8949    6.8010   -4.7382 H   0  0  0  0  0  0  0  0  0  0  0  0
    2.7640    5.3426   -6.4765 H   0  0  0  0  0  0  0  0  0  0  0  0
    4.5079    4.7639   -7.8125 H   0  0  0  0  0  0  0  0  0  0  0  0
    7.0536    6.1050   -7.0480 H   0  0  0  0  0  0  0  0  0  0  0  0
    8.2275    4.1424   -6.5619 H   0  0  0  0  0  0  0  0  0  0  0  0
    6.3446    2.4590   -8.2997 H   0  0  0  0  0  0  0  0  0  0  0  0
    6.0283    6.6846   -8.8069 H   0  0  0  0  0  0  0  0  0  0  0  0
    9.4115    3.7896   -8.1000 H   0  0  0  0  0  0  0  0  0  0  0  0
    6.3187    1.0160   -6.2424 H   0  0  0  0  0  0  0  0  0  0  0  0
    7.8201    1.1027   -7.2334 H   0  0  0  0  0  0  0  0  0  0  0  0
    7.4173    1.8186   -4.5821 H   0  0  0  0  0  0  0  0  0  0  0  0
  1  2  1  0
  1  6  1  0
  9  1  1  0
  2  3  1  0
  2  7  2  0
  3  4  1  0
  4  5  1  0
  4  8  2  0
  5  6  2  0
  9 10  1  0
  9 15  1  0
 10 11  1  0
 10 13  1  0
 11 12  1  0
 11 14  1  0
 12 15  1  0
 12 16  1  0
 16 17  1  0
  3 18  1  0
  5 19  1  0
  6 20  1  0
  9 21  1  6
 10 22  1  1
 11 23  1  1
 12 24  1  6
 13 25  1  0
 14 26  1  0
 16 27  1  0
 16 28  1  0
 17 29  1  0
M  END
>  <filename_input>  (11) 
7QTA_URI_docked.sdf

>  <pdb_id>  (11) 
7QTA_URI

>  <pose_rank>  (11) 
10

>  <num_atoms_heavy>  (11) 
17

>  <num_torsions>  (11) 
2

>  <pose>  (11) 
[5.27194876293373, 4.730250644865792, -7.021881085652261, 1.7331221261050016, -0.6717439627553081, 1.6162379399059983, -2.8324240764601027, 3.7614194966212207]

>  <energy>  (11) 
-313.68941219618824

>  <inter_energy>  (11) 
-353.5340865181429

>  <intra_energy>  (11) 
39.926299712643306

>  <rmsd>  (11) 
6.26268

>  <sdf_rank>  (11) 
0

$$$$

     RDKit          3D

 29 30  0  0  0  0  0  0  0  0999 V2000
    8.4289    3.2769   -6.3449 N   0  0  0  0  0  0  0  0  0  0  0  0
    7.7762    2.7635   -7.4583 C   0  0  0  0  0  0  0  0  0  0  0  0
    6.4157    2.8824   -7.4162 N   0  0  0  0  0  0  0  0  0  0  0  0
    5.6587    3.5006   -6.4411 C   0  0  0  0  0  0  0  0  0  0  0  0
    6.4080    3.9670   -5.3066 C   0  0  0  0  0  0  0  0  0  0  0  0
    7.7469    3.8816   -5.3191 C   0  0  0  0  0  0  0  0  0  0  0  0
    8.3437    2.2355   -8.4103 O   0  0  0  0  0  0  0  0  0  0  0  0
    4.4333    3.5298   -6.5389 O   0  0  0  0  0  0  0  0  0  0  0  0
    9.9007    3.1856   -6.2658 C   0  0  1  0  0  0  0  0  0  0  0  0
   10.5642    4.4602   -6.7983 C   0  0  1  0  0  0  0  0  0  0  0  0
   11.3996    4.9682   -5.6008 C   0  0  1  0  0  0  0  0  0  0  0  0
   11.5391    3.7164   -4.7236 C   0  0  2  0  0  0  0  0  0  0  0  0
   11.2522    4.1597   -7.9940 O   0  0  0  0  0  0  0  0  0  0  0  0
   12.6405    5.5667   -5.9597 O   0  0  0  0  0  0  0  0  0  0  0  0
   10.2682    3.0592   -4.9054 O   0  0  0  0  0  0  0  0  0  0  0  0
   11.7527    3.9892   -3.2535 C   0  0  0  0  0  0  0  0  0  0  0  0
   12.4261    2.8699   -2.6328 O   0  0  0  0  0  0  0  0  0  0  0  0
    5.8962    2.4636   -8.2008 H   0  0  0  0  0  0  0  0  0  0  0  0
    5.8878    4.3907   -4.4349 H   0  0  0  0  0  0  0  0  0  0  0  0
    8.3158    4.3097   -4.4807 H   0  0  0  0  0  0  0  0  0  0  0  0
   10.2264    2.3236   -6.8666 H   0  0  0  0  0  0  0  0  0  0  0  0
    9.8902    5.2717   -7.1101 H   0  0  0  0  0  0  0  0  0  0  0  0
   10.9126    5.8032   -5.0758 H   0  0  0  0  0  0  0  0  0  0  0  0
   12.4273    3.1385   -5.0185 H   0  0  0  0  0  0  0  0  0  0  0  0
   12.1374    3.7731   -7.7771 H   0  0  0  0  0  0  0  0  0  0  0  0
   13.1400    5.8076   -5.1396 H   0  0  0  0  0  0  0  0  0  0  0  0
   12.3676    4.8938   -3.1369 H   0  0  0  0  0  0  0  0  0  0  0  0
   10.7760    4.1354   -2.7689 H   0  0  0  0  0  0  0  0  0  0  0  0
   12.3733    2.9578   -1.6481 H   0  0  0  0  0  0  0  0  0  0  0  0
  1  2  1  0
  1  6  1  0
  9  1  1  0
  2  3  1  0
  2  7  2  0
  3  4  1  0
  4  5  1  0
  4  8  2  0
  5  6  2  0
  9 10  1  0
  9 15  1  0
 10 11  1  0
 10 13  1  0
 11 12  1  0
 11 14  1  0
 12 15  1  0
 12 16  1  0
 16 17  1  0
  3 18  1  0
  5 19  1  0
  6 20  1  0
  9 21  1  6
 10 22  1  6
 11 23  1  1
 12 24  1  6
 13 25  1  0
 14 26  1  0
 16 27  1  0
 16 28  1  0
 17 29  1  0
M  END
>  <filename_input>  (12) 
7QTA_URI_docked.sdf

>  <pdb_id>  (12) 
7QTA_URI

>  <pose_rank>  (12) 
11

>  <num_atoms_heavy>  (12) 
17

>  <num_torsions>  (12) 
2

>  <pose>  (12) 
[9.90066967880268, 3.1855585467861705, -6.2658124091441705, -1.0645393797577218, -0.7498352288260972, -3.088255486122971, -0.5350068747798047, 0.32352647773461773]

>  <energy>  (12) 
-245.41982939772393

>  <inter_energy>  (12) 
-242.10078712213982

>  <intra_energy>  (12) 
0.1365760662320596

>  <rmsd>  (12) 
6.21562

>  <sdf_rank>  (12) 
0

$$$$

     RDKit          3D

 29 30  0  0  0  0  0  0  0  0999 V2000
    5.5397    4.8172   -6.6201 N   0  0  0  0  0  0  0  0  0  0  0  0
    6.8088    4.5983   -6.1000 C   0  0  0  0  0  0  0  0  0  0  0  0
    7.6246    3.8536   -6.9042 N   0  0  0  0  0  0  0  0  0  0  0  0
    7.3427    3.3716   -8.1669 C   0  0  0  0  0  0  0  0  0  0  0  0
    5.9961    3.6068   -8.6113 C   0  0  0  0  0  0  0  0  0  0  0  0
    5.1713    4.3475   -7.8557 C   0  0  0  0  0  0  0  0  0  0  0  0
    7.1920    5.0176   -5.0116 O   0  0  0  0  0  0  0  0  0  0  0  0
    8.1824    2.7110   -8.7756 O   0  0  0  0  0  0  0  0  0  0  0  0
    4.5603    5.5908   -5.8307 C   0  0  1  0  0  0  0  0  0  0  0  0
    4.3998    5.0081   -4.4225 C   0  0  1  0  0  0  0  0  0  0  0  0
    4.7740    6.1847   -3.4922 C   0  0  1  0  0  0  0  0  0  0  0  0
    4.6093    7.4088   -4.4035 C   0  0  2  0  0  0  0  0  0  0  0  0
    3.1054    4.4592   -4.2929 O   0  0  0  0  0  0  0  0  0  0  0  0
    4.0146    6.2499   -2.2898 O   0  0  0  0  0  0  0  0  0  0  0  0
    5.0471    6.9112   -5.6844 O   0  0  0  0  0  0  0  0  0  0  0  0
    5.4482    8.6053   -4.0211 C   0  0  0  0  0  0  0  0  0  0  0  0
    6.5987    8.1811   -3.2543 O   0  0  0  0  0  0  0  0  0  0  0  0
    8.5551    3.6261   -6.5257 H   0  0  0  0  0  0  0  0  0  0  0  0
    5.6446    3.1828   -9.5635 H   0  0  0  0  0  0  0  0  0  0  0  0
    4.1680    4.5858   -8.2387 H   0  0  0  0  0  0  0  0  0  0  0  0
    3.5930    5.5596   -6.3535 H   0  0  0  0  0  0  0  0  0  0  0  0
    5.0457    4.1551   -4.1670 H   0  0  0  0  0  0  0  0  0  0  0  0
    5.7925    6.0898   -3.0876 H   0  0  0  0  0  0  0  0  0  0  0  0
    3.5761    7.7836   -4.3593 H   0  0  0  0  0  0  0  0  0  0  0  0
    2.8818    4.3644   -3.3332 H   0  0  0  0  0  0  0  0  0  0  0  0
    4.6240    6.1976   -1.5114 H   0  0  0  0  0  0  0  0  0  0  0  0
    5.7877    9.1180   -4.9331 H   0  0  0  0  0  0  0  0  0  0  0  0
    4.8413    9.2900   -3.4105 H   0  0  0  0  0  0  0  0  0  0  0  0
    6.3970    8.2555   -2.2880 H   0  0  0  0  0  0  0  0  0  0  0  0
  1  2  1  0
  1  6  1  0
  9  1  1  0
  2  3  1  0
  2  7  2  0
  3  4  1  0
  4  5  1  0
  4  8  2  0
  5  6  2  0
  9 10  1  0
  9 15  1  0
 10 11  1  0
 10 13  1  0
 11 12  1  0
 11 14  1  0
 12 15  1  0
 12 16  1  0
 16 17  1  0
  3 18  1  0
  5 19  1  0
  6 20  1  0
  9 21  1  6
 10 22  1  6
 11 23  1  1
 12 24  1  6
 13 25  1  0
 14 26  1  0
 16 27  1  0
 16 28  1  0
 17 29  1  0
M  END
>  <filename_input>  (13) 
7QTA_URI_docked.sdf

>  <pdb_id>  (13) 
7QTA_URI

>  <pose_rank>  (13) 
12

>  <num_atoms_heavy>  (13) 
17

>  <num_torsions>  (13) 
2

>  <pose>  (13) 
[4.560320045967469, 5.590809098329594, -5.8307173193245765, -0.829934440966248, 0.1819521699937196, 0.030964891493680372, 3.1764041322638707, -2.8330590827799993]

>  <energy>  (13) 
-356.9070474171757

>  <inter_energy>  (13) 
-372.89777126073324

>  <intra_energy>  (13) 
31.605535986333194

>  <rmsd>  (13) 
4.50664

>  <sdf_rank>  (13) 
0

$$$$

     RDKit          3D

 29 30  0  0  0  0  0  0  0  0999 V2000
    7.7392    5.0144   -9.5164 N   0  0  0  0  0  0  0  0  0  0  0  0
    9.0530    5.2181   -9.9182 C   0  0  0  0  0  0  0  0  0  0  0  0
    9.1804    5.8540  -11.1208 N   0  0  0  0  0  0  0  0  0  0  0  0
    8.1681    6.3549  -11.9149 C   0  0  0  0  0  0  0  0  0  0  0  0
    6.8403    6.0651  -11.4469 C   0  0  0  0  0  0  0  0  0  0  0  0
    6.6757    5.4565  -10.2626 C   0  0  0  0  0  0  0  0  0  0  0  0
   10.0361    4.8625   -9.2745 O   0  0  0  0  0  0  0  0  0  0  0  0
    8.4370    6.9073  -12.9800 O   0  0  0  0  0  0  0  0  0  0  0  0
    7.4745    4.3162   -8.2424 C   0  0  1  0  0  0  0  0  0  0  0  0
    6.2638    4.9188   -7.5215 C   0  0  1  0  0  0  0  0  0  0  0  0
    5.2916    3.7260   -7.3742 C   0  0  1  0  0  0  0  0  0  0  0  0
    6.2122    2.5096   -7.5443 C   0  0  2  0  0  0  0  0  0  0  0  0
    6.6987    5.5568   -6.3395 O   0  0  0  0  0  0  0  0  0  0  0  0
    4.5426    3.7222   -6.1635 O   0  0  0  0  0  0  0  0  0  0  0  0
    7.1618    2.9664   -8.5290 O   0  0  0  0  0  0  0  0  0  0  0  0
    5.5306    1.2608   -8.0518 C   0  0  0  0  0  0  0  0  0  0  0  0
    6.5181    0.2731   -8.4273 O   0  0  0  0  0  0  0  0  0  0  0  0
   10.1402    5.9731  -11.4750 H   0  0  0  0  0  0  0  0  0  0  0  0
    5.9659    6.3402  -12.0550 H   0  0  0  0  0  0  0  0  0  0  0  0
    5.6561    5.3072   -9.8776 H   0  0  0  0  0  0  0  0  0  0  0  0
    8.3659    4.4104   -7.6048 H   0  0  0  0  0  0  0  0  0  0  0  0
    5.7321    5.7269   -8.0453 H   0  0  0  0  0  0  0  0  0  0  0  0
    4.4812    3.7531   -8.1175 H   0  0  0  0  0  0  0  0  0  0  0  0
    6.6319    2.2075   -6.5735 H   0  0  0  0  0  0  0  0  0  0  0  0
    6.3602    5.0602   -5.5528 H   0  0  0  0  0  0  0  0  0  0  0  0
    5.1628    3.7253   -5.3918 H   0  0  0  0  0  0  0  0  0  0  0  0
    4.8878    0.8496   -7.2595 H   0  0  0  0  0  0  0  0  0  0  0  0
    4.9229    1.5151   -8.9327 H   0  0  0  0  0  0  0  0  0  0  0  0
    6.9147   -0.1236   -7.6116 H   0  0  0  0  0  0  0  0  0  0  0  0
  1  2  1  0
  1  6  1  0
  9  1  1  0
  2  3  1  0
  2  7  2  0
  3  4  1  0
  4  5  1  0
  4  8  2  0
  5  6  2  0
  9 10  1  0
  9 15  1  0
 10 11  1  0
 10 13  1  0
 11 12  1  0
 11 14  1  0
 12 15  1  0
 12 16  1  0
 16 17  1  0
  3 18  1  0
  5 19  1  0
  6 20  1  0
  9 21  1  1
 10 22  1  6
 11 23  1  6
 12 24  1  1
 13 25  1  0
 14 26  1  0
 16 27  1  0
 16 28  1  0
 17 29  1  0
M  END
>  <filename_input>  (14) 
7QTA_URI_docked.sdf

>  <pdb_id>  (14) 
7QTA_URI

>  <pose_rank>  (14) 
13

>  <num_atoms_heavy>  (14) 
17

>  <num_torsions>  (14) 
2

>  <pose>  (14) 
[7.47446459279333, 4.316180812983156, -8.242413764007692, 1.4856508733754965, 0.8588646944488036, -1.992914614233117, -5.963199267559867, -0.30679328555147917]

>  <energy>  (14) 
-466.26068615706413

>  <inter_energy>  (14) 
-468.2703969449263

>  <intra_energy>  (14) 
0.7636456665107285

>  <rmsd>  (14) 
3.35352

>  <sdf_rank>  (14) 
0

$$$$

     RDKit          3D

 29 30  0  0  0  0  0  0  0  0999 V2000
    7.1300    4.2557   -6.9441 N   0  0  0  0  0  0  0  0  0  0  0  0
    7.7069    3.5523   -5.8946 C   0  0  0  0  0  0  0  0  0  0  0  0
    6.8256    3.1701   -4.9230 N   0  0  0  0  0  0  0  0  0  0  0  0
    5.4568    3.3505   -4.9157 C   0  0  0  0  0  0  0  0  0  0  0  0
    4.9482    4.1224   -6.0165 C   0  0  0  0  0  0  0  0  0  0  0  0
    5.7809    4.5015   -6.9977 C   0  0  0  0  0  0  0  0  0  0  0  0
    8.9030    3.2878   -5.8141 O   0  0  0  0  0  0  0  0  0  0  0  0
    4.7878    2.9497   -3.9651 O   0  0  0  0  0  0  0  0  0  0  0  0
    7.9870    4.7415   -8.0442 C   0  0  1  0  0  0  0  0  0  0  0  0
    8.8151    3.6011   -8.6462 C   0  0  1  0  0  0  0  0  0  0  0  0
    8.4003    3.5912  -10.1354 C   0  0  1  0  0  0  0  0  0  0  0  0
    7.8040    4.9914  -10.3352 C   0  0  2  0  0  0  0  0  0  0  0  0
   10.1792    3.8124   -8.3496 O   0  0  0  0  0  0  0  0  0  0  0  0
    9.4543    3.2749  -11.0386 O   0  0  0  0  0  0  0  0  0  0  0  0
    7.1538    5.2418   -9.0725 O   0  0  0  0  0  0  0  0  0  0  0  0
    6.7884    5.0985  -11.4480 C   0  0  0  0  0  0  0  0  0  0  0  0
    6.4635    6.4863  -11.6928 O   0  0  0  0  0  0  0  0  0  0  0  0
    7.2278    2.6935   -4.1033 H   0  0  0  0  0  0  0  0  0  0  0  0
    3.8845    4.4003   -6.0540 H   0  0  0  0  0  0  0  0  0  0  0  0
    5.3694    5.0259   -7.8727 H   0  0  0  0  0  0  0  0  0  0  0  0
    8.6610    5.5125   -7.6428 H   0  0  0  0  0  0  0  0  0  0  0  0
    8.6367    2.5955   -8.2378 H   0  0  0  0  0  0  0  0  0  0  0  0
    7.6848    2.7877  -10.3645 H   0  0  0  0  0  0  0  0  0  0  0  0
    8.5898    5.7054  -10.6229 H   0  0  0  0  0  0  0  0  0  0  0  0
   10.3042    3.8318   -7.3677 H   0  0  0  0  0  0  0  0  0  0  0  0
   10.2658    3.0314  -10.5266 H   0  0  0  0  0  0  0  0  0  0  0  0
    7.2049    4.6553  -12.3646 H   0  0  0  0  0  0  0  0  0  0  0  0
    5.8745    4.5613  -11.1542 H   0  0  0  0  0  0  0  0  0  0  0  0
    6.3533    6.9568  -10.8287 H   0  0  0  0  0  0  0  0  0  0  0  0
  1  2  1  0
  1  6  1  0
  9  1  1  0
  2  3  1  0
  2  7  2  0
  3  4  1  0
  4  5  1  0
  4  8  2  0
  5  6  2  0
  9 10  1  0
  9 15  1  0
 10 11  1  0
 10 13  1  0
 11 12  1  0
 11 14  1  0
 12 15  1  0
 12 16  1  0
 16 17  1  0
  3 18  1  0
  5 19  1  0
  6 20  1  0
  9 21  1  1
 10 22  1  1
 11 23  1  1
 12 24  1  6
 13 25  1  0
 14 26  1  0
 16 27  1  0
 16 28  1  0
 17 29  1  0
M  END
>  <filename_input>  (15) 
7QTA_URI_docked.sdf

>  <pdb_id>  (15) 
7QTA_URI

>  <pose_rank>  (15) 
14

>  <num_atoms_heavy>  (15) 
17

>  <num_torsions>  (15) 
2

>  <pose>  (15) 
[7.9869814343819865, 4.741467529089546, -8.044228595342526, 0.6179804793541456, -2.918974188845543, -0.031754731273675674, -7.519505884236398, 0.059337251360184265]

>  <energy>  (15) 
-269.6887530434521

>  <inter_energy>  (15) 
-299.88536240948997

>  <intra_energy>  (15) 
25.089512865760458

>  <rmsd>  (15) 
5.90616

>  <sdf_rank>  (15) 
0

$$$$

     RDKit          3D

 29 30  0  0  0  0  0  0  0  0999 V2000
    8.8710    4.6905   -6.4190 N   0  0  0  0  0  0  0  0  0  0  0  0
   10.1806    4.7616   -6.8761 C   0  0  0  0  0  0  0  0  0  0  0  0
   11.0413    3.9050   -6.2498 N   0  0  0  0  0  0  0  0  0  0  0  0
   10.7340    2.9631   -5.2883 C   0  0  0  0  0  0  0  0  0  0  0  0
    9.3673    2.9847   -4.8435 C   0  0  0  0  0  0  0  0  0  0  0  0
    8.4896    3.8011   -5.4461 C   0  0  0  0  0  0  0  0  0  0  0  0
   10.5646    5.5230   -7.7594 O   0  0  0  0  0  0  0  0  0  0  0  0
   11.6209    2.2572   -4.8118 O   0  0  0  0  0  0  0  0  0  0  0  0
    7.8529    5.5852   -7.0053 C   0  0  1  0  0  0  0  0  0  0  0  0
    7.1532    4.9225   -8.1969 C   0  0  1  0  0  0  0  0  0  0  0  0
    5.6613    4.9184   -7.7920 C   0  0  1  0  0  0  0  0  0  0  0  0
    5.5983    5.9964   -6.7012 C   0  0  2  0  0  0  0  0  0  0  0  0
    7.5069    5.6060   -9.3806 O   0  0  0  0  0  0  0  0  0  0  0  0
    4.7573    5.1312   -8.8710 O   0  0  0  0  0  0  0  0  0  0  0  0
    6.8632    5.8383   -6.0264 O   0  0  0  0  0  0  0  0  0  0  0  0
    4.4772    5.8282   -5.7031 C   0  0  0  0  0  0  0  0  0  0  0  0
    4.5131    6.8975   -4.7301 O   0  0  0  0  0  0  0  0  0  0  0  0
   12.0315    3.9692   -6.5262 H   0  0  0  0  0  0  0  0  0  0  0  0
    9.0435    2.3369   -4.0156 H   0  0  0  0  0  0  0  0  0  0  0  0
    7.4309    3.7562   -5.1509 H   0  0  0  0  0  0  0  0  0  0  0  0
    8.3531    6.5064   -7.3390 H   0  0  0  0  0  0  0  0  0  0  0  0
    7.4456    3.8869   -8.4247 H   0  0  0  0  0  0  0  0  0  0  0  0
    5.3278    3.9327   -7.4354 H   0  0  0  0  0  0  0  0  0  0  0  0
    5.4104    6.9838   -7.1481 H   0  0  0  0  0  0  0  0  0  0  0  0
    7.9492    6.4607   -9.1485 H   0  0  0  0  0  0  0  0  0  0  0  0
    3.8591    5.3426   -8.5123 H   0  0  0  0  0  0  0  0  0  0  0  0
    3.5130    5.8498   -6.2321 H   0  0  0  0  0  0  0  0  0  0  0  0
    4.5983    4.8656   -5.1846 H   0  0  0  0  0  0  0  0  0  0  0  0
    4.5002    6.5139   -3.8175 H   0  0  0  0  0  0  0  0  0  0  0  0
  1  2  1  0
  1  6  1  0
  9  1  1  0
  2  3  1  0
  2  7  2  0
  3  4  1  0
  4  5  1  0
  4  8  2  0
  5  6  2  0
  9 10  1  0
  9 15  1  0
 10 11  1  0
 10 13  1  0
 11 12  1  0
 11 14  1  0
 12 15  1  0
 12 16  1  0
 16 17  1  0
  3 18  1  0
  5 19  1  0
  6 20  1  0
  9 21  1  6
 10 22  1  6
 11 23  1  1
 12 24  1  6
 13 25  1  0
 14 26  1  0
 16 27  1  0
 16 28  1  0
 17 29  1  0
M  END
>  <filename_input>  (16) 
7QTA_URI_docked.sdf

>  <pdb_id>  (16) 
7QTA_URI

>  <pose_rank>  (16) 
15

>  <num_atoms_heavy>  (16) 
17

>  <num_torsions>  (16) 
2

>  <pose>  (16) 
[7.852905924268123, 5.585228745063799, -7.00530366156478, 4.8443460004508685, -11.79379763517901, -6.200844780369468, -6.862043077836528, -0.10363949099753195]

>  <energy>  (16) 
-286.52138995943267

>  <inter_energy>  (16) 
-288.946248003743

>  <intra_energy>  (16) 
0.35422338124092234

>  <rmsd>  (16) 
4.51296

>  <sdf_rank>  (16) 
0

$$$$

     RDKit          3D

 29 30  0  0  0  0  0  0  0  0999 V2000
   11.9287    3.4957  -10.4391 N   0  0  0  0  0  0  0  0  0  0  0  0
   12.3907    3.5403   -9.1301 C   0  0  0  0  0  0  0  0  0  0  0  0
   13.7522    3.5486   -9.0149 N   0  0  0  0  0  0  0  0  0  0  0  0
   14.6791    3.5832  -10.0375 C   0  0  0  0  0  0  0  0  0  0  0  0
   14.1183    3.4928  -11.3580 C   0  0  0  0  0  0  0  0  0  0  0  0
   12.7855    3.4985  -11.5111 C   0  0  0  0  0  0  0  0  0  0  0  0
   11.6642    3.5631   -8.1406 O   0  0  0  0  0  0  0  0  0  0  0  0
   15.8812    3.5872   -9.7793 O   0  0  0  0  0  0  0  0  0  0  0  0
   10.4739    3.4600  -10.6898 C   0  0  1  0  0  0  0  0  0  0  0  0
    9.6845    3.7916   -9.4187 C   0  0  1  0  0  0  0  0  0  0  0  0
    8.8447    5.0264   -9.8185 C   0  0  1  0  0  0  0  0  0  0  0  0
    8.8431    4.9590  -11.3520 C   0  0  2  0  0  0  0  0  0  0  0  0
    8.9893    2.6396   -8.9912 O   0  0  0  0  0  0  0  0  0  0  0  0
    7.5454    5.0685   -9.2381 O   0  0  0  0  0  0  0  0  0  0  0  0
   10.1609    4.4529  -11.6480 O   0  0  0  0  0  0  0  0  0  0  0  0
    8.6516    6.2858  -12.0479 C   0  0  0  0  0  0  0  0  0  0  0  0
    7.2415    6.5641  -12.2082 O   0  0  0  0  0  0  0  0  0  0  0  0
   14.1296    3.5267   -8.0568 H   0  0  0  0  0  0  0  0  0  0  0  0
   14.7768    3.4194  -12.2360 H   0  0  0  0  0  0  0  0  0  0  0  0
   12.3662    3.5058  -12.5281 H   0  0  0  0  0  0  0  0  0  0  0  0
   10.2071    2.4502  -11.0347 H   0  0  0  0  0  0  0  0  0  0  0  0
   10.2744    4.0564   -8.5289 H   0  0  0  0  0  0  0  0  0  0  0  0
    9.2720    5.9645   -9.4346 H   0  0  0  0  0  0  0  0  0  0  0  0
    8.0007    4.3479  -11.7081 H   0  0  0  0  0  0  0  0  0  0  0  0
    8.9728    2.6123   -8.0017 H   0  0  0  0  0  0  0  0  0  0  0  0
    7.6245    5.0659   -8.2513 H   0  0  0  0  0  0  0  0  0  0  0  0
    9.1134    7.0823  -11.4460 H   0  0  0  0  0  0  0  0  0  0  0  0
    9.1252    6.2437  -13.0398 H   0  0  0  0  0  0  0  0  0  0  0  0
    6.8182    6.6476  -11.3172 H   0  0  0  0  0  0  0  0  0  0  0  0
  1  2  1  0
  1  6  1  0
  9  1  1  0
  2  3  1  0
  2  7  2  0
  3  4  1  0
  4  5  1  0
  4  8  2  0
  5  6  2  0
  9 10  1  0
  9 15  1  0
 10 11  1  0
 10 13  1  0
 11 12  1  0
 11 14  1  0
 12 15  1  0
 12 16  1  0
 16 17  1  0
  3 18  1  0
  5 19  1  0
  6 20  1  0
  9 21  1  6
 10 22  1  1
 11 23  1  6
 12 24  1  1
 13 25  1  0
 14 26  1  0
 16 27  1  0
 16 28  1  0
 17 29  1  0
M  END
>  <filename_input>  (17) 
7QTA_URI_docked.sdf

>  <pdb_id>  (17) 
7QTA_URI

>  <pose_rank>  (17) 
16

>  <num_atoms_heavy>  (17) 
17

>  <num_torsions>  (17) 
2

>  <pose>  (17) 
[10.473865815381323, 3.460042781041127, -10.689750120871194, -1.6980411034678142, -0.6305654388438634, 0.4966708097496414, -1.9538066993063716, 1.512910562754557]

>  <energy>  (17) 
-223.85862396456008

>  <inter_energy>  (17) 
-276.6045713736486

>  <intra_energy>  (17) 
51.80862661039139

>  <rmsd>  (17) 
5.53626

>  <sdf_rank>  (17) 
0

$$$$

     RDKit          3D

 29 30  0  0  0  0  0  0  0  0999 V2000
    9.3700    2.7988   -6.5014 N   0  0  0  0  0  0  0  0  0  0  0  0
    9.0026    2.6968   -5.1659 C   0  0  0  0  0  0  0  0  0  0  0  0
   10.0420    2.4469   -4.3149 N   0  0  0  0  0  0  0  0  0  0  0  0
   11.3822    2.3555   -4.6338 C   0  0  0  0  0  0  0  0  0  0  0  0
   11.6701    2.4313   -6.0401 C   0  0  0  0  0  0  0  0  0  0  0  0
   10.6774    2.6915   -6.9043 C   0  0  0  0  0  0  0  0  0  0  0  0
    7.8512    2.8089   -4.7548 O   0  0  0  0  0  0  0  0  0  0  0  0
   12.2101    2.1243   -3.7546 O   0  0  0  0  0  0  0  0  0  0  0  0
    8.3287    3.0454   -7.5191 C   0  0  1  0  0  0  0  0  0  0  0  0
    7.7546    1.7292   -8.0545 C   0  0  1  0  0  0  0  0  0  0  0  0
    6.2445    1.8315   -7.7403 C   0  0  1  0  0  0  0  0  0  0  0  0
    6.0358    3.3394   -7.5436 C   0  0  2  0  0  0  0  0  0  0  0  0
    8.1315    1.5752   -9.4064 O   0  0  0  0  0  0  0  0  0  0  0  0
    5.3968    1.2520   -8.7265 O   0  0  0  0  0  0  0  0  0  0  0  0
    7.2640    3.7488   -6.9080 O   0  0  0  0  0  0  0  0  0  0  0  0
    4.8694    3.7112   -6.6589 C   0  0  0  0  0  0  0  0  0  0  0  0
    4.8465    5.1407   -6.4410 O   0  0  0  0  0  0  0  0  0  0  0  0
    9.7981    2.3114   -3.3235 H   0  0  0  0  0  0  0  0  0  0  0  0
   12.6964    2.2772   -6.4049 H   0  0  0  0  0  0  0  0  0  0  0  0
   10.9191    2.8230   -7.9693 H   0  0  0  0  0  0  0  0  0  0  0  0
    8.7811    3.6121   -8.3463 H   0  0  0  0  0  0  0  0  0  0  0  0
    8.1346    0.8046   -7.5956 H   0  0  0  0  0  0  0  0  0  0  0  0
    5.9612    1.2440   -6.8545 H   0  0  0  0  0  0  0  0  0  0  0  0
    5.8056    3.8232   -8.5043 H   0  0  0  0  0  0  0  0  0  0  0  0
    9.0469    1.2011   -9.4531 H   0  0  0  0  0  0  0  0  0  0  0  0
    4.6666    0.7529   -8.2819 H   0  0  0  0  0  0  0  0  0  0  0  0
    3.9318    3.4021   -7.1441 H   0  0  0  0  0  0  0  0  0  0  0  0
    4.9755    3.2010   -5.6902 H   0  0  0  0  0  0  0  0  0  0  0  0
    4.8436    5.3262   -5.4686 H   0  0  0  0  0  0  0  0  0  0  0  0
  1  2  1  0
  1  6  1  0
  9  1  1  0
  2  3  1  0
  2  7  2  0
  3  4  1  0
  4  5  1  0
  4  8  2  0
  5  6  2  0
  9 10  1  0
  9 15  1  0
 10 11  1  0
 10 13  1  0
 11 12  1  0
 11 14  1  0
 12 15  1  0
 12 16  1  0
 16 17  1  0
  3 18  1  0
  5 19  1  0
  6 20  1  0
  9 21  1  6
 10 22  1  1
 11 23  1  1
 12 24  1  6
 13 25  1  0
 14 26  1  0
 16 27  1  0
 16 28  1  0
 17 29  1  0
M  END
>  <filename_input>  (18) 
7QTA_URI_docked.sdf

>  <pdb_id>  (18) 
7QTA_URI

>  <pose_rank>  (18) 
17

>  <num_atoms_heavy>  (18) 
17

>  <num_torsions>  (18) 
2

>  <pose>  (18) 
[8.328746356806791, 3.0454204924074144, -7.519118980141636, -0.2852565741312612, 4.767287506096609, 0.48353968428440286, -3.7418355427348424, -0.20285643970479234]

>  <energy>  (18) 
-222.56388179124772

>  <inter_energy>  (18) 
-253.3273660976023

>  <intra_energy>  (18) 
30.940683419605904

>  <rmsd>  (18) 
5.42312

>  <sdf_rank>  (18) 
0

$$$$

     RDKit          3D

 29 30  0  0  0  0  0  0  0  0999 V2000
    8.3594    3.5100   -8.5604 N   0  0  0  0  0  0  0  0  0  0  0  0
    7.0120    3.7468   -8.8002 C   0  0  0  0  0  0  0  0  0  0  0  0
    6.2579    3.8943   -7.6704 N   0  0  0  0  0  0  0  0  0  0  0  0
    6.7002    3.8970   -6.3625 C   0  0  0  0  0  0  0  0  0  0  0  0
    8.0984    3.6044   -6.2022 C   0  0  0  0  0  0  0  0  0  0  0  0
    8.8736    3.4692   -7.2888 C   0  0  0  0  0  0  0  0  0  0  0  0
    6.5101    3.8156   -9.9186 O   0  0  0  0  0  0  0  0  0  0  0  0
    5.8985    4.0418   -5.4416 O   0  0  0  0  0  0  0  0  0  0  0  0
    9.2716    3.3114   -9.7046 C   0  0  1  0  0  0  0  0  0  0  0  0
    9.6288    4.6466  -10.3666 C   0  0  1  0  0  0  0  0  0  0  0  0
   11.1702    4.7071  -10.2651 C   0  0  1  0  0  0  0  0  0  0  0  0
   11.5576    3.2389  -10.0413 C   0  0  2  0  0  0  0  0  0  0  0  0
    9.0569    4.6919  -11.6566 O   0  0  0  0  0  0  0  0  0  0  0  0
   11.8110    5.3126  -11.3829 O   0  0  0  0  0  0  0  0  0  0  0  0
   10.4764    2.7473   -9.2230 O   0  0  0  0  0  0  0  0  0  0  0  0
   12.8659    3.0286   -9.3163 C   0  0  0  0  0  0  0  0  0  0  0  0
   12.8919    1.7169   -8.7078 O   0  0  0  0  0  0  0  0  0  0  0  0
    5.2448    4.0172   -7.8102 H   0  0  0  0  0  0  0  0  0  0  0  0
    8.5294    3.4921   -5.1964 H   0  0  0  0  0  0  0  0  0  0  0  0
    9.9555    3.3211   -7.1562 H   0  0  0  0  0  0  0  0  0  0  0  0
    8.7711    2.6608  -10.4369 H   0  0  0  0  0  0  0  0  0  0  0  0
    9.2221    5.5533   -9.8949 H   0  0  0  0  0  0  0  0  0  0  0  0
   11.5099    5.3652   -9.4517 H   0  0  0  0  0  0  0  0  0  0  0  0
   11.7030    2.7293  -11.0052 H   0  0  0  0  0  0  0  0  0  0  0  0
    8.0731    4.7698  -11.5789 H   0  0  0  0  0  0  0  0  0  0  0  0
   12.4923    5.9562  -11.0640 H   0  0  0  0  0  0  0  0  0  0  0  0
   13.6964    3.1138  -10.0326 H   0  0  0  0  0  0  0  0  0  0  0  0
   12.9690    3.7918   -8.5310 H   0  0  0  0  0  0  0  0  0  0  0  0
   12.8900    1.8103   -7.7222 H   0  0  0  0  0  0  0  0  0  0  0  0
  1  2  1  0
  1  6  1  0
  9  1  1  0
  2  3  1  0
  2  7  2  0
  3  4  1  0
  4  5  1  0
  4  8  2  0
  5  6  2  0
  9 10  1  0
  9 15  1  0
 10 11  1  0
 10 13  1  0
 11 12  1  0
 11 14  1  0
 12 15  1  0
 12 16  1  0
 16 17  1  0
  3 18  1  0
  5 19  1  0
  6 20  1  0
  9 21  1  6
 10 22  1  1
 11 23  1  1
 12 24  1  6
 13 25  1  0
 14 26  1  0
 16 27  1  0
 16 28  1  0
 17 29  1  0
M  END
>  <filename_input>  (19) 
7QTA_URI_docked.sdf

>  <pdb_id>  (19) 
7QTA_URI

>  <pose_rank>  (19) 
18

>  <num_atoms_heavy>  (19) 
17

>  <num_torsions>  (19) 
2

>  <pose>  (19) 
[9.2715801788062, 3.3113961020302236, -9.70461856648662, -2.3138016282201535, -0.30784456575076435, -2.2307757246091717, -0.8186400763010493, -0.4938756369816017]

>  <energy>  (19) 
-280.1220184374476

>  <inter_energy>  (19) 
-284.45051711005965

>  <intra_energy>  (19) 
4.635058289502799

>  <rmsd>  (19) 
5.89821

>  <sdf_rank>  (19) 
0

$$$$

     RDKit          3D

 29 30  0  0  0  0  0  0  0  0999 V2000
   10.0947    4.4037   -8.0410 N   0  0  0  0  0  0  0  0  0  0  0  0
   11.0193    4.3350   -9.0751 C   0  0  0  0  0  0  0  0  0  0  0  0
   12.2408    3.8474   -8.7049 N   0  0  0  0  0  0  0  0  0  0  0  0
   12.6113    3.3713   -7.4630 C   0  0  0  0  0  0  0  0  0  0  0  0
   11.6099    3.5169   -6.4422 C   0  0  0  0  0  0  0  0  0  0  0  0
   10.3934    3.9771   -6.7714 C   0  0  0  0  0  0  0  0  0  0  0  0
   10.7918    4.6819  -10.2306 O   0  0  0  0  0  0  0  0  0  0  0  0
   13.7553    2.9606   -7.2771 O   0  0  0  0  0  0  0  0  0  0  0  0
    8.7447    4.9359   -8.3147 C   0  0  1  0  0  0  0  0  0  0  0  0
    7.8925    3.9178   -9.0801 C   0  0  1  0  0  0  0  0  0  0  0  0
    6.6710    3.6939   -8.1595 C   0  0  1  0  0  0  0  0  0  0  0  0
    6.6892    4.9351   -7.2567 C   0  0  2  0  0  0  0  0  0  0  0  0
    7.6482    4.4043  -10.3828 O   0  0  0  0  0  0  0  0  0  0  0  0
    5.4415    3.4960   -8.8494 O   0  0  0  0  0  0  0  0  0  0  0  0
    8.0999    5.1764   -7.0785 O   0  0  0  0  0  0  0  0  0  0  0  0
    6.0413    4.7492   -5.9050 C   0  0  0  0  0  0  0  0  0  0  0  0
    5.4489    5.9921   -5.4625 O   0  0  0  0  0  0  0  0  0  0  0  0
   12.9674    3.8334   -9.4348 H   0  0  0  0  0  0  0  0  0  0  0  0
   11.8392    3.2532   -5.3992 H   0  0  0  0  0  0  0  0  0  0  0  0
    9.6108    4.0135   -5.9993 H   0  0  0  0  0  0  0  0  0  0  0  0
    8.8493    5.8520   -8.9145 H   0  0  0  0  0  0  0  0  0  0  0  0
    8.3540    2.9386   -9.2754 H   0  0  0  0  0  0  0  0  0  0  0  0
    6.7421    2.7542   -7.5920 H   0  0  0  0  0  0  0  0  0  0  0  0
    6.1145    5.7524   -7.7168 H   0  0  0  0  0  0  0  0  0  0  0  0
    7.2044    5.2875  -10.3274 H   0  0  0  0  0  0  0  0  0  0  0  0
    4.7100    3.3782   -8.1929 H   0  0  0  0  0  0  0  0  0  0  0  0
    5.2590    3.9795   -5.9793 H   0  0  0  0  0  0  0  0  0  0  0  0
    6.8063    4.4366   -5.1791 H   0  0  0  0  0  0  0  0  0  0  0  0
    5.4366    6.0179   -4.4729 H   0  0  0  0  0  0  0  0  0  0  0  0
  1  2  1  0
  1  6  1  0
  9  1  1  0
  2  3  1  0
  2  7  2  0
  3  4  1  0
  4  5  1  0
  4  8  2  0
  5  6  2  0
  9 10  1  0
  9 15  1  0
 10 11  1  0
 10 13  1  0
 11 12  1  0
 11 14  1  0
 12 15  1  0
 12 16  1  0
 16 17  1  0
  3 18  1  0
  5 19  1  0
  6 20  1  0
  9 21  1  6
 10 22  1  6
 11 23  1  1
 12 24  1  6
 13 25  1  0
 14 26  1  0
 16 27  1  0
 16 28  1  0
 17 29  1  0
M  END
>  <filename_input>  (20) 
7QTA_URI_docked.sdf

>  <pdb_id>  (20) 
7QTA_URI

>  <pose_rank>  (20) 
19

>  <num_atoms_heavy>  (20) 
17

>  <num_torsions>  (20) 
2

>  <pose>  (20) 
[8.744689915048578, 4.935901503005788, -8.314718307220591, 4.992132787082857, -11.523141733328064, -5.5202831422006815, -7.149335159676114, 0.44490008076668264]

>  <energy>  (20) 
-272.7222580485294

>  <inter_energy>  (20) 
-269.7262506506141

>  <intra_energy>  (20) 
6.265182498534968

>  <rmsd>  (20) 
3.78016

>  <sdf_rank>  (20) 
0

$$$$

     RDKit          3D

 29 30  0  0  0  0  0  0  0  0999 V2000
    7.0264    4.4553   -6.2637 N   0  0  0  0  0  0  0  0  0  0  0  0
    6.0922    5.3205   -6.8185 C   0  0  0  0  0  0  0  0  0  0  0  0
    5.3889    6.0502   -5.9021 N   0  0  0  0  0  0  0  0  0  0  0  0
    5.5569    6.0597   -4.5318 C   0  0  0  0  0  0  0  0  0  0  0  0
    6.5134    5.1068   -4.0387 C   0  0  0  0  0  0  0  0  0  0  0  0
    7.2344    4.3840   -4.9092 C   0  0  0  0  0  0  0  0  0  0  0  0
    5.8871    5.4367   -8.0233 O   0  0  0  0  0  0  0  0  0  0  0  0
    4.8443    6.7739   -3.8289 O   0  0  0  0  0  0  0  0  0  0  0  0
    7.8327    3.5968   -7.1546 C   0  0  1  0  0  0  0  0  0  0  0  0
    9.3312    3.7717   -6.8852 C   0  0  1  0  0  0  0  0  0  0  0  0
    9.8076    2.3480   -6.5165 C   0  0  1  0  0  0  0  0  0  0  0  0
    8.7009    1.4550   -7.0942 C   0  0  2  0  0  0  0  0  0  0  0  0
    9.9331    4.3934   -8.0008 O   0  0  0  0  0  0  0  0  0  0  0  0
   11.1146    2.0255   -6.9798 O   0  0  0  0  0  0  0  0  0  0  0  0
    7.5133    2.2456   -6.8825 O   0  0  0  0  0  0  0  0  0  0  0  0
    8.5380    0.1187   -6.4094 C   0  0  0  0  0  0  0  0  0  0  0  0
    7.6066   -0.7071   -7.1457 O   0  0  0  0  0  0  0  0  0  0  0  0
    4.6499    6.6626   -6.2760 H   0  0  0  0  0  0  0  0  0  0  0  0
    6.6533    4.9712   -2.9561 H   0  0  0  0  0  0  0  0  0  0  0  0
    8.0168    3.7130   -4.5250 H   0  0  0  0  0  0  0  0  0  0  0  0
    7.6118    3.8750   -8.1957 H   0  0  0  0  0  0  0  0  0  0  0  0
    9.6069    4.4457   -6.0608 H   0  0  0  0  0  0  0  0  0  0  0  0
    9.9359    2.2181   -5.4318 H   0  0  0  0  0  0  0  0  0  0  0  0
    8.9257    1.1928   -8.1386 H   0  0  0  0  0  0  0  0  0  0  0  0
   10.5867    5.0686   -7.6895 H   0  0  0  0  0  0  0  0  0  0  0  0
   11.7124    1.8780   -6.2046 H   0  0  0  0  0  0  0  0  0  0  0  0
    9.5137   -0.3870   -6.3618 H   0  0  0  0  0  0  0  0  0  0  0  0
    8.1500    0.2802   -5.3928 H   0  0  0  0  0  0  0  0  0  0  0  0
    7.0385   -1.2108   -6.5103 H   0  0  0  0  0  0  0  0  0  0  0  0
  1  2  1  0
  1  6  1  0
  9  1  1  0
  2  3  1  0
  2  7  2  0
  3  4  1  0
  4  5  1  0
  4  8  2  0
  5  6  2  0
  9 10  1  0
  9 15  1  0
 10 11  1  0
 10 13  1  0
 11 12  1  0
 11 14  1  0
 12 15  1  0
 12 16  1  0
 16 17  1  0
  3 18  1  0
  5 19  1  0
  6 20  1  0
  9 21  1  6
 10 22  1  1
 11 23  1  1
 12 24  1  6
 13 25  1  0
 14 26  1  0
 16 27  1  0
 16 28  1  0
 17 29  1  0
M  END
>  <filename_input>  (21) 
7QTA_URI_docked.sdf

>  <pdb_id>  (21) 
7QTA_URI

>  <pose_rank>  (21) 
20

>  <num_atoms_heavy>  (21) 
17

>  <num_torsions>  (21) 
2

>  <pose>  (21) 
[7.832710577677667, 3.5968022950151926, -7.154594646277011, -1.7870270933442007, 1.7565880550728563, -2.7503073268925835, -6.255424823943839, 0.032572391108660184]

>  <energy>  (21) 
-296.45246260897454

>  <inter_energy>  (21) 
-291.7674342796383

>  <intra_energy>  (21) 
0.6413831456826659

>  <rmsd>  (21) 
6.03353

>  <sdf_rank>  (21) 
0

$$$$

     RDKit          3D

 29 30  0  0  0  0  0  0  0  0999 V2000
    8.2109    3.1245   -8.9191 N   0  0  0  0  0  0  0  0  0  0  0  0
    8.2951    2.7567   -7.5825 C   0  0  0  0  0  0  0  0  0  0  0  0
    7.1747    3.0353   -6.8517 N   0  0  0  0  0  0  0  0  0  0  0  0
    5.9859    3.5666   -7.3106 C   0  0  0  0  0  0  0  0  0  0  0  0
    5.9983    3.9565   -8.6941 C   0  0  0  0  0  0  0  0  0  0  0  0
    7.0748    3.6845   -9.4472 C   0  0  0  0  0  0  0  0  0  0  0  0
    9.2797    2.2319   -7.0702 O   0  0  0  0  0  0  0  0  0  0  0  0
    5.0570    3.7634   -6.5294 O   0  0  0  0  0  0  0  0  0  0  0  0
    9.3697    2.8937   -9.8051 C   0  0  1  0  0  0  0  0  0  0  0  0
   10.6709    3.3703   -9.1507 C   0  0  1  0  0  0  0  0  0  0  0  0
   11.5504    2.0996   -9.1118 C   0  0  1  0  0  0  0  0  0  0  0  0
   10.8982    1.1980  -10.1691 C   0  0  2  0  0  0  0  0  0  0  0  0
   11.1655    4.4855   -9.8613 O   0  0  0  0  0  0  0  0  0  0  0  0
   12.9377    2.3362   -9.3269 O   0  0  0  0  0  0  0  0  0  0  0  0
    9.4958    1.5014  -10.0225 O   0  0  0  0  0  0  0  0  0  0  0  0
   11.1113   -0.2830   -9.9627 C   0  0  0  0  0  0  0  0  0  0  0  0
   10.3259   -0.7467   -8.8404 O   0  0  0  0  0  0  0  0  0  0  0  0
    7.2225    2.8253   -5.8445 H   0  0  0  0  0  0  0  0  0  0  0  0
    5.1320    4.4739   -9.1320 H   0  0  0  0  0  0  0  0  0  0  0  0
    7.0458    3.9177  -10.5218 H   0  0  0  0  0  0  0  0  0  0  0  0
    9.2050    3.4477  -10.7410 H   0  0  0  0  0  0  0  0  0  0  0  0
   10.5914    3.7591   -8.1248 H   0  0  0  0  0  0  0  0  0  0  0  0
   11.5727    1.6371   -8.1140 H   0  0  0  0  0  0  0  0  0  0  0  0
   11.3327    1.3934  -11.1606 H   0  0  0  0  0  0  0  0  0  0  0  0
   11.4716    5.1756   -9.2208 H   0  0  0  0  0  0  0  0  0  0  0  0
   13.3982    2.4148   -8.4540 H   0  0  0  0  0  0  0  0  0  0  0  0
   10.8048   -0.8246  -10.8697 H   0  0  0  0  0  0  0  0  0  0  0  0
   12.1761   -0.4683   -9.7578 H   0  0  0  0  0  0  0  0  0  0  0  0
   10.7704   -0.4843   -7.9956 H   0  0  0  0  0  0  0  0  0  0  0  0
  1  2  1  0
  1  6  1  0
  9  1  1  0
  2  3  1  0
  2  7  2  0
  3  4  1  0
  4  5  1  0
  4  8  2  0
  5  6  2  0
  9 10  1  0
  9 15  1  0
 10 11  1  0
 10 13  1  0
 11 12  1  0
 11 14  1  0
 12 15  1  0
 12 16  1  0
 16 17  1  0
  3 18  1  0
  5 19  1  0
  6 20  1  0
  9 21  1  6
 10 22  1  1
 11 23  1  1
 12 24  1  6
 13 25  1  0
 14 26  1  0
 16 27  1  0
 16 28  1  0
 17 29  1  0
M  END
>  <filename_input>  (22) 
7QTA_URI_docked.sdf

>  <pdb_id>  (22) 
7QTA_URI

>  <pose_rank>  (22) 
21

>  <num_atoms_heavy>  (22) 
17

>  <num_torsions>  (22) 
2

>  <pose>  (22) 
[9.369653800031426, 2.8937408712170476, -9.805071372356592, 1.5227035337446142, -1.5573609579136618, 2.1387518750348966, 3.291311034720574, -1.9885835488132182]

>  <energy>  (22) 
-242.52307585284518

>  <inter_energy>  (22) 
-264.86952632738854

>  <intra_energy>  (22) 
34.881389476797594

>  <rmsd>  (22) 
6.41709

>  <sdf_rank>  (22) 
0

$$$$

     RDKit          3D

 29 30  0  0  0  0  0  0  0  0999 V2000
    8.9096    4.2066   -9.8735 N   0  0  0  0  0  0  0  0  0  0  0  0
    7.6120    3.9124   -9.4753 C   0  0  0  0  0  0  0  0  0  0  0  0
    6.6637    4.7539   -9.9846 N   0  0  0  0  0  0  0  0  0  0  0  0
    6.8554    5.7898  -10.8770 C   0  0  0  0  0  0  0  0  0  0  0  0
    8.2302    6.0520  -11.2044 C   0  0  0  0  0  0  0  0  0  0  0  0
    9.1876    5.2372  -10.7360 C   0  0  0  0  0  0  0  0  0  0  0  0
    7.3115    2.9879   -8.7254 O   0  0  0  0  0  0  0  0  0  0  0  0
    5.8988    6.4666  -11.2496 O   0  0  0  0  0  0  0  0  0  0  0  0
   10.0241    3.3794   -9.3691 C   0  0  1  0  0  0  0  0  0  0  0  0
   11.3781    3.9458   -9.8099 C   0  0  1  0  0  0  0  0  0  0  0  0
   12.1179    4.2096   -8.4784 C   0  0  1  0  0  0  0  0  0  0  0  0
   11.3581    3.3234   -7.4818 C   0  0  2  0  0  0  0  0  0  0  0  0
   11.9780    3.0534  -10.7248 O   0  0  0  0  0  0  0  0  0  0  0  0
   13.5192    3.9623   -8.5238 O   0  0  0  0  0  0  0  0  0  0  0  0
    9.9982    3.4090   -7.9548 O   0  0  0  0  0  0  0  0  0  0  0  0
   11.4155    3.7863   -6.0452 C   0  0  0  0  0  0  0  0  0  0  0  0
   11.2465    5.2210   -5.9779 O   0  0  0  0  0  0  0  0  0  0  0  0
    5.6965    4.5979   -9.6667 H   0  0  0  0  0  0  0  0  0  0  0  0
    8.4953    6.9141  -11.8342 H   0  0  0  0  0  0  0  0  0  0  0  0
   10.2281    5.4004  -11.0532 H   0  0  0  0  0  0  0  0  0  0  0  0
    9.9055    2.3604   -9.7661 H   0  0  0  0  0  0  0  0  0  0  0  0
   11.3555    4.8877  -10.3776 H   0  0  0  0  0  0  0  0  0  0  0  0
   12.1056    5.2730   -8.1971 H   0  0  0  0  0  0  0  0  0  0  0  0
   11.7962    2.3148   -7.4539 H   0  0  0  0  0  0  0  0  0  0  0  0
   12.4557    2.3428  -10.2277 H   0  0  0  0  0  0  0  0  0  0  0  0
   13.8733    3.8998   -7.6014 H   0  0  0  0  0  0  0  0  0  0  0  0
   10.6125    3.2982   -5.4733 H   0  0  0  0  0  0  0  0  0  0  0  0
   12.3940    3.5188   -5.6197 H   0  0  0  0  0  0  0  0  0  0  0  0
   11.2130    5.5053   -5.0302 H   0  0  0  0  0  0  0  0  0  0  0  0
  1  2  1  0
  1  6  1  0
  9  1  1  0
  2  3  1  0
  2  7  2  0
  3  4  1  0
  4  5  1  0
  4  8  2  0
  5  6  2  0
  9 10  1  0
  9 15  1  0
 10 11  1  0
 10 13  1  0
 11 12  1  0
 11 14  1  0
 12 15  1  0
 12 16  1  0
 16 17  1  0
  3 18  1  0
  5 19  1  0
  6 20  1  0
  9 21  1  1
 10 22  1  6
 11 23  1  1
 12 24  1  1
 13 25  1  0
 14 26  1  0
 16 27  1  0
 16 28  1  0
 17 29  1  0
M  END
>  <filename_input>  (23) 
7QTA_URI_docked.sdf

>  <pdb_id>  (23) 
7QTA_URI

>  <pose_rank>  (23) 
22

>  <num_atoms_heavy>  (23) 
17

>  <num_torsions>  (23) 
2

>  <pose>  (23) 
[10.024058390939665, 3.3793967705893264, -9.369090848813647, 0.6017150373302458, 0.4696869895230792, 2.1441180560307527, 1.064799688394984, -2.510218273467487]

>  <energy>  (23) 
-330.5065100310745

>  <inter_energy>  (23) 
-340.0713453236405

>  <intra_energy>  (23) 
9.95791525929028

>  <rmsd>  (23) 
4.9371

>  <sdf_rank>  (23) 
0

$$$$

     RDKit          3D

 29 30  0  0  0  0  0  0  0  0999 V2000
   12.9502    2.1130  -12.6301 N   0  0  0  0  0  0  0  0  0  0  0  0
   13.0789    1.3350  -13.7734 C   0  0  0  0  0  0  0  0  0  0  0  0
   14.3357    1.3276  -14.3093 N   0  0  0  0  0  0  0  0  0  0  0  0
   15.4647    1.9423  -13.8055 C   0  0  0  0  0  0  0  0  0  0  0  0
   15.2350    2.7592  -12.6453 C   0  0  0  0  0  0  0  0  0  0  0  0
   14.0176    2.7787  -12.0819 C   0  0  0  0  0  0  0  0  0  0  0  0
   12.1601    0.7030  -14.2870 O   0  0  0  0  0  0  0  0  0  0  0  0
   16.5358    1.8471  -14.4018 O   0  0  0  0  0  0  0  0  0  0  0  0
   11.6318    2.2170  -11.9731 C   0  0  1  0  0  0  0  0  0  0  0  0
   11.7692    2.1843  -10.4471 C   0  0  1  0  0  0  0  0  0  0  0  0
   11.1322    3.5171   -9.9914 C   0  0  1  0  0  0  0  0  0  0  0  0
   10.2681    3.9145  -11.1962 C   0  0  2  0  0  0  0  0  0  0  0  0
   11.2023    0.9880   -9.9563 O   0  0  0  0  0  0  0  0  0  0  0  0
   10.4154    3.4384   -8.7639 O   0  0  0  0  0  0  0  0  0  0  0  0
   11.0590    3.4647  -12.3152 O   0  0  0  0  0  0  0  0  0  0  0  0
   10.0089    5.3962  -11.3333 C   0  0  0  0  0  0  0  0  0  0  0  0
    8.8661    5.6238  -12.1899 O   0  0  0  0  0  0  0  0  0  0  0  0
   14.4544    0.8044  -15.1885 H   0  0  0  0  0  0  0  0  0  0  0  0
   16.0511    3.3637  -12.2227 H   0  0  0  0  0  0  0  0  0  0  0  0
   13.8704    3.3462  -11.1511 H   0  0  0  0  0  0  0  0  0  0  0  0
   11.0127    1.3703  -12.3042 H   0  0  0  0  0  0  0  0  0  0  0  0
   12.7929    2.1433  -10.0466 H   0  0  0  0  0  0  0  0  0  0  0  0
   11.8871    4.2768   -9.7406 H   0  0  0  0  0  0  0  0  0  0  0  0
    9.2632    3.4758  -11.1087 H   0  0  0  0  0  0  0  0  0  0  0  0
   11.2087    1.0016   -8.9665 H   0  0  0  0  0  0  0  0  0  0  0  0
   11.0493    3.5080   -8.0066 H   0  0  0  0  0  0  0  0  0  0  0  0
    9.8097    5.8241  -10.3397 H   0  0  0  0  0  0  0  0  0  0  0  0
   10.8931    5.8766  -11.7775 H   0  0  0  0  0  0  0  0  0  0  0  0
    8.0632    5.7838  -11.6333 H   0  0  0  0  0  0  0  0  0  0  0  0
  1  2  1  0
  1  6  1  0
  9  1  1  0
  2  3  1  0
  2  7  2  0
  3  4  1  0
  4  5  1  0
  4  8  2  0
  5  6  2  0
  9 10  1  0
  9 15  1  0
 10 11  1  0
 10 13  1  0
 11 12  1  0
 11 14  1  0
 12 15  1  0
 12 16  1  0
 16 17  1  0
  3 18  1  0
  5 19  1  0
  6 20  1  0
  9 21  1  6
 10 22  1  6
 11 23  1  1
 12 24  1  1
 13 25  1  0
 14 26  1  0
 16 27  1  0
 16 28  1  0
 17 29  1  0
M  END
>  <filename_input>  (24) 
7QTA_URI_docked.sdf

>  <pdb_id>  (24) 
7QTA_URI

>  <pose_rank>  (24) 
23

>  <num_atoms_heavy>  (24) 
17

>  <num_torsions>  (24) 
2

>  <pose>  (24) 
[11.63177740464077, 2.2170170189493468, -11.973068784179182, -1.217391787508212, -0.12047231934242408, 0.7536841298487259, 0.2682531476066213, 0.22309708378827764]

>  <energy>  (24) 
-226.17492797713632

>  <inter_energy>  (24) 
-217.5234204405945

>  <intra_energy>  (24) 
0.7795851727046093

>  <rmsd>  (24) 
6.96843

>  <sdf_rank>  (24) 
0

$$$$

     RDKit          3D

 29 30  0  0  0  0  0  0  0  0999 V2000
   -1.2125   -0.8264  -15.9928 N   0  0  0  0  0  0  0  0  0  0  0  0
   -0.6116   -2.0088  -15.5807 C   0  0  0  0  0  0  0  0  0  0  0  0
   -0.9018   -2.3677  -14.2947 N   0  0  0  0  0  0  0  0  0  0  0  0
   -1.7561   -1.7279  -13.4189 C   0  0  0  0  0  0  0  0  0  0  0  0
   -2.3024   -0.4923  -13.9098 C   0  0  0  0  0  0  0  0  0  0  0  0
   -2.0525   -0.1155  -15.1730 C   0  0  0  0  0  0  0  0  0  0  0  0
    0.1275   -2.6910  -16.2847 O   0  0  0  0  0  0  0  0  0  0  0  0
   -1.9194   -2.1710  -12.2836 O   0  0  0  0  0  0  0  0  0  0  0  0
   -0.9551   -0.3240  -17.3574 C   0  0  1  0  0  0  0  0  0  0  0  0
   -1.7742    0.9386  -17.6465 C   0  0  1  0  0  0  0  0  0  0  0  0
   -0.7047    2.0005  -17.9904 C   0  0  1  0  0  0  0  0  0  0  0  0
    0.5187    1.1495  -18.3580 C   0  0  2  0  0  0  0  0  0  0  0  0
   -2.7444    0.6465  -18.6298 O   0  0  0  0  0  0  0  0  0  0  0  0
   -1.0947    2.9237  -19.0016 O   0  0  0  0  0  0  0  0  0  0  0  0
    0.4109    0.0322  -17.4524 O   0  0  0  0  0  0  0  0  0  0  0  0
    1.8520    1.8290  -18.1538 C   0  0  0  0  0  0  0  0  0  0  0  0
    2.8171    0.8847  -17.6358 O   0  0  0  0  0  0  0  0  0  0  0  0
   -0.4298   -3.2110  -13.9383 H   0  0  0  0  0  0  0  0  0  0  0  0
   -2.9207    0.1393  -13.2550 H   0  0  0  0  0  0  0  0  0  0  0  0
   -2.5362    0.7919  -15.5637 H   0  0  0  0  0  0  0  0  0  0  0  0
   -1.2303   -1.1122  -18.0736 H   0  0  0  0  0  0  0  0  0  0  0  0
   -2.3852    1.3282  -16.8190 H   0  0  0  0  0  0  0  0  0  0  0  0
   -0.5102    2.6846  -17.1512 H   0  0  0  0  0  0  0  0  0  0  0  0
    0.5068    0.9040  -19.4302 H   0  0  0  0  0  0  0  0  0  0  0  0
   -3.5935    0.3908  -18.1898 H   0  0  0  0  0  0  0  0  0  0  0  0
   -1.4430    3.7484  -18.5790 H   0  0  0  0  0  0  0  0  0  0  0  0
    2.2101    2.2243  -19.1159 H   0  0  0  0  0  0  0  0  0  0  0  0
    1.7304    2.6512  -17.4333 H   0  0  0  0  0  0  0  0  0  0  0  0
    2.7984    0.9030  -16.6462 H   0  0  0  0  0  0  0  0  0  0  0  0
  1  2  1  0
  1  6  1  0
  9  1  1  0
  2  3  1  0
  2  7  2  0
  3  4  1  0
  4  5  1  0
  4  8  2  0
  5  6  2  0
  9 10  1  0
  9 15  1  0
 10 11  1  0
 10 13  1  0
 11 12  1  0
 11 14  1  0
 12 15  1  0
 12 16  1  0
 16 17  1  0
  3 18  1  0
  5 19  1  0
  6 20  1  0
  9 21  1  6
 10 22  1  1
 11 23  1  1
 12 24  1  6
 13 25  1  0
 14 26  1  0
 16 27  1  0
 16 28  1  0
 17 29  1  0
M  END
>  <filename_input>  (25) 
7QTA_URI_docked.sdf

>  <pdb_id>  (25) 
7QTA_URI

>  <pose_rank>  (25) 
24

>  <num_atoms_heavy>  (25) 
17

>  <num_torsions>  (25) 
2

>  <pose>  (25) 
[-0.9551294131829801, -0.32400107422949936, -17.35741273191588, 2.953513139369672, 1.061519239816407, 1.99081114542961, 0.9052071211968947, -0.7849442955919805]

>  <energy>  (25) 
-189.55890080009272

>  <inter_energy>  (25) 
-172.0330176724564

>  <intra_energy>  (25) 
5.400606352087234

>  <rmsd>  (25) 
13.0641

>  <sdf_rank>  (25) 
0

$$$$

     RDKit          3D

 29 30  0  0  0  0  0  0  0  0999 V2000
    7.3740    5.3720  -10.0560 N   0  0  0  0  0  0  0  0  0  0  0  0
    7.2330    5.9500  -11.3110 C   0  0  0  0  0  0  0  0  0  0  0  0
    8.3500    5.8720  -12.0940 N   0  0  0  0  0  0  0  0  0  0  0  0
    9.5400    5.2390  -11.7950 C   0  0  0  0  0  0  0  0  0  0  0  0
    9.6160    4.7040  -10.4630 C   0  0  0  0  0  0  0  0  0  0  0  0
    8.5340    4.7480   -9.6710 C   0  0  0  0  0  0  0  0  0  0  0  0
    6.2090    6.4980  -11.7090 O   0  0  0  0  0  0  0  0  0  0  0  0
   10.4650    5.2520  -12.6050 O   0  0  0  0  0  0  0  0  0  0  0  0
    6.2400    5.4140   -9.1110 C   0  0  1  0  0  0  0  0  0  0  0  0
    5.8640    4.0070   -8.6340 C   0  0  1  0  0  0  0  0  0  0  0  0
    6.0200    4.0850   -7.0980 C   0  0  1  0  0  0  0  0  0  0  0  0
    5.9620    5.5940   -6.8230 C   0  0  2  0  0  0  0  0  0  0  0  0
    4.5920    3.6690   -9.1450 O   0  0  0  0  0  0  0  0  0  0  0  0
    5.0620    3.3250   -6.3690 O   0  0  0  0  0  0  0  0  0  0  0  0
    6.6360    6.1510   -7.9700 O   0  0  0  0  0  0  0  0  0  0  0  0
    6.6690    6.0400   -5.5650 C   0  0  0  0  0  0  0  0  0  0  0  0
    6.4290    7.4470   -5.3320 O   0  0  0  0  0  0  0  0  0  0  0  0
    8.2984    6.3382  -13.0110 H   0  0  0  0  0  0  0  0  0  0  0  0
   10.5540    4.2620  -10.0959 H   0  0  0  0  0  0  0  0  0  0  0  0
    8.5781    4.2688   -8.6819 H   0  0  0  0  0  0  0  0  0  0  0  0
    5.3800    5.8702   -9.6231 H   0  0  0  0  0  0  0  0  0  0  0  0
    6.4926    3.1806   -8.9972 H   0  0  0  0  0  0  0  0  0  0  0  0
    6.9563    3.6249   -6.7492 H   0  0  0  0  0  0  0  0  0  0  0  0
    4.9213    5.9165   -6.6716 H   0  0  0  0  0  0  0  0  0  0  0  0
    3.9682    3.5032   -8.3943 H   0  0  0  0  0  0  0  0  0  0  0  0
    5.2144    3.4459   -5.3983 H   0  0  0  0  0  0  0  0  0  0  0  0
    6.2910    5.4600   -4.7102 H   0  0  0  0  0  0  0  0  0  0  0  0
    7.7501    5.8737   -5.6815 H   0  0  0  0  0  0  0  0  0  0  0  0
    6.3995    7.6198   -4.3576 H   0  0  0  0  0  0  0  0  0  0  0  0
  1  2  1  0
  1  6  1  0
  9  1  1  0
  2  3  1  0
  2  7  2  0
  3  4  1  0
  4  5  1  0
  4  8  2  0
  5  6  2  0
  9 10  1  0
  9 15  1  0
 10 11  1  0
 10 13  1  0
 11 12  1  0
 11 14  1  0
 12 15  1  0
 12 16  1  0
 16 17  1  0
  3 18  1  0
  5 19  1  0
  6 20  1  0
  9 21  1  6
 10 22  1  6
 11 23  1  6
 12 24  1  1
 13 25  1  0
 14 26  1  0
 16 27  1  0
 16 28  1  0
 17 29  1  0
M  END
>  <filename_input>  (26) 
7QTA_URI_docked.sdf

>  <pdb_id>  (26) 
7QTA_URI

>  <pose_rank>  (26) 
25

>  <num_atoms_heavy>  (26) 
17

>  <num_torsions>  (26) 
2

>  <pose>  (26) 
[6.24, 5.414, -9.111, 1e-06, 1e-06, 1e-06, 0.0, 0.0]

>  <energy>  (26) 
-568.6862497779487

>  <inter_energy>  (26) 
-572.7203950800993

>  <intra_energy>  (26) 
0.6059337114445582

>  <rmsd>  (26) 
0.0

>  <sdf_rank>  (26) 
0

$$$$
