
     RDKit          3D

 57 60  0  0  0  0  0  0  0  0999 V2000
   20.0978   27.9180  -48.9979 N   0  0  0  0  0  0  0  0  0  0  0  0
   20.4500   27.4297  -50.1942 C   0  0  0  0  0  0  0  0  0  0  0  0
   19.9911   26.3655  -50.8411 N   0  0  0  0  0  0  0  0  0  0  0  0
   19.0489   25.7415  -50.1163 C   0  0  0  0  0  0  0  0  0  0  0  0
   18.5737   26.1197  -48.8773 C   0  0  0  0  0  0  0  0  0  0  0  0
   19.1280   27.2734  -48.3024 C   0  0  0  0  0  0  0  0  0  0  0  0
   18.7529   27.7689  -47.1286 N   0  0  0  0  0  0  0  0  0  0  0  0
   17.6056   25.2210  -48.4519 N   0  0  0  0  0  0  0  0  0  0  0  0
   17.5170   24.3364  -49.4108 C   0  0  0  0  0  0  0  0  0  0  0  0
   18.3621   24.6082  -50.4468 N   0  0  0  0  0  0  0  0  0  0  0  0
   18.5011   23.8538  -51.6721 C   0  0  1  0  0  0  0  0  0  0  0  0
   18.8345   22.3858  -51.4709 C   0  0  2  0  0  0  0  0  0  0  0  0
   20.2201   22.2847  -51.2253 O   0  0  0  0  0  0  0  0  0  0  0  0
   18.3405   21.7942  -52.7919 C   0  0  2  0  0  0  0  0  0  0  0  0
   19.3031   21.9445  -53.8275 O   0  0  0  0  0  0  0  0  0  0  0  0
   17.2560   23.8556  -52.3225 O   0  0  0  0  0  0  0  0  0  0  0  0
   17.1075   22.6476  -53.1168 C   0  0  2  0  0  0  0  0  0  0  0  0
   15.7783   22.0124  -52.8082 C   0  0  0  0  0  0  0  0  0  0  0  0
   15.7777   21.5925  -51.4095 O   0  0  0  0  0  0  0  0  0  0  0  0
   14.9034   20.3430  -50.9753 P   0  0  2  0  0  0  0  0  0  0  0  0
   15.4642   19.7756  -49.7157 O   0  0  0  0  0  0  0  0  0  0  0  0
   14.6879   19.4074  -52.1275 O   0  0  0  0  0  0  0  0  0  0  0  0
   13.5081   21.0986  -50.7414 O   0  0  0  0  0  0  0  0  0  0  0  0
   11.9834   20.7094  -51.0106 P   0  0  1  0  0  0  0  0  0  0  0  0
   11.0938   21.3604  -49.9884 O   0  0  0  0  0  0  0  0  0  0  0  0
   11.7126   20.9563  -52.4642 O   0  0  0  0  0  0  0  0  0  0  0  0
   11.9306   19.1574  -50.7368 O   0  0  0  0  0  0  0  0  0  0  0  0
   10.8143   18.3700  -51.1943 C   0  0  0  0  0  0  0  0  0  0  0  0
    9.8649   17.0547  -49.4251 O   0  0  0  0  0  0  0  0  0  0  0  0
    7.6400   16.4335  -49.2271 O   0  0  0  0  0  0  0  0  0  0  0  0
    8.9315   16.0088  -49.5817 C   0  0  1  0  0  0  0  0  0  0  0  0
    8.6216   14.3018  -51.3273 O   0  0  0  0  0  0  0  0  0  0  0  0
    9.0296   15.6257  -51.0581 C   0  0  2  0  0  0  0  0  0  0  0  0
   11.3333   14.7264  -51.0717 O   0  0  0  0  0  0  0  0  0  0  0  0
   10.5069   15.8416  -51.3785 C   0  0  2  0  0  0  0  0  0  0  0  0
   10.8439   17.0434  -50.4877 C   0  0  1  0  0  0  0  0  0  0  0  0
   21.2357   27.9940  -50.7180 H   0  0  0  0  0  0  0  0  0  0  0  0
   18.0185   27.2974  -46.5816 H   0  0  0  0  0  0  0  0  0  0  0  0
   19.1965   28.6245  -46.7653 H   0  0  0  0  0  0  0  0  0  0  0  0
   16.8381   23.4713  -49.3850 H   0  0  0  0  0  0  0  0  0  0  0  0
   19.3217   24.3306  -52.2283 H   0  0  0  0  0  0  0  0  0  0  0  0
   18.3791   21.8594  -50.6191 H   0  0  0  0  0  0  0  0  0  0  0  0
   20.3821   22.2729  -50.2487 H   0  0  0  0  0  0  0  0  0  0  0  0
   18.1384   20.7158  -52.7134 H   0  0  0  0  0  0  0  0  0  0  0  0
   20.1982   22.0842  -53.4282 H   0  0  0  0  0  0  0  0  0  0  0  0
   17.0820   22.8134  -54.2039 H   0  0  0  0  0  0  0  0  0  0  0  0
   14.9712   22.7405  -52.9771 H   0  0  0  0  0  0  0  0  0  0  0  0
   15.6156   21.1431  -53.4622 H   0  0  0  0  0  0  0  0  0  0  0  0
    9.8735   18.8917  -50.9646 H   0  0  0  0  0  0  0  0  0  0  0  0
   10.8806   18.2189  -52.2818 H   0  0  0  0  0  0  0  0  0  0  0  0
    7.5604   16.4596  -48.2407 H   0  0  0  0  0  0  0  0  0  0  0  0
    9.1411   15.1489  -48.9285 H   0  0  0  0  0  0  0  0  0  0  0  0
    8.4737   13.8220  -50.4741 H   0  0  0  0  0  0  0  0  0  0  0  0
    8.3524   16.2279  -51.6816 H   0  0  0  0  0  0  0  0  0  0  0  0
   11.4052   14.6294  -50.0891 H   0  0  0  0  0  0  0  0  0  0  0  0
   10.6845   15.9933  -52.4534 H   0  0  0  0  0  0  0  0  0  0  0  0
   11.8778   16.9234  -50.1319 H   0  0  0  0  0  0  0  0  0  0  0  0
  1  2  2  0
  1  6  1  0
  2  3  1  0
  3  4  2  0
  4  5  1  0
  4 10  1  0
  5  6  2  0
  5  8  1  0
  6  7  1  0
  8  9  2  0
  9 10  1  0
 11 10  1  0
 11 12  1  0
 11 16  1  0
 12 13  1  0
 12 14  1  0
 14 15  1  0
 14 17  1  0
 16 17  1  0
 17 18  1  0
 18 19  1  0
 19 20  1  0
 20 21  2  0
 20 22  1  6
 20 23  1  0
 23 24  1  0
 24 25  2  0
 24 26  1  6
 24 27  1  0
 27 28  1  0
 36 28  1  0
 29 31  1  0
 29 36  1  0
 31 30  1  0
 31 33  1  0
 33 32  1  0
 33 35  1  0
 35 34  1  0
 35 36  1  0
  2 37  1  0
  7 38  1  0
  7 39  1  0
  9 40  1  0
 11 41  1  6
 12 42  1  1
 13 43  1  0
 14 44  1  1
 15 45  1  0
 17 46  1  6
 18 47  1  0
 18 48  1  0
 28 49  1  0
 28 50  1  0
 30 51  1  0
 31 52  1  1
 32 53  1  0
 33 54  1  6
 34 55  1  0
 35 56  1  6
 36 57  1  1
M  CHG  2  22  -1  26  -1
M  END
>  <filename_input>  (1) 
7R3D_APR_docked.sdf

>  <pdb_id>  (1) 
7R3D_APR

>  <pose_rank>  (1) 
0

>  <num_atoms_heavy>  (1) 
36

>  <num_torsions>  (1) 
9

>  <pose>  (1) 
[15.778290720308378, 22.012421219875087, -52.80817157068569, 4.51338390832869, 3.032194958489747, 2.854704342725143, -6.185443985999402, -0.068262790407596, 0.2901602518627072, -0.34009732725317277, -1.0615257390789166, 1.180297271392403, -1.40839550823595, 0.30468594027044255, 0.7513867992534308]

>  <energy>  (1) 
-956.4700866038756

>  <inter_energy>  (1) 
-962.5678326228931

>  <intra_energy>  (1) 
8.675274913773661

>  <rmsd>  (1) 
0.602952

>  <sdf_rank>  (1) 
0

$$$$

     RDKit          3D

 57 60  0  0  0  0  0  0  0  0999 V2000
   19.5626   27.5197  -49.2377 N   0  0  0  0  0  0  0  0  0  0  0  0
   19.8967   26.9309  -50.3932 C   0  0  0  0  0  0  0  0  0  0  0  0
   19.4139   25.8269  -50.9498 N   0  0  0  0  0  0  0  0  0  0  0  0
   18.4664   25.2803  -50.1712 C   0  0  0  0  0  0  0  0  0  0  0  0
   18.0078   25.7651  -48.9635 C   0  0  0  0  0  0  0  0  0  0  0  0
   18.5870   26.9508  -48.4866 C   0  0  0  0  0  0  0  0  0  0  0  0
   18.2300   27.5454  -47.3539 N   0  0  0  0  0  0  0  0  0  0  0  0
   17.0272   24.9212  -48.4612 N   0  0  0  0  0  0  0  0  0  0  0  0
   16.9154   23.9645  -49.3455 C   0  0  0  0  0  0  0  0  0  0  0  0
   17.7570   24.1369  -50.4054 N   0  0  0  0  0  0  0  0  0  0  0  0
   17.8730   23.2844  -51.5671 C   0  0  1  0  0  0  0  0  0  0  0  0
   18.6885   22.0233  -51.3412 C   0  0  2  0  0  0  0  0  0  0  0  0
   20.0538   22.3672  -51.4297 O   0  0  0  0  0  0  0  0  0  0  0  0
   18.1470   21.1264  -52.4554 C   0  0  2  0  0  0  0  0  0  0  0  0
   18.7777   21.3967  -53.7007 O   0  0  0  0  0  0  0  0  0  0  0  0
   16.5859   22.8282  -51.8965 O   0  0  0  0  0  0  0  0  0  0  0  0
   16.6681   21.5264  -52.5376 C   0  0  2  0  0  0  0  0  0  0  0  0
   15.7023   20.5842  -51.8704 C   0  0  0  0  0  0  0  0  0  0  0  0
   14.5430   21.3494  -51.4201 O   0  0  0  0  0  0  0  0  0  0  0  0
   13.6135   20.7518  -50.2828 P   0  0  2  0  0  0  0  0  0  0  0  0
   13.2175   21.8505  -49.3559 O   0  0  0  0  0  0  0  0  0  0  0  0
   14.2179   19.5168  -49.6841 O   0  0  0  0  0  0  0  0  0  0  0  0
   12.3978   20.2572  -51.2047 O   0  0  0  0  0  0  0  0  0  0  0  0
   12.2275   19.0789  -52.2684 P   0  0  1  0  0  0  0  0  0  0  0  0
   11.6148   19.6083  -53.5351 O   0  0  0  0  0  0  0  0  0  0  0  0
   13.5405   18.3599  -52.3478 O   0  0  0  0  0  0  0  0  0  0  0  0
   11.1594   18.1224  -51.6120 O   0  0  0  0  0  0  0  0  0  0  0  0
   11.2093   16.7010  -51.8413 C   0  0  0  0  0  0  0  0  0  0  0  0
    9.8957   14.6954  -51.7244 O   0  0  0  0  0  0  0  0  0  0  0  0
   10.1686   12.9703  -50.1998 O   0  0  0  0  0  0  0  0  0  0  0  0
    9.4036   14.0968  -50.5459 C   0  0  1  0  0  0  0  0  0  0  0  0
    8.5843   15.0308  -48.4213 O   0  0  0  0  0  0  0  0  0  0  0  0
    9.4887   15.2001  -49.4915 C   0  0  2  0  0  0  0  0  0  0  0  0
    7.8103   16.7577  -50.4258 O   0  0  0  0  0  0  0  0  0  0  0  0
    9.1954   16.4693  -50.2882 C   0  0  2  0  0  0  0  0  0  0  0  0
    9.8300   16.1365  -51.6441 C   0  0  1  0  0  0  0  0  0  0  0  0
   20.6881   27.4369  -50.9656 H   0  0  0  0  0  0  0  0  0  0  0  0
   17.4916   27.1328  -46.7662 H   0  0  0  0  0  0  0  0  0  0  0  0
   18.6915   28.4191  -47.0632 H   0  0  0  0  0  0  0  0  0  0  0  0
   16.2214   23.1168  -49.2461 H   0  0  0  0  0  0  0  0  0  0  0  0
   18.3671   23.8925  -52.3392 H   0  0  0  0  0  0  0  0  0  0  0  0
   18.6089   21.5181  -50.3673 H   0  0  0  0  0  0  0  0  0  0  0  0
   20.4300   22.4619  -50.5188 H   0  0  0  0  0  0  0  0  0  0  0  0
   18.3181   20.0596  -52.2488 H   0  0  0  0  0  0  0  0  0  0  0  0
   19.6754   21.7816  -53.5393 H   0  0  0  0  0  0  0  0  0  0  0  0
   16.3683   21.5162  -53.5959 H   0  0  0  0  0  0  0  0  0  0  0  0
   15.3822   19.8129  -52.5865 H   0  0  0  0  0  0  0  0  0  0  0  0
   16.1862   20.0942  -51.0127 H   0  0  0  0  0  0  0  0  0  0  0  0
   11.5476   16.5028  -52.8691 H   0  0  0  0  0  0  0  0  0  0  0  0
   11.9127   16.2306  -51.1386 H   0  0  0  0  0  0  0  0  0  0  0  0
   10.2191   12.8959  -49.2139 H   0  0  0  0  0  0  0  0  0  0  0  0
    8.3747   13.7234  -50.6549 H   0  0  0  0  0  0  0  0  0  0  0  0
    9.0686   15.1215  -47.5626 H   0  0  0  0  0  0  0  0  0  0  0  0
   10.4685   15.2119  -48.9917 H   0  0  0  0  0  0  0  0  0  0  0  0
    7.4003   16.8430  -49.5288 H   0  0  0  0  0  0  0  0  0  0  0  0
    9.5889   17.3719  -49.7979 H   0  0  0  0  0  0  0  0  0  0  0  0
    9.2108   16.5931  -52.4303 H   0  0  0  0  0  0  0  0  0  0  0  0
  1  2  2  0
  1  6  1  0
  2  3  1  0
  3  4  2  0
  4  5  1  0
  4 10  1  0
  5  6  2  0
  5  8  1  0
  6  7  1  0
  8  9  2  0
  9 10  1  0
 11 10  1  0
 11 12  1  0
 11 16  1  0
 12 13  1  0
 12 14  1  0
 14 15  1  0
 14 17  1  0
 16 17  1  0
 17 18  1  0
 18 19  1  0
 19 20  1  0
 20 21  2  0
 20 22  1  1
 20 23  1  0
 23 24  1  0
 24 25  2  0
 24 26  1  6
 24 27  1  0
 27 28  1  0
 36 28  1  0
 29 31  1  0
 29 36  1  0
 31 30  1  0
 31 33  1  0
 33 32  1  0
 33 35  1  0
 35 34  1  0
 35 36  1  0
  2 37  1  0
  7 38  1  0
  7 39  1  0
  9 40  1  0
 11 41  1  6
 12 42  1  1
 13 43  1  0
 14 44  1  1
 15 45  1  0
 17 46  1  6
 18 47  1  0
 18 48  1  0
 28 49  1  0
 28 50  1  0
 30 51  1  0
 31 52  1  6
 32 53  1  0
 33 54  1  1
 34 55  1  0
 35 56  1  1
 36 57  1  6
M  CHG  2  22  -1  26  -1
M  END
>  <filename_input>  (2) 
7R3D_APR_docked.sdf

>  <pdb_id>  (2) 
7R3D_APR

>  <pose_rank>  (2) 
1

>  <num_atoms_heavy>  (2) 
36

>  <num_torsions>  (2) 
9

>  <pose>  (2) 
[15.702329579788778, 20.584196643852575, -51.8704426878259, 3.4225170829098883, 2.113244616720615, -1.8011209192693107, 1.7866475879495494, -0.468074040364041, 0.13462945075445495, -0.6414807258188776, -2.3270907996379497, -3.7038347410422503, -1.1241406392695292, 0.46919743123971086, 2.2260092453479023]

>  <energy>  (2) 
-913.1332190300812

>  <inter_energy>  (2) 
-919.9099143457297

>  <intra_energy>  (2) 
13.210243154661953

>  <rmsd>  (2) 
2.06152

>  <sdf_rank>  (2) 
0

$$$$

     RDKit          3D

 57 60  0  0  0  0  0  0  0  0999 V2000
    9.4290   16.2808  -49.6764 N   0  0  0  0  0  0  0  0  0  0  0  0
    9.1965   17.5890  -49.8444 C   0  0  0  0  0  0  0  0  0  0  0  0
    9.7679   18.4486  -50.6788 N   0  0  0  0  0  0  0  0  0  0  0  0
   10.7096   17.8376  -51.4155 C   0  0  0  0  0  0  0  0  0  0  0  0
   11.0616   16.5043  -51.3663 C   0  0  0  0  0  0  0  0  0  0  0  0
   10.3733   15.6924  -50.4521 C   0  0  0  0  0  0  0  0  0  0  0  0
   10.5884   14.3893  -50.3115 N   0  0  0  0  0  0  0  0  0  0  0  0
   12.0776   16.2535  -52.2777 N   0  0  0  0  0  0  0  0  0  0  0  0
   12.3201   17.4071  -52.8436 C   0  0  0  0  0  0  0  0  0  0  0  0
   11.5144   18.3989  -52.3655 N   0  0  0  0  0  0  0  0  0  0  0  0
   11.4983   19.7813  -52.7881 C   0  0  1  0  0  0  0  0  0  0  0  0
   11.7773   20.7800  -51.6785 C   0  0  2  0  0  0  0  0  0  0  0  0
   10.5832   20.9655  -50.9506 O   0  0  0  0  0  0  0  0  0  0  0  0
   12.2651   21.9821  -52.4886 C   0  0  2  0  0  0  0  0  0  0  0  0
   11.1805   22.7457  -53.0005 O   0  0  0  0  0  0  0  0  0  0  0  0
   12.5440   19.9623  -53.7085 O   0  0  0  0  0  0  0  0  0  0  0  0
   13.0238   21.3331  -53.6535 C   0  0  2  0  0  0  0  0  0  0  0  0
   14.5238   21.3279  -53.5291 C   0  0  0  0  0  0  0  0  0  0  0  0
   14.8734   21.4623  -52.1177 O   0  0  0  0  0  0  0  0  0  0  0  0
   16.3733   21.2202  -51.6637 P   0  0  2  0  0  0  0  0  0  0  0  0
   16.9290   20.0672  -52.4284 O   0  0  0  0  0  0  0  0  0  0  0  0
   16.4868   21.1864  -50.1686 O   0  0  0  0  0  0  0  0  0  0  0  0
   16.9929   22.6237  -52.1311 O   0  0  0  0  0  0  0  0  0  0  0  0
   17.7919   23.1002  -53.4286 P   0  0  1  0  0  0  0  0  0  0  0  0
   18.4151   21.9179  -54.1170 O   0  0  0  0  0  0  0  0  0  0  0  0
   16.8750   23.9903  -54.2121 O   0  0  0  0  0  0  0  0  0  0  0  0
   18.9764   23.9666  -52.8517 O   0  0  0  0  0  0  0  0  0  0  0  0
   18.7151   25.2271  -52.2048 C   0  0  0  0  0  0  0  0  0  0  0  0
   20.0833   26.0788  -50.4260 O   0  0  0  0  0  0  0  0  0  0  0  0
   20.0767   28.2517  -49.6176 O   0  0  0  0  0  0  0  0  0  0  0  0
   19.6535   26.9317  -49.3880 C   0  0  1  0  0  0  0  0  0  0  0  0
   17.5330   27.1117  -48.1518 O   0  0  0  0  0  0  0  0  0  0  0  0
   18.1305   26.8034  -49.3927 C   0  0  2  0  0  0  0  0  0  0  0  0
   17.9398   24.4393  -48.6922 O   0  0  0  0  0  0  0  0  0  0  0  0
   17.9030   25.3458  -49.7866 C   0  0  2  0  0  0  0  0  0  0  0  0
   19.0708   25.1002  -50.7497 C   0  0  1  0  0  0  0  0  0  0  0  0
    8.4169   18.0138  -49.1950 H   0  0  0  0  0  0  0  0  0  0  0  0
   11.3001   13.9196  -50.8891 H   0  0  0  0  0  0  0  0  0  0  0  0
   10.0434   13.8485  -49.6249 H   0  0  0  0  0  0  0  0  0  0  0  0
   13.0867   17.5605  -53.6174 H   0  0  0  0  0  0  0  0  0  0  0  0
   10.4882   19.9638  -53.1837 H   0  0  0  0  0  0  0  0  0  0  0  0
   12.5142   20.5108  -50.9075 H   0  0  0  0  0  0  0  0  0  0  0  0
   10.7797   20.9349  -49.9808 H   0  0  0  0  0  0  0  0  0  0  0  0
   12.8690   22.6731  -51.8821 H   0  0  0  0  0  0  0  0  0  0  0  0
   10.6539   23.1164  -52.2485 H   0  0  0  0  0  0  0  0  0  0  0  0
   12.8298   21.9240  -54.5608 H   0  0  0  0  0  0  0  0  0  0  0  0
   14.9253   20.3822  -53.9221 H   0  0  0  0  0  0  0  0  0  0  0  0
   14.9521   22.1622  -54.1040 H   0  0  0  0  0  0  0  0  0  0  0  0
   19.3260   26.0156  -52.6685 H   0  0  0  0  0  0  0  0  0  0  0  0
   17.6527   25.4917  -52.3111 H   0  0  0  0  0  0  0  0  0  0  0  0
   20.2227   28.7069  -48.7507 H   0  0  0  0  0  0  0  0  0  0  0  0
   20.0768   26.6598  -48.4099 H   0  0  0  0  0  0  0  0  0  0  0  0
   18.1226   26.8074  -47.4170 H   0  0  0  0  0  0  0  0  0  0  0  0
   17.6627   27.5226  -50.0811 H   0  0  0  0  0  0  0  0  0  0  0  0
   17.9192   24.9468  -47.8425 H   0  0  0  0  0  0  0  0  0  0  0  0
   16.9031   25.1784  -50.2135 H   0  0  0  0  0  0  0  0  0  0  0  0
   19.4061   24.0607  -50.6191 H   0  0  0  0  0  0  0  0  0  0  0  0
  1  2  2  0
  1  6  1  0
  2  3  1  0
  3  4  2  0
  4  5  1  0
  4 10  1  0
  5  6  2  0
  5  8  1  0
  6  7  1  0
  8  9  2  0
  9 10  1  0
 11 10  1  0
 11 12  1  0
 11 16  1  0
 12 13  1  0
 12 14  1  0
 14 15  1  0
 14 17  1  0
 16 17  1  0
 17 18  1  0
 18 19  1  0
 19 20  1  0
 20 21  2  0
 20 22  1  1
 20 23  1  0
 23 24  1  0
 24 25  2  0
 24 26  1  6
 24 27  1  0
 27 28  1  0
 36 28  1  0
 29 31  1  0
 29 36  1  0
 31 30  1  0
 31 33  1  0
 33 32  1  0
 33 35  1  0
 35 34  1  0
 35 36  1  0
  2 37  1  0
  7 38  1  0
  7 39  1  0
  9 40  1  0
 11 41  1  6
 12 42  1  1
 13 43  1  0
 14 44  1  1
 15 45  1  0
 17 46  1  6
 18 47  1  0
 18 48  1  0
 28 49  1  0
 28 50  1  0
 30 51  1  0
 31 52  1  1
 32 53  1  0
 33 54  1  6
 34 55  1  0
 35 56  1  6
 36 57  1  6
M  CHG  2  22  -1  26  -1
M  END
>  <filename_input>  (3) 
7R3D_APR_docked.sdf

>  <pdb_id>  (3) 
7R3D_APR

>  <pose_rank>  (3) 
2

>  <num_atoms_heavy>  (3) 
36

>  <num_torsions>  (3) 
9

>  <pose>  (3) 
[14.523838679705351, 21.32791111004418, -53.52911853753947, -0.3923386687689857, 0.4785556812094285, -3.5772766020568274, -0.46124108868522745, -1.2019961951926466, -0.4190061184888623, 2.511022494647994, 1.0266712897022174, 4.501379119978282, 6.559458100172255, 5.159935709723201, 1.0871238414614373]

>  <energy>  (3) 
-652.002945336994

>  <inter_energy>  (3) 
-697.2395932698305

>  <intra_energy>  (3) 
47.81188256248694

>  <rmsd>  (3) 
10.4045

>  <sdf_rank>  (3) 
0

$$$$

     RDKit          3D

 57 60  0  0  0  0  0  0  0  0999 V2000
   18.4499   27.0727  -48.2213 N   0  0  0  0  0  0  0  0  0  0  0  0
   17.7349   25.9474  -48.0943 C   0  0  0  0  0  0  0  0  0  0  0  0
   17.7354   24.8560  -48.8497 N   0  0  0  0  0  0  0  0  0  0  0  0
   18.5971   24.9880  -49.8708 C   0  0  0  0  0  0  0  0  0  0  0  0
   19.4058   26.0745  -50.1347 C   0  0  0  0  0  0  0  0  0  0  0  0
   19.3256   27.1631  -49.2531 C   0  0  0  0  0  0  0  0  0  0  0  0
   20.0593   28.2642  -49.3681 N   0  0  0  0  0  0  0  0  0  0  0  0
   20.1531   25.8359  -51.2795 N   0  0  0  0  0  0  0  0  0  0  0  0
   19.7911   24.6451  -51.6806 C   0  0  0  0  0  0  0  0  0  0  0  0
   18.8580   24.0826  -50.8594 N   0  0  0  0  0  0  0  0  0  0  0  0
   18.2632   22.7719  -50.9938 C   0  0  1  0  0  0  0  0  0  0  0  0
   17.6784   22.2133  -49.7083 C   0  0  2  0  0  0  0  0  0  0  0  0
   18.7379   21.6786  -48.9455 O   0  0  0  0  0  0  0  0  0  0  0  0
   16.6730   21.2035  -50.2639 C   0  0  2  0  0  0  0  0  0  0  0  0
   17.2972   19.9709  -50.5996 O   0  0  0  0  0  0  0  0  0  0  0  0
   17.1704   22.8828  -51.8695 O   0  0  0  0  0  0  0  0  0  0  0  0
   16.1679   21.8822  -51.5437 C   0  0  2  0  0  0  0  0  0  0  0  0
   14.8213   22.5465  -51.4387 C   0  0  0  0  0  0  0  0  0  0  0  0
   14.0084   21.8000  -50.4824 O   0  0  0  0  0  0  0  0  0  0  0  0
   13.2060   20.5245  -50.9760 P   0  0  2  0  0  0  0  0  0  0  0  0
   13.2775   19.4717  -49.9227 O   0  0  0  0  0  0  0  0  0  0  0  0
   13.6012   20.1440  -52.3718 O   0  0  0  0  0  0  0  0  0  0  0  0
   11.7494   21.1872  -51.0848 O   0  0  0  0  0  0  0  0  0  0  0  0
   10.3848   20.7443  -51.7850 P   0  0  1  0  0  0  0  0  0  0  0  0
    9.2146   21.3853  -51.0922 O   0  0  0  0  0  0  0  0  0  0  0  0
   10.5540   20.9551  -53.2595 O   0  0  0  0  0  0  0  0  0  0  0  0
   10.2917   19.1967  -51.4969 O   0  0  0  0  0  0  0  0  0  0  0  0
    9.2388   18.6675  -50.6682 C   0  0  0  0  0  0  0  0  0  0  0  0
    8.7220   16.9283  -49.0967 O   0  0  0  0  0  0  0  0  0  0  0  0
    6.9841   15.4035  -49.2687 O   0  0  0  0  0  0  0  0  0  0  0  0
    8.3670   15.6017  -49.4186 C   0  0  1  0  0  0  0  0  0  0  0  0
    9.0722   14.0801  -51.2198 O   0  0  0  0  0  0  0  0  0  0  0  0
    8.8235   15.4236  -50.8663 C   0  0  2  0  0  0  0  0  0  0  0  0
   11.2667   15.5971  -50.5252 O   0  0  0  0  0  0  0  0  0  0  0  0
   10.0888   16.2750  -50.9419 C   0  0  2  0  0  0  0  0  0  0  0  0
    9.7443   17.4256  -49.9884 C   0  0  1  0  0  0  0  0  0  0  0  0
   17.0455   25.9242  -47.2375 H   0  0  0  0  0  0  0  0  0  0  0  0
   20.7314   28.3566  -50.1432 H   0  0  0  0  0  0  0  0  0  0  0  0
   19.9563   29.0257  -48.6823 H   0  0  0  0  0  0  0  0  0  0  0  0
   20.1933   24.1528  -52.5783 H   0  0  0  0  0  0  0  0  0  0  0  0
   19.0713   22.1075  -51.3337 H   0  0  0  0  0  0  0  0  0  0  0  0
   17.1825   22.9088  -49.0153 H   0  0  0  0  0  0  0  0  0  0  0  0
   18.5352   21.7809  -47.9819 H   0  0  0  0  0  0  0  0  0  0  0  0
   15.8841   20.9611  -49.5367 H   0  0  0  0  0  0  0  0  0  0  0  0
   17.5417   19.4882  -49.7706 H   0  0  0  0  0  0  0  0  0  0  0  0
   16.0275   21.1065  -52.3109 H   0  0  0  0  0  0  0  0  0  0  0  0
   14.9451   23.5827  -51.0908 H   0  0  0  0  0  0  0  0  0  0  0  0
   14.3296   22.5581  -52.4225 H   0  0  0  0  0  0  0  0  0  0  0  0
    8.9515   19.4132  -49.9123 H   0  0  0  0  0  0  0  0  0  0  0  0
    8.3592   18.4283  -51.2839 H   0  0  0  0  0  0  0  0  0  0  0  0
    6.7578   15.3711  -48.3055 H   0  0  0  0  0  0  0  0  0  0  0  0
    8.8373   14.8614  -48.7548 H   0  0  0  0  0  0  0  0  0  0  0  0
    9.1730   13.5361  -50.3988 H   0  0  0  0  0  0  0  0  0  0  0  0
    8.0446   15.7300  -51.5802 H   0  0  0  0  0  0  0  0  0  0  0  0
   11.3030   15.5762  -49.5361 H   0  0  0  0  0  0  0  0  0  0  0  0
   10.3286   16.5784  -51.9717 H   0  0  0  0  0  0  0  0  0  0  0  0
   10.6680   17.7282  -49.4734 H   0  0  0  0  0  0  0  0  0  0  0  0
  1  2  2  0
  1  6  1  0
  2  3  1  0
  3  4  2  0
  4  5  1  0
  4 10  1  0
  5  6  2  0
  5  8  1  0
  6  7  1  0
  8  9  2  0
  9 10  1  0
 11 10  1  0
 11 12  1  0
 11 16  1  0
 12 13  1  0
 12 14  1  0
 14 15  1  0
 14 17  1  0
 16 17  1  0
 17 18  1  0
 18 19  1  0
 19 20  1  0
 20 21  2  0
 20 22  1  6
 20 23  1  0
 23 24  1  0
 24 25  2  0
 24 26  1  6
 24 27  1  0
 27 28  1  0
 36 28  1  0
 29 31  1  0
 29 36  1  0
 31 30  1  0
 31 33  1  0
 33 32  1  0
 33 35  1  0
 35 34  1  0
 35 36  1  0
  2 37  1  0
  7 38  1  0
  7 39  1  0
  9 40  1  0
 11 41  1  6
 12 42  1  1
 13 43  1  0
 14 44  1  1
 15 45  1  0
 17 46  1  6
 18 47  1  0
 18 48  1  0
 28 49  1  0
 28 50  1  0
 30 51  1  0
 31 52  1  1
 32 53  1  0
 33 54  1  6
 34 55  1  0
 35 56  1  6
 36 57  1  1
M  CHG  2  22  -1  26  -1
M  END
>  <filename_input>  (4) 
7R3D_APR_docked.sdf

>  <pdb_id>  (4) 
7R3D_APR

>  <pose_rank>  (4) 
3

>  <num_atoms_heavy>  (4) 
36

>  <num_torsions>  (4) 
9

>  <pose>  (4) 
[14.82133183840979, 22.546514437941333, -51.43865653064849, 0.4552421967416084, -0.13555041996810316, -1.0417600268914586, 30.010850536251123, 22.524327897087886, 14.009643179497665, -32.041979820413076, 62.15340673081206, 152.08199427649842, 34.876796486936534, -74.84704446139042, 140.2901286684722]

>  <energy>  (4) 
-806.8040269432059

>  <inter_energy>  (4) 
-843.7989904255803

>  <intra_energy>  (4) 
36.80867701331722

>  <rmsd>  (4) 
2.29469

>  <sdf_rank>  (4) 
0

$$$$

     RDKit          3D

 57 60  0  0  0  0  0  0  0  0999 V2000
    7.2371   16.2233  -46.7255 N   0  0  0  0  0  0  0  0  0  0  0  0
    8.5332   16.4661  -46.9596 C   0  0  0  0  0  0  0  0  0  0  0  0
    9.2076   16.4264  -48.1021 N   0  0  0  0  0  0  0  0  0  0  0  0
    8.4005   16.0738  -49.1156 C   0  0  0  0  0  0  0  0  0  0  0  0
    7.0505   15.7985  -49.0398 C   0  0  0  0  0  0  0  0  0  0  0  0
    6.4471   15.8895  -47.7763 C   0  0  0  0  0  0  0  0  0  0  0  0
    5.1549   15.6761  -47.5562 N   0  0  0  0  0  0  0  0  0  0  0  0
    6.5676   15.4692  -50.2985 N   0  0  0  0  0  0  0  0  0  0  0  0
    7.6046   15.5438  -51.0915 C   0  0  0  0  0  0  0  0  0  0  0  0
    8.7385   15.9144  -50.4292 N   0  0  0  0  0  0  0  0  0  0  0  0
   10.0499   16.1165  -51.0028 C   0  0  1  0  0  0  0  0  0  0  0  0
   10.0567   16.9403  -52.2787 C   0  0  2  0  0  0  0  0  0  0  0  0
    9.6963   16.0910  -53.3460 O   0  0  0  0  0  0  0  0  0  0  0  0
   11.4978   17.4524  -52.2835 C   0  0  2  0  0  0  0  0  0  0  0  0
   12.3963   16.4881  -52.8167 O   0  0  0  0  0  0  0  0  0  0  0  0
   10.8101   16.8627  -50.0870 O   0  0  0  0  0  0  0  0  0  0  0  0
   11.7997   17.6588  -50.7935 C   0  0  2  0  0  0  0  0  0  0  0  0
   11.7292   19.0815  -50.3074 C   0  0  0  0  0  0  0  0  0  0  0  0
   12.9962   19.7402  -50.6130 O   0  0  0  0  0  0  0  0  0  0  0  0
   12.9847   21.2299  -51.1561 P   0  0  2  0  0  0  0  0  0  0  0  0
   12.2197   22.0850  -50.2040 O   0  0  0  0  0  0  0  0  0  0  0  0
   12.5944   21.2746  -52.6035 O   0  0  0  0  0  0  0  0  0  0  0  0
   14.5625   21.5136  -51.1058 O   0  0  0  0  0  0  0  0  0  0  0  0
   15.8543   20.5762  -51.1427 P   0  0  1  0  0  0  0  0  0  0  0  0
   15.8412   19.6293  -49.9750 O   0  0  0  0  0  0  0  0  0  0  0  0
   15.9534   20.0119  -52.5279 O   0  0  0  0  0  0  0  0  0  0  0  0
   17.0554   21.5706  -50.9082 O   0  0  0  0  0  0  0  0  0  0  0  0
   16.8613   22.7938  -50.1723 C   0  0  0  0  0  0  0  0  0  0  0  0
   19.2266   22.9333  -50.5562 O   0  0  0  0  0  0  0  0  0  0  0  0
   20.2668   24.1072  -52.2636 O   0  0  0  0  0  0  0  0  0  0  0  0
   19.9416   24.1005  -50.8967 C   0  0  1  0  0  0  0  0  0  0  0  0
   19.6739   26.4623  -50.2586 O   0  0  0  0  0  0  0  0  0  0  0  0
   19.0045   25.2475  -50.5193 C   0  0  2  0  0  0  0  0  0  0  0  0
   18.9862   24.9401  -48.0656 O   0  0  0  0  0  0  0  0  0  0  0  0
   18.2840   24.7183  -49.2815 C   0  0  2  0  0  0  0  0  0  0  0  0
   18.1835   23.2213  -49.5988 C   0  0  1  0  0  0  0  0  0  0  0  0
    9.1264   16.7387  -46.0743 H   0  0  0  0  0  0  0  0  0  0  0  0
    4.5345   15.4214  -48.3379 H   0  0  0  0  0  0  0  0  0  0  0  0
    4.7731   15.7654  -46.6037 H   0  0  0  0  0  0  0  0  0  0  0  0
    7.5671   15.3317  -52.1702 H   0  0  0  0  0  0  0  0  0  0  0  0
   10.4388   15.1123  -51.2272 H   0  0  0  0  0  0  0  0  0  0  0  0
    9.3498   17.7789  -52.3619 H   0  0  0  0  0  0  0  0  0  0  0  0
    9.3361   15.2423  -52.9853 H   0  0  0  0  0  0  0  0  0  0  0  0
   11.6145   18.3560  -52.8999 H   0  0  0  0  0  0  0  0  0  0  0  0
   12.8434   16.0082  -52.0752 H   0  0  0  0  0  0  0  0  0  0  0  0
   12.8430   17.3620  -50.6106 H   0  0  0  0  0  0  0  0  0  0  0  0
   10.9065   19.6065  -50.8150 H   0  0  0  0  0  0  0  0  0  0  0  0
   11.5474   19.1001  -49.2227 H   0  0  0  0  0  0  0  0  0  0  0  0
   16.4790   23.5751  -50.8456 H   0  0  0  0  0  0  0  0  0  0  0  0
   16.1335   22.6348  -49.3629 H   0  0  0  0  0  0  0  0  0  0  0  0
   21.2510   24.1273  -52.3685 H   0  0  0  0  0  0  0  0  0  0  0  0
   20.9049   24.1789  -50.3714 H   0  0  0  0  0  0  0  0  0  0  0  0
   19.7472   26.5953  -49.2803 H   0  0  0  0  0  0  0  0  0  0  0  0
   18.3258   25.5080  -51.3448 H   0  0  0  0  0  0  0  0  0  0  0  0
   18.3878   24.7511  -47.2998 H   0  0  0  0  0  0  0  0  0  0  0  0
   17.3226   25.2240  -49.1082 H   0  0  0  0  0  0  0  0  0  0  0  0
   18.2873   22.6662  -48.6549 H   0  0  0  0  0  0  0  0  0  0  0  0
  1  2  2  0
  1  6  1  0
  2  3  1  0
  3  4  2  0
  4  5  1  0
  4 10  1  0
  5  6  2  0
  5  8  1  0
  6  7  1  0
  8  9  2  0
  9 10  1  0
 11 10  1  0
 11 12  1  0
 11 16  1  0
 12 13  1  0
 12 14  1  0
 14 15  1  0
 14 17  1  0
 16 17  1  0
 17 18  1  0
 18 19  1  0
 19 20  1  0
 20 21  2  0
 20 22  1  6
 20 23  1  0
 23 24  1  0
 24 25  2  0
 24 26  1  6
 24 27  1  0
 27 28  1  0
 36 28  1  0
 29 31  1  0
 29 36  1  0
 31 30  1  0
 31 33  1  0
 33 32  1  0
 33 35  1  0
 35 34  1  0
 35 36  1  0
  2 37  1  0
  7 38  1  0
  7 39  1  0
  9 40  1  0
 11 41  1  6
 12 42  1  1
 13 43  1  0
 14 44  1  6
 15 45  1  0
 17 46  1  6
 18 47  1  0
 18 48  1  0
 28 49  1  0
 28 50  1  0
 30 51  1  0
 31 52  1  1
 32 53  1  0
 33 54  1  6
 34 55  1  0
 35 56  1  1
 36 57  1  1
M  CHG  2  22  -1  26  -1
M  END
>  <filename_input>  (5) 
7R3D_APR_docked.sdf

>  <pdb_id>  (5) 
7R3D_APR

>  <pose_rank>  (5) 
4

>  <num_atoms_heavy>  (5) 
36

>  <num_torsions>  (5) 
9

>  <pose>  (5) 
[11.729203099264593, 19.08152573327309, -50.30743344338681, -1.9334668981136764, 1.0959030202288533, -0.5263939080888697, 35.40720595587966, 1.7205871022476722, 5.340133481261699, -2.1292212866709157, -28.267624684372315, -15.037219607315285, -35.76776987409356, -44.3655473681175, -19.215940399192313]

>  <energy>  (5) 
-718.5304485945371

>  <inter_energy>  (5) 
-760.0413544853618

>  <intra_energy>  (5) 
38.731487186298054

>  <rmsd>  (5) 
11.2783

>  <sdf_rank>  (5) 
0

$$$$

     RDKit          3D

 57 60  0  0  0  0  0  0  0  0999 V2000
    8.4372   16.5795  -49.5479 N   0  0  0  0  0  0  0  0  0  0  0  0
    8.6974   17.8793  -49.7390 C   0  0  0  0  0  0  0  0  0  0  0  0
    9.6398   18.4530  -50.4768 N   0  0  0  0  0  0  0  0  0  0  0  0
   10.4034   17.5243  -51.0743 C   0  0  0  0  0  0  0  0  0  0  0  0
   10.2618   16.1547  -50.9837 C   0  0  0  0  0  0  0  0  0  0  0  0
    9.2164   15.6693  -50.1835 C   0  0  0  0  0  0  0  0  0  0  0  0
    8.9457   14.3791  -50.0220 N   0  0  0  0  0  0  0  0  0  0  0  0
   11.2431   15.5306  -51.7410 N   0  0  0  0  0  0  0  0  0  0  0  0
   11.9452   16.5049  -52.2585 C   0  0  0  0  0  0  0  0  0  0  0  0
   11.4750   17.7330  -51.8949 N   0  0  0  0  0  0  0  0  0  0  0  0
   11.9966   19.0169  -52.3063 C   0  0  1  0  0  0  0  0  0  0  0  0
   11.2954   20.2092  -51.6792 C   0  0  2  0  0  0  0  0  0  0  0  0
   10.1028   20.4388  -52.3971 O   0  0  0  0  0  0  0  0  0  0  0  0
   12.3773   21.2822  -51.8114 C   0  0  2  0  0  0  0  0  0  0  0  0
   12.3772   21.8719  -53.1051 O   0  0  0  0  0  0  0  0  0  0  0  0
   13.3260   19.1043  -51.8608 O   0  0  0  0  0  0  0  0  0  0  0  0
   13.6777   20.4926  -51.6132 C   0  0  2  0  0  0  0  0  0  0  0  0
   14.3067   20.6084  -50.2506 C   0  0  0  0  0  0  0  0  0  0  0  0
   15.3329   19.5772  -50.1235 O   0  0  0  0  0  0  0  0  0  0  0  0
   16.6263   19.6534  -51.0378 P   0  0  2  0  0  0  0  0  0  0  0  0
   16.2505   19.2988  -52.4364 O   0  0  0  0  0  0  0  0  0  0  0  0
   17.7732   18.9151  -50.4142 O   0  0  0  0  0  0  0  0  0  0  0  0
   16.9482   21.2151  -50.8649 O   0  0  0  0  0  0  0  0  0  0  0  0
   17.4727   22.3504  -51.8573 P   0  0  1  0  0  0  0  0  0  0  0  0
   18.0914   21.7271  -53.0775 O   0  0  0  0  0  0  0  0  0  0  0  0
   16.3552   23.3332  -52.0372 O   0  0  0  0  0  0  0  0  0  0  0  0
   18.6419   23.0455  -51.0595 O   0  0  0  0  0  0  0  0  0  0  0  0
   18.3774   23.7305  -49.8201 C   0  0  0  0  0  0  0  0  0  0  0  0
   17.6769   25.8467  -48.9297 O   0  0  0  0  0  0  0  0  0  0  0  0
   18.6228   26.9496  -47.1231 O   0  0  0  0  0  0  0  0  0  0  0  0
   18.5281   26.8956  -48.5239 C   0  0  1  0  0  0  0  0  0  0  0  0
   20.6890   27.7098  -49.3750 O   0  0  0  0  0  0  0  0  0  0  0  0
   19.8699   26.5768  -49.1827 C   0  0  2  0  0  0  0  0  0  0  0  0
   19.2176   26.8708  -51.5500 O   0  0  0  0  0  0  0  0  0  0  0  0
   19.4656   25.9359  -50.5084 C   0  0  2  0  0  0  0  0  0  0  0  0
   18.1839   25.1921  -50.1138 C   0  0  1  0  0  0  0  0  0  0  0  0
    8.0317   18.5739  -49.2058 H   0  0  0  0  0  0  0  0  0  0  0  0
    9.5230   13.6688  -50.4943 H   0  0  0  0  0  0  0  0  0  0  0  0
    8.1585   14.0889  -49.4246 H   0  0  0  0  0  0  0  0  0  0  0  0
   12.8160   16.3517  -52.9129 H   0  0  0  0  0  0  0  0  0  0  0  0
   11.8634   19.0608  -53.3973 H   0  0  0  0  0  0  0  0  0  0  0  0
   10.9600   20.1273  -50.6348 H   0  0  0  0  0  0  0  0  0  0  0  0
    9.3575   20.5822  -51.7616 H   0  0  0  0  0  0  0  0  0  0  0  0
   12.2331   22.1064  -51.0973 H   0  0  0  0  0  0  0  0  0  0  0  0
   12.3771   22.8581  -53.0183 H   0  0  0  0  0  0  0  0  0  0  0  0
   14.4357   20.9029  -52.2966 H   0  0  0  0  0  0  0  0  0  0  0  0
   14.7637   21.6024  -50.1364 H   0  0  0  0  0  0  0  0  0  0  0  0
   13.5422   20.4767  -49.4708 H   0  0  0  0  0  0  0  0  0  0  0  0
   17.4672   23.3216  -49.3572 H   0  0  0  0  0  0  0  0  0  0  0  0
   19.2206   23.5942  -49.1271 H   0  0  0  0  0  0  0  0  0  0  0  0
   17.8364   26.5018  -46.7217 H   0  0  0  0  0  0  0  0  0  0  0  0
   18.1575   27.8864  -48.8256 H   0  0  0  0  0  0  0  0  0  0  0  0
   20.9551   28.0778  -48.4953 H   0  0  0  0  0  0  0  0  0  0  0  0
   20.4898   25.9242  -48.5504 H   0  0  0  0  0  0  0  0  0  0  0  0
   18.9846   27.7490  -51.1566 H   0  0  0  0  0  0  0  0  0  0  0  0
   20.2618   25.3032  -50.9277 H   0  0  0  0  0  0  0  0  0  0  0  0
   17.4920   25.2307  -50.9681 H   0  0  0  0  0  0  0  0  0  0  0  0
  1  2  2  0
  1  6  1  0
  2  3  1  0
  3  4  2  0
  4  5  1  0
  4 10  1  0
  5  6  2  0
  5  8  1  0
  6  7  1  0
  8  9  2  0
  9 10  1  0
 11 10  1  0
 11 12  1  0
 11 16  1  0
 12 13  1  0
 12 14  1  0
 14 15  1  0
 14 17  1  0
 16 17  1  0
 17 18  1  0
 18 19  1  0
 19 20  1  0
 20 21  2  0
 20 22  1  1
 20 23  1  0
 23 24  1  0
 24 25  2  0
 24 26  1  6
 24 27  1  0
 27 28  1  0
 36 28  1  0
 29 31  1  0
 29 36  1  0
 31 30  1  0
 31 33  1  0
 33 32  1  0
 33 35  1  0
 35 34  1  0
 35 36  1  0
  2 37  1  0
  7 38  1  0
  7 39  1  0
  9 40  1  0
 11 41  1  6
 12 42  1  1
 13 43  1  0
 14 44  1  1
 15 45  1  0
 17 46  1  6
 18 47  1  0
 18 48  1  0
 28 49  1  0
 28 50  1  0
 30 51  1  0
 31 52  1  6
 32 53  1  0
 33 54  1  1
 34 55  1  0
 35 56  1  6
 36 57  1  6
M  CHG  2  22  -1  26  -1
M  END
>  <filename_input>  (6) 
7R3D_APR_docked.sdf

>  <pdb_id>  (6) 
7R3D_APR

>  <pose_rank>  (6) 
5

>  <num_atoms_heavy>  (6) 
36

>  <num_torsions>  (6) 
9

>  <pose>  (6) 
[14.306709755612571, 20.608379102554174, -50.250625736187274, 0.6592594452391732, -3.7424857080710594, 1.9401993746519162, 2.064104563461976, -2.1806286363511114, -2.209198746221041, 1.9376838794088997, 0.26047462638390095, 4.563863472872179, 0.35853286194640427, 1.5214719376141461, 1.9321885797483676]

>  <energy>  (6) 
-785.5043696401139

>  <inter_energy>  (6) 
-857.8254018288472

>  <intra_energy>  (6) 
78.01096842418904

>  <rmsd>  (6) 
10.5575

>  <sdf_rank>  (6) 
0

$$$$

     RDKit          3D

 57 60  0  0  0  0  0  0  0  0999 V2000
   17.5909   27.2022  -48.6094 N   0  0  0  0  0  0  0  0  0  0  0  0
   16.7905   26.1307  -48.5407 C   0  0  0  0  0  0  0  0  0  0  0  0
   16.9617   24.9143  -49.0436 N   0  0  0  0  0  0  0  0  0  0  0  0
   18.1249   24.8375  -49.7098 C   0  0  0  0  0  0  0  0  0  0  0  0
   19.0564   25.8435  -49.8653 C   0  0  0  0  0  0  0  0  0  0  0  0
   18.7676   27.0824  -49.2731 C   0  0  0  0  0  0  0  0  0  0  0  0
   19.5797   28.1323  -49.3199 N   0  0  0  0  0  0  0  0  0  0  0  0
   20.1254   25.3804  -50.6194 N   0  0  0  0  0  0  0  0  0  0  0  0
   19.8294   24.1389  -50.9037 C   0  0  0  0  0  0  0  0  0  0  0  0
   18.6335   23.7557  -50.3703 N   0  0  0  0  0  0  0  0  0  0  0  0
   18.0197   22.4505  -50.4683 C   0  0  1  0  0  0  0  0  0  0  0  0
   17.3894   21.9550  -49.1784 C   0  0  2  0  0  0  0  0  0  0  0  0
   18.4175   21.4350  -48.3643 O   0  0  0  0  0  0  0  0  0  0  0  0
   16.3824   20.9398  -49.7210 C   0  0  2  0  0  0  0  0  0  0  0  0
   16.9940   19.6844  -49.9881 O   0  0  0  0  0  0  0  0  0  0  0  0
   16.9540   22.5431  -51.3788 O   0  0  0  0  0  0  0  0  0  0  0  0
   15.9254   21.5734  -51.0415 C   0  0  2  0  0  0  0  0  0  0  0  0
   14.5883   22.2634  -51.0023 C   0  0  0  0  0  0  0  0  0  0  0  0
   14.2568   22.7110  -52.3523 O   0  0  0  0  0  0  0  0  0  0  0  0
   13.5531   21.7022  -53.3530 P   0  0  2  0  0  0  0  0  0  0  0  0
   14.6015   20.9975  -54.1449 O   0  0  0  0  0  0  0  0  0  0  0  0
   12.4428   22.3734  -54.1053 O   0  0  0  0  0  0  0  0  0  0  0  0
   12.8520   20.7460  -52.2729 O   0  0  0  0  0  0  0  0  0  0  0  0
   11.6774   19.6675  -52.3511 P   0  0  1  0  0  0  0  0  0  0  0  0
   10.4147   20.2324  -51.7623 O   0  0  0  0  0  0  0  0  0  0  0  0
   11.6475   19.1453  -53.7559 O   0  0  0  0  0  0  0  0  0  0  0  0
   12.1524   18.5140  -51.3865 O   0  0  0  0  0  0  0  0  0  0  0  0
   11.2445   17.9418  -50.4255 C   0  0  0  0  0  0  0  0  0  0  0  0
   11.2196   15.6396  -51.1041 O   0  0  0  0  0  0  0  0  0  0  0  0
   11.3932   13.8002  -49.7035 O   0  0  0  0  0  0  0  0  0  0  0  0
   10.5195   14.5962  -50.4633 C   0  0  1  0  0  0  0  0  0  0  0  0
    8.3527   14.5147  -49.2989 O   0  0  0  0  0  0  0  0  0  0  0  0
    9.4821   15.3076  -49.5950 C   0  0  2  0  0  0  0  0  0  0  0  0
    8.0928   16.2972  -51.3857 O   0  0  0  0  0  0  0  0  0  0  0  0
    9.1132   16.5350  -50.4250 C   0  0  2  0  0  0  0  0  0  0  0  0
   10.4489   16.8617  -51.1039 C   0  0  1  0  0  0  0  0  0  0  0  0
   15.8528   26.2808  -47.9857 H   0  0  0  0  0  0  0  0  0  0  0  0
   20.4789   28.0660  -49.8179 H   0  0  0  0  0  0  0  0  0  0  0  0
   19.3103   29.0127  -48.8582 H   0  0  0  0  0  0  0  0  0  0  0  0
   20.4716   23.4784  -51.5047 H   0  0  0  0  0  0  0  0  0  0  0  0
   18.8252   21.7595  -50.7574 H   0  0  0  0  0  0  0  0  0  0  0  0
   16.8865   22.6866  -48.5288 H   0  0  0  0  0  0  0  0  0  0  0  0
   18.1774   21.5565  -47.4115 H   0  0  0  0  0  0  0  0  0  0  0  0
   15.5692   20.7406  -49.0075 H   0  0  0  0  0  0  0  0  0  0  0  0
   17.2128   19.2354  -49.1334 H   0  0  0  0  0  0  0  0  0  0  0  0
   15.7930   20.7691  -51.7801 H   0  0  0  0  0  0  0  0  0  0  0  0
   13.8195   21.5625  -50.6448 H   0  0  0  0  0  0  0  0  0  0  0  0
   14.6292   23.1249  -50.3196 H   0  0  0  0  0  0  0  0  0  0  0  0
   11.8134   17.5126  -49.5875 H   0  0  0  0  0  0  0  0  0  0  0  0
   10.5697   18.7184  -50.0362 H   0  0  0  0  0  0  0  0  0  0  0  0
   11.2253   13.9532  -48.7399 H   0  0  0  0  0  0  0  0  0  0  0  0
   10.0430   13.9037  -51.1728 H   0  0  0  0  0  0  0  0  0  0  0  0
    8.2490   14.4418  -48.3171 H   0  0  0  0  0  0  0  0  0  0  0  0
    9.8825   15.5540  -48.6006 H   0  0  0  0  0  0  0  0  0  0  0  0
    7.2416   16.0988  -50.9207 H   0  0  0  0  0  0  0  0  0  0  0  0
    8.6917   17.3445  -49.8111 H   0  0  0  0  0  0  0  0  0  0  0  0
   10.2328   17.2456  -52.1119 H   0  0  0  0  0  0  0  0  0  0  0  0
  1  2  2  0
  1  6  1  0
  2  3  1  0
  3  4  2  0
  4  5  1  0
  4 10  1  0
  5  6  2  0
  5  8  1  0
  6  7  1  0
  8  9  2  0
  9 10  1  0
 11 10  1  0
 11 12  1  0
 11 16  1  0
 12 13  1  0
 12 14  1  0
 14 15  1  0
 14 17  1  0
 16 17  1  0
 17 18  1  0
 18 19  1  0
 19 20  1  0
 20 21  2  0
 20 22  1  6
 20 23  1  0
 23 24  1  0
 24 25  2  0
 24 26  1  6
 24 27  1  0
 27 28  1  0
 36 28  1  0
 29 31  1  0
 29 36  1  0
 31 30  1  0
 31 33  1  0
 33 32  1  0
 33 35  1  0
 35 34  1  0
 35 36  1  0
  2 37  1  0
  7 38  1  0
  7 39  1  0
  9 40  1  0
 11 41  1  6
 12 42  1  1
 13 43  1  0
 14 44  1  1
 15 45  1  0
 17 46  1  6
 18 47  1  0
 18 48  1  0
 28 49  1  0
 28 50  1  0
 30 51  1  0
 31 52  1  6
 32 53  1  0
 33 54  1  1
 34 55  1  0
 35 56  1  1
 36 57  1  6
M  CHG  2  22  -1  26  -1
M  END
>  <filename_input>  (7) 
7R3D_APR_docked.sdf

>  <pdb_id>  (7) 
7R3D_APR

>  <pose_rank>  (7) 
6

>  <num_atoms_heavy>  (7) 
36

>  <num_torsions>  (7) 
9

>  <pose>  (7) 
[14.58825129329782, 22.263419992565257, -51.00233396165656, -3.1775687159859403, -0.06417326356686297, 0.5181483472226855, -3.9108868649163875, -2.964807535968048, -1.8788264971459037, 1.596857074145594, -0.7043045339923002, 3.046376480927565, 3.7881362960990583, 4.664234638175862, 0.4288935831391804]

>  <energy>  (7) 
-789.256822318206

>  <inter_energy>  (7) 
-809.1271797810441

>  <intra_energy>  (7) 
18.793392061628793

>  <rmsd>  (7) 
2.85777

>  <sdf_rank>  (7) 
0

$$$$

     RDKit          3D

 57 60  0  0  0  0  0  0  0  0999 V2000
    8.7633   14.8062  -51.2926 N   0  0  0  0  0  0  0  0  0  0  0  0
    9.0623   15.4576  -52.4239 C   0  0  0  0  0  0  0  0  0  0  0  0
    9.6805   16.6202  -52.5915 N   0  0  0  0  0  0  0  0  0  0  0  0
   10.0093   17.1563  -51.4053 C   0  0  0  0  0  0  0  0  0  0  0  0
    9.7780   16.6108  -50.1591 C   0  0  0  0  0  0  0  0  0  0  0  0
    9.1286   15.3678  -50.1134 C   0  0  0  0  0  0  0  0  0  0  0  0
    8.8616   14.7132  -48.9890 N   0  0  0  0  0  0  0  0  0  0  0  0
   10.2604   17.4640  -49.1767 N   0  0  0  0  0  0  0  0  0  0  0  0
   10.7570   18.4848  -49.8259 C   0  0  0  0  0  0  0  0  0  0  0  0
   10.6396   18.3464  -51.1781 N   0  0  0  0  0  0  0  0  0  0  0  0
   11.1038   19.2716  -52.1872 C   0  0  1  0  0  0  0  0  0  0  0  0
   10.8590   20.7339  -51.8580 C   0  0  2  0  0  0  0  0  0  0  0  0
    9.5160   21.0309  -52.1718 O   0  0  0  0  0  0  0  0  0  0  0  0
   11.9187   21.4073  -52.7313 C   0  0  2  0  0  0  0  0  0  0  0  0
   11.4737   21.5609  -54.0730 O   0  0  0  0  0  0  0  0  0  0  0  0
   12.5006   19.1496  -52.2732 O   0  0  0  0  0  0  0  0  0  0  0  0
   13.0855   20.4118  -52.6941 C   0  0  2  0  0  0  0  0  0  0  0  0
   14.2143   20.7686  -51.7646 C   0  0  0  0  0  0  0  0  0  0  0  0
   15.1765   19.6700  -51.7591 O   0  0  0  0  0  0  0  0  0  0  0  0
   16.5598   19.8544  -51.0063 P   0  0  2  0  0  0  0  0  0  0  0  0
   17.4594   18.7207  -51.3648 O   0  0  0  0  0  0  0  0  0  0  0  0
   16.3483   20.1446  -49.5501 O   0  0  0  0  0  0  0  0  0  0  0  0
   17.0148   21.2370  -51.6799 O   0  0  0  0  0  0  0  0  0  0  0  0
   18.3867   22.0532  -51.7060 P   0  0  1  0  0  0  0  0  0  0  0  0
   19.0730   21.9566  -50.3719 O   0  0  0  0  0  0  0  0  0  0  0  0
   19.1334   21.6265  -52.9338 O   0  0  0  0  0  0  0  0  0  0  0  0
   17.9354   23.5544  -51.8775 O   0  0  0  0  0  0  0  0  0  0  0  0
   17.3227   24.2649  -50.7844 C   0  0  0  0  0  0  0  0  0  0  0  0
   19.6096   24.8522  -50.3524 O   0  0  0  0  0  0  0  0  0  0  0  0
   20.6451   26.8401  -50.9449 O   0  0  0  0  0  0  0  0  0  0  0  0
   20.0694   26.1048  -49.8951 C   0  0  1  0  0  0  0  0  0  0  0  0
   19.1114   27.7691  -48.3558 O   0  0  0  0  0  0  0  0  0  0  0  0
   18.8247   26.7855  -49.3265 C   0  0  2  0  0  0  0  0  0  0  0  0
   18.4004   25.2784  -47.4122 O   0  0  0  0  0  0  0  0  0  0  0  0
   18.0270   25.6232  -48.7398 C   0  0  2  0  0  0  0  0  0  0  0  0
   18.3606   24.4930  -49.7211 C   0  0  1  0  0  0  0  0  0  0  0  0
    8.7495   14.9551  -53.3510 H   0  0  0  0  0  0  0  0  0  0  0  0
    9.1292   15.1190  -48.0809 H   0  0  0  0  0  0  0  0  0  0  0  0
    8.3869   13.7999  -49.0251 H   0  0  0  0  0  0  0  0  0  0  0  0
   11.2173   19.3561  -49.3371 H   0  0  0  0  0  0  0  0  0  0  0  0
   10.5532   19.0179  -53.1050 H   0  0  0  0  0  0  0  0  0  0  0  0
   10.9605   21.0571  -50.8115 H   0  0  0  0  0  0  0  0  0  0  0  0
    8.9992   21.1452  -51.3352 H   0  0  0  0  0  0  0  0  0  0  0  0
   12.1710   22.4163  -52.3732 H   0  0  0  0  0  0  0  0  0  0  0  0
   10.5379   21.8840  -54.0753 H   0  0  0  0  0  0  0  0  0  0  0  0
   13.5516   20.3921  -53.6903 H   0  0  0  0  0  0  0  0  0  0  0  0
   14.7049   21.6894  -52.1132 H   0  0  0  0  0  0  0  0  0  0  0  0
   13.8270   20.9348  -50.7485 H   0  0  0  0  0  0  0  0  0  0  0  0
   16.9374   25.2319  -51.1401 H   0  0  0  0  0  0  0  0  0  0  0  0
   16.4870   23.6782  -50.3752 H   0  0  0  0  0  0  0  0  0  0  0  0
   21.2103   27.5619  -50.5710 H   0  0  0  0  0  0  0  0  0  0  0  0
   20.8615   26.0173  -49.1369 H   0  0  0  0  0  0  0  0  0  0  0  0
   18.9988   27.3828  -47.4513 H   0  0  0  0  0  0  0  0  0  0  0  0
   18.2786   27.3476  -50.0985 H   0  0  0  0  0  0  0  0  0  0  0  0
   17.8467   25.7897  -46.7703 H   0  0  0  0  0  0  0  0  0  0  0  0
   16.9563   25.8564  -48.6433 H   0  0  0  0  0  0  0  0  0  0  0  0
   18.4097   23.5527  -49.1524 H   0  0  0  0  0  0  0  0  0  0  0  0
  1  2  2  0
  1  6  1  0
  2  3  1  0
  3  4  2  0
  4  5  1  0
  4 10  1  0
  5  6  2  0
  5  8  1  0
  6  7  1  0
  8  9  2  0
  9 10  1  0
 11 10  1  0
 11 12  1  0
 11 16  1  0
 12 13  1  0
 12 14  1  0
 14 15  1  0
 14 17  1  0
 16 17  1  0
 17 18  1  0
 18 19  1  0
 19 20  1  0
 20 21  2  0
 20 22  1  1
 20 23  1  0
 23 24  1  0
 24 25  2  0
 24 26  1  6
 24 27  1  0
 27 28  1  0
 36 28  1  0
 29 31  1  0
 29 36  1  0
 31 30  1  0
 31 33  1  0
 33 32  1  0
 33 35  1  0
 35 34  1  0
 35 36  1  0
  2 37  1  0
  7 38  1  0
  7 39  1  0
  9 40  1  0
 11 41  1  6
 12 42  1  1
 13 43  1  0
 14 44  1  1
 15 45  1  0
 17 46  1  6
 18 47  1  0
 18 48  1  0
 28 49  1  0
 28 50  1  0
 30 51  1  0
 31 52  1  1
 32 53  1  0
 33 54  1  6
 34 55  1  0
 35 56  1  1
 36 57  1  1
M  CHG  2  22  -1  26  -1
M  END
>  <filename_input>  (8) 
7R3D_APR_docked.sdf

>  <pdb_id>  (8) 
7R3D_APR

>  <pose_rank>  (8) 
7

>  <num_atoms_heavy>  (8) 
36

>  <num_torsions>  (8) 
9

>  <pose>  (8) 
[14.214346143162974, 20.76858372140968, -51.764562922726526, -0.6400960625410237, 2.0400983205035055, -1.2221712313398947, 8.488724226753446, 0.1899239350344572, 5.924518652300166, 6.5342955014706074, -0.20385949918459317, -2.0719079904733992, 2.7243232437044735, -14.46298692614247, -0.3162813138140397]

>  <energy>  (8) 
-768.3547561669945

>  <inter_energy>  (8) 
-795.7529747134699

>  <intra_energy>  (8) 
36.11353819771675

>  <rmsd>  (8) 
10.7224

>  <sdf_rank>  (8) 
0

$$$$

     RDKit          3D

 57 60  0  0  0  0  0  0  0  0999 V2000
   19.7370   27.6384  -49.4329 N   0  0  0  0  0  0  0  0  0  0  0  0
   19.7561   26.9990  -50.6095 C   0  0  0  0  0  0  0  0  0  0  0  0
   19.2065   25.8400  -50.9506 N   0  0  0  0  0  0  0  0  0  0  0  0
   18.5680   25.2932  -49.9036 C   0  0  0  0  0  0  0  0  0  0  0  0
   18.4525   25.8257  -48.6359 C   0  0  0  0  0  0  0  0  0  0  0  0
   19.0652   27.0663  -48.4029 C   0  0  0  0  0  0  0  0  0  0  0  0
   19.0172   27.7089  -47.2415 N   0  0  0  0  0  0  0  0  0  0  0  0
   17.7215   24.9641  -47.8302 N   0  0  0  0  0  0  0  0  0  0  0  0
   17.4196   23.9513  -48.6001 C   0  0  0  0  0  0  0  0  0  0  0  0
   17.8996   24.1027  -49.8683 N   0  0  0  0  0  0  0  0  0  0  0  0
   17.7265   23.1889  -50.9749 C   0  0  1  0  0  0  0  0  0  0  0  0
   18.5958   21.9455  -50.9038 C   0  0  2  0  0  0  0  0  0  0  0  0
   19.8851   22.2901  -51.3611 O   0  0  0  0  0  0  0  0  0  0  0  0
   17.8009   20.9869  -51.7918 C   0  0  2  0  0  0  0  0  0  0  0  0
   18.0827   21.1920  -53.1703 O   0  0  0  0  0  0  0  0  0  0  0  0
   16.4067   22.7097  -50.9352 O   0  0  0  0  0  0  0  0  0  0  0  0
   16.3441   21.3753  -51.5079 C   0  0  2  0  0  0  0  0  0  0  0  0
   15.6014   20.4665  -50.5655 C   0  0  0  0  0  0  0  0  0  0  0  0
   14.4965   21.2150  -49.9725 O   0  0  0  0  0  0  0  0  0  0  0  0
   13.0233   20.6387  -50.0801 P   0  0  2  0  0  0  0  0  0  0  0  0
   12.0975   21.5371  -49.3326 O   0  0  0  0  0  0  0  0  0  0  0  0
   12.9902   19.1750  -49.7547 O   0  0  0  0  0  0  0  0  0  0  0  0
   12.8392   20.7513  -51.6694 O   0  0  0  0  0  0  0  0  0  0  0  0
   12.6112   19.6819  -52.8327 P   0  0  1  0  0  0  0  0  0  0  0  0
   13.5893   18.5486  -52.6943 O   0  0  0  0  0  0  0  0  0  0  0  0
   11.1455   19.3695  -52.8669 O   0  0  0  0  0  0  0  0  0  0  0  0
   12.9994   20.4594  -54.1485 O   0  0  0  0  0  0  0  0  0  0  0  0
   14.2314   20.1676  -54.8358 C   0  0  0  0  0  0  0  0  0  0  0  0
   13.7947   22.2200  -56.0013 O   0  0  0  0  0  0  0  0  0  0  0  0
   14.8929   24.2359  -55.6769 O   0  0  0  0  0  0  0  0  0  0  0  0
   14.7679   23.1079  -56.5053 C   0  0  1  0  0  0  0  0  0  0  0  0
   16.9928   22.7519  -57.4953 O   0  0  0  0  0  0  0  0  0  0  0  0
   16.0523   22.2809  -56.5543 C   0  0  2  0  0  0  0  0  0  0  0  0
   15.3965   20.6516  -58.2953 O   0  0  0  0  0  0  0  0  0  0  0  0
   15.5537   20.8799  -56.9011 C   0  0  2  0  0  0  0  0  0  0  0  0
   14.2021   20.8450  -56.1775 C   0  0  1  0  0  0  0  0  0  0  0  0
   20.3089   27.5098  -51.4117 H   0  0  0  0  0  0  0  0  0  0  0  0
   18.5132   27.2949  -46.4444 H   0  0  0  0  0  0  0  0  0  0  0  0
   19.4840   28.6212  -47.1381 H   0  0  0  0  0  0  0  0  0  0  0  0
   16.8438   23.0765  -48.2637 H   0  0  0  0  0  0  0  0  0  0  0  0
   17.9928   23.7563  -51.8789 H   0  0  0  0  0  0  0  0  0  0  0  0
   18.7802   21.4936  -49.9181 H   0  0  0  0  0  0  0  0  0  0  0  0
   20.4790   22.4488  -50.5851 H   0  0  0  0  0  0  0  0  0  0  0  0
   18.0392   19.9337  -51.5821 H   0  0  0  0  0  0  0  0  0  0  0  0
   18.8797   21.7720  -53.2615 H   0  0  0  0  0  0  0  0  0  0  0  0
   15.7808   21.3063  -52.4502 H   0  0  0  0  0  0  0  0  0  0  0  0
   15.2082   19.6005  -51.1182 H   0  0  0  0  0  0  0  0  0  0  0  0
   16.2788   20.1073  -49.7768 H   0  0  0  0  0  0  0  0  0  0  0  0
   15.0818   20.5443  -54.2486 H   0  0  0  0  0  0  0  0  0  0  0  0
   14.3422   19.0809  -54.9650 H   0  0  0  0  0  0  0  0  0  0  0  0
   14.8616   23.9539  -54.7285 H   0  0  0  0  0  0  0  0  0  0  0  0
   14.5084   23.5067  -57.4971 H   0  0  0  0  0  0  0  0  0  0  0  0
   17.7691   23.1406  -57.0197 H   0  0  0  0  0  0  0  0  0  0  0  0
   16.6041   22.3280  -55.6039 H   0  0  0  0  0  0  0  0  0  0  0  0
   14.8409   19.8445  -58.4369 H   0  0  0  0  0  0  0  0  0  0  0  0
   16.2643   20.0960  -56.6002 H   0  0  0  0  0  0  0  0  0  0  0  0
   13.5043   20.2545  -56.7893 H   0  0  0  0  0  0  0  0  0  0  0  0
  1  2  2  0
  1  6  1  0
  2  3  1  0
  3  4  2  0
  4  5  1  0
  4 10  1  0
  5  6  2  0
  5  8  1  0
  6  7  1  0
  8  9  2  0
  9 10  1  0
 11 10  1  0
 11 12  1  0
 11 16  1  0
 12 13  1  0
 12 14  1  0
 14 15  1  0
 14 17  1  0
 16 17  1  0
 17 18  1  0
 18 19  1  0
 19 20  1  0
 20 21  2  0
 20 22  1  1
 20 23  1  0
 23 24  1  0
 24 25  2  0
 24 26  1  6
 24 27  1  0
 27 28  1  0
 36 28  1  0
 29 31  1  0
 29 36  1  0
 31 30  1  0
 31 33  1  0
 33 32  1  0
 33 35  1  0
 35 34  1  0
 35 36  1  0
  2 37  1  0
  7 38  1  0
  7 39  1  0
  9 40  1  0
 11 41  1  6
 12 42  1  1
 13 43  1  0
 14 44  1  1
 15 45  1  0
 17 46  1  6
 18 47  1  0
 18 48  1  0
 28 49  1  0
 28 50  1  0
 30 51  1  0
 31 52  1  6
 32 53  1  0
 33 54  1  1
 34 55  1  0
 35 56  1  1
 36 57  1  6
M  CHG  2  22  -1  26  -1
M  END
>  <filename_input>  (9) 
7R3D_APR_docked.sdf

>  <pdb_id>  (9) 
7R3D_APR

>  <pose_rank>  (9) 
8

>  <num_atoms_heavy>  (9) 
36

>  <num_torsions>  (9) 
9

>  <pose>  (9) 
[15.601369536678027, 20.466532250265317, -50.5655278803264, -1.423556352596313, -0.7649240794931903, 1.0065721782675938, 1.8875220443935476, -0.40665665254426997, -1.1756936833024167, 0.0015934781806795847, 4.76743600213401, 4.037269018552894, -2.9673650336524857, -0.1576308311093871, -0.18163656023846964]

>  <energy>  (9) 
-775.2875785029728

>  <inter_energy>  (9) 
-780.6706299062448

>  <intra_energy>  (9) 
4.53971360611931

>  <rmsd>  (9) 
5.2488

>  <sdf_rank>  (9) 
0

$$$$

     RDKit          3D

 57 60  0  0  0  0  0  0  0  0999 V2000
   18.3513   24.4460  -55.7056 N   0  0  0  0  0  0  0  0  0  0  0  0
   18.0156   23.5184  -54.7999 C   0  0  0  0  0  0  0  0  0  0  0  0
   18.1965   23.5166  -53.4850 N   0  0  0  0  0  0  0  0  0  0  0  0
   18.8219   24.6380  -53.0922 C   0  0  0  0  0  0  0  0  0  0  0  0
   19.2252   25.6844  -53.8963 C   0  0  0  0  0  0  0  0  0  0  0  0
   18.9635   25.5753  -55.2705 C   0  0  0  0  0  0  0  0  0  0  0  0
   19.2726   26.5125  -56.1594 N   0  0  0  0  0  0  0  0  0  0  0  0
   19.8385   26.6603  -53.1234 N   0  0  0  0  0  0  0  0  0  0  0  0
   19.8017   26.1994  -51.9003 C   0  0  0  0  0  0  0  0  0  0  0  0
   19.1892   24.9826  -51.8228 N   0  0  0  0  0  0  0  0  0  0  0  0
   18.9560   24.2048  -50.6268 C   0  0  1  0  0  0  0  0  0  0  0  0
   17.5786   24.3921  -50.0150 C   0  0  2  0  0  0  0  0  0  0  0  0
   17.5962   25.5853  -49.2624 O   0  0  0  0  0  0  0  0  0  0  0  0
   17.4389   23.0951  -49.2167 C   0  0  2  0  0  0  0  0  0  0  0  0
   18.0894   23.1819  -47.9554 O   0  0  0  0  0  0  0  0  0  0  0  0
   19.0131   22.8461  -50.9789 O   0  0  0  0  0  0  0  0  0  0  0  0
   18.1651   22.0662  -50.0930 C   0  0  2  0  0  0  0  0  0  0  0  0
   17.2772   21.1729  -50.9171 C   0  0  0  0  0  0  0  0  0  0  0  0
   15.9054   21.3093  -50.4356 O   0  0  0  0  0  0  0  0  0  0  0  0
   14.8293   20.2170  -50.8396 P   0  0  2  0  0  0  0  0  0  0  0  0
   14.8731   19.1057  -49.8466 O   0  0  0  0  0  0  0  0  0  0  0  0
   14.9401   19.8604  -52.2921 O   0  0  0  0  0  0  0  0  0  0  0  0
   13.5103   21.1180  -50.6961 O   0  0  0  0  0  0  0  0  0  0  0  0
   11.9693   20.7864  -50.4426 P   0  0  1  0  0  0  0  0  0  0  0  0
   11.5041   21.4280  -49.1650 O   0  0  0  0  0  0  0  0  0  0  0  0
   11.2348   21.0932  -51.7129 O   0  0  0  0  0  0  0  0  0  0  0  0
   11.9477   19.2280  -50.2028 O   0  0  0  0  0  0  0  0  0  0  0  0
   11.0390   18.3859  -50.9380 C   0  0  0  0  0  0  0  0  0  0  0  0
   10.1050   17.0689  -49.1619 O   0  0  0  0  0  0  0  0  0  0  0  0
    7.8558   16.6078  -48.8400 O   0  0  0  0  0  0  0  0  0  0  0  0
    9.0853   16.1036  -49.2964 C   0  0  1  0  0  0  0  0  0  0  0  0
    8.5334   14.5029  -51.0824 O   0  0  0  0  0  0  0  0  0  0  0  0
    9.0592   15.7795  -50.7898 C   0  0  2  0  0  0  0  0  0  0  0  0
   11.2807   14.7118  -50.9922 O   0  0  0  0  0  0  0  0  0  0  0  0
   10.5254   15.8980  -51.1995 C   0  0  2  0  0  0  0  0  0  0  0  0
   11.0105   17.0311  -50.2871 C   0  0  1  0  0  0  0  0  0  0  0  0
   17.5162   22.6262  -55.2055 H   0  0  0  0  0  0  0  0  0  0  0  0
   19.7379   27.3790  -55.8535 H   0  0  0  0  0  0  0  0  0  0  0  0
   19.0471   26.3728  -57.1546 H   0  0  0  0  0  0  0  0  0  0  0  0
   20.2173   26.7322  -51.0323 H   0  0  0  0  0  0  0  0  0  0  0  0
   19.7141   24.5337  -49.9008 H   0  0  0  0  0  0  0  0  0  0  0  0
   16.7208   24.5223  -50.6912 H   0  0  0  0  0  0  0  0  0  0  0  0
   17.5930   25.3665  -48.2969 H   0  0  0  0  0  0  0  0  0  0  0  0
   16.3877   22.8499  -49.0048 H   0  0  0  0  0  0  0  0  0  0  0  0
   17.4196   23.0926  -47.2318 H   0  0  0  0  0  0  0  0  0  0  0  0
   18.7064   21.3736  -49.4317 H   0  0  0  0  0  0  0  0  0  0  0  0
   17.3304   21.4710  -51.9747 H   0  0  0  0  0  0  0  0  0  0  0  0
   17.6061   20.1272  -50.8254 H   0  0  0  0  0  0  0  0  0  0  0  0
   10.0310   18.8259  -50.9229 H   0  0  0  0  0  0  0  0  0  0  0  0
   11.3715   18.2948  -51.9826 H   0  0  0  0  0  0  0  0  0  0  0  0
    7.8475   16.6112  -47.8500 H   0  0  0  0  0  0  0  0  0  0  0  0
    9.2687   15.2026  -48.6926 H   0  0  0  0  0  0  0  0  0  0  0  0
    8.3368   14.0254  -50.2378 H   0  0  0  0  0  0  0  0  0  0  0  0
    8.3924   16.4575  -51.3427 H   0  0  0  0  0  0  0  0  0  0  0  0
   11.3830   14.5513  -50.0207 H   0  0  0  0  0  0  0  0  0  0  0  0
   10.6455   16.0831  -52.2772 H   0  0  0  0  0  0  0  0  0  0  0  0
   12.0526   16.8185  -50.0061 H   0  0  0  0  0  0  0  0  0  0  0  0
  1  2  2  0
  1  6  1  0
  2  3  1  0
  3  4  2  0
  4  5  1  0
  4 10  1  0
  5  6  2  0
  5  8  1  0
  6  7  1  0
  8  9  2  0
  9 10  1  0
 11 10  1  0
 11 12  1  0
 11 16  1  0
 12 13  1  0
 12 14  1  0
 14 15  1  0
 14 17  1  0
 16 17  1  0
 17 18  1  0
 18 19  1  0
 19 20  1  0
 20 21  2  0
 20 22  1  6
 20 23  1  0
 23 24  1  0
 24 25  2  0
 24 26  1  6
 24 27  1  0
 27 28  1  0
 36 28  1  0
 29 31  1  0
 29 36  1  0
 31 30  1  0
 31 33  1  0
 33 32  1  0
 33 35  1  0
 35 34  1  0
 35 36  1  0
  2 37  1  0
  7 38  1  0
  7 39  1  0
  9 40  1  0
 11 41  1  1
 12 42  1  6
 13 43  1  0
 14 44  1  1
 15 45  1  0
 17 46  1  1
 18 47  1  0
 18 48  1  0
 28 49  1  0
 28 50  1  0
 30 51  1  0
 31 52  1  1
 32 53  1  0
 33 54  1  6
 34 55  1  0
 35 56  1  6
 36 57  1  1
M  CHG  2  22  -1  26  -1
M  END
>  <filename_input>  (10) 
7R3D_APR_docked.sdf

>  <pdb_id>  (10) 
7R3D_APR

>  <pose_rank>  (10) 
9

>  <num_atoms_heavy>  (10) 
36

>  <num_torsions>  (10) 
9

>  <pose>  (10) 
[17.277229772116353, 21.172912998382248, -50.9171486377697, -0.5990452118150184, -1.3327678853905585, -0.032898255937843596, -1.0778371764339414, 2.584058828807377, 0.06311621081550217, -1.5542500116065199, -0.0035014559146097496, 0.6669794755012733, 5.48786921715636, 0.26827619124082686, 0.40968276995421576]

>  <energy>  (10) 
-762.4902145874107

>  <inter_energy>  (10) 
-782.5138170305221

>  <intra_energy>  (10) 
25.30172828072947

>  <rmsd>  (10) 
3.53973

>  <sdf_rank>  (10) 
0

$$$$

     RDKit          3D

 57 60  0  0  0  0  0  0  0  0999 V2000
   21.2212   19.5245  -54.9638 N   0  0  0  0  0  0  0  0  0  0  0  0
   21.2486   19.5387  -53.6250 C   0  0  0  0  0  0  0  0  0  0  0  0
   20.5929   20.3186  -52.7744 N   0  0  0  0  0  0  0  0  0  0  0  0
   19.8226   21.1970  -53.4359 C   0  0  0  0  0  0  0  0  0  0  0  0
   19.6807   21.3056  -54.8042 C   0  0  0  0  0  0  0  0  0  0  0  0
   20.4161   20.4127  -55.5983 C   0  0  0  0  0  0  0  0  0  0  0  0
   20.3615   20.3846  -56.9250 N   0  0  0  0  0  0  0  0  0  0  0  0
   18.7990   22.3344  -55.1041 N   0  0  0  0  0  0  0  0  0  0  0  0
   18.4360   22.8207  -53.9458 C   0  0  0  0  0  0  0  0  0  0  0  0
   19.0189   22.1635  -52.9018 N   0  0  0  0  0  0  0  0  0  0  0  0
   18.8189   22.4241  -51.4940 C   0  0  1  0  0  0  0  0  0  0  0  0
   18.5658   23.8828  -51.1556 C   0  0  2  0  0  0  0  0  0  0  0  0
   19.8117   24.5439  -51.1237 O   0  0  0  0  0  0  0  0  0  0  0  0
   17.8421   23.7464  -49.8152 C   0  0  2  0  0  0  0  0  0  0  0  0
   18.7564   23.5813  -48.7389 O   0  0  0  0  0  0  0  0  0  0  0  0
   17.6519   21.7525  -51.0934 O   0  0  0  0  0  0  0  0  0  0  0  0
   17.0248   22.4597  -49.9893 C   0  0  2  0  0  0  0  0  0  0  0  0
   15.5634   22.6544  -50.2925 C   0  0  0  0  0  0  0  0  0  0  0  0
   14.7993   21.6458  -49.5636 O   0  0  0  0  0  0  0  0  0  0  0  0
   14.1405   20.4448  -50.3623 P   0  0  2  0  0  0  0  0  0  0  0  0
   14.1324   19.2335  -49.4930 O   0  0  0  0  0  0  0  0  0  0  0  0
   14.7351   20.3166  -51.7332 O   0  0  0  0  0  0  0  0  0  0  0  0
   12.6760   21.0674  -50.5627 O   0  0  0  0  0  0  0  0  0  0  0  0
   11.4282   20.6803  -51.4802 P   0  0  1  0  0  0  0  0  0  0  0  0
   10.1489   20.8254  -50.7039 O   0  0  0  0  0  0  0  0  0  0  0  0
   11.5775   21.4283  -52.7707 O   0  0  0  0  0  0  0  0  0  0  0  0
   11.6199   19.1398  -51.7567 O   0  0  0  0  0  0  0  0  0  0  0  0
   10.4961   18.2400  -51.7030 C   0  0  0  0  0  0  0  0  0  0  0  0
   10.3911   17.0574  -49.6169 O   0  0  0  0  0  0  0  0  0  0  0  0
    8.4642   16.3161  -48.5620 O   0  0  0  0  0  0  0  0  0  0  0  0
    9.5736   15.9421  -49.3389 C   0  0  1  0  0  0  0  0  0  0  0  0
    8.8210   14.0455  -50.7150 O   0  0  0  0  0  0  0  0  0  0  0  0
    9.1653   15.4142  -50.7140 C   0  0  2  0  0  0  0  0  0  0  0  0
   11.3833   14.6710  -51.5166 O   0  0  0  0  0  0  0  0  0  0  0  0
   10.3955   15.6915  -51.5750 C   0  0  2  0  0  0  0  0  0  0  0  0
   10.9123   16.9993  -50.9632 C   0  0  1  0  0  0  0  0  0  0  0  0
   21.9126   18.7940  -53.1618 H   0  0  0  0  0  0  0  0  0  0  0  0
   19.7575   21.0490  -57.4297 H   0  0  0  0  0  0  0  0  0  0  0  0
   20.9232   19.6986  -57.4492 H   0  0  0  0  0  0  0  0  0  0  0  0
   17.7397   23.6639  -53.8266 H   0  0  0  0  0  0  0  0  0  0  0  0
   19.7427   22.0991  -50.9931 H   0  0  0  0  0  0  0  0  0  0  0  0
   17.9684   24.4848  -51.8561 H   0  0  0  0  0  0  0  0  0  0  0  0
   20.0845   24.6886  -50.1831 H   0  0  0  0  0  0  0  0  0  0  0  0
   17.2420   24.6366  -49.5756 H   0  0  0  0  0  0  0  0  0  0  0  0
   18.2733   23.6685  -47.8792 H   0  0  0  0  0  0  0  0  0  0  0  0
   17.0325   21.9164  -49.0329 H   0  0  0  0  0  0  0  0  0  0  0  0
   15.2493   23.6594  -49.9740 H   0  0  0  0  0  0  0  0  0  0  0  0
   15.3864   22.5524  -51.3733 H   0  0  0  0  0  0  0  0  0  0  0  0
    9.6595   18.7226  -51.1766 H   0  0  0  0  0  0  0  0  0  0  0  0
   10.1726   17.9803  -52.7218 H   0  0  0  0  0  0  0  0  0  0  0  0
    8.6927   16.2390  -47.6018 H   0  0  0  0  0  0  0  0  0  0  0  0
   10.0907   15.1707  -48.7495 H   0  0  0  0  0  0  0  0  0  0  0  0
    8.7403   13.7248  -49.7819 H   0  0  0  0  0  0  0  0  0  0  0  0
    8.2515   15.9024  -51.0834 H   0  0  0  0  0  0  0  0  0  0  0  0
   11.5860   14.4616  -50.5705 H   0  0  0  0  0  0  0  0  0  0  0  0
   10.1539   15.7415  -52.6469 H   0  0  0  0  0  0  0  0  0  0  0  0
   12.0113   16.9850  -51.0091 H   0  0  0  0  0  0  0  0  0  0  0  0
  1  2  2  0
  1  6  1  0
  2  3  1  0
  3  4  2  0
  4  5  1  0
  4 10  1  0
  5  6  2  0
  5  8  1  0
  6  7  1  0
  8  9  2  0
  9 10  1  0
 11 10  1  0
 11 12  1  0
 11 16  1  0
 12 13  1  0
 12 14  1  0
 14 15  1  0
 14 17  1  0
 16 17  1  0
 17 18  1  0
 18 19  1  0
 19 20  1  0
 20 21  2  0
 20 22  1  6
 20 23  1  0
 23 24  1  0
 24 25  2  0
 24 26  1  6
 24 27  1  0
 27 28  1  0
 36 28  1  0
 29 31  1  0
 29 36  1  0
 31 30  1  0
 31 33  1  0
 33 32  1  0
 33 35  1  0
 35 34  1  0
 35 36  1  0
  2 37  1  0
  7 38  1  0
  7 39  1  0
  9 40  1  0
 11 41  1  1
 12 42  1  6
 13 43  1  0
 14 44  1  1
 15 45  1  0
 17 46  1  1
 18 47  1  0
 18 48  1  0
 28 49  1  0
 28 50  1  0
 30 51  1  0
 31 52  1  1
 32 53  1  0
 33 54  1  6
 34 55  1  0
 35 56  1  6
 36 57  1  1
M  CHG  2  22  -1  26  -1
M  END
>  <filename_input>  (11) 
7R3D_APR_docked.sdf

>  <pdb_id>  (11) 
7R3D_APR

>  <pose_rank>  (11) 
10

>  <num_atoms_heavy>  (11) 
36

>  <num_torsions>  (11) 
9

>  <pose>  (11) 
[15.563410842373289, 22.65442784252118, -50.292464677819524, 0.6015429679171925, -0.3049929870764391, -0.6504862311672919, -3.3088947370135857, 0.3366684262412935, 7.321247765526903, 5.777504652926303, -0.6463674788270428, -5.273127163218412, -2.425971131874698, 0.7991415127233269, 0.7557385151815503]

>  <energy>  (11) 
-778.7741574705758

>  <inter_energy>  (11) 
-758.7463848842681

>  <intra_energy>  (11) 
0.393965683684607

>  <rmsd>  (11) 
4.59829

>  <sdf_rank>  (11) 
0

$$$$

     RDKit          3D

 57 60  0  0  0  0  0  0  0  0999 V2000
   21.7937   29.4870  -51.9972 N   0  0  0  0  0  0  0  0  0  0  0  0
   21.5743   28.9067  -50.8103 C   0  0  0  0  0  0  0  0  0  0  0  0
   20.9074   27.7957  -50.5231 N   0  0  0  0  0  0  0  0  0  0  0  0
   20.4050   27.2439  -51.6392 C   0  0  0  0  0  0  0  0  0  0  0  0
   20.5468   27.7127  -52.9292 C   0  0  0  0  0  0  0  0  0  0  0  0
   21.2885   28.8908  -53.1057 C   0  0  0  0  0  0  0  0  0  0  0  0
   21.5272   29.4447  -54.2890 N   0  0  0  0  0  0  0  0  0  0  0  0
   19.8822   26.8711  -53.8100 N   0  0  0  0  0  0  0  0  0  0  0  0
   19.3600   25.9363  -53.0594 C   0  0  0  0  0  0  0  0  0  0  0  0
   19.6528   26.1082  -51.7380 N   0  0  0  0  0  0  0  0  0  0  0  0
   19.2582   25.2491  -50.6443 C   0  0  1  0  0  0  0  0  0  0  0  0
   17.8532   25.4997  -50.1249 C   0  0  2  0  0  0  0  0  0  0  0  0
   17.9018   26.6142  -49.2612 O   0  0  0  0  0  0  0  0  0  0  0  0
   17.5439   24.1532  -49.4689 C   0  0  2  0  0  0  0  0  0  0  0  0
   18.0902   24.0691  -48.1589 O   0  0  0  0  0  0  0  0  0  0  0  0
   19.2368   23.9279  -51.1209 O   0  0  0  0  0  0  0  0  0  0  0  0
   18.2576   23.1481  -50.3823 C   0  0  2  0  0  0  0  0  0  0  0  0
   17.3745   22.4133  -51.3548 C   0  0  0  0  0  0  0  0  0  0  0  0
   17.1636   21.0566  -50.8573 O   0  0  0  0  0  0  0  0  0  0  0  0
   15.7186   20.6265  -50.3662 P   0  0  2  0  0  0  0  0  0  0  0  0
   15.1643   21.7026  -49.4956 O   0  0  0  0  0  0  0  0  0  0  0  0
   15.7250   19.2267  -49.8280 O   0  0  0  0  0  0  0  0  0  0  0  0
   14.9929   20.5568  -51.7948 O   0  0  0  0  0  0  0  0  0  0  0  0
   13.6786   19.8259  -52.3307 P   0  0  1  0  0  0  0  0  0  0  0  0
   12.9066   20.7451  -53.2359 O   0  0  0  0  0  0  0  0  0  0  0  0
   14.0983   18.4848  -52.8526 O   0  0  0  0  0  0  0  0  0  0  0  0
   12.8011   19.6195  -51.0368 O   0  0  0  0  0  0  0  0  0  0  0  0
   12.5711   18.2985  -50.5102 C   0  0  0  0  0  0  0  0  0  0  0  0
   11.3411   16.6004  -51.6784 O   0  0  0  0  0  0  0  0  0  0  0  0
   11.2636   14.3488  -51.1314 O   0  0  0  0  0  0  0  0  0  0  0  0
   10.5783   15.5743  -51.0827 C   0  0  1  0  0  0  0  0  0  0  0  0
    9.2010   15.4931  -49.0447 O   0  0  0  0  0  0  0  0  0  0  0  0
   10.3475   16.0516  -49.6492 C   0  0  2  0  0  0  0  0  0  0  0  0
    8.9204   18.0155  -50.1208 O   0  0  0  0  0  0  0  0  0  0  0  0
   10.2302   17.5666  -49.7990 C   0  0  2  0  0  0  0  0  0  0  0  0
   11.2081   17.8401  -50.9482 C   0  0  1  0  0  0  0  0  0  0  0  0
   22.0114   29.4278  -49.9458 H   0  0  0  0  0  0  0  0  0  0  0  0
   21.1543   29.0107  -55.1454 H   0  0  0  0  0  0  0  0  0  0  0  0
   22.0853   30.3082  -54.3502 H   0  0  0  0  0  0  0  0  0  0  0  0
   18.7535   25.1055  -53.4492 H   0  0  0  0  0  0  0  0  0  0  0  0
   19.9758   25.4441  -49.8338 H   0  0  0  0  0  0  0  0  0  0  0  0
   17.0687   25.7644  -50.8491 H   0  0  0  0  0  0  0  0  0  0  0  0
   17.8883   26.3040  -48.3211 H   0  0  0  0  0  0  0  0  0  0  0  0
   16.4625   23.9823  -49.3631 H   0  0  0  0  0  0  0  0  0  0  0  0
   17.3670   24.1804  -47.4920 H   0  0  0  0  0  0  0  0  0  0  0  0
   18.6843   22.3543  -49.7516 H   0  0  0  0  0  0  0  0  0  0  0  0
   16.4078   22.9308  -51.4419 H   0  0  0  0  0  0  0  0  0  0  0  0
   17.8511   22.3809  -52.3457 H   0  0  0  0  0  0  0  0  0  0  0  0
   13.3361   17.6077  -50.8944 H   0  0  0  0  0  0  0  0  0  0  0  0
   12.6276   18.3160  -49.4118 H   0  0  0  0  0  0  0  0  0  0  0  0
   11.4404   14.0327  -50.2100 H   0  0  0  0  0  0  0  0  0  0  0  0
    9.6268   15.3928  -51.6041 H   0  0  0  0  0  0  0  0  0  0  0  0
    9.2923   15.5375  -48.0599 H   0  0  0  0  0  0  0  0  0  0  0  0
   11.1615   15.7382  -48.9790 H   0  0  0  0  0  0  0  0  0  0  0  0
    8.4164   18.1882  -49.2864 H   0  0  0  0  0  0  0  0  0  0  0  0
   10.4512   18.0986  -48.8619 H   0  0  0  0  0  0  0  0  0  0  0  0
   10.8011   18.6646  -51.5518 H   0  0  0  0  0  0  0  0  0  0  0  0
  1  2  2  0
  1  6  1  0
  2  3  1  0
  3  4  2  0
  4  5  1  0
  4 10  1  0
  5  6  2  0
  5  8  1  0
  6  7  1  0
  8  9  2  0
  9 10  1  0
 11 10  1  0
 11 12  1  0
 11 16  1  0
 12 13  1  0
 12 14  1  0
 14 15  1  0
 14 17  1  0
 16 17  1  0
 17 18  1  0
 18 19  1  0
 19 20  1  0
 20 21  2  0
 20 22  1  1
 20 23  1  0
 23 24  1  0
 24 25  2  0
 24 26  1  6
 24 27  1  0
 27 28  1  0
 36 28  1  0
 29 31  1  0
 29 36  1  0
 31 30  1  0
 31 33  1  0
 33 32  1  0
 33 35  1  0
 35 34  1  0
 35 36  1  0
  2 37  1  0
  7 38  1  0
  7 39  1  0
  9 40  1  0
 11 41  1  1
 12 42  1  6
 13 43  1  0
 14 44  1  1
 15 45  1  0
 17 46  1  1
 18 47  1  0
 18 48  1  0
 28 49  1  0
 28 50  1  0
 30 51  1  0
 31 52  1  6
 32 53  1  0
 33 54  1  1
 34 55  1  0
 35 56  1  1
 36 57  1  6
M  CHG  2  22  -1  26  -1
M  END
>  <filename_input>  (12) 
7R3D_APR_docked.sdf

>  <pdb_id>  (12) 
7R3D_APR

>  <pose_rank>  (12) 
11

>  <num_atoms_heavy>  (12) 
36

>  <num_torsions>  (12) 
9

>  <pose>  (12) 
[17.374528142067543, 22.413264033629453, -51.354806744167064, -4.183567449427175, 3.0196798099290527, -1.172038426998708, -15.223813396248703, -0.527673984591965, -7.69181718582953, -41.57839050539275, -25.90993499849121, 7.275885304882419, -0.48827434581021795, -17.41594613859923, 13.681333001255737]

>  <energy>  (12) 
-698.5925922865767

>  <inter_energy>  (12) 
-700.191867707208

>  <intra_energy>  (12) 
4.951641968716729

>  <rmsd>  (12) 
3.62129

>  <sdf_rank>  (12) 
0

$$$$

     RDKit          3D

 57 60  0  0  0  0  0  0  0  0999 V2000
   17.7671   27.0164  -47.6252 N   0  0  0  0  0  0  0  0  0  0  0  0
   17.1575   25.9100  -48.0699 C   0  0  0  0  0  0  0  0  0  0  0  0
   17.4459   25.1497  -49.1190 N   0  0  0  0  0  0  0  0  0  0  0  0
   18.5086   25.6376  -49.7787 C   0  0  0  0  0  0  0  0  0  0  0  0
   19.2453   26.7563  -49.4469 C   0  0  0  0  0  0  0  0  0  0  0  0
   18.8500   27.4692  -48.3048 C   0  0  0  0  0  0  0  0  0  0  0  0
   19.4773   28.5489  -47.8525 N   0  0  0  0  0  0  0  0  0  0  0  0
   20.2636   26.9385  -50.3719 N   0  0  0  0  0  0  0  0  0  0  0  0
   20.1274   25.9581  -51.2263 C   0  0  0  0  0  0  0  0  0  0  0  0
   19.0859   25.1355  -50.9100 N   0  0  0  0  0  0  0  0  0  0  0  0
   18.6730   23.9475  -51.6227 C   0  0  1  0  0  0  0  0  0  0  0  0
   18.9172   22.6493  -50.8732 C   0  0  2  0  0  0  0  0  0  0  0  0
   20.2748   22.3023  -51.0364 O   0  0  0  0  0  0  0  0  0  0  0  0
   17.9013   21.7292  -51.5517 C   0  0  2  0  0  0  0  0  0  0  0  0
   18.4036   21.2019  -52.7729 O   0  0  0  0  0  0  0  0  0  0  0  0
   17.2799   24.0098  -51.7928 O   0  0  0  0  0  0  0  0  0  0  0  0
   16.7248   22.6678  -51.8496 C   0  0  2  0  0  0  0  0  0  0  0  0
   15.5613   22.5728  -50.8994 C   0  0  0  0  0  0  0  0  0  0  0  0
   15.6274   21.2865  -50.2113 O   0  0  0  0  0  0  0  0  0  0  0  0
   14.7485   20.0776  -50.7408 P   0  0  2  0  0  0  0  0  0  0  0  0
   14.6033   19.0719  -49.6497 O   0  0  0  0  0  0  0  0  0  0  0  0
   15.2387   19.5960  -52.0738 O   0  0  0  0  0  0  0  0  0  0  0  0
   13.3880   20.8786  -51.0235 O   0  0  0  0  0  0  0  0  0  0  0  0
   12.0386   20.5230  -51.7991 P   0  0  1  0  0  0  0  0  0  0  0  0
   10.8567   21.1117  -51.0801 O   0  0  0  0  0  0  0  0  0  0  0  0
   12.2515   20.8703  -53.2417 O   0  0  0  0  0  0  0  0  0  0  0  0
   11.9200   18.9566  -51.6622 O   0  0  0  0  0  0  0  0  0  0  0  0
   10.9561   18.3700  -50.7665 C   0  0  0  0  0  0  0  0  0  0  0  0
   10.3747   16.3160  -49.6691 O   0  0  0  0  0  0  0  0  0  0  0  0
    8.2583   15.3754  -49.5621 O   0  0  0  0  0  0  0  0  0  0  0  0
    9.5185   15.3186  -50.1808 C   0  0  1  0  0  0  0  0  0  0  0  0
    9.1107   14.4836  -52.4597 O   0  0  0  0  0  0  0  0  0  0  0  0
    9.4413   15.6118  -51.6789 C   0  0  2  0  0  0  0  0  0  0  0  0
   11.7871   15.1221  -52.2899 O   0  0  0  0  0  0  0  0  0  0  0  0
   10.8365   16.1398  -52.0048 C   0  0  2  0  0  0  0  0  0  0  0  0
   11.1936   16.8865  -50.7139 C   0  0  1  0  0  0  0  0  0  0  0  0
   16.2895   25.5831  -47.4785 H   0  0  0  0  0  0  0  0  0  0  0  0
   20.3021   28.9121  -48.3512 H   0  0  0  0  0  0  0  0  0  0  0  0
   19.1390   29.0231  -47.0030 H   0  0  0  0  0  0  0  0  0  0  0  0
   20.7785   25.8131  -52.1009 H   0  0  0  0  0  0  0  0  0  0  0  0
   19.2592   23.9352  -52.5533 H   0  0  0  0  0  0  0  0  0  0  0  0
   18.7749   22.6420  -49.7825 H   0  0  0  0  0  0  0  0  0  0  0  0
   20.6970   22.1944  -50.1475 H   0  0  0  0  0  0  0  0  0  0  0  0
   17.6435   20.8627  -50.9251 H   0  0  0  0  0  0  0  0  0  0  0  0
   19.0731   20.4990  -52.5783 H   0  0  0  0  0  0  0  0  0  0  0  0
   16.3008   22.3875  -52.8251 H   0  0  0  0  0  0  0  0  0  0  0  0
   15.6149   23.3896  -50.1646 H   0  0  0  0  0  0  0  0  0  0  0  0
   14.6149   22.6548  -51.4539 H   0  0  0  0  0  0  0  0  0  0  0  0
   11.0741   18.8005  -49.7611 H   0  0  0  0  0  0  0  0  0  0  0  0
    9.9363   18.5756  -51.1238 H   0  0  0  0  0  0  0  0  0  0  0  0
    8.3730   15.3703  -48.5787 H   0  0  0  0  0  0  0  0  0  0  0  0
    9.8876   14.3003  -49.9890 H   0  0  0  0  0  0  0  0  0  0  0  0
    8.8882   13.7242  -51.8648 H   0  0  0  0  0  0  0  0  0  0  0  0
    8.6363   16.3235  -51.9142 H   0  0  0  0  0  0  0  0  0  0  0  0
   12.1356   14.7491  -51.4416 H   0  0  0  0  0  0  0  0  0  0  0  0
   10.8494   16.7536  -52.9176 H   0  0  0  0  0  0  0  0  0  0  0  0
   12.2734   16.7682  -50.5405 H   0  0  0  0  0  0  0  0  0  0  0  0
  1  2  2  0
  1  6  1  0
  2  3  1  0
  3  4  2  0
  4  5  1  0
  4 10  1  0
  5  6  2  0
  5  8  1  0
  6  7  1  0
  8  9  2  0
  9 10  1  0
 11 10  1  0
 11 12  1  0
 11 16  1  0
 12 13  1  0
 12 14  1  0
 14 15  1  0
 14 17  1  0
 16 17  1  0
 17 18  1  0
 18 19  1  0
 19 20  1  0
 20 21  2  0
 20 22  1  6
 20 23  1  0
 23 24  1  0
 24 25  2  0
 24 26  1  6
 24 27  1  0
 27 28  1  0
 36 28  1  0
 29 31  1  0
 29 36  1  0
 31 30  1  0
 31 33  1  0
 33 32  1  0
 33 35  1  0
 35 34  1  0
 35 36  1  0
  2 37  1  0
  7 38  1  0
  7 39  1  0
  9 40  1  0
 11 41  1  6
 12 42  1  1
 13 43  1  0
 14 44  1  1
 15 45  1  0
 17 46  1  6
 18 47  1  0
 18 48  1  0
 28 49  1  0
 28 50  1  0
 30 51  1  0
 31 52  1  6
 32 53  1  0
 33 54  1  1
 34 55  1  0
 35 56  1  6
 36 57  1  1
M  CHG  2  22  -1  26  -1
M  END
>  <filename_input>  (13) 
7R3D_APR_docked.sdf

>  <pdb_id>  (13) 
7R3D_APR

>  <pose_rank>  (13) 
12

>  <num_atoms_heavy>  (13) 
36

>  <num_torsions>  (13) 
9

>  <pose>  (13) 
[15.561336475439285, 22.5727870800624, -50.89941692731468, 0.560097971089156, 0.6514301302431574, -0.7764805788655715, 30.21349972618217, 21.698037660311904, 13.779524549391503, -31.009403924181893, 62.20214744385535, 151.87232879875538, 34.72309470678485, -75.23197611674205, 140.19316115809946]

>  <energy>  (13) 
-881.176373662955

>  <inter_energy>  (13) 
-898.5931763117844

>  <intra_energy>  (13) 
18.693417784982273

>  <rmsd>  (13) 
1.7292

>  <sdf_rank>  (13) 
0

$$$$

     RDKit          3D

 57 60  0  0  0  0  0  0  0  0999 V2000
    8.4276   16.1503  -49.1388 N   0  0  0  0  0  0  0  0  0  0  0  0
    8.1910   17.4367  -49.4263 C   0  0  0  0  0  0  0  0  0  0  0  0
    8.7662   18.2204  -50.3301 N   0  0  0  0  0  0  0  0  0  0  0  0
    9.7171   17.5502  -51.0005 C   0  0  0  0  0  0  0  0  0  0  0  0
   10.0744   16.2286  -50.8280 C   0  0  0  0  0  0  0  0  0  0  0  0
    9.3813   15.4990  -49.8501 C   0  0  0  0  0  0  0  0  0  0  0  0
    9.6008   14.2151  -49.5906 N   0  0  0  0  0  0  0  0  0  0  0  0
   11.0996   15.9018  -51.7043 N   0  0  0  0  0  0  0  0  0  0  0  0
   11.3422   17.0008  -52.3700 C   0  0  0  0  0  0  0  0  0  0  0  0
   10.5279   18.0276  -51.9904 N   0  0  0  0  0  0  0  0  0  0  0  0
   10.5097   19.3660  -52.5362 C   0  0  1  0  0  0  0  0  0  0  0  0
   11.1469   20.4165  -51.6435 C   0  0  2  0  0  0  0  0  0  0  0  0
   10.2035   20.7809  -50.6599 O   0  0  0  0  0  0  0  0  0  0  0  0
   11.4977   21.4937  -52.6711 C   0  0  2  0  0  0  0  0  0  0  0  0
   10.3799   22.3209  -52.9676 O   0  0  0  0  0  0  0  0  0  0  0  0
   11.2885   19.3648  -53.7053 O   0  0  0  0  0  0  0  0  0  0  0  0
   11.8715   20.6793  -53.9164 C   0  0  2  0  0  0  0  0  0  0  0  0
   13.3465   20.5307  -54.1767 C   0  0  0  0  0  0  0  0  0  0  0  0
   13.9366   21.8625  -54.2800 O   0  0  0  0  0  0  0  0  0  0  0  0
   15.4556   22.0712  -53.8759 P   0  0  2  0  0  0  0  0  0  0  0  0
   15.5436   23.1834  -52.8867 O   0  0  0  0  0  0  0  0  0  0  0  0
   16.3327   22.1455  -55.0901 O   0  0  0  0  0  0  0  0  0  0  0  0
   15.7247   20.6359  -53.2126 O   0  0  0  0  0  0  0  0  0  0  0  0
   15.9908   20.1433  -51.7175 P   0  0  1  0  0  0  0  0  0  0  0  0
   14.7136   19.6449  -51.1007 O   0  0  0  0  0  0  0  0  0  0  0  0
   17.1779   19.2287  -51.7565 O   0  0  0  0  0  0  0  0  0  0  0  0
   16.3850   21.4604  -50.9452 O   0  0  0  0  0  0  0  0  0  0  0  0
   16.2898   21.5244  -49.5092 C   0  0  0  0  0  0  0  0  0  0  0  0
   18.6819   21.5517  -49.7055 O   0  0  0  0  0  0  0  0  0  0  0  0
   19.8918   22.1752  -51.5823 O   0  0  0  0  0  0  0  0  0  0  0  0
   19.4505   22.5694  -50.3079 C   0  0  1  0  0  0  0  0  0  0  0  0
   19.1844   25.0137  -50.4157 O   0  0  0  0  0  0  0  0  0  0  0  0
   18.5116   23.7740  -50.3677 C   0  0  2  0  0  0  0  0  0  0  0  0
   18.2758   24.2009  -47.9433 O   0  0  0  0  0  0  0  0  0  0  0  0
   17.6755   23.6297  -49.0983 C   0  0  2  0  0  0  0  0  0  0  0  0
   17.5676   22.1053  -48.9710 C   0  0  1  0  0  0  0  0  0  0  0  0
    7.4038   17.9144  -48.8246 H   0  0  0  0  0  0  0  0  0  0  0  0
   10.3197   13.6988  -50.1173 H   0  0  0  0  0  0  0  0  0  0  0  0
    9.0520   13.7357  -48.8626 H   0  0  0  0  0  0  0  0  0  0  0  0
   12.1151   17.0876  -53.1479 H   0  0  0  0  0  0  0  0  0  0  0  0
    9.4487   19.6188  -52.6794 H   0  0  0  0  0  0  0  0  0  0  0  0
   12.0367   20.1359  -51.0609 H   0  0  0  0  0  0  0  0  0  0  0  0
   10.5899   20.6317  -49.7607 H   0  0  0  0  0  0  0  0  0  0  0  0
   12.2915   22.1656  -52.3127 H   0  0  0  0  0  0  0  0  0  0  0  0
    9.9639   22.6286  -52.1236 H   0  0  0  0  0  0  0  0  0  0  0  0
   11.4932   21.2124  -54.8011 H   0  0  0  0  0  0  0  0  0  0  0  0
   13.8157   19.9805  -53.3477 H   0  0  0  0  0  0  0  0  0  0  0  0
   13.5096   19.9732  -55.1108 H   0  0  0  0  0  0  0  0  0  0  0  0
   15.4418   22.1634  -49.2217 H   0  0  0  0  0  0  0  0  0  0  0  0
   16.1313   20.5169  -49.0971 H   0  0  0  0  0  0  0  0  0  0  0  0
   20.6268   21.5186  -51.4885 H   0  0  0  0  0  0  0  0  0  0  0  0
   20.3668   22.8015  -49.7452 H   0  0  0  0  0  0  0  0  0  0  0  0
   19.3568   25.3315  -49.4941 H   0  0  0  0  0  0  0  0  0  0  0  0
   17.9125   23.7786  -51.2902 H   0  0  0  0  0  0  0  0  0  0  0  0
   17.8657   23.8107  -47.1311 H   0  0  0  0  0  0  0  0  0  0  0  0
   16.7149   24.1613  -49.1668 H   0  0  0  0  0  0  0  0  0  0  0  0
   17.5771   21.8522  -47.9005 H   0  0  0  0  0  0  0  0  0  0  0  0
  1  2  2  0
  1  6  1  0
  2  3  1  0
  3  4  2  0
  4  5  1  0
  4 10  1  0
  5  6  2  0
  5  8  1  0
  6  7  1  0
  8  9  2  0
  9 10  1  0
 11 10  1  0
 11 12  1  0
 11 16  1  0
 12 13  1  0
 12 14  1  0
 14 15  1  0
 14 17  1  0
 16 17  1  0
 17 18  1  0
 18 19  1  0
 19 20  1  0
 20 21  2  0
 20 22  1  6
 20 23  1  0
 23 24  1  0
 24 25  2  0
 24 26  1  6
 24 27  1  0
 27 28  1  0
 36 28  1  0
 29 31  1  0
 29 36  1  0
 31 30  1  0
 31 33  1  0
 33 32  1  0
 33 35  1  0
 35 34  1  0
 35 36  1  0
  2 37  1  0
  7 38  1  0
  7 39  1  0
  9 40  1  0
 11 41  1  6
 12 42  1  1
 13 43  1  0
 14 44  1  1
 15 45  1  0
 17 46  1  6
 18 47  1  0
 18 48  1  0
 28 49  1  0
 28 50  1  0
 30 51  1  0
 31 52  1  1
 32 53  1  0
 33 54  1  6
 34 55  1  0
 35 56  1  6
 36 57  1  1
M  CHG  2  22  -1  26  -1
M  END
>  <filename_input>  (14) 
7R3D_APR_docked.sdf

>  <pdb_id>  (14) 
7R3D_APR

>  <pose_rank>  (14) 
13

>  <num_atoms_heavy>  (14) 
36

>  <num_torsions>  (14) 
9

>  <pose>  (14) 
[13.34651950218669, 20.530660814082353, -54.17666408026216, -0.1411314686453763, -2.2147804764141656, -2.940401982917791, 4.4388713825672665, -0.9151324898071842, -0.7228961711259849, 0.9819097118730092, 0.7913542908082463, 0.28189278675469637, -2.0322122231786133, -0.793617531958385, 4.544303649209217]

>  <energy>  (14) 
-639.7807835003713

>  <inter_energy>  (14) 
-679.9748942376634

>  <intra_energy>  (14) 
39.144956430691124

>  <rmsd>  (14) 
10.0043

>  <sdf_rank>  (14) 
0

$$$$

     RDKit          3D

 57 60  0  0  0  0  0  0  0  0999 V2000
   21.8692   27.5185  -54.7209 N   0  0  0  0  0  0  0  0  0  0  0  0
   21.8202   27.6351  -53.3877 C   0  0  0  0  0  0  0  0  0  0  0  0
   21.1267   26.9300  -52.5025 N   0  0  0  0  0  0  0  0  0  0  0  0
   20.3876   25.9936  -53.1185 C   0  0  0  0  0  0  0  0  0  0  0  0
   20.3328   25.7437  -54.4745 C   0  0  0  0  0  0  0  0  0  0  0  0
   21.1250   26.5481  -55.3076 C   0  0  0  0  0  0  0  0  0  0  0  0
   21.1914   26.4075  -56.6266 N   0  0  0  0  0  0  0  0  0  0  0  0
   19.4532   24.6996  -54.7238 N   0  0  0  0  0  0  0  0  0  0  0  0
   18.9996   24.3483  -53.5488 C   0  0  0  0  0  0  0  0  0  0  0  0
   19.5388   25.0930  -52.5408 N   0  0  0  0  0  0  0  0  0  0  0  0
   19.2783   24.9533  -51.1257 C   0  0  1  0  0  0  0  0  0  0  0  0
   18.3570   26.0142  -50.5494 C   0  0  2  0  0  0  0  0  0  0  0  0
   19.1238   27.1753  -50.3163 O   0  0  0  0  0  0  0  0  0  0  0  0
   17.8306   25.2948  -49.3067 C   0  0  2  0  0  0  0  0  0  0  0  0
   18.7405   25.3920  -48.2184 O   0  0  0  0  0  0  0  0  0  0  0  0
   18.5982   23.7397  -50.9309 O   0  0  0  0  0  0  0  0  0  0  0  0
   17.7386   23.8328  -49.7627 C   0  0  2  0  0  0  0  0  0  0  0  0
   16.3591   23.3506  -50.1235 C   0  0  0  0  0  0  0  0  0  0  0  0
   16.1111   22.0903  -49.4287 O   0  0  0  0  0  0  0  0  0  0  0  0
   16.1115   20.7365  -50.2542 P   0  0  2  0  0  0  0  0  0  0  0  0
   16.9557   19.7360  -49.5405 O   0  0  0  0  0  0  0  0  0  0  0  0
   16.4013   20.9875  -51.7041 O   0  0  0  0  0  0  0  0  0  0  0  0
   14.5463   20.3995  -50.1592 O   0  0  0  0  0  0  0  0  0  0  0  0
   13.4646   19.8742  -51.2094 P   0  0  1  0  0  0  0  0  0  0  0  0
   12.6184   21.0169  -51.6976 O   0  0  0  0  0  0  0  0  0  0  0  0
   14.1939   19.0355  -52.2153 O   0  0  0  0  0  0  0  0  0  0  0  0
   12.5219   18.9433  -50.3543 O   0  0  0  0  0  0  0  0  0  0  0  0
   11.3924   18.2874  -50.9620 C   0  0  0  0  0  0  0  0  0  0  0  0
   10.4365   16.9962  -49.1786 O   0  0  0  0  0  0  0  0  0  0  0  0
    8.1758   16.7619  -48.7208 O   0  0  0  0  0  0  0  0  0  0  0  0
    9.3112   16.1518  -49.2802 C   0  0  1  0  0  0  0  0  0  0  0  0
    8.4746   14.7030  -51.0852 O   0  0  0  0  0  0  0  0  0  0  0  0
    9.1541   15.9017  -50.7798 C   0  0  2  0  0  0  0  0  0  0  0  0
   11.2284   14.6149  -51.1763 O   0  0  0  0  0  0  0  0  0  0  0  0
   10.5950   15.8829  -51.2846 C   0  0  2  0  0  0  0  0  0  0  0  0
   11.2584   16.9146  -50.3642 C   0  0  1  0  0  0  0  0  0  0  0  0
   22.4474   28.4330  -52.9635 H   0  0  0  0  0  0  0  0  0  0  0  0
   20.6357   25.6779  -57.0954 H   0  0  0  0  0  0  0  0  0  0  0  0
   21.7986   27.0281  -57.1807 H   0  0  0  0  0  0  0  0  0  0  0  0
   18.2663   23.5437  -53.3910 H   0  0  0  0  0  0  0  0  0  0  0  0
   20.2576   25.0271  -50.6302 H   0  0  0  0  0  0  0  0  0  0  0  0
   17.5220   26.3726  -51.1694 H   0  0  0  0  0  0  0  0  0  0  0  0
   19.2181   27.3181  -49.3412 H   0  0  0  0  0  0  0  0  0  0  0  0
   16.8803   25.7207  -48.9525 H   0  0  0  0  0  0  0  0  0  0  0  0
   18.2413   25.3387  -47.3652 H   0  0  0  0  0  0  0  0  0  0  0  0
   18.0376   23.1913  -48.9206 H   0  0  0  0  0  0  0  0  0  0  0  0
   15.6127   24.0973  -49.8148 H   0  0  0  0  0  0  0  0  0  0  0  0
   16.2848   23.2019  -51.2108 H   0  0  0  0  0  0  0  0  0  0  0  0
   10.4781   18.8674  -50.7679 H   0  0  0  0  0  0  0  0  0  0  0  0
   11.5411   18.2117  -52.0493 H   0  0  0  0  0  0  0  0  0  0  0  0
    8.2365   16.7293  -47.7332 H   0  0  0  0  0  0  0  0  0  0  0  0
    9.4339   15.2095  -48.7261 H   0  0  0  0  0  0  0  0  0  0  0  0
    8.2161   14.2470  -50.2453 H   0  0  0  0  0  0  0  0  0  0  0  0
    8.5309   16.6714  -51.2585 H   0  0  0  0  0  0  0  0  0  0  0  0
   11.3437   14.3842  -50.2205 H   0  0  0  0  0  0  0  0  0  0  0  0
   10.6650   16.1038  -52.3599 H   0  0  0  0  0  0  0  0  0  0  0  0
   12.2869   16.5799  -50.1642 H   0  0  0  0  0  0  0  0  0  0  0  0
  1  2  2  0
  1  6  1  0
  2  3  1  0
  3  4  2  0
  4  5  1  0
  4 10  1  0
  5  6  2  0
  5  8  1  0
  6  7  1  0
  8  9  2  0
  9 10  1  0
 11 10  1  0
 11 12  1  0
 11 16  1  0
 12 13  1  0
 12 14  1  0
 14 15  1  0
 14 17  1  0
 16 17  1  0
 17 18  1  0
 18 19  1  0
 19 20  1  0
 20 21  2  0
 20 22  1  6
 20 23  1  0
 23 24  1  0
 24 25  2  0
 24 26  1  6
 24 27  1  0
 27 28  1  0
 36 28  1  0
 29 31  1  0
 29 36  1  0
 31 30  1  0
 31 33  1  0
 33 32  1  0
 33 35  1  0
 35 34  1  0
 35 36  1  0
  2 37  1  0
  7 38  1  0
  7 39  1  0
  9 40  1  0
 11 41  1  1
 12 42  1  6
 13 43  1  0
 14 44  1  1
 15 45  1  0
 17 46  1  1
 18 47  1  0
 18 48  1  0
 28 49  1  0
 28 50  1  0
 30 51  1  0
 31 52  1  1
 32 53  1  0
 33 54  1  6
 34 55  1  0
 35 56  1  6
 36 57  1  1
M  CHG  2  22  -1  26  -1
M  END
>  <filename_input>  (15) 
7R3D_APR_docked.sdf

>  <pdb_id>  (15) 
7R3D_APR

>  <pose_rank>  (15) 
14

>  <num_atoms_heavy>  (15) 
36

>  <num_torsions>  (15) 
9

>  <pose>  (15) 
[16.3591141888917, 23.350568814140768, -50.12345573316271, -5.175970190486505, 1.429399048567568, 1.4560958644614945, 15.725233305630683, 5.384882071072531, -5.234000953446517, 5.505697312181991, 5.114633702238068, 9.38469755580369, 10.866502842541738, -6.900445432435507, 0.5121615506388955]

>  <energy>  (15) 
-724.671776835225

>  <inter_energy>  (15) 
-734.9338785612299

>  <intra_energy>  (15) 
17.189151114927473

>  <rmsd>  (15) 
3.79263

>  <sdf_rank>  (15) 
0

$$$$

     RDKit          3D

 57 60  0  0  0  0  0  0  0  0999 V2000
   20.1088   21.3443  -55.4136 N   0  0  0  0  0  0  0  0  0  0  0  0
   20.4350   20.9398  -54.1793 C   0  0  0  0  0  0  0  0  0  0  0  0
   19.9126   21.2882  -53.0100 N   0  0  0  0  0  0  0  0  0  0  0  0
   18.9291   22.1862  -53.1803 C   0  0  0  0  0  0  0  0  0  0  0  0
   18.4729   22.6951  -54.3790 C   0  0  0  0  0  0  0  0  0  0  0  0
   19.0966   22.2369  -55.5494 C   0  0  0  0  0  0  0  0  0  0  0  0
   18.7481   22.6200  -56.7724 N   0  0  0  0  0  0  0  0  0  0  0  0
   17.4476   23.6004  -54.1444 N   0  0  0  0  0  0  0  0  0  0  0  0
   17.3076   23.6273  -52.8446 C   0  0  0  0  0  0  0  0  0  0  0  0
   18.1733   22.7834  -52.2121 N   0  0  0  0  0  0  0  0  0  0  0  0
   18.2700   22.5486  -50.7890 C   0  0  1  0  0  0  0  0  0  0  0  0
   17.5118   23.5496  -49.9348 C   0  0  2  0  0  0  0  0  0  0  0  0
   18.3046   24.7109  -49.8196 O   0  0  0  0  0  0  0  0  0  0  0  0
   17.3123   22.7412  -48.6519 C   0  0  2  0  0  0  0  0  0  0  0  0
   18.4613   22.7903  -47.8159 O   0  0  0  0  0  0  0  0  0  0  0  0
   17.6669   21.3099  -50.5150 O   0  0  0  0  0  0  0  0  0  0  0  0
   17.1206   21.3092  -49.1682 C   0  0  2  0  0  0  0  0  0  0  0  0
   15.6981   20.8192  -49.2113 C   0  0  0  0  0  0  0  0  0  0  0  0
   15.1629   21.0633  -50.5479 O   0  0  0  0  0  0  0  0  0  0  0  0
   13.6324   21.4438  -50.7129 P   0  0  2  0  0  0  0  0  0  0  0  0
   13.5250   22.6421  -51.5936 O   0  0  0  0  0  0  0  0  0  0  0  0
   12.9404   21.4900  -49.3832 O   0  0  0  0  0  0  0  0  0  0  0  0
   13.1306   20.1028  -51.4357 O   0  0  0  0  0  0  0  0  0  0  0  0
   11.6931   19.5401  -51.8431 P   0  0  1  0  0  0  0  0  0  0  0  0
   10.6124   20.4052  -51.2565 O   0  0  0  0  0  0  0  0  0  0  0  0
   11.7097   19.3117  -53.3245 O   0  0  0  0  0  0  0  0  0  0  0  0
   11.6067   18.1459  -51.1114 O   0  0  0  0  0  0  0  0  0  0  0  0
   10.7920   17.9852  -49.9342 C   0  0  0  0  0  0  0  0  0  0  0  0
    9.4360   16.3568  -48.8069 O   0  0  0  0  0  0  0  0  0  0  0  0
    7.1412   16.1056  -49.0207 O   0  0  0  0  0  0  0  0  0  0  0  0
    8.3988   15.5987  -49.3890 C   0  0  1  0  0  0  0  0  0  0  0  0
    8.1017   14.6301  -51.6320 O   0  0  0  0  0  0  0  0  0  0  0  0
    8.6464   15.7026  -50.8937 C   0  0  2  0  0  0  0  0  0  0  0  0
   10.7846   14.4665  -51.0197 O   0  0  0  0  0  0  0  0  0  0  0  0
   10.1692   15.7476  -50.9957 C   0  0  2  0  0  0  0  0  0  0  0  0
   10.5415   16.5181  -49.7231 C   0  0  1  0  0  0  0  0  0  0  0  0
   21.2575   20.2112  -54.1269 H   0  0  0  0  0  0  0  0  0  0  0  0
   17.9825   23.2968  -56.9014 H   0  0  0  0  0  0  0  0  0  0  0  0
   19.2433   22.2402  -57.5918 H   0  0  0  0  0  0  0  0  0  0  0  0
   16.5750   24.2586  -52.3205 H   0  0  0  0  0  0  0  0  0  0  0  0
   19.3406   22.6134  -50.5448 H   0  0  0  0  0  0  0  0  0  0  0  0
   16.5475   23.9272  -50.3058 H   0  0  0  0  0  0  0  0  0  0  0  0
   18.4470   24.9196  -48.8624 H   0  0  0  0  0  0  0  0  0  0  0  0
   16.4755   23.1220  -48.0479 H   0  0  0  0  0  0  0  0  0  0  0  0
   18.1797   22.7783  -46.8669 H   0  0  0  0  0  0  0  0  0  0  0  0
   17.6219   20.6229  -48.4700 H   0  0  0  0  0  0  0  0  0  0  0  0
   15.6702   19.7417  -48.9918 H   0  0  0  0  0  0  0  0  0  0  0  0
   15.0940   21.3507  -48.4611 H   0  0  0  0  0  0  0  0  0  0  0  0
   11.3157   18.4015  -49.0611 H   0  0  0  0  0  0  0  0  0  0  0  0
    9.8369   18.5157  -50.0621 H   0  0  0  0  0  0  0  0  0  0  0  0
    7.0728   16.1331  -48.0334 H   0  0  0  0  0  0  0  0  0  0  0  0
    8.3962   14.5511  -49.0534 H   0  0  0  0  0  0  0  0  0  0  0  0
    7.7533   13.9440  -51.0091 H   0  0  0  0  0  0  0  0  0  0  0  0
    8.1508   16.5830  -51.3287 H   0  0  0  0  0  0  0  0  0  0  0  0
   10.9343   14.1549  -50.0920 H   0  0  0  0  0  0  0  0  0  0  0  0
   10.5127   16.2051  -51.9353 H   0  0  0  0  0  0  0  0  0  0  0  0
   11.4901   16.1100  -49.3441 H   0  0  0  0  0  0  0  0  0  0  0  0
  1  2  2  0
  1  6  1  0
  2  3  1  0
  3  4  2  0
  4  5  1  0
  4 10  1  0
  5  6  2  0
  5  8  1  0
  6  7  1  0
  8  9  2  0
  9 10  1  0
 11 10  1  0
 11 12  1  0
 11 16  1  0
 12 13  1  0
 12 14  1  0
 14 15  1  0
 14 17  1  0
 16 17  1  0
 17 18  1  0
 18 19  1  0
 19 20  1  0
 20 21  2  0
 20 22  1  1
 20 23  1  0
 23 24  1  0
 24 25  2  0
 24 26  1  6
 24 27  1  0
 27 28  1  0
 36 28  1  0
 29 31  1  0
 29 36  1  0
 31 30  1  0
 31 33  1  0
 33 32  1  0
 33 35  1  0
 35 34  1  0
 35 36  1  0
  2 37  1  0
  7 38  1  0
  7 39  1  0
  9 40  1  0
 11 41  1  1
 12 42  1  6
 13 43  1  0
 14 44  1  1
 15 45  1  0
 17 46  1  1
 18 47  1  0
 18 48  1  0
 28 49  1  0
 28 50  1  0
 30 51  1  0
 31 52  1  1
 32 53  1  0
 33 54  1  6
 34 55  1  0
 35 56  1  6
 36 57  1  1
M  CHG  2  22  -1  26  -1
M  END
>  <filename_input>  (16) 
7R3D_APR_docked.sdf

>  <pdb_id>  (16) 
7R3D_APR

>  <pose_rank>  (16) 
15

>  <num_atoms_heavy>  (16) 
36

>  <num_torsions>  (16) 
9

>  <pose>  (16) 
[15.698057976757323, 20.819228113909308, -49.211265738139204, -2.9217867366184556, -1.3350766121541917, 0.32297090850054094, -49.47295039938587, 13.259578318507575, -68.73685894827196, -38.49169307226737, -38.24312846001015, -20.416015402672436, -9.27676558330791, 18.571866190545393, -10.16385385228926]

>  <energy>  (16) 
-736.9098393724131

>  <inter_energy>  (16) 
-739.7377375659789

>  <intra_energy>  (16) 
4.871015889355145

>  <rmsd>  (16) 
4.30672

>  <sdf_rank>  (16) 
0

$$$$

     RDKit          3D

 57 60  0  0  0  0  0  0  0  0999 V2000
   16.6892   24.1674  -56.0882 N   0  0  0  0  0  0  0  0  0  0  0  0
   16.3447   24.1005  -54.7958 C   0  0  0  0  0  0  0  0  0  0  0  0
   17.0328   23.6348  -53.7607 N   0  0  0  0  0  0  0  0  0  0  0  0
   18.2302   23.1749  -54.1573 C   0  0  0  0  0  0  0  0  0  0  0  0
   18.7327   23.1783  -55.4425 C   0  0  0  0  0  0  0  0  0  0  0  0
   17.9146   23.7122  -56.4498 C   0  0  0  0  0  0  0  0  0  0  0  0
   18.2744   23.8026  -57.7250 N   0  0  0  0  0  0  0  0  0  0  0  0
   20.0014   22.6162  -55.4515 N   0  0  0  0  0  0  0  0  0  0  0  0
   20.2371   22.2869  -54.2082 C   0  0  0  0  0  0  0  0  0  0  0  0
   19.2017   22.6107  -53.3808 N   0  0  0  0  0  0  0  0  0  0  0  0
   19.1411   22.4114  -51.9502 C   0  0  1  0  0  0  0  0  0  0  0  0
   19.0197   23.6920  -51.1428 C   0  0  2  0  0  0  0  0  0  0  0  0
   20.3067   24.2590  -51.0316 O   0  0  0  0  0  0  0  0  0  0  0  0
   18.4052   23.1590  -49.8476 C   0  0  2  0  0  0  0  0  0  0  0  0
   19.3942   22.6209  -48.9794 O   0  0  0  0  0  0  0  0  0  0  0  0
   17.9687   21.6921  -51.6651 O   0  0  0  0  0  0  0  0  0  0  0  0
   17.4886   22.0295  -50.3354 C   0  0  2  0  0  0  0  0  0  0  0  0
   16.0238   22.3676  -50.4090 C   0  0  0  0  0  0  0  0  0  0  0  0
   15.2620   21.2594  -49.8397 O   0  0  0  0  0  0  0  0  0  0  0  0
   14.5347   20.2385  -50.8108 P   0  0  2  0  0  0  0  0  0  0  0  0
   14.6849   18.8601  -50.2627 O   0  0  0  0  0  0  0  0  0  0  0  0
   14.9355   20.4703  -52.2373 O   0  0  0  0  0  0  0  0  0  0  0  0
   13.0384   20.7978  -50.6665 O   0  0  0  0  0  0  0  0  0  0  0  0
   11.6735   20.5121  -51.4438 P   0  0  1  0  0  0  0  0  0  0  0  0
   10.5000   20.7423  -50.5327 O   0  0  0  0  0  0  0  0  0  0  0  0
   11.7370   21.2601  -52.7413 O   0  0  0  0  0  0  0  0  0  0  0  0
   11.7202   18.9645  -51.7428 O   0  0  0  0  0  0  0  0  0  0  0  0
   11.0244   18.0325  -50.8927 C   0  0  0  0  0  0  0  0  0  0  0  0
   11.5757   15.7003  -51.0289 O   0  0  0  0  0  0  0  0  0  0  0  0
   11.1493   14.0985  -49.4079 O   0  0  0  0  0  0  0  0  0  0  0  0
   10.7422   14.6297  -50.6434 C   0  0  1  0  0  0  0  0  0  0  0  0
    8.3062   14.2953  -50.7482 O   0  0  0  0  0  0  0  0  0  0  0  0
    9.3419   15.2388  -50.5781 C   0  0  2  0  0  0  0  0  0  0  0  0
    9.0288   15.7459  -52.9782 O   0  0  0  0  0  0  0  0  0  0  0  0
    9.3576   16.2742  -51.7002 C   0  0  2  0  0  0  0  0  0  0  0  0
   10.8132   16.7550  -51.6565 C   0  0  1  0  0  0  0  0  0  0  0  0
   15.3437   24.4889  -54.5567 H   0  0  0  0  0  0  0  0  0  0  0  0
   19.1999   23.4638  -58.0242 H   0  0  0  0  0  0  0  0  0  0  0  0
   17.6279   24.2114  -58.4148 H   0  0  0  0  0  0  0  0  0  0  0  0
   21.1648   21.8037  -53.8680 H   0  0  0  0  0  0  0  0  0  0  0  0
   20.0794   21.9071  -51.6761 H   0  0  0  0  0  0  0  0  0  0  0  0
   18.4081   24.5101  -51.5510 H   0  0  0  0  0  0  0  0  0  0  0  0
   20.5405   24.3620  -50.0751 H   0  0  0  0  0  0  0  0  0  0  0  0
   17.8910   23.9470  -49.2778 H   0  0  0  0  0  0  0  0  0  0  0  0
   19.1231   22.7684  -48.0387 H   0  0  0  0  0  0  0  0  0  0  0  0
   17.5400   21.2072  -49.6066 H   0  0  0  0  0  0  0  0  0  0  0  0
   15.8260   23.2861  -49.8369 H   0  0  0  0  0  0  0  0  0  0  0  0
   15.7271   22.5298  -51.4557 H   0  0  0  0  0  0  0  0  0  0  0  0
   11.6245   17.8318  -49.9930 H   0  0  0  0  0  0  0  0  0  0  0  0
   10.0550   18.4530  -50.5870 H   0  0  0  0  0  0  0  0  0  0  0  0
   10.7457   14.6252  -48.6732 H   0  0  0  0  0  0  0  0  0  0  0  0
   10.7807   13.7847  -51.3466 H   0  0  0  0  0  0  0  0  0  0  0  0
    7.9808   13.9989  -49.8615 H   0  0  0  0  0  0  0  0  0  0  0  0
    9.1294   15.6676  -49.5876 H   0  0  0  0  0  0  0  0  0  0  0  0
    8.5090   14.9108  -52.8663 H   0  0  0  0  0  0  0  0  0  0  0  0
    8.6021   17.0605  -51.5552 H   0  0  0  0  0  0  0  0  0  0  0  0
   11.1300   16.9734  -52.6870 H   0  0  0  0  0  0  0  0  0  0  0  0
  1  2  2  0
  1  6  1  0
  2  3  1  0
  3  4  2  0
  4  5  1  0
  4 10  1  0
  5  6  2  0
  5  8  1  0
  6  7  1  0
  8  9  2  0
  9 10  1  0
 11 10  1  0
 11 12  1  0
 11 16  1  0
 12 13  1  0
 12 14  1  0
 14 15  1  0
 14 17  1  0
 16 17  1  0
 17 18  1  0
 18 19  1  0
 19 20  1  0
 20 21  2  0
 20 22  1  6
 20 23  1  0
 23 24  1  0
 24 25  2  0
 24 26  1  6
 24 27  1  0
 27 28  1  0
 36 28  1  0
 29 31  1  0
 29 36  1  0
 31 30  1  0
 31 33  1  0
 33 32  1  0
 33 35  1  0
 35 34  1  0
 35 36  1  0
  2 37  1  0
  7 38  1  0
  7 39  1  0
  9 40  1  0
 11 41  1  1
 12 42  1  6
 13 43  1  0
 14 44  1  1
 15 45  1  0
 17 46  1  1
 18 47  1  0
 18 48  1  0
 28 49  1  0
 28 50  1  0
 30 51  1  0
 31 52  1  6
 32 53  1  0
 33 54  1  1
 34 55  1  0
 35 56  1  1
 36 57  1  6
M  CHG  2  22  -1  26  -1
M  END
>  <filename_input>  (17) 
7R3D_APR_docked.sdf

>  <pdb_id>  (17) 
7R3D_APR

>  <pose_rank>  (17) 
16

>  <num_atoms_heavy>  (17) 
36

>  <num_torsions>  (17) 
9

>  <pose>  (17) 
[16.023767088210608, 22.367604303157293, -50.40897491558635, -3.591956040086321, 0.6700914904036385, 3.6549306726857, 21.920210874813602, 9.24612474400791, -17.717352742290238, -19.484106202754997, -6.876939640607942, 1.2343839214719128, 9.452244768239183, -0.3185247120821467, 0.9705083127821713]

>  <energy>  (17) 
-729.302068079395

>  <inter_energy>  (17) 
-729.108675310855

>  <intra_energy>  (17) 
13.043856944414797

>  <rmsd>  (17) 
4.23243

>  <sdf_rank>  (17) 
0

$$$$

     RDKit          3D

 57 60  0  0  0  0  0  0  0  0999 V2000
    9.6911   15.3414  -49.1488 N   0  0  0  0  0  0  0  0  0  0  0  0
    9.9472   16.6201  -48.8442 C   0  0  0  0  0  0  0  0  0  0  0  0
   10.4418   17.5877  -49.6064 N   0  0  0  0  0  0  0  0  0  0  0  0
   10.7044   17.1298  -50.8408 C   0  0  0  0  0  0  0  0  0  0  0  0
   10.4925   15.8495  -51.3100 C   0  0  0  0  0  0  0  0  0  0  0  0
    9.9498   14.9186  -50.4113 C   0  0  0  0  0  0  0  0  0  0  0  0
    9.6707   13.6595  -50.7286 N   0  0  0  0  0  0  0  0  0  0  0  0
   10.8918   15.7639  -52.6363 N   0  0  0  0  0  0  0  0  0  0  0  0
   11.3306   16.9582  -52.9378 C   0  0  0  0  0  0  0  0  0  0  0  0
   11.2319   17.8268  -51.8902 N   0  0  0  0  0  0  0  0  0  0  0  0
   11.6000   19.2247  -51.8863 C   0  0  1  0  0  0  0  0  0  0  0  0
   11.1720   19.9829  -50.6420 C   0  0  2  0  0  0  0  0  0  0  0  0
    9.8093   20.3191  -50.7854 O   0  0  0  0  0  0  0  0  0  0  0  0
   12.1589   21.1511  -50.6623 C   0  0  2  0  0  0  0  0  0  0  0  0
   11.7257   22.1898  -51.5311 O   0  0  0  0  0  0  0  0  0  0  0  0
   13.0027   19.3006  -51.8909 O   0  0  0  0  0  0  0  0  0  0  0  0
   13.4375   20.5177  -51.2260 C   0  0  2  0  0  0  0  0  0  0  0  0
   14.4954   20.1764  -50.2111 C   0  0  0  0  0  0  0  0  0  0  0  0
   15.6412   19.6008  -50.9099 O   0  0  0  0  0  0  0  0  0  0  0  0
   17.0577   20.3024  -50.7858 P   0  0  2  0  0  0  0  0  0  0  0  0
   17.9205   19.8514  -51.9151 O   0  0  0  0  0  0  0  0  0  0  0  0
   17.6043   20.1745  -49.3951 O   0  0  0  0  0  0  0  0  0  0  0  0
   16.5833   21.8261  -50.9453 O   0  0  0  0  0  0  0  0  0  0  0  0
   17.0721   23.2066  -50.3095 P   0  0  1  0  0  0  0  0  0  0  0  0
   16.4010   24.3616  -50.9994 O   0  0  0  0  0  0  0  0  0  0  0  0
   16.9415   23.0806  -48.8215 O   0  0  0  0  0  0  0  0  0  0  0  0
   18.6020   23.2800  -50.6844 O   0  0  0  0  0  0  0  0  0  0  0  0
   19.1387   24.4392  -51.3503 C   0  0  0  0  0  0  0  0  0  0  0  0
   18.3749   25.7986  -53.1752 O   0  0  0  0  0  0  0  0  0  0  0  0
   19.5724   27.4909  -54.2130 O   0  0  0  0  0  0  0  0  0  0  0  0
   19.1309   26.1606  -54.3096 C   0  0  1  0  0  0  0  0  0  0  0  0
   20.8504   24.9752  -55.6117 O   0  0  0  0  0  0  0  0  0  0  0  0
   20.2912   25.1659  -54.3300 C   0  0  2  0  0  0  0  0  0  0  0  0
   19.0165   23.0942  -54.7761 O   0  0  0  0  0  0  0  0  0  0  0  0
   19.6634   23.8842  -53.7871 C   0  0  2  0  0  0  0  0  0  0  0  0
   18.6551   24.4392  -52.7737 C   0  0  1  0  0  0  0  0  0  0  0  0
    9.7131   16.9116  -47.8097 H   0  0  0  0  0  0  0  0  0  0  0  0
    9.8580   13.3147  -51.6810 H   0  0  0  0  0  0  0  0  0  0  0  0
    9.2668   13.0278  -50.0224 H   0  0  0  0  0  0  0  0  0  0  0  0
   11.7336   17.2316  -53.9241 H   0  0  0  0  0  0  0  0  0  0  0  0
   11.1031   19.6697  -52.7610 H   0  0  0  0  0  0  0  0  0  0  0  0
   11.2120   19.4619  -49.6740 H   0  0  0  0  0  0  0  0  0  0  0  0
    9.3985   20.4205  -49.8904 H   0  0  0  0  0  0  0  0  0  0  0  0
   12.2789   21.6098  -49.6698 H   0  0  0  0  0  0  0  0  0  0  0  0
   11.4056   22.9573  -50.9939 H   0  0  0  0  0  0  0  0  0  0  0  0
   13.9225   21.2526  -51.8853 H   0  0  0  0  0  0  0  0  0  0  0  0
   14.8054   21.0872  -49.6780 H   0  0  0  0  0  0  0  0  0  0  0  0
   14.0983   19.4551  -49.4816 H   0  0  0  0  0  0  0  0  0  0  0  0
   18.7944   25.3518  -50.8416 H   0  0  0  0  0  0  0  0  0  0  0  0
   20.2381   24.4121  -51.3261 H   0  0  0  0  0  0  0  0  0  0  0  0
   19.6558   27.7425  -53.2592 H   0  0  0  0  0  0  0  0  0  0  0  0
   18.5483   26.1177  -55.2417 H   0  0  0  0  0  0  0  0  0  0  0  0
   21.7834   24.6570  -55.5207 H   0  0  0  0  0  0  0  0  0  0  0  0
   21.1449   25.5230  -53.7352 H   0  0  0  0  0  0  0  0  0  0  0  0
   18.4549   22.4084  -54.3352 H   0  0  0  0  0  0  0  0  0  0  0  0
   20.4124   23.1949  -53.3703 H   0  0  0  0  0  0  0  0  0  0  0  0
   17.7698   23.7865  -52.7829 H   0  0  0  0  0  0  0  0  0  0  0  0
  1  2  2  0
  1  6  1  0
  2  3  1  0
  3  4  2  0
  4  5  1  0
  4 10  1  0
  5  6  2  0
  5  8  1  0
  6  7  1  0
  8  9  2  0
  9 10  1  0
 11 10  1  0
 11 12  1  0
 11 16  1  0
 12 13  1  0
 12 14  1  0
 14 15  1  0
 14 17  1  0
 16 17  1  0
 17 18  1  0
 18 19  1  0
 19 20  1  0
 20 21  2  0
 20 22  1  1
 20 23  1  0
 23 24  1  0
 24 25  2  0
 24 26  1  1
 24 27  1  0
 27 28  1  0
 36 28  1  0
 29 31  1  0
 29 36  1  0
 31 30  1  0
 31 33  1  0
 33 32  1  0
 33 35  1  0
 35 34  1  0
 35 36  1  0
  2 37  1  0
  7 38  1  0
  7 39  1  0
  9 40  1  0
 11 41  1  6
 12 42  1  1
 13 43  1  0
 14 44  1  1
 15 45  1  0
 17 46  1  6
 18 47  1  0
 18 48  1  0
 28 49  1  0
 28 50  1  0
 30 51  1  0
 31 52  1  6
 32 53  1  0
 33 54  1  1
 34 55  1  0
 35 56  1  1
 36 57  1  1
M  CHG  2  22  -1  26  -1
M  END
>  <filename_input>  (18) 
7R3D_APR_docked.sdf

>  <pdb_id>  (18) 
7R3D_APR

>  <pose_rank>  (18) 
17

>  <num_atoms_heavy>  (18) 
36

>  <num_torsions>  (18) 
9

>  <pose>  (18) 
[14.495366696841137, 20.176372195050014, -50.211113256403856, -0.326293454728788, 2.133285937950405, -0.17997529263289422, 2.3030058428918276, 3.895069009974494, -1.2553623239096183, 0.4025171903757152, -1.0264349923822969, 1.5625977186932123, -2.6105289893168613, 1.9201683425434093, 1.4585188767736852]

>  <energy>  (18) 
-642.4147303010757

>  <inter_energy>  (18) 
-686.486186599664

>  <intra_energy>  (18) 
59.68628599507163

>  <rmsd>  (18) 
10.5675

>  <sdf_rank>  (18) 
0

$$$$

     RDKit          3D

 57 60  0  0  0  0  0  0  0  0999 V2000
   16.4017   21.9394  -55.7638 N   0  0  0  0  0  0  0  0  0  0  0  0
   15.9613   22.3996  -54.5858 C   0  0  0  0  0  0  0  0  0  0  0  0
   16.6239   22.5897  -53.4515 N   0  0  0  0  0  0  0  0  0  0  0  0
   17.9112   22.2346  -53.5907 C   0  0  0  0  0  0  0  0  0  0  0  0
   18.5167   21.7520  -54.7329 C   0  0  0  0  0  0  0  0  0  0  0  0
   17.7126   21.6095  -55.8740 C   0  0  0  0  0  0  0  0  0  0  0  0
   18.1627   21.1804  -57.0476 N   0  0  0  0  0  0  0  0  0  0  0  0
   19.8571   21.4960  -54.4808 N   0  0  0  0  0  0  0  0  0  0  0  0
   20.0344   21.8141  -53.2249 C   0  0  0  0  0  0  0  0  0  0  0  0
   18.8912   22.2754  -52.6403 N   0  0  0  0  0  0  0  0  0  0  0  0
   18.7395   22.7357  -51.2784 C   0  0  1  0  0  0  0  0  0  0  0  0
   18.1599   24.1335  -51.1493 C   0  0  2  0  0  0  0  0  0  0  0  0
   19.2025   25.0581  -51.3691 O   0  0  0  0  0  0  0  0  0  0  0  0
   17.5953   24.0814  -49.7289 C   0  0  2  0  0  0  0  0  0  0  0  0
   18.6003   24.3308  -48.7545 O   0  0  0  0  0  0  0  0  0  0  0  0
   17.8082   21.8983  -50.6422 O   0  0  0  0  0  0  0  0  0  0  0  0
   17.1106   22.6316  -49.5990 C   0  0  2  0  0  0  0  0  0  0  0  0
   15.6279   22.4258  -49.7562 C   0  0  0  0  0  0  0  0  0  0  0  0
   15.3997   21.5448  -50.8983 O   0  0  0  0  0  0  0  0  0  0  0  0
   14.9089   20.0584  -50.6453 P   0  0  2  0  0  0  0  0  0  0  0  0
   15.8053   19.4184  -49.6403 O   0  0  0  0  0  0  0  0  0  0  0  0
   14.6831   19.3359  -51.9401 O   0  0  0  0  0  0  0  0  0  0  0  0
   13.4551   20.3855  -50.0523 O   0  0  0  0  0  0  0  0  0  0  0  0
   12.0476   20.7438  -50.7151 P   0  0  1  0  0  0  0  0  0  0  0  0
   11.4845   21.9916  -50.0938 O   0  0  0  0  0  0  0  0  0  0  0  0
   12.2333   20.6990  -52.2020 O   0  0  0  0  0  0  0  0  0  0  0  0
   11.1066   19.5552  -50.2811 O   0  0  0  0  0  0  0  0  0  0  0  0
   10.9619   18.3917  -51.1181 C   0  0  0  0  0  0  0  0  0  0  0  0
    9.0845   16.8962  -51.1106 O   0  0  0  0  0  0  0  0  0  0  0  0
    8.6782   15.2055  -52.6440 O   0  0  0  0  0  0  0  0  0  0  0  0
    9.1331   15.5069  -51.3493 C   0  0  1  0  0  0  0  0  0  0  0  0
   10.8018   13.7816  -50.8051 O   0  0  0  0  0  0  0  0  0  0  0  0
   10.6023   15.1353  -51.1511 C   0  0  2  0  0  0  0  0  0  0  0  0
   10.7937   15.5949  -48.7287 O   0  0  0  0  0  0  0  0  0  0  0  0
   11.0554   16.0789  -50.0394 C   0  0  2  0  0  0  0  0  0  0  0  0
   10.2276   17.3337  -50.3427 C   0  0  1  0  0  0  0  0  0  0  0  0
   14.8926   22.6582  -54.5534 H   0  0  0  0  0  0  0  0  0  0  0  0
   19.1543   20.9238  -57.1563 H   0  0  0  0  0  0  0  0  0  0  0  0
   17.5201   21.1043  -57.8490 H   0  0  0  0  0  0  0  0  0  0  0  0
   20.9962   21.7204  -52.6994 H   0  0  0  0  0  0  0  0  0  0  0  0
   19.7499   22.7294  -50.8437 H   0  0  0  0  0  0  0  0  0  0  0  0
   17.3813   24.4434  -51.8619 H   0  0  0  0  0  0  0  0  0  0  0  0
   19.5553   25.3709  -50.4986 H   0  0  0  0  0  0  0  0  0  0  0  0
   16.8135   24.8379  -49.5655 H   0  0  0  0  0  0  0  0  0  0  0  0
   18.2127   24.2347  -47.8486 H   0  0  0  0  0  0  0  0  0  0  0  0
   17.3242   22.2888  -48.5759 H   0  0  0  0  0  0  0  0  0  0  0  0
   15.2188   21.9650  -48.8449 H   0  0  0  0  0  0  0  0  0  0  0  0
   15.1291   23.3923  -49.9208 H   0  0  0  0  0  0  0  0  0  0  0  0
   10.3910   18.6532  -52.0212 H   0  0  0  0  0  0  0  0  0  0  0  0
   11.9521   18.0189  -51.4191 H   0  0  0  0  0  0  0  0  0  0  0  0
    7.8543   14.6597  -52.5857 H   0  0  0  0  0  0  0  0  0  0  0  0
    8.4792   14.9352  -50.6743 H   0  0  0  0  0  0  0  0  0  0  0  0
   10.8150   13.6915  -49.8193 H   0  0  0  0  0  0  0  0  0  0  0  0
   11.1794   15.2434  -52.0813 H   0  0  0  0  0  0  0  0  0  0  0  0
   11.1422   16.2396  -48.0631 H   0  0  0  0  0  0  0  0  0  0  0  0
   12.1451   16.2287  -50.0353 H   0  0  0  0  0  0  0  0  0  0  0  0
    9.9602   17.8041  -49.3850 H   0  0  0  0  0  0  0  0  0  0  0  0
  1  2  2  0
  1  6  1  0
  2  3  1  0
  3  4  2  0
  4  5  1  0
  4 10  1  0
  5  6  2  0
  5  8  1  0
  6  7  1  0
  8  9  2  0
  9 10  1  0
 11 10  1  0
 11 12  1  0
 11 16  1  0
 12 13  1  0
 12 14  1  0
 14 15  1  0
 14 17  1  0
 16 17  1  0
 17 18  1  0
 18 19  1  0
 19 20  1  0
 20 21  2  0
 20 22  1  6
 20 23  1  0
 23 24  1  0
 24 25  2  0
 24 26  1  6
 24 27  1  0
 27 28  1  0
 36 28  1  0
 29 31  1  0
 29 36  1  0
 31 30  1  0
 31 33  1  0
 33 32  1  0
 33 35  1  0
 35 34  1  0
 35 36  1  0
  2 37  1  0
  7 38  1  0
  7 39  1  0
  9 40  1  0
 11 41  1  1
 12 42  1  6
 13 43  1  0
 14 44  1  6
 15 45  1  0
 17 46  1  1
 18 47  1  0
 18 48  1  0
 28 49  1  0
 28 50  1  0
 30 51  1  0
 31 52  1  1
 32 53  1  0
 33 54  1  6
 34 55  1  0
 35 56  1  1
 36 57  1  1
M  CHG  2  22  -1  26  -1
M  END
>  <filename_input>  (19) 
7R3D_APR_docked.sdf

>  <pdb_id>  (19) 
7R3D_APR

>  <pose_rank>  (19) 
18

>  <num_atoms_heavy>  (19) 
36

>  <num_torsions>  (19) 
9

>  <pose>  (19) 
[15.627903471114587, 22.425755845537395, -49.75620130123222, -3.9589082243873306, -0.9871690562444747, 0.6954170703414444, 1.2297443540232929, -3.185002997442746, -1.4739086710944935, 2.313577796474274, -2.1343809716763147, 2.6234349562341746, -0.14438000694462855, -0.1456729800420256, 1.1764711253072102]

>  <energy>  (19) 
-696.437432314881

>  <inter_energy>  (19) 
-725.6552034771653

>  <intra_energy>  (19) 
34.53478854042317

>  <rmsd>  (19) 
4.47683

>  <sdf_rank>  (19) 
0

$$$$

     RDKit          3D

 57 60  0  0  0  0  0  0  0  0999 V2000
   18.6336   23.3286  -50.2283 N   0  0  0  0  0  0  0  0  0  0  0  0
   18.2438   23.8920  -51.3790 C   0  0  0  0  0  0  0  0  0  0  0  0
   17.2135   23.5923  -52.1604 N   0  0  0  0  0  0  0  0  0  0  0  0
   16.5225   22.5578  -51.6556 C   0  0  0  0  0  0  0  0  0  0  0  0
   16.7899   21.8774  -50.4853 C   0  0  0  0  0  0  0  0  0  0  0  0
   17.8998   22.2989  -49.7375 C   0  0  0  0  0  0  0  0  0  0  0  0
   18.2634   21.7547  -48.5818 N   0  0  0  0  0  0  0  0  0  0  0  0
   15.8533   20.8696  -50.3042 N   0  0  0  0  0  0  0  0  0  0  0  0
   15.0602   20.9512  -51.3405 C   0  0  0  0  0  0  0  0  0  0  0  0
   15.4142   21.9617  -52.1862 N   0  0  0  0  0  0  0  0  0  0  0  0
   14.7416   22.3453  -53.4070 C   0  0  1  0  0  0  0  0  0  0  0  0
   14.7106   21.2638  -54.4728 C   0  0  2  0  0  0  0  0  0  0  0  0
   15.9578   21.2679  -55.1323 O   0  0  0  0  0  0  0  0  0  0  0  0
   13.5083   21.7131  -55.3045 C   0  0  2  0  0  0  0  0  0  0  0  0
   13.8641   22.7238  -56.2391 O   0  0  0  0  0  0  0  0  0  0  0  0
   13.3928   22.5866  -53.0979 O   0  0  0  0  0  0  0  0  0  0  0  0
   12.5588   22.3040  -54.2542 C   0  0  2  0  0  0  0  0  0  0  0  0
   11.4182   21.4152  -53.8365 C   0  0  0  0  0  0  0  0  0  0  0  0
   11.6077   21.0430  -52.4372 O   0  0  0  0  0  0  0  0  0  0  0  0
   10.4561   21.3480  -51.3907 P   0  0  2  0  0  0  0  0  0  0  0  0
    9.4506   22.2461  -52.0274 O   0  0  0  0  0  0  0  0  0  0  0  0
   11.0250   21.7639  -50.0668 O   0  0  0  0  0  0  0  0  0  0  0  0
    9.9091   19.8528  -51.1964 O   0  0  0  0  0  0  0  0  0  0  0  0
   10.5872   18.4099  -51.2796 P   0  0  1  0  0  0  0  0  0  0  0  0
   10.5056   17.8788  -52.6838 O   0  0  0  0  0  0  0  0  0  0  0  0
   11.9315   18.5131  -50.6245 O   0  0  0  0  0  0  0  0  0  0  0  0
    9.6550   17.4974  -50.3936 O   0  0  0  0  0  0  0  0  0  0  0  0
   10.2084   16.6970  -49.3313 C   0  0  0  0  0  0  0  0  0  0  0  0
    8.3132   15.3478  -48.7403 O   0  0  0  0  0  0  0  0  0  0  0  0
    6.1223   15.7003  -49.4117 O   0  0  0  0  0  0  0  0  0  0  0  0
    7.2850   14.9380  -49.6147 C   0  0  1  0  0  0  0  0  0  0  0  0
    7.2739   14.3171  -51.9961 O   0  0  0  0  0  0  0  0  0  0  0  0
    7.8697   15.1356  -51.0129 C   0  0  2  0  0  0  0  0  0  0  0  0
    9.6550   13.4263  -50.9303 O   0  0  0  0  0  0  0  0  0  0  0  0
    9.3495   14.8104  -50.8229 C   0  0  2  0  0  0  0  0  0  0  0  0
    9.5986   15.3246  -49.3998 C   0  0  1  0  0  0  0  0  0  0  0  0
   18.8698   24.7263  -51.7282 H   0  0  0  0  0  0  0  0  0  0  0  0
   17.7222   20.9716  -48.1884 H   0  0  0  0  0  0  0  0  0  0  0  0
   19.0866   22.1158  -48.0789 H   0  0  0  0  0  0  0  0  0  0  0  0
   14.2046   20.2812  -51.5112 H   0  0  0  0  0  0  0  0  0  0  0  0
   15.2960   23.2116  -53.7971 H   0  0  0  0  0  0  0  0  0  0  0  0
   14.5880   20.2187  -54.1522 H   0  0  0  0  0  0  0  0  0  0  0  0
   16.6858   21.2703  -54.4615 H   0  0  0  0  0  0  0  0  0  0  0  0
   13.0789   20.8880  -55.8918 H   0  0  0  0  0  0  0  0  0  0  0  0
   14.1504   23.5371  -55.7526 H   0  0  0  0  0  0  0  0  0  0  0  0
   12.0682   23.1855  -54.6926 H   0  0  0  0  0  0  0  0  0  0  0  0
   10.4665   21.9548  -53.9510 H   0  0  0  0  0  0  0  0  0  0  0  0
   11.3937   20.5134  -54.4659 H   0  0  0  0  0  0  0  0  0  0  0  0
   11.2994   16.6245  -49.4513 H   0  0  0  0  0  0  0  0  0  0  0  0
    9.9878   17.1589  -48.3577 H   0  0  0  0  0  0  0  0  0  0  0  0
    5.9619   15.8054  -48.4405 H   0  0  0  0  0  0  0  0  0  0  0  0
    6.9771   13.8946  -49.4515 H   0  0  0  0  0  0  0  0  0  0  0  0
    6.7518   13.5999  -51.5564 H   0  0  0  0  0  0  0  0  0  0  0  0
    7.6885   16.1527  -51.3907 H   0  0  0  0  0  0  0  0  0  0  0  0
    9.7412   13.0362  -50.0245 H   0  0  0  0  0  0  0  0  0  0  0  0
    9.9813   15.2647  -51.6003 H   0  0  0  0  0  0  0  0  0  0  0  0
   10.3274   14.6553  -48.9194 H   0  0  0  0  0  0  0  0  0  0  0  0
  1  2  2  0
  1  6  1  0
  2  3  1  0
  3  4  2  0
  4  5  1  0
  4 10  1  0
  5  6  2  0
  5  8  1  0
  6  7  1  0
  8  9  2  0
  9 10  1  0
 11 10  1  0
 11 12  1  0
 11 16  1  0
 12 13  1  0
 12 14  1  0
 14 15  1  0
 14 17  1  0
 16 17  1  0
 17 18  1  0
 18 19  1  0
 19 20  1  0
 20 21  2  0
 20 22  1  1
 20 23  1  0
 23 24  1  0
 24 25  2  0
 24 26  1  1
 24 27  1  0
 27 28  1  0
 36 28  1  0
 29 31  1  0
 29 36  1  0
 31 30  1  0
 31 33  1  0
 33 32  1  0
 33 35  1  0
 35 34  1  0
 35 36  1  0
  2 37  1  0
  7 38  1  0
  7 39  1  0
  9 40  1  0
 11 41  1  6
 12 42  1  1
 13 43  1  0
 14 44  1  6
 15 45  1  0
 17 46  1  6
 18 47  1  0
 18 48  1  0
 28 49  1  0
 28 50  1  0
 30 51  1  0
 31 52  1  1
 32 53  1  0
 33 54  1  6
 34 55  1  0
 35 56  1  6
 36 57  1  1
M  CHG  2  22  -1  26  -1
M  END
>  <filename_input>  (20) 
7R3D_APR_docked.sdf

>  <pdb_id>  (20) 
7R3D_APR

>  <pose_rank>  (20) 
19

>  <num_atoms_heavy>  (20) 
36

>  <num_torsions>  (20) 
9

>  <pose>  (20) 
[11.418158782329884, 21.415218357095075, -53.836469499494655, -0.11857273201569557, -0.005762198611145183, 0.1486705287281422, -5.152317462484273, -0.16350763897627002, -1.1984871553382987, -3.282313678082606, -3.033543020554306, 3.3029083769393246, -0.7613419525022697, 0.8189199859272122, -2.4652590089265334]

>  <energy>  (20) 
-613.91782190183

>  <inter_energy>  (20) 
-621.4981157216943

>  <intra_energy>  (20) 
14.198612407634936

>  <rmsd>  (20) 
4.19469

>  <sdf_rank>  (20) 
0

$$$$

     RDKit          3D

 57 60  0  0  0  0  0  0  0  0999 V2000
    8.2937   16.1919  -49.9202 N   0  0  0  0  0  0  0  0  0  0  0  0
    8.5095   17.5117  -49.9906 C   0  0  0  0  0  0  0  0  0  0  0  0
    9.4941   18.1768  -50.5822 N   0  0  0  0  0  0  0  0  0  0  0  0
   10.3585   17.3270  -51.1596 C   0  0  0  0  0  0  0  0  0  0  0  0
   10.2742   15.9499  -51.1813 C   0  0  0  0  0  0  0  0  0  0  0  0
    9.1766   15.3641  -50.5324 C   0  0  0  0  0  0  0  0  0  0  0  0
    8.9529   14.0556  -50.4919 N   0  0  0  0  0  0  0  0  0  0  0  0
   11.3567   15.4245  -51.8726 N   0  0  0  0  0  0  0  0  0  0  0  0
   12.0607   16.4624  -52.2430 C   0  0  0  0  0  0  0  0  0  0  0  0
   11.4975   17.6397  -51.8454 N   0  0  0  0  0  0  0  0  0  0  0  0
   11.9964   18.9709  -52.1077 C   0  0  1  0  0  0  0  0  0  0  0  0
   12.4063   19.7434  -50.8660 C   0  0  2  0  0  0  0  0  0  0  0  0
   11.2381   20.2730  -50.2786 O   0  0  0  0  0  0  0  0  0  0  0  0
   13.3777   20.7605  -51.4669 C   0  0  2  0  0  0  0  0  0  0  0  0
   12.6933   21.8762  -52.0221 O   0  0  0  0  0  0  0  0  0  0  0  0
   13.1750   18.8480  -52.8621 O   0  0  0  0  0  0  0  0  0  0  0  0
   14.0580   19.9704  -52.5924 C   0  0  2  0  0  0  0  0  0  0  0  0
   15.4364   19.4522  -52.2809 C   0  0  0  0  0  0  0  0  0  0  0  0
   16.4127   20.4670  -52.6676 O   0  0  0  0  0  0  0  0  0  0  0  0
   17.8698   20.4189  -52.0440 P   0  0  2  0  0  0  0  0  0  0  0  0
   18.7946   21.1969  -52.9172 O   0  0  0  0  0  0  0  0  0  0  0  0
   18.2599   19.0150  -51.6891 O   0  0  0  0  0  0  0  0  0  0  0  0
   17.5601   21.1646  -50.6581 O   0  0  0  0  0  0  0  0  0  0  0  0
   17.3294   22.6918  -50.2540 P   0  0  1  0  0  0  0  0  0  0  0  0
   16.1414   23.2486  -50.9881 O   0  0  0  0  0  0  0  0  0  0  0  0
   17.3500   22.7623  -48.7567 O   0  0  0  0  0  0  0  0  0  0  0  0
   18.6013   23.4333  -50.8186 O   0  0  0  0  0  0  0  0  0  0  0  0
   18.5542   24.1015  -52.0941 C   0  0  0  0  0  0  0  0  0  0  0  0
   18.0160   25.9670  -50.6828 O   0  0  0  0  0  0  0  0  0  0  0  0
   18.5226   26.1665  -48.4292 O   0  0  0  0  0  0  0  0  0  0  0  0
   18.8733   26.5590  -49.7320 C   0  0  1  0  0  0  0  0  0  0  0  0
   21.3054   26.9337  -49.6887 O   0  0  0  0  0  0  0  0  0  0  0  0
   20.2703   26.0790  -50.1245 C   0  0  2  0  0  0  0  0  0  0  0  0
   20.4783   27.2343  -52.3012 O   0  0  0  0  0  0  0  0  0  0  0  0
   20.1993   26.0030  -51.6479 C   0  0  2  0  0  0  0  0  0  0  0  0
   18.7431   25.5757  -51.8684 C   0  0  1  0  0  0  0  0  0  0  0  0
    7.7602   18.1370  -49.4831 H   0  0  0  0  0  0  0  0  0  0  0  0
    9.6089   13.4065  -50.9493 H   0  0  0  0  0  0  0  0  0  0  0  0
    8.1233   13.6898  -50.0031 H   0  0  0  0  0  0  0  0  0  0  0  0
   13.0004   16.3939  -52.8106 H   0  0  0  0  0  0  0  0  0  0  0  0
   11.1752   19.5082  -52.6045 H   0  0  0  0  0  0  0  0  0  0  0  0
   12.8857   19.1926  -50.0434 H   0  0  0  0  0  0  0  0  0  0  0  0
   11.3188   20.2364  -49.2925 H   0  0  0  0  0  0  0  0  0  0  0  0
   14.0699   21.1670  -50.7148 H   0  0  0  0  0  0  0  0  0  0  0  0
   12.3438   22.4459  -51.2918 H   0  0  0  0  0  0  0  0  0  0  0  0
   14.2106   20.6493  -53.4443 H   0  0  0  0  0  0  0  0  0  0  0  0
   15.5210   19.2478  -51.2033 H   0  0  0  0  0  0  0  0  0  0  0  0
   15.6224   18.5205  -52.8352 H   0  0  0  0  0  0  0  0  0  0  0  0
   19.3564   23.7197  -52.7427 H   0  0  0  0  0  0  0  0  0  0  0  0
   17.5852   23.9162  -52.5806 H   0  0  0  0  0  0  0  0  0  0  0  0
   19.0169   26.7196  -47.7736 H   0  0  0  0  0  0  0  0  0  0  0  0
   18.8120   27.6573  -49.7279 H   0  0  0  0  0  0  0  0  0  0  0  0
   21.3251   26.9501  -48.6990 H   0  0  0  0  0  0  0  0  0  0  0  0
   20.5208   25.1197  -49.6481 H   0  0  0  0  0  0  0  0  0  0  0  0
   20.6379   27.9385  -51.6239 H   0  0  0  0  0  0  0  0  0  0  0  0
   20.9541   25.3225  -52.0690 H   0  0  0  0  0  0  0  0  0  0  0  0
   18.3817   26.0618  -52.7866 H   0  0  0  0  0  0  0  0  0  0  0  0
  1  2  2  0
  1  6  1  0
  2  3  1  0
  3  4  2  0
  4  5  1  0
  4 10  1  0
  5  6  2  0
  5  8  1  0
  6  7  1  0
  8  9  2  0
  9 10  1  0
 11 10  1  0
 11 12  1  0
 11 16  1  0
 12 13  1  0
 12 14  1  0
 14 15  1  0
 14 17  1  0
 16 17  1  0
 17 18  1  0
 18 19  1  0
 19 20  1  0
 20 21  2  0
 20 22  1  1
 20 23  1  0
 23 24  1  0
 24 25  2  0
 24 26  1  1
 24 27  1  0
 27 28  1  0
 36 28  1  0
 29 31  1  0
 29 36  1  0
 31 30  1  0
 31 33  1  0
 33 32  1  0
 33 35  1  0
 35 34  1  0
 35 36  1  0
  2 37  1  0
  7 38  1  0
  7 39  1  0
  9 40  1  0
 11 41  1  6
 12 42  1  1
 13 43  1  0
 14 44  1  1
 15 45  1  0
 17 46  1  6
 18 47  1  0
 18 48  1  0
 28 49  1  0
 28 50  1  0
 30 51  1  0
 31 52  1  1
 32 53  1  0
 33 54  1  1
 34 55  1  0
 35 56  1  6
 36 57  1  6
M  CHG  2  22  -1  26  -1
M  END
>  <filename_input>  (21) 
7R3D_APR_docked.sdf

>  <pdb_id>  (21) 
7R3D_APR

>  <pose_rank>  (21) 
20

>  <num_atoms_heavy>  (21) 
36

>  <num_torsions>  (21) 
9

>  <pose>  (21) 
[15.436409185988627, 19.452182893566025, -52.280854149340094, 0.2579659512453434, -3.062982781166816, -2.6604288460522474, 3.8685551955817, -1.108640254556091, -0.5705361833119807, -0.29418164281166775, 1.3893397116754644, -0.3619791552856393, -3.1348957311769308, -1.0918283073818527, 4.56102531284315]

>  <energy>  (21) 
-694.7050090146955

>  <inter_energy>  (21) 
-748.6870927187466

>  <intra_energy>  (21) 
54.580679766800955

>  <rmsd>  (21) 
10.6364

>  <sdf_rank>  (21) 
0

$$$$

     RDKit          3D

 57 60  0  0  0  0  0  0  0  0999 V2000
   20.7355   18.1232  -53.0957 N   0  0  0  0  0  0  0  0  0  0  0  0
   19.7029   18.8121  -52.5930 C   0  0  0  0  0  0  0  0  0  0  0  0
   19.2246   19.9980  -52.9487 N   0  0  0  0  0  0  0  0  0  0  0  0
   19.9445   20.5149  -53.9573 C   0  0  0  0  0  0  0  0  0  0  0  0
   21.0260   19.9314  -54.5848 C   0  0  0  0  0  0  0  0  0  0  0  0
   21.4276   18.6670  -54.1277 C   0  0  0  0  0  0  0  0  0  0  0  0
   22.4343   17.9764  -54.6506 N   0  0  0  0  0  0  0  0  0  0  0  0
   21.5038   20.7753  -55.5774 N   0  0  0  0  0  0  0  0  0  0  0  0
   20.7289   21.8275  -55.5322 C   0  0  0  0  0  0  0  0  0  0  0  0
   19.7622   21.7190  -54.5755 N   0  0  0  0  0  0  0  0  0  0  0  0
   18.7283   22.6838  -54.2752 C   0  0  1  0  0  0  0  0  0  0  0  0
   17.3199   22.2142  -54.5950 C   0  0  2  0  0  0  0  0  0  0  0  0
   17.1087   22.3855  -55.9794 O   0  0  0  0  0  0  0  0  0  0  0  0
   16.4988   23.1164  -53.6725 C   0  0  2  0  0  0  0  0  0  0  0  0
   16.2794   24.3973  -54.2494 O   0  0  0  0  0  0  0  0  0  0  0  0
   18.7308   22.8995  -52.8872 O   0  0  0  0  0  0  0  0  0  0  0  0
   17.3972   23.2626  -52.4375 C   0  0  2  0  0  0  0  0  0  0  0  0
   17.0229   22.4072  -51.2570 C   0  0  0  0  0  0  0  0  0  0  0  0
   15.6791   21.8783  -51.4740 O   0  0  0  0  0  0  0  0  0  0  0  0
   15.1331   20.7337  -50.5221 P   0  0  2  0  0  0  0  0  0  0  0  0
   14.0413   21.2913  -49.6735 O   0  0  0  0  0  0  0  0  0  0  0  0
   16.2585   20.0210  -49.8330 O   0  0  0  0  0  0  0  0  0  0  0  0
   14.5856   19.7299  -51.6469 O   0  0  0  0  0  0  0  0  0  0  0  0
   13.2264   19.6409  -52.4798 P   0  0  1  0  0  0  0  0  0  0  0  0
   12.8114   21.0097  -52.9427 O   0  0  0  0  0  0  0  0  0  0  0  0
   13.4017   18.5568  -53.5001 O   0  0  0  0  0  0  0  0  0  0  0  0
   12.1570   19.1763  -51.4182 O   0  0  0  0  0  0  0  0  0  0  0  0
   11.1733   18.1798  -51.7566 C   0  0  0  0  0  0  0  0  0  0  0  0
   10.4029   17.4100  -49.6176 O   0  0  0  0  0  0  0  0  0  0  0  0
    8.1995   16.9962  -49.0267 O   0  0  0  0  0  0  0  0  0  0  0  0
    9.4246   16.4176  -49.3991 C   0  0  1  0  0  0  0  0  0  0  0  0
    8.8519   14.3505  -50.6058 O   0  0  0  0  0  0  0  0  0  0  0  0
    9.3315   15.6720  -50.7301 C   0  0  2  0  0  0  0  0  0  0  0  0
   11.5868   14.6580  -50.7635 O   0  0  0  0  0  0  0  0  0  0  0  0
   10.7654   15.7095  -51.2536 C   0  0  2  0  0  0  0  0  0  0  0  0
   11.2456   17.0730  -50.7418 C   0  0  1  0  0  0  0  0  0  0  0  0
   19.1727   18.3227  -51.7626 H   0  0  0  0  0  0  0  0  0  0  0  0
   22.9750   18.3680  -55.4349 H   0  0  0  0  0  0  0  0  0  0  0  0
   22.6743   17.0491  -54.2718 H   0  0  0  0  0  0  0  0  0  0  0  0
   20.8433   22.7011  -56.1908 H   0  0  0  0  0  0  0  0  0  0  0  0
   18.9547   23.5688  -54.8881 H   0  0  0  0  0  0  0  0  0  0  0  0
   17.0704   21.1570  -54.4215 H   0  0  0  0  0  0  0  0  0  0  0  0
   16.3479   23.0024  -56.1233 H   0  0  0  0  0  0  0  0  0  0  0  0
   15.5031   22.6985  -53.4629 H   0  0  0  0  0  0  0  0  0  0  0  0
   16.1646   25.0678  -53.5302 H   0  0  0  0  0  0  0  0  0  0  0  0
   17.3033   24.2934  -52.0651 H   0  0  0  0  0  0  0  0  0  0  0  0
   17.7372   21.5764  -51.1597 H   0  0  0  0  0  0  0  0  0  0  0  0
   17.0470   23.0067  -50.3350 H   0  0  0  0  0  0  0  0  0  0  0  0
   10.1697   18.6299  -51.7436 H   0  0  0  0  0  0  0  0  0  0  0  0
   11.3713   17.7816  -52.7627 H   0  0  0  0  0  0  0  0  0  0  0  0
    8.1355   17.0264  -48.0393 H   0  0  0  0  0  0  0  0  0  0  0  0
    9.6840   15.7374  -48.5745 H   0  0  0  0  0  0  0  0  0  0  0  0
    8.7678   14.1188  -49.6470 H   0  0  0  0  0  0  0  0  0  0  0  0
    8.6035   16.1395  -51.4094 H   0  0  0  0  0  0  0  0  0  0  0  0
   11.5794   14.6675  -49.7736 H   0  0  0  0  0  0  0  0  0  0  0  0
   10.8167   15.5762  -52.3443 H   0  0  0  0  0  0  0  0  0  0  0  0
   12.3106   16.9825  -50.4817 H   0  0  0  0  0  0  0  0  0  0  0  0
  1  2  2  0
  1  6  1  0
  2  3  1  0
  3  4  2  0
  4  5  1  0
  4 10  1  0
  5  6  2  0
  5  8  1  0
  6  7  1  0
  8  9  2  0
  9 10  1  0
 11 10  1  0
 11 12  1  0
 11 16  1  0
 12 13  1  0
 12 14  1  0
 14 15  1  0
 14 17  1  0
 16 17  1  0
 17 18  1  0
 18 19  1  0
 19 20  1  0
 20 21  2  0
 20 22  1  1
 20 23  1  0
 23 24  1  0
 24 25  2  0
 24 26  1  6
 24 27  1  0
 27 28  1  0
 36 28  1  0
 29 31  1  0
 29 36  1  0
 31 30  1  0
 31 33  1  0
 33 32  1  0
 33 35  1  0
 35 34  1  0
 35 36  1  0
  2 37  1  0
  7 38  1  0
  7 39  1  0
  9 40  1  0
 11 41  1  6
 12 42  1  1
 13 43  1  0
 14 44  1  1
 15 45  1  0
 17 46  1  1
 18 47  1  0
 18 48  1  0
 28 49  1  0
 28 50  1  0
 30 51  1  0
 31 52  1  1
 32 53  1  0
 33 54  1  6
 34 55  1  0
 35 56  1  6
 36 57  1  1
M  CHG  2  22  -1  26  -1
M  END
>  <filename_input>  (22) 
7R3D_APR_docked.sdf

>  <pdb_id>  (22) 
7R3D_APR

>  <pose_rank>  (22) 
21

>  <num_atoms_heavy>  (22) 
36

>  <num_torsions>  (22) 
9

>  <pose>  (22) 
[17.0228871711211, 22.407193985995516, -51.25697589700536, 1.9219237071521698, 1.8418545652205733, -1.7776498921770623, -1.091046657039283, 2.8882788391574685, -0.41976416542186656, -7.427861697378582, -11.294361760231547, -6.9522295151567555, -0.9491611675047398, -0.9069383403499518, -5.793356055044708]

>  <energy>  (22) 
-642.9411300720882

>  <inter_energy>  (22) 
-652.2356382781933

>  <intra_energy>  (22) 
13.263391231749695

>  <rmsd>  (22) 
5.11413

>  <sdf_rank>  (22) 
0

$$$$

     RDKit          3D

 57 60  0  0  0  0  0  0  0  0999 V2000
   17.9360   26.8067  -47.5696 N   0  0  0  0  0  0  0  0  0  0  0  0
   17.5353   25.7843  -48.3361 C   0  0  0  0  0  0  0  0  0  0  0  0
   18.0998   25.2698  -49.4216 N   0  0  0  0  0  0  0  0  0  0  0  0
   19.2233   25.9364  -49.7314 C   0  0  0  0  0  0  0  0  0  0  0  0
   19.7696   27.0004  -49.0433 C   0  0  0  0  0  0  0  0  0  0  0  0
   19.0866   27.4441  -47.9007 C   0  0  0  0  0  0  0  0  0  0  0  0
   19.5055   28.4398  -47.1281 N   0  0  0  0  0  0  0  0  0  0  0  0
   20.9322   27.4199  -49.6743 N   0  0  0  0  0  0  0  0  0  0  0  0
   21.0639   26.6287  -50.7070 C   0  0  0  0  0  0  0  0  0  0  0  0
   20.0618   25.7060  -50.7846 N   0  0  0  0  0  0  0  0  0  0  0  0
   19.9146   24.6686  -51.7805 C   0  0  1  0  0  0  0  0  0  0  0  0
   19.1588   23.4415  -51.3015 C   0  0  2  0  0  0  0  0  0  0  0  0
   20.0556   22.6387  -50.5656 O   0  0  0  0  0  0  0  0  0  0  0  0
   18.6748   22.8634  -52.6322 C   0  0  2  0  0  0  0  0  0  0  0  0
   19.6823   22.0842  -53.2640 O   0  0  0  0  0  0  0  0  0  0  0  0
   19.1362   25.1859  -52.8292 O   0  0  0  0  0  0  0  0  0  0  0  0
   18.3968   24.1145  -53.4756 C   0  0  2  0  0  0  0  0  0  0  0  0
   16.9495   24.5115  -53.5911 C   0  0  0  0  0  0  0  0  0  0  0  0
   16.7087   25.0004  -54.9459 O   0  0  0  0  0  0  0  0  0  0  0  0
   15.7961   24.1513  -55.9261 P   0  0  2  0  0  0  0  0  0  0  0  0
   16.6460   23.5982  -57.0192 O   0  0  0  0  0  0  0  0  0  0  0  0
   14.5657   24.9148  -56.3164 O   0  0  0  0  0  0  0  0  0  0  0  0
   15.3177   23.0248  -54.8896 O   0  0  0  0  0  0  0  0  0  0  0  0
   14.2249   21.8624  -54.9494 P   0  0  1  0  0  0  0  0  0  0  0  0
   13.0091   22.2525  -54.1557 O   0  0  0  0  0  0  0  0  0  0  0  0
   14.0554   21.4867  -56.3906 O   0  0  0  0  0  0  0  0  0  0  0  0
   14.9016   20.6614  -54.1837 O   0  0  0  0  0  0  0  0  0  0  0  0
   14.3097   20.1319  -52.9817 C   0  0  0  0  0  0  0  0  0  0  0  0
   12.4337   18.9543  -53.9066 O   0  0  0  0  0  0  0  0  0  0  0  0
   11.7865   16.7902  -53.3843 O   0  0  0  0  0  0  0  0  0  0  0  0
   11.5216   18.1556  -53.1856 C   0  0  1  0  0  0  0  0  0  0  0  0
   10.5835   18.3346  -50.9173 O   0  0  0  0  0  0  0  0  0  0  0  0
   11.7129   18.5760  -51.7286 C   0  0  2  0  0  0  0  0  0  0  0  0
   10.8794   20.8992  -51.8842 O   0  0  0  0  0  0  0  0  0  0  0  0
   12.0300   20.0660  -51.8327 C   0  0  2  0  0  0  0  0  0  0  0  0
   12.8157   20.1235  -53.1484 C   0  0  1  0  0  0  0  0  0  0  0  0
   16.6003   25.2991  -48.0192 H   0  0  0  0  0  0  0  0  0  0  0  0
   20.3763   28.9393  -47.3586 H   0  0  0  0  0  0  0  0  0  0  0  0
   18.9596   28.7126  -46.2983 H   0  0  0  0  0  0  0  0  0  0  0  0
   21.8890   26.6990  -51.4310 H   0  0  0  0  0  0  0  0  0  0  0  0
   20.9363   24.3698  -52.0578 H   0  0  0  0  0  0  0  0  0  0  0  0
   18.3124   23.5856  -50.6138 H   0  0  0  0  0  0  0  0  0  0  0  0
   19.9026   22.7757  -49.5971 H   0  0  0  0  0  0  0  0  0  0  0  0
   17.8069   22.1997  -52.5046 H   0  0  0  0  0  0  0  0  0  0  0  0
   20.2443   21.6496  -52.5744 H   0  0  0  0  0  0  0  0  0  0  0  0
   18.7032   23.9052  -54.5111 H   0  0  0  0  0  0  0  0  0  0  0  0
   16.3088   23.6398  -53.3921 H   0  0  0  0  0  0  0  0  0  0  0  0
   16.7157   25.2991  -52.8597 H   0  0  0  0  0  0  0  0  0  0  0  0
   14.6697   19.1065  -52.8116 H   0  0  0  0  0  0  0  0  0  0  0  0
   14.5888   20.7544  -52.1188 H   0  0  0  0  0  0  0  0  0  0  0  0
   11.8738   16.3398  -52.5070 H   0  0  0  0  0  0  0  0  0  0  0  0
   10.4806   18.2972  -53.5115 H   0  0  0  0  0  0  0  0  0  0  0  0
   10.8442   18.3903  -49.9639 H   0  0  0  0  0  0  0  0  0  0  0  0
   12.5042   17.9919  -51.2361 H   0  0  0  0  0  0  0  0  0  0  0  0
   10.5850   21.1124  -50.9634 H   0  0  0  0  0  0  0  0  0  0  0  0
   12.5691   20.4422  -50.9507 H   0  0  0  0  0  0  0  0  0  0  0  0
   12.5709   21.0717  -53.6493 H   0  0  0  0  0  0  0  0  0  0  0  0
  1  2  2  0
  1  6  1  0
  2  3  1  0
  3  4  2  0
  4  5  1  0
  4 10  1  0
  5  6  2  0
  5  8  1  0
  6  7  1  0
  8  9  2  0
  9 10  1  0
 11 10  1  0
 11 12  1  0
 11 16  1  0
 12 13  1  0
 12 14  1  0
 14 15  1  0
 14 17  1  0
 16 17  1  0
 17 18  1  0
 18 19  1  0
 19 20  1  0
 20 21  2  0
 20 22  1  6
 20 23  1  0
 23 24  1  0
 24 25  2  0
 24 26  1  6
 24 27  1  0
 27 28  1  0
 36 28  1  0
 29 31  1  0
 29 36  1  0
 31 30  1  0
 31 33  1  0
 33 32  1  0
 33 35  1  0
 35 34  1  0
 35 36  1  0
  2 37  1  0
  7 38  1  0
  7 39  1  0
  9 40  1  0
 11 41  1  6
 12 42  1  1
 13 43  1  0
 14 44  1  1
 15 45  1  0
 17 46  1  6
 18 47  1  0
 18 48  1  0
 28 49  1  0
 28 50  1  0
 30 51  1  0
 31 52  1  6
 32 53  1  0
 33 54  1  1
 34 55  1  0
 35 56  1  1
 36 57  1  6
M  CHG  2  22  -1  26  -1
M  END
>  <filename_input>  (23) 
7R3D_APR_docked.sdf

>  <pdb_id>  (23) 
7R3D_APR

>  <pose_rank>  (23) 
22

>  <num_atoms_heavy>  (23) 
36

>  <num_torsions>  (23) 
9

>  <pose>  (23) 
[16.949492445899125, 24.511535017708542, -53.59112319437111, -3.1447678701448103, -0.40388159456196104, 0.27306222987612927, -3.3306007884793654, -2.708512606654057, -1.4183675989205862, 1.254177943211026, -0.5827479051004977, 3.056521296402939, 3.518738822238047, 3.8553917513429434, 0.39350624213041996]

>  <energy>  (23) 
-533.5815354550908

>  <inter_energy>  (23) 
-602.6524996923889

>  <intra_energy>  (23) 
72.75987657299858

>  <rmsd>  (23) 
4.21286

>  <sdf_rank>  (23) 
0

$$$$

     RDKit          3D

 57 60  0  0  0  0  0  0  0  0999 V2000
   19.6730   25.1803  -49.8484 N   0  0  0  0  0  0  0  0  0  0  0  0
   19.6058   24.2993  -50.8548 C   0  0  0  0  0  0  0  0  0  0  0  0
   19.6312   24.5094  -52.1651 N   0  0  0  0  0  0  0  0  0  0  0  0
   19.7297   25.8216  -52.4317 C   0  0  0  0  0  0  0  0  0  0  0  0
   19.8144   26.8477  -51.5130 C   0  0  0  0  0  0  0  0  0  0  0  0
   19.7925   26.4961  -50.1548 C   0  0  0  0  0  0  0  0  0  0  0  0
   19.8895   27.3727  -49.1618 N   0  0  0  0  0  0  0  0  0  0  0  0
   19.9004   28.0642  -52.1752 N   0  0  0  0  0  0  0  0  0  0  0  0
   19.8626   27.7632  -53.4471 C   0  0  0  0  0  0  0  0  0  0  0  0
   19.7685   26.4187  -53.6594 N   0  0  0  0  0  0  0  0  0  0  0  0
   19.7308   25.7440  -54.9373 C   0  0  1  0  0  0  0  0  0  0  0  0
   20.4125   24.3869  -54.9507 C   0  0  2  0  0  0  0  0  0  0  0  0
   21.8013   24.5997  -55.0789 O   0  0  0  0  0  0  0  0  0  0  0  0
   19.7198   23.7282  -56.1446 C   0  0  2  0  0  0  0  0  0  0  0  0
   20.3127   24.1178  -57.3767 O   0  0  0  0  0  0  0  0  0  0  0  0
   18.3863   25.4759  -55.2431 O   0  0  0  0  0  0  0  0  0  0  0  0
   18.2919   24.2842  -56.0698 C   0  0  2  0  0  0  0  0  0  0  0  0
   17.2629   23.3552  -55.4834 C   0  0  0  0  0  0  0  0  0  0  0  0
   17.7281   22.9158  -54.1707 O   0  0  0  0  0  0  0  0  0  0  0  0
   17.6376   21.3792  -53.7902 P   0  0  2  0  0  0  0  0  0  0  0  0
   18.9693   20.9246  -53.2973 O   0  0  0  0  0  0  0  0  0  0  0  0
   16.9918   20.5875  -54.8881 O   0  0  0  0  0  0  0  0  0  0  0  0
   16.5518   21.4888  -52.6149 O   0  0  0  0  0  0  0  0  0  0  0  0
   16.4579   20.8866  -51.1392 P   0  0  1  0  0  0  0  0  0  0  0  0
   17.5442   19.8698  -50.9240 O   0  0  0  0  0  0  0  0  0  0  0  0
   16.3565   22.0450  -50.1931 O   0  0  0  0  0  0  0  0  0  0  0  0
   15.0912   20.1000  -51.1333 O   0  0  0  0  0  0  0  0  0  0  0  0
   13.9714   20.5821  -50.3658 C   0  0  0  0  0  0  0  0  0  0  0  0
   11.6658   20.1256  -49.8787 O   0  0  0  0  0  0  0  0  0  0  0  0
    9.9594   21.6903  -49.7561 O   0  0  0  0  0  0  0  0  0  0  0  0
   10.5540   20.6874  -50.5403 C   0  0  1  0  0  0  0  0  0  0  0  0
   10.1672   21.3465  -52.8798 O   0  0  0  0  0  0  0  0  0  0  0  0
   11.1237   21.2369  -51.8478 C   0  0  2  0  0  0  0  0  0  0  0  0
   11.7667   19.1016  -52.9168 O   0  0  0  0  0  0  0  0  0  0  0  0
   12.2249   20.2385  -52.1970 C   0  0  2  0  0  0  0  0  0  0  0  0
   12.7375   19.8450  -50.8063 C   0  0  1  0  0  0  0  0  0  0  0  0
   19.5162   23.2460  -50.5505 H   0  0  0  0  0  0  0  0  0  0  0  0
   19.9811   28.3775  -49.3689 H   0  0  0  0  0  0  0  0  0  0  0  0
   19.8730   27.0478  -48.1845 H   0  0  0  0  0  0  0  0  0  0  0  0
   19.9021   28.5093  -54.2544 H   0  0  0  0  0  0  0  0  0  0  0  0
   20.2494   26.4082  -55.6443 H   0  0  0  0  0  0  0  0  0  0  0  0
   20.3270   23.7512  -54.0571 H   0  0  0  0  0  0  0  0  0  0  0  0
   22.2100   24.6623  -54.1794 H   0  0  0  0  0  0  0  0  0  0  0  0
   19.7823   22.6306  -56.1063 H   0  0  0  0  0  0  0  0  0  0  0  0
   21.1263   24.6525  -57.1969 H   0  0  0  0  0  0  0  0  0  0  0  0
   17.9397   24.4644  -57.0962 H   0  0  0  0  0  0  0  0  0  0  0  0
   16.3034   23.8829  -55.3792 H   0  0  0  0  0  0  0  0  0  0  0  0
   17.1212   22.4862  -56.1427 H   0  0  0  0  0  0  0  0  0  0  0  0
   14.1496   20.4008  -49.2956 H   0  0  0  0  0  0  0  0  0  0  0  0
   13.8420   21.6626  -50.5265 H   0  0  0  0  0  0  0  0  0  0  0  0
   10.0854   21.4777  -48.7975 H   0  0  0  0  0  0  0  0  0  0  0  0
    9.7540   19.9556  -50.7265 H   0  0  0  0  0  0  0  0  0  0  0  0
    9.2655   21.4498  -52.4844 H   0  0  0  0  0  0  0  0  0  0  0  0
   11.4867   22.2689  -51.7326 H   0  0  0  0  0  0  0  0  0  0  0  0
   11.4837   18.3993  -52.2790 H   0  0  0  0  0  0  0  0  0  0  0  0
   12.9824   20.6684  -52.8689 H   0  0  0  0  0  0  0  0  0  0  0  0
   13.0252   18.7838  -50.8380 H   0  0  0  0  0  0  0  0  0  0  0  0
  1  2  2  0
  1  6  1  0
  2  3  1  0
  3  4  2  0
  4  5  1  0
  4 10  1  0
  5  6  2  0
  5  8  1  0
  6  7  1  0
  8  9  2  0
  9 10  1  0
 11 10  1  0
 11 12  1  0
 11 16  1  0
 12 13  1  0
 12 14  1  0
 14 15  1  0
 14 17  1  0
 16 17  1  0
 17 18  1  0
 18 19  1  0
 19 20  1  0
 20 21  2  0
 20 22  1  6
 20 23  1  0
 23 24  1  0
 24 25  2  0
 24 26  1  1
 24 27  1  0
 27 28  1  0
 36 28  1  0
 29 31  1  0
 29 36  1  0
 31 30  1  0
 31 33  1  0
 33 32  1  0
 33 35  1  0
 35 34  1  0
 35 36  1  0
  2 37  1  0
  7 38  1  0
  7 39  1  0
  9 40  1  0
 11 41  1  6
 12 42  1  1
 13 43  1  0
 14 44  1  1
 15 45  1  0
 17 46  1  6
 18 47  1  0
 18 48  1  0
 28 49  1  0
 28 50  1  0
 30 51  1  0
 31 52  1  6
 32 53  1  0
 33 54  1  1
 34 55  1  0
 35 56  1  6
 36 57  1  6
M  CHG  2  22  -1  26  -1
M  END
>  <filename_input>  (24) 
7R3D_APR_docked.sdf

>  <pdb_id>  (24) 
7R3D_APR

>  <pose_rank>  (24) 
23

>  <num_atoms_heavy>  (24) 
36

>  <num_torsions>  (24) 
9

>  <pose>  (24) 
[17.262931216519334, 23.355228482278353, -55.48336850099851, -1.2859864212555197, 4.726145831552598, 4.338419006588274, 0.0987570717964543, -2.823733074844872, 0.5778402156344089, -0.8366766326047016, 6.687706867824885, 4.702784729146666, -0.46695931667108376, -0.19873095196424473, 1.9239227522747304]

>  <energy>  (24) 
-449.2730255139761

>  <inter_energy>  (24) 
-481.91009048223975

>  <intra_energy>  (24) 
34.16713797363891

>  <rmsd>  (24) 
4.21514

>  <sdf_rank>  (24) 
0

$$$$

     RDKit          3D

 57 60  0  0  0  0  0  0  0  0999 V2000
   12.7446   22.6742  -55.0851 N   0  0  0  0  0  0  0  0  0  0  0  0
   12.7869   22.2442  -53.8175 C   0  0  0  0  0  0  0  0  0  0  0  0
   13.8267   21.8491  -53.0933 N   0  0  0  0  0  0  0  0  0  0  0  0
   14.9568   21.9112  -53.8154 C   0  0  0  0  0  0  0  0  0  0  0  0
   15.0802   22.3352  -55.1227 C   0  0  0  0  0  0  0  0  0  0  0  0
   13.9085   22.7433  -55.7781 C   0  0  0  0  0  0  0  0  0  0  0  0
   13.8782   23.1968  -57.0260 N   0  0  0  0  0  0  0  0  0  0  0  0
   16.4074   22.2523  -55.5195 N   0  0  0  0  0  0  0  0  0  0  0  0
   17.0462   21.7880  -54.4772 C   0  0  0  0  0  0  0  0  0  0  0  0
   16.2178   21.5723  -53.4149 N   0  0  0  0  0  0  0  0  0  0  0  0
   16.5957   21.0904  -52.1054 C   0  0  1  0  0  0  0  0  0  0  0  0
   16.1702   21.9904  -50.9585 C   0  0  2  0  0  0  0  0  0  0  0  0
   17.1031   23.0445  -50.8643 O   0  0  0  0  0  0  0  0  0  0  0  0
   16.1614   20.9941  -49.7982 C   0  0  2  0  0  0  0  0  0  0  0  0
   17.4633   20.8033  -49.2596 O   0  0  0  0  0  0  0  0  0  0  0  0
   15.9225   19.8779  -51.8821 O   0  0  0  0  0  0  0  0  0  0  0  0
   15.6895   19.6926  -50.4595 C   0  0  2  0  0  0  0  0  0  0  0  0
   14.2438   19.3378  -50.2367 C   0  0  0  0  0  0  0  0  0  0  0  0
   13.4348   20.0407  -51.2288 O   0  0  0  0  0  0  0  0  0  0  0  0
   11.9351   19.5856  -51.4699 P   0  0  2  0  0  0  0  0  0  0  0  0
   11.6878   19.4957  -52.9375 O   0  0  0  0  0  0  0  0  0  0  0  0
   10.9832   20.4048  -50.6501 O   0  0  0  0  0  0  0  0  0  0  0  0
   12.0083   18.1446  -50.7695 O   0  0  0  0  0  0  0  0  0  0  0  0
   11.4980   16.6894  -51.1826 P   0  0  1  0  0  0  0  0  0  0  0  0
   11.9750   16.3462  -52.5665 O   0  0  0  0  0  0  0  0  0  0  0  0
   11.8358   15.7636  -50.0531 O   0  0  0  0  0  0  0  0  0  0  0  0
    9.9309   16.8430  -51.2670 O   0  0  0  0  0  0  0  0  0  0  0  0
    9.0647   15.8164  -50.7464 C   0  0  0  0  0  0  0  0  0  0  0  0
    7.0874   16.5380  -49.5927 O   0  0  0  0  0  0  0  0  0  0  0  0
    5.1496   15.3001  -49.2967 O   0  0  0  0  0  0  0  0  0  0  0  0
    6.3285   15.7649  -48.6896 C   0  0  1  0  0  0  0  0  0  0  0  0
    6.9492   14.0551  -47.0317 O   0  0  0  0  0  0  0  0  0  0  0  0
    7.2604   14.6228  -48.2858 C   0  0  2  0  0  0  0  0  0  0  0  0
    8.9691   15.9308  -47.0671 O   0  0  0  0  0  0  0  0  0  0  0  0
    8.6392   15.2789  -48.2864 C   0  0  2  0  0  0  0  0  0  0  0  0
    8.5014   16.2864  -49.4343 C   0  0  1  0  0  0  0  0  0  0  0  0
   11.8166   22.2140  -53.3002 H   0  0  0  0  0  0  0  0  0  0  0  0
   14.7489   23.2587  -57.5728 H   0  0  0  0  0  0  0  0  0  0  0  0
   12.9840   23.4866  -57.4471 H   0  0  0  0  0  0  0  0  0  0  0  0
   18.1287   21.5935  -54.4591 H   0  0  0  0  0  0  0  0  0  0  0  0
   17.6936   21.0228  -52.1144 H   0  0  0  0  0  0  0  0  0  0  0  0
   15.2008   22.5052  -51.0313 H   0  0  0  0  0  0  0  0  0  0  0  0
   17.2801   23.2444  -49.9110 H   0  0  0  0  0  0  0  0  0  0  0  0
   15.5300   21.3346  -48.9642 H   0  0  0  0  0  0  0  0  0  0  0  0
   17.4157   20.8103  -48.2708 H   0  0  0  0  0  0  0  0  0  0  0  0
   16.2454   18.8575  -50.0083 H   0  0  0  0  0  0  0  0  0  0  0  0
   14.1069   18.2521  -50.3485 H   0  0  0  0  0  0  0  0  0  0  0  0
   13.9358   19.6326  -49.2227 H   0  0  0  0  0  0  0  0  0  0  0  0
    8.2453   15.6277  -51.4556 H   0  0  0  0  0  0  0  0  0  0  0  0
    9.6306   14.8843  -50.6010 H   0  0  0  0  0  0  0  0  0  0  0  0
    4.4976   15.0430  -48.5975 H   0  0  0  0  0  0  0  0  0  0  0  0
    5.9936   16.3394  -47.8133 H   0  0  0  0  0  0  0  0  0  0  0  0
    7.2752   14.6497  -46.3103 H   0  0  0  0  0  0  0  0  0  0  0  0
    7.1803   13.7684  -48.9740 H   0  0  0  0  0  0  0  0  0  0  0  0
    8.6842   15.3678  -46.3043 H   0  0  0  0  0  0  0  0  0  0  0  0
    9.4516   14.5466  -48.4036 H   0  0  0  0  0  0  0  0  0  0  0  0
    9.0809   17.1834  -49.1706 H   0  0  0  0  0  0  0  0  0  0  0  0
  1  2  2  0
  1  6  1  0
  2  3  1  0
  3  4  2  0
  4  5  1  0
  4 10  1  0
  5  6  2  0
  5  8  1  0
  6  7  1  0
  8  9  2  0
  9 10  1  0
 11 10  1  0
 11 12  1  0
 11 16  1  0
 12 13  1  0
 12 14  1  0
 14 15  1  0
 14 17  1  0
 16 17  1  0
 17 18  1  0
 18 19  1  0
 19 20  1  0
 20 21  2  0
 20 22  1  1
 20 23  1  0
 23 24  1  0
 24 25  2  0
 24 26  1  1
 24 27  1  0
 27 28  1  0
 36 28  1  0
 29 31  1  0
 29 36  1  0
 31 30  1  0
 31 33  1  0
 33 32  1  0
 33 35  1  0
 35 34  1  0
 35 36  1  0
  2 37  1  0
  7 38  1  0
  7 39  1  0
  9 40  1  0
 11 41  1  6
 12 42  1  6
 13 43  1  0
 14 44  1  1
 15 45  1  0
 17 46  1  1
 18 47  1  0
 18 48  1  0
 28 49  1  0
 28 50  1  0
 30 51  1  0
 31 52  1  1
 32 53  1  0
 33 54  1  6
 34 55  1  0
 35 56  1  6
 36 57  1  1
M  CHG  2  22  -1  26  -1
M  END
>  <filename_input>  (25) 
7R3D_APR_docked.sdf

>  <pdb_id>  (25) 
7R3D_APR

>  <pose_rank>  (25) 
24

>  <num_atoms_heavy>  (25) 
36

>  <num_torsions>  (25) 
9

>  <pose>  (25) 
[14.24380501328429, 19.3378333327825, -50.236736997947666, 3.16358444612776, 1.318226370341505, -0.5570813093531995, 0.625285869335669, 9.376478957497543, -6.772481189633381, -5.420056593630321, 0.38021673424606367, 5.769384054446901, 5.323597836458268, 11.275913556814894, 0.9113360415971284]

>  <energy>  (25) 
-579.9861968043247

>  <inter_energy>  (25) 
-653.9686232703599

>  <intra_energy>  (25) 
64.00173365320482

>  <rmsd>  (25) 
5.57494

>  <sdf_rank>  (25) 
0

$$$$

     RDKit          3D

 57 60  0  0  0  0  0  0  0  0999 V2000
   19.6070   27.8920  -49.0780 N   0  0  0  0  0  0  0  0  0  0  0  0
   19.9530   27.4700  -50.3010 C   0  0  0  0  0  0  0  0  0  0  0  0
   19.6140   26.3560  -50.9380 N   0  0  0  0  0  0  0  0  0  0  0  0
   18.8170   25.5960  -50.1700 C   0  0  0  0  0  0  0  0  0  0  0  0
   18.3680   25.8910  -48.8990 C   0  0  0  0  0  0  0  0  0  0  0  0
   18.7840   27.1080  -48.3380 C   0  0  0  0  0  0  0  0  0  0  0  0
   18.4130   27.5340  -47.1360 N   0  0  0  0  0  0  0  0  0  0  0  0
   17.5670   24.8580  -48.4330 N   0  0  0  0  0  0  0  0  0  0  0  0
   17.5490   23.9780  -49.4000 C   0  0  0  0  0  0  0  0  0  0  0  0
   18.2820   24.3780  -50.4790 N   0  0  0  0  0  0  0  0  0  0  0  0
   18.4540   23.6620  -51.7230 C   0  0  1  0  0  0  0  0  0  0  0  0
   18.9180   22.2250  -51.5610 C   0  0  2  0  0  0  0  0  0  0  0  0
   20.3130   22.2400  -51.3510 O   0  0  0  0  0  0  0  0  0  0  0  0
   18.4430   21.6180  -52.8820 C   0  0  2  0  0  0  0  0  0  0  0  0
   19.3620   21.8710  -53.9370 O   0  0  0  0  0  0  0  0  0  0  0  0
   17.1970   23.5680  -52.3430 O   0  0  0  0  0  0  0  0  0  0  0  0
   17.1330   22.3670  -53.1590 C   0  0  2  0  0  0  0  0  0  0  0  0
   15.8720   21.6130  -52.8320 C   0  0  0  0  0  0  0  0  0  0  0  0
   16.0000   21.0540  -51.4890 O   0  0  0  0  0  0  0  0  0  0  0  0
   14.9590   19.9620  -51.0010 P   0  0  2  0  0  0  0  0  0  0  0  0
   15.3520   19.4940  -49.6410 O   0  0  0  0  0  0  0  0  0  0  0  0
   14.7300   18.9230  -52.0580 O   0  0  0  0  0  0  0  0  0  0  0  0
   13.6440   20.8800  -50.9790 O   0  0  0  0  0  0  0  0  0  0  0  0
   12.2550   20.8000  -50.1960 P   0  0  1  0  0  0  0  0  0  0  0  0
   12.4130   21.3430  -48.8030 O   0  0  0  0  0  0  0  0  0  0  0  0
   11.2080   21.3960  -51.0880 O   0  0  0  0  0  0  0  0  0  0  0  0
   11.9850   19.2530  -50.0530 O   0  0  0  0  0  0  0  0  0  0  0  0
   11.3750   18.5130  -51.1280 C   0  0  0  0  0  0  0  0  0  0  0  0
   10.5230   16.9550  -49.5130 O   0  0  0  0  0  0  0  0  0  0  0  0
    8.2890   16.5940  -49.0090 O   0  0  0  0  0  0  0  0  0  0  0  0
    9.4140   16.1020  -49.6920 C   0  0  1  0  0  0  0  0  0  0  0  0
    8.5370   14.9010  -51.6530 O   0  0  0  0  0  0  0  0  0  0  0  0
    9.2010   16.0630  -51.2050 C   0  0  2  0  0  0  0  0  0  0  0  0
   11.2860   14.9050  -51.8590 O   0  0  0  0  0  0  0  0  0  0  0  0
   10.6200   16.1570  -51.7610 C   0  0  2  0  0  0  0  0  0  0  0  0
   11.2970   17.0660  -50.7280 C   0  0  1  0  0  0  0  0  0  0  0  0
   20.6160   28.1465  -50.8602 H   0  0  0  0  0  0  0  0  0  0  0  0
   17.7885   26.9566  -46.5551 H   0  0  0  0  0  0  0  0  0  0  0  0
   18.7498   28.4418  -46.7848 H   0  0  0  0  0  0  0  0  0  0  0  0
   17.0046   23.0235  -49.3493 H   0  0  0  0  0  0  0  0  0  0  0  0
   19.2157   24.2188  -52.2885 H   0  0  0  0  0  0  0  0  0  0  0  0
   18.5319   21.6449  -50.7099 H   0  0  0  0  0  0  0  0  0  0  0  0
   20.5004   22.2420  -50.3789 H   0  0  0  0  0  0  0  0  0  0  0  0
   18.3370   20.5248  -52.8215 H   0  0  0  0  0  0  0  0  0  0  0  0
   20.2430   22.1136  -53.5561 H   0  0  0  0  0  0  0  0  0  0  0  0
   17.0652   22.5507  -54.2414 H   0  0  0  0  0  0  0  0  0  0  0  0
   15.0111   22.2967  -52.8686 H   0  0  0  0  0  0  0  0  0  0  0  0
   15.7162   20.8055  -53.5625 H   0  0  0  0  0  0  0  0  0  0  0  0
   10.3631   18.9005  -51.3176 H   0  0  0  0  0  0  0  0  0  0  0  0
   11.9736   18.6185  -52.0448 H   0  0  0  0  0  0  0  0  0  0  0  0
    8.4405   16.5277  -48.0329 H   0  0  0  0  0  0  0  0  0  0  0  0
    9.5807   15.0944  -49.2834 H   0  0  0  0  0  0  0  0  0  0  0  0
    8.2348   14.3720  -50.8726 H   0  0  0  0  0  0  0  0  0  0  0  0
    8.5413   16.8749  -51.5450 H   0  0  0  0  0  0  0  0  0  0  0  0
   11.4708   14.5575  -50.9506 H   0  0  0  0  0  0  0  0  0  0  0  0
   10.6406   16.5303  -52.7955 H   0  0  0  0  0  0  0  0  0  0  0  0
   12.3403   16.7356  -50.6166 H   0  0  0  0  0  0  0  0  0  0  0  0
  1  2  2  0
  1  6  1  0
  2  3  1  0
  3  4  2  0
  4  5  1  0
  4 10  1  0
  5  6  2  0
  5  8  1  0
  6  7  1  0
  8  9  2  0
  9 10  1  0
 11 10  1  0
 11 12  1  0
 11 16  1  0
 12 13  1  0
 12 14  1  0
 14 15  1  0
 14 17  1  0
 16 17  1  0
 17 18  1  0
 18 19  1  0
 19 20  1  0
 20 21  2  0
 20 22  1  6
 20 23  1  0
 23 24  1  0
 24 25  2  0
 24 26  1  6
 24 27  1  0
 27 28  1  0
 36 28  1  0
 29 31  1  0
 29 36  1  0
 31 30  1  0
 31 33  1  0
 33 32  1  0
 33 35  1  0
 35 34  1  0
 35 36  1  0
  2 37  1  0
  7 38  1  0
  7 39  1  0
  9 40  1  0
 11 41  1  6
 12 42  1  1
 13 43  1  0
 14 44  1  1
 15 45  1  0
 17 46  1  6
 18 47  1  0
 18 48  1  0
 28 49  1  0
 28 50  1  0
 30 51  1  0
 31 52  1  1
 32 53  1  0
 33 54  1  6
 34 55  1  0
 35 56  1  6
 36 57  1  1
M  CHG  2  22  -1  26  -1
M  END
>  <filename_input>  (26) 
7R3D_APR_docked.sdf

>  <pdb_id>  (26) 
7R3D_APR

>  <pose_rank>  (26) 
25

>  <num_atoms_heavy>  (26) 
36

>  <num_torsions>  (26) 
9

>  <pose>  (26) 
[15.872, 21.613, -52.832, 1e-06, 1e-06, 1e-06, 0.0, 0.0, 0.0, 0.0, 0.0, 0.0, 0.0, 0.0, 0.0]

>  <energy>  (26) 
-955.8563430166175

>  <inter_energy>  (26) 
-966.8663872685179

>  <intra_energy>  (26) 
7.0049457875879595

>  <rmsd>  (26) 
0.0

>  <sdf_rank>  (26) 
0

$$$$
