
     RDKit          3D

 18 20  0  0  0  0  0  0  0  0999 V2000
    1.7687    4.2001   10.8818 C   0  0  0  0  0  0  0  0  0  0  0  0
    2.1758    3.5413    9.7111 C   0  0  0  0  0  0  0  0  0  0  0  0
    1.3637    3.5373    8.5829 C   0  0  0  0  0  0  0  0  0  0  0  0
    3.8316    3.3407   11.4487 C   0  0  0  0  0  0  0  0  0  0  0  0
    3.0568    4.4669   13.1288 C   0  0  0  0  0  0  0  0  0  0  0  0
    4.7134    3.2516   12.4089 N   0  0  0  0  0  0  0  0  0  0  0  0
    4.2211    4.0015   13.4765 N   0  0  0  0  0  0  0  0  0  0  0  0
    0.5640    4.8876   10.9311 C   0  0  0  0  0  0  0  0  0  0  0  0
    2.7500    4.0556   11.8757 N   0  0  0  0  0  0  0  0  0  0  0  0
   -0.6331    4.2206    7.5289 O   0  0  0  0  0  0  0  0  0  0  0  0
    0.1712    4.2321    8.6275 C   0  0  0  0  0  0  0  0  0  0  0  0
   -0.2406    4.9000    9.7928 C   0  0  0  0  0  0  0  0  0  0  0  0
    3.7148    2.7083    9.8402 S   0  0  0  0  0  0  0  0  0  0  0  0
    1.6641    2.9931    7.6754 H   0  0  0  0  0  0  0  0  0  0  0  0
    2.4164    5.1010   13.7596 H   0  0  0  0  0  0  0  0  0  0  0  0
    0.2514    5.4105   11.8470 H   0  0  0  0  0  0  0  0  0  0  0  0
   -1.4924    4.7121    7.5393 H   0  0  0  0  0  0  0  0  0  0  0  0
   -1.2017    5.4349    9.8070 H   0  0  0  0  0  0  0  0  0  0  0  0
  1  2  1  0
  1  8  2  0
  1  9  1  0
  2  3  2  0
  2 13  1  0
  3 11  1  0
  4  6  2  0
  4  9  1  0
  4 13  1  0
  5  7  2  0
  5  9  1  0
  6  7  1  0
  8 12  1  0
 10 11  1  0
 11 12  2  0
  3 14  1  0
  5 15  1  0
  8 16  1  0
 10 17  1  0
 12 18  1  0
M  END
>  <filename_input>  (1) 
7R59_I5F_docked.sdf

>  <pdb_id>  (1) 
7R59_I5F

>  <pose_rank>  (1) 
0

>  <num_atoms_heavy>  (1) 
13

>  <num_torsions>  (1) 
0

>  <pose>  (1) 
[1.7686764854580908, 4.200112688558955, 10.881775944179573, 1.404492535984383, 2.943065215287182, -1.0163925305399077]

>  <energy>  (1) 
-780.5474977964864

>  <inter_energy>  (1) 
-759.8624094581922

>  <intra_energy>  (1) 
0.0

>  <rmsd>  (1) 
5.03105

>  <sdf_rank>  (1) 
0

$$$$

     RDKit          3D

 18 20  0  0  0  0  0  0  0  0999 V2000
    1.9429    3.8400   10.5163 C   0  0  0  0  0  0  0  0  0  0  0  0
    0.7862    4.6274   10.6279 C   0  0  0  0  0  0  0  0  0  0  0  0
   -0.1056    4.7285    9.5664 C   0  0  0  0  0  0  0  0  0  0  0  0
    2.0844    4.6875   12.6557 C   0  0  0  0  0  0  0  0  0  0  0  0
    3.7710    3.3730   12.3106 C   0  0  0  0  0  0  0  0  0  0  0  0
    2.8075    4.6983   13.7441 N   0  0  0  0  0  0  0  0  0  0  0  0
    3.8755    3.8290   13.5248 N   0  0  0  0  0  0  0  0  0  0  0  0
    2.2072    3.1209    9.3590 C   0  0  0  0  0  0  0  0  0  0  0  0
    2.6805    3.9049   11.7094 N   0  0  0  0  0  0  0  0  0  0  0  0
   -0.7141    4.1085    7.3732 O   0  0  0  0  0  0  0  0  0  0  0  0
    0.1505    4.0029    8.4199 C   0  0  0  0  0  0  0  0  0  0  0  0
    1.3020    3.2069    8.3024 C   0  0  0  0  0  0  0  0  0  0  0  0
    0.6290    5.4810   12.1529 S   0  0  0  0  0  0  0  0  0  0  0  0
   -0.9950    5.3718    9.6382 H   0  0  0  0  0  0  0  0  0  0  0  0
    4.4659    2.6607   11.8419 H   0  0  0  0  0  0  0  0  0  0  0  0
    3.1100    2.4977    9.2774 H   0  0  0  0  0  0  0  0  0  0  0  0
   -0.5495    3.5971    6.5417 H   0  0  0  0  0  0  0  0  0  0  0  0
    1.4901    2.6494    7.3730 H   0  0  0  0  0  0  0  0  0  0  0  0
  1  2  1  0
  1  8  2  0
  1  9  1  0
  2  3  2  0
  2 13  1  0
  3 11  1  0
  4  6  2  0
  4  9  1  0
  4 13  1  0
  5  7  2  0
  5  9  1  0
  6  7  1  0
  8 12  1  0
 10 11  1  0
 11 12  2  0
  3 14  1  0
  5 15  1  0
  8 16  1  0
 10 17  1  0
 12 18  1  0
M  END
>  <filename_input>  (2) 
7R59_I5F_docked.sdf

>  <pdb_id>  (2) 
7R59_I5F

>  <pose_rank>  (2) 
1

>  <num_atoms_heavy>  (2) 
13

>  <num_torsions>  (2) 
0

>  <pose>  (2) 
[1.9429356473192967, 3.8400245667841637, 10.51627709082415, 2.29596330721476, -1.7082785653339558, -1.3173564643436628]

>  <energy>  (2) 
-725.9151315671304

>  <inter_energy>  (2) 
-699.3169948224538

>  <intra_energy>  (2) 
0.0

>  <rmsd>  (2) 
4.60832

>  <sdf_rank>  (2) 
0

$$$$

     RDKit          3D

 18 20  0  0  0  0  0  0  0  0999 V2000
    1.9788    3.8369   10.4681 C   0  0  0  0  0  0  0  0  0  0  0  0
    2.0571    3.1913    9.2241 C   0  0  0  0  0  0  0  0  0  0  0  0
    1.0453    3.3441    8.2832 C   0  0  0  0  0  0  0  0  0  0  0  0
    3.9816    2.7010   10.5867 C   0  0  0  0  0  0  0  0  0  0  0  0
    3.7081    3.8302   12.4147 C   0  0  0  0  0  0  0  0  0  0  0  0
    5.0157    2.4557   11.3469 N   0  0  0  0  0  0  0  0  0  0  0  0
    4.8464    3.2071   12.5093 N   0  0  0  0  0  0  0  0  0  0  0  0
    0.9086    4.6654   10.7756 C   0  0  0  0  0  0  0  0  0  0  0  0
    3.1090    3.5226   11.2399 N   0  0  0  0  0  0  0  0  0  0  0  0
   -1.0123    4.3214    7.6700 O   0  0  0  0  0  0  0  0  0  0  0  0
   -0.0130    4.1786    8.5838 C   0  0  0  0  0  0  0  0  0  0  0  0
   -0.0956    4.8340    9.8236 C   0  0  0  0  0  0  0  0  0  0  0  0
    3.4681    2.1684    9.0203 S   0  0  0  0  0  0  0  0  0  0  0  0
    1.0867    2.8124    7.3211 H   0  0  0  0  0  0  0  0  0  0  0  0
    3.2936    4.5068   13.1765 H   0  0  0  0  0  0  0  0  0  0  0  0
    0.8542    5.1771   11.7478 H   0  0  0  0  0  0  0  0  0  0  0  0
   -1.7805    4.9147    7.8652 H   0  0  0  0  0  0  0  0  0  0  0  0
   -0.9562    5.4827   10.0441 H   0  0  0  0  0  0  0  0  0  0  0  0
  1  2  1  0
  1  8  2  0
  1  9  1  0
  2  3  2  0
  2 13  1  0
  3 11  1  0
  4  6  2  0
  4  9  1  0
  4 13  1  0
  5  7  2  0
  5  9  1  0
  6  7  1  0
  8 12  1  0
 10 11  1  0
 11 12  2  0
  3 14  1  0
  5 15  1  0
  8 16  1  0
 10 17  1  0
 12 18  1  0
M  END
>  <filename_input>  (3) 
7R59_I5F_docked.sdf

>  <pdb_id>  (3) 
7R59_I5F

>  <pose_rank>  (3) 
2

>  <num_atoms_heavy>  (3) 
13

>  <num_torsions>  (3) 
0

>  <pose>  (3) 
[1.9788308276395496, 3.836920318981375, 10.468072251290815, 1.606241258157288, 3.0558159555461684, -1.1617818504543893]

>  <energy>  (3) 
-661.6486627579797

>  <inter_energy>  (3) 
-678.7383514566535

>  <intra_energy>  (3) 
0.0

>  <rmsd>  (3) 
4.99715

>  <sdf_rank>  (3) 
0

$$$$

     RDKit          3D

 18 20  0  0  0  0  0  0  0  0999 V2000
    1.7066    4.4334   11.1370 C   0  0  0  0  0  0  0  0  0  0  0  0
    2.2419    3.6931   10.0713 C   0  0  0  0  0  0  0  0  0  0  0  0
    1.6042    3.6689    8.8363 C   0  0  0  0  0  0  0  0  0  0  0  0
    3.6120    3.5041   12.0431 C   0  0  0  0  0  0  0  0  0  0  0  0
    2.6660    4.7563   13.5359 C   0  0  0  0  0  0  0  0  0  0  0  0
    4.3377    3.4230   13.1268 N   0  0  0  0  0  0  0  0  0  0  0  0
    3.7385    4.2527   14.0738 N   0  0  0  0  0  0  0  0  0  0  0  0
    0.5489    5.1817   10.9751 C   0  0  0  0  0  0  0  0  0  0  0  0
    2.5223    4.2939   12.2714 N   0  0  0  0  0  0  0  0  0  0  0  0
   -0.1749    4.3931    7.4669 O   0  0  0  0  0  0  0  0  0  0  0  0
    0.4598    4.4236    8.6713 C   0  0  0  0  0  0  0  0  0  0  0  0
   -0.0788    5.1729    9.7305 C   0  0  0  0  0  0  0  0  0  0  0  0
    3.6953    2.7927   10.4658 S   0  0  0  0  0  0  0  0  0  0  0  0
    2.0022    3.0623    8.0095 H   0  0  0  0  0  0  0  0  0  0  0  0
    1.9778    5.4544   14.0348 H   0  0  0  0  0  0  0  0  0  0  0  0
    0.1364    5.7680   11.8094 H   0  0  0  0  0  0  0  0  0  0  0  0
   -0.9970    4.9266    7.3270 H   0  0  0  0  0  0  0  0  0  0  0  0
   -0.9995    5.7550    9.5771 H   0  0  0  0  0  0  0  0  0  0  0  0
  1  2  1  0
  1  8  2  0
  1  9  1  0
  2  3  2  0
  2 13  1  0
  3 11  1  0
  4  6  2  0
  4  9  1  0
  4 13  1  0
  5  7  2  0
  5  9  1  0
  6  7  1  0
  8 12  1  0
 10 11  1  0
 11 12  2  0
  3 14  1  0
  5 15  1  0
  8 16  1  0
 10 17  1  0
 12 18  1  0
M  END
>  <filename_input>  (4) 
7R59_I5F_docked.sdf

>  <pdb_id>  (4) 
7R59_I5F

>  <pose_rank>  (4) 
3

>  <num_atoms_heavy>  (4) 
13

>  <num_torsions>  (4) 
0

>  <pose>  (4) 
[1.706561626304661, 4.43343053183331, 11.137015065250068, 1.4945820100418914, 2.7729277065319007, -0.9260368796379803]

>  <energy>  (4) 
-721.5041556344881

>  <inter_energy>  (4) 
-713.1114975853542

>  <intra_energy>  (4) 
0.0

>  <rmsd>  (4) 
5.05566

>  <sdf_rank>  (4) 
0

$$$$

     RDKit          3D

 18 20  0  0  0  0  0  0  0  0999 V2000
    2.0960    3.6320   10.3635 C   0  0  0  0  0  0  0  0  0  0  0  0
    2.1083    3.0555    9.0837 C   0  0  0  0  0  0  0  0  0  0  0  0
    1.2265    3.4934    8.1023 C   0  0  0  0  0  0  0  0  0  0  0  0
    3.7687    2.0522   10.5110 C   0  0  0  0  0  0  0  0  0  0  0  0
    3.6385    3.1118   12.3957 C   0  0  0  0  0  0  0  0  0  0  0  0
    4.6632    1.5292   11.3071 N   0  0  0  0  0  0  0  0  0  0  0  0
    4.5926    2.2343   12.5081 N   0  0  0  0  0  0  0  0  0  0  0  0
    1.2278    4.6706   10.6695 C   0  0  0  0  0  0  0  0  0  0  0  0
    3.0669    3.0188   11.1717 N   0  0  0  0  0  0  0  0  0  0  0  0
   -0.5021    4.9593    7.4482 O   0  0  0  0  0  0  0  0  0  0  0  0
    0.3717    4.5354    8.4026 C   0  0  0  0  0  0  0  0  0  0  0  0
    0.3577    5.1227    9.6787 C   0  0  0  0  0  0  0  0  0  0  0  0
    3.2551    1.7422    8.8859 S   0  0  0  0  0  0  0  0  0  0  0  0
    1.2100    3.0206    7.1092 H   0  0  0  0  0  0  0  0  0  0  0  0
    3.3403    3.8239   13.1792 H   0  0  0  0  0  0  0  0  0  0  0  0
    1.2263    5.1265   11.6706 H   0  0  0  0  0  0  0  0  0  0  0  0
   -1.1238    5.7049    7.6423 H   0  0  0  0  0  0  0  0  0  0  0  0
   -0.3426    5.9424    9.8968 H   0  0  0  0  0  0  0  0  0  0  0  0
  1  2  1  0
  1  8  2  0
  1  9  1  0
  2  3  2  0
  2 13  1  0
  3 11  1  0
  4  6  2  0
  4  9  1  0
  4 13  1  0
  5  7  2  0
  5  9  1  0
  6  7  1  0
  8 12  1  0
 10 11  1  0
 11 12  2  0
  3 14  1  0
  5 15  1  0
  8 16  1  0
 10 17  1  0
 12 18  1  0
M  END
>  <filename_input>  (5) 
7R59_I5F_docked.sdf

>  <pdb_id>  (5) 
7R59_I5F

>  <pose_rank>  (5) 
4

>  <num_atoms_heavy>  (5) 
13

>  <num_torsions>  (5) 
0

>  <pose>  (5) 
[2.0959571057055824, 3.631954783011098, 10.363506657605226, -1.404137950911789, -2.084075874056432, 0.6430805472001779]

>  <energy>  (5) 
-610.1744045667981

>  <inter_energy>  (5) 
-600.7655869204889

>  <intra_energy>  (5) 
0.0

>  <rmsd>  (5) 
4.99474

>  <sdf_rank>  (5) 
0

$$$$

     RDKit          3D

 18 20  0  0  0  0  0  0  0  0999 V2000
    2.4489    2.6853    8.5403 C   0  0  0  0  0  0  0  0  0  0  0  0
    2.2118    3.3933    9.7289 C   0  0  0  0  0  0  0  0  0  0  0  0
    1.1249    4.2534    9.8349 C   0  0  0  0  0  0  0  0  0  0  0  0
    4.1709    2.0045    9.9139 C   0  0  0  0  0  0  0  0  0  0  0  0
    4.3258    0.9556    8.0252 C   0  0  0  0  0  0  0  0  0  0  0  0
    5.2272    1.2388    9.9865 N   0  0  0  0  0  0  0  0  0  0  0  0
    5.3046    0.5464    8.7786 N   0  0  0  0  0  0  0  0  0  0  0  0
    1.5895    2.8024    7.4568 C   0  0  0  0  0  0  0  0  0  0  0  0
    3.6013    1.8948    8.6782 N   0  0  0  0  0  0  0  0  0  0  0  0
   -0.7964    5.2108    8.8568 O   0  0  0  0  0  0  0  0  0  0  0  0
    0.2626    4.3601    8.7618 C   0  0  0  0  0  0  0  0  0  0  0  0
    0.4886    3.6498    7.5711 C   0  0  0  0  0  0  0  0  0  0  0  0
    3.4134    3.1385   10.9821 S   0  0  0  0  0  0  0  0  0  0  0  0
    0.9558    4.8358   10.7527 H   0  0  0  0  0  0  0  0  0  0  0  0
    4.1175    0.5921    7.0080 H   0  0  0  0  0  0  0  0  0  0  0  0
    1.7728    2.2397    6.5296 H   0  0  0  0  0  0  0  0  0  0  0  0
   -1.4271    5.3027    8.0992 H   0  0  0  0  0  0  0  0  0  0  0  0
   -0.2059    3.7628    6.7255 H   0  0  0  0  0  0  0  0  0  0  0  0
  1  2  1  0
  1  8  2  0
  1  9  1  0
  2  3  2  0
  2 13  1  0
  3 11  1  0
  4  6  2  0
  4  9  1  0
  4 13  1  0
  5  7  2  0
  5  9  1  0
  6  7  1  0
  8 12  1  0
 10 11  1  0
 11 12  2  0
  3 14  1  0
  5 15  1  0
  8 16  1  0
 10 17  1  0
 12 18  1  0
M  END
>  <filename_input>  (6) 
7R59_I5F_docked.sdf

>  <pdb_id>  (6) 
7R59_I5F

>  <pose_rank>  (6) 
5

>  <num_atoms_heavy>  (6) 
13

>  <num_torsions>  (6) 
0

>  <pose>  (6) 
[2.4489353736573545, 2.685255716476041, 8.540271091479235, 1.1912453490305543, -1.6670914483409176, -2.5849242091552806]

>  <energy>  (6) 
-603.7809396928886

>  <inter_energy>  (6) 
-576.9282398053591

>  <intra_energy>  (6) 
0.0

>  <rmsd>  (6) 
4.75132

>  <sdf_rank>  (6) 
0

$$$$

     RDKit          3D

 18 20  0  0  0  0  0  0  0  0999 V2000
    1.7698    3.9028   10.7953 C   0  0  0  0  0  0  0  0  0  0  0  0
    2.1823    3.1009    9.7195 C   0  0  0  0  0  0  0  0  0  0  0  0
    1.4188    3.0253    8.5603 C   0  0  0  0  0  0  0  0  0  0  0  0
    3.7488    2.9884   11.5455 C   0  0  0  0  0  0  0  0  0  0  0  0
    2.9784    4.3298   13.0617 C   0  0  0  0  0  0  0  0  0  0  0  0
    4.5827    2.9498   12.5508 N   0  0  0  0  0  0  0  0  0  0  0  0
    4.0954    3.8360   13.5107 N   0  0  0  0  0  0  0  0  0  0  0  0
    0.6102    4.6613   10.7158 C   0  0  0  0  0  0  0  0  0  0  0  0
    2.6980    3.8068   11.8445 N   0  0  0  0  0  0  0  0  0  0  0  0
   -0.4852    3.7094    7.3473 O   0  0  0  0  0  0  0  0  0  0  0  0
    0.2721    3.7898    8.4761 C   0  0  0  0  0  0  0  0  0  0  0  0
   -0.1442    4.6004    9.5452 C   0  0  0  0  0  0  0  0  0  0  0  0
    3.6587    2.1972   10.0071 S   0  0  0  0  0  0  0  0  0  0  0  0
    1.7213    2.3713    7.7291 H   0  0  0  0  0  0  0  0  0  0  0  0
    2.3540    5.0636   13.5925 H   0  0  0  0  0  0  0  0  0  0  0  0
    0.2939    5.2956   11.5570 H   0  0  0  0  0  0  0  0  0  0  0  0
   -1.3113    4.2489    7.2660 H   0  0  0  0  0  0  0  0  0  0  0  0
   -1.0692    5.1894    9.4584 H   0  0  0  0  0  0  0  0  0  0  0  0
  1  2  1  0
  1  8  2  0
  1  9  1  0
  2  3  2  0
  2 13  1  0
  3 11  1  0
  4  6  2  0
  4  9  1  0
  4 13  1  0
  5  7  2  0
  5  9  1  0
  6  7  1  0
  8 12  1  0
 10 11  1  0
 11 12  2  0
  3 14  1  0
  5 15  1  0
  8 16  1  0
 10 17  1  0
 12 18  1  0
M  END
>  <filename_input>  (7) 
7R59_I5F_docked.sdf

>  <pdb_id>  (7) 
7R59_I5F

>  <pose_rank>  (7) 
6

>  <num_atoms_heavy>  (7) 
13

>  <num_torsions>  (7) 
0

>  <pose>  (7) 
[1.7698091733834125, 3.9027792624134205, 10.795266730403144, -1.3156108445411179, -2.437202657082341, 0.9596123202390804]

>  <energy>  (7) 
-640.4098318139997

>  <inter_energy>  (7) 
-633.9539828097013

>  <intra_energy>  (7) 
0.0

>  <rmsd>  (7) 
5.07743

>  <sdf_rank>  (7) 
0

$$$$

     RDKit          3D

 18 20  0  0  0  0  0  0  0  0999 V2000
    2.3448    3.5918   10.3945 C   0  0  0  0  0  0  0  0  0  0  0  0
    1.6002    4.3936   11.2738 C   0  0  0  0  0  0  0  0  0  0  0  0
    2.0536    4.6364   12.5652 C   0  0  0  0  0  0  0  0  0  0  0  0
    0.5129    4.1995    9.1335 C   0  0  0  0  0  0  0  0  0  0  0  0
    1.8354    2.9955    7.9116 C   0  0  0  0  0  0  0  0  0  0  0  0
   -0.0520    4.0793    7.9613 N   0  0  0  0  0  0  0  0  0  0  0  0
    0.8174    3.3271    7.1722 N   0  0  0  0  0  0  0  0  0  0  0  0
    3.5626    3.0500   10.7813 C   0  0  0  0  0  0  0  0  0  0  0  0
    1.6795    3.4914    9.1620 N   0  0  0  0  0  0  0  0  0  0  0  0
    3.7134    4.3335   14.2139 O   0  0  0  0  0  0  0  0  0  0  0  0
    3.2713    4.1083   12.9458 C   0  0  0  0  0  0  0  0  0  0  0  0
    4.0262    3.3107   12.0698 C   0  0  0  0  0  0  0  0  0  0  0  0
    0.0780    4.9732   10.6211 S   0  0  0  0  0  0  0  0  0  0  0  0
    1.4560    5.2357   13.2679 H   0  0  0  0  0  0  0  0  0  0  0  0
    2.6955    2.4003    7.5713 H   0  0  0  0  0  0  0  0  0  0  0  0
    4.1484    2.4294   10.0872 H   0  0  0  0  0  0  0  0  0  0  0  0
    4.5837    3.9640   14.5076 H   0  0  0  0  0  0  0  0  0  0  0  0
    4.9869    2.8903   12.4019 H   0  0  0  0  0  0  0  0  0  0  0  0
  1  2  1  0
  1  8  2  0
  1  9  1  0
  2  3  2  0
  2 13  1  0
  3 11  1  0
  4  6  2  0
  4  9  1  0
  4 13  1  0
  5  7  2  0
  5  9  1  0
  6  7  1  0
  8 12  1  0
 10 11  1  0
 11 12  2  0
  3 14  1  0
  5 15  1  0
  8 16  1  0
 10 17  1  0
 12 18  1  0
M  END
>  <filename_input>  (8) 
7R59_I5F_docked.sdf

>  <pdb_id>  (8) 
7R59_I5F

>  <pose_rank>  (8) 
7

>  <num_atoms_heavy>  (8) 
13

>  <num_torsions>  (8) 
0

>  <pose>  (8) 
[2.3448074633680633, 3.5918444879349325, 10.394492845717698, 3.2641255894281156, 2.745054946424358, 4.405163795770654]

>  <energy>  (8) 
-492.05957583167503

>  <inter_energy>  (8) 
-492.11962917649413

>  <intra_energy>  (8) 
0.0

>  <rmsd>  (8) 
0.563673

>  <sdf_rank>  (8) 
0

$$$$

     RDKit          3D

 18 20  0  0  0  0  0  0  0  0999 V2000
    2.5565    3.0017    9.1348 C   0  0  0  0  0  0  0  0  0  0  0  0
    2.9505    3.3511   10.4360 C   0  0  0  0  0  0  0  0  0  0  0  0
    2.1778    4.2179   11.2001 C   0  0  0  0  0  0  0  0  0  0  0  0
    4.5238    1.8346    9.4231 C   0  0  0  0  0  0  0  0  0  0  0  0
    3.7127    1.3675    7.4698 C   0  0  0  0  0  0  0  0  0  0  0  0
    5.3580    1.0085    8.8494 N   0  0  0  0  0  0  0  0  0  0  0  0
    4.8158    0.6908    7.6046 N   0  0  0  0  0  0  0  0  0  0  0  0
    1.3742    3.4866    8.5932 C   0  0  0  0  0  0  0  0  0  0  0  0
    3.4985    2.1265    8.5705 N   0  0  0  0  0  0  0  0  0  0  0  0
    0.2412    5.5490   11.4067 O   0  0  0  0  0  0  0  0  0  0  0  0
    0.9951    4.6900   10.6664 C   0  0  0  0  0  0  0  0  0  0  0  0
    0.5898    4.3398    9.3678 C   0  0  0  0  0  0  0  0  0  0  0  0
    4.4821    2.6620   10.9444 S   0  0  0  0  0  0  0  0  0  0  0  0
    2.5012    4.5208   12.2070 H   0  0  0  0  0  0  0  0  0  0  0  0
    3.0517    1.3287    6.5913 H   0  0  0  0  0  0  0  0  0  0  0  0
    1.0634    3.2042    7.5766 H   0  0  0  0  0  0  0  0  0  0  0  0
   -0.6103    5.8996   11.0433 H   0  0  0  0  0  0  0  0  0  0  0  0
   -0.3502    4.7404    8.9605 H   0  0  0  0  0  0  0  0  0  0  0  0
  1  2  1  0
  1  8  2  0
  1  9  1  0
  2  3  2  0
  2 13  1  0
  3 11  1  0
  4  6  2  0
  4  9  1  0
  4 13  1  0
  5  7  2  0
  5  9  1  0
  6  7  1  0
  8 12  1  0
 10 11  1  0
 11 12  2  0
  3 14  1  0
  5 15  1  0
  8 16  1  0
 10 17  1  0
 12 18  1  0
M  END
>  <filename_input>  (9) 
7R59_I5F_docked.sdf

>  <pdb_id>  (9) 
7R59_I5F

>  <pose_rank>  (9) 
8

>  <num_atoms_heavy>  (9) 
13

>  <num_torsions>  (9) 
0

>  <pose>  (9) 
[2.556531753692644, 3.0017247125380626, 9.134784527509726, 0.4408519451645933, -1.384483204602861, -2.935987634048165]

>  <energy>  (9) 
-413.28112129789633

>  <inter_energy>  (9) 
-405.1494346579526

>  <intra_energy>  (9) 
0.0

>  <rmsd>  (9) 
4.13098

>  <sdf_rank>  (9) 
0

$$$$

     RDKit          3D

 18 20  0  0  0  0  0  0  0  0999 V2000
    2.3893    3.7020    9.6995 C   0  0  0  0  0  0  0  0  0  0  0  0
    1.1522    4.1091   10.2233 C   0  0  0  0  0  0  0  0  0  0  0  0
    0.0357    4.2119    9.4016 C   0  0  0  0  0  0  0  0  0  0  0  0
    2.8471    4.0428   11.9333 C   0  0  0  0  0  0  0  0  0  0  0  0
    4.6431    3.3352   10.9509 C   0  0  0  0  0  0  0  0  0  0  0  0
    3.7862    3.9940   12.8406 N   0  0  0  0  0  0  0  0  0  0  0  0
    4.9310    3.5116   12.2074 N   0  0  0  0  0  0  0  0  0  0  0  0
    2.5200    3.3634    8.3599 C   0  0  0  0  0  0  0  0  0  0  0  0
    3.3554    3.6838   10.7184 N   0  0  0  0  0  0  0  0  0  0  0  0
   -0.9256    3.9735    7.2606 O   0  0  0  0  0  0  0  0  0  0  0  0
    0.1625    3.8625    8.0718 C   0  0  0  0  0  0  0  0  0  0  0  0
    1.3951    3.4475    7.5410 C   0  0  0  0  0  0  0  0  0  0  0  0
    1.1811    4.5176   11.9295 S   0  0  0  0  0  0  0  0  0  0  0  0
   -0.9267    4.5636    9.8017 H   0  0  0  0  0  0  0  0  0  0  0  0
    5.3423    2.9586   10.1898 H   0  0  0  0  0  0  0  0  0  0  0  0
    3.4886    3.0362    7.9540 H   0  0  0  0  0  0  0  0  0  0  0  0
   -0.8569    3.7284    6.3039 H   0  0  0  0  0  0  0  0  0  0  0  0
    1.4729    3.1878    6.4749 H   0  0  0  0  0  0  0  0  0  0  0  0
  1  2  1  0
  1  8  2  0
  1  9  1  0
  2  3  2  0
  2 13  1  0
  3 11  1  0
  4  6  2  0
  4  9  1  0
  4 13  1  0
  5  7  2  0
  5  9  1  0
  6  7  1  0
  8 12  1  0
 10 11  1  0
 11 12  2  0
  3 14  1  0
  5 15  1  0
  8 16  1  0
 10 17  1  0
 12 18  1  0
M  END
>  <filename_input>  (10) 
7R59_I5F_docked.sdf

>  <pdb_id>  (10) 
7R59_I5F

>  <pose_rank>  (10) 
9

>  <num_atoms_heavy>  (10) 
13

>  <num_torsions>  (10) 
0

>  <pose>  (10) 
[2.389334385573691, 3.7020184022844878, 9.699536103904803, 2.297422068290995, -1.2147556216258368, -1.7373952087592597]

>  <energy>  (10) 
-574.1355911520172

>  <inter_energy>  (10) 
-562.3635356132328

>  <intra_energy>  (10) 
0.0

>  <rmsd>  (10) 
4.65912

>  <sdf_rank>  (10) 
0

$$$$

     RDKit          3D

 18 20  0  0  0  0  0  0  0  0999 V2000
    1.8909    4.0137   10.9258 C   0  0  0  0  0  0  0  0  0  0  0  0
    2.1618    3.3897    9.6979 C   0  0  0  0  0  0  0  0  0  0  0  0
    1.3176    3.5748    8.6092 C   0  0  0  0  0  0  0  0  0  0  0  0
    3.8343    2.8458   11.3434 C   0  0  0  0  0  0  0  0  0  0  0  0
    3.2819    3.9455   13.1258 C   0  0  0  0  0  0  0  0  0  0  0  0
    4.7287    2.5711   12.2556 N   0  0  0  0  0  0  0  0  0  0  0  0
    4.3824    3.3037   13.3904 N   0  0  0  0  0  0  0  0  0  0  0  0
    0.7949    4.8525   11.0731 C   0  0  0  0  0  0  0  0  0  0  0  0
    2.8773    3.6684   11.8637 N   0  0  0  0  0  0  0  0  0  0  0  0
   -0.6018    4.5940    7.6915 O   0  0  0  0  0  0  0  0  0  0  0  0
    0.2346    4.4195    8.7517 C   0  0  0  0  0  0  0  0  0  0  0  0
   -0.0399    5.0534    9.9749 C   0  0  0  0  0  0  0  0  0  0  0  0
    3.5749    2.3495    9.7042 S   0  0  0  0  0  0  0  0  0  0  0  0
    1.5079    3.0601    7.6558 H   0  0  0  0  0  0  0  0  0  0  0  0
    2.7576    4.6144   13.8243 H   0  0  0  0  0  0  0  0  0  0  0  0
    0.5899    5.3471   12.0340 H   0  0  0  0  0  0  0  0  0  0  0  0
   -1.3843    5.1951    7.7720 H   0  0  0  0  0  0  0  0  0  0  0  0
   -0.9170    5.7109   10.0666 H   0  0  0  0  0  0  0  0  0  0  0  0
  1  2  1  0
  1  8  2  0
  1  9  1  0
  2  3  2  0
  2 13  1  0
  3 11  1  0
  4  6  2  0
  4  9  1  0
  4 13  1  0
  5  7  2  0
  5  9  1  0
  6  7  1  0
  8 12  1  0
 10 11  1  0
 11 12  2  0
  3 14  1  0
  5 15  1  0
  8 16  1  0
 10 17  1  0
 12 18  1  0
M  END
>  <filename_input>  (11) 
7R59_I5F_docked.sdf

>  <pdb_id>  (11) 
7R59_I5F

>  <pose_rank>  (11) 
10

>  <num_atoms_heavy>  (11) 
13

>  <num_torsions>  (11) 
0

>  <pose>  (11) 
[1.890856232622438, 4.013685558048769, 10.925815916854985, -1.2777203041479144, -2.3368176209060962, 0.7423494303082521]

>  <energy>  (11) 
-706.5692435781029

>  <inter_energy>  (11) 
-697.5272406995002

>  <intra_energy>  (11) 
0.0

>  <rmsd>  (11) 
5.00541

>  <sdf_rank>  (11) 
0

$$$$

     RDKit          3D

 18 20  0  0  0  0  0  0  0  0999 V2000
    2.0474    3.6706   10.3780 C   0  0  0  0  0  0  0  0  0  0  0  0
    1.2758    3.4730    9.2222 C   0  0  0  0  0  0  0  0  0  0  0  0
    1.8052    2.8050    8.1241 C   0  0  0  0  0  0  0  0  0  0  0  0
    0.0335    4.6581   10.9113 C   0  0  0  0  0  0  0  0  0  0  0  0
    1.3575    4.8020   12.6194 C   0  0  0  0  0  0  0  0  0  0  0  0
   -0.6171    5.2964   11.8476 N   0  0  0  0  0  0  0  0  0  0  0  0
    0.2307    5.3607   12.9528 N   0  0  0  0  0  0  0  0  0  0  0  0
    3.3421    3.1781   10.4640 C   0  0  0  0  0  0  0  0  0  0  0  0
    1.2984    4.3715   11.3369 N   0  0  0  0  0  0  0  0  0  0  0  0
    3.6156    1.6594    7.1366 O   0  0  0  0  0  0  0  0  0  0  0  0
    3.0886    2.3036    8.2143 C   0  0  0  0  0  0  0  0  0  0  0  0
    3.8652    2.4908    9.3699 C   0  0  0  0  0  0  0  0  0  0  0  0
   -0.3276    4.1831    9.2850 S   0  0  0  0  0  0  0  0  0  0  0  0
    1.2153    2.6787    7.2043 H   0  0  0  0  0  0  0  0  0  0  0  0
    2.2294    4.6951   13.2816 H   0  0  0  0  0  0  0  0  0  0  0  0
    3.9415    3.3266   11.3744 H   0  0  0  0  0  0  0  0  0  0  0  0
    4.5339    1.2922    7.1798 H   0  0  0  0  0  0  0  0  0  0  0  0
    4.8901    2.0934    9.4115 H   0  0  0  0  0  0  0  0  0  0  0  0
  1  2  1  0
  1  8  2  0
  1  9  1  0
  2  3  2  0
  2 13  1  0
  3 11  1  0
  4  6  2  0
  4  9  1  0
  4 13  1  0
  5  7  2  0
  5  9  1  0
  6  7  1  0
  8 12  1  0
 10 11  1  0
 11 12  2  0
  3 14  1  0
  5 15  1  0
  8 16  1  0
 10 17  1  0
 12 18  1  0
M  END
>  <filename_input>  (12) 
7R59_I5F_docked.sdf

>  <pdb_id>  (12) 
7R59_I5F

>  <pose_rank>  (12) 
11

>  <num_atoms_heavy>  (12) 
13

>  <num_torsions>  (12) 
0

>  <pose>  (12) 
[2.0473677593688246, 3.670571453650556, 10.378040611162271, 2.860620195070805, -1.012216007048674, 0.3816768803216923]

>  <energy>  (12) 
-561.3818792255777

>  <inter_energy>  (12) 
-530.3281548968448

>  <intra_energy>  (12) 
0.0

>  <rmsd>  (12) 
4.01231

>  <sdf_rank>  (12) 
0

$$$$

     RDKit          3D

 18 20  0  0  0  0  0  0  0  0999 V2000
    2.0381    3.8299   10.5392 C   0  0  0  0  0  0  0  0  0  0  0  0
    2.1668    3.1956    9.2936 C   0  0  0  0  0  0  0  0  0  0  0  0
    1.2056    3.3754    8.3057 C   0  0  0  0  0  0  0  0  0  0  0  0
    4.0129    2.6579   10.7440 C   0  0  0  0  0  0  0  0  0  0  0  0
    3.6686    3.7734   12.5685 C   0  0  0  0  0  0  0  0  0  0  0  0
    5.0039    2.3869   11.5516 N   0  0  0  0  0  0  0  0  0  0  0  0
    4.7901    3.1295   12.7123 N   0  0  0  0  0  0  0  0  0  0  0  0
    0.9683    4.6740   10.8025 C   0  0  0  0  0  0  0  0  0  0  0  0
    3.1232    3.4882   11.3624 N   0  0  0  0  0  0  0  0  0  0  0  0
   -0.8022    4.3948    7.6025 O   0  0  0  0  0  0  0  0  0  0  0  0
    0.1481    4.2253    8.5629 C   0  0  0  0  0  0  0  0  0  0  0  0
    0.0154    4.8696    9.8041 C   0  0  0  0  0  0  0  0  0  0  0  0
    3.5686    2.1501    9.1486 S   0  0  0  0  0  0  0  0  0  0  0  0
    1.2855    2.8527    7.3411 H   0  0  0  0  0  0  0  0  0  0  0  0
    3.2285    4.4496   13.3163 H   0  0  0  0  0  0  0  0  0  0  0  0
    0.8745    5.1768   11.7764 H   0  0  0  0  0  0  0  0  0  0  0  0
   -1.5689    4.9995    7.7660 H   0  0  0  0  0  0  0  0  0  0  0  0
   -0.8438    5.5311    9.9889 H   0  0  0  0  0  0  0  0  0  0  0  0
  1  2  1  0
  1  8  2  0
  1  9  1  0
  2  3  2  0
  2 13  1  0
  3 11  1  0
  4  6  2  0
  4  9  1  0
  4 13  1  0
  5  7  2  0
  5  9  1  0
  6  7  1  0
  8 12  1  0
 10 11  1  0
 11 12  2  0
  3 14  1  0
  5 15  1  0
  8 16  1  0
 10 17  1  0
 12 18  1  0
M  END
>  <filename_input>  (13) 
7R59_I5F_docked.sdf

>  <pdb_id>  (13) 
7R59_I5F

>  <pose_rank>  (13) 
12

>  <num_atoms_heavy>  (13) 
13

>  <num_torsions>  (13) 
0

>  <pose>  (13) 
[2.0381492505320105, 3.8299495300334665, 10.539165612033878, -1.2100842967673264, -2.2433455367662325, 0.8021578142867977]

>  <energy>  (13) 
-694.9996354418115

>  <inter_energy>  (13) 
-698.089265349712

>  <intra_energy>  (13) 
0.0

>  <rmsd>  (13) 
5.01683

>  <sdf_rank>  (13) 
0

$$$$

     RDKit          3D

 18 20  0  0  0  0  0  0  0  0999 V2000
    1.3641    4.2450   10.4957 C   0  0  0  0  0  0  0  0  0  0  0  0
    2.6778    3.7543   10.5574 C   0  0  0  0  0  0  0  0  0  0  0  0
    3.4188    3.8622   11.7285 C   0  0  0  0  0  0  0  0  0  0  0  0
    1.7090    3.3901    8.3825 C   0  0  0  0  0  0  0  0  0  0  0  0
   -0.3169    4.1457    8.5097 C   0  0  0  0  0  0  0  0  0  0  0  0
    1.1562    3.2026    7.2135 N   0  0  0  0  0  0  0  0  0  0  0  0
   -0.1555    3.6657    7.3112 N   0  0  0  0  0  0  0  0  0  0  0  0
    0.7644    4.8194   11.6078 C   0  0  0  0  0  0  0  0  0  0  0  0
    0.8333    4.0262    9.2142 N   0  0  0  0  0  0  0  0  0  0  0  0
    3.5442    4.5407   13.9843 O   0  0  0  0  0  0  0  0  0  0  0  0
    2.8179    4.4218   12.8387 C   0  0  0  0  0  0  0  0  0  0  0  0
    1.5013    4.9091   12.7877 C   0  0  0  0  0  0  0  0  0  0  0  0
    3.2772    3.0826    9.0512 S   0  0  0  0  0  0  0  0  0  0  0  0
    4.4600    3.5099   11.7699 H   0  0  0  0  0  0  0  0  0  0  0  0
   -1.2499    4.5839    8.8939 H   0  0  0  0  0  0  0  0  0  0  0  0
   -0.2683    5.1952   11.5592 H   0  0  0  0  0  0  0  0  0  0  0  0
    3.1329    4.9390   14.7920 H   0  0  0  0  0  0  0  0  0  0  0  0
    1.0501    5.3631   13.6822 H   0  0  0  0  0  0  0  0  0  0  0  0
  1  2  1  0
  1  8  2  0
  1  9  1  0
  2  3  2  0
  2 13  1  0
  3 11  1  0
  4  6  2  0
  4  9  1  0
  4 13  1  0
  5  7  2  0
  5  9  1  0
  6  7  1  0
  8 12  1  0
 10 11  1  0
 11 12  2  0
  3 14  1  0
  5 15  1  0
  8 16  1  0
 10 17  1  0
 12 18  1  0
M  END
>  <filename_input>  (14) 
7R59_I5F_docked.sdf

>  <pdb_id>  (14) 
7R59_I5F

>  <pose_rank>  (14) 
13

>  <num_atoms_heavy>  (14) 
13

>  <num_torsions>  (14) 
0

>  <pose>  (14) 
[1.3640582728006199, 4.245009613266179, 10.495708869653273, -1.4171361883335363, -0.3350453117659377, -2.758988619987541]

>  <energy>  (14) 
-477.37177587609284

>  <inter_energy>  (14) 
-480.87830461938086

>  <intra_energy>  (14) 
0.0

>  <rmsd>  (14) 
2.16811

>  <sdf_rank>  (14) 
0

$$$$

     RDKit          3D

 18 20  0  0  0  0  0  0  0  0999 V2000
    2.2328    3.6554   10.5186 C   0  0  0  0  0  0  0  0  0  0  0  0
    1.9308    4.2741   11.7419 C   0  0  0  0  0  0  0  0  0  0  0  0
    2.7796    4.1339   12.8338 C   0  0  0  0  0  0  0  0  0  0  0  0
    0.2445    4.7395   10.0864 C   0  0  0  0  0  0  0  0  0  0  0  0
    0.9190    3.7654    8.2733 C   0  0  0  0  0  0  0  0  0  0  0  0
   -0.6528    4.9781    9.1669 N   0  0  0  0  0  0  0  0  0  0  0  0
   -0.1984    4.3719    7.9962 N   0  0  0  0  0  0  0  0  0  0  0  0
    3.3976    2.9175   10.3610 C   0  0  0  0  0  0  0  0  0  0  0  0
    1.2268    3.9381    9.5806 N   0  0  0  0  0  0  0  0  0  0  0  0
    4.7731    3.2605   13.7437 O   0  0  0  0  0  0  0  0  0  0  0  0
    3.9449    3.4107   12.6734 C   0  0  0  0  0  0  0  0  0  0  0  0
    4.2582    2.7941   11.4506 C   0  0  0  0  0  0  0  0  0  0  0  0
    0.4081    5.1458   11.7624 S   0  0  0  0  0  0  0  0  0  0  0  0
    2.5287    4.5887   13.8034 H   0  0  0  0  0  0  0  0  0  0  0  0
    1.5241    3.1965    7.5520 H   0  0  0  0  0  0  0  0  0  0  0  0
    3.6361    2.4410    9.3986 H   0  0  0  0  0  0  0  0  0  0  0  0
    5.6137    2.7458   13.6508 H   0  0  0  0  0  0  0  0  0  0  0  0
    5.1862    2.2118   11.3527 H   0  0  0  0  0  0  0  0  0  0  0  0
  1  2  1  0
  1  8  2  0
  1  9  1  0
  2  3  2  0
  2 13  1  0
  3 11  1  0
  4  6  2  0
  4  9  1  0
  4 13  1  0
  5  7  2  0
  5  9  1  0
  6  7  1  0
  8 12  1  0
 10 11  1  0
 11 12  2  0
  3 14  1  0
  5 15  1  0
  8 16  1  0
 10 17  1  0
 12 18  1  0
M  END
>  <filename_input>  (15) 
7R59_I5F_docked.sdf

>  <pdb_id>  (15) 
7R59_I5F

>  <pose_rank>  (15) 
14

>  <num_atoms_heavy>  (15) 
13

>  <num_torsions>  (15) 
0

>  <pose>  (15) 
[2.232762272514165, 3.6554152544588305, 10.518594211366372, -2.0978027179496364, -4.121375908508832, 3.6556308727653297]

>  <energy>  (15) 
-542.8054156420096

>  <inter_energy>  (15) 
-526.9334684625436

>  <intra_energy>  (15) 
0.0

>  <rmsd>  (15) 
1.03065

>  <sdf_rank>  (15) 
0

$$$$

     RDKit          3D

 18 20  0  0  0  0  0  0  0  0999 V2000
    2.2262    3.2271    9.2658 C   0  0  0  0  0  0  0  0  0  0  0  0
    2.0319    4.0149   10.4113 C   0  0  0  0  0  0  0  0  0  0  0  0
    0.9113    4.8291   10.5279 C   0  0  0  0  0  0  0  0  0  0  0  0
    4.0685    2.7380   10.5629 C   0  0  0  0  0  0  0  0  0  0  0  0
    4.1520    1.5515    8.7527 C   0  0  0  0  0  0  0  0  0  0  0  0
    5.1656    2.0304   10.6189 N   0  0  0  0  0  0  0  0  0  0  0  0
    5.1986    1.2492    9.4643 N   0  0  0  0  0  0  0  0  0  0  0  0
    1.2919    3.2181    8.2395 C   0  0  0  0  0  0  0  0  0  0  0  0
    3.4247    2.5046    9.3820 N   0  0  0  0  0  0  0  0  0  0  0  0
   -1.1178    5.6156    9.6173 O   0  0  0  0  0  0  0  0  0  0  0  0
   -0.0247    4.8104    9.5129 C   0  0  0  0  0  0  0  0  0  0  0  0
    0.1585    4.0196    8.3663 C   0  0  0  0  0  0  0  0  0  0  0  0
    3.3255    3.9162   11.5927 S   0  0  0  0  0  0  0  0  0  0  0  0
    0.7733    5.4736   11.4085 H   0  0  0  0  0  0  0  0  0  0  0  0
    3.8960    1.0996    7.7830 H   0  0  0  0  0  0  0  0  0  0  0  0
    1.4423    2.5930    7.3470 H   0  0  0  0  0  0  0  0  0  0  0  0
   -1.8012    5.6178    8.9010 H   0  0  0  0  0  0  0  0  0  0  0  0
   -0.5955    4.0329    7.5654 H   0  0  0  0  0  0  0  0  0  0  0  0
  1  2  1  0
  1  8  2  0
  1  9  1  0
  2  3  2  0
  2 13  1  0
  3 11  1  0
  4  6  2  0
  4  9  1  0
  4 13  1  0
  5  7  2  0
  5  9  1  0
  6  7  1  0
  8 12  1  0
 10 11  1  0
 11 12  2  0
  3 14  1  0
  5 15  1  0
  8 16  1  0
 10 17  1  0
 12 18  1  0
M  END
>  <filename_input>  (16) 
7R59_I5F_docked.sdf

>  <pdb_id>  (16) 
7R59_I5F

>  <pose_rank>  (16) 
15

>  <num_atoms_heavy>  (16) 
13

>  <num_torsions>  (16) 
0

>  <pose>  (16) 
[2.2262114683958893, 3.2270530793482006, 9.265836492385338, 1.1138199921927654, -1.6857749426825248, -2.4778774833728168]

>  <energy>  (16) 
-548.3598220558747

>  <inter_energy>  (16) 
-544.2426799689258

>  <intra_energy>  (16) 
0.0

>  <rmsd>  (16) 
4.37484

>  <sdf_rank>  (16) 
0

$$$$

     RDKit          3D

 18 20  0  0  0  0  0  0  0  0999 V2000
    1.6135    4.3413   11.1767 C   0  0  0  0  0  0  0  0  0  0  0  0
    2.0327    3.6304   10.0412 C   0  0  0  0  0  0  0  0  0  0  0  0
    1.2851    3.6641    8.8698 C   0  0  0  0  0  0  0  0  0  0  0  0
    3.5716    3.3421   11.8715 C   0  0  0  0  0  0  0  0  0  0  0  0
    2.7940    4.5568   13.4874 C   0  0  0  0  0  0  0  0  0  0  0  0
    4.3906    3.2070   12.8806 N   0  0  0  0  0  0  0  0  0  0  0  0
    3.8991    4.0129   13.9069 N   0  0  0  0  0  0  0  0  0  0  0  0
    0.4633    5.1176   11.1476 C   0  0  0  0  0  0  0  0  0  0  0  0
    2.5255    4.1442   12.2260 N   0  0  0  0  0  0  0  0  0  0  0  0
   -0.5940    4.4729    7.6952 O   0  0  0  0  0  0  0  0  0  0  0  0
    0.1480    4.4467    8.8367 C   0  0  0  0  0  0  0  0  0  0  0  0
   -0.2749    5.1669    9.9662 C   0  0  0  0  0  0  0  0  0  0  0  0
    3.4950    2.6877   10.2694 S   0  0  0  0  0  0  0  0  0  0  0  0
    1.5924    3.0807    7.9893 H   0  0  0  0  0  0  0  0  0  0  0  0
    2.1700    5.2495   14.0713 H   0  0  0  0  0  0  0  0  0  0  0  0
    0.1418    5.6808   12.0361 H   0  0  0  0  0  0  0  0  0  0  0  0
   -1.4130    5.0273    7.6498 H   0  0  0  0  0  0  0  0  0  0  0  0
   -1.1922    5.7722    9.9182 H   0  0  0  0  0  0  0  0  0  0  0  0
  1  2  1  0
  1  8  2  0
  1  9  1  0
  2  3  2  0
  2 13  1  0
  3 11  1  0
  4  6  2  0
  4  9  1  0
  4 13  1  0
  5  7  2  0
  5  9  1  0
  6  7  1  0
  8 12  1  0
 10 11  1  0
 11 12  2  0
  3 14  1  0
  5 15  1  0
  8 16  1  0
 10 17  1  0
 12 18  1  0
M  END
>  <filename_input>  (17) 
7R59_I5F_docked.sdf

>  <pdb_id>  (17) 
7R59_I5F

>  <pose_rank>  (17) 
16

>  <num_atoms_heavy>  (17) 
13

>  <num_torsions>  (17) 
0

>  <pose>  (17) 
[1.6134677954384806, 4.341336208777253, 11.176674705627176, -1.309799518006284, -2.449271768135758, 0.8351262968310463]

>  <energy>  (17) 
-708.6328660552018

>  <inter_energy>  (17) 
-694.3681667874487

>  <intra_energy>  (17) 
0.0

>  <rmsd>  (17) 
5.02654

>  <sdf_rank>  (17) 
0

$$$$

     RDKit          3D

 18 20  0  0  0  0  0  0  0  0999 V2000
    2.9269    3.0556    9.5571 C   0  0  0  0  0  0  0  0  0  0  0  0
    2.5053    3.7138   10.7231 C   0  0  0  0  0  0  0  0  0  0  0  0
    1.2568    4.3224   10.7795 C   0  0  0  0  0  0  0  0  0  0  0  0
    4.7090    2.7803   10.9935 C   0  0  0  0  0  0  0  0  0  0  0  0
    5.1459    1.7611    9.1329 C   0  0  0  0  0  0  0  0  0  0  0  0
    5.9018    2.2600   11.1126 N   0  0  0  0  0  0  0  0  0  0  0  0
    6.1645    1.5825    9.9225 N   0  0  0  0  0  0  0  0  0  0  0  0
    2.0979    2.9697    8.4473 C   0  0  0  0  0  0  0  0  0  0  0  0
    4.2165    2.5328    9.7448 N   0  0  0  0  0  0  0  0  0  0  0  0
   -0.7920    4.8310    9.7267 O   0  0  0  0  0  0  0  0  0  0  0  0
    0.4269    4.2258    9.6802 C   0  0  0  0  0  0  0  0  0  0  0  0
    0.8381    3.5629    8.5119 C   0  0  0  0  0  0  0  0  0  0  0  0
    3.6922    3.7412   12.0151 S   0  0  0  0  0  0  0  0  0  0  0  0
    0.9373    4.8684   11.6794 H   0  0  0  0  0  0  0  0  0  0  0  0
    5.0533    1.3464    8.1183 H   0  0  0  0  0  0  0  0  0  0  0  0
    2.4273    2.4457    7.5379 H   0  0  0  0  0  0  0  0  0  0  0  0
   -1.4028    4.7743    8.9496 H   0  0  0  0  0  0  0  0  0  0  0  0
    0.1633    3.5118    7.6446 H   0  0  0  0  0  0  0  0  0  0  0  0
  1  2  1  0
  1  8  2  0
  1  9  1  0
  2  3  2  0
  2 13  1  0
  3 11  1  0
  4  6  2  0
  4  9  1  0
  4 13  1  0
  5  7  2  0
  5  9  1  0
  6  7  1  0
  8 12  1  0
 10 11  1  0
 11 12  2  0
  3 14  1  0
  5 15  1  0
  8 16  1  0
 10 17  1  0
 12 18  1  0
M  END
>  <filename_input>  (18) 
7R59_I5F_docked.sdf

>  <pdb_id>  (18) 
7R59_I5F

>  <pose_rank>  (18) 
17

>  <num_atoms_heavy>  (18) 
13

>  <num_torsions>  (18) 
0

>  <pose>  (18) 
[2.926850991015759, 3.055580529260017, 9.557071338381888, 1.3332026954201455, -1.4685167388192606, -2.431685979098624]

>  <energy>  (18) 
-439.75919760976154

>  <inter_energy>  (18) 
-430.54261940660257

>  <intra_energy>  (18) 
0.0

>  <rmsd>  (18) 
4.58221

>  <sdf_rank>  (18) 
0

$$$$

     RDKit          3D

 18 20  0  0  0  0  0  0  0  0999 V2000
    1.8886    3.8981   10.0038 C   0  0  0  0  0  0  0  0  0  0  0  0
    2.2368    4.1349   11.3428 C   0  0  0  0  0  0  0  0  0  0  0  0
    1.4050    4.8826   12.1683 C   0  0  0  0  0  0  0  0  0  0  0  0
    3.9064    2.8053   10.2268 C   0  0  0  0  0  0  0  0  0  0  0  0
    3.1614    2.4961    8.2165 C   0  0  0  0  0  0  0  0  0  0  0  0
    4.7936    2.0821    9.5964 N   0  0  0  0  0  0  0  0  0  0  0  0
    4.2946    1.8639    8.3128 N   0  0  0  0  0  0  0  0  0  0  0  0
    0.6947    4.3763    9.4821 C   0  0  0  0  0  0  0  0  0  0  0  0
    2.8857    3.1304    9.3807 N   0  0  0  0  0  0  0  0  0  0  0  0
   -0.6010    6.0905   12.4545 O   0  0  0  0  0  0  0  0  0  0  0  0
    0.2111    5.3473   11.6531 C   0  0  0  0  0  0  0  0  0  0  0  0
   -0.1484    5.1089   10.3162 C   0  0  0  0  0  0  0  0  0  0  0  0
    3.7905    3.4739   11.8206 S   0  0  0  0  0  0  0  0  0  0  0  0
    1.6912    5.0990   13.2081 H   0  0  0  0  0  0  0  0  0  0  0  0
    2.5219    2.5129    7.3217 H   0  0  0  0  0  0  0  0  0  0  0  0
    0.4202    4.1818    8.4348 H   0  0  0  0  0  0  0  0  0  0  0  0
   -1.4615    6.4337   12.1054 H   0  0  0  0  0  0  0  0  0  0  0  0
   -1.0988    5.5018    9.9260 H   0  0  0  0  0  0  0  0  0  0  0  0
  1  2  1  0
  1  8  2  0
  1  9  1  0
  2  3  2  0
  2 13  1  0
  3 11  1  0
  4  6  2  0
  4  9  1  0
  4 13  1  0
  5  7  2  0
  5  9  1  0
  6  7  1  0
  8 12  1  0
 10 11  1  0
 11 12  2  0
  3 14  1  0
  5 15  1  0
  8 16  1  0
 10 17  1  0
 12 18  1  0
M  END
>  <filename_input>  (19) 
7R59_I5F_docked.sdf

>  <pdb_id>  (19) 
7R59_I5F

>  <pose_rank>  (19) 
18

>  <num_atoms_heavy>  (19) 
13

>  <num_torsions>  (19) 
0

>  <pose>  (19) 
[1.8886028373744095, 3.8980851025618284, 10.003774639301481, 0.4947262735071391, -1.2141127347825187, -2.9783755931119624]

>  <energy>  (19) 
-534.6614192889245

>  <inter_energy>  (19) 
-526.8386960101353

>  <intra_energy>  (19) 
0.0

>  <rmsd>  (19) 
3.60274

>  <sdf_rank>  (19) 
0

$$$$

     RDKit          3D

 18 20  0  0  0  0  0  0  0  0999 V2000
    2.0602    3.7620   10.0962 C   0  0  0  0  0  0  0  0  0  0  0  0
    1.1910    4.3517   11.0274 C   0  0  0  0  0  0  0  0  0  0  0  0
    1.5723    4.4990   12.3560 C   0  0  0  0  0  0  0  0  0  0  0  0
    0.1984    4.2691    8.8345 C   0  0  0  0  0  0  0  0  0  0  0  0
    1.7034    3.3985    7.5427 C   0  0  0  0  0  0  0  0  0  0  0  0
   -0.3131    4.2141    7.6333 N   0  0  0  0  0  0  0  0  0  0  0  0
    0.6706    3.6788    6.8025 N   0  0  0  0  0  0  0  0  0  0  0  0
    3.3288    3.3419   10.4712 C   0  0  0  0  0  0  0  0  0  0  0  0
    1.4483    3.7204    8.8330 N   0  0  0  0  0  0  0  0  0  0  0  0
    3.2122    4.2243   14.0294 O   0  0  0  0  0  0  0  0  0  0  0  0
    2.8391    4.0931   12.7264 C   0  0  0  0  0  0  0  0  0  0  0  0
    3.7178    3.5084   11.7994 C   0  0  0  0  0  0  0  0  0  0  0  0
   -0.3768    4.8004   10.3796 S   0  0  0  0  0  0  0  0  0  0  0  0
    0.8807    4.9292   13.0954 H   0  0  0  0  0  0  0  0  0  0  0  0
    2.6446    2.9642    7.1746 H   0  0  0  0  0  0  0  0  0  0  0  0
    4.0112    2.8881    9.7375 H   0  0  0  0  0  0  0  0  0  0  0  0
    4.1158    3.9395   14.3166 H   0  0  0  0  0  0  0  0  0  0  0  0
    4.7168    3.1807   12.1228 H   0  0  0  0  0  0  0  0  0  0  0  0
  1  2  1  0
  1  8  2  0
  1  9  1  0
  2  3  2  0
  2 13  1  0
  3 11  1  0
  4  6  2  0
  4  9  1  0
  4 13  1  0
  5  7  2  0
  5  9  1  0
  6  7  1  0
  8 12  1  0
 10 11  1  0
 11 12  2  0
  3 14  1  0
  5 15  1  0
  8 16  1  0
 10 17  1  0
 12 18  1  0
M  END
>  <filename_input>  (20) 
7R59_I5F_docked.sdf

>  <pdb_id>  (20) 
7R59_I5F

>  <pose_rank>  (20) 
19

>  <num_atoms_heavy>  (20) 
13

>  <num_torsions>  (20) 
0

>  <pose>  (20) 
[2.0602404690328315, 3.761978203471637, 10.096150269982008, 2.341501901433411, -5.8527467061013985, 1.0720886090786574]

>  <energy>  (20) 
-500.79705129730934

>  <inter_energy>  (20) 
-498.7876827783995

>  <intra_energy>  (20) 
0.0

>  <rmsd>  (20) 
0.597527

>  <sdf_rank>  (20) 
0

$$$$

     RDKit          3D

 18 20  0  0  0  0  0  0  0  0999 V2000
    2.0211    3.1567    8.8576 C   0  0  0  0  0  0  0  0  0  0  0  0
    2.0224    3.7993   10.1056 C   0  0  0  0  0  0  0  0  0  0  0  0
    0.9667    4.6235   10.4777 C   0  0  0  0  0  0  0  0  0  0  0  0
    4.0001    2.4567    9.8109 C   0  0  0  0  0  0  0  0  0  0  0  0
    3.7797    1.5055    7.8774 C   0  0  0  0  0  0  0  0  0  0  0  0
    5.0612    1.7171    9.6246 N   0  0  0  0  0  0  0  0  0  0  0  0
    4.8993    1.0868    8.3914 N   0  0  0  0  0  0  0  0  0  0  0  0
    0.9550    3.3032    7.9811 C   0  0  0  0  0  0  0  0  0  0  0  0
    3.1900    2.3920    8.7142 N   0  0  0  0  0  0  0  0  0  0  0  0
   -1.1304    5.5751    9.9665 O   0  0  0  0  0  0  0  0  0  0  0  0
   -0.0999    4.7590    9.6114 C   0  0  0  0  0  0  0  0  0  0  0  0
   -0.1125    4.1140    8.3635 C   0  0  0  0  0  0  0  0  0  0  0  0
    3.4604    3.5164   11.0705 S   0  0  0  0  0  0  0  0  0  0  0  0
    0.9807    5.1557   11.4403 H   0  0  0  0  0  0  0  0  0  0  0  0
    3.3724    1.1866    6.9067 H   0  0  0  0  0  0  0  0  0  0  0  0
    0.9525    2.7915    7.0074 H   0  0  0  0  0  0  0  0  0  0  0  0
   -1.9051    5.6867    9.3603 H   0  0  0  0  0  0  0  0  0  0  0  0
   -0.9681    4.2492    7.6855 H   0  0  0  0  0  0  0  0  0  0  0  0
  1  2  1  0
  1  8  2  0
  1  9  1  0
  2  3  2  0
  2 13  1  0
  3 11  1  0
  4  6  2  0
  4  9  1  0
  4 13  1  0
  5  7  2  0
  5  9  1  0
  6  7  1  0
  8 12  1  0
 10 11  1  0
 11 12  2  0
  3 14  1  0
  5 15  1  0
  8 16  1  0
 10 17  1  0
 12 18  1  0
M  END
>  <filename_input>  (21) 
7R59_I5F_docked.sdf

>  <pdb_id>  (21) 
7R59_I5F

>  <pose_rank>  (21) 
20

>  <num_atoms_heavy>  (21) 
13

>  <num_torsions>  (21) 
0

>  <pose>  (21) 
[2.0211098278769537, 3.1566987708215093, 8.857588932033208, 0.8971523989529986, -1.550262252765272, -2.6453261319666375]

>  <energy>  (21) 
-527.1617132165259

>  <inter_energy>  (21) 
-536.5131269271153

>  <intra_energy>  (21) 
0.0

>  <rmsd>  (21) 
4.32658

>  <sdf_rank>  (21) 
0

$$$$

     RDKit          3D

 18 20  0  0  0  0  0  0  0  0999 V2000
    2.3236    3.8658    9.9979 C   0  0  0  0  0  0  0  0  0  0  0  0
    2.3347    3.2434    8.7398 C   0  0  0  0  0  0  0  0  0  0  0  0
    1.3446    3.5214    7.8045 C   0  0  0  0  0  0  0  0  0  0  0  0
    4.1973    2.5253   10.0874 C   0  0  0  0  0  0  0  0  0  0  0  0
    4.0421    3.6359   11.9405 C   0  0  0  0  0  0  0  0  0  0  0  0
    5.2000    2.1569   10.8399 N   0  0  0  0  0  0  0  0  0  0  0  0
    5.1094    2.8958   12.0190 N   0  0  0  0  0  0  0  0  0  0  0  0
    1.3453    4.7940   10.3258 C   0  0  0  0  0  0  0  0  0  0  0  0
    3.4146    3.4185   10.7604 N   0  0  0  0  0  0  0  0  0  0  0  0
   -0.6000    4.7208    7.2172 O   0  0  0  0  0  0  0  0  0  0  0  0
    0.3788    4.4545    8.1257 C   0  0  0  0  0  0  0  0  0  0  0  0
    0.3644    5.0872    9.3798 C   0  0  0  0  0  0  0  0  0  0  0  0
    3.6317    2.0839    8.5107 S   0  0  0  0  0  0  0  0  0  0  0  0
    1.3308    3.0098    6.8308 H   0  0  0  0  0  0  0  0  0  0  0  0
    3.7000    4.3349   12.7180 H   0  0  0  0  0  0  0  0  0  0  0  0
    1.3441    5.2868   11.3093 H   0  0  0  0  0  0  0  0  0  0  0  0
   -1.3023    5.3863    7.4270 H   0  0  0  0  0  0  0  0  0  0  0  0
   -0.4241    5.8169    9.6163 H   0  0  0  0  0  0  0  0  0  0  0  0
  1  2  1  0
  1  8  2  0
  1  9  1  0
  2  3  2  0
  2 13  1  0
  3 11  1  0
  4  6  2  0
  4  9  1  0
  4 13  1  0
  5  7  2  0
  5  9  1  0
  6  7  1  0
  8 12  1  0
 10 11  1  0
 11 12  2  0
  3 14  1  0
  5 15  1  0
  8 16  1  0
 10 17  1  0
 12 18  1  0
M  END
>  <filename_input>  (22) 
7R59_I5F_docked.sdf

>  <pdb_id>  (22) 
7R59_I5F

>  <pose_rank>  (22) 
21

>  <num_atoms_heavy>  (22) 
13

>  <num_torsions>  (22) 
0

>  <pose>  (22) 
[2.323623694956369, 3.865754430659276, 9.997935313143916, -1.2568534065504111, -2.1376559104935833, 0.7734179539666053]

>  <energy>  (22) 
-545.0766785554025

>  <inter_energy>  (22) 
-535.8468039336028

>  <intra_energy>  (22) 
0.0

>  <rmsd>  (22) 
5.08056

>  <sdf_rank>  (22) 
0

$$$$

     RDKit          3D

 18 20  0  0  0  0  0  0  0  0999 V2000
    1.5306    2.9114    8.1676 C   0  0  0  0  0  0  0  0  0  0  0  0
    1.7105    3.4052    9.4693 C   0  0  0  0  0  0  0  0  0  0  0  0
    0.7498    4.2214   10.0551 C   0  0  0  0  0  0  0  0  0  0  0  0
    3.5676    2.0297    8.7909 C   0  0  0  0  0  0  0  0  0  0  0  0
    3.0745    1.3173    6.8058 C   0  0  0  0  0  0  0  0  0  0  0  0
    4.5596    1.2759    8.3971 N   0  0  0  0  0  0  0  0  0  0  0  0
    4.2228    0.7989    7.1308 N   0  0  0  0  0  0  0  0  0  0  0  0
    0.3790    3.1994    7.4484 C   0  0  0  0  0  0  0  0  0  0  0  0
    2.6333    2.1235    7.8002 N   0  0  0  0  0  0  0  0  0  0  0  0
   -1.3399    5.3064    9.9099 O   0  0  0  0  0  0  0  0  0  0  0  0
   -0.4017    4.4973    9.3448 C   0  0  0  0  0  0  0  0  0  0  0  0
   -0.5930    4.0015    8.0443 C   0  0  0  0  0  0  0  0  0  0  0  0
    3.2341    2.9572   10.2155 S   0  0  0  0  0  0  0  0  0  0  0  0
    0.9033    4.6380   11.0615 H   0  0  0  0  0  0  0  0  0  0  0  0
    2.5410    1.1286    5.8625 H   0  0  0  0  0  0  0  0  0  0  0  0
    0.2366    2.8040    6.4319 H   0  0  0  0  0  0  0  0  0  0  0  0
   -2.1728    5.5172    9.4181 H   0  0  0  0  0  0  0  0  0  0  0  0
   -1.5133    4.2472    7.4942 H   0  0  0  0  0  0  0  0  0  0  0  0
  1  2  1  0
  1  8  2  0
  1  9  1  0
  2  3  2  0
  2 13  1  0
  3 11  1  0
  4  6  2  0
  4  9  1  0
  4 13  1  0
  5  7  2  0
  5  9  1  0
  6  7  1  0
  8 12  1  0
 10 11  1  0
 11 12  2  0
  3 14  1  0
  5 15  1  0
  8 16  1  0
 10 17  1  0
 12 18  1  0
M  END
>  <filename_input>  (23) 
7R59_I5F_docked.sdf

>  <pdb_id>  (23) 
7R59_I5F

>  <pose_rank>  (23) 
22

>  <num_atoms_heavy>  (23) 
13

>  <num_torsions>  (23) 
0

>  <pose>  (23) 
[1.5305677386272063, 2.9114317196872057, 8.167614720300817, 0.6986019243063131, -1.4260411405908104, -2.7854319651194492]

>  <energy>  (23) 
-501.70568380918576

>  <inter_energy>  (23) 
-490.9686243008156

>  <intra_energy>  (23) 
0.0

>  <rmsd>  (23) 
4.49235

>  <sdf_rank>  (23) 
0

$$$$

     RDKit          3D

 18 20  0  0  0  0  0  0  0  0999 V2000
    2.8322    3.1246    9.9036 C   0  0  0  0  0  0  0  0  0  0  0  0
    2.4674    3.2463    8.5536 C   0  0  0  0  0  0  0  0  0  0  0  0
    1.4171    4.0753    8.1768 C   0  0  0  0  0  0  0  0  0  0  0  0
    4.3225    1.7344    8.8257 C   0  0  0  0  0  0  0  0  0  0  0  0
    4.7727    1.7350   10.9444 C   0  0  0  0  0  0  0  0  0  0  0  0
    5.3303    0.9219    9.0034 N   0  0  0  0  0  0  0  0  0  0  0  0
    5.6322    0.9488   10.3645 N   0  0  0  0  0  0  0  0  0  0  0  0
    2.1760    3.8504   10.8879 C   0  0  0  0  0  0  0  0  0  0  0  0
    3.9077    2.2303   10.0279 N   0  0  0  0  0  0  0  0  0  0  0  0
   -0.2646    5.6112    8.7912 O   0  0  0  0  0  0  0  0  0  0  0  0
    0.7728    4.8073    9.1543 C   0  0  0  0  0  0  0  0  0  0  0  0
    1.1360    4.6969   10.5068 C   0  0  0  0  0  0  0  0  0  0  0  0
    3.3916    2.2380    7.4543 S   0  0  0  0  0  0  0  0  0  0  0  0
    1.1064    4.1464    7.1240 H   0  0  0  0  0  0  0  0  0  0  0  0
    4.7520    1.9636   12.0202 H   0  0  0  0  0  0  0  0  0  0  0  0
    2.4697    3.7599   11.9441 H   0  0  0  0  0  0  0  0  0  0  0  0
   -0.7406    6.1447    9.4760 H   0  0  0  0  0  0  0  0  0  0  0  0
    0.5978    5.2806   11.2681 H   0  0  0  0  0  0  0  0  0  0  0  0
  1  2  1  0
  1  8  2  0
  1  9  1  0
  2  3  2  0
  2 13  1  0
  3 11  1  0
  4  6  2  0
  4  9  1  0
  4 13  1  0
  5  7  2  0
  5  9  1  0
  6  7  1  0
  8 12  1  0
 10 11  1  0
 11 12  2  0
  3 14  1  0
  5 15  1  0
  8 16  1  0
 10 17  1  0
 12 18  1  0
M  END
>  <filename_input>  (24) 
7R59_I5F_docked.sdf

>  <pdb_id>  (24) 
7R59_I5F

>  <pose_rank>  (24) 
23

>  <num_atoms_heavy>  (24) 
13

>  <num_torsions>  (24) 
0

>  <pose>  (24) 
[2.8322217772168377, 3.124612760193998, 9.903626843622018, -0.9970803941724763, -1.8300131916536213, 0.24020963695826913]

>  <energy>  (24) 
-417.00552129905185

>  <inter_energy>  (24) 
-411.6693767210609

>  <intra_energy>  (24) 
0.0

>  <rmsd>  (24) 
4.81931

>  <sdf_rank>  (24) 
0

$$$$

     RDKit          3D

 18 20  0  0  0  0  0  0  0  0999 V2000
    2.2904    3.1506    9.0900 C   0  0  0  0  0  0  0  0  0  0  0  0
    2.4554    3.5947   10.4113 C   0  0  0  0  0  0  0  0  0  0  0  0
    1.5172    4.4370   10.9967 C   0  0  0  0  0  0  0  0  0  0  0  0
    4.2653    2.1544    9.7401 C   0  0  0  0  0  0  0  0  0  0  0  0
    3.7972    1.5280    7.7201 C   0  0  0  0  0  0  0  0  0  0  0  0
    5.2321    1.3669    9.3494 N   0  0  0  0  0  0  0  0  0  0  0  0
    4.9102    0.9459    8.0596 N   0  0  0  0  0  0  0  0  0  0  0  0
    1.1747    3.5150    8.3492 C   0  0  0  0  0  0  0  0  0  0  0  0
    3.3654    2.3230    8.7277 N   0  0  0  0  0  0  0  0  0  0  0  0
   -0.5146    5.6239   10.8294 O   0  0  0  0  0  0  0  0  0  0  0  0
    0.4008    4.7891   10.2643 C   0  0  0  0  0  0  0  0  0  0  0  0
    0.2243    4.3435    8.9438 C   0  0  0  0  0  0  0  0  0  0  0  0
    3.9343    3.0520   11.1842 S   0  0  0  0  0  0  0  0  0  0  0  0
    1.6608    4.8144   12.0199 H   0  0  0  0  0  0  0  0  0  0  0  0
    3.2829    1.3941    6.7570 H   0  0  0  0  0  0  0  0  0  0  0  0
    1.0435    3.1584    7.3169 H   0  0  0  0  0  0  0  0  0  0  0  0
   -1.3223    5.8891   10.3221 H   0  0  0  0  0  0  0  0  0  0  0  0
   -0.6673    4.6495    8.3769 H   0  0  0  0  0  0  0  0  0  0  0  0
  1  2  1  0
  1  8  2  0
  1  9  1  0
  2  3  2  0
  2 13  1  0
  3 11  1  0
  4  6  2  0
  4  9  1  0
  4 13  1  0
  5  7  2  0
  5  9  1  0
  6  7  1  0
  8 12  1  0
 10 11  1  0
 11 12  2  0
  3 14  1  0
  5 15  1  0
  8 16  1  0
 10 17  1  0
 12 18  1  0
M  END
>  <filename_input>  (25) 
7R59_I5F_docked.sdf

>  <pdb_id>  (25) 
7R59_I5F

>  <pose_rank>  (25) 
24

>  <num_atoms_heavy>  (25) 
13

>  <num_torsions>  (25) 
0

>  <pose>  (25) 
[2.290364914115075, 3.1505930387850354, 9.089973897778245, 0.7165373631869201, -1.4244715681997417, -2.8509376749718407]

>  <energy>  (25) 
-499.5560418144758

>  <inter_energy>  (25) 
-487.62084451133603

>  <intra_energy>  (25) 
0.0

>  <rmsd>  (25) 
4.16651

>  <sdf_rank>  (25) 
0

$$$$

     RDKit          3D

 18 20  0  0  0  0  0  0  0  0999 V2000
    2.0420    4.0070   10.5350 C   0  0  0  0  0  0  0  0  0  0  0  0
    1.2820    4.6510   11.5240 C   0  0  0  0  0  0  0  0  0  0  0  0
    1.7990    4.8430   12.8000 C   0  0  0  0  0  0  0  0  0  0  0  0
    0.0700    4.5020    9.4480 C   0  0  0  0  0  0  0  0  0  0  0  0
    1.4210    3.5500    8.0480 C   0  0  0  0  0  0  0  0  0  0  0  0
   -0.5620    4.4100    8.3080 N   0  0  0  0  0  0  0  0  0  0  0  0
    0.3230    3.8220    7.4050 N   0  0  0  0  0  0  0  0  0  0  0  0
    3.3350    3.5760   10.7970 C   0  0  0  0  0  0  0  0  0  0  0  0
    1.3040    3.9280    9.3430 N   0  0  0  0  0  0  0  0  0  0  0  0
    3.5960    4.6010   14.3090 O   0  0  0  0  0  0  0  0  0  0  0  0
    3.0900    4.4260   13.0570 C   0  0  0  0  0  0  0  0  0  0  0  0
    3.8600    3.7870   12.0710 C   0  0  0  0  0  0  0  0  0  0  0  0
   -0.3360    5.1060   11.0200 S   0  0  0  0  0  0  0  0  0  0  0  0
    1.1935    5.3163   13.5870 H   0  0  0  0  0  0  0  0  0  0  0  0
    2.3126    3.0821    7.6050 H   0  0  0  0  0  0  0  0  0  0  0  0
    3.9316    3.0795   10.0175 H   0  0  0  0  0  0  0  0  0  0  0  0
    4.5194    4.3093   14.5150 H   0  0  0  0  0  0  0  0  0  0  0  0
    4.8812    3.4518   12.3051 H   0  0  0  0  0  0  0  0  0  0  0  0
  1  2  1  0
  1  8  2  0
  1  9  1  0
  2  3  2  0
  2 13  1  0
  3 11  1  0
  4  6  2  0
  4  9  1  0
  4 13  1  0
  5  7  2  0
  5  9  1  0
  6  7  1  0
  8 12  1  0
 10 11  1  0
 11 12  2  0
  3 14  1  0
  5 15  1  0
  8 16  1  0
 10 17  1  0
 12 18  1  0
M  END
>  <filename_input>  (26) 
7R59_I5F_docked.sdf

>  <pdb_id>  (26) 
7R59_I5F

>  <pose_rank>  (26) 
25

>  <num_atoms_heavy>  (26) 
13

>  <num_torsions>  (26) 
0

>  <pose>  (26) 
[2.042, 4.007, 10.535, 1e-06, 1e-06, 1e-06]

>  <energy>  (26) 
-514.9408713845739

>  <inter_energy>  (26) 
-513.7313398878632

>  <intra_energy>  (26) 
0.0

>  <rmsd>  (26) 
0.0

>  <sdf_rank>  (26) 
0

$$$$
