
     RDKit          3D

 64 67  0  0  0  0  0  0  0  0999 V2000
   -7.4720  -39.8938  -32.9432 N   0  0  2  0  0  0  0  0  0  0  0  0
   -8.8840  -33.1543  -36.8207 N   0  0  0  0  0  0  0  0  0  0  0  0
   -6.2402  -40.2029  -33.7323 C   0  0  0  0  0  0  0  0  0  0  0  0
   -8.1581  -41.1460  -32.5834 C   0  0  2  0  0  0  0  0  0  0  0  0
   -9.4448  -40.9118  -31.6811 C   0  0  0  0  0  0  0  0  0  0  0  0
   -8.1846  -38.9686  -33.4889 C   0  0  0  0  0  0  0  0  0  0  0  0
   -8.6793  -39.2622  -35.0001 C   0  0  0  0  0  0  0  0  0  0  0  0
   -8.4166  -39.3503  -37.4182 C   0  0  0  0  0  0  0  0  0  0  0  0
   -5.9063  -36.7573  -39.0290 C   0  0  0  0  0  0  0  0  0  0  0  0
   -3.6024  -35.7763  -38.7458 C   0  0  0  0  0  0  0  0  0  0  0  0
   -7.2413  -34.3659  -38.2516 C   0  0  0  0  0  0  0  0  0  0  0  0
   -9.5856  -30.9083  -37.1283 C   0  0  0  0  0  0  0  0  0  0  0  0
   -8.7324  -30.8486  -38.2029 C   0  0  0  0  0  0  0  0  0  0  0  0
   -7.9703  -35.5046  -38.6071 C   0  0  0  0  0  0  0  0  0  0  0  0
  -10.4211  -40.2132  -36.4664 C   0  0  0  0  0  0  0  0  0  0  0  0
   -7.1718  -42.0440  -31.7572 C   0  0  2  0  0  0  0  0  0  0  0  0
   -7.6515  -39.0975  -38.7338 C   0  0  0  0  0  0  0  0  0  0  0  0
   -7.2921  -36.6855  -38.9726 C   0  0  0  0  0  0  0  0  0  0  0  0
   -5.1606  -35.6305  -38.6884 C   0  0  0  0  0  0  0  0  0  0  0  0
   -5.8354  -34.4276  -38.3047 C   0  0  0  0  0  0  0  0  0  0  0  0
   -8.0746  -33.0829  -37.8540 C   0  0  0  0  0  0  0  0  0  0  0  0
   -9.6481  -32.1189  -36.4228 C   0  0  0  0  0  0  0  0  0  0  0  0
   -5.9196  -42.2893  -32.5055 C   0  0  1  0  0  0  0  0  0  0  0  0
   -9.6742  -39.9200  -37.5730 C   0  0  0  0  0  0  0  0  0  0  0  0
   -9.9098  -39.8664  -35.1754 C   0  0  0  0  0  0  0  0  0  0  0  0
   -5.2621  -41.0128  -32.8255 C   0  0  1  0  0  0  0  0  0  0  0  0
   -7.9047  -38.9902  -36.1235 C   0  0  0  0  0  0  0  0  0  0  0  0
   -8.0928  -37.8436  -39.3334 N   0  0  0  0  0  0  0  0  0  0  0  0
   -8.0026  -31.9369  -38.5433 N   0  0  0  0  0  0  0  0  0  0  0  0
   -7.8366  -43.2862  -31.4789 O   0  0  0  0  0  0  0  0  0  0  0  0
   -5.0938  -43.1048  -31.5753 O   0  0  0  0  0  0  0  0  0  0  0  0
   -4.0320  -41.2647  -33.5802 O   0  0  0  0  0  0  0  0  0  0  0  0
   -9.1246  -40.1318  -30.6168 O   0  0  0  0  0  0  0  0  0  0  0  0
   -7.2234  -39.4612  -32.0422 H   0  0  0  0  0  0  0  0  0  0  0  0
   -6.5063  -40.7998  -34.6171 H   0  0  0  0  0  0  0  0  0  0  0  0
   -5.7613  -39.2700  -34.0645 H   0  0  0  0  0  0  0  0  0  0  0  0
   -8.4738  -41.6176  -33.5257 H   0  0  0  0  0  0  0  0  0  0  0  0
  -10.2234  -40.4138  -32.2776 H   0  0  0  0  0  0  0  0  0  0  0  0
   -9.8174  -41.8822  -31.3212 H   0  0  0  0  0  0  0  0  0  0  0  0
   -9.0775  -38.8175  -32.8645 H   0  0  0  0  0  0  0  0  0  0  0  0
   -7.5307  -38.0864  -33.5540 H   0  0  0  0  0  0  0  0  0  0  0  0
   -5.4061  -37.6873  -39.3371 H   0  0  0  0  0  0  0  0  0  0  0  0
   -3.1997  -35.8140  -37.7229 H   0  0  0  0  0  0  0  0  0  0  0  0
   -3.3401  -36.7029  -39.2775 H   0  0  0  0  0  0  0  0  0  0  0  0
   -3.1728  -34.9144  -39.2775 H   0  0  0  0  0  0  0  0  0  0  0  0
  -10.1953  -30.0417  -36.8329 H   0  0  0  0  0  0  0  0  0  0  0  0
   -8.6423  -29.9196  -38.7850 H   0  0  0  0  0  0  0  0  0  0  0  0
   -9.0700  -35.4794  -38.6017 H   0  0  0  0  0  0  0  0  0  0  0  0
  -11.3987  -40.7075  -36.5664 H   0  0  0  0  0  0  0  0  0  0  0  0
   -6.8988  -41.5328  -30.8223 H   0  0  0  0  0  0  0  0  0  0  0  0
   -6.5733  -39.0412  -38.5233 H   0  0  0  0  0  0  0  0  0  0  0  0
   -7.8521  -39.9228  -39.4329 H   0  0  0  0  0  0  0  0  0  0  0  0
   -5.2453  -33.5358  -38.0468 H   0  0  0  0  0  0  0  0  0  0  0  0
  -10.3143  -32.2217  -35.5535 H   0  0  0  0  0  0  0  0  0  0  0  0
   -6.0832  -42.7995  -33.4662 H   0  0  0  0  0  0  0  0  0  0  0  0
  -10.0659  -40.1335  -38.5785 H   0  0  0  0  0  0  0  0  0  0  0  0
  -10.5201  -40.0895  -34.2879 H   0  0  0  0  0  0  0  0  0  0  0  0
   -5.0163  -40.4663  -31.9031 H   0  0  0  0  0  0  0  0  0  0  0  0
   -6.9205  -38.5094  -36.0232 H   0  0  0  0  0  0  0  0  0  0  0  0
   -8.9065  -37.7835  -39.9621 H   0  0  0  0  0  0  0  0  0  0  0  0
   -7.9040  -43.4122  -30.4993 H   0  0  0  0  0  0  0  0  0  0  0  0
   -5.3259  -42.8756  -30.6406 H   0  0  0  0  0  0  0  0  0  0  0  0
   -3.2839  -41.4179  -32.9502 H   0  0  0  0  0  0  0  0  0  0  0  0
   -9.3246  -40.6191  -29.7785 H   0  0  0  0  0  0  0  0  0  0  0  0
  1  3  1  0
  1  4  1  0
  1  6  1  0
  2 21  2  0
  2 22  1  0
  3 26  1  0
  4  5  1  0
  4 16  1  0
  5 33  1  0
  6  7  1  0
  7 25  2  0
  7 27  1  0
  8 17  1  0
  8 24  1  0
  8 27  2  0
  9 18  2  0
  9 19  1  0
 10 19  1  0
 11 14  2  0
 11 20  1  0
 11 21  1  0
 12 13  1  0
 12 22  2  0
 13 29  2  0
 14 18  1  0
 15 24  2  0
 15 25  1  0
 16 23  1  0
 16 30  1  0
 17 28  1  0
 18 28  1  0
 19 20  2  0
 21 29  1  0
 23 26  1  0
 23 31  1  0
 26 32  1  0
  1 34  1  1
  3 35  1  0
  3 36  1  0
  4 37  1  6
  5 38  1  0
  5 39  1  0
  6 40  1  0
  6 41  1  0
  9 42  1  0
 10 43  1  0
 10 44  1  0
 10 45  1  0
 12 46  1  0
 13 47  1  0
 14 48  1  0
 15 49  1  0
 16 50  1  1
 17 51  1  0
 17 52  1  0
 20 53  1  0
 22 54  1  0
 23 55  1  6
 24 56  1  0
 25 57  1  0
 26 58  1  1
 27 59  1  0
 28 60  1  0
 30 61  1  0
 31 62  1  0
 32 63  1  0
 33 64  1  0
M  CHG  1   1   1
M  END
>  <filename_input>  (1) 
7R6J_2I7_docked.sdf

>  <pdb_id>  (1) 
7R6J_2I7

>  <pose_rank>  (1) 
0

>  <num_atoms_heavy>  (1) 
33

>  <num_torsions>  (1) 
7

>  <pose>  (1) 
[-8.679289753086982, -39.26221583999888, -35.000061362487784, 1.135868075085102, 5.699573710668364, -1.833487742894242, 12.601992062782013, -0.11534411146357909, -0.06705159539430335, 29.53646752109856, -2.9903866364383633, 16.23031644554987, 1.329047902042365]

>  <energy>  (1) 
-920.7630077898381

>  <inter_energy>  (1) 
-937.5744947623806

>  <intra_energy>  (1) 
22.34687269031924

>  <rmsd>  (1) 
0.95466

>  <sdf_rank>  (1) 
0

$$$$

     RDKit          3D

 64 67  0  0  0  0  0  0  0  0999 V2000
   -7.4152  -39.9681  -32.8914 N   0  0  2  0  0  0  0  0  0  0  0  0
   -5.8939  -33.6586  -40.6030 N   0  0  0  0  0  0  0  0  0  0  0  0
   -6.2013  -40.4066  -33.6461 C   0  0  0  0  0  0  0  0  0  0  0  0
   -8.3047  -41.1204  -32.6694 C   0  0  2  0  0  0  0  0  0  0  0  0
   -9.5908  -40.7555  -31.8107 C   0  0  0  0  0  0  0  0  0  0  0  0
   -7.9447  -38.9038  -33.3899 C   0  0  0  0  0  0  0  0  0  0  0  0
   -8.6311  -39.0757  -34.8439 C   0  0  0  0  0  0  0  0  0  0  0  0
   -8.6707  -38.9970  -37.2762 C   0  0  0  0  0  0  0  0  0  0  0  0
   -5.6367  -38.7929  -40.6795 C   0  0  0  0  0  0  0  0  0  0  0  0
   -4.5909  -39.4684  -42.8705 C   0  0  0  0  0  0  0  0  0  0  0  0
   -5.2363  -36.0079  -41.1146 C   0  0  0  0  0  0  0  0  0  0  0  0
   -4.8899  -31.7155  -41.5239 C   0  0  0  0  0  0  0  0  0  0  0  0
   -4.0421  -32.5486  -42.2118 C   0  0  0  0  0  0  0  0  0  0  0  0
   -5.8512  -36.4645  -39.9449 C   0  0  0  0  0  0  0  0  0  0  0  0
  -10.5714  -39.8744  -36.1422 C   0  0  0  0  0  0  0  0  0  0  0  0
   -7.5174  -42.2220  -31.8767 C   0  0  2  0  0  0  0  0  0  0  0  0
   -8.0647  -38.6703  -38.6569 C   0  0  0  0  0  0  0  0  0  0  0  0
   -6.0255  -37.8483  -39.7386 C   0  0  0  0  0  0  0  0  0  0  0  0
   -5.0311  -38.3587  -41.8570 C   0  0  0  0  0  0  0  0  0  0  0  0
   -4.8377  -36.9571  -42.0755 C   0  0  0  0  0  0  0  0  0  0  0  0
   -5.0776  -34.4431  -41.2709 C   0  0  0  0  0  0  0  0  0  0  0  0
   -5.8463  -32.3153  -40.6915 C   0  0  0  0  0  0  0  0  0  0  0  0
   -6.2759  -42.6040  -32.5845 C   0  0  1  0  0  0  0  0  0  0  0  0
   -9.9565  -39.5218  -37.3111 C   0  0  0  0  0  0  0  0  0  0  0  0
   -9.8937  -39.6341  -34.9047 C   0  0  0  0  0  0  0  0  0  0  0  0
   -5.4133  -41.4263  -32.7662 C   0  0  1  0  0  0  0  0  0  0  0  0
   -7.9915  -38.7438  -36.0342 C   0  0  0  0  0  0  0  0  0  0  0  0
   -6.6691  -38.2748  -38.5072 N   0  0  0  0  0  0  0  0  0  0  0  0
   -4.1593  -33.8904  -42.0739 N   0  0  0  0  0  0  0  0  0  0  0  0
   -8.3796  -43.3617  -31.7341 O   0  0  0  0  0  0  0  0  0  0  0  0
   -5.6405  -43.6070  -31.6888 O   0  0  0  0  0  0  0  0  0  0  0  0
   -4.1943  -41.8108  -33.4820 O   0  0  0  0  0  0  0  0  0  0  0  0
   -9.2152  -40.3343  -30.5757 O   0  0  0  0  0  0  0  0  0  0  0  0
   -7.1563  -39.6492  -31.9468 H   0  0  0  0  0  0  0  0  0  0  0  0
   -6.5035  -40.8858  -34.5889 H   0  0  0  0  0  0  0  0  0  0  0  0
   -5.5667  -39.5383  -33.8768 H   0  0  0  0  0  0  0  0  0  0  0  0
   -8.6333  -41.4640  -33.6613 H   0  0  0  0  0  0  0  0  0  0  0  0
  -10.1513  -39.9545  -32.3149 H   0  0  0  0  0  0  0  0  0  0  0  0
  -10.2268  -41.6476  -31.7123 H   0  0  0  0  0  0  0  0  0  0  0  0
   -8.7178  -38.5520  -32.6909 H   0  0  0  0  0  0  0  0  0  0  0  0
   -7.1153  -38.1954  -33.5323 H   0  0  0  0  0  0  0  0  0  0  0  0
   -5.8040  -39.8650  -40.4985 H   0  0  0  0  0  0  0  0  0  0  0  0
   -4.2403  -40.3522  -42.3172 H   0  0  0  0  0  0  0  0  0  0  0  0
   -5.4464  -39.7475  -43.5031 H   0  0  0  0  0  0  0  0  0  0  0  0
   -3.7767  -39.0852  -43.5031 H   0  0  0  0  0  0  0  0  0  0  0  0
   -4.8217  -30.6220  -41.6217 H   0  0  0  0  0  0  0  0  0  0  0  0
   -3.2703  -32.1272  -42.8727 H   0  0  0  0  0  0  0  0  0  0  0  0
   -6.1982  -35.7460  -39.1876 H   0  0  0  0  0  0  0  0  0  0  0  0
  -11.5702  -40.3350  -36.1526 H   0  0  0  0  0  0  0  0  0  0  0  0
   -7.2244  -41.8321  -30.8907 H   0  0  0  0  0  0  0  0  0  0  0  0
   -8.1243  -39.5601  -39.3008 H   0  0  0  0  0  0  0  0  0  0  0  0
   -8.6281  -37.8425  -39.1122 H   0  0  0  0  0  0  0  0  0  0  0  0
   -4.3694  -36.6156  -43.0104 H   0  0  0  0  0  0  0  0  0  0  0  0
   -6.5501  -31.6952  -40.1170 H   0  0  0  0  0  0  0  0  0  0  0  0
   -6.4593  -43.0082  -33.5910 H   0  0  0  0  0  0  0  0  0  0  0  0
  -10.4759  -39.6526  -38.2719 H   0  0  0  0  0  0  0  0  0  0  0  0
  -10.3977  -39.9045  -33.9651 H   0  0  0  0  0  0  0  0  0  0  0  0
   -5.1410  -40.9964  -31.7910 H   0  0  0  0  0  0  0  0  0  0  0  0
   -6.9865  -38.2967  -36.0253 H   0  0  0  0  0  0  0  0  0  0  0  0
   -6.1789  -38.2960  -37.6016 H   0  0  0  0  0  0  0  0  0  0  0  0
   -8.5218  -43.5496  -30.7725 H   0  0  0  0  0  0  0  0  0  0  0  0
   -5.8003  -43.3547  -30.7450 H   0  0  0  0  0  0  0  0  0  0  0  0
   -3.4848  -42.0347  -32.8289 H   0  0  0  0  0  0  0  0  0  0  0  0
   -9.6890  -40.8656  -29.8877 H   0  0  0  0  0  0  0  0  0  0  0  0
  1  3  1  0
  1  4  1  0
  1  6  1  0
  2 21  2  0
  2 22  1  0
  3 26  1  0
  4  5  1  0
  4 16  1  0
  5 33  1  0
  6  7  1  0
  7 25  2  0
  7 27  1  0
  8 17  1  0
  8 24  1  0
  8 27  2  0
  9 18  2  0
  9 19  1  0
 10 19  1  0
 11 14  2  0
 11 20  1  0
 11 21  1  0
 12 13  1  0
 12 22  2  0
 13 29  2  0
 14 18  1  0
 15 24  2  0
 15 25  1  0
 16 23  1  0
 16 30  1  0
 17 28  1  0
 18 28  1  0
 19 20  2  0
 21 29  1  0
 23 26  1  0
 23 31  1  0
 26 32  1  0
  1 34  1  1
  3 35  1  0
  3 36  1  0
  4 37  1  6
  5 38  1  0
  5 39  1  0
  6 40  1  0
  6 41  1  0
  9 42  1  0
 10 43  1  0
 10 44  1  0
 10 45  1  0
 12 46  1  0
 13 47  1  0
 14 48  1  0
 15 49  1  0
 16 50  1  1
 17 51  1  0
 17 52  1  0
 20 53  1  0
 22 54  1  0
 23 55  1  6
 24 56  1  0
 25 57  1  0
 26 58  1  1
 27 59  1  0
 28 60  1  0
 30 61  1  0
 31 62  1  0
 32 63  1  0
 33 64  1  0
M  CHG  1   1   1
M  END
>  <filename_input>  (2) 
7R6J_2I7_docked.sdf

>  <pdb_id>  (2) 
7R6J_2I7

>  <pose_rank>  (2) 
1

>  <num_atoms_heavy>  (2) 
33

>  <num_torsions>  (2) 
7

>  <pose>  (2) 
[-8.631075357428827, -39.07573104108589, -34.843882191759896, -3.214570815601813, 4.898922254700917, -2.0711068622960185, -6.466721322479298, 0.07100873759844388, -0.2523942177598257, 12.501526746827752, 36.296692934139564, 20.370128695359426, -12.713076992810063]

>  <energy>  (2) 
-871.9936585692491

>  <inter_energy>  (2) 
-905.6080571956902

>  <intra_energy>  (2) 
28.136245093894757

>  <rmsd>  (2) 
3.2845

>  <sdf_rank>  (2) 
0

$$$$

     RDKit          3D

 64 67  0  0  0  0  0  0  0  0999 V2000
   -7.4085  -39.8938  -32.9057 N   0  0  2  0  0  0  0  0  0  0  0  0
   -4.3432  -36.9655  -38.8821 N   0  0  0  0  0  0  0  0  0  0  0  0
   -6.3551  -40.5857  -33.7101 C   0  0  0  0  0  0  0  0  0  0  0  0
   -8.4145  -40.8718  -32.4591 C   0  0  2  0  0  0  0  0  0  0  0  0
   -9.5374  -40.2302  -31.5362 C   0  0  0  0  0  0  0  0  0  0  0  0
   -7.8422  -38.8251  -33.4815 C   0  0  0  0  0  0  0  0  0  0  0  0
   -8.7140  -39.0550  -34.8239 C   0  0  0  0  0  0  0  0  0  0  0  0
   -9.0710  -39.0873  -37.2313 C   0  0  0  0  0  0  0  0  0  0  0  0
   -9.1169  -35.2987  -39.8135 C   0  0  0  0  0  0  0  0  0  0  0  0
   -9.0126  -32.8626  -40.4499 C   0  0  0  0  0  0  0  0  0  0  0  0
   -6.3029  -35.5332  -39.4495 C   0  0  0  0  0  0  0  0  0  0  0  0
   -2.0954  -36.2223  -38.7183 C   0  0  0  0  0  0  0  0  0  0  0  0
   -2.5444  -34.9697  -39.0581 C   0  0  0  0  0  0  0  0  0  0  0  0
   -7.1412  -36.6332  -39.2445 C   0  0  0  0  0  0  0  0  0  0  0  0
  -10.8123  -39.8885  -35.8191 C   0  0  0  0  0  0  0  0  0  0  0  0
   -7.6995  -41.9824  -31.6123 C   0  0  2  0  0  0  0  0  0  0  0  0
   -8.6489  -38.8317  -38.6930 C   0  0  0  0  0  0  0  0  0  0  0  0
   -8.5306  -36.5031  -39.4465 C   0  0  0  0  0  0  0  0  0  0  0  0
   -8.3005  -34.1872  -40.0130 C   0  0  0  0  0  0  0  0  0  0  0  0
   -6.8867  -34.3070  -39.8223 C   0  0  0  0  0  0  0  0  0  0  0  0
   -4.7583  -35.7601  -39.2028 C   0  0  0  0  0  0  0  0  0  0  0  0
   -3.0497  -37.2467  -38.6329 C   0  0  0  0  0  0  0  0  0  0  0  0
   -6.6062  -42.6177  -32.3800 C   0  0  1  0  0  0  0  0  0  0  0  0
  -10.3535  -39.5974  -37.0734 C   0  0  0  0  0  0  0  0  0  0  0  0
   -9.9772  -39.6001  -34.6932 C   0  0  0  0  0  0  0  0  0  0  0  0
   -5.6187  -41.6062  -32.7874 C   0  0  1  0  0  0  0  0  0  0  0  0
   -8.2336  -38.7859  -36.1017 C   0  0  0  0  0  0  0  0  0  0  0  0
   -9.3613  -37.6744  -39.2218 N   0  0  0  0  0  0  0  0  0  0  0  0
   -3.8635  -34.7671  -39.2863 N   0  0  0  0  0  0  0  0  0  0  0  0
   -8.6856  -42.9609  -31.2483 O   0  0  0  0  0  0  0  0  0  0  0  0
   -6.0160  -43.5976  -31.4295 O   0  0  0  0  0  0  0  0  0  0  0  0
   -4.5489  -42.2415  -33.5605 O   0  0  0  0  0  0  0  0  0  0  0  0
  -10.6491  -39.9762  -32.2732 O   0  0  0  0  0  0  0  0  0  0  0  0
   -7.0066  -39.5137  -32.0369 H   0  0  0  0  0  0  0  0  0  0  0  0
   -6.8210  -41.1168  -34.5532 H   0  0  0  0  0  0  0  0  0  0  0  0
   -5.6391  -39.8504  -34.1059 H   0  0  0  0  0  0  0  0  0  0  0  0
   -8.8936  -41.2712  -33.3652 H   0  0  0  0  0  0  0  0  0  0  0  0
   -9.7885  -40.9307  -30.7261 H   0  0  0  0  0  0  0  0  0  0  0  0
   -9.1620  -39.2886  -31.1090 H   0  0  0  0  0  0  0  0  0  0  0  0
   -8.4708  -38.2836  -32.7592 H   0  0  0  0  0  0  0  0  0  0  0  0
   -6.9463  -38.2708  -33.7977 H   0  0  0  0  0  0  0  0  0  0  0  0
  -10.2065  -35.2236  -39.9443 H   0  0  0  0  0  0  0  0  0  0  0  0
   -9.3163  -32.2977  -39.5562 H   0  0  0  0  0  0  0  0  0  0  0  0
   -8.3197  -32.2546  -41.0501 H   0  0  0  0  0  0  0  0  0  0  0  0
   -9.9019  -33.1052  -41.0501 H   0  0  0  0  0  0  0  0  0  0  0  0
   -1.0304  -36.4144  -38.5211 H   0  0  0  0  0  0  0  0  0  0  0  0
   -1.8347  -34.1337  -39.1445 H   0  0  0  0  0  0  0  0  0  0  0  0
   -6.7181  -37.5975  -38.9266 H   0  0  0  0  0  0  0  0  0  0  0  0
  -11.8068  -40.3369  -35.6775 H   0  0  0  0  0  0  0  0  0  0  0  0
   -7.2498  -41.5330  -30.7146 H   0  0  0  0  0  0  0  0  0  0  0  0
   -7.5660  -38.6420  -38.7318 H   0  0  0  0  0  0  0  0  0  0  0  0
   -8.8943  -39.7156  -39.3000 H   0  0  0  0  0  0  0  0  0  0  0  0
   -6.2450  -33.4258  -39.9695 H   0  0  0  0  0  0  0  0  0  0  0  0
   -2.7449  -38.2691  -38.3652 H   0  0  0  0  0  0  0  0  0  0  0  0
   -6.9520  -43.0994  -33.3064 H   0  0  0  0  0  0  0  0  0  0  0  0
  -10.9949  -39.7658  -37.9511 H   0  0  0  0  0  0  0  0  0  0  0  0
  -10.3556  -39.8210  -33.6843 H   0  0  0  0  0  0  0  0  0  0  0  0
   -5.1854  -41.1156  -31.9034 H   0  0  0  0  0  0  0  0  0  0  0  0
   -7.2334  -38.3512  -36.2449 H   0  0  0  0  0  0  0  0  0  0  0  0
  -10.3720  -37.6860  -39.4201 H   0  0  0  0  0  0  0  0  0  0  0  0
   -8.7443  -43.0191  -30.2617 H   0  0  0  0  0  0  0  0  0  0  0  0
   -6.1928  -43.3041  -30.5007 H   0  0  0  0  0  0  0  0  0  0  0  0
   -3.8843  -42.6362  -32.9419 H   0  0  0  0  0  0  0  0  0  0  0  0
  -11.4132  -39.8017  -31.6684 H   0  0  0  0  0  0  0  0  0  0  0  0
  1  3  1  0
  1  4  1  0
  1  6  1  0
  2 21  2  0
  2 22  1  0
  3 26  1  0
  4  5  1  0
  4 16  1  0
  5 33  1  0
  6  7  1  0
  7 25  2  0
  7 27  1  0
  8 17  1  0
  8 24  1  0
  8 27  2  0
  9 18  2  0
  9 19  1  0
 10 19  1  0
 11 14  2  0
 11 20  1  0
 11 21  1  0
 12 13  1  0
 12 22  2  0
 13 29  2  0
 14 18  1  0
 15 24  2  0
 15 25  1  0
 16 23  1  0
 16 30  1  0
 17 28  1  0
 18 28  1  0
 19 20  2  0
 21 29  1  0
 23 26  1  0
 23 31  1  0
 26 32  1  0
  1 34  1  1
  3 35  1  0
  3 36  1  0
  4 37  1  6
  5 38  1  0
  5 39  1  0
  6 40  1  0
  6 41  1  0
  9 42  1  0
 10 43  1  0
 10 44  1  0
 10 45  1  0
 12 46  1  0
 13 47  1  0
 14 48  1  0
 15 49  1  0
 16 50  1  1
 17 51  1  0
 17 52  1  0
 20 53  1  0
 22 54  1  0
 23 55  1  6
 24 56  1  0
 25 57  1  0
 26 58  1  1
 27 59  1  0
 28 60  1  0
 30 61  1  0
 31 62  1  0
 32 63  1  0
 33 64  1  0
M  CHG  1   1   1
M  END
>  <filename_input>  (3) 
7R6J_2I7_docked.sdf

>  <pdb_id>  (3) 
7R6J_2I7

>  <pose_rank>  (3) 
2

>  <num_atoms_heavy>  (3) 
33

>  <num_torsions>  (3) 
7

>  <pose>  (3) 
[-8.71398084235732, -39.0550400803228, -34.823877519593495, 0.7790867388987301, -6.07628867020022, -0.981509047777486, -0.34054035858649495, 0.08110443420821585, 2.562605797033492, -8.34481814273449, -2.6973499545470694, -0.1803238907980626, 0.3171614064986905]

>  <energy>  (3) 
-741.10846057754

>  <inter_energy>  (3) 
-832.1669020735001

>  <intra_energy>  (3) 
70.92338981363648

>  <rmsd>  (3) 
3.56529

>  <sdf_rank>  (3) 
0

$$$$

     RDKit          3D

 64 67  0  0  0  0  0  0  0  0999 V2000
   -7.4361  -39.9790  -33.0501 N   0  0  2  0  0  0  0  0  0  0  0  0
  -12.4096  -35.7317  -37.0625 N   0  0  0  0  0  0  0  0  0  0  0  0
   -6.2565  -40.2537  -33.9267 C   0  0  0  0  0  0  0  0  0  0  0  0
   -7.9822  -41.2481  -32.5406 C   0  0  2  0  0  0  0  0  0  0  0  0
   -9.2002  -41.0432  -31.5411 C   0  0  0  0  0  0  0  0  0  0  0  0
   -8.2678  -39.1558  -33.5907 C   0  0  0  0  0  0  0  0  0  0  0  0
   -8.2657  -39.1156  -35.2073 C   0  0  0  0  0  0  0  0  0  0  0  0
   -7.4389  -38.4093  -37.3848 C   0  0  0  0  0  0  0  0  0  0  0  0
   -7.4113  -34.6432  -37.9194 C   0  0  0  0  0  0  0  0  0  0  0  0
   -7.3323  -32.4928  -36.6079 C   0  0  0  0  0  0  0  0  0  0  0  0
  -10.2543  -34.7928  -37.8913 C   0  0  0  0  0  0  0  0  0  0  0  0
  -14.5462  -35.3202  -38.0098 C   0  0  0  0  0  0  0  0  0  0  0  0
  -13.9213  -34.5096  -38.9255 C   0  0  0  0  0  0  0  0  0  0  0  0
   -9.4959  -35.7792  -38.5290 C   0  0  0  0  0  0  0  0  0  0  0  0
   -9.1758  -40.0358  -37.3080 C   0  0  0  0  0  0  0  0  0  0  0  0
   -6.8566  -42.0015  -31.7487 C   0  0  2  0  0  0  0  0  0  0  0  0
   -6.5295  -37.5773  -38.3127 C   0  0  0  0  0  0  0  0  0  0  0  0
   -8.0883  -35.6979  -38.5178 C   0  0  0  0  0  0  0  0  0  0  0  0
   -8.1485  -33.6440  -37.2869 C   0  0  0  0  0  0  0  0  0  0  0  0
   -9.5781  -33.7189  -37.2808 C   0  0  0  0  0  0  0  0  0  0  0  0
  -11.8254  -34.9555  -37.9482 C   0  0  0  0  0  0  0  0  0  0  0  0
  -13.7393  -35.9462  -37.0484 C   0  0  0  0  0  0  0  0  0  0  0  0
   -5.6584  -42.2082  -32.5912 C   0  0  1  0  0  0  0  0  0  0  0  0
   -8.3454  -39.2336  -38.0396 C   0  0  0  0  0  0  0  0  0  0  0  0
   -9.1307  -39.9578  -35.8796 C   0  0  0  0  0  0  0  0  0  0  0  0
   -5.1393  -40.9140  -33.0602 C   0  0  1  0  0  0  0  0  0  0  0  0
   -7.3988  -38.3202  -35.9501 C   0  0  0  0  0  0  0  0  0  0  0  0
   -7.3429  -36.7470  -39.1933 N   0  0  0  0  0  0  0  0  0  0  0  0
  -12.5776  -34.3511  -38.8769 N   0  0  0  0  0  0  0  0  0  0  0  0
   -7.3894  -43.2654  -31.3230 O   0  0  0  0  0  0  0  0  0  0  0  0
   -4.6899  -42.8838  -31.6870 O   0  0  0  0  0  0  0  0  0  0  0  0
   -3.9632  -41.1294  -33.9066 O   0  0  0  0  0  0  0  0  0  0  0  0
   -8.9017  -40.0667  -30.6462 O   0  0  0  0  0  0  0  0  0  0  0  0
   -7.1466  -39.4601  -32.2088 H   0  0  0  0  0  0  0  0  0  0  0  0
   -6.5484  -40.9361  -34.7386 H   0  0  0  0  0  0  0  0  0  0  0  0
   -5.8873  -39.3157  -34.3669 H   0  0  0  0  0  0  0  0  0  0  0  0
   -8.3387  -41.8140  -33.4139 H   0  0  0  0  0  0  0  0  0  0  0  0
  -10.0957  -40.7548  -32.1111 H   0  0  0  0  0  0  0  0  0  0  0  0
   -9.3902  -41.9834  -31.0028 H   0  0  0  0  0  0  0  0  0  0  0  0
   -9.2800  -39.4330  -33.2611 H   0  0  0  0  0  0  0  0  0  0  0  0
   -7.9510  -38.1537  -33.2659 H   0  0  0  0  0  0  0  0  0  0  0  0
   -6.3125  -34.5974  -37.9443 H   0  0  0  0  0  0  0  0  0  0  0  0
   -7.4013  -32.5902  -35.5143 H   0  0  0  0  0  0  0  0  0  0  0  0
   -6.2785  -32.5593  -36.9161 H   0  0  0  0  0  0  0  0  0  0  0  0
   -7.7439  -31.5204  -36.9161 H   0  0  0  0  0  0  0  0  0  0  0  0
  -15.6354  -35.4723  -38.0295 H   0  0  0  0  0  0  0  0  0  0  0  0
  -14.5106  -33.9908  -39.6959 H   0  0  0  0  0  0  0  0  0  0  0  0
   -9.9960  -36.6163  -39.0382 H   0  0  0  0  0  0  0  0  0  0  0  0
   -9.8672  -40.7296  -37.8086 H   0  0  0  0  0  0  0  0  0  0  0  0
   -6.5463  -41.4001  -30.8816 H   0  0  0  0  0  0  0  0  0  0  0  0
   -5.8786  -36.9333  -37.7032 H   0  0  0  0  0  0  0  0  0  0  0  0
   -5.9160  -38.2573  -38.9220 H   0  0  0  0  0  0  0  0  0  0  0  0
  -10.1587  -32.9235  -36.7906 H   0  0  0  0  0  0  0  0  0  0  0  0
  -14.1878  -36.6056  -36.2907 H   0  0  0  0  0  0  0  0  0  0  0  0
   -5.8623  -42.8024  -33.4942 H   0  0  0  0  0  0  0  0  0  0  0  0
   -8.3944  -39.2408  -39.1385 H   0  0  0  0  0  0  0  0  0  0  0  0
   -9.8113  -40.5933  -35.2940 H   0  0  0  0  0  0  0  0  0  0  0  0
   -4.8601  -40.2805  -32.2055 H   0  0  0  0  0  0  0  0  0  0  0  0
   -6.6967  -37.6368  -35.4499 H   0  0  0  0  0  0  0  0  0  0  0  0
   -7.3858  -36.8923  -40.2121 H   0  0  0  0  0  0  0  0  0  0  0  0
   -7.4043  -43.3009  -30.3337 H   0  0  0  0  0  0  0  0  0  0  0  0
   -4.9405  -42.7090  -30.7453 H   0  0  0  0  0  0  0  0  0  0  0  0
   -3.1678  -41.2750  -33.3354 H   0  0  0  0  0  0  0  0  0  0  0  0
   -9.0090  -40.4177  -29.7267 H   0  0  0  0  0  0  0  0  0  0  0  0
  1  3  1  0
  1  4  1  0
  1  6  1  0
  2 21  2  0
  2 22  1  0
  3 26  1  0
  4  5  1  0
  4 16  1  0
  5 33  1  0
  6  7  1  0
  7 25  2  0
  7 27  1  0
  8 17  1  0
  8 24  1  0
  8 27  2  0
  9 18  2  0
  9 19  1  0
 10 19  1  0
 11 14  2  0
 11 20  1  0
 11 21  1  0
 12 13  1  0
 12 22  2  0
 13 29  2  0
 14 18  1  0
 15 24  2  0
 15 25  1  0
 16 23  1  0
 16 30  1  0
 17 28  1  0
 18 28  1  0
 19 20  2  0
 21 29  1  0
 23 26  1  0
 23 31  1  0
 26 32  1  0
  1 34  1  1
  3 35  1  0
  3 36  1  0
  4 37  1  6
  5 38  1  0
  5 39  1  0
  6 40  1  0
  6 41  1  0
  9 42  1  0
 10 43  1  0
 10 44  1  0
 10 45  1  0
 12 46  1  0
 13 47  1  0
 14 48  1  0
 15 49  1  0
 16 50  1  1
 17 51  1  0
 17 52  1  0
 20 53  1  0
 22 54  1  0
 23 55  1  6
 24 56  1  0
 25 57  1  0
 26 58  1  1
 27 59  1  0
 28 60  1  0
 30 61  1  0
 31 62  1  0
 32 63  1  0
 33 64  1  0
M  CHG  1   1   1
M  END
>  <filename_input>  (4) 
7R6J_2I7_docked.sdf

>  <pdb_id>  (4) 
7R6J_2I7

>  <pose_rank>  (4) 
3

>  <num_atoms_heavy>  (4) 
33

>  <num_torsions>  (4) 
7

>  <pose>  (4) 
[-8.265666496782737, -39.11556340610454, -35.207251394231676, -2.1774338481082007, 4.155051619972194, -3.1348072587371285, -6.264447640464606, -0.6679353570057754, 0.035416876334218875, -8.594470367491871, 9.114977804297828, 4.013552363138631, 1.729323506253214]

>  <energy>  (4) 
-862.6651634405524

>  <inter_energy>  (4) 
-901.4302965771687

>  <intra_energy>  (4) 
31.554898937435656

>  <rmsd>  (4) 
2.59304

>  <sdf_rank>  (4) 
0

$$$$

     RDKit          3D

 64 67  0  0  0  0  0  0  0  0999 V2000
   -7.1350  -39.8854  -32.6280 N   0  0  2  0  0  0  0  0  0  0  0  0
   -5.9321  -38.9224  -43.1518 N   0  0  0  0  0  0  0  0  0  0  0  0
   -6.0337  -40.1981  -33.5895 C   0  0  0  0  0  0  0  0  0  0  0  0
   -7.8515  -41.1222  -32.2745 C   0  0  2  0  0  0  0  0  0  0  0  0
   -8.9980  -40.8900  -31.1993 C   0  0  0  0  0  0  0  0  0  0  0  0
   -7.8479  -38.8811  -33.0087 C   0  0  0  0  0  0  0  0  0  0  0  0
   -8.5977  -39.0511  -34.4313 C   0  0  0  0  0  0  0  0  0  0  0  0
   -8.7389  -38.9860  -36.8602 C   0  0  0  0  0  0  0  0  0  0  0  0
   -6.6409  -35.5750  -39.3053 C   0  0  0  0  0  0  0  0  0  0  0  0
   -6.1883  -33.3186  -40.3322 C   0  0  0  0  0  0  0  0  0  0  0  0
   -6.6185  -36.9419  -41.8026 C   0  0  0  0  0  0  0  0  0  0  0  0
   -6.5024  -39.3066  -45.4230 C   0  0  0  0  0  0  0  0  0  0  0  0
   -7.2048  -38.1270  -45.3871 C   0  0  0  0  0  0  0  0  0  0  0  0
   -6.8391  -37.6396  -40.6113 C   0  0  0  0  0  0  0  0  0  0  0  0
  -10.6028  -39.8278  -35.6414 C   0  0  0  0  0  0  0  0  0  0  0  0
   -6.8310  -42.1371  -31.6496 C   0  0  2  0  0  0  0  0  0  0  0  0
   -8.1870  -38.6766  -38.2673 C   0  0  0  0  0  0  0  0  0  0  0  0
   -6.8642  -36.9434  -39.3854 C   0  0  0  0  0  0  0  0  0  0  0  0
   -6.4088  -34.8620  -40.4799 C   0  0  0  0  0  0  0  0  0  0  0  0
   -6.3913  -35.5538  -41.7331 C   0  0  0  0  0  0  0  0  0  0  0  0
   -6.6055  -37.7936  -43.1340 C   0  0  0  0  0  0  0  0  0  0  0  0
   -5.8476  -39.7016  -44.2473 C   0  0  0  0  0  0  0  0  0  0  0  0
   -5.7001  -42.3908  -32.5688 C   0  0  1  0  0  0  0  0  0  0  0  0
  -10.0327  -39.4914  -36.8374 C   0  0  0  0  0  0  0  0  0  0  0  0
   -9.8700  -39.5906  -34.4352 C   0  0  0  0  0  0  0  0  0  0  0  0
   -5.0055  -41.1313  -32.8775 C   0  0  1  0  0  0  0  0  0  0  0  0
   -8.0041  -38.7359  -35.6496 C   0  0  0  0  0  0  0  0  0  0  0  0
   -7.0978  -37.7114  -38.1738 N   0  0  0  0  0  0  0  0  0  0  0  0
   -7.2351  -37.3967  -44.2475 N   0  0  0  0  0  0  0  0  0  0  0  0
   -7.5358  -43.3588  -31.3788 O   0  0  0  0  0  0  0  0  0  0  0  0
   -4.8202  -43.3229  -31.8144 O   0  0  0  0  0  0  0  0  0  0  0  0
   -3.8978  -41.3898  -33.8007 O   0  0  0  0  0  0  0  0  0  0  0  0
  -10.0509  -40.2580  -31.7786 O   0  0  0  0  0  0  0  0  0  0  0  0
   -6.7487  -39.5409  -31.7375 H   0  0  0  0  0  0  0  0  0  0  0  0
   -6.4460  -40.7064  -34.4736 H   0  0  0  0  0  0  0  0  0  0  0  0
   -5.5398  -39.2697  -33.9121 H   0  0  0  0  0  0  0  0  0  0  0  0
   -8.3119  -41.4984  -33.1999 H   0  0  0  0  0  0  0  0  0  0  0  0
   -9.3285  -41.8612  -30.8024 H   0  0  0  0  0  0  0  0  0  0  0  0
   -8.6072  -40.2684  -30.3802 H   0  0  0  0  0  0  0  0  0  0  0  0
   -8.6157  -38.7018  -32.2416 H   0  0  0  0  0  0  0  0  0  0  0  0
   -7.1435  -38.0464  -33.1394 H   0  0  0  0  0  0  0  0  0  0  0  0
   -6.6471  -35.0629  -38.3317 H   0  0  0  0  0  0  0  0  0  0  0  0
   -6.1505  -33.0541  -39.2652 H   0  0  0  0  0  0  0  0  0  0  0  0
   -5.2407  -33.0359  -40.8139 H   0  0  0  0  0  0  0  0  0  0  0  0
   -7.0189  -32.7819  -40.8139 H   0  0  0  0  0  0  0  0  0  0  0  0
   -6.4552  -39.9169  -46.3370 H   0  0  0  0  0  0  0  0  0  0  0  0
   -7.7410  -37.7766  -46.2814 H   0  0  0  0  0  0  0  0  0  0  0  0
   -6.9927  -38.7286  -40.6303 H   0  0  0  0  0  0  0  0  0  0  0  0
  -11.6080  -40.2733  -35.6067 H   0  0  0  0  0  0  0  0  0  0  0  0
   -6.4111  -41.7185  -30.7230 H   0  0  0  0  0  0  0  0  0  0  0  0
   -7.8133  -39.6047  -38.7244 H   0  0  0  0  0  0  0  0  0  0  0  0
   -8.9921  -38.2541  -38.8865 H   0  0  0  0  0  0  0  0  0  0  0  0
   -6.1971  -34.9911  -42.6582 H   0  0  0  0  0  0  0  0  0  0  0  0
   -5.2711  -40.6380  -44.2200 H   0  0  0  0  0  0  0  0  0  0  0  0
   -6.0147  -42.8125  -33.5348 H   0  0  0  0  0  0  0  0  0  0  0  0
  -10.5941  -39.6199  -37.7746 H   0  0  0  0  0  0  0  0  0  0  0  0
  -10.3378  -39.8478  -33.4734 H   0  0  0  0  0  0  0  0  0  0  0  0
   -4.6119  -40.6751  -31.9572 H   0  0  0  0  0  0  0  0  0  0  0  0
   -6.9931  -38.3040  -35.6860 H   0  0  0  0  0  0  0  0  0  0  0  0
   -6.5390  -37.5843  -37.3180 H   0  0  0  0  0  0  0  0  0  0  0  0
   -7.6098  -43.4870  -30.3999 H   0  0  0  0  0  0  0  0  0  0  0  0
   -4.9500  -43.1855  -30.8427 H   0  0  0  0  0  0  0  0  0  0  0  0
   -3.0755  -41.5818  -33.2839 H   0  0  0  0  0  0  0  0  0  0  0  0
  -10.6482  -39.8994  -31.0752 H   0  0  0  0  0  0  0  0  0  0  0  0
  1  3  1  0
  1  4  1  0
  1  6  1  0
  2 21  2  0
  2 22  1  0
  3 26  1  0
  4  5  1  0
  4 16  1  0
  5 33  1  0
  6  7  1  0
  7 25  2  0
  7 27  1  0
  8 17  1  0
  8 24  1  0
  8 27  2  0
  9 18  2  0
  9 19  1  0
 10 19  1  0
 11 14  2  0
 11 20  1  0
 11 21  1  0
 12 13  1  0
 12 22  2  0
 13 29  2  0
 14 18  1  0
 15 24  2  0
 15 25  1  0
 16 23  1  0
 16 30  1  0
 17 28  1  0
 18 28  1  0
 19 20  2  0
 21 29  1  0
 23 26  1  0
 23 31  1  0
 26 32  1  0
  1 34  1  1
  3 35  1  0
  3 36  1  0
  4 37  1  6
  5 38  1  0
  5 39  1  0
  6 40  1  0
  6 41  1  0
  9 42  1  0
 10 43  1  0
 10 44  1  0
 10 45  1  0
 12 46  1  0
 13 47  1  0
 14 48  1  0
 15 49  1  0
 16 50  1  1
 17 51  1  0
 17 52  1  0
 20 53  1  0
 22 54  1  0
 23 55  1  6
 24 56  1  0
 25 57  1  0
 26 58  1  1
 27 59  1  0
 28 60  1  0
 30 61  1  0
 31 62  1  0
 32 63  1  0
 33 64  1  0
M  CHG  1   1   1
M  END
>  <filename_input>  (5) 
7R6J_2I7_docked.sdf

>  <pdb_id>  (5) 
7R6J_2I7

>  <pose_rank>  (5) 
4

>  <num_atoms_heavy>  (5) 
33

>  <num_torsions>  (5) 
7

>  <pose>  (5) 
[-8.597672195234063, -39.05107313229195, -34.431251063207014, -5.6445743797821155, 2.299571015838254, -1.386405763804476, 6.285753631282883, -0.06990968174783718, 2.1112659013560475, -0.5585759740118725, -13.628257896412482, 5.219237855844336, 5.757471353237335]

>  <energy>  (5) 
-768.507709187104

>  <inter_energy>  (5) 
-827.379156928635

>  <intra_energy>  (5) 
59.92897001847172

>  <rmsd>  (5) 
4.30872

>  <sdf_rank>  (5) 
0

$$$$

     RDKit          3D

 64 67  0  0  0  0  0  0  0  0999 V2000
   -7.4665  -39.8274  -32.8687 N   0  0  2  0  0  0  0  0  0  0  0  0
   -3.5785  -37.1993  -39.8446 N   0  0  0  0  0  0  0  0  0  0  0  0
   -6.4025  -40.2402  -33.8346 C   0  0  0  0  0  0  0  0  0  0  0  0
   -8.0975  -41.0227  -32.2846 C   0  0  2  0  0  0  0  0  0  0  0  0
   -9.1963  -40.6733  -31.1914 C   0  0  0  0  0  0  0  0  0  0  0  0
   -8.2502  -38.9280  -33.3573 C   0  0  0  0  0  0  0  0  0  0  0  0
   -8.0831  -38.6347  -34.9387 C   0  0  0  0  0  0  0  0  0  0  0  0
   -8.1675  -39.2167  -37.3005 C   0  0  0  0  0  0  0  0  0  0  0  0
   -6.5070  -41.2546  -41.1023 C   0  0  0  0  0  0  0  0  0  0  0  0
   -5.9508  -41.7455  -43.5106 C   0  0  0  0  0  0  0  0  0  0  0  0
   -5.0486  -38.8100  -41.0522 C   0  0  0  0  0  0  0  0  0  0  0  0
   -2.9637  -35.0440  -40.6246 C   0  0  0  0  0  0  0  0  0  0  0  0
   -3.7022  -35.3039  -41.7530 C   0  0  0  0  0  0  0  0  0  0  0  0
   -5.7253  -39.2586  -39.9139 C   0  0  0  0  0  0  0  0  0  0  0  0
   -7.6640  -36.9665  -36.7078 C   0  0  0  0  0  0  0  0  0  0  0  0
   -6.9937  -41.8805  -31.5722 C   0  0  2  0  0  0  0  0  0  0  0  0
   -8.3620  -40.1991  -38.4741 C   0  0  0  0  0  0  0  0  0  0  0  0
   -6.4279  -40.4804  -39.9520 C   0  0  0  0  0  0  0  0  0  0  0  0
   -5.8482  -40.8207  -42.2510 C   0  0  0  0  0  0  0  0  0  0  0  0
   -5.1216  -39.5875  -42.2241 C   0  0  0  0  0  0  0  0  0  0  0  0
   -4.2845  -37.4319  -40.9289 C   0  0  0  0  0  0  0  0  0  0  0  0
   -2.9130  -36.0455  -39.6440 C   0  0  0  0  0  0  0  0  0  0  0  0
   -5.9011  -42.2271  -32.5073 C   0  0  1  0  0  0  0  0  0  0  0  0
   -7.8281  -37.9217  -37.6717 C   0  0  0  0  0  0  0  0  0  0  0  0
   -7.7862  -37.3438  -35.3326 C   0  0  0  0  0  0  0  0  0  0  0  0
   -5.2907  -41.0033  -33.0495 C   0  0  1  0  0  0  0  0  0  0  0  0
   -8.2800  -39.6017  -35.9195 C   0  0  0  0  0  0  0  0  0  0  0  0
   -7.1152  -40.9055  -38.7439 N   0  0  0  0  0  0  0  0  0  0  0  0
   -4.3486  -36.4871  -41.8759 N   0  0  0  0  0  0  0  0  0  0  0  0
   -7.6182  -43.0734  -31.0727 O   0  0  0  0  0  0  0  0  0  0  0  0
   -4.9350  -42.9889  -31.6717 O   0  0  0  0  0  0  0  0  0  0  0  0
   -4.2213  -41.3563  -33.9864 O   0  0  0  0  0  0  0  0  0  0  0  0
  -10.2983  -41.4427  -31.3844 O   0  0  0  0  0  0  0  0  0  0  0  0
   -7.0523  -39.3298  -32.0676 H   0  0  0  0  0  0  0  0  0  0  0  0
   -6.8338  -40.8994  -34.6023 H   0  0  0  0  0  0  0  0  0  0  0  0
   -5.9757  -39.3539  -34.3269 H   0  0  0  0  0  0  0  0  0  0  0  0
   -8.5858  -41.5602  -33.1108 H   0  0  0  0  0  0  0  0  0  0  0  0
   -8.7877  -40.8658  -30.1884 H   0  0  0  0  0  0  0  0  0  0  0  0
   -9.4737  -39.6126  -31.2814 H   0  0  0  0  0  0  0  0  0  0  0  0
   -9.2867  -39.2515  -33.1814 H   0  0  0  0  0  0  0  0  0  0  0  0
   -7.9827  -37.9898  -32.8490 H   0  0  0  0  0  0  0  0  0  0  0  0
   -7.0796  -42.1939  -41.1065 H   0  0  0  0  0  0  0  0  0  0  0  0
   -6.0668  -42.7911  -43.1894 H   0  0  0  0  0  0  0  0  0  0  0  0
   -6.8215  -41.4485  -44.1136 H   0  0  0  0  0  0  0  0  0  0  0  0
   -5.0362  -41.6465  -44.1136 H   0  0  0  0  0  0  0  0  0  0  0  0
   -2.4335  -34.0890  -40.4951 H   0  0  0  0  0  0  0  0  0  0  0  0
   -3.7682  -34.5531  -42.5542 H   0  0  0  0  0  0  0  0  0  0  0  0
   -5.7095  -38.6599  -38.9912 H   0  0  0  0  0  0  0  0  0  0  0  0
   -7.4416  -35.9253  -36.9844 H   0  0  0  0  0  0  0  0  0  0  0  0
   -6.5480  -41.3027  -30.7491 H   0  0  0  0  0  0  0  0  0  0  0  0
   -9.1445  -40.9272  -38.2140 H   0  0  0  0  0  0  0  0  0  0  0  0
   -8.6600  -39.6362  -39.3710 H   0  0  0  0  0  0  0  0  0  0  0  0
   -4.6114  -39.2411  -43.1350 H   0  0  0  0  0  0  0  0  0  0  0  0
   -2.3356  -35.8904  -38.7206 H   0  0  0  0  0  0  0  0  0  0  0  0
   -6.2438  -42.8096  -33.3753 H   0  0  0  0  0  0  0  0  0  0  0  0
   -7.6925  -37.6670  -38.7331 H   0  0  0  0  0  0  0  0  0  0  0  0
   -7.6380  -36.5761  -34.5589 H   0  0  0  0  0  0  0  0  0  0  0  0
   -4.8736  -40.3905  -32.2368 H   0  0  0  0  0  0  0  0  0  0  0  0
   -8.5169  -40.6400  -35.6441 H   0  0  0  0  0  0  0  0  0  0  0  0
   -6.7508  -41.6462  -38.1279 H   0  0  0  0  0  0  0  0  0  0  0  0
   -7.6111  -43.0599  -30.0828 H   0  0  0  0  0  0  0  0  0  0  0  0
   -5.1325  -42.8332  -30.7141 H   0  0  0  0  0  0  0  0  0  0  0  0
   -3.4135  -41.6229  -33.4798 H   0  0  0  0  0  0  0  0  0  0  0  0
  -10.6749  -41.7056  -30.5074 H   0  0  0  0  0  0  0  0  0  0  0  0
  1  3  1  0
  1  4  1  0
  1  6  1  0
  2 21  2  0
  2 22  1  0
  3 26  1  0
  4  5  1  0
  4 16  1  0
  5 33  1  0
  6  7  1  0
  7 25  2  0
  7 27  1  0
  8 17  1  0
  8 24  1  0
  8 27  2  0
  9 18  2  0
  9 19  1  0
 10 19  1  0
 11 14  2  0
 11 20  1  0
 11 21  1  0
 12 13  1  0
 12 22  2  0
 13 29  2  0
 14 18  1  0
 15 24  2  0
 15 25  1  0
 16 23  1  0
 16 30  1  0
 17 28  1  0
 18 28  1  0
 19 20  2  0
 21 29  1  0
 23 26  1  0
 23 31  1  0
 26 32  1  0
  1 34  1  1
  3 35  1  0
  3 36  1  0
  4 37  1  6
  5 38  1  0
  5 39  1  0
  6 40  1  0
  6 41  1  0
  9 42  1  0
 10 43  1  0
 10 44  1  0
 10 45  1  0
 12 46  1  0
 13 47  1  0
 14 48  1  0
 15 49  1  0
 16 50  1  1
 17 51  1  0
 17 52  1  0
 20 53  1  0
 22 54  1  0
 23 55  1  6
 24 56  1  0
 25 57  1  0
 26 58  1  1
 27 59  1  0
 28 60  1  0
 30 61  1  0
 31 62  1  0
 32 63  1  0
 33 64  1  0
M  CHG  1   1   1
M  END
>  <filename_input>  (6) 
7R6J_2I7_docked.sdf

>  <pdb_id>  (6) 
7R6J_2I7

>  <pose_rank>  (6) 
5

>  <num_atoms_heavy>  (6) 
33

>  <num_torsions>  (6) 
7

>  <pose>  (6) 
[-8.083097118615845, -38.63471059939705, -34.9386522680371, -0.24981893305574743, -0.28595936625716273, -2.170466595702249, 2.578294670181292, -0.9504233029922374, 3.1986638913474628, -7.974108146318938, -0.19713622969577613, -5.224494622078375, 1.0220303280558427]

>  <energy>  (6) 
-840.2709156330055

>  <inter_energy>  (6) 
-859.9130167878689

>  <intra_energy>  (6) 
37.15853007494955

>  <rmsd>  (6) 
4.46391

>  <sdf_rank>  (6) 
0

$$$$

     RDKit          3D

 64 67  0  0  0  0  0  0  0  0999 V2000
   -7.3484  -40.0848  -32.8321 N   0  0  2  0  0  0  0  0  0  0  0  0
   -9.2596  -45.6774  -41.4424 N   0  0  0  0  0  0  0  0  0  0  0  0
   -6.0978  -40.5002  -33.5384 C   0  0  0  0  0  0  0  0  0  0  0  0
   -8.2011  -41.2623  -32.5987 C   0  0  2  0  0  0  0  0  0  0  0  0
   -9.5241  -40.9200  -31.7882 C   0  0  0  0  0  0  0  0  0  0  0  0
   -7.9019  -39.0569  -33.3786 C   0  0  0  0  0  0  0  0  0  0  0  0
   -8.7453  -39.3473  -34.7273 C   0  0  0  0  0  0  0  0  0  0  0  0
   -9.0428  -39.5172  -37.1370 C   0  0  0  0  0  0  0  0  0  0  0  0
   -7.8827  -40.6591  -41.1581 C   0  0  0  0  0  0  0  0  0  0  0  0
   -6.1103  -41.2415  -42.8522 C   0  0  0  0  0  0  0  0  0  0  0  0
   -9.1775  -43.1881  -41.3426 C   0  0  0  0  0  0  0  0  0  0  0  0
  -11.2354  -46.9919  -41.4328 C   0  0  0  0  0  0  0  0  0  0  0  0
  -11.9464  -45.8205  -41.3412 C   0  0  0  0  0  0  0  0  0  0  0  0
   -9.6619  -42.2018  -40.4782 C   0  0  0  0  0  0  0  0  0  0  0  0
  -10.8384  -40.1902  -35.7258 C   0  0  0  0  0  0  0  0  0  0  0  0
   -7.3973  -42.3088  -31.7500 C   0  0  2  0  0  0  0  0  0  0  0  0
   -8.5781  -39.3606  -38.5998 C   0  0  0  0  0  0  0  0  0  0  0  0
   -9.0183  -40.9490  -40.4129 C   0  0  0  0  0  0  0  0  0  0  0  0
   -7.3772  -41.6318  -42.0185 C   0  0  0  0  0  0  0  0  0  0  0  0
   -8.0268  -42.9048  -42.1035 C   0  0  0  0  0  0  0  0  0  0  0  0
   -9.9542  -44.5645  -41.3583 C   0  0  0  0  0  0  0  0  0  0  0  0
   -9.8372  -46.8936  -41.4839 C   0  0  0  0  0  0  0  0  0  0  0  0
   -6.1226  -42.6654  -32.4105 C   0  0  1  0  0  0  0  0  0  0  0  0
  -10.3412  -39.9866  -36.9828 C   0  0  0  0  0  0  0  0  0  0  0  0
  -10.0246  -39.8537  -34.5976 C   0  0  0  0  0  0  0  0  0  0  0  0
   -5.2988  -41.4622  -32.6052 C   0  0  1  0  0  0  0  0  0  0  0  0
   -8.2267  -39.1675  -36.0058 C   0  0  0  0  0  0  0  0  0  0  0  0
   -9.5589  -39.9554  -39.5002 N   0  0  0  0  0  0  0  0  0  0  0  0
  -11.2907  -44.6364  -41.3119 N   0  0  0  0  0  0  0  0  0  0  0  0
   -8.2208  -43.4752  -31.5955 O   0  0  0  0  0  0  0  0  0  0  0  0
   -5.4770  -43.6160  -31.4662 O   0  0  0  0  0  0  0  0  0  0  0  0
   -4.0463  -41.8223  -33.2742 O   0  0  0  0  0  0  0  0  0  0  0  0
   -9.2048  -40.2703  -30.6395 O   0  0  0  0  0  0  0  0  0  0  0  0
   -7.1290  -39.7276  -31.8913 H   0  0  0  0  0  0  0  0  0  0  0  0
   -6.3547  -41.0190  -34.4738 H   0  0  0  0  0  0  0  0  0  0  0  0
   -5.4890  -39.6161  -33.7787 H   0  0  0  0  0  0  0  0  0  0  0  0
   -8.4879  -41.6482  -33.5881 H   0  0  0  0  0  0  0  0  0  0  0  0
  -10.1729  -40.2783  -32.4025 H   0  0  0  0  0  0  0  0  0  0  0  0
  -10.0514  -41.8537  -31.5428 H   0  0  0  0  0  0  0  0  0  0  0  0
   -8.5859  -38.6101  -32.6421 H   0  0  0  0  0  0  0  0  0  0  0  0
   -7.0753  -38.3961  -33.6789 H   0  0  0  0  0  0  0  0  0  0  0  0
   -7.3910  -39.6790  -41.0707 H   0  0  0  0  0  0  0  0  0  0  0  0
   -5.2860  -40.9875  -42.1695 H   0  0  0  0  0  0  0  0  0  0  0  0
   -5.8131  -42.0897  -43.4864 H   0  0  0  0  0  0  0  0  0  0  0  0
   -6.3420  -40.3730  -43.4864 H   0  0  0  0  0  0  0  0  0  0  0  0
  -11.7420  -47.9678  -41.4649 H   0  0  0  0  0  0  0  0  0  0  0  0
  -13.0450  -45.8443  -41.2917 H   0  0  0  0  0  0  0  0  0  0  0  0
  -10.5429  -42.4026  -39.8508 H   0  0  0  0  0  0  0  0  0  0  0  0
  -11.8469  -40.6058  -35.5839 H   0  0  0  0  0  0  0  0  0  0  0  0
   -7.1475  -41.8783  -30.7691 H   0  0  0  0  0  0  0  0  0  0  0  0
   -8.4687  -38.2916  -38.8350 H   0  0  0  0  0  0  0  0  0  0  0  0
   -7.6124  -39.8713  -38.7289 H   0  0  0  0  0  0  0  0  0  0  0  0
   -7.6198  -43.6752  -42.7750 H   0  0  0  0  0  0  0  0  0  0  0  0
   -9.2187  -47.8003  -41.5569 H   0  0  0  0  0  0  0  0  0  0  0  0
   -6.2617  -43.1068  -33.4084 H   0  0  0  0  0  0  0  0  0  0  0  0
  -10.9645  -40.1927  -37.8654 H   0  0  0  0  0  0  0  0  0  0  0  0
  -10.4335  -40.0041  -33.5875 H   0  0  0  0  0  0  0  0  0  0  0  0
   -5.0709  -40.9928  -31.6368 H   0  0  0  0  0  0  0  0  0  0  0  0
   -7.2126  -38.7658  -36.1484 H   0  0  0  0  0  0  0  0  0  0  0  0
  -10.5548  -39.6926  -39.4902 H   0  0  0  0  0  0  0  0  0  0  0  0
   -8.3521  -43.6612  -30.6321 H   0  0  0  0  0  0  0  0  0  0  0  0
   -5.6667  -43.3366  -30.5356 H   0  0  0  0  0  0  0  0  0  0  0  0
   -3.3545  -42.0212  -32.5945 H   0  0  0  0  0  0  0  0  0  0  0  0
   -9.4755  -40.8211  -29.8627 H   0  0  0  0  0  0  0  0  0  0  0  0
  1  3  1  0
  1  4  1  0
  1  6  1  0
  2 21  2  0
  2 22  1  0
  3 26  1  0
  4  5  1  0
  4 16  1  0
  5 33  1  0
  6  7  1  0
  7 25  2  0
  7 27  1  0
  8 17  1  0
  8 24  1  0
  8 27  2  0
  9 18  2  0
  9 19  1  0
 10 19  1  0
 11 14  2  0
 11 20  1  0
 11 21  1  0
 12 13  1  0
 12 22  2  0
 13 29  2  0
 14 18  1  0
 15 24  2  0
 15 25  1  0
 16 23  1  0
 16 30  1  0
 17 28  1  0
 18 28  1  0
 19 20  2  0
 21 29  1  0
 23 26  1  0
 23 31  1  0
 26 32  1  0
  1 34  1  1
  3 35  1  0
  3 36  1  0
  4 37  1  6
  5 38  1  0
  5 39  1  0
  6 40  1  0
  6 41  1  0
  9 42  1  0
 10 43  1  0
 10 44  1  0
 10 45  1  0
 12 46  1  0
 13 47  1  0
 14 48  1  0
 15 49  1  0
 16 50  1  1
 17 51  1  0
 17 52  1  0
 20 53  1  0
 22 54  1  0
 23 55  1  6
 24 56  1  0
 25 57  1  0
 26 58  1  1
 27 59  1  0
 28 60  1  0
 30 61  1  0
 31 62  1  0
 32 63  1  0
 33 64  1  0
M  CHG  1   1   1
M  END
>  <filename_input>  (7) 
7R6J_2I7_docked.sdf

>  <pdb_id>  (7) 
7R6J_2I7

>  <pose_rank>  (7) 
6

>  <num_atoms_heavy>  (7) 
33

>  <num_torsions>  (7) 
7

>  <pose>  (7) 
[-8.745333134925875, -39.34728371377885, -34.72730620752594, 4.890445230891528, -3.669726207567248, 0.9982294493555158, -0.17491747882839587, 6.520856913784154, -0.09924605129164618, 15.369932593855559, 5.756857698236408, 1.978123969136096, -2.185999853134616]

>  <energy>  (7) 
-785.5006292827726

>  <inter_energy>  (7) 
-822.8579148915447

>  <intra_energy>  (7) 
43.82415569785482

>  <rmsd>  (7) 
6.66072

>  <sdf_rank>  (7) 
0

$$$$

     RDKit          3D

 64 67  0  0  0  0  0  0  0  0999 V2000
   -7.3786  -39.9871  -32.7079 N   0  0  2  0  0  0  0  0  0  0  0  0
  -10.9278  -34.3273  -42.8046 N   0  0  0  0  0  0  0  0  0  0  0  0
   -6.1823  -40.1920  -33.5809 C   0  0  0  0  0  0  0  0  0  0  0  0
   -8.0510  -41.2765  -32.4767 C   0  0  2  0  0  0  0  0  0  0  0  0
   -9.2974  -41.1602  -31.4983 C   0  0  0  0  0  0  0  0  0  0  0  0
   -8.1123  -39.0040  -33.1040 C   0  0  0  0  0  0  0  0  0  0  0  0
   -8.7685  -39.1647  -34.5731 C   0  0  0  0  0  0  0  0  0  0  0  0
   -8.7493  -39.0939  -37.0060 C   0  0  0  0  0  0  0  0  0  0  0  0
   -7.7866  -38.0503  -41.0374 C   0  0  0  0  0  0  0  0  0  0  0  0
   -7.1525  -38.8421  -43.3443 C   0  0  0  0  0  0  0  0  0  0  0  0
   -8.9790  -35.6397  -41.9718 C   0  0  0  0  0  0  0  0  0  0  0  0
  -10.9527  -31.9836  -43.1760 C   0  0  0  0  0  0  0  0  0  0  0  0
   -9.6513  -31.9576  -42.7381 C   0  0  0  0  0  0  0  0  0  0  0  0
   -8.9506  -35.9369  -40.6059 C   0  0  0  0  0  0  0  0  0  0  0  0
  -10.6966  -39.9213  -35.9141 C   0  0  0  0  0  0  0  0  0  0  0  0
   -7.0319  -42.2663  -31.8107 C   0  0  2  0  0  0  0  0  0  0  0  0
   -8.1036  -38.7869  -38.3731 C   0  0  0  0  0  0  0  0  0  0  0  0
   -8.3403  -37.1271  -40.1600 C   0  0  0  0  0  0  0  0  0  0  0  0
   -7.8133  -37.7784  -42.4039 C   0  0  0  0  0  0  0  0  0  0  0  0
   -8.4200  -36.5685  -42.8707 C   0  0  0  0  0  0  0  0  0  0  0  0
   -9.6806  -34.2869  -42.3912 C   0  0  0  0  0  0  0  0  0  0  0  0
  -11.5981  -33.2286  -43.2020 C   0  0  0  0  0  0  0  0  0  0  0  0
   -5.8132  -42.4129  -32.6363 C   0  0  1  0  0  0  0  0  0  0  0  0
  -10.0463  -39.5879  -37.0693 C   0  0  0  0  0  0  0  0  0  0  0  0
  -10.0424  -39.6928  -34.6618 C   0  0  0  0  0  0  0  0  0  0  0  0
   -5.1677  -41.1043  -32.8239 C   0  0  1  0  0  0  0  0  0  0  0  0
   -8.0935  -38.8526  -35.7491 C   0  0  0  0  0  0  0  0  0  0  0  0
   -8.3348  -37.3923  -38.7309 N   0  0  0  0  0  0  0  0  0  0  0  0
   -9.0451  -33.1083  -42.3621 N   0  0  0  0  0  0  0  0  0  0  0  0
   -7.6864  -43.5358  -31.6601 O   0  0  0  0  0  0  0  0  0  0  0  0
   -4.9499  -43.3342  -31.8503 O   0  0  0  0  0  0  0  0  0  0  0  0
   -3.9716  -41.2567  -33.6557 O   0  0  0  0  0  0  0  0  0  0  0  0
   -9.9039  -39.9571  -31.6667 O   0  0  0  0  0  0  0  0  0  0  0  0
   -7.0909  -39.6683  -31.7717 H   0  0  0  0  0  0  0  0  0  0  0  0
   -6.4871  -40.6759  -34.5206 H   0  0  0  0  0  0  0  0  0  0  0  0
   -5.7163  -39.2235  -33.8154 H   0  0  0  0  0  0  0  0  0  0  0  0
   -8.4076  -41.6291  -33.4557 H   0  0  0  0  0  0  0  0  0  0  0  0
  -10.0136  -41.9646  -31.7220 H   0  0  0  0  0  0  0  0  0  0  0  0
   -8.9520  -41.2501  -30.4578 H   0  0  0  0  0  0  0  0  0  0  0  0
   -8.9311  -38.8805  -32.3800 H   0  0  0  0  0  0  0  0  0  0  0  0
   -7.4396  -38.1361  -33.1699 H   0  0  0  0  0  0  0  0  0  0  0  0
   -7.3349  -38.9797  -40.6604 H   0  0  0  0  0  0  0  0  0  0  0  0
   -6.6692  -39.6201  -42.7352 H   0  0  0  0  0  0  0  0  0  0  0  0
   -7.9250  -39.3006  -43.9791 H   0  0  0  0  0  0  0  0  0  0  0  0
   -6.3992  -38.3527  -43.9791 H   0  0  0  0  0  0  0  0  0  0  0  0
  -11.4680  -31.0652  -43.4936 H   0  0  0  0  0  0  0  0  0  0  0  0
   -9.1032  -31.0049  -42.6929 H   0  0  0  0  0  0  0  0  0  0  0  0
   -9.4032  -35.2440  -39.8812 H   0  0  0  0  0  0  0  0  0  0  0  0
  -11.7057  -40.3578  -35.9464 H   0  0  0  0  0  0  0  0  0  0  0  0
   -6.7182  -41.8737  -30.8323 H   0  0  0  0  0  0  0  0  0  0  0  0
   -7.0212  -38.9737  -38.3150 H   0  0  0  0  0  0  0  0  0  0  0  0
   -8.5532  -39.4359  -39.1390 H   0  0  0  0  0  0  0  0  0  0  0  0
   -8.4499  -36.3608  -43.9505 H   0  0  0  0  0  0  0  0  0  0  0  0
  -12.6409  -33.3069  -43.5433 H   0  0  0  0  0  0  0  0  0  0  0  0
   -6.0187  -42.8010  -33.6449 H   0  0  0  0  0  0  0  0  0  0  0  0
  -10.5461  -39.7097  -38.0416 H   0  0  0  0  0  0  0  0  0  0  0  0
  -10.5746  -39.9476  -33.7334 H   0  0  0  0  0  0  0  0  0  0  0  0
   -4.8817  -40.6752  -31.8523 H   0  0  0  0  0  0  0  0  0  0  0  0
   -7.0785  -38.4297  -35.7181 H   0  0  0  0  0  0  0  0  0  0  0  0
   -8.4822  -36.6545  -38.0275 H   0  0  0  0  0  0  0  0  0  0  0  0
   -7.7919  -43.7404  -30.6972 H   0  0  0  0  0  0  0  0  0  0  0  0
   -5.0957  -43.1786  -30.8835 H   0  0  0  0  0  0  0  0  0  0  0  0
   -3.1764  -41.3580  -33.0748 H   0  0  0  0  0  0  0  0  0  0  0  0
  -10.1034  -39.5613  -30.7815 H   0  0  0  0  0  0  0  0  0  0  0  0
  1  3  1  0
  1  4  1  0
  1  6  1  0
  2 21  2  0
  2 22  1  0
  3 26  1  0
  4  5  1  0
  4 16  1  0
  5 33  1  0
  6  7  1  0
  7 25  2  0
  7 27  1  0
  8 17  1  0
  8 24  1  0
  8 27  2  0
  9 18  2  0
  9 19  1  0
 10 19  1  0
 11 14  2  0
 11 20  1  0
 11 21  1  0
 12 13  1  0
 12 22  2  0
 13 29  2  0
 14 18  1  0
 15 24  2  0
 15 25  1  0
 16 23  1  0
 16 30  1  0
 17 28  1  0
 18 28  1  0
 19 20  2  0
 21 29  1  0
 23 26  1  0
 23 31  1  0
 26 32  1  0
  1 34  1  1
  3 35  1  0
  3 36  1  0
  4 37  1  6
  5 38  1  0
  5 39  1  0
  6 40  1  0
  6 41  1  0
  9 42  1  0
 10 43  1  0
 10 44  1  0
 10 45  1  0
 12 46  1  0
 13 47  1  0
 14 48  1  0
 15 49  1  0
 16 50  1  1
 17 51  1  0
 17 52  1  0
 20 53  1  0
 22 54  1  0
 23 55  1  6
 24 56  1  0
 25 57  1  0
 26 58  1  1
 27 59  1  0
 28 60  1  0
 30 61  1  0
 31 62  1  0
 32 63  1  0
 33 64  1  0
M  CHG  1   1   1
M  END
>  <filename_input>  (8) 
7R6J_2I7_docked.sdf

>  <pdb_id>  (8) 
7R6J_2I7

>  <pose_rank>  (8) 
7

>  <num_atoms_heavy>  (8) 
33

>  <num_torsions>  (8) 
7

>  <pose>  (8) 
[-8.768459822123129, -39.16468429415877, -34.573121024938516, -2.303491404048925, 5.755344905670612, 0.05310555399760257, -6.221361183100703, -0.03328883870498321, 1.4127048431236346, -1.7054767910914816, -1.0129772909507169, 2.536208290748103, -1.4394254422961916]

>  <energy>  (8) 
-719.8975587404377

>  <inter_energy>  (8) 
-788.3861062990837

>  <intra_energy>  (8) 
71.19148413296281

>  <rmsd>  (8) 
3.22447

>  <sdf_rank>  (8) 
0

$$$$

     RDKit          3D

 64 67  0  0  0  0  0  0  0  0999 V2000
   -8.6995  -41.4614  -33.5284 N   0  0  2  0  0  0  0  0  0  0  0  0
   -5.4271  -32.1027  -39.9102 N   0  0  0  0  0  0  0  0  0  0  0  0
   -8.2991  -42.7321  -34.2068 C   0  0  0  0  0  0  0  0  0  0  0  0
   -8.6447  -41.6398  -32.0678 C   0  0  2  0  0  0  0  0  0  0  0  0
   -8.9895  -40.3117  -31.2667 C   0  0  0  0  0  0  0  0  0  0  0  0
   -9.7821  -40.9631  -34.0198 C   0  0  0  0  0  0  0  0  0  0  0  0
   -9.6422  -40.2818  -35.4796 C   0  0  0  0  0  0  0  0  0  0  0  0
   -8.9169  -38.5583  -37.0376 C   0  0  0  0  0  0  0  0  0  0  0  0
   -9.3700  -33.7294  -36.8894 C   0  0  0  0  0  0  0  0  0  0  0  0
   -9.5867  -31.2768  -36.3522 C   0  0  0  0  0  0  0  0  0  0  0  0
   -7.0803  -33.3726  -38.5434 C   0  0  0  0  0  0  0  0  0  0  0  0
   -3.6031  -33.0501  -41.0963 C   0  0  0  0  0  0  0  0  0  0  0  0
   -4.0004  -34.2741  -40.6166 C   0  0  0  0  0  0  0  0  0  0  0  0
   -7.6166  -34.6469  -38.3354 C   0  0  0  0  0  0  0  0  0  0  0  0
   -9.9669  -40.5065  -37.9152 C   0  0  0  0  0  0  0  0  0  0  0  0
   -7.1875  -42.0579  -31.6635 C   0  0  2  0  0  0  0  0  0  0  0  0
   -8.2767  -37.2007  -37.3944 C   0  0  0  0  0  0  0  0  0  0  0  0
   -8.7614  -34.8025  -37.5272 C   0  0  0  0  0  0  0  0  0  0  0  0
   -8.8455  -32.4518  -37.0750 C   0  0  0  0  0  0  0  0  0  0  0  0
   -7.6899  -32.2771  -37.9018 C   0  0  0  0  0  0  0  0  0  0  0  0
   -5.7972  -33.2817  -39.4619 C   0  0  0  0  0  0  0  0  0  0  0  0
   -4.3607  -31.9329  -40.7152 C   0  0  0  0  0  0  0  0  0  0  0  0
   -6.7601  -43.2734  -32.3903 C   0  0  1  0  0  0  0  0  0  0  0  0
   -9.4081  -39.2761  -38.1209 C   0  0  0  0  0  0  0  0  0  0  0  0
  -10.0869  -40.9962  -36.5757 C   0  0  0  0  0  0  0  0  0  0  0  0
   -6.8137  -43.0409  -33.8420 C   0  0  1  0  0  0  0  0  0  0  0  0
   -9.0460  -39.0423  -35.6896 C   0  0  0  0  0  0  0  0  0  0  0  0
   -9.2827  -36.1464  -37.3410 N   0  0  0  0  0  0  0  0  0  0  0  0
   -5.0893  -34.3618  -39.8168 N   0  0  0  0  0  0  0  0  0  0  0  0
   -7.1752  -42.2951  -30.2471 O   0  0  0  0  0  0  0  0  0  0  0  0
   -5.3641  -43.5004  -31.9301 O   0  0  0  0  0  0  0  0  0  0  0  0
   -6.4046  -44.2544  -34.5534 O   0  0  0  0  0  0  0  0  0  0  0  0
   -7.9948  -39.4026  -31.4331 O   0  0  0  0  0  0  0  0  0  0  0  0
   -8.0175  -40.7159  -33.7286 H   0  0  0  0  0  0  0  0  0  0  0  0
   -8.9441  -43.5548  -33.8643 H   0  0  0  0  0  0  0  0  0  0  0  0
   -8.4059  -42.6276  -35.2966 H   0  0  0  0  0  0  0  0  0  0  0  0
   -9.3924  -42.4053  -31.8128 H   0  0  0  0  0  0  0  0  0  0  0  0
   -9.9340  -39.8926  -31.6438 H   0  0  0  0  0  0  0  0  0  0  0  0
   -9.0898  -40.5485  -30.1972 H   0  0  0  0  0  0  0  0  0  0  0  0
  -10.5229  -41.7728  -34.0946 H   0  0  0  0  0  0  0  0  0  0  0  0
  -10.0747  -40.1515  -33.3374 H   0  0  0  0  0  0  0  0  0  0  0  0
  -10.2507  -33.8852  -36.2489 H   0  0  0  0  0  0  0  0  0  0  0  0
   -9.5048  -31.4066  -35.2630 H   0  0  0  0  0  0  0  0  0  0  0  0
   -9.1283  -30.3201  -36.6430 H   0  0  0  0  0  0  0  0  0  0  0  0
  -10.6476  -31.2785  -36.6430 H   0  0  0  0  0  0  0  0  0  0  0  0
   -2.7263  -32.9500  -41.7529 H   0  0  0  0  0  0  0  0  0  0  0  0
   -3.4357  -35.1802  -40.8812 H   0  0  0  0  0  0  0  0  0  0  0  0
   -7.1466  -35.5257  -38.8010 H   0  0  0  0  0  0  0  0  0  0  0  0
  -10.3185  -41.1102  -38.7649 H   0  0  0  0  0  0  0  0  0  0  0  0
   -6.4838  -41.2549  -31.9280 H   0  0  0  0  0  0  0  0  0  0  0  0
   -7.4747  -36.9759  -36.6759 H   0  0  0  0  0  0  0  0  0  0  0  0
   -7.8616  -37.2531  -38.4118 H   0  0  0  0  0  0  0  0  0  0  0  0
   -7.2706  -31.2693  -38.0384 H   0  0  0  0  0  0  0  0  0  0  0  0
   -4.0867  -30.9284  -41.0701 H   0  0  0  0  0  0  0  0  0  0  0  0
   -7.4048  -44.1429  -32.1948 H   0  0  0  0  0  0  0  0  0  0  0  0
   -9.3479  -38.8576  -39.1363 H   0  0  0  0  0  0  0  0  0  0  0  0
  -10.5513  -41.9799  -36.4123 H   0  0  0  0  0  0  0  0  0  0  0  0
   -6.1458  -42.2132  -34.1226 H   0  0  0  0  0  0  0  0  0  0  0  0
   -8.6808  -38.4445  -34.8415 H   0  0  0  0  0  0  0  0  0  0  0  0
  -10.2823  -36.3386  -37.1840 H   0  0  0  0  0  0  0  0  0  0  0  0
   -7.2202  -41.4303  -29.7673 H   0  0  0  0  0  0  0  0  0  0  0  0
   -5.3395  -43.5044  -30.9404 H   0  0  0  0  0  0  0  0  0  0  0  0
   -6.1677  -44.9573  -33.8977 H   0  0  0  0  0  0  0  0  0  0  0  0
   -7.6686  -39.1045  -30.5472 H   0  0  0  0  0  0  0  0  0  0  0  0
  1  3  1  0
  1  4  1  0
  1  6  1  0
  2 21  2  0
  2 22  1  0
  3 26  1  0
  4  5  1  0
  4 16  1  0
  5 33  1  0
  6  7  1  0
  7 25  2  0
  7 27  1  0
  8 17  1  0
  8 24  1  0
  8 27  2  0
  9 18  2  0
  9 19  1  0
 10 19  1  0
 11 14  2  0
 11 20  1  0
 11 21  1  0
 12 13  1  0
 12 22  2  0
 13 29  2  0
 14 18  1  0
 15 24  2  0
 15 25  1  0
 16 23  1  0
 16 30  1  0
 17 28  1  0
 18 28  1  0
 19 20  2  0
 21 29  1  0
 23 26  1  0
 23 31  1  0
 26 32  1  0
  1 34  1  1
  3 35  1  0
  3 36  1  0
  4 37  1  1
  5 38  1  0
  5 39  1  0
  6 40  1  0
  6 41  1  0
  9 42  1  0
 10 43  1  0
 10 44  1  0
 10 45  1  0
 12 46  1  0
 13 47  1  0
 14 48  1  0
 15 49  1  0
 16 50  1  1
 17 51  1  0
 17 52  1  0
 20 53  1  0
 22 54  1  0
 23 55  1  6
 24 56  1  0
 25 57  1  0
 26 58  1  1
 27 59  1  0
 28 60  1  0
 30 61  1  0
 31 62  1  0
 32 63  1  0
 33 64  1  0
M  CHG  1   1   1
M  END
>  <filename_input>  (9) 
7R6J_2I7_docked.sdf

>  <pdb_id>  (9) 
7R6J_2I7

>  <pose_rank>  (9) 
8

>  <num_atoms_heavy>  (9) 
33

>  <num_torsions>  (9) 
7

>  <pose>  (9) 
[-9.642188479358563, -40.281778019079994, -35.47955940803356, -3.10222511101718, 3.0111931351275545, -2.790563623241857, 31.63017291015865, 29.01312775718733, -0.37573226087162087, -64.56390883397454, 36.11694867694466, 81.93706379129505, 9.44562205598867]

>  <energy>  (9) 
-819.582049926033

>  <inter_energy>  (9) 
-803.8683834606953

>  <intra_energy>  (9) 
5.017030203948637

>  <rmsd>  (9) 
3.67594

>  <sdf_rank>  (9) 
0

$$$$

     RDKit          3D

 64 67  0  0  0  0  0  0  0  0999 V2000
   -7.2532  -39.8510  -32.6955 N   0  0  2  0  0  0  0  0  0  0  0  0
   -6.5693  -36.9978  -43.8890 N   0  0  0  0  0  0  0  0  0  0  0  0
   -6.1906  -40.3690  -33.6109 C   0  0  0  0  0  0  0  0  0  0  0  0
   -8.0676  -40.9715  -32.1961 C   0  0  2  0  0  0  0  0  0  0  0  0
   -9.1809  -40.5156  -31.1582 C   0  0  0  0  0  0  0  0  0  0  0  0
   -7.8828  -38.8434  -33.1955 C   0  0  0  0  0  0  0  0  0  0  0  0
   -8.6353  -39.1127  -34.6012 C   0  0  0  0  0  0  0  0  0  0  0  0
   -8.7680  -39.2638  -37.0268 C   0  0  0  0  0  0  0  0  0  0  0  0
   -5.1925  -38.5649  -39.1666 C   0  0  0  0  0  0  0  0  0  0  0  0
   -2.8485  -39.3540  -39.6498 C   0  0  0  0  0  0  0  0  0  0  0  0
   -5.4724  -37.2229  -41.6619 C   0  0  0  0  0  0  0  0  0  0  0  0
   -6.2042  -35.2323  -45.4321 C   0  0  0  0  0  0  0  0  0  0  0  0
   -5.3362  -34.6882  -44.5174 C   0  0  0  0  0  0  0  0  0  0  0  0
   -6.5170  -37.2230  -40.7326 C   0  0  0  0  0  0  0  0  0  0  0  0
  -10.6669  -39.9168  -35.7476 C   0  0  0  0  0  0  0  0  0  0  0  0
   -7.1302  -41.9861  -31.4520 C   0  0  2  0  0  0  0  0  0  0  0  0
   -8.2010  -39.1060  -38.4529 C   0  0  0  0  0  0  0  0  0  0  0  0
   -6.3542  -37.8780  -39.4948 C   0  0  0  0  0  0  0  0  0  0  0  0
   -4.1428  -38.5859  -40.0828 C   0  0  0  0  0  0  0  0  0  0  0  0
   -4.2897  -37.9159  -41.3394 C   0  0  0  0  0  0  0  0  0  0  0  0
   -5.7329  -36.4666  -43.0252 C   0  0  0  0  0  0  0  0  0  0  0  0
   -6.8355  -36.4353  -45.0836 C   0  0  0  0  0  0  0  0  0  0  0  0
   -6.0329  -42.4431  -32.3325 C   0  0  1  0  0  0  0  0  0  0  0  0
  -10.0810  -39.7136  -36.9658 C   0  0  0  0  0  0  0  0  0  0  0  0
   -9.9280  -39.5997  -34.5636 C   0  0  0  0  0  0  0  0  0  0  0  0
   -5.2379  -41.2930  -32.7902 C   0  0  1  0  0  0  0  0  0  0  0  0
   -8.0268  -38.9335  -35.8396 C   0  0  0  0  0  0  0  0  0  0  0  0
   -7.4676  -37.8502  -38.5610 N   0  0  0  0  0  0  0  0  0  0  0  0
   -5.1170  -35.3198  -43.3401 N   0  0  0  0  0  0  0  0  0  0  0  0
   -7.9324  -43.1025  -31.0365 O   0  0  0  0  0  0  0  0  0  0  0  0
   -5.2275  -43.3484  -31.4700 O   0  0  0  0  0  0  0  0  0  0  0  0
   -4.1642  -41.7533  -33.6741 O   0  0  0  0  0  0  0  0  0  0  0  0
  -10.4142  -40.7051  -31.6936 O   0  0  0  0  0  0  0  0  0  0  0  0
   -6.8313  -39.4356  -31.8527 H   0  0  0  0  0  0  0  0  0  0  0  0
   -6.6521  -40.9435  -34.4276 H   0  0  0  0  0  0  0  0  0  0  0  0
   -5.6236  -39.5312  -34.0427 H   0  0  0  0  0  0  0  0  0  0  0  0
   -8.5662  -41.4162  -33.0699 H   0  0  0  0  0  0  0  0  0  0  0  0
   -9.0872  -41.1103  -30.2375 H   0  0  0  0  0  0  0  0  0  0  0  0
   -9.0458  -39.4490  -30.9259 H   0  0  0  0  0  0  0  0  0  0  0  0
   -8.6385  -38.5206  -32.4643 H   0  0  0  0  0  0  0  0  0  0  0  0
   -7.1142  -38.0856  -33.4078 H   0  0  0  0  0  0  0  0  0  0  0  0
   -5.1027  -39.0832  -38.2005 H   0  0  0  0  0  0  0  0  0  0  0  0
   -2.7921  -39.3875  -38.5517 H   0  0  0  0  0  0  0  0  0  0  0  0
   -2.8805  -40.3794  -40.0467 H   0  0  0  0  0  0  0  0  0  0  0  0
   -1.9638  -38.8346  -40.0467 H   0  0  0  0  0  0  0  0  0  0  0  0
   -6.3965  -34.7444  -46.3991 H   0  0  0  0  0  0  0  0  0  0  0  0
   -4.8208  -33.7424  -44.7406 H   0  0  0  0  0  0  0  0  0  0  0  0
   -7.4634  -36.7134  -40.9666 H   0  0  0  0  0  0  0  0  0  0  0  0
  -11.6891  -40.3173  -35.6785 H   0  0  0  0  0  0  0  0  0  0  0  0
   -6.6683  -41.4959  -30.5823 H   0  0  0  0  0  0  0  0  0  0  0  0
   -7.5225  -39.9441  -38.6701 H   0  0  0  0  0  0  0  0  0  0  0  0
   -9.0318  -39.1026  -39.1739 H   0  0  0  0  0  0  0  0  0  0  0  0
   -3.4641  -37.9429  -42.0658 H   0  0  0  0  0  0  0  0  0  0  0  0
   -7.5407  -36.9145  -45.7787 H   0  0  0  0  0  0  0  0  0  0  0  0
   -6.3904  -42.9500  -33.2409 H   0  0  0  0  0  0  0  0  0  0  0  0
  -10.6449  -39.9048  -37.8908 H   0  0  0  0  0  0  0  0  0  0  0  0
  -10.4080  -39.7495  -33.5853 H   0  0  0  0  0  0  0  0  0  0  0  0
   -4.7992  -40.7641  -31.9313 H   0  0  0  0  0  0  0  0  0  0  0  0
   -6.9993  -38.5470  -35.9091 H   0  0  0  0  0  0  0  0  0  0  0  0
   -7.7184  -37.0109  -38.0191 H   0  0  0  0  0  0  0  0  0  0  0  0
   -7.9592  -43.1397  -30.0476 H   0  0  0  0  0  0  0  0  0  0  0  0
   -5.4086  -43.1449  -30.5182 H   0  0  0  0  0  0  0  0  0  0  0  0
   -3.4047  -42.0789  -33.1288 H   0  0  0  0  0  0  0  0  0  0  0  0
  -11.0777  -40.8070  -30.9659 H   0  0  0  0  0  0  0  0  0  0  0  0
  1  3  1  0
  1  4  1  0
  1  6  1  0
  2 21  2  0
  2 22  1  0
  3 26  1  0
  4  5  1  0
  4 16  1  0
  5 33  1  0
  6  7  1  0
  7 25  2  0
  7 27  1  0
  8 17  1  0
  8 24  1  0
  8 27  2  0
  9 18  2  0
  9 19  1  0
 10 19  1  0
 11 14  2  0
 11 20  1  0
 11 21  1  0
 12 13  1  0
 12 22  2  0
 13 29  2  0
 14 18  1  0
 15 24  2  0
 15 25  1  0
 16 23  1  0
 16 30  1  0
 17 28  1  0
 18 28  1  0
 19 20  2  0
 21 29  1  0
 23 26  1  0
 23 31  1  0
 26 32  1  0
  1 34  1  1
  3 35  1  0
  3 36  1  0
  4 37  1  6
  5 38  1  0
  5 39  1  0
  6 40  1  0
  6 41  1  0
  9 42  1  0
 10 43  1  0
 10 44  1  0
 10 45  1  0
 12 46  1  0
 13 47  1  0
 14 48  1  0
 15 49  1  0
 16 50  1  1
 17 51  1  0
 17 52  1  0
 20 53  1  0
 22 54  1  0
 23 55  1  6
 24 56  1  0
 25 57  1  0
 26 58  1  1
 27 59  1  0
 28 60  1  0
 30 61  1  0
 31 62  1  0
 32 63  1  0
 33 64  1  0
M  CHG  1   1   1
M  END
>  <filename_input>  (10) 
7R6J_2I7_docked.sdf

>  <pdb_id>  (10) 
7R6J_2I7

>  <pose_rank>  (10) 
9

>  <num_atoms_heavy>  (10) 
33

>  <num_torsions>  (10) 
7

>  <pose>  (10) 
[-8.635300216916107, -39.11268189913557, -34.60120858819967, -5.5057477652667135, -1.4498315662719774, -2.8231280438033672, -0.04145233252147923, -0.08789179080721798, 2.8088869749950094, -7.228666635569161, 4.261429539504368, 1.5687931911554878, -0.9758152939971358]

>  <energy>  (10) 
-859.8390581134106

>  <inter_energy>  (10) 
-873.8882449220092

>  <intra_energy>  (10) 
25.8654236255577

>  <rmsd>  (10) 
3.954

>  <sdf_rank>  (10) 
0

$$$$

     RDKit          3D

 64 67  0  0  0  0  0  0  0  0999 V2000
   -7.2365  -39.8426  -32.8989 N   0  0  2  0  0  0  0  0  0  0  0  0
   -4.5250  -40.7689  -44.1510 N   0  0  0  0  0  0  0  0  0  0  0  0
   -6.1329  -40.2535  -33.8201 C   0  0  0  0  0  0  0  0  0  0  0  0
   -7.9000  -41.0390  -32.3544 C   0  0  2  0  0  0  0  0  0  0  0  0
   -9.0444  -40.6923  -31.3082 C   0  0  0  0  0  0  0  0  0  0  0  0
   -7.9922  -38.9340  -33.4137 C   0  0  0  0  0  0  0  0  0  0  0  0
   -8.6884  -39.3148  -34.8226 C   0  0  0  0  0  0  0  0  0  0  0  0
   -8.7962  -39.4607  -37.2498 C   0  0  0  0  0  0  0  0  0  0  0  0
   -8.2029  -41.7230  -40.5916 C   0  0  0  0  0  0  0  0  0  0  0  0
   -9.3023  -43.4061  -42.1111 C   0  0  0  0  0  0  0  0  0  0  0  0
   -6.4961  -40.6978  -42.6267 C   0  0  0  0  0  0  0  0  0  0  0  0
   -3.7661  -38.9745  -45.5059 C   0  0  0  0  0  0  0  0  0  0  0  0
   -4.8158  -38.2361  -45.0170 C   0  0  0  0  0  0  0  0  0  0  0  0
   -6.4495  -40.1776  -41.3298 C   0  0  0  0  0  0  0  0  0  0  0  0
  -10.5510  -40.4474  -35.9786 C   0  0  0  0  0  0  0  0  0  0  0  0
   -6.8342  -41.9100  -31.6013 C   0  0  2  0  0  0  0  0  0  0  0  0
   -8.2672  -39.1915  -38.6738 C   0  0  0  0  0  0  0  0  0  0  0  0
   -7.2898  -40.7096  -40.3304 C   0  0  0  0  0  0  0  0  0  0  0  0
   -8.2728  -42.2488  -41.8802 C   0  0  0  0  0  0  0  0  0  0  0  0
   -7.4179  -41.7261  -42.9027 C   0  0  0  0  0  0  0  0  0  0  0  0
   -5.5228  -40.0483  -43.6893 C   0  0  0  0  0  0  0  0  0  0  0  0
   -3.6342  -40.2913  -45.0414 C   0  0  0  0  0  0  0  0  0  0  0  0
   -5.7030  -42.2552  -32.4899 C   0  0  1  0  0  0  0  0  0  0  0  0
  -10.0110  -40.1325  -37.1943 C   0  0  0  0  0  0  0  0  0  0  0  0
   -9.8768  -40.0195  -34.7909 C   0  0  0  0  0  0  0  0  0  0  0  0
   -5.0618  -41.0306  -32.9932 C   0  0  1  0  0  0  0  0  0  0  0  0
   -8.1220  -39.0194  -36.0587 C   0  0  0  0  0  0  0  0  0  0  0  0
   -7.2050  -40.1368  -38.9973 N   0  0  0  0  0  0  0  0  0  0  0  0
   -5.6645  -38.7873  -44.1176 N   0  0  0  0  0  0  0  0  0  0  0  0
   -7.4874  -43.1033  -31.1410 O   0  0  0  0  0  0  0  0  0  0  0  0
   -4.7797  -43.0305  -31.6189 O   0  0  0  0  0  0  0  0  0  0  0  0
   -3.9537  -41.3820  -33.8846 O   0  0  0  0  0  0  0  0  0  0  0  0
  -10.2325  -40.5618  -31.9523 O   0  0  0  0  0  0  0  0  0  0  0  0
   -6.8555  -39.3547  -32.0756 H   0  0  0  0  0  0  0  0  0  0  0  0
   -6.5333  -40.9033  -34.6123 H   0  0  0  0  0  0  0  0  0  0  0  0
   -5.6793  -39.3657  -34.2848 H   0  0  0  0  0  0  0  0  0  0  0  0
   -8.3540  -41.5661  -33.2064 H   0  0  0  0  0  0  0  0  0  0  0  0
   -9.1181  -41.5011  -30.5663 H   0  0  0  0  0  0  0  0  0  0  0  0
   -8.7997  -39.7466  -30.8025 H   0  0  0  0  0  0  0  0  0  0  0  0
   -8.7913  -38.7103  -32.6916 H   0  0  0  0  0  0  0  0  0  0  0  0
   -7.3315  -38.0808  -33.6273 H   0  0  0  0  0  0  0  0  0  0  0  0
   -8.8593  -42.1038  -39.7953 H   0  0  0  0  0  0  0  0  0  0  0  0
   -9.6449  -43.7913  -41.1394 H   0  0  0  0  0  0  0  0  0  0  0  0
  -10.1636  -43.0230  -42.6780 H   0  0  0  0  0  0  0  0  0  0  0  0
   -8.8214  -44.2169  -42.6780 H   0  0  0  0  0  0  0  0  0  0  0  0
   -3.0575  -38.5503  -46.2325 H   0  0  0  0  0  0  0  0  0  0  0  0
   -4.9665  -37.2002  -45.3550 H   0  0  0  0  0  0  0  0  0  0  0  0
   -5.7590  -39.3556  -41.0898 H   0  0  0  0  0  0  0  0  0  0  0  0
  -11.4879  -41.0202  -35.9143 H   0  0  0  0  0  0  0  0  0  0  0  0
   -6.4222  -41.3423  -30.7539 H   0  0  0  0  0  0  0  0  0  0  0  0
   -9.0892  -39.3060  -39.3957 H   0  0  0  0  0  0  0  0  0  0  0  0
   -7.8676  -38.1679  -38.7234 H   0  0  0  0  0  0  0  0  0  0  0  0
   -7.4823  -42.1348  -43.9219 H   0  0  0  0  0  0  0  0  0  0  0  0
   -2.8118  -40.9275  -45.4005 H   0  0  0  0  0  0  0  0  0  0  0  0
   -6.0100  -42.8278  -33.3775 H   0  0  0  0  0  0  0  0  0  0  0  0
  -10.5343  -40.4089  -38.1215 H   0  0  0  0  0  0  0  0  0  0  0  0
  -10.3221  -40.2609  -33.8145 H   0  0  0  0  0  0  0  0  0  0  0  0
   -4.6777  -40.4276  -32.1572 H   0  0  0  0  0  0  0  0  0  0  0  0
   -7.1774  -38.4595  -36.1235 H   0  0  0  0  0  0  0  0  0  0  0  0
   -6.4549  -40.3792  -38.3343 H   0  0  0  0  0  0  0  0  0  0  0  0
   -7.4938  -43.1150  -30.1511 H   0  0  0  0  0  0  0  0  0  0  0  0
   -4.9935  -42.8510  -30.6691 H   0  0  0  0  0  0  0  0  0  0  0  0
   -3.1627  -41.6329  -33.3447 H   0  0  0  0  0  0  0  0  0  0  0  0
  -10.9614  -40.4818  -31.2872 H   0  0  0  0  0  0  0  0  0  0  0  0
  1  3  1  0
  1  4  1  0
  1  6  1  0
  2 21  2  0
  2 22  1  0
  3 26  1  0
  4  5  1  0
  4 16  1  0
  5 33  1  0
  6  7  1  0
  7 25  2  0
  7 27  1  0
  8 17  1  0
  8 24  1  0
  8 27  2  0
  9 18  2  0
  9 19  1  0
 10 19  1  0
 11 14  2  0
 11 20  1  0
 11 21  1  0
 12 13  1  0
 12 22  2  0
 13 29  2  0
 14 18  1  0
 15 24  2  0
 15 25  1  0
 16 23  1  0
 16 30  1  0
 17 28  1  0
 18 28  1  0
 19 20  2  0
 21 29  1  0
 23 26  1  0
 23 31  1  0
 26 32  1  0
  1 34  1  1
  3 35  1  0
  3 36  1  0
  4 37  1  6
  5 38  1  0
  5 39  1  0
  6 40  1  0
  6 41  1  0
  9 42  1  0
 10 43  1  0
 10 44  1  0
 10 45  1  0
 12 46  1  0
 13 47  1  0
 14 48  1  0
 15 49  1  0
 16 50  1  1
 17 51  1  0
 17 52  1  0
 20 53  1  0
 22 54  1  0
 23 55  1  6
 24 56  1  0
 25 57  1  0
 26 58  1  1
 27 59  1  0
 28 60  1  0
 30 61  1  0
 31 62  1  0
 32 63  1  0
 33 64  1  0
M  CHG  1   1   1
M  END
>  <filename_input>  (11) 
7R6J_2I7_docked.sdf

>  <pdb_id>  (11) 
7R6J_2I7

>  <pose_rank>  (11) 
10

>  <num_atoms_heavy>  (11) 
33

>  <num_torsions>  (11) 
7

>  <pose>  (11) 
[-8.688424677846895, -39.31482424773027, -34.82258720454978, 2.000378887668658, 0.8495300584884139, -5.732497286662842, -6.369103334774745, 12.443839074983199, 2.4120514890122275, 1.1695748019731647, 4.038792330473011, -4.791276683414468, 2.213576906400396]

>  <energy>  (11) 
-772.5001203016034

>  <inter_energy>  (11) 
-808.1656470513061

>  <intra_energy>  (11) 
38.874965611169074

>  <rmsd>  (11) 
5.83545

>  <sdf_rank>  (11) 
0

$$$$

     RDKit          3D

 64 67  0  0  0  0  0  0  0  0999 V2000
   -7.3164  -41.2562  -34.0144 N   0  0  2  0  0  0  0  0  0  0  0  0
   -7.8064  -33.3811  -38.4891 N   0  0  0  0  0  0  0  0  0  0  0  0
   -6.0816  -40.4487  -33.7726 C   0  0  0  0  0  0  0  0  0  0  0  0
   -7.2984  -42.4576  -33.1631 C   0  0  2  0  0  0  0  0  0  0  0  0
   -8.6119  -43.3399  -33.3066 C   0  0  0  0  0  0  0  0  0  0  0  0
   -7.5517  -41.4286  -35.2700 C   0  0  0  0  0  0  0  0  0  0  0  0
   -8.8005  -40.5959  -35.8714 C   0  0  0  0  0  0  0  0  0  0  0  0
   -9.8567  -39.0108  -37.3867 C   0  0  0  0  0  0  0  0  0  0  0  0
  -12.5373  -35.4041  -38.1403 C   0  0  0  0  0  0  0  0  0  0  0  0
  -14.0570  -33.4607  -37.6263 C   0  0  0  0  0  0  0  0  0  0  0  0
  -10.1506  -33.8875  -37.8093 C   0  0  0  0  0  0  0  0  0  0  0  0
   -6.3320  -31.9062  -37.3566 C   0  0  0  0  0  0  0  0  0  0  0  0
   -7.3506  -31.6603  -36.4690 C   0  0  0  0  0  0  0  0  0  0  0  0
  -10.0915  -35.2432  -38.1459 C   0  0  0  0  0  0  0  0  0  0  0  0
  -11.2425  -40.2425  -35.8930 C   0  0  0  0  0  0  0  0  0  0  0  0
   -7.2028  -42.0124  -31.6617 C   0  0  2  0  0  0  0  0  0  0  0  0
   -9.8383  -37.9445  -38.5015 C   0  0  0  0  0  0  0  0  0  0  0  0
  -11.2841  -35.9743  -38.3229 C   0  0  0  0  0  0  0  0  0  0  0  0
  -12.6186  -34.0566  -37.7947 C   0  0  0  0  0  0  0  0  0  0  0  0
  -11.4162  -33.2988  -37.6222 C   0  0  0  0  0  0  0  0  0  0  0  0
   -8.7706  -33.1382  -37.6292 C   0  0  0  0  0  0  0  0  0  0  0  0
   -6.5918  -32.8056  -38.4011 C   0  0  0  0  0  0  0  0  0  0  0  0
   -6.0223  -41.1503  -31.4349 C   0  0  1  0  0  0  0  0  0  0  0  0
  -11.1135  -39.2893  -36.8643 C   0  0  0  0  0  0  0  0  0  0  0  0
  -10.0650  -40.8861  -35.3953 C   0  0  0  0  0  0  0  0  0  0  0  0
   -6.0941  -39.9568  -32.2918 C   0  0  1  0  0  0  0  0  0  0  0  0
   -8.6705  -39.6474  -36.8810 C   0  0  0  0  0  0  0  0  0  0  0  0
  -11.1720  -37.3804  -38.6731 N   0  0  0  0  0  0  0  0  0  0  0  0
   -8.5419  -32.2851  -36.6224 N   0  0  0  0  0  0  0  0  0  0  0  0
   -7.1151  -43.1982  -30.8563 O   0  0  0  0  0  0  0  0  0  0  0  0
   -6.1075  -40.7882  -29.9949 O   0  0  0  0  0  0  0  0  0  0  0  0
   -4.9136  -39.1176  -32.0725 O   0  0  0  0  0  0  0  0  0  0  0  0
   -8.2901  -44.5702  -33.7825 O   0  0  0  0  0  0  0  0  0  0  0  0
   -8.1525  -40.7340  -33.7156 H   0  0  0  0  0  0  0  0  0  0  0  0
   -5.1913  -41.0700  -33.9498 H   0  0  0  0  0  0  0  0  0  0  0  0
   -6.0547  -39.5871  -34.4559 H   0  0  0  0  0  0  0  0  0  0  0  0
   -6.4361  -43.0609  -33.4830 H   0  0  0  0  0  0  0  0  0  0  0  0
   -9.0918  -43.4432  -32.3222 H   0  0  0  0  0  0  0  0  0  0  0  0
   -9.3042  -42.8495  -34.0068 H   0  0  0  0  0  0  0  0  0  0  0  0
   -6.6497  -41.1335  -35.8262 H   0  0  0  0  0  0  0  0  0  0  0  0
   -7.8181  -42.4900  -35.3817 H   0  0  0  0  0  0  0  0  0  0  0  0
  -13.4496  -36.0056  -38.2664 H   0  0  0  0  0  0  0  0  0  0  0  0
  -14.2907  -33.3639  -36.5558 H   0  0  0  0  0  0  0  0  0  0  0  0
  -14.1015  -32.4701  -38.1024 H   0  0  0  0  0  0  0  0  0  0  0  0
  -14.7890  -34.1296  -38.1024 H   0  0  0  0  0  0  0  0  0  0  0  0
   -5.3519  -31.4177  -37.2526 H   0  0  0  0  0  0  0  0  0  0  0  0
   -7.1992  -30.9579  -35.6361 H   0  0  0  0  0  0  0  0  0  0  0  0
   -9.1173  -35.7381  -38.2723 H   0  0  0  0  0  0  0  0  0  0  0  0
  -12.2345  -40.5104  -35.5006 H   0  0  0  0  0  0  0  0  0  0  0  0
   -8.0927  -41.4252  -31.3910 H   0  0  0  0  0  0  0  0  0  0  0  0
   -9.1361  -37.1432  -38.2278 H   0  0  0  0  0  0  0  0  0  0  0  0
   -9.5199  -38.4129  -39.4445 H   0  0  0  0  0  0  0  0  0  0  0  0
  -11.4822  -32.2381  -37.3386 H   0  0  0  0  0  0  0  0  0  0  0  0
   -5.8116  -33.0385  -39.1408 H   0  0  0  0  0  0  0  0  0  0  0  0
   -5.0715  -41.6467  -31.6792 H   0  0  0  0  0  0  0  0  0  0  0  0
  -11.9981  -38.7469  -37.2294 H   0  0  0  0  0  0  0  0  0  0  0  0
  -10.1707  -41.6415  -34.6026 H   0  0  0  0  0  0  0  0  0  0  0  0
   -6.9999  -39.3755  -32.0644 H   0  0  0  0  0  0  0  0  0  0  0  0
   -7.6801  -39.3896  -37.2844 H   0  0  0  0  0  0  0  0  0  0  0  0
  -11.9705  -37.9340  -39.0149 H   0  0  0  0  0  0  0  0  0  0  0  0
   -7.1335  -42.9487  -29.8984 H   0  0  0  0  0  0  0  0  0  0  0  0
   -5.9194  -41.5876  -29.4419 H   0  0  0  0  0  0  0  0  0  0  0  0
   -4.7616  -39.0096  -31.1002 H   0  0  0  0  0  0  0  0  0  0  0  0
   -8.1290  -45.1857  -33.0239 H   0  0  0  0  0  0  0  0  0  0  0  0
  1  3  1  0
  1  4  1  0
  1  6  1  0
  2 21  2  0
  2 22  1  0
  3 26  1  0
  4  5  1  0
  4 16  1  0
  5 33  1  0
  6  7  1  0
  7 25  2  0
  7 27  1  0
  8 17  1  0
  8 24  1  0
  8 27  2  0
  9 18  2  0
  9 19  1  0
 10 19  1  0
 11 14  2  0
 11 20  1  0
 11 21  1  0
 12 13  1  0
 12 22  2  0
 13 29  2  0
 14 18  1  0
 15 24  2  0
 15 25  1  0
 16 23  1  0
 16 30  1  0
 17 28  1  0
 18 28  1  0
 19 20  2  0
 21 29  1  0
 23 26  1  0
 23 31  1  0
 26 32  1  0
  1 34  1  1
  3 35  1  0
  3 36  1  0
  4 37  1  6
  5 38  1  0
  5 39  1  0
  6 40  1  0
  6 41  1  0
  9 42  1  0
 10 43  1  0
 10 44  1  0
 10 45  1  0
 12 46  1  0
 13 47  1  0
 14 48  1  0
 15 49  1  0
 16 50  1  1
 17 51  1  0
 17 52  1  0
 20 53  1  0
 22 54  1  0
 23 55  1  1
 24 56  1  0
 25 57  1  0
 26 58  1  1
 27 59  1  0
 28 60  1  0
 30 61  1  0
 31 62  1  0
 32 63  1  0
 33 64  1  0
M  CHG  1   1   1
M  END
>  <filename_input>  (12) 
7R6J_2I7_docked.sdf

>  <pdb_id>  (12) 
7R6J_2I7

>  <pose_rank>  (12) 
11

>  <num_atoms_heavy>  (12) 
33

>  <num_torsions>  (12) 
7

>  <pose>  (12) 
[-8.800523174351886, -40.59586932445757, -35.87138534682517, -3.905567051826379, -3.221241432231989, 1.819987787831437, 3.590942592950074, -3.0055095015107907, 2.8918398708300312, 9.33185752249213, 9.941420296190042, -6.318559839601119, 0.9979690854010851]

>  <energy>  (12) 
-775.3225491086374

>  <inter_energy>  (12) 
-756.2129732686138

>  <intra_energy>  (12) 
3.130556713030032

>  <rmsd>  (12) 
3.76381

>  <sdf_rank>  (12) 
0

$$$$

     RDKit          3D

 64 67  0  0  0  0  0  0  0  0999 V2000
   -8.4836  -41.2912  -33.7169 N   0  0  2  0  0  0  0  0  0  0  0  0
   -8.6227  -32.0020  -39.8270 N   0  0  0  0  0  0  0  0  0  0  0  0
   -8.1588  -42.6996  -34.0994 C   0  0  0  0  0  0  0  0  0  0  0  0
   -8.3800  -41.1371  -32.2562 C   0  0  2  0  0  0  0  0  0  0  0  0
   -8.6423  -39.6478  -31.7688 C   0  0  0  0  0  0  0  0  0  0  0  0
   -9.5640  -40.8674  -34.2778 C   0  0  0  0  0  0  0  0  0  0  0  0
   -9.3642  -40.0461  -35.6564 C   0  0  0  0  0  0  0  0  0  0  0  0
   -8.0846  -38.7659  -37.2835 C   0  0  0  0  0  0  0  0  0  0  0  0
   -5.6938  -36.2431  -39.6046 C   0  0  0  0  0  0  0  0  0  0  0  0
   -4.3601  -36.0093  -41.7300 C   0  0  0  0  0  0  0  0  0  0  0  0
   -6.6976  -33.5807  -39.7020 C   0  0  0  0  0  0  0  0  0  0  0  0
   -8.4765  -29.6376  -39.6853 C   0  0  0  0  0  0  0  0  0  0  0  0
   -7.1208  -29.7877  -39.5254 C   0  0  0  0  0  0  0  0  0  0  0  0
   -7.0568  -34.4391  -38.6585 C   0  0  0  0  0  0  0  0  0  0  0  0
  -10.3242  -39.3652  -37.8250 C   0  0  0  0  0  0  0  0  0  0  0  0
   -6.9257  -41.5201  -31.8090 C   0  0  2  0  0  0  0  0  0  0  0  0
   -6.8200  -38.0330  -37.7773 C   0  0  0  0  0  0  0  0  0  0  0  0
   -6.5360  -35.7487  -38.6172 C   0  0  0  0  0  0  0  0  0  0  0  0
   -5.3314  -35.4073  -40.6591 C   0  0  0  0  0  0  0  0  0  0  0  0
   -5.8436  -34.0714  -40.7085 C   0  0  0  0  0  0  0  0  0  0  0  0
   -7.3230  -32.1293  -39.6766 C   0  0  0  0  0  0  0  0  0  0  0  0
   -9.2392  -30.8044  -39.8402 C   0  0  0  0  0  0  0  0  0  0  0  0
   -6.5736  -42.8868  -32.2520 C   0  0  1  0  0  0  0  0  0  0  0  0
   -9.1654  -38.7197  -38.1551 C   0  0  0  0  0  0  0  0  0  0  0  0
  -10.4126  -40.0219  -36.5564 C   0  0  0  0  0  0  0  0  0  0  0  0
   -6.6736  -42.9864  -33.7163 C   0  0  1  0  0  0  0  0  0  0  0  0
   -8.1737  -39.4150  -36.0034 C   0  0  0  0  0  0  0  0  0  0  0  0
   -6.9375  -36.6038  -37.5126 N   0  0  0  0  0  0  0  0  0  0  0  0
   -6.5761  -31.0272  -39.5305 N   0  0  0  0  0  0  0  0  0  0  0  0
   -6.8684  -41.4312  -30.3767 O   0  0  0  0  0  0  0  0  0  0  0  0
   -5.1709  -43.0684  -31.7921 O   0  0  0  0  0  0  0  0  0  0  0  0
   -6.3392  -44.3469  -34.1443 O   0  0  0  0  0  0  0  0  0  0  0  0
   -9.7503  -39.6087  -30.9850 O   0  0  0  0  0  0  0  0  0  0  0  0
   -7.7814  -40.6427  -34.1008 H   0  0  0  0  0  0  0  0  0  0  0  0
   -8.8216  -43.3928  -33.5606 H   0  0  0  0  0  0  0  0  0  0  0  0
   -8.3030  -42.8394  -35.1810 H   0  0  0  0  0  0  0  0  0  0  0  0
   -9.1464  -41.7897  -31.8126 H   0  0  0  0  0  0  0  0  0  0  0  0
   -7.7747  -39.2941  -31.1925 H   0  0  0  0  0  0  0  0  0  0  0  0
   -8.7943  -39.0005  -32.6450 H   0  0  0  0  0  0  0  0  0  0  0  0
  -10.1974  -41.7405  -34.4936 H   0  0  0  0  0  0  0  0  0  0  0  0
  -10.0108  -40.1560  -33.5677 H   0  0  0  0  0  0  0  0  0  0  0  0
   -5.3193  -37.2762  -39.5551 H   0  0  0  0  0  0  0  0  0  0  0  0
   -3.5299  -36.5238  -41.2239 H   0  0  0  0  0  0  0  0  0  0  0  0
   -4.9071  -36.7269  -42.3591 H   0  0  0  0  0  0  0  0  0  0  0  0
   -3.9609  -35.2000  -42.3591 H   0  0  0  0  0  0  0  0  0  0  0  0
   -8.9453  -28.6425  -39.6916 H   0  0  0  0  0  0  0  0  0  0  0  0
   -6.4795  -28.9037  -39.3937 H   0  0  0  0  0  0  0  0  0  0  0  0
   -7.7437  -34.0937  -37.8718 H   0  0  0  0  0  0  0  0  0  0  0  0
  -11.1745  -39.3798  -38.5227 H   0  0  0  0  0  0  0  0  0  0  0  0
   -6.2020  -40.8311  -32.2691 H   0  0  0  0  0  0  0  0  0  0  0  0
   -5.9396  -38.4300  -37.2507 H   0  0  0  0  0  0  0  0  0  0  0  0
   -6.7096  -38.1922  -38.8602 H   0  0  0  0  0  0  0  0  0  0  0  0
   -5.5653  -33.4167  -41.5475 H   0  0  0  0  0  0  0  0  0  0  0  0
  -10.3296  -30.7423  -39.9712 H   0  0  0  0  0  0  0  0  0  0  0  0
   -7.2435  -43.6588  -31.8455 H   0  0  0  0  0  0  0  0  0  0  0  0
   -9.0893  -38.1678  -39.1036 H   0  0  0  0  0  0  0  0  0  0  0  0
  -11.3519  -40.5271  -36.2872 H   0  0  0  0  0  0  0  0  0  0  0  0
   -5.9854  -42.2755  -34.1968 H   0  0  0  0  0  0  0  0  0  0  0  0
   -7.3179  -39.4127  -35.3124 H   0  0  0  0  0  0  0  0  0  0  0  0
   -7.2776  -36.2303  -36.6150 H   0  0  0  0  0  0  0  0  0  0  0  0
   -7.3592  -42.1934  -29.9789 H   0  0  0  0  0  0  0  0  0  0  0  0
   -5.1460  -43.0716  -30.8024 H   0  0  0  0  0  0  0  0  0  0  0  0
   -6.1988  -44.9182  -33.3481 H   0  0  0  0  0  0  0  0  0  0  0  0
   -9.4812  -39.6182  -30.0323 H   0  0  0  0  0  0  0  0  0  0  0  0
  1  3  1  0
  1  4  1  0
  1  6  1  0
  2 21  2  0
  2 22  1  0
  3 26  1  0
  4  5  1  0
  4 16  1  0
  5 33  1  0
  6  7  1  0
  7 25  2  0
  7 27  1  0
  8 17  1  0
  8 24  1  0
  8 27  2  0
  9 18  2  0
  9 19  1  0
 10 19  1  0
 11 14  2  0
 11 20  1  0
 11 21  1  0
 12 13  1  0
 12 22  2  0
 13 29  2  0
 14 18  1  0
 15 24  2  0
 15 25  1  0
 16 23  1  0
 16 30  1  0
 17 28  1  0
 18 28  1  0
 19 20  2  0
 21 29  1  0
 23 26  1  0
 23 31  1  0
 26 32  1  0
  1 34  1  6
  3 35  1  0
  3 36  1  0
  4 37  1  1
  5 38  1  0
  5 39  1  0
  6 40  1  0
  6 41  1  0
  9 42  1  0
 10 43  1  0
 10 44  1  0
 10 45  1  0
 12 46  1  0
 13 47  1  0
 14 48  1  0
 15 49  1  0
 16 50  1  6
 17 51  1  0
 17 52  1  0
 20 53  1  0
 22 54  1  0
 23 55  1  1
 24 56  1  0
 25 57  1  0
 26 58  1  6
 27 59  1  0
 28 60  1  0
 30 61  1  0
 31 62  1  0
 32 63  1  0
 33 64  1  0
M  CHG  1   1   1
M  END
>  <filename_input>  (13) 
7R6J_2I7_docked.sdf

>  <pdb_id>  (13) 
7R6J_2I7

>  <pose_rank>  (13) 
12

>  <num_atoms_heavy>  (13) 
33

>  <num_torsions>  (13) 
7

>  <pose>  (13) 
[-9.364190806795177, -40.046146011221296, -35.65636224393021, -3.8331490557562606, 3.577072929144384, 1.1976826969548575, 7.419303349511218, 3.506309633989843, 2.864181245862252, -1.896340622147029, -0.6971876830706338, 2.4713006881199666, -0.8790856462859683]

>  <energy>  (13) 
-660.2067007495557

>  <inter_energy>  (13) 
-666.1160177099994

>  <intra_energy>  (13) 
0.14674315309429237

>  <rmsd>  (13) 
2.45103

>  <sdf_rank>  (13) 
0

$$$$

     RDKit          3D

 64 67  0  0  0  0  0  0  0  0999 V2000
   -7.5606  -40.8948  -34.2704 N   0  0  2  0  0  0  0  0  0  0  0  0
   -6.1619  -36.6028  -39.4976 N   0  0  0  0  0  0  0  0  0  0  0  0
   -7.1271  -39.5881  -33.6873 C   0  0  0  0  0  0  0  0  0  0  0  0
   -6.9196  -42.0012  -33.5403 C   0  0  2  0  0  0  0  0  0  0  0  0
   -7.3811  -43.4327  -34.0522 C   0  0  0  0  0  0  0  0  0  0  0  0
   -7.4743  -40.9107  -35.5565 C   0  0  0  0  0  0  0  0  0  0  0  0
   -8.8566  -40.6574  -36.3564 C   0  0  0  0  0  0  0  0  0  0  0  0
  -10.2746  -39.5443  -37.9917 C   0  0  0  0  0  0  0  0  0  0  0  0
  -10.8088  -34.8396  -38.1833 C   0  0  0  0  0  0  0  0  0  0  0  0
  -10.6374  -32.3385  -37.9267 C   0  0  0  0  0  0  0  0  0  0  0  0
   -8.1382  -35.1296  -39.1263 C   0  0  0  0  0  0  0  0  0  0  0  0
   -4.1029  -35.9276  -40.4651 C   0  0  0  0  0  0  0  0  0  0  0  0
   -4.6463  -34.6745  -40.6084 C   0  0  0  0  0  0  0  0  0  0  0  0
   -8.9675  -36.2460  -38.9828 C   0  0  0  0  0  0  0  0  0  0  0  0
  -11.1522  -41.4281  -36.8300 C   0  0  0  0  0  0  0  0  0  0  0  0
   -7.3142  -41.9032  -32.0250 C   0  0  2  0  0  0  0  0  0  0  0  0
  -10.5761  -38.4599  -39.0468 C   0  0  0  0  0  0  0  0  0  0  0  0
  -10.2930  -36.0812  -38.5310 C   0  0  0  0  0  0  0  0  0  0  0  0
   -9.9957  -33.7149  -38.3091 C   0  0  0  0  0  0  0  0  0  0  0  0
   -8.6511  -33.8654  -38.7770 C   0  0  0  0  0  0  0  0  0  0  0  0
   -6.6669  -35.3973  -39.6381 C   0  0  0  0  0  0  0  0  0  0  0  0
   -4.9104  -36.9166  -39.8844 C   0  0  0  0  0  0  0  0  0  0  0  0
   -6.9545  -40.5825  -31.4642 C   0  0  1  0  0  0  0  0  0  0  0  0
  -11.3271  -40.4117  -37.7271 C   0  0  0  0  0  0  0  0  0  0  0  0
   -9.9032  -41.5332  -36.1391 C   0  0  0  0  0  0  0  0  0  0  0  0
   -7.6320  -39.5125  -32.2128 C   0  0  1  0  0  0  0  0  0  0  0  0
   -9.0224  -39.6401  -37.2911 C   0  0  0  0  0  0  0  0  0  0  0  0
  -11.1172  -37.2710  -38.3985 N   0  0  0  0  0  0  0  0  0  0  0  0
   -5.9110  -34.4377  -40.1872 N   0  0  0  0  0  0  0  0  0  0  0  0
   -6.6224  -42.9473  -31.3221 O   0  0  0  0  0  0  0  0  0  0  0  0
   -7.4308  -40.6429  -30.0565 O   0  0  0  0  0  0  0  0  0  0  0  0
   -7.2573  -38.2082  -31.6611 O   0  0  0  0  0  0  0  0  0  0  0  0
   -6.3260  -44.0869  -34.6022 O   0  0  0  0  0  0  0  0  0  0  0  0
   -8.5710  -41.0353  -34.1278 H   0  0  0  0  0  0  0  0  0  0  0  0
   -6.0295  -39.5184  -33.7078 H   0  0  0  0  0  0  0  0  0  0  0  0
   -7.5465  -38.7564  -34.2725 H   0  0  0  0  0  0  0  0  0  0  0  0
   -5.8361  -41.9045  -33.7042 H   0  0  0  0  0  0  0  0  0  0  0  0
   -7.7705  -44.0156  -33.2045 H   0  0  0  0  0  0  0  0  0  0  0  0
   -8.1682  -43.3107  -34.8109 H   0  0  0  0  0  0  0  0  0  0  0  0
   -6.7620  -40.1281  -35.8568 H   0  0  0  0  0  0  0  0  0  0  0  0
   -7.1568  -41.9297  -35.8226 H   0  0  0  0  0  0  0  0  0  0  0  0
  -11.8411  -34.7455  -37.8150 H   0  0  0  0  0  0  0  0  0  0  0  0
  -10.6806  -32.2457  -36.8315 H   0  0  0  0  0  0  0  0  0  0  0  0
  -10.0271  -31.5220  -38.3401 H   0  0  0  0  0  0  0  0  0  0  0  0
  -11.6551  -32.2809  -38.3401 H   0  0  0  0  0  0  0  0  0  0  0  0
   -3.0759  -36.1469  -40.7925 H   0  0  0  0  0  0  0  0  0  0  0  0
   -4.0559  -33.8659  -41.0640 H   0  0  0  0  0  0  0  0  0  0  0  0
   -8.5871  -37.2500  -39.2217 H   0  0  0  0  0  0  0  0  0  0  0  0
  -11.9579  -42.1532  -36.6424 H   0  0  0  0  0  0  0  0  0  0  0  0
   -8.4027  -42.0186  -31.9164 H   0  0  0  0  0  0  0  0  0  0  0  0
   -9.6474  -38.1965  -39.5743 H   0  0  0  0  0  0  0  0  0  0  0  0
  -11.3144  -38.8484  -39.7637 H   0  0  0  0  0  0  0  0  0  0  0  0
   -8.0072  -32.9779  -38.8652 H   0  0  0  0  0  0  0  0  0  0  0  0
   -4.5257  -37.9378  -39.7463 H   0  0  0  0  0  0  0  0  0  0  0  0
   -5.8778  -40.3657  -31.5257 H   0  0  0  0  0  0  0  0  0  0  0  0
  -12.2938  -40.2815  -38.2356 H   0  0  0  0  0  0  0  0  0  0  0  0
   -9.7712  -42.3430  -35.4064 H   0  0  0  0  0  0  0  0  0  0  0  0
   -8.7236  -39.6329  -32.1502 H   0  0  0  0  0  0  0  0  0  0  0  0
   -8.2120  -38.9235  -37.4901 H   0  0  0  0  0  0  0  0  0  0  0  0
  -12.0116  -37.2742  -37.8877 H   0  0  0  0  0  0  0  0  0  0  0  0
   -6.7157  -42.8064  -30.3466 H   0  0  0  0  0  0  0  0  0  0  0  0
   -6.6602  -40.5451  -29.4429 H   0  0  0  0  0  0  0  0  0  0  0  0
   -7.2699  -38.2522  -30.6722 H   0  0  0  0  0  0  0  0  0  0  0  0
   -5.7483  -44.4451  -33.8825 H   0  0  0  0  0  0  0  0  0  0  0  0
  1  3  1  0
  1  4  1  0
  1  6  1  0
  2 21  2  0
  2 22  1  0
  3 26  1  0
  4  5  1  0
  4 16  1  0
  5 33  1  0
  6  7  1  0
  7 25  2  0
  7 27  1  0
  8 17  1  0
  8 24  1  0
  8 27  2  0
  9 18  2  0
  9 19  1  0
 10 19  1  0
 11 14  2  0
 11 20  1  0
 11 21  1  0
 12 13  1  0
 12 22  2  0
 13 29  2  0
 14 18  1  0
 15 24  2  0
 15 25  1  0
 16 23  1  0
 16 30  1  0
 17 28  1  0
 18 28  1  0
 19 20  2  0
 21 29  1  0
 23 26  1  0
 23 31  1  0
 26 32  1  0
  1 34  1  6
  3 35  1  0
  3 36  1  0
  4 37  1  1
  5 38  1  0
  5 39  1  0
  6 40  1  0
  6 41  1  0
  9 42  1  0
 10 43  1  0
 10 44  1  0
 10 45  1  0
 12 46  1  0
 13 47  1  0
 14 48  1  0
 15 49  1  0
 16 50  1  6
 17 51  1  0
 17 52  1  0
 20 53  1  0
 22 54  1  0
 23 55  1  1
 24 56  1  0
 25 57  1  0
 26 58  1  6
 27 59  1  0
 28 60  1  0
 30 61  1  0
 31 62  1  0
 32 63  1  0
 33 64  1  0
M  CHG  1   1   1
M  END
>  <filename_input>  (14) 
7R6J_2I7_docked.sdf

>  <pdb_id>  (14) 
7R6J_2I7

>  <pose_rank>  (14) 
13

>  <num_atoms_heavy>  (14) 
33

>  <num_torsions>  (14) 
7

>  <pose>  (14) 
[-8.85655025354776, -40.6573955142097, -36.35641287930286, -3.989885892248355, -3.4357216644540634, -1.4356472832578502, 16.241904099241285, 22.270629175340048, 2.840144773726214, -1.7496474340116814, 28.834108076379128, 5.772314611194146, -0.10640103364897768]

>  <energy>  (14) 
-605.665175352737

>  <inter_energy>  (14) 
-610.7506689539614

>  <intra_energy>  (14) 
0.6593411546181774

>  <rmsd>  (14) 
4.04171

>  <sdf_rank>  (14) 
0

$$$$

     RDKit          3D

 64 67  0  0  0  0  0  0  0  0999 V2000
   -7.8739  -40.4974  -33.7674 N   0  0  2  0  0  0  0  0  0  0  0  0
   -4.4306  -34.3448  -42.2111 N   0  0  0  0  0  0  0  0  0  0  0  0
   -6.5580  -40.7791  -34.4188 C   0  0  0  0  0  0  0  0  0  0  0  0
   -8.2227  -41.6000  -32.8560 C   0  0  2  0  0  0  0  0  0  0  0  0
   -9.5785  -41.3479  -32.0668 C   0  0  0  0  0  0  0  0  0  0  0  0
   -8.7720  -40.1290  -34.6155 C   0  0  0  0  0  0  0  0  0  0  0  0
   -8.4234  -38.8060  -35.4775 C   0  0  0  0  0  0  0  0  0  0  0  0
   -8.5931  -37.3376  -37.4112 C   0  0  0  0  0  0  0  0  0  0  0  0
   -8.0196  -38.1404  -42.1493 C   0  0  0  0  0  0  0  0  0  0  0  0
   -7.4408  -38.4123  -44.5868 C   0  0  0  0  0  0  0  0  0  0  0  0
   -6.3949  -35.8267  -41.8125 C   0  0  0  0  0  0  0  0  0  0  0  0
   -3.9788  -32.3179  -41.0626 C   0  0  0  0  0  0  0  0  0  0  0  0
   -5.1418  -32.5221  -40.3613 C   0  0  0  0  0  0  0  0  0  0  0  0
   -7.1289  -36.3433  -40.7405 C   0  0  0  0  0  0  0  0  0  0  0  0
   -7.3176  -36.6011  -35.5405 C   0  0  0  0  0  0  0  0  0  0  0  0
   -7.0860  -41.7500  -31.7850 C   0  0  2  0  0  0  0  0  0  0  0  0
   -9.0777  -36.9737  -38.8299 C   0  0  0  0  0  0  0  0  0  0  0  0
   -7.9144  -37.5001  -40.9213 C   0  0  0  0  0  0  0  0  0  0  0  0
   -7.3042  -37.6360  -43.2335 C   0  0  0  0  0  0  0  0  0  0  0  0
   -6.4938  -36.4684  -43.0622 C   0  0  0  0  0  0  0  0  0  0  0  0
   -5.5393  -34.5284  -41.5291 C   0  0  0  0  0  0  0  0  0  0  0  0
   -3.6281  -33.2797  -42.0213 C   0  0  0  0  0  0  0  0  0  0  0  0
   -5.7698  -41.9537  -32.4288 C   0  0  1  0  0  0  0  0  0  0  0  0
   -7.7752  -36.3885  -36.8110 C   0  0  0  0  0  0  0  0  0  0  0  0
   -7.6452  -37.8301  -34.8844 C   0  0  0  0  0  0  0  0  0  0  0  0
   -5.4575  -40.8204  -33.3133 C   0  0  1  0  0  0  0  0  0  0  0  0
   -8.9148  -38.5783  -36.7592 C   0  0  0  0  0  0  0  0  0  0  0  0
   -8.6590  -38.0000  -39.7776 N   0  0  0  0  0  0  0  0  0  0  0  0
   -5.8904  -33.6233  -40.6065 N   0  0  0  0  0  0  0  0  0  0  0  0
   -7.4119  -42.8739  -30.9524 O   0  0  0  0  0  0  0  0  0  0  0  0
   -4.8159  -42.0301  -31.2903 O   0  0  0  0  0  0  0  0  0  0  0  0
   -4.1606  -41.0385  -33.9586 O   0  0  0  0  0  0  0  0  0  0  0  0
   -9.3896  -40.3921  -31.1212 O   0  0  0  0  0  0  0  0  0  0  0  0
   -7.8057  -39.6667  -33.1622 H   0  0  0  0  0  0  0  0  0  0  0  0
   -6.6003  -41.7486  -34.9368 H   0  0  0  0  0  0  0  0  0  0  0  0
   -6.3252  -39.9942  -35.1534 H   0  0  0  0  0  0  0  0  0  0  0  0
   -8.3426  -42.4999  -33.4770 H   0  0  0  0  0  0  0  0  0  0  0  0
  -10.3550  -41.0158  -32.7717 H   0  0  0  0  0  0  0  0  0  0  0  0
   -9.8947  -42.2825  -31.5804 H   0  0  0  0  0  0  0  0  0  0  0  0
   -8.9320  -40.9586  -35.3199 H   0  0  0  0  0  0  0  0  0  0  0  0
   -9.6598  -39.8722  -34.0189 H   0  0  0  0  0  0  0  0  0  0  0  0
   -8.6564  -39.0299  -42.2639 H   0  0  0  0  0  0  0  0  0  0  0  0
   -7.6279  -39.4766  -44.3817 H   0  0  0  0  0  0  0  0  0  0  0  0
   -8.2797  -37.9971  -45.1646 H   0  0  0  0  0  0  0  0  0  0  0  0
   -6.5105  -38.3083  -45.1646 H   0  0  0  0  0  0  0  0  0  0  0  0
   -3.3478  -31.4356  -40.8798 H   0  0  0  0  0  0  0  0  0  0  0  0
   -5.4641  -31.7934  -39.6030 H   0  0  0  0  0  0  0  0  0  0  0  0
   -7.0937  -35.8485  -39.7587 H   0  0  0  0  0  0  0  0  0  0  0  0
   -6.7080  -35.8403  -35.0311 H   0  0  0  0  0  0  0  0  0  0  0  0
   -7.0173  -40.8305  -31.1851 H   0  0  0  0  0  0  0  0  0  0  0  0
  -10.1753  -36.9011  -38.8327 H   0  0  0  0  0  0  0  0  0  0  0  0
   -8.6396  -36.0088  -39.1251 H   0  0  0  0  0  0  0  0  0  0  0  0
   -5.9385  -36.0652  -43.9219 H   0  0  0  0  0  0  0  0  0  0  0  0
   -2.7073  -33.1655  -42.6121 H   0  0  0  0  0  0  0  0  0  0  0  0
   -5.7319  -42.8544  -33.0591 H   0  0  0  0  0  0  0  0  0  0  0  0
   -7.4978  -35.4729  -37.3540 H   0  0  0  0  0  0  0  0  0  0  0  0
   -7.2624  -38.0048  -33.8680 H   0  0  0  0  0  0  0  0  0  0  0  0
   -5.4237  -39.8833  -32.7383 H   0  0  0  0  0  0  0  0  0  0  0  0
   -9.5368  -39.3324  -37.2636 H   0  0  0  0  0  0  0  0  0  0  0  0
   -8.8737  -38.9989  -39.6468 H   0  0  0  0  0  0  0  0  0  0  0  0
   -7.3361  -42.6125  -30.0006 H   0  0  0  0  0  0  0  0  0  0  0  0
   -5.3165  -41.9900  -30.4371 H   0  0  0  0  0  0  0  0  0  0  0  0
   -3.4630  -41.1558  -33.2660 H   0  0  0  0  0  0  0  0  0  0  0  0
   -9.4697  -40.7975  -30.2216 H   0  0  0  0  0  0  0  0  0  0  0  0
  1  3  1  0
  1  4  1  0
  1  6  1  0
  2 21  2  0
  2 22  1  0
  3 26  1  0
  4  5  1  0
  4 16  1  0
  5 33  1  0
  6  7  1  0
  7 25  2  0
  7 27  1  0
  8 17  1  0
  8 24  1  0
  8 27  2  0
  9 18  2  0
  9 19  1  0
 10 19  1  0
 11 14  2  0
 11 20  1  0
 11 21  1  0
 12 13  1  0
 12 22  2  0
 13 29  2  0
 14 18  1  0
 15 24  2  0
 15 25  1  0
 16 23  1  0
 16 30  1  0
 17 28  1  0
 18 28  1  0
 19 20  2  0
 21 29  1  0
 23 26  1  0
 23 31  1  0
 26 32  1  0
  1 34  1  1
  3 35  1  0
  3 36  1  0
  4 37  1  6
  5 38  1  0
  5 39  1  0
  6 40  1  0
  6 41  1  0
  9 42  1  0
 10 43  1  0
 10 44  1  0
 10 45  1  0
 12 46  1  0
 13 47  1  0
 14 48  1  0
 15 49  1  0
 16 50  1  1
 17 51  1  0
 17 52  1  0
 20 53  1  0
 22 54  1  0
 23 55  1  6
 24 56  1  0
 25 57  1  0
 26 58  1  1
 27 59  1  0
 28 60  1  0
 30 61  1  0
 31 62  1  0
 32 63  1  0
 33 64  1  0
M  CHG  1   1   1
M  END
>  <filename_input>  (15) 
7R6J_2I7_docked.sdf

>  <pdb_id>  (15) 
7R6J_2I7

>  <pose_rank>  (15) 
14

>  <num_atoms_heavy>  (15) 
33

>  <num_torsions>  (15) 
7

>  <pose>  (15) 
[-8.423430714559405, -38.80598303664944, -35.477476702410954, -0.10473472449147961, -1.1851454495162241, 3.53258337396754, -2.1211730425998763, -2.148161532199144, -0.432545889854583, -1.1947062339936076, -0.5347861274731983, -6.026217772035577, 2.877405029170897]

>  <energy>  (15) 
-678.4462885436757

>  <inter_energy>  (15) 
-696.8400768370541

>  <intra_energy>  (15) 
13.18987719533292

>  <rmsd>  (15) 
3.91862

>  <sdf_rank>  (15) 
0

$$$$

     RDKit          3D

 64 67  0  0  0  0  0  0  0  0999 V2000
   -8.8865  -40.9075  -33.9425 N   0  0  2  0  0  0  0  0  0  0  0  0
   -3.6527  -35.7758  -38.0729 N   0  0  0  0  0  0  0  0  0  0  0  0
   -9.0777  -42.0621  -34.8729 C   0  0  0  0  0  0  0  0  0  0  0  0
   -8.7622  -41.3992  -32.5602 C   0  0  2  0  0  0  0  0  0  0  0  0
   -8.4859  -40.2387  -31.5108 C   0  0  0  0  0  0  0  0  0  0  0  0
   -9.7343  -39.9602  -34.1558 C   0  0  0  0  0  0  0  0  0  0  0  0
  -10.2229  -39.7865  -35.6874 C   0  0  0  0  0  0  0  0  0  0  0  0
  -10.0562  -38.9371  -37.9622 C   0  0  0  0  0  0  0  0  0  0  0  0
   -8.7466  -34.6413  -37.7836 C   0  0  0  0  0  0  0  0  0  0  0  0
   -7.9071  -32.5145  -36.7240 C   0  0  0  0  0  0  0  0  0  0  0  0
   -6.1453  -35.7602  -38.0793 C   0  0  0  0  0  0  0  0  0  0  0  0
   -2.2854  -37.6367  -38.6198 C   0  0  0  0  0  0  0  0  0  0  0  0
   -3.4395  -38.3547  -38.8168 C   0  0  0  0  0  0  0  0  0  0  0  0
   -7.2759  -36.4659  -38.5017 C   0  0  0  0  0  0  0  0  0  0  0  0
  -11.7880  -40.4918  -37.4598 C   0  0  0  0  0  0  0  0  0  0  0  0
   -7.5484  -42.3904  -32.4830 C   0  0  2  0  0  0  0  0  0  0  0  0
   -9.4216  -38.0694  -39.0687 C   0  0  0  0  0  0  0  0  0  0  0  0
   -8.5549  -35.8887  -38.3633 C   0  0  0  0  0  0  0  0  0  0  0  0
   -7.6338  -33.9253  -37.3465 C   0  0  0  0  0  0  0  0  0  0  0  0
   -6.3279  -34.4940  -37.4905 C   0  0  0  0  0  0  0  0  0  0  0  0
   -4.7484  -36.4750  -38.2689 C   0  0  0  0  0  0  0  0  0  0  0  0
   -2.4202  -36.2955  -38.2323 C   0  0  0  0  0  0  0  0  0  0  0  0
   -7.6981  -43.4942  -33.4563 C   0  0  1  0  0  0  0  0  0  0  0  0
  -11.1704  -39.6666  -38.3577 C   0  0  0  0  0  0  0  0  0  0  0  0
  -11.3043  -40.5341  -36.1135 C   0  0  0  0  0  0  0  0  0  0  0  0
   -7.7995  -42.9558  -34.8216 C   0  0  1  0  0  0  0  0  0  0  0  0
   -9.5746  -38.9687  -36.6076 C   0  0  0  0  0  0  0  0  0  0  0  0
   -9.6999  -36.6601  -38.8174 N   0  0  0  0  0  0  0  0  0  0  0  0
   -4.6416  -37.7566  -38.6427 N   0  0  0  0  0  0  0  0  0  0  0  0
   -7.4902  -42.9108  -31.1457 O   0  0  0  0  0  0  0  0  0  0  0  0
   -6.4611  -44.3017  -33.2838 O   0  0  0  0  0  0  0  0  0  0  0  0
   -7.9638  -44.0544  -35.7765 O   0  0  0  0  0  0  0  0  0  0  0  0
   -9.0650  -40.5461  -30.3217 O   0  0  0  0  0  0  0  0  0  0  0  0
   -7.9923  -40.4339  -34.1351 H   0  0  0  0  0  0  0  0  0  0  0  0
   -9.9538  -42.6492  -34.5606 H   0  0  0  0  0  0  0  0  0  0  0  0
   -9.2418  -41.6974  -35.8977 H   0  0  0  0  0  0  0  0  0  0  0  0
   -9.7190  -41.8788  -32.3062 H   0  0  0  0  0  0  0  0  0  0  0  0
   -7.4009  -40.1246  -31.3698 H   0  0  0  0  0  0  0  0  0  0  0  0
   -8.9115  -39.2978  -31.8895 H   0  0  0  0  0  0  0  0  0  0  0  0
  -10.6230  -40.1569  -33.5380 H   0  0  0  0  0  0  0  0  0  0  0  0
   -9.2108  -39.0269  -33.9009 H   0  0  0  0  0  0  0  0  0  0  0  0
   -9.7589  -34.2258  -37.6715 H   0  0  0  0  0  0  0  0  0  0  0  0
   -7.8927  -32.5889  -35.6266 H   0  0  0  0  0  0  0  0  0  0  0  0
   -7.1286  -31.8110  -37.0541 H   0  0  0  0  0  0  0  0  0  0  0  0
   -8.8921  -32.1526  -37.0541 H   0  0  0  0  0  0  0  0  0  0  0  0
   -1.2953  -38.0950  -38.7602 H   0  0  0  0  0  0  0  0  0  0  0  0
   -3.3873  -39.4121  -39.1151 H   0  0  0  0  0  0  0  0  0  0  0  0
   -7.1680  -37.4687  -38.9407 H   0  0  0  0  0  0  0  0  0  0  0  0
  -12.6424  -41.1129  -37.7669 H   0  0  0  0  0  0  0  0  0  0  0  0
   -6.6183  -41.8588  -32.7326 H   0  0  0  0  0  0  0  0  0  0  0  0
   -8.3334  -38.2298  -39.0785 H   0  0  0  0  0  0  0  0  0  0  0  0
   -9.8491  -38.3544  -40.0414 H   0  0  0  0  0  0  0  0  0  0  0  0
   -5.4517  -33.9321  -37.1349 H   0  0  0  0  0  0  0  0  0  0  0  0
   -1.5287  -35.6745  -38.0603 H   0  0  0  0  0  0  0  0  0  0  0  0
   -8.6066  -44.0929  -33.2943 H   0  0  0  0  0  0  0  0  0  0  0  0
  -11.5527  -39.5809  -39.3855 H   0  0  0  0  0  0  0  0  0  0  0  0
  -11.8133  -41.1873  -35.3894 H   0  0  0  0  0  0  0  0  0  0  0  0
   -6.8943  -42.3854  -35.0769 H   0  0  0  0  0  0  0  0  0  0  0  0
   -8.7109  -38.3584  -36.3049 H   0  0  0  0  0  0  0  0  0  0  0  0
  -10.6330  -36.2448  -38.9509 H   0  0  0  0  0  0  0  0  0  0  0  0
   -7.5735  -42.1667  -30.4981 H   0  0  0  0  0  0  0  0  0  0  0  0
   -6.2772  -44.4216  -32.3185 H   0  0  0  0  0  0  0  0  0  0  0  0
   -8.0908  -44.9037  -35.2838 H   0  0  0  0  0  0  0  0  0  0  0  0
   -8.4837  -40.2376  -29.5821 H   0  0  0  0  0  0  0  0  0  0  0  0
  1  3  1  0
  1  4  1  0
  1  6  1  0
  2 21  2  0
  2 22  1  0
  3 26  1  0
  4  5  1  0
  4 16  1  0
  5 33  1  0
  6  7  1  0
  7 25  2  0
  7 27  1  0
  8 17  1  0
  8 24  1  0
  8 27  2  0
  9 18  2  0
  9 19  1  0
 10 19  1  0
 11 14  2  0
 11 20  1  0
 11 21  1  0
 12 13  1  0
 12 22  2  0
 13 29  2  0
 14 18  1  0
 15 24  2  0
 15 25  1  0
 16 23  1  0
 16 30  1  0
 17 28  1  0
 18 28  1  0
 19 20  2  0
 21 29  1  0
 23 26  1  0
 23 31  1  0
 26 32  1  0
  1 34  1  6
  3 35  1  0
  3 36  1  0
  4 37  1  1
  5 38  1  0
  5 39  1  0
  6 40  1  0
  6 41  1  0
  9 42  1  0
 10 43  1  0
 10 44  1  0
 10 45  1  0
 12 46  1  0
 13 47  1  0
 14 48  1  0
 15 49  1  0
 16 50  1  6
 17 51  1  0
 17 52  1  0
 20 53  1  0
 22 54  1  0
 23 55  1  1
 24 56  1  0
 25 57  1  0
 26 58  1  6
 27 59  1  0
 28 60  1  0
 30 61  1  0
 31 62  1  0
 32 63  1  0
 33 64  1  0
M  CHG  1   1   1
M  END
>  <filename_input>  (16) 
7R6J_2I7_docked.sdf

>  <pdb_id>  (16) 
7R6J_2I7

>  <pose_rank>  (16) 
15

>  <num_atoms_heavy>  (16) 
33

>  <num_torsions>  (16) 
7

>  <pose>  (16) 
[-10.222906822313567, -39.786528677125744, -35.6873816142874, -4.428232511019052, 2.282624598703764, -2.9983512125962544, -18.894433089874415, -1.6735440336717404, 3.403635630645772, -14.00589342115736, 3.53902400913981, 12.542291830117325, -3.0506747810003185]

>  <energy>  (16) 
-632.6567979479604

>  <inter_energy>  (16) 
-651.7056829118804

>  <intra_energy>  (16) 
28.2917801659425

>  <rmsd>  (16) 
3.96502

>  <sdf_rank>  (16) 
0

$$$$

     RDKit          3D

 64 67  0  0  0  0  0  0  0  0999 V2000
   -8.2848  -40.9558  -34.0203 N   0  0  2  0  0  0  0  0  0  0  0  0
  -13.9239  -31.8750  -37.9303 N   0  0  0  0  0  0  0  0  0  0  0  0
   -7.9093  -42.2411  -34.6853 C   0  0  0  0  0  0  0  0  0  0  0  0
   -8.6339  -41.2088  -32.6124 C   0  0  2  0  0  0  0  0  0  0  0  0
   -8.9797  -39.8816  -31.8103 C   0  0  0  0  0  0  0  0  0  0  0  0
   -9.1216  -40.2682  -34.7193 C   0  0  0  0  0  0  0  0  0  0  0  0
   -8.4861  -39.4182  -35.9393 C   0  0  0  0  0  0  0  0  0  0  0  0
   -8.0187  -37.3810  -37.1864 C   0  0  0  0  0  0  0  0  0  0  0  0
  -11.1872  -36.2965  -37.8123 C   0  0  0  0  0  0  0  0  0  0  0  0
  -13.1109  -37.4348  -38.9758 C   0  0  0  0  0  0  0  0  0  0  0  0
  -12.2261  -33.6772  -38.2192 C   0  0  0  0  0  0  0  0  0  0  0  0
  -13.6837  -29.6276  -38.6533 C   0  0  0  0  0  0  0  0  0  0  0  0
  -12.4345  -29.9681  -39.1113 C   0  0  0  0  0  0  0  0  0  0  0  0
  -11.0153  -33.8660  -37.5462 C   0  0  0  0  0  0  0  0  0  0  0  0
   -7.0092  -39.4101  -37.9159 C   0  0  0  0  0  0  0  0  0  0  0  0
   -7.4052  -41.8733  -31.8980 C   0  0  2  0  0  0  0  0  0  0  0  0
   -8.1616  -35.8707  -37.4671 C   0  0  0  0  0  0  0  0  0  0  0  0
  -10.5074  -35.1694  -37.3692 C   0  0  0  0  0  0  0  0  0  0  0  0
  -12.4009  -36.1313  -38.4766 C   0  0  0  0  0  0  0  0  0  0  0  0
  -12.9237  -34.8132  -38.6733 C   0  0  0  0  0  0  0  0  0  0  0  0
  -12.7275  -32.1866  -38.3771 C   0  0  0  0  0  0  0  0  0  0  0  0
  -14.4418  -30.6365  -38.0412 C   0  0  0  0  0  0  0  0  0  0  0  0
   -6.9834  -43.1061  -32.5983 C   0  0  1  0  0  0  0  0  0  0  0  0
   -7.2252  -38.0721  -38.0935 C   0  0  0  0  0  0  0  0  0  0  0  0
   -7.6603  -40.0773  -36.8299 C   0  0  0  0  0  0  0  0  0  0  0  0
   -6.6277  -42.8005  -33.9926 C   0  0  1  0  0  0  0  0  0  0  0  0
   -8.6833  -38.0504  -36.1009 C   0  0  0  0  0  0  0  0  0  0  0  0
   -9.2448  -35.3154  -36.6641 N   0  0  0  0  0  0  0  0  0  0  0  0
  -11.9889  -31.2384  -38.9679 N   0  0  0  0  0  0  0  0  0  0  0  0
   -7.7918  -42.1753  -30.5482 O   0  0  0  0  0  0  0  0  0  0  0  0
   -5.8002  -43.5750  -31.8286 O   0  0  0  0  0  0  0  0  0  0  0  0
   -6.2272  -44.0292  -34.6825 O   0  0  0  0  0  0  0  0  0  0  0  0
  -10.0638  -40.0908  -31.0200 O   0  0  0  0  0  0  0  0  0  0  0  0
   -7.4749  -40.3206  -33.9810 H   0  0  0  0  0  0  0  0  0  0  0  0
   -8.7314  -42.9650  -34.5848 H   0  0  0  0  0  0  0  0  0  0  0  0
   -7.7158  -42.0700  -35.7545 H   0  0  0  0  0  0  0  0  0  0  0  0
   -9.5235  -41.8557  -32.6168 H   0  0  0  0  0  0  0  0  0  0  0  0
   -8.1206  -39.5990  -31.1841 H   0  0  0  0  0  0  0  0  0  0  0  0
   -9.2006  -39.0735  -32.5232 H   0  0  0  0  0  0  0  0  0  0  0  0
   -9.8610  -40.9645  -35.1419 H   0  0  0  0  0  0  0  0  0  0  0  0
   -9.5500  -39.5266  -34.0290 H   0  0  0  0  0  0  0  0  0  0  0  0
  -10.7747  -37.3019  -37.6418 H   0  0  0  0  0  0  0  0  0  0  0  0
  -13.4353  -38.0304  -38.1097 H   0  0  0  0  0  0  0  0  0  0  0  0
  -13.9868  -37.1653  -39.5842 H   0  0  0  0  0  0  0  0  0  0  0  0
  -12.4094  -38.0245  -39.5842 H   0  0  0  0  0  0  0  0  0  0  0  0
  -14.0740  -28.6049  -38.7621 H   0  0  0  0  0  0  0  0  0  0  0  0
  -11.7982  -29.2111  -39.5930 H   0  0  0  0  0  0  0  0  0  0  0  0
  -10.4604  -33.0001  -37.1559 H   0  0  0  0  0  0  0  0  0  0  0  0
   -6.3462  -39.9647  -38.5962 H   0  0  0  0  0  0  0  0  0  0  0  0
   -6.5497  -41.1818  -31.9104 H   0  0  0  0  0  0  0  0  0  0  0  0
   -7.2205  -35.3618  -37.2114 H   0  0  0  0  0  0  0  0  0  0  0  0
   -8.3884  -35.7211  -38.5330 H   0  0  0  0  0  0  0  0  0  0  0  0
  -13.8874  -34.6854  -39.1881 H   0  0  0  0  0  0  0  0  0  0  0  0
  -15.4487  -30.4187  -37.6558 H   0  0  0  0  0  0  0  0  0  0  0  0
   -7.7742  -43.8694  -32.6435 H   0  0  0  0  0  0  0  0  0  0  0  0
   -6.7742  -37.5465  -38.9481 H   0  0  0  0  0  0  0  0  0  0  0  0
   -7.4968  -41.1572  -36.6991 H   0  0  0  0  0  0  0  0  0  0  0  0
   -5.7988  -42.0782  -34.0274 H   0  0  0  0  0  0  0  0  0  0  0  0
   -9.3345  -37.4922  -35.4122 H   0  0  0  0  0  0  0  0  0  0  0  0
   -9.1249  -35.0481  -35.6767 H   0  0  0  0  0  0  0  0  0  0  0  0
   -7.1894  -41.7047  -29.9192 H   0  0  0  0  0  0  0  0  0  0  0  0
   -5.9868  -43.5011  -30.8592 H   0  0  0  0  0  0  0  0  0  0  0  0
   -6.0008  -44.7239  -34.0144 H   0  0  0  0  0  0  0  0  0  0  0  0
   -9.7939  -40.0387  -30.0689 H   0  0  0  0  0  0  0  0  0  0  0  0
  1  3  1  0
  1  4  1  0
  1  6  1  0
  2 21  2  0
  2 22  1  0
  3 26  1  0
  4  5  1  0
  4 16  1  0
  5 33  1  0
  6  7  1  0
  7 25  2  0
  7 27  1  0
  8 17  1  0
  8 24  1  0
  8 27  2  0
  9 18  2  0
  9 19  1  0
 10 19  1  0
 11 14  2  0
 11 20  1  0
 11 21  1  0
 12 13  1  0
 12 22  2  0
 13 29  2  0
 14 18  1  0
 15 24  2  0
 15 25  1  0
 16 23  1  0
 16 30  1  0
 17 28  1  0
 18 28  1  0
 19 20  2  0
 21 29  1  0
 23 26  1  0
 23 31  1  0
 26 32  1  0
  1 34  1  1
  3 35  1  0
  3 36  1  0
  4 37  1  6
  5 38  1  0
  5 39  1  0
  6 40  1  0
  6 41  1  0
  9 42  1  0
 10 43  1  0
 10 44  1  0
 10 45  1  0
 12 46  1  0
 13 47  1  0
 14 48  1  0
 15 49  1  0
 16 50  1  1
 17 51  1  0
 17 52  1  0
 20 53  1  0
 22 54  1  0
 23 55  1  6
 24 56  1  0
 25 57  1  0
 26 58  1  1
 27 59  1  0
 28 60  1  0
 30 61  1  0
 31 62  1  0
 32 63  1  0
 33 64  1  0
M  CHG  1   1   1
M  END
>  <filename_input>  (17) 
7R6J_2I7_docked.sdf

>  <pdb_id>  (17) 
7R6J_2I7

>  <pose_rank>  (17) 
16

>  <num_atoms_heavy>  (17) 
33

>  <num_torsions>  (17) 
7

>  <pose>  (17) 
[-8.4861347214286, -39.418191526519806, -35.93926525906083, 0.6033485137383705, -1.0748956561775131, 1.5332360464924293, 11.891220703571317, 3.7664138290675404, -3.0494237059479525, 37.28781338979984, -0.053987768186753875, -14.865763457782757, -1.9033191981501132]

>  <energy>  (17) 
-700.9126009483028

>  <inter_energy>  (17) 
-727.6213430346046

>  <intra_energy>  (17) 
26.997436801911178

>  <rmsd>  (17) 
4.06587

>  <sdf_rank>  (17) 
0

$$$$

     RDKit          3D

 64 67  0  0  0  0  0  0  0  0999 V2000
   -7.8529  -41.6644  -33.5521 N   0  0  2  0  0  0  0  0  0  0  0  0
   -8.9979  -34.9154  -41.3844 N   0  0  0  0  0  0  0  0  0  0  0  0
   -6.5087  -42.2977  -33.7183 C   0  0  0  0  0  0  0  0  0  0  0  0
   -8.1764  -41.5551  -32.1198 C   0  0  2  0  0  0  0  0  0  0  0  0
   -9.5628  -40.8272  -31.8502 C   0  0  0  0  0  0  0  0  0  0  0  0
   -8.7435  -42.1962  -34.3174 C   0  0  0  0  0  0  0  0  0  0  0  0
   -9.1167  -41.3579  -35.6488 C   0  0  0  0  0  0  0  0  0  0  0  0
   -9.0023  -40.8473  -38.0258 C   0  0  0  0  0  0  0  0  0  0  0  0
   -6.4529  -39.1720  -40.0191 C   0  0  0  0  0  0  0  0  0  0  0  0
   -4.0251  -38.5772  -39.6985 C   0  0  0  0  0  0  0  0  0  0  0  0
   -7.1952  -36.5514  -40.8484 C   0  0  0  0  0  0  0  0  0  0  0  0
   -8.6615  -32.7190  -42.2175 C   0  0  0  0  0  0  0  0  0  0  0  0
   -7.3116  -32.9648  -42.1595 C   0  0  0  0  0  0  0  0  0  0  0  0
   -8.1491  -37.5707  -40.7718 C   0  0  0  0  0  0  0  0  0  0  0  0
  -10.5271  -39.6134  -36.6764 C   0  0  0  0  0  0  0  0  0  0  0  0
   -7.0632  -40.7049  -31.4131 C   0  0  2  0  0  0  0  0  0  0  0  0
   -8.4493  -41.0371  -39.4535 C   0  0  0  0  0  0  0  0  0  0  0  0
   -7.7666  -38.8581  -40.3423 C   0  0  0  0  0  0  0  0  0  0  0  0
   -5.4844  -38.1732  -40.0984 C   0  0  0  0  0  0  0  0  0  0  0  0
   -5.8600  -36.8584  -40.5225 C   0  0  0  0  0  0  0  0  0  0  0  0
   -7.7030  -35.1370  -41.3381 C   0  0  0  0  0  0  0  0  0  0  0  0
   -9.5212  -33.7489  -41.8085 C   0  0  0  0  0  0  0  0  0  0  0  0
   -5.7225  -41.2878  -31.6391 C   0  0  1  0  0  0  0  0  0  0  0  0
   -9.9515  -39.8413  -37.8951 C   0  0  0  0  0  0  0  0  0  0  0  0
  -10.0883  -40.3801  -35.5503 C   0  0  0  0  0  0  0  0  0  0  0  0
   -5.4375  -41.3593  -33.0806 C   0  0  1  0  0  0  0  0  0  0  0  0
   -8.5511  -41.6117  -36.8944 C   0  0  0  0  0  0  0  0  0  0  0  0
   -8.7935  -39.8847  -40.2781 N   0  0  0  0  0  0  0  0  0  0  0  0
   -6.8650  -34.1676  -41.7274 N   0  0  0  0  0  0  0  0  0  0  0  0
   -7.3608  -40.6716  -30.0085 O   0  0  0  0  0  0  0  0  0  0  0  0
   -4.7969  -40.3490  -30.9506 O   0  0  0  0  0  0  0  0  0  0  0  0
   -4.1153  -41.9524  -33.2953 O   0  0  0  0  0  0  0  0  0  0  0  0
   -9.3809  -39.4817  -31.8366 O   0  0  0  0  0  0  0  0  0  0  0  0
   -7.8380  -40.6928  -33.8938 H   0  0  0  0  0  0  0  0  0  0  0  0
   -6.4939  -43.2749  -33.2134 H   0  0  0  0  0  0  0  0  0  0  0  0
   -6.2916  -42.4468  -34.7863 H   0  0  0  0  0  0  0  0  0  0  0  0
   -8.2394  -42.5814  -31.7290 H   0  0  0  0  0  0  0  0  0  0  0  0
  -10.2747  -41.0914  -32.6460 H   0  0  0  0  0  0  0  0  0  0  0  0
   -9.9589  -41.1499  -30.8761 H   0  0  0  0  0  0  0  0  0  0  0  0
   -8.3727  -43.1828  -34.6323 H   0  0  0  0  0  0  0  0  0  0  0  0
   -9.6664  -42.2357  -33.7201 H   0  0  0  0  0  0  0  0  0  0  0  0
   -6.1817  -40.1910  -39.7060 H   0  0  0  0  0  0  0  0  0  0  0  0
   -3.9387  -38.6011  -38.6022 H   0  0  0  0  0  0  0  0  0  0  0  0
   -3.7955  -39.5727  -40.1062 H   0  0  0  0  0  0  0  0  0  0  0  0
   -3.3162  -37.8415  -40.1062 H   0  0  0  0  0  0  0  0  0  0  0  0
   -9.0527  -31.7533  -42.5704 H   0  0  0  0  0  0  0  0  0  0  0  0
   -6.5955  -32.1869  -42.4631 H   0  0  0  0  0  0  0  0  0  0  0  0
   -9.1951  -37.3689  -41.0459 H   0  0  0  0  0  0  0  0  0  0  0  0
  -11.3143  -38.8535  -36.5630 H   0  0  0  0  0  0  0  0  0  0  0  0
   -7.0516  -39.6874  -31.8308 H   0  0  0  0  0  0  0  0  0  0  0  0
   -7.3550  -41.1401  -39.4097 H   0  0  0  0  0  0  0  0  0  0  0  0
   -8.8914  -41.9424  -39.8950 H   0  0  0  0  0  0  0  0  0  0  0  0
   -5.0921  -36.0742  -40.5951 H   0  0  0  0  0  0  0  0  0  0  0  0
  -10.6116  -33.6056  -41.8339 H   0  0  0  0  0  0  0  0  0  0  0  0
   -5.6277  -42.3146  -31.2563 H   0  0  0  0  0  0  0  0  0  0  0  0
  -10.2377  -39.2329  -38.7657 H   0  0  0  0  0  0  0  0  0  0  0  0
  -10.5424  -40.1835  -34.5679 H   0  0  0  0  0  0  0  0  0  0  0  0
   -5.4608  -40.3539  -33.5263 H   0  0  0  0  0  0  0  0  0  0  0  0
   -7.7743  -42.3818  -37.0114 H   0  0  0  0  0  0  0  0  0  0  0  0
   -9.6921  -39.8046  -40.7751 H   0  0  0  0  0  0  0  0  0  0  0  0
   -6.5220  -40.7656  -29.4911 H   0  0  0  0  0  0  0  0  0  0  0  0
   -4.8949  -40.4484  -29.9705 H   0  0  0  0  0  0  0  0  0  0  0  0
   -3.6927  -42.1420  -32.4204 H   0  0  0  0  0  0  0  0  0  0  0  0
   -9.3380  -39.1640  -30.9000 H   0  0  0  0  0  0  0  0  0  0  0  0
  1  3  1  0
  1  4  1  0
  1  6  1  0
  2 21  2  0
  2 22  1  0
  3 26  1  0
  4  5  1  0
  4 16  1  0
  5 33  1  0
  6  7  1  0
  7 25  2  0
  7 27  1  0
  8 17  1  0
  8 24  1  0
  8 27  2  0
  9 18  2  0
  9 19  1  0
 10 19  1  0
 11 14  2  0
 11 20  1  0
 11 21  1  0
 12 13  1  0
 12 22  2  0
 13 29  2  0
 14 18  1  0
 15 24  2  0
 15 25  1  0
 16 23  1  0
 16 30  1  0
 17 28  1  0
 18 28  1  0
 19 20  2  0
 21 29  1  0
 23 26  1  0
 23 31  1  0
 26 32  1  0
  1 34  1  6
  3 35  1  0
  3 36  1  0
  4 37  1  1
  5 38  1  0
  5 39  1  0
  6 40  1  0
  6 41  1  0
  9 42  1  0
 10 43  1  0
 10 44  1  0
 10 45  1  0
 12 46  1  0
 13 47  1  0
 14 48  1  0
 15 49  1  0
 16 50  1  6
 17 51  1  0
 17 52  1  0
 20 53  1  0
 22 54  1  0
 23 55  1  1
 24 56  1  0
 25 57  1  0
 26 58  1  6
 27 59  1  0
 28 60  1  0
 30 61  1  0
 31 62  1  0
 32 63  1  0
 33 64  1  0
M  CHG  1   1   1
M  END
>  <filename_input>  (18) 
7R6J_2I7_docked.sdf

>  <pdb_id>  (18) 
7R6J_2I7

>  <pose_rank>  (18) 
17

>  <num_atoms_heavy>  (18) 
33

>  <num_torsions>  (18) 
7

>  <pose>  (18) 
[-9.116672160510545, -41.357895698296076, -35.64879514643931, 0.1744997699305559, 0.021023824450063476, -1.1865144235447282, 9.49177268168237, 3.3824139324479976, 5.634876505868328, 3.2223690536522085, -2.972614385007166, -3.0922136195785406, 0.5007449402375581]

>  <energy>  (18) 
-670.4429574221302

>  <inter_energy>  (18) 
-674.0523754689577

>  <intra_energy>  (18) 
10.459877583337391

>  <rmsd>  (18) 
2.9894

>  <sdf_rank>  (18) 
0

$$$$

     RDKit          3D

 64 67  0  0  0  0  0  0  0  0999 V2000
   -7.4436  -41.0191  -34.2939 N   0  0  2  0  0  0  0  0  0  0  0  0
   -4.2756  -34.2253  -42.6760 N   0  0  0  0  0  0  0  0  0  0  0  0
   -5.9562  -41.1703  -34.2967 C   0  0  0  0  0  0  0  0  0  0  0  0
   -8.0051  -41.6566  -33.0912 C   0  0  2  0  0  0  0  0  0  0  0  0
   -9.5798  -41.4814  -32.9732 C   0  0  0  0  0  0  0  0  0  0  0  0
   -7.9708  -41.3344  -35.4271 C   0  0  0  0  0  0  0  0  0  0  0  0
   -8.3039  -40.0983  -36.4150 C   0  0  0  0  0  0  0  0  0  0  0  0
   -7.9869  -38.7287  -38.4019 C   0  0  0  0  0  0  0  0  0  0  0  0
   -5.7687  -35.8398  -38.0251 C   0  0  0  0  0  0  0  0  0  0  0  0
   -5.6833  -33.8179  -36.5234 C   0  0  0  0  0  0  0  0  0  0  0  0
   -5.2882  -34.3471  -40.4014 C   0  0  0  0  0  0  0  0  0  0  0  0
   -4.4417  -32.3816  -44.1608 C   0  0  0  0  0  0  0  0  0  0  0  0
   -5.2077  -31.7560  -43.2080 C   0  0  0  0  0  0  0  0  0  0  0  0
   -5.4614  -35.7334  -40.4545 C   0  0  0  0  0  0  0  0  0  0  0  0
   -9.8246  -38.2363  -36.9706 C   0  0  0  0  0  0  0  0  0  0  0  0
   -7.3697  -40.9892  -31.8213 C   0  0  2  0  0  0  0  0  0  0  0  0
   -7.2478  -38.3190  -39.6927 C   0  0  0  0  0  0  0  0  0  0  0  0
   -5.7159  -36.4540  -39.2696 C   0  0  0  0  0  0  0  0  0  0  0  0
   -5.5886  -34.4601  -37.9486 C   0  0  0  0  0  0  0  0  0  0  0  0
   -5.3403  -33.7137  -39.1447 C   0  0  0  0  0  0  0  0  0  0  0  0
   -5.0072  -33.6121  -41.7722 C   0  0  0  0  0  0  0  0  0  0  0  0
   -3.9672  -33.6674  -43.8625 C   0  0  0  0  0  0  0  0  0  0  0  0
   -5.8931  -41.0706  -31.8581 C   0  0  1  0  0  0  0  0  0  0  0  0
   -9.0824  -37.9378  -38.0789 C   0  0  0  0  0  0  0  0  0  0  0  0
   -9.4135  -39.3235  -36.1354 C   0  0  0  0  0  0  0  0  0  0  0  0
   -5.3788  -40.4055  -33.0652 C   0  0  1  0  0  0  0  0  0  0  0  0
   -7.5645  -39.8146  -37.5590 C   0  0  0  0  0  0  0  0  0  0  0  0
   -5.8898  -37.8932  -39.3751 N   0  0  0  0  0  0  0  0  0  0  0  0
   -5.4673  -32.3823  -42.0361 N   0  0  0  0  0  0  0  0  0  0  0  0
   -7.8770  -41.6731  -30.6648 O   0  0  0  0  0  0  0  0  0  0  0  0
   -5.4590  -40.3630  -30.6241 O   0  0  0  0  0  0  0  0  0  0  0  0
   -3.9177  -40.5052  -33.1014 O   0  0  0  0  0  0  0  0  0  0  0  0
   -9.8743  -40.2114  -32.5939 O   0  0  0  0  0  0  0  0  0  0  0  0
   -7.7046  -40.0260  -34.2119 H   0  0  0  0  0  0  0  0  0  0  0  0
   -5.6914  -42.2358  -34.2294 H   0  0  0  0  0  0  0  0  0  0  0  0
   -5.5371  -40.7585  -35.2267 H   0  0  0  0  0  0  0  0  0  0  0  0
   -7.7780  -42.7304  -33.1652 H   0  0  0  0  0  0  0  0  0  0  0  0
  -10.0443  -41.6882  -33.9487 H   0  0  0  0  0  0  0  0  0  0  0  0
   -9.9681  -42.1843  -32.2213 H   0  0  0  0  0  0  0  0  0  0  0  0
   -7.2729  -42.0055  -35.9492 H   0  0  0  0  0  0  0  0  0  0  0  0
   -8.9402  -41.7962  -35.1882 H   0  0  0  0  0  0  0  0  0  0  0  0
   -5.9496  -36.4319  -37.1159 H   0  0  0  0  0  0  0  0  0  0  0  0
   -5.5678  -34.6012  -35.7598 H   0  0  0  0  0  0  0  0  0  0  0  0
   -4.8858  -33.0697  -36.4047 H   0  0  0  0  0  0  0  0  0  0  0  0
   -6.6629  -33.3316  -36.4047 H   0  0  0  0  0  0  0  0  0  0  0  0
   -4.2097  -31.8941  -45.1192 H   0  0  0  0  0  0  0  0  0  0  0  0
   -5.6091  -30.7493  -43.3963 H   0  0  0  0  0  0  0  0  0  0  0  0
   -5.3993  -36.2605  -41.4180 H   0  0  0  0  0  0  0  0  0  0  0  0
  -10.7228  -37.6508  -36.7246 H   0  0  0  0  0  0  0  0  0  0  0  0
   -7.6372  -39.9227  -31.7891 H   0  0  0  0  0  0  0  0  0  0  0  0
   -7.2093  -39.1779  -40.3788 H   0  0  0  0  0  0  0  0  0  0  0  0
   -7.7859  -37.4859  -40.1684 H   0  0  0  0  0  0  0  0  0  0  0  0
   -5.1874  -32.6262  -39.0810 H   0  0  0  0  0  0  0  0  0  0  0  0
   -3.3497  -34.2144  -44.5901 H   0  0  0  0  0  0  0  0  0  0  0  0
   -5.5181  -42.1041  -31.8938 H   0  0  0  0  0  0  0  0  0  0  0  0
   -9.3505  -37.0778  -38.7103 H   0  0  0  0  0  0  0  0  0  0  0  0
  -10.0039  -39.5512  -35.2357 H   0  0  0  0  0  0  0  0  0  0  0  0
   -5.6703  -39.3448  -33.0723 H   0  0  0  0  0  0  0  0  0  0  0  0
   -6.6746  -40.4090  -37.8136 H   0  0  0  0  0  0  0  0  0  0  0  0
   -5.1160  -38.5587  -39.2366 H   0  0  0  0  0  0  0  0  0  0  0  0
   -7.5458  -41.2266  -29.8457 H   0  0  0  0  0  0  0  0  0  0  0  0
   -5.7676  -40.8660  -29.8292 H   0  0  0  0  0  0  0  0  0  0  0  0
   -3.5656  -40.5293  -32.1764 H   0  0  0  0  0  0  0  0  0  0  0  0
   -9.8870  -40.1568  -31.6055 H   0  0  0  0  0  0  0  0  0  0  0  0
  1  3  1  0
  1  4  1  0
  1  6  1  0
  2 21  2  0
  2 22  1  0
  3 26  1  0
  4  5  1  0
  4 16  1  0
  5 33  1  0
  6  7  1  0
  7 25  2  0
  7 27  1  0
  8 17  1  0
  8 24  1  0
  8 27  2  0
  9 18  2  0
  9 19  1  0
 10 19  1  0
 11 14  2  0
 11 20  1  0
 11 21  1  0
 12 13  1  0
 12 22  2  0
 13 29  2  0
 14 18  1  0
 15 24  2  0
 15 25  1  0
 16 23  1  0
 16 30  1  0
 17 28  1  0
 18 28  1  0
 19 20  2  0
 21 29  1  0
 23 26  1  0
 23 31  1  0
 26 32  1  0
  1 34  1  1
  3 35  1  0
  3 36  1  0
  4 37  1  6
  5 38  1  0
  5 39  1  0
  6 40  1  0
  6 41  1  0
  9 42  1  0
 10 43  1  0
 10 44  1  0
 10 45  1  0
 12 46  1  0
 13 47  1  0
 14 48  1  0
 15 49  1  0
 16 50  1  1
 17 51  1  0
 17 52  1  0
 20 53  1  0
 22 54  1  0
 23 55  1  1
 24 56  1  0
 25 57  1  0
 26 58  1  6
 27 59  1  0
 28 60  1  0
 30 61  1  0
 31 62  1  0
 32 63  1  0
 33 64  1  0
M  CHG  1   1   1
M  END
>  <filename_input>  (19) 
7R6J_2I7_docked.sdf

>  <pdb_id>  (19) 
7R6J_2I7

>  <pose_rank>  (19) 
18

>  <num_atoms_heavy>  (19) 
33

>  <num_torsions>  (19) 
7

>  <pose>  (19) 
[-8.303873768557091, -40.098319319415964, -36.41502036865114, 0.5813704365430868, 0.1262984694682321, -1.0354352165277136, 3.3848281823847746, 3.448831266745025, -0.4745081413907008, 4.9879408922103465, -0.04502798357090636, -1.7658391555005701, -0.3618564808633519]

>  <energy>  (19) 
-599.3823788225143

>  <inter_energy>  (19) 
-608.9669604958832

>  <intra_energy>  (19) 
2.634383070856661

>  <rmsd>  (19) 
3.78677

>  <sdf_rank>  (19) 
0

$$$$

     RDKit          3D

 64 67  0  0  0  0  0  0  0  0999 V2000
   -7.4466  -41.3755  -33.9692 N   0  0  2  0  0  0  0  0  0  0  0  0
   -4.9850  -35.7117  -38.0474 N   0  0  0  0  0  0  0  0  0  0  0  0
   -6.5176  -40.2813  -33.5510 C   0  0  0  0  0  0  0  0  0  0  0  0
   -7.2509  -42.5506  -33.1038 C   0  0  2  0  0  0  0  0  0  0  0  0
   -8.2508  -43.7399  -33.4360 C   0  0  0  0  0  0  0  0  0  0  0  0
   -7.4292  -41.5736  -35.2428 C   0  0  0  0  0  0  0  0  0  0  0  0
   -8.7133  -41.0232  -36.0569 C   0  0  0  0  0  0  0  0  0  0  0  0
   -9.9770  -40.4985  -38.0699 C   0  0  0  0  0  0  0  0  0  0  0  0
   -9.5278  -37.5394  -39.8550 C   0  0  0  0  0  0  0  0  0  0  0  0
  -10.3008  -35.1600  -39.5520 C   0  0  0  0  0  0  0  0  0  0  0  0
   -6.8247  -36.9622  -39.1723 C   0  0  0  0  0  0  0  0  0  0  0  0
   -2.6839  -36.2873  -38.1186 C   0  0  0  0  0  0  0  0  0  0  0  0
   -3.0362  -37.3677  -38.8899 C   0  0  0  0  0  0  0  0  0  0  0  0
   -7.2122  -38.2633  -39.5063 C   0  0  0  0  0  0  0  0  0  0  0  0
  -11.0433  -40.2168  -35.9598 C   0  0  0  0  0  0  0  0  0  0  0  0
   -7.5107  -42.1311  -31.6145 C   0  0  2  0  0  0  0  0  0  0  0  0
  -10.1481  -40.3677  -39.5975 C   0  0  0  0  0  0  0  0  0  0  0  0
   -8.5517  -38.5273  -39.8587 C   0  0  0  0  0  0  0  0  0  0  0  0
   -9.1650  -36.2375  -39.5152 C   0  0  0  0  0  0  0  0  0  0  0  0
   -7.8063  -35.9524  -39.1657 C   0  0  0  0  0  0  0  0  0  0  0  0
   -5.3062  -36.7481  -38.7895 C   0  0  0  0  0  0  0  0  0  0  0  0
   -3.7152  -35.4385  -37.6906 C   0  0  0  0  0  0  0  0  0  0  0  0
   -6.6453  -40.9979  -31.2205 C   0  0  1  0  0  0  0  0  0  0  0  0
  -11.0815  -40.1099  -37.3221 C   0  0  0  0  0  0  0  0  0  0  0  0
   -9.8379  -40.6700  -35.3354 C   0  0  0  0  0  0  0  0  0  0  0  0
   -6.8895  -39.8442  -32.0999 C   0  0  1  0  0  0  0  0  0  0  0  0
   -8.7605  -40.9435  -37.4452 C   0  0  0  0  0  0  0  0  0  0  0  0
   -8.9066  -39.8950  -40.1990 N   0  0  0  0  0  0  0  0  0  0  0  0
   -4.3358  -37.5692  -39.2114 N   0  0  0  0  0  0  0  0  0  0  0  0
   -7.2454  -43.2721  -30.7836 O   0  0  0  0  0  0  0  0  0  0  0  0
   -7.0463  -40.7041  -29.8188 O   0  0  0  0  0  0  0  0  0  0  0  0
   -6.0170  -38.7329  -31.7129 O   0  0  0  0  0  0  0  0  0  0  0  0
   -9.4380  -43.5310  -32.8111 O   0  0  0  0  0  0  0  0  0  0  0  0
   -8.4257  -41.0952  -33.8154 H   0  0  0  0  0  0  0  0  0  0  0  0
   -5.4801  -40.6461  -33.5743 H   0  0  0  0  0  0  0  0  0  0  0  0
   -6.6087  -39.4264  -34.2373 H   0  0  0  0  0  0  0  0  0  0  0  0
   -6.2223  -42.9020  -33.2728 H   0  0  0  0  0  0  0  0  0  0  0  0
   -8.4136  -43.7872  -34.5229 H   0  0  0  0  0  0  0  0  0  0  0  0
   -7.8172  -44.6877  -33.0845 H   0  0  0  0  0  0  0  0  0  0  0  0
   -6.5344  -41.0794  -35.6493 H   0  0  0  0  0  0  0  0  0  0  0  0
   -7.4358  -42.6655  -35.3761 H   0  0  0  0  0  0  0  0  0  0  0  0
  -10.5690  -37.7803  -40.1157 H   0  0  0  0  0  0  0  0  0  0  0  0
  -10.5844  -34.8910  -38.5238 H   0  0  0  0  0  0  0  0  0  0  0  0
   -9.9398  -34.2645  -40.0791 H   0  0  0  0  0  0  0  0  0  0  0  0
  -11.1760  -35.5677  -40.0791 H   0  0  0  0  0  0  0  0  0  0  0  0
   -1.6352  -36.0955  -37.8474 H   0  0  0  0  0  0  0  0  0  0  0  0
   -2.2650  -38.0669  -39.2453 H   0  0  0  0  0  0  0  0  0  0  0  0
   -6.4742  -39.0789  -39.4942 H   0  0  0  0  0  0  0  0  0  0  0  0
  -11.9242  -39.9588  -35.3537 H   0  0  0  0  0  0  0  0  0  0  0  0
   -8.5537  -41.8013  -31.4981 H   0  0  0  0  0  0  0  0  0  0  0  0
  -10.4073  -41.3495  -40.0205 H   0  0  0  0  0  0  0  0  0  0  0  0
  -10.9507  -39.6464  -39.8109 H   0  0  0  0  0  0  0  0  0  0  0  0
   -7.5240  -34.9263  -38.8870 H   0  0  0  0  0  0  0  0  0  0  0  0
   -3.4893  -34.5588  -37.0701 H   0  0  0  0  0  0  0  0  0  0  0  0
   -5.5722  -41.2249  -31.3030 H   0  0  0  0  0  0  0  0  0  0  0  0
  -11.9798  -39.7193  -37.8224 H   0  0  0  0  0  0  0  0  0  0  0  0
   -9.8052  -40.7400  -34.2381 H   0  0  0  0  0  0  0  0  0  0  0  0
   -7.9392  -39.5231  -32.0286 H   0  0  0  0  0  0  0  0  0  0  0  0
   -7.8848  -41.2154  -38.0528 H   0  0  0  0  0  0  0  0  0  0  0  0
   -8.3278  -40.4832  -40.8154 H   0  0  0  0  0  0  0  0  0  0  0  0
   -7.3067  -43.0083  -29.8314 H   0  0  0  0  0  0  0  0  0  0  0  0
   -6.4257  -41.1588  -29.1958 H   0  0  0  0  0  0  0  0  0  0  0  0
   -5.9727  -38.6765  -30.7255 H   0  0  0  0  0  0  0  0  0  0  0  0
   -9.3034  -43.5547  -31.8306 H   0  0  0  0  0  0  0  0  0  0  0  0
  1  3  1  0
  1  4  1  0
  1  6  1  0
  2 21  2  0
  2 22  1  0
  3 26  1  0
  4  5  1  0
  4 16  1  0
  5 33  1  0
  6  7  1  0
  7 25  2  0
  7 27  1  0
  8 17  1  0
  8 24  1  0
  8 27  2  0
  9 18  2  0
  9 19  1  0
 10 19  1  0
 11 14  2  0
 11 20  1  0
 11 21  1  0
 12 13  1  0
 12 22  2  0
 13 29  2  0
 14 18  1  0
 15 24  2  0
 15 25  1  0
 16 23  1  0
 16 30  1  0
 17 28  1  0
 18 28  1  0
 19 20  2  0
 21 29  1  0
 23 26  1  0
 23 31  1  0
 26 32  1  0
  1 34  1  1
  3 35  1  0
  3 36  1  0
  4 37  1  1
  5 38  1  0
  5 39  1  0
  6 40  1  0
  6 41  1  0
  9 42  1  0
 10 43  1  0
 10 44  1  0
 10 45  1  0
 12 46  1  0
 13 47  1  0
 14 48  1  0
 15 49  1  0
 16 50  1  6
 17 51  1  0
 17 52  1  0
 20 53  1  0
 22 54  1  0
 23 55  1  1
 24 56  1  0
 25 57  1  0
 26 58  1  6
 27 59  1  0
 28 60  1  0
 30 61  1  0
 31 62  1  0
 32 63  1  0
 33 64  1  0
M  CHG  1   1   1
M  END
>  <filename_input>  (20) 
7R6J_2I7_docked.sdf

>  <pdb_id>  (20) 
7R6J_2I7

>  <pose_rank>  (20) 
19

>  <num_atoms_heavy>  (20) 
33

>  <num_torsions>  (20) 
7

>  <pose>  (20) 
[-8.713344842750375, -41.02323094624334, -36.05690338290299, 0.0008848243861017168, 0.5412128180516137, -0.6884759010315985, -1.8188320729004632, 3.3211415365982315, -0.6223234990052671, -7.138498370546925, 6.761405566359055, 2.0925571055650574, -2.472308866888863]

>  <energy>  (20) 
-679.7816479241894

>  <inter_energy>  (20) 
-695.6742354859439

>  <intra_energy>  (20) 
12.336060960773434

>  <rmsd>  (20) 
3.96442

>  <sdf_rank>  (20) 
0

$$$$

     RDKit          3D

 64 67  0  0  0  0  0  0  0  0999 V2000
   -7.4436  -40.9025  -34.0930 N   0  0  2  0  0  0  0  0  0  0  0  0
  -10.1796  -32.1245  -37.1708 N   0  0  0  0  0  0  0  0  0  0  0  0
   -6.8052  -39.6983  -33.4787 C   0  0  0  0  0  0  0  0  0  0  0  0
   -6.9103  -42.1224  -33.4641 C   0  0  2  0  0  0  0  0  0  0  0  0
   -7.5885  -43.4508  -34.0116 C   0  0  0  0  0  0  0  0  0  0  0  0
   -7.4410  -40.8557  -35.3812 C   0  0  0  0  0  0  0  0  0  0  0  0
   -8.6383  -40.0034  -36.0555 C   0  0  0  0  0  0  0  0  0  0  0  0
   -9.5667  -38.3453  -37.5764 C   0  0  0  0  0  0  0  0  0  0  0  0
  -11.5253  -35.3700  -40.9306 C   0  0  0  0  0  0  0  0  0  0  0  0
  -12.3311  -33.9142  -42.8231 C   0  0  0  0  0  0  0  0  0  0  0  0
  -10.5373  -33.1825  -39.3994 C   0  0  0  0  0  0  0  0  0  0  0  0
   -9.0687  -30.0629  -36.7871 C   0  0  0  0  0  0  0  0  0  0  0  0
   -8.8613  -29.9874  -38.1426 C   0  0  0  0  0  0  0  0  0  0  0  0
  -10.4303  -34.4919  -38.9212 C   0  0  0  0  0  0  0  0  0  0  0  0
  -11.0718  -39.6761  -36.2989 C   0  0  0  0  0  0  0  0  0  0  0  0
   -7.1926  -42.0614  -31.9219 C   0  0  2  0  0  0  0  0  0  0  0  0
   -9.4565  -37.2164  -38.6222 C   0  0  0  0  0  0  0  0  0  0  0  0
  -10.9094  -35.5644  -39.7010 C   0  0  0  0  0  0  0  0  0  0  0  0
  -11.6513  -34.0718  -41.4212 C   0  0  0  0  0  0  0  0  0  0  0  0
  -11.1597  -32.9737  -40.6453 C   0  0  0  0  0  0  0  0  0  0  0  0
   -9.9766  -32.0363  -38.4666 C   0  0  0  0  0  0  0  0  0  0  0  0
   -9.7572  -31.1849  -36.3030 C   0  0  0  0  0  0  0  0  0  0  0  0
   -6.6267  -40.8324  -31.3240 C   0  0  1  0  0  0  0  0  0  0  0  0
  -10.8639  -38.6672  -37.1975 C   0  0  0  0  0  0  0  0  0  0  0  0
   -9.9385  -40.3344  -35.7240 C   0  0  0  0  0  0  0  0  0  0  0  0
   -7.2021  -39.6429  -31.9706 C   0  0  1  0  0  0  0  0  0  0  0  0
   -8.4255  -38.9970  -36.9924 C   0  0  0  0  0  0  0  0  0  0  0  0
  -10.7754  -36.9077  -39.1624 N   0  0  0  0  0  0  0  0  0  0  0  0
   -9.3241  -30.9711  -38.9496 N   0  0  0  0  0  0  0  0  0  0  0  0
   -6.6025  -43.2245  -31.3206 O   0  0  0  0  0  0  0  0  0  0  0  0
   -7.0176  -40.9116  -29.8912 O   0  0  0  0  0  0  0  0  0  0  0  0
   -6.6240  -38.4316  -31.3837 O   0  0  0  0  0  0  0  0  0  0  0  0
   -6.6326  -44.3040  -34.4609 O   0  0  0  0  0  0  0  0  0  0  0  0
   -8.4528  -40.9196  -33.8873 H   0  0  0  0  0  0  0  0  0  0  0  0
   -5.7115  -39.7697  -33.5723 H   0  0  0  0  0  0  0  0  0  0  0  0
   -7.1465  -38.7873  -33.9921 H   0  0  0  0  0  0  0  0  0  0  0  0
   -5.8360  -42.1570  -33.6981 H   0  0  0  0  0  0  0  0  0  0  0  0
   -8.1558  -43.9319  -33.2012 H   0  0  0  0  0  0  0  0  0  0  0  0
   -8.2672  -43.1974  -34.8394 H   0  0  0  0  0  0  0  0  0  0  0  0
   -6.4875  -40.4100  -35.7010 H   0  0  0  0  0  0  0  0  0  0  0  0
   -7.5848  -41.8927  -35.7188 H   0  0  0  0  0  0  0  0  0  0  0  0
  -11.9068  -36.2257  -41.5070 H   0  0  0  0  0  0  0  0  0  0  0  0
  -13.3947  -33.6675  -42.6893 H   0  0  0  0  0  0  0  0  0  0  0  0
  -11.8351  -33.1072  -43.3825 H   0  0  0  0  0  0  0  0  0  0  0  0
  -12.2409  -34.8571  -43.3825 H   0  0  0  0  0  0  0  0  0  0  0  0
   -8.7094  -29.2752  -36.1085 H   0  0  0  0  0  0  0  0  0  0  0  0
   -8.3208  -29.1306  -38.5713 H   0  0  0  0  0  0  0  0  0  0  0  0
   -9.9736  -34.6849  -37.9393 H   0  0  0  0  0  0  0  0  0  0  0  0
  -12.0931  -39.9769  -36.0223 H   0  0  0  0  0  0  0  0  0  0  0  0
   -8.2779  -42.0415  -31.7435 H   0  0  0  0  0  0  0  0  0  0  0  0
   -9.0384  -36.3176  -38.1455 H   0  0  0  0  0  0  0  0  0  0  0  0
   -8.7985  -37.5446  -39.4404 H   0  0  0  0  0  0  0  0  0  0  0  0
  -11.2700  -31.9487  -41.0292 H   0  0  0  0  0  0  0  0  0  0  0  0
   -9.9502  -31.2963  -35.2258 H   0  0  0  0  0  0  0  0  0  0  0  0
   -5.5368  -40.7531  -31.4498 H   0  0  0  0  0  0  0  0  0  0  0  0
  -11.7172  -38.1144  -37.6173 H   0  0  0  0  0  0  0  0  0  0  0  0
  -10.1090  -41.1352  -34.9895 H   0  0  0  0  0  0  0  0  0  0  0  0
   -8.2939  -39.6249  -31.8381 H   0  0  0  0  0  0  0  0  0  0  0  0
   -7.4047  -38.7055  -37.2806 H   0  0  0  0  0  0  0  0  0  0  0  0
  -11.5497  -37.5869  -39.1622 H   0  0  0  0  0  0  0  0  0  0  0  0
   -6.6437  -43.1433  -30.3348 H   0  0  0  0  0  0  0  0  0  0  0  0
   -6.2231  -40.7507  -29.3230 H   0  0  0  0  0  0  0  0  0  0  0  0
   -6.6549  -38.4962  -30.3963 H   0  0  0  0  0  0  0  0  0  0  0  0
   -6.1699  -44.7171  -33.6892 H   0  0  0  0  0  0  0  0  0  0  0  0
  1  3  1  0
  1  4  1  0
  1  6  1  0
  2 21  2  0
  2 22  1  0
  3 26  1  0
  4  5  1  0
  4 16  1  0
  5 33  1  0
  6  7  1  0
  7 25  2  0
  7 27  1  0
  8 17  1  0
  8 24  1  0
  8 27  2  0
  9 18  2  0
  9 19  1  0
 10 19  1  0
 11 14  2  0
 11 20  1  0
 11 21  1  0
 12 13  1  0
 12 22  2  0
 13 29  2  0
 14 18  1  0
 15 24  2  0
 15 25  1  0
 16 23  1  0
 16 30  1  0
 17 28  1  0
 18 28  1  0
 19 20  2  0
 21 29  1  0
 23 26  1  0
 23 31  1  0
 26 32  1  0
  1 34  1  1
  3 35  1  0
  3 36  1  0
  4 37  1  1
  5 38  1  0
  5 39  1  0
  6 40  1  0
  6 41  1  0
  9 42  1  0
 10 43  1  0
 10 44  1  0
 10 45  1  0
 12 46  1  0
 13 47  1  0
 14 48  1  0
 15 49  1  0
 16 50  1  6
 17 51  1  0
 17 52  1  0
 20 53  1  0
 22 54  1  0
 23 55  1  1
 24 56  1  0
 25 57  1  0
 26 58  1  6
 27 59  1  0
 28 60  1  0
 30 61  1  0
 31 62  1  0
 32 63  1  0
 33 64  1  0
M  CHG  1   1   1
M  END
>  <filename_input>  (21) 
7R6J_2I7_docked.sdf

>  <pdb_id>  (21) 
7R6J_2I7

>  <pose_rank>  (21) 
20

>  <num_atoms_heavy>  (21) 
33

>  <num_torsions>  (21) 
7

>  <pose>  (21) 
[-8.63832761513504, -40.00339725646685, -36.055534740283576, -4.3663848257234195, -2.800575361669561, 1.484332456221371, 3.751194028588761, -2.5718348991799833, 3.0205522393181683, 9.063087878362523, 10.663863470052567, -7.37822916319172, -0.4275193612118148]

>  <energy>  (21) 
-596.3763321724456

>  <inter_energy>  (21) 
-608.9588817807729

>  <intra_energy>  (21) 
0.18838658283310727

>  <rmsd>  (21) 
3.77355

>  <sdf_rank>  (21) 
0

$$$$

     RDKit          3D

 64 67  0  0  0  0  0  0  0  0999 V2000
   -8.5179  -41.3956  -34.6193 N   0  0  2  0  0  0  0  0  0  0  0  0
   -5.0705  -36.0284  -41.2680 N   0  0  0  0  0  0  0  0  0  0  0  0
   -8.9031  -42.2655  -33.4660 C   0  0  0  0  0  0  0  0  0  0  0  0
   -7.3326  -40.5972  -34.2645 C   0  0  2  0  0  0  0  0  0  0  0  0
   -6.8123  -39.6922  -35.4624 C   0  0  0  0  0  0  0  0  0  0  0  0
   -9.5260  -40.7633  -35.1149 C   0  0  0  0  0  0  0  0  0  0  0  0
   -9.3816  -40.3134  -36.6613 C   0  0  0  0  0  0  0  0  0  0  0  0
   -9.1343  -40.7112  -39.0498 C   0  0  0  0  0  0  0  0  0  0  0  0
   -7.2599  -40.5148  -42.8064 C   0  0  0  0  0  0  0  0  0  0  0  0
   -7.0643  -39.4785  -45.0952 C   0  0  0  0  0  0  0  0  0  0  0  0
   -5.9848  -38.3369  -41.4887 C   0  0  0  0  0  0  0  0  0  0  0  0
   -4.0970  -35.1141  -39.3065 C   0  0  0  0  0  0  0  0  0  0  0  0
   -4.3554  -36.3127  -38.6879 C   0  0  0  0  0  0  0  0  0  0  0  0
   -6.4377  -39.4420  -40.7618 C   0  0  0  0  0  0  0  0  0  0  0  0
   -9.4559  -38.4733  -38.3036 C   0  0  0  0  0  0  0  0  0  0  0  0
   -6.1638  -41.5704  -33.8795 C   0  0  2  0  0  0  0  0  0  0  0  0
   -8.9199  -41.6111  -40.2844 C   0  0  0  0  0  0  0  0  0  0  0  0
   -7.0512  -40.5193  -41.4334 C   0  0  0  0  0  0  0  0  0  0  0  0
   -6.8253  -39.4184  -43.5486 C   0  0  0  0  0  0  0  0  0  0  0  0
   -6.1908  -38.3220  -42.8817 C   0  0  0  0  0  0  0  0  0  0  0  0
   -5.3079  -37.1712  -40.6633 C   0  0  0  0  0  0  0  0  0  0  0  0
   -4.4784  -34.9882  -40.6503 C   0  0  0  0  0  0  0  0  0  0  0  0
   -6.5677  -42.4841  -32.7885 C   0  0  1  0  0  0  0  0  0  0  0  0
   -9.2337  -39.3533  -39.3257 C   0  0  0  0  0  0  0  0  0  0  0  0
   -9.5184  -38.9718  -36.9634 C   0  0  0  0  0  0  0  0  0  0  0  0
   -7.7415  -43.2718  -33.1957 C   0  0  1  0  0  0  0  0  0  0  0  0
   -9.1853  -41.2141  -37.7035 C   0  0  0  0  0  0  0  0  0  0  0  0
   -7.5049  -41.6461  -40.6354 N   0  0  0  0  0  0  0  0  0  0  0  0
   -4.9484  -37.3131  -39.3810 N   0  0  0  0  0  0  0  0  0  0  0  0
   -5.0431  -40.7711  -33.4697 O   0  0  0  0  0  0  0  0  0  0  0  0
   -5.3783  -43.3529  -32.5825 O   0  0  0  0  0  0  0  0  0  0  0  0
   -8.1441  -44.1615  -32.1037 O   0  0  0  0  0  0  0  0  0  0  0  0
   -6.8702  -40.3906  -36.6254 O   0  0  0  0  0  0  0  0  0  0  0  0
   -8.2185  -41.9704  -35.4198 H   0  0  0  0  0  0  0  0  0  0  0  0
   -9.0721  -41.6453  -32.5734 H   0  0  0  0  0  0  0  0  0  0  0  0
   -9.8289  -42.8121  -33.6988 H   0  0  0  0  0  0  0  0  0  0  0  0
   -7.6291  -39.9399  -33.4339 H   0  0  0  0  0  0  0  0  0  0  0  0
   -7.4438  -38.7952  -35.5433 H   0  0  0  0  0  0  0  0  0  0  0  0
   -5.7709  -39.3962  -35.2680 H   0  0  0  0  0  0  0  0  0  0  0  0
  -10.4073  -41.4166  -35.0341 H   0  0  0  0  0  0  0  0  0  0  0  0
   -9.6072  -39.8303  -34.5380 H   0  0  0  0  0  0  0  0  0  0  0  0
   -7.7595  -41.3618  -43.2994 H   0  0  0  0  0  0  0  0  0  0  0  0
   -8.1136  -39.7421  -45.2941 H   0  0  0  0  0  0  0  0  0  0  0  0
   -6.8425  -38.4967  -45.5388 H   0  0  0  0  0  0  0  0  0  0  0  0
   -6.4047  -40.2388  -45.5388 H   0  0  0  0  0  0  0  0  0  0  0  0
   -3.6106  -34.2862  -38.7697 H   0  0  0  0  0  0  0  0  0  0  0  0
   -4.0814  -36.4594  -37.6327 H   0  0  0  0  0  0  0  0  0  0  0  0
   -6.3157  -39.4710  -39.6690 H   0  0  0  0  0  0  0  0  0  0  0  0
   -9.5845  -37.4001  -38.5076 H   0  0  0  0  0  0  0  0  0  0  0  0
   -5.8987  -42.1938  -34.7461 H   0  0  0  0  0  0  0  0  0  0  0  0
   -9.2642  -42.6307  -40.0565 H   0  0  0  0  0  0  0  0  0  0  0  0
   -9.4924  -41.2051  -41.1314 H   0  0  0  0  0  0  0  0  0  0  0  0
   -5.8583  -37.4525  -43.4678 H   0  0  0  0  0  0  0  0  0  0  0  0
   -4.2957  -34.0496  -41.1942 H   0  0  0  0  0  0  0  0  0  0  0  0
   -6.8567  -41.9564  -31.8677 H   0  0  0  0  0  0  0  0  0  0  0  0
   -9.1343  -38.9890  -40.3589 H   0  0  0  0  0  0  0  0  0  0  0  0
   -9.6816  -38.2591  -36.1416 H   0  0  0  0  0  0  0  0  0  0  0  0
   -7.5092  -43.8733  -34.0869 H   0  0  0  0  0  0  0  0  0  0  0  0
   -9.0713  -42.2894  -37.5016 H   0  0  0  0  0  0  0  0  0  0  0  0
   -6.8774  -42.4082  -40.3413 H   0  0  0  0  0  0  0  0  0  0  0  0
   -5.0024  -40.7421  -32.4809 H   0  0  0  0  0  0  0  0  0  0  0  0
   -5.2188  -43.4694  -31.6124 H   0  0  0  0  0  0  0  0  0  0  0  0
   -7.9480  -43.7281  -31.2356 H   0  0  0  0  0  0  0  0  0  0  0  0
   -6.9502  -41.3570  -36.4263 H   0  0  0  0  0  0  0  0  0  0  0  0
  1  3  1  0
  1  4  1  0
  1  6  1  0
  2 21  2  0
  2 22  1  0
  3 26  1  0
  4  5  1  0
  4 16  1  0
  5 33  1  0
  6  7  1  0
  7 25  2  0
  7 27  1  0
  8 17  1  0
  8 24  1  0
  8 27  2  0
  9 18  2  0
  9 19  1  0
 10 19  1  0
 11 14  2  0
 11 20  1  0
 11 21  1  0
 12 13  1  0
 12 22  2  0
 13 29  2  0
 14 18  1  0
 15 24  2  0
 15 25  1  0
 16 23  1  0
 16 30  1  0
 17 28  1  0
 18 28  1  0
 19 20  2  0
 21 29  1  0
 23 26  1  0
 23 31  1  0
 26 32  1  0
  1 34  1  6
  3 35  1  0
  3 36  1  0
  4 37  1  1
  5 38  1  0
  5 39  1  0
  6 40  1  0
  6 41  1  0
  9 42  1  0
 10 43  1  0
 10 44  1  0
 10 45  1  0
 12 46  1  0
 13 47  1  0
 14 48  1  0
 15 49  1  0
 16 50  1  6
 17 51  1  0
 17 52  1  0
 20 53  1  0
 22 54  1  0
 23 55  1  1
 24 56  1  0
 25 57  1  0
 26 58  1  6
 27 59  1  0
 28 60  1  0
 30 61  1  0
 31 62  1  0
 32 63  1  0
 33 64  1  0
M  CHG  1   1   1
M  END
>  <filename_input>  (22) 
7R6J_2I7_docked.sdf

>  <pdb_id>  (22) 
7R6J_2I7

>  <pose_rank>  (22) 
21

>  <num_atoms_heavy>  (22) 
33

>  <num_torsions>  (22) 
7

>  <pose>  (22) 
[-9.381643151777729, -40.31338389917144, -36.6613254175261, 0.19615529720923852, 0.6477945813115599, 4.362725704276977, 2.5658069411407682, 2.446953387117526, 0.11316060408565877, -1.8649855425669155, 6.506900298298838, 1.4194017681851079, -2.6826911564399243]

>  <energy>  (22) 
-389.200564341068

>  <inter_energy>  (22) 
-530.7203919481257

>  <intra_energy>  (22) 
143.84692777696034

>  <rmsd>  (22) 
4.72273

>  <sdf_rank>  (22) 
0

$$$$

     RDKit          3D

 64 67  0  0  0  0  0  0  0  0999 V2000
   -7.6938  -40.9587  -33.6529 N   0  0  2  0  0  0  0  0  0  0  0  0
   -6.2198  -40.0622  -41.1756 N   0  0  0  0  0  0  0  0  0  0  0  0
   -8.9596  -40.2215  -33.3536 C   0  0  0  0  0  0  0  0  0  0  0  0
   -6.5665  -40.3101  -32.9625 C   0  0  2  0  0  0  0  0  0  0  0  0
   -5.1886  -41.0731  -33.1712 C   0  0  0  0  0  0  0  0  0  0  0  0
   -7.5526  -41.1998  -34.9113 C   0  0  0  0  0  0  0  0  0  0  0  0
   -8.3305  -40.1944  -35.9107 C   0  0  0  0  0  0  0  0  0  0  0  0
   -8.6085  -38.1303  -37.1701 C   0  0  0  0  0  0  0  0  0  0  0  0
   -5.4645  -35.3567  -39.2439 C   0  0  0  0  0  0  0  0  0  0  0  0
   -4.1638  -33.9983  -40.9212 C   0  0  0  0  0  0  0  0  0  0  0  0
   -5.4554  -37.7132  -40.8416 C   0  0  0  0  0  0  0  0  0  0  0  0
   -5.5619  -41.4847  -42.9576 C   0  0  0  0  0  0  0  0  0  0  0  0
   -4.8056  -40.4425  -43.4350 C   0  0  0  0  0  0  0  0  0  0  0  0
   -6.0787  -37.7042  -39.5901 C   0  0  0  0  0  0  0  0  0  0  0  0
  -10.2143  -39.8625  -37.4694 C   0  0  0  0  0  0  0  0  0  0  0  0
   -6.8579  -40.2961  -31.4209 C   0  0  2  0  0  0  0  0  0  0  0  0
   -8.1993  -36.7030  -37.5891 C   0  0  0  0  0  0  0  0  0  0  0  0
   -6.0884  -36.5230  -38.8202 C   0  0  0  0  0  0  0  0  0  0  0  0
   -4.8286  -35.3471  -40.4838 C   0  0  0  0  0  0  0  0  0  0  0  0
   -4.8200  -36.5359  -41.2814 C   0  0  0  0  0  0  0  0  0  0  0  0
   -5.4881  -39.0752  -41.6429 C   0  0  0  0  0  0  0  0  0  0  0  0
   -6.2907  -41.2641  -41.7797 C   0  0  0  0  0  0  0  0  0  0  0  0
   -8.1474  -39.6334  -31.1275 C   0  0  1  0  0  0  0  0  0  0  0  0
   -9.7812  -38.5969  -37.7509 C   0  0  0  0  0  0  0  0  0  0  0  0
   -9.4769  -40.6529  -36.5314 C   0  0  0  0  0  0  0  0  0  0  0  0
   -9.2431  -40.3264  -31.8227 C   0  0  1  0  0  0  0  0  0  0  0  0
   -7.8716  -38.9175  -36.2187 C   0  0  0  0  0  0  0  0  0  0  0  0
   -6.7492  -36.5621  -37.5263 N   0  0  0  0  0  0  0  0  0  0  0  0
   -4.7819  -39.2664  -42.7647 N   0  0  0  0  0  0  0  0  0  0  0  0
   -5.7814  -39.5973  -30.7763 O   0  0  0  0  0  0  0  0  0  0  0  0
   -8.2868  -39.7460  -29.6511 O   0  0  0  0  0  0  0  0  0  0  0  0
  -10.5133  -39.6538  -31.5397 O   0  0  0  0  0  0  0  0  0  0  0  0
   -5.2634  -42.3150  -32.6274 O   0  0  0  0  0  0  0  0  0  0  0  0
   -7.7302  -41.9106  -33.2612 H   0  0  0  0  0  0  0  0  0  0  0  0
   -8.8501  -39.1649  -33.6392 H   0  0  0  0  0  0  0  0  0  0  0  0
   -9.7938  -40.6582  -33.9223 H   0  0  0  0  0  0  0  0  0  0  0  0
   -6.4734  -39.2993  -33.3863 H   0  0  0  0  0  0  0  0  0  0  0  0
   -4.9775  -41.1579  -34.2474 H   0  0  0  0  0  0  0  0  0  0  0  0
   -4.3829  -40.5090  -32.6787 H   0  0  0  0  0  0  0  0  0  0  0  0
   -6.4794  -41.1469  -35.1469 H   0  0  0  0  0  0  0  0  0  0  0  0
   -7.9981  -42.1916  -35.0779 H   0  0  0  0  0  0  0  0  0  0  0  0
   -5.4722  -34.4565  -38.6118 H   0  0  0  0  0  0  0  0  0  0  0  0
   -3.8801  -33.4227  -40.0277 H   0  0  0  0  0  0  0  0  0  0  0  0
   -3.2666  -34.2095  -41.5215 H   0  0  0  0  0  0  0  0  0  0  0  0
   -4.8778  -33.4153  -41.5215 H   0  0  0  0  0  0  0  0  0  0  0  0
   -5.5949  -42.4532  -43.4780 H   0  0  0  0  0  0  0  0  0  0  0  0
   -4.2208  -40.5629  -44.3589 H   0  0  0  0  0  0  0  0  0  0  0  0
   -6.5601  -38.6161  -39.2072 H   0  0  0  0  0  0  0  0  0  0  0  0
  -11.1144  -40.2666  -37.9556 H   0  0  0  0  0  0  0  0  0  0  0  0
   -6.9286  -41.3281  -31.0469 H   0  0  0  0  0  0  0  0  0  0  0  0
   -8.5397  -36.5135  -38.6178 H   0  0  0  0  0  0  0  0  0  0  0  0
   -8.6629  -35.9782  -36.9038 H   0  0  0  0  0  0  0  0  0  0  0  0
   -4.3081  -36.5296  -42.2550 H   0  0  0  0  0  0  0  0  0  0  0  0
   -6.9136  -42.0643  -41.3536 H   0  0  0  0  0  0  0  0  0  0  0  0
   -8.1824  -38.5873  -31.4659 H   0  0  0  0  0  0  0  0  0  0  0  0
  -10.3567  -37.9529  -38.4320 H   0  0  0  0  0  0  0  0  0  0  0  0
   -9.8369  -41.6652  -36.2952 H   0  0  0  0  0  0  0  0  0  0  0  0
   -9.3054  -41.3736  -31.4918 H   0  0  0  0  0  0  0  0  0  0  0  0
   -6.9632  -38.5182  -35.7440 H   0  0  0  0  0  0  0  0  0  0  0  0
   -6.2347  -36.4957  -36.6365 H   0  0  0  0  0  0  0  0  0  0  0  0
   -5.8854  -39.6648  -29.7941 H   0  0  0  0  0  0  0  0  0  0  0  0
   -7.5972  -39.1884  -29.2110 H   0  0  0  0  0  0  0  0  0  0  0  0
  -10.6401  -39.5867  -30.5601 H   0  0  0  0  0  0  0  0  0  0  0  0
   -5.2591  -42.2437  -31.6400 H   0  0  0  0  0  0  0  0  0  0  0  0
  1  3  1  0
  1  4  1  0
  1  6  1  0
  2 21  2  0
  2 22  1  0
  3 26  1  0
  4  5  1  0
  4 16  1  0
  5 33  1  0
  6  7  1  0
  7 25  2  0
  7 27  1  0
  8 17  1  0
  8 24  1  0
  8 27  2  0
  9 18  2  0
  9 19  1  0
 10 19  1  0
 11 14  2  0
 11 20  1  0
 11 21  1  0
 12 13  1  0
 12 22  2  0
 13 29  2  0
 14 18  1  0
 15 24  2  0
 15 25  1  0
 16 23  1  0
 16 30  1  0
 17 28  1  0
 18 28  1  0
 19 20  2  0
 21 29  1  0
 23 26  1  0
 23 31  1  0
 26 32  1  0
  1 34  1  1
  3 35  1  0
  3 36  1  0
  4 37  1  6
  5 38  1  0
  5 39  1  0
  6 40  1  0
  6 41  1  0
  9 42  1  0
 10 43  1  0
 10 44  1  0
 10 45  1  0
 12 46  1  0
 13 47  1  0
 14 48  1  0
 15 49  1  0
 16 50  1  1
 17 51  1  0
 17 52  1  0
 20 53  1  0
 22 54  1  0
 23 55  1  1
 24 56  1  0
 25 57  1  0
 26 58  1  1
 27 59  1  0
 28 60  1  0
 30 61  1  0
 31 62  1  0
 32 63  1  0
 33 64  1  0
M  CHG  1   1   1
M  END
>  <filename_input>  (23) 
7R6J_2I7_docked.sdf

>  <pdb_id>  (23) 
7R6J_2I7

>  <pose_rank>  (23) 
22

>  <num_atoms_heavy>  (23) 
33

>  <num_torsions>  (23) 
7

>  <pose>  (23) 
[-8.330459847113211, -40.19443076359393, -35.91071862584113, -5.119300985048273, 0.2926580297549618, -0.9916323472578579, -3.4021486648381076, -0.6888960052343908, -0.27238245898785085, 12.893390463662676, 9.808447725924973, -1.4690066298688413, 0.4023980180563305]

>  <energy>  (23) 
-605.6943166282924

>  <inter_energy>  (23) 
-619.1353350847162

>  <intra_energy>  (23) 
19.114381702548446

>  <rmsd>  (23) 
5.07509

>  <sdf_rank>  (23) 
0

$$$$

     RDKit          3D

 64 67  0  0  0  0  0  0  0  0999 V2000
   -8.2196  -41.2335  -32.9079 N   0  0  2  0  0  0  0  0  0  0  0  0
  -11.3452  -31.9870  -39.2951 N   0  0  0  0  0  0  0  0  0  0  0  0
   -7.2580  -40.1202  -32.6405 C   0  0  0  0  0  0  0  0  0  0  0  0
   -7.5160  -42.3518  -33.5579 C   0  0  2  0  0  0  0  0  0  0  0  0
   -8.4528  -43.6090  -33.8155 C   0  0  0  0  0  0  0  0  0  0  0  0
   -9.3065  -40.8197  -33.4639 C   0  0  0  0  0  0  0  0  0  0  0  0
   -9.1732  -40.3548  -35.0068 C   0  0  0  0  0  0  0  0  0  0  0  0
   -9.6738  -38.9437  -36.9258 C   0  0  0  0  0  0  0  0  0  0  0  0
   -7.9438  -35.4740  -37.5853 C   0  0  0  0  0  0  0  0  0  0  0  0
   -6.2208  -33.9299  -36.5866 C   0  0  0  0  0  0  0  0  0  0  0  0
   -9.9099  -33.4330  -37.8589 C   0  0  0  0  0  0  0  0  0  0  0  0
  -13.0150  -30.4931  -38.5130 C   0  0  0  0  0  0  0  0  0  0  0  0
  -12.7072  -30.9054  -37.2397 C   0  0  0  0  0  0  0  0  0  0  0  0
  -10.1833  -34.7433  -38.2625 C   0  0  0  0  0  0  0  0  0  0  0  0
   -7.9977  -40.6183  -37.1603 C   0  0  0  0  0  0  0  0  0  0  0  0
   -6.3503  -42.8284  -32.6222 C   0  0  2  0  0  0  0  0  0  0  0  0
  -10.4366  -37.8124  -37.6458 C   0  0  0  0  0  0  0  0  0  0  0  0
   -9.2037  -35.7448  -38.1033 C   0  0  0  0  0  0  0  0  0  0  0  0
   -7.6470  -34.1723  -37.1863 C   0  0  0  0  0  0  0  0  0  0  0  0
   -8.6356  -33.1471  -37.3318 C   0  0  0  0  0  0  0  0  0  0  0  0
  -11.0593  -32.3688  -38.0702 C   0  0  0  0  0  0  0  0  0  0  0  0
  -12.2933  -31.0700  -39.5683 C   0  0  0  0  0  0  0  0  0  0  0  0
   -5.4383  -41.7108  -32.2943 C   0  0  1  0  0  0  0  0  0  0  0  0
   -8.7489  -39.6186  -37.7125 C   0  0  0  0  0  0  0  0  0  0  0  0
   -8.2302  -40.9849  -35.7965 C   0  0  0  0  0  0  0  0  0  0  0  0
   -6.1815  -40.6280  -31.6315 C   0  0  1  0  0  0  0  0  0  0  0  0
   -9.9178  -39.3170  -35.5586 C   0  0  0  0  0  0  0  0  0  0  0  0
   -9.5344  -37.0921  -38.5368 N   0  0  0  0  0  0  0  0  0  0  0  0
  -11.7346  -31.8276  -37.0481 N   0  0  0  0  0  0  0  0  0  0  0  0
   -5.6354  -43.8696  -33.3059 O   0  0  0  0  0  0  0  0  0  0  0  0
   -4.4345  -42.3167  -31.3794 O   0  0  0  0  0  0  0  0  0  0  0  0
   -5.2741  -39.5194  -31.3254 O   0  0  0  0  0  0  0  0  0  0  0  0
   -8.6393  -44.2892  -32.6552 O   0  0  0  0  0  0  0  0  0  0  0  0
   -8.5738  -41.6237  -32.0229 H   0  0  0  0  0  0  0  0  0  0  0  0
   -6.7723  -39.8159  -33.5794 H   0  0  0  0  0  0  0  0  0  0  0  0
   -7.7907  -39.2547  -32.2198 H   0  0  0  0  0  0  0  0  0  0  0  0
   -7.1564  -41.9798  -34.5286 H   0  0  0  0  0  0  0  0  0  0  0  0
   -9.4255  -43.2671  -34.1987 H   0  0  0  0  0  0  0  0  0  0  0  0
   -7.9762  -44.2720  -34.5525 H   0  0  0  0  0  0  0  0  0  0  0  0
  -10.0409  -41.6375  -33.4198 H   0  0  0  0  0  0  0  0  0  0  0  0
   -9.6051  -39.9206  -32.9050 H   0  0  0  0  0  0  0  0  0  0  0  0
   -7.1936  -36.2729  -37.4917 H   0  0  0  0  0  0  0  0  0  0  0  0
   -6.2783  -33.9397  -35.4882 H   0  0  0  0  0  0  0  0  0  0  0  0
   -5.5406  -34.7254  -36.9252 H   0  0  0  0  0  0  0  0  0  0  0  0
   -5.8415  -32.9545  -36.9252 H   0  0  0  0  0  0  0  0  0  0  0  0
  -13.7960  -29.7408  -38.6978 H   0  0  0  0  0  0  0  0  0  0  0  0
  -13.2490  -30.4878  -36.3783 H   0  0  0  0  0  0  0  0  0  0  0  0
  -11.1600  -34.9923  -38.7031 H   0  0  0  0  0  0  0  0  0  0  0  0
   -7.2275  -41.1323  -37.7541 H   0  0  0  0  0  0  0  0  0  0  0  0
   -6.7641  -43.2011  -31.6736 H   0  0  0  0  0  0  0  0  0  0  0  0
  -11.2604  -38.2445  -38.2329 H   0  0  0  0  0  0  0  0  0  0  0  0
  -10.8388  -37.1141  -36.8971 H   0  0  0  0  0  0  0  0  0  0  0  0
   -8.3957  -32.1179  -37.0265 H   0  0  0  0  0  0  0  0  0  0  0  0
  -12.4995  -30.7767  -40.6082 H   0  0  0  0  0  0  0  0  0  0  0  0
   -4.9685  -41.2618  -33.1819 H   0  0  0  0  0  0  0  0  0  0  0  0
   -8.6220  -39.3506  -38.7718 H   0  0  0  0  0  0  0  0  0  0  0  0
   -7.6349  -41.8003  -35.3597 H   0  0  0  0  0  0  0  0  0  0  0  0
   -6.6379  -40.9913  -30.6989 H   0  0  0  0  0  0  0  0  0  0  0  0
  -10.6780  -38.7926  -34.9610 H   0  0  0  0  0  0  0  0  0  0  0  0
   -9.1614  -37.5050  -39.4036 H   0  0  0  0  0  0  0  0  0  0  0  0
   -5.2197  -44.4752  -32.6422 H   0  0  0  0  0  0  0  0  0  0  0  0
   -4.7033  -42.1544  -30.4405 H   0  0  0  0  0  0  0  0  0  0  0  0
   -5.1932  -39.4206  -30.3437 H   0  0  0  0  0  0  0  0  0  0  0  0
   -8.4737  -43.6853  -31.8884 H   0  0  0  0  0  0  0  0  0  0  0  0
  1  3  1  0
  1  4  1  0
  1  6  1  0
  2 21  2  0
  2 22  1  0
  3 26  1  0
  4  5  1  0
  4 16  1  0
  5 33  1  0
  6  7  1  0
  7 25  2  0
  7 27  1  0
  8 17  1  0
  8 24  1  0
  8 27  2  0
  9 18  2  0
  9 19  1  0
 10 19  1  0
 11 14  2  0
 11 20  1  0
 11 21  1  0
 12 13  1  0
 12 22  2  0
 13 29  2  0
 14 18  1  0
 15 24  2  0
 15 25  1  0
 16 23  1  0
 16 30  1  0
 17 28  1  0
 18 28  1  0
 19 20  2  0
 21 29  1  0
 23 26  1  0
 23 31  1  0
 26 32  1  0
  1 34  1  1
  3 35  1  0
  3 36  1  0
  4 37  1  6
  5 38  1  0
  5 39  1  0
  6 40  1  0
  6 41  1  0
  9 42  1  0
 10 43  1  0
 10 44  1  0
 10 45  1  0
 12 46  1  0
 13 47  1  0
 14 48  1  0
 15 49  1  0
 16 50  1  1
 17 51  1  0
 17 52  1  0
 20 53  1  0
 22 54  1  0
 23 55  1  6
 24 56  1  0
 25 57  1  0
 26 58  1  1
 27 59  1  0
 28 60  1  0
 30 61  1  0
 31 62  1  0
 32 63  1  0
 33 64  1  0
M  CHG  1   1   1
M  END
>  <filename_input>  (24) 
7R6J_2I7_docked.sdf

>  <pdb_id>  (24) 
7R6J_2I7

>  <pose_rank>  (24) 
23

>  <num_atoms_heavy>  (24) 
33

>  <num_torsions>  (24) 
7

>  <pose>  (24) 
[-9.173174827174838, -40.35476286152173, -35.00683894682795, 0.6858406159347818, -0.5332901773844393, 1.9288977122397255, 11.541705647697787, 0.12705425009963686, -6.795458334695555, -16.568308897977833, -0.24837867741741082, -7.866748688007205, 5.30817356935463]

>  <energy>  (24) 
-589.322588073492

>  <inter_energy>  (24) 
-660.2955323050961

>  <intra_energy>  (24) 
51.90989803232051

>  <rmsd>  (24) 
2.76918

>  <sdf_rank>  (24) 
0

$$$$

     RDKit          3D

 64 67  0  0  0  0  0  0  0  0999 V2000
   -5.4230  -37.5414  -40.2973 N   0  0  2  0  0  0  0  0  0  0  0  0
   -7.0590  -40.4046  -32.3025 N   0  0  0  0  0  0  0  0  0  0  0  0
   -4.4747  -38.4125  -41.0569 C   0  0  0  0  0  0  0  0  0  0  0  0
   -5.3499  -36.1629  -40.8098 C   0  0  2  0  0  0  0  0  0  0  0  0
   -6.3799  -35.1818  -40.1021 C   0  0  0  0  0  0  0  0  0  0  0  0
   -5.3213  -37.7008  -39.0222 C   0  0  0  0  0  0  0  0  0  0  0  0
   -6.6255  -38.3081  -38.2840 C   0  0  0  0  0  0  0  0  0  0  0  0
   -8.2393  -40.0538  -37.7621 C   0  0  0  0  0  0  0  0  0  0  0  0
   -7.3392  -44.1217  -35.9128 C   0  0  0  0  0  0  0  0  0  0  0  0
   -6.7899  -45.9056  -34.2197 C   0  0  0  0  0  0  0  0  0  0  0  0
   -7.8159  -42.1176  -33.9475 C   0  0  0  0  0  0  0  0  0  0  0  0
   -8.4721  -38.8986  -31.1334 C   0  0  0  0  0  0  0  0  0  0  0  0
   -9.5304  -39.4581  -31.8065 C   0  0  0  0  0  0  0  0  0  0  0  0
   -7.9431  -41.8244  -35.3086 C   0  0  0  0  0  0  0  0  0  0  0  0
   -8.3851  -37.9901  -36.5837 C   0  0  0  0  0  0  0  0  0  0  0  0
   -5.6981  -36.1729  -42.3397 C   0  0  2  0  0  0  0  0  0  0  0  0
   -8.8640  -41.4535  -37.9374 C   0  0  0  0  0  0  0  0  0  0  0  0
   -7.7202  -42.8341  -36.2672 C   0  0  0  0  0  0  0  0  0  0  0  0
   -7.1967  -44.4325  -34.5619 C   0  0  0  0  0  0  0  0  0  0  0  0
   -7.4304  -43.4204  -33.5767 C   0  0  0  0  0  0  0  0  0  0  0  0
   -8.0825  -40.9325  -32.9363 C   0  0  0  0  0  0  0  0  0  0  0  0
   -7.1939  -39.4068  -31.4077 C   0  0  0  0  0  0  0  0  0  0  0  0
   -4.8094  -37.0923  -43.0833 C   0  0  1  0  0  0  0  0  0  0  0  0
   -8.8792  -39.2394  -36.8362 C   0  0  0  0  0  0  0  0  0  0  0  0
   -7.2532  -37.5307  -37.3294 C   0  0  0  0  0  0  0  0  0  0  0  0
   -4.9307  -38.4574  -42.5485 C   0  0  1  0  0  0  0  0  0  0  0  0
   -7.1088  -39.5912  -38.5210 C   0  0  0  0  0  0  0  0  0  0  0  0
   -7.8651  -42.4817  -37.6698 N   0  0  0  0  0  0  0  0  0  0  0  0
   -9.3119  -40.4637  -32.6862 N   0  0  0  0  0  0  0  0  0  0  0  0
   -5.5514  -34.8320  -42.8327 O   0  0  0  0  0  0  0  0  0  0  0  0
   -5.2979  -37.0155  -44.4859 O   0  0  0  0  0  0  0  0  0  0  0  0
   -4.0355  -39.3573  -43.2798 O   0  0  0  0  0  0  0  0  0  0  0  0
   -5.7056  -34.2157  -39.4271 O   0  0  0  0  0  0  0  0  0  0  0  0
   -6.3958  -37.8343  -40.4669 H   0  0  0  0  0  0  0  0  0  0  0  0
   -3.4575  -37.9987  -40.9921 H   0  0  0  0  0  0  0  0  0  0  0  0
   -4.4726  -39.4274  -40.6326 H   0  0  0  0  0  0  0  0  0  0  0  0
   -4.3302  -35.8027  -40.6087 H   0  0  0  0  0  0  0  0  0  0  0  0
   -7.0217  -34.7149  -40.8636 H   0  0  0  0  0  0  0  0  0  0  0  0
   -6.9991  -35.7537  -39.3953 H   0  0  0  0  0  0  0  0  0  0  0  0
   -4.4784  -38.3819  -38.8332 H   0  0  0  0  0  0  0  0  0  0  0  0
   -5.1832  -36.6926  -38.6045 H   0  0  0  0  0  0  0  0  0  0  0  0
   -7.1532  -44.8828  -36.6849 H   0  0  0  0  0  0  0  0  0  0  0  0
   -6.7549  -46.0320  -33.1275 H   0  0  0  0  0  0  0  0  0  0  0  0
   -7.5301  -46.5988  -34.6456 H   0  0  0  0  0  0  0  0  0  0  0  0
   -5.7987  -46.1206  -34.6456 H   0  0  0  0  0  0  0  0  0  0  0  0
   -8.6208  -38.0847  -30.4084 H   0  0  0  0  0  0  0  0  0  0  0  0
  -10.5522  -39.0903  -31.6315 H   0  0  0  0  0  0  0  0  0  0  0  0
   -8.2164  -40.8087  -35.6307 H   0  0  0  0  0  0  0  0  0  0  0  0
   -8.8497  -37.3487  -35.8203 H   0  0  0  0  0  0  0  0  0  0  0  0
   -6.7293  -36.5278  -42.4836 H   0  0  0  0  0  0  0  0  0  0  0  0
   -9.7029  -41.5688  -37.2352 H   0  0  0  0  0  0  0  0  0  0  0  0
   -9.2256  -41.5611  -38.9707 H   0  0  0  0  0  0  0  0  0  0  0  0
   -7.3068  -43.6647  -32.5113 H   0  0  0  0  0  0  0  0  0  0  0  0
   -6.3108  -38.9949  -30.8973 H   0  0  0  0  0  0  0  0  0  0  0  0
   -3.7455  -36.8246  -43.0024 H   0  0  0  0  0  0  0  0  0  0  0  0
   -9.7767  -39.5971  -36.3102 H   0  0  0  0  0  0  0  0  0  0  0  0
   -6.8677  -36.5189  -37.1349 H   0  0  0  0  0  0  0  0  0  0  0  0
   -5.9657  -38.8169  -42.6464 H   0  0  0  0  0  0  0  0  0  0  0  0
   -6.6356  -40.2387  -39.2739 H   0  0  0  0  0  0  0  0  0  0  0  0
   -7.3072  -42.9227  -38.4148 H   0  0  0  0  0  0  0  0  0  0  0  0
   -5.4828  -34.2053  -42.0693 H   0  0  0  0  0  0  0  0  0  0  0  0
   -6.2759  -36.8615  -44.4868 H   0  0  0  0  0  0  0  0  0  0  0  0
   -3.5052  -39.8903  -42.6357 H   0  0  0  0  0  0  0  0  0  0  0  0
   -5.8073  -34.3614  -38.4531 H   0  0  0  0  0  0  0  0  0  0  0  0
  1  3  1  0
  1  4  1  0
  1  6  1  0
  2 21  2  0
  2 22  1  0
  3 26  1  0
  4  5  1  0
  4 16  1  0
  5 33  1  0
  6  7  1  0
  7 25  2  0
  7 27  1  0
  8 17  1  0
  8 24  1  0
  8 27  2  0
  9 18  2  0
  9 19  1  0
 10 19  1  0
 11 14  2  0
 11 20  1  0
 11 21  1  0
 12 13  1  0
 12 22  2  0
 13 29  2  0
 14 18  1  0
 15 24  2  0
 15 25  1  0
 16 23  1  0
 16 30  1  0
 17 28  1  0
 18 28  1  0
 19 20  2  0
 21 29  1  0
 23 26  1  0
 23 31  1  0
 26 32  1  0
  1 34  1  6
  3 35  1  0
  3 36  1  0
  4 37  1  6
  5 38  1  0
  5 39  1  0
  6 40  1  0
  6 41  1  0
  9 42  1  0
 10 43  1  0
 10 44  1  0
 10 45  1  0
 12 46  1  0
 13 47  1  0
 14 48  1  0
 15 49  1  0
 16 50  1  1
 17 51  1  0
 17 52  1  0
 20 53  1  0
 22 54  1  0
 23 55  1  6
 24 56  1  0
 25 57  1  0
 26 58  1  1
 27 59  1  0
 28 60  1  0
 30 61  1  0
 31 62  1  0
 32 63  1  0
 33 64  1  0
M  CHG  1   1   1
M  END
>  <filename_input>  (25) 
7R6J_2I7_docked.sdf

>  <pdb_id>  (25) 
7R6J_2I7

>  <pose_rank>  (25) 
24

>  <num_atoms_heavy>  (25) 
33

>  <num_torsions>  (25) 
7

>  <pose>  (25) 
[-6.625542468964692, -38.308131583435085, -38.28403958124536, 3.8473203989177662, -2.286506574769401, 0.5337800227188177, -3.6302203221289697, 3.1421258514207593, 2.8634455372344676, 0.8188424622994973, 3.14967989933952, -0.8263583255717497, -1.6176047439879317]

>  <energy>  (25) 
-537.0861611197885

>  <inter_energy>  (25) 
-574.781727895421

>  <intra_energy>  (25) 
31.375578413476436

>  <rmsd>  (25) 
8.71389

>  <sdf_rank>  (25) 
0

$$$$

     RDKit          3D

 64 67  0  0  0  0  0  0  0  0999 V2000
   -7.2780  -40.0050  -32.7770 N   0  0  2  0  0  0  0  0  0  0  0  0
   -9.7930  -34.4940  -37.6740 N   0  0  0  0  0  0  0  0  0  0  0  0
   -6.1330  -40.2970  -33.6930 C   0  0  0  0  0  0  0  0  0  0  0  0
   -7.9940  -41.2530  -32.4640 C   0  0  2  0  0  0  0  0  0  0  0  0
   -9.1880  -41.0430  -31.4370 C   0  0  0  0  0  0  0  0  0  0  0  0
   -7.9860  -39.0060  -33.1800 C   0  0  0  0  0  0  0  0  0  0  0  0
   -8.7540  -39.2120  -34.5880 C   0  0  0  0  0  0  0  0  0  0  0  0
   -8.9240  -39.2170  -37.0160 C   0  0  0  0  0  0  0  0  0  0  0  0
   -5.3280  -36.8470  -38.6490 C   0  0  0  0  0  0  0  0  0  0  0  0
   -3.5540  -35.0810  -38.9400 C   0  0  0  0  0  0  0  0  0  0  0  0
   -7.3660  -34.9770  -37.9740 C   0  0  0  0  0  0  0  0  0  0  0  0
  -10.7120  -32.4030  -37.0300 C   0  0  0  0  0  0  0  0  0  0  0  0
   -9.4270  -31.9230  -36.9630 C   0  0  0  0  0  0  0  0  0  0  0  0
   -7.6450  -36.3460  -38.0260 C   0  0  0  0  0  0  0  0  0  0  0  0
  -10.7790  -40.0090  -35.7510 C   0  0  0  0  0  0  0  0  0  0  0  0
   -6.9890  -42.2610  -31.8040 C   0  0  2  0  0  0  0  0  0  0  0  0
   -8.3870  -38.9530  -38.4380 C   0  0  0  0  0  0  0  0  0  0  0  0
   -6.6190  -37.2590  -38.3450 C   0  0  0  0  0  0  0  0  0  0  0  0
   -5.0310  -35.4860  -38.6130 C   0  0  0  0  0  0  0  0  0  0  0  0
   -6.0600  -34.5480  -38.2800 C   0  0  0  0  0  0  0  0  0  0  0  0
   -8.5690  -34.0190  -37.6090 C   0  0  0  0  0  0  0  0  0  0  0  0
  -10.8790  -33.7450  -37.4020 C   0  0  0  0  0  0  0  0  0  0  0  0
   -5.8170  -42.4940  -32.6760 C   0  0  1  0  0  0  0  0  0  0  0  0
  -10.2210  -39.7120  -36.9630 C   0  0  0  0  0  0  0  0  0  0  0  0
  -10.0300  -39.7420  -34.5610 C   0  0  0  0  0  0  0  0  0  0  0  0
   -5.1250  -41.2240  -32.9450 C   0  0  1  0  0  0  0  0  0  0  0  0
   -8.1730  -38.9370  -35.8220 C   0  0  0  0  0  0  0  0  0  0  0  0
   -6.9570  -38.6720  -38.3860 N   0  0  0  0  0  0  0  0  0  0  0  0
   -8.3880  -32.7390  -37.2590 N   0  0  0  0  0  0  0  0  0  0  0  0
   -7.6900  -43.4930  -31.5730 O   0  0  0  0  0  0  0  0  0  0  0  0
   -4.9590  -43.4220  -31.8920 O   0  0  0  0  0  0  0  0  0  0  0  0
   -3.9760  -41.4620  -33.8220 O   0  0  0  0  0  0  0  0  0  0  0  0
   -8.7630  -40.3000  -30.3830 O   0  0  0  0  0  0  0  0  0  0  0  0
   -6.9341  -39.6634  -31.8682 H   0  0  0  0  0  0  0  0  0  0  0  0
   -6.5012  -40.8028  -34.5978 H   0  0  0  0  0  0  0  0  0  0  0  0
   -5.6370  -39.3602  -33.9870 H   0  0  0  0  0  0  0  0  0  0  0  0
   -8.4100  -41.6269  -33.4112 H   0  0  0  0  0  0  0  0  0  0  0  0
  -10.0156  -40.5222  -31.9408 H   0  0  0  0  0  0  0  0  0  0  0  0
   -9.5323  -42.0231  -31.0751 H   0  0  0  0  0  0  0  0  0  0  0  0
   -8.7429  -38.7960  -32.4100 H   0  0  0  0  0  0  0  0  0  0  0  0
   -7.2755  -38.1825  -33.3443 H   0  0  0  0  0  0  0  0  0  0  0  0
   -4.5536  -37.5821  -38.9135 H   0  0  0  0  0  0  0  0  0  0  0  0
   -2.9993  -34.9289  -38.0023 H   0  0  0  0  0  0  0  0  0  0  0  0
   -3.0751  -35.8810  -39.5237 H   0  0  0  0  0  0  0  0  0  0  0  0
   -3.5501  -34.1486  -39.5237 H   0  0  0  0  0  0  0  0  0  0  0  0
  -11.5754  -31.7609  -36.8012 H   0  0  0  0  0  0  0  0  0  0  0  0
   -9.2425  -30.8790  -36.6698 H   0  0  0  0  0  0  0  0  0  0  0  0
   -8.6622  -36.7098  -37.8186 H   0  0  0  0  0  0  0  0  0  0  0  0
  -11.7868  -40.4459  -35.6913 H   0  0  0  0  0  0  0  0  0  0  0  0
   -6.6140  -41.8453  -30.8571 H   0  0  0  0  0  0  0  0  0  0  0  0
   -8.5615  -39.8405  -39.0640 H   0  0  0  0  0  0  0  0  0  0  0  0
   -8.9104  -38.0857  -38.8668 H   0  0  0  0  0  0  0  0  0  0  0  0
   -5.8264  -33.4732  -38.2628 H   0  0  0  0  0  0  0  0  0  0  0  0
  -11.8864  -34.1813  -37.4709 H   0  0  0  0  0  0  0  0  0  0  0  0
   -6.0851  -42.9113  -33.6578 H   0  0  0  0  0  0  0  0  0  0  0  0
  -10.7945  -39.8638  -37.8893 H   0  0  0  0  0  0  0  0  0  0  0  0
  -10.4880  -39.9675  -33.5866 H   0  0  0  0  0  0  0  0  0  0  0  0
   -4.7764  -40.7708  -32.0053 H   0  0  0  0  0  0  0  0  0  0  0  0
   -7.1595  -38.5139  -35.8830 H   0  0  0  0  0  0  0  0  0  0  0  0
   -6.2438  -39.4151  -38.3789 H   0  0  0  0  0  0  0  0  0  0  0  0
   -7.7768  -43.6456  -30.5987 H   0  0  0  0  0  0  0  0  0  0  0  0
   -5.1026  -43.2666  -30.9249 H   0  0  0  0  0  0  0  0  0  0  0  0
   -3.1700  -41.6289  -33.2719 H   0  0  0  0  0  0  0  0  0  0  0  0
   -9.0195  -40.7484  -29.5384 H   0  0  0  0  0  0  0  0  0  0  0  0
  1  3  1  0
  1  4  1  0
  1  6  1  0
  2 21  2  0
  2 22  1  0
  3 26  1  0
  4  5  1  0
  4 16  1  0
  5 33  1  0
  6  7  1  0
  7 25  2  0
  7 27  1  0
  8 17  1  0
  8 24  1  0
  8 27  2  0
  9 18  2  0
  9 19  1  0
 10 19  1  0
 11 14  2  0
 11 20  1  0
 11 21  1  0
 12 13  1  0
 12 22  2  0
 13 29  2  0
 14 18  1  0
 15 24  2  0
 15 25  1  0
 16 23  1  0
 16 30  1  0
 17 28  1  0
 18 28  1  0
 19 20  2  0
 21 29  1  0
 23 26  1  0
 23 31  1  0
 26 32  1  0
  1 34  1  1
  3 35  1  0
  3 36  1  0
  4 37  1  6
  5 38  1  0
  5 39  1  0
  6 40  1  0
  6 41  1  0
  9 42  1  0
 10 43  1  0
 10 44  1  0
 10 45  1  0
 12 46  1  0
 13 47  1  0
 14 48  1  0
 15 49  1  0
 16 50  1  1
 17 51  1  0
 17 52  1  0
 20 53  1  0
 22 54  1  0
 23 55  1  6
 24 56  1  0
 25 57  1  0
 26 58  1  1
 27 59  1  0
 28 60  1  0
 30 61  1  0
 31 62  1  0
 32 63  1  0
 33 64  1  0
M  CHG  1   1   1
M  END
>  <filename_input>  (26) 
7R6J_2I7_docked.sdf

>  <pdb_id>  (26) 
7R6J_2I7

>  <pose_rank>  (26) 
25

>  <num_atoms_heavy>  (26) 
33

>  <num_torsions>  (26) 
7

>  <pose>  (26) 
[-8.754, -39.212, -34.588, 1e-06, 1e-06, 1e-06, 0.0, 0.0, 0.0, 0.0, 0.0, 0.0, 0.0]

>  <energy>  (26) 
-904.9381037108255

>  <inter_energy>  (26) 
-948.365864208645

>  <intra_energy>  (26) 
41.713391906107866

>  <rmsd>  (26) 
0.0

>  <sdf_rank>  (26) 
0

$$$$
