
     RDKit          3D

 58 61  0  0  0  0  0  0  0  0999 V2000
   30.0048   44.6118    9.3465 C   0  0  0  0  0  0  0  0  0  0  0  0
   28.9099   44.2646   10.1304 C   0  0  0  0  0  0  0  0  0  0  0  0
   27.8017   45.0439   10.2147 N   0  0  0  0  0  0  0  0  0  0  0  0
   27.7985   46.1981    9.5065 C   0  0  0  0  0  0  0  0  0  0  0  0
   28.8399   46.6422    8.7077 C   0  0  0  0  0  0  0  0  0  0  0  0
   29.9542   45.8123    8.6269 C   0  0  0  0  0  0  0  0  0  0  0  0
   31.0812   43.7264    9.3582 O   0  0  0  0  0  0  0  0  0  0  0  0
   28.9483   43.0583   10.8665 N   0  0  0  0  0  0  0  0  0  0  0  0
   32.1492   44.0243    8.4541 C   0  0  1  0  0  0  0  0  0  0  0  0
   33.0676   45.0235    9.0905 C   0  0  0  0  0  0  0  0  0  0  0  0
   32.8864   42.7256    8.2006 C   0  0  0  0  0  0  0  0  0  0  0  0
   33.6643   46.0626    8.3497 C   0  0  0  0  0  0  0  0  0  0  0  0
   34.4916   46.9858    9.0013 C   0  0  0  0  0  0  0  0  0  0  0  0
   34.6913   46.8947   10.3825 C   0  0  0  0  0  0  0  0  0  0  0  0
   34.1046   45.8613   11.1088 C   0  0  0  0  0  0  0  0  0  0  0  0
   33.2972   44.9180   10.4674 C   0  0  0  0  0  0  0  0  0  0  0  0
   34.3176   45.7732   12.4296 F   0  0  0  0  0  0  0  0  0  0  0  0
   33.4596   46.2576    6.9671 N   0  0  0  0  0  0  0  0  0  0  0  0
   33.1690   47.4900    6.5001 N   0  0  0  0  0  0  0  0  0  0  0  0
   33.4637   47.3950    5.1993 C   0  0  0  0  0  0  0  0  0  0  0  0
   33.9363   46.1067    4.9263 C   0  0  0  0  0  0  0  0  0  0  0  0
   33.9523   45.3960    6.0604 N   0  0  0  0  0  0  0  0  0  0  0  0
   28.7890   47.9231    8.0048 C   0  0  0  0  0  0  0  0  0  0  0  0
   27.7383   48.7210    7.5873 C   0  0  0  0  0  0  0  0  0  0  0  0
   28.1117   49.8678    6.9046 N   0  0  0  0  0  0  0  0  0  0  0  0
   29.4199   49.9715    6.8040 C   0  0  0  0  0  0  0  0  0  0  0  0
   30.2659   48.6853    7.5672 S   0  0  0  0  0  0  0  0  0  0  0  0
   26.2934   48.4731    7.7569 C   0  0  0  0  0  0  0  0  0  0  0  0
   30.1380   51.0629    6.0982 C   0  0  1  0  0  0  0  0  0  0  0  0
   29.6702   51.1983    4.6665 C   0  0  0  0  0  0  0  0  0  0  0  0
   30.0133   52.3272    6.7533 O   0  0  0  0  0  0  0  0  0  0  0  0
   31.6196   50.7441    6.1035 C   0  0  0  0  0  0  0  0  0  0  0  0
   28.5158   52.0258    4.5863 O   0  0  0  0  0  0  0  0  0  0  0  0
   26.9011   46.8311    9.5702 H   0  0  0  0  0  0  0  0  0  0  0  0
   30.8039   46.1022    7.9913 H   0  0  0  0  0  0  0  0  0  0  0  0
   28.1456   42.7865   11.4519 H   0  0  0  0  0  0  0  0  0  0  0  0
   29.7788   42.4511   10.8173 H   0  0  0  0  0  0  0  0  0  0  0  0
   31.7746   44.4478    7.5106 H   0  0  0  0  0  0  0  0  0  0  0  0
   33.1506   42.2603    9.1617 H   0  0  0  0  0  0  0  0  0  0  0  0
   32.2409   42.0434    7.6280 H   0  0  0  0  0  0  0  0  0  0  0  0
   33.8031   42.9301    7.6280 H   0  0  0  0  0  0  0  0  0  0  0  0
   34.9848   47.7833    8.4262 H   0  0  0  0  0  0  0  0  0  0  0  0
   35.3138   47.6417   10.8968 H   0  0  0  0  0  0  0  0  0  0  0  0
   32.8441   44.0966   11.0419 H   0  0  0  0  0  0  0  0  0  0  0  0
   32.8088   48.3039    7.0184 H   0  0  0  0  0  0  0  0  0  0  0  0
   33.3522   48.2023    4.4605 H   0  0  0  0  0  0  0  0  0  0  0  0
   34.2452   45.7369    3.9375 H   0  0  0  0  0  0  0  0  0  0  0  0
   34.2659   44.4254    6.2036 H   0  0  0  0  0  0  0  0  0  0  0  0
   26.0518   48.4317    8.8292 H   0  0  0  0  0  0  0  0  0  0  0  0
   25.7238   49.2867    7.2839 H   0  0  0  0  0  0  0  0  0  0  0  0
   26.0275   47.5162    7.2839 H   0  0  0  0  0  0  0  0  0  0  0  0
   30.4758   51.6446    4.0650 H   0  0  0  0  0  0  0  0  0  0  0  0
   29.4139   50.1992    4.2843 H   0  0  0  0  0  0  0  0  0  0  0  0
   30.0265   52.1934    7.7341 H   0  0  0  0  0  0  0  0  0  0  0  0
   31.9745   50.6678    7.1419 H   0  0  0  0  0  0  0  0  0  0  0  0
   31.7909   49.7886    5.5862 H   0  0  0  0  0  0  0  0  0  0  0  0
   32.1688   51.5447    5.5862 H   0  0  0  0  0  0  0  0  0  0  0  0
   28.2052   52.2484    5.4996 H   0  0  0  0  0  0  0  0  0  0  0  0
  1  2  2  0
  1  6  1  0
  1  7  1  0
  2  3  1  0
  2  8  1  0
  3  4  2  0
  4  5  1  0
  5  6  2  0
  5 23  1  0
  7  9  1  0
  9 10  1  0
  9 11  1  0
 10 12  1  0
 10 16  2  0
 12 13  2  0
 12 18  1  0
 13 14  1  0
 14 15  2  0
 15 16  1  0
 15 17  1  0
 18 19  1  0
 18 22  1  0
 19 20  1  0
 20 21  2  0
 21 22  1  0
 23 24  2  0
 23 27  1  0
 24 25  1  0
 24 28  1  0
 25 26  2  0
 26 27  1  0
 26 29  1  0
 29 30  1  0
 29 31  1  1
 29 32  1  0
 30 33  1  0
  4 34  1  0
  6 35  1  0
  8 36  1  0
  8 37  1  0
  9 38  1  6
 11 39  1  0
 11 40  1  0
 11 41  1  0
 13 42  1  0
 14 43  1  0
 16 44  1  0
 19 45  1  0
 20 46  1  0
 21 47  1  0
 22 48  1  0
 28 49  1  0
 28 50  1  0
 28 51  1  0
 30 52  1  0
 30 53  1  0
 31 54  1  0
 32 55  1  0
 32 56  1  0
 32 57  1  0
 33 58  1  0
M  END
>  <filename_input>  (1) 
7R7R_AWJ_docked.sdf

>  <pdb_id>  (1) 
7R7R_AWJ

>  <pose_rank>  (1) 
0

>  <num_atoms_heavy>  (1) 
33

>  <num_torsions>  (1) 
7

>  <pose>  (1) 
[30.004845961289963, 44.61183831523108, 9.346529410480661, 0.36883635687612865, 3.071898219252161, -5.360287663651664, 6.400600794545838, 4.42827039993828, 0.3976324343385594, 6.2630037852929, 0.03597538568025201, -0.07229320488784968, 0.05779852208922997]

>  <energy>  (1) 
-2004.645181906637

>  <inter_energy>  (1) 
-2021.9154381807257

>  <intra_energy>  (1) 
36.954659213149945

>  <rmsd>  (1) 
0.996144

>  <sdf_rank>  (1) 
0

$$$$

     RDKit          3D

 58 61  0  0  0  0  0  0  0  0999 V2000
   29.9523   44.7022    9.3322 C   0  0  0  0  0  0  0  0  0  0  0  0
   28.8930   44.3750   10.1716 C   0  0  0  0  0  0  0  0  0  0  0  0
   27.7809   45.1470   10.2712 N   0  0  0  0  0  0  0  0  0  0  0  0
   27.7377   46.2737    9.5212 C   0  0  0  0  0  0  0  0  0  0  0  0
   28.7420   46.6967    8.6654 C   0  0  0  0  0  0  0  0  0  0  0  0
   29.8607   45.8743    8.5710 C   0  0  0  0  0  0  0  0  0  0  0  0
   31.0374   43.8274    9.3337 O   0  0  0  0  0  0  0  0  0  0  0  0
   28.9730   43.1975   10.9499 N   0  0  0  0  0  0  0  0  0  0  0  0
   32.0726   44.1094    8.3874 C   0  0  1  0  0  0  0  0  0  0  0  0
   33.0565   45.0578    9.0032 C   0  0  0  0  0  0  0  0  0  0  0  0
   32.7479   42.7916    8.0681 C   0  0  0  0  0  0  0  0  0  0  0  0
   33.7771   45.9882    8.2290 C   0  0  0  0  0  0  0  0  0  0  0  0
   34.6627   46.8706    8.8605 C   0  0  0  0  0  0  0  0  0  0  0  0
   34.7995   46.8492   10.2521 C   0  0  0  0  0  0  0  0  0  0  0  0
   34.0898   45.9225   11.0119 C   0  0  0  0  0  0  0  0  0  0  0  0
   33.2218   45.0191   10.3928 C   0  0  0  0  0  0  0  0  0  0  0  0
   34.2426   45.8990   12.3438 F   0  0  0  0  0  0  0  0  0  0  0  0
   33.6452   46.1133    6.8296 N   0  0  0  0  0  0  0  0  0  0  0  0
   34.7440   46.0753    6.0469 N   0  0  0  0  0  0  0  0  0  0  0  0
   34.2431   45.7918    4.8401 C   0  0  0  0  0  0  0  0  0  0  0  0
   32.8541   45.6550    4.9377 C   0  0  0  0  0  0  0  0  0  0  0  0
   32.4839   45.8384    6.2109 N   0  0  0  0  0  0  0  0  0  0  0  0
   28.6499   47.9497    7.9180 C   0  0  0  0  0  0  0  0  0  0  0  0
   29.4451   48.5156    6.9370 C   0  0  0  0  0  0  0  0  0  0  0  0
   29.0308   49.7628    6.4971 N   0  0  0  0  0  0  0  0  0  0  0  0
   27.9325   50.1552    7.1071 C   0  0  0  0  0  0  0  0  0  0  0  0
   27.3293   49.0042    8.2313 S   0  0  0  0  0  0  0  0  0  0  0  0
   30.6784   47.9629    6.3442 C   0  0  0  0  0  0  0  0  0  0  0  0
   27.2551   51.4587    6.8908 C   0  0  1  0  0  0  0  0  0  0  0  0
   26.6935   52.0119    8.1813 C   0  0  0  0  0  0  0  0  0  0  0  0
   28.1078   52.4380    6.2933 O   0  0  0  0  0  0  0  0  0  0  0  0
   26.1193   51.2520    5.9088 C   0  0  0  0  0  0  0  0  0  0  0  0
   26.1984   53.3323    7.9942 O   0  0  0  0  0  0  0  0  0  0  0  0
   26.8370   46.9007    9.5972 H   0  0  0  0  0  0  0  0  0  0  0  0
   30.6814   46.1476    7.8916 H   0  0  0  0  0  0  0  0  0  0  0  0
   28.1970   42.9408   11.5768 H   0  0  0  0  0  0  0  0  0  0  0  0
   29.8072   42.5963   10.8902 H   0  0  0  0  0  0  0  0  0  0  0  0
   31.6707   44.5703    7.4731 H   0  0  0  0  0  0  0  0  0  0  0  0
   33.0111   42.2781    9.0046 H   0  0  0  0  0  0  0  0  0  0  0  0
   32.0622   42.1603    7.4839 H   0  0  0  0  0  0  0  0  0  0  0  0
   33.6608   42.9796    7.4839 H   0  0  0  0  0  0  0  0  0  0  0  0
   35.2511   47.5811    8.2614 H   0  0  0  0  0  0  0  0  0  0  0  0
   35.4698   47.5666   10.7482 H   0  0  0  0  0  0  0  0  0  0  0  0
   32.6711   44.2810   10.9944 H   0  0  0  0  0  0  0  0  0  0  0  0
   35.7272   46.2274    6.3138 H   0  0  0  0  0  0  0  0  0  0  0  0
   34.8303   45.6831    3.9163 H   0  0  0  0  0  0  0  0  0  0  0  0
   32.1747   45.4324    4.1017 H   0  0  0  0  0  0  0  0  0  0  0  0
   31.5392   45.7825    6.6175 H   0  0  0  0  0  0  0  0  0  0  0  0
   31.3650   47.6552    7.1466 H   0  0  0  0  0  0  0  0  0  0  0  0
   30.4275   47.0911    5.7220 H   0  0  0  0  0  0  0  0  0  0  0  0
   31.1621   48.7303    5.7220 H   0  0  0  0  0  0  0  0  0  0  0  0
   25.8728   51.3645    8.5238 H   0  0  0  0  0  0  0  0  0  0  0  0
   27.4980   52.0408    8.9310 H   0  0  0  0  0  0  0  0  0  0  0  0
   28.5609   52.9583    7.0032 H   0  0  0  0  0  0  0  0  0  0  0  0
   25.1834   51.0816    6.4612 H   0  0  0  0  0  0  0  0  0  0  0  0
   26.0142   52.1457    5.2763 H   0  0  0  0  0  0  0  0  0  0  0  0
   26.3360   50.3785    5.2763 H   0  0  0  0  0  0  0  0  0  0  0  0
   26.0405   53.7535    8.8761 H   0  0  0  0  0  0  0  0  0  0  0  0
  1  2  2  0
  1  6  1  0
  1  7  1  0
  2  3  1  0
  2  8  1  0
  3  4  2  0
  4  5  1  0
  5  6  2  0
  5 23  1  0
  7  9  1  0
  9 10  1  0
  9 11  1  0
 10 12  1  0
 10 16  2  0
 12 13  2  0
 12 18  1  0
 13 14  1  0
 14 15  2  0
 15 16  1  0
 15 17  1  0
 18 19  1  0
 18 22  1  0
 19 20  1  0
 20 21  2  0
 21 22  1  0
 23 24  2  0
 23 27  1  0
 24 25  1  0
 24 28  1  0
 25 26  2  0
 26 27  1  0
 26 29  1  0
 29 30  1  0
 29 31  1  6
 29 32  1  0
 30 33  1  0
  4 34  1  0
  6 35  1  0
  8 36  1  0
  8 37  1  0
  9 38  1  6
 11 39  1  0
 11 40  1  0
 11 41  1  0
 13 42  1  0
 14 43  1  0
 16 44  1  0
 19 45  1  0
 20 46  1  0
 21 47  1  0
 22 48  1  0
 28 49  1  0
 28 50  1  0
 28 51  1  0
 30 52  1  0
 30 53  1  0
 31 54  1  0
 32 55  1  0
 32 56  1  0
 32 57  1  0
 33 58  1  0
M  END
>  <filename_input>  (2) 
7R7R_AWJ_docked.sdf

>  <pdb_id>  (2) 
7R7R_AWJ

>  <pose_rank>  (2) 
1

>  <num_atoms_heavy>  (2) 
33

>  <num_torsions>  (2) 
7

>  <pose>  (2) 
[29.952292766799868, 44.702167836734255, 9.332185699675975, -0.041142639964672385, -0.005332868173948552, 0.09203434600205054, -2.498295980762218, -3.3847788987582152, 1.918978226935261, 18.84122338302299, -6.175049298103585, 31.207529477020486, -4.484216836575834]

>  <energy>  (2) 
-1828.00549798988

>  <inter_energy>  (2) 
-1880.753990012471

>  <intra_energy>  (2) 
76.69199154235947

>  <rmsd>  (2) 
1.91777

>  <sdf_rank>  (2) 
0

$$$$

     RDKit          3D

 58 61  0  0  0  0  0  0  0  0999 V2000
   30.1891   45.9010    8.3855 C   0  0  0  0  0  0  0  0  0  0  0  0
   29.3888   45.4924    9.4468 C   0  0  0  0  0  0  0  0  0  0  0  0
   28.2664   46.1640    9.8097 N   0  0  0  0  0  0  0  0  0  0  0  0
   27.9487   47.2724    9.0995 C   0  0  0  0  0  0  0  0  0  0  0  0
   28.6834   47.7713    8.0359 C   0  0  0  0  0  0  0  0  0  0  0  0
   29.8179   47.0501    7.6760 C   0  0  0  0  0  0  0  0  0  0  0  0
   31.3181   45.1259    8.1264 O   0  0  0  0  0  0  0  0  0  0  0  0
   29.7532   44.3371   10.1756 N   0  0  0  0  0  0  0  0  0  0  0  0
   31.6673   44.9661    6.7482 C   0  0  1  0  0  0  0  0  0  0  0  0
   32.5760   46.0855    6.3384 C   0  0  0  0  0  0  0  0  0  0  0  0
   32.3873   43.6389    6.6276 C   0  0  0  0  0  0  0  0  0  0  0  0
   33.8650   46.2356    6.8865 C   0  0  0  0  0  0  0  0  0  0  0  0
   34.6831   47.2834    6.4457 C   0  0  0  0  0  0  0  0  0  0  0  0
   34.2338   48.1488    5.4432 C   0  0  0  0  0  0  0  0  0  0  0  0
   32.9559   48.0000    4.9098 C   0  0  0  0  0  0  0  0  0  0  0  0
   32.1191   46.9745    5.3582 C   0  0  0  0  0  0  0  0  0  0  0  0
   32.5288   48.8467    3.9619 F   0  0  0  0  0  0  0  0  0  0  0  0
   34.4121   45.3658    7.8537 N   0  0  0  0  0  0  0  0  0  0  0  0
   35.6318   44.8237    7.6539 N   0  0  0  0  0  0  0  0  0  0  0  0
   35.9953   44.4418    8.8827 C   0  0  0  0  0  0  0  0  0  0  0  0
   34.9838   44.7791    9.7886 C   0  0  0  0  0  0  0  0  0  0  0  0
   33.9899   45.3872    9.1298 N   0  0  0  0  0  0  0  0  0  0  0  0
   28.3077   49.0012    7.3405 C   0  0  0  0  0  0  0  0  0  0  0  0
   27.0826   49.5683    7.0365 C   0  0  0  0  0  0  0  0  0  0  0  0
   27.1491   50.7502    6.3160 N   0  0  0  0  0  0  0  0  0  0  0  0
   28.3934   51.1059    6.0759 C   0  0  0  0  0  0  0  0  0  0  0  0
   29.5514   50.0278    6.7463 S   0  0  0  0  0  0  0  0  0  0  0  0
   25.7407   49.0461    7.3599 C   0  0  0  0  0  0  0  0  0  0  0  0
   28.8045   52.3005    5.2957 C   0  0  1  0  0  0  0  0  0  0  0  0
   29.8998   51.9669    4.3079 C   0  0  0  0  0  0  0  0  0  0  0  0
   27.7167   52.9133    4.5996 O   0  0  0  0  0  0  0  0  0  0  0  0
   29.3158   53.3512    6.2609 C   0  0  0  0  0  0  0  0  0  0  0  0
   29.4485   52.1456    2.9707 O   0  0  0  0  0  0  0  0  0  0  0  0
   27.0384   47.8181    9.3889 H   0  0  0  0  0  0  0  0  0  0  0  0
   30.4294   47.3860    6.8256 H   0  0  0  0  0  0  0  0  0  0  0  0
   29.1713   44.0210   10.9645 H   0  0  0  0  0  0  0  0  0  0  0  0
   30.6006   43.8115    9.9177 H   0  0  0  0  0  0  0  0  0  0  0  0
   30.7784   44.9849    6.1006 H   0  0  0  0  0  0  0  0  0  0  0  0
   32.6010   43.2451    7.6322 H   0  0  0  0  0  0  0  0  0  0  0  0
   31.7525   42.9256    6.0815 H   0  0  0  0  0  0  0  0  0  0  0  0
   33.3314   43.7822    6.0815 H   0  0  0  0  0  0  0  0  0  0  0  0
   35.6799   47.4259    6.8884 H   0  0  0  0  0  0  0  0  0  0  0  0
   34.8918   48.9496    5.0747 H   0  0  0  0  0  0  0  0  0  0  0  0
   31.1063   46.8663    4.9430 H   0  0  0  0  0  0  0  0  0  0  0  0
   36.1544   44.7278    6.7715 H   0  0  0  0  0  0  0  0  0  0  0  0
   36.9403   43.9414    9.1406 H   0  0  0  0  0  0  0  0  0  0  0  0
   35.0023   44.5769   10.8697 H   0  0  0  0  0  0  0  0  0  0  0  0
   33.1148   45.7768    9.5084 H   0  0  0  0  0  0  0  0  0  0  0  0
   25.6191   48.9987    8.4521 H   0  0  0  0  0  0  0  0  0  0  0  0
   24.9757   49.7121    6.9343 H   0  0  0  0  0  0  0  0  0  0  0  0
   25.6271   48.0381    6.9343 H   0  0  0  0  0  0  0  0  0  0  0  0
   30.7611   52.6267    4.4886 H   0  0  0  0  0  0  0  0  0  0  0  0
   30.1875   50.9139    4.4442 H   0  0  0  0  0  0  0  0  0  0  0  0
   27.0696   53.2779    5.2542 H   0  0  0  0  0  0  0  0  0  0  0  0
   29.1505   53.0115    7.2940 H   0  0  0  0  0  0  0  0  0  0  0  0
   30.3916   53.5092    6.0946 H   0  0  0  0  0  0  0  0  0  0  0  0
   28.7765   54.2953    6.0946 H   0  0  0  0  0  0  0  0  0  0  0  0
   28.5280   52.5100    2.9790 H   0  0  0  0  0  0  0  0  0  0  0  0
  1  2  2  0
  1  6  1  0
  1  7  1  0
  2  3  1  0
  2  8  1  0
  3  4  2  0
  4  5  1  0
  5  6  2  0
  5 23  1  0
  7  9  1  0
  9 10  1  0
  9 11  1  0
 10 12  1  0
 10 16  2  0
 12 13  2  0
 12 18  1  0
 13 14  1  0
 14 15  2  0
 15 16  1  0
 15 17  1  0
 18 19  1  0
 18 22  1  0
 19 20  1  0
 20 21  2  0
 21 22  1  0
 23 24  2  0
 23 27  1  0
 24 25  1  0
 24 28  1  0
 25 26  2  0
 26 27  1  0
 26 29  1  0
 29 30  1  0
 29 31  1  6
 29 32  1  0
 30 33  1  0
  4 34  1  0
  6 35  1  0
  8 36  1  0
  8 37  1  0
  9 38  1  6
 11 39  1  0
 11 40  1  0
 11 41  1  0
 13 42  1  0
 14 43  1  0
 16 44  1  0
 19 45  1  0
 20 46  1  0
 21 47  1  0
 22 48  1  0
 28 49  1  0
 28 50  1  0
 28 51  1  0
 30 52  1  0
 30 53  1  0
 31 54  1  0
 32 55  1  0
 32 56  1  0
 32 57  1  0
 33 58  1  0
M  END
>  <filename_input>  (3) 
7R7R_AWJ_docked.sdf

>  <pdb_id>  (3) 
7R7R_AWJ

>  <pose_rank>  (3) 
2

>  <num_atoms_heavy>  (3) 
33

>  <num_torsions>  (3) 
7

>  <pose>  (3) 
[30.189076405817538, 45.900960629709466, 8.385487125919056, 0.6570305994953849, -4.616271342098831, -3.7537643788884285, -0.07674989834131096, 3.0375454371540513, 0.9246705985434663, -0.5559698017559749, 0.12259343568667724, -2.745694525418767, -0.011254939041967393]

>  <energy>  (3) 
-709.6252003115738

>  <inter_energy>  (3) 
-757.3934600775374

>  <intra_energy>  (3) 
65.81847841323749

>  <rmsd>  (3) 
3.39384

>  <sdf_rank>  (3) 
0

$$$$

     RDKit          3D

 58 61  0  0  0  0  0  0  0  0999 V2000
   29.8585   44.6300    9.1591 C   0  0  0  0  0  0  0  0  0  0  0  0
   28.8157   44.3292   10.0286 C   0  0  0  0  0  0  0  0  0  0  0  0
   27.7548   45.1577   10.2034 N   0  0  0  0  0  0  0  0  0  0  0  0
   27.7474   46.3146    9.4994 C   0  0  0  0  0  0  0  0  0  0  0  0
   28.7402   46.7147    8.6196 C   0  0  0  0  0  0  0  0  0  0  0  0
   29.8050   45.8353    8.4477 C   0  0  0  0  0  0  0  0  0  0  0  0
   30.8904   43.6963    9.0824 O   0  0  0  0  0  0  0  0  0  0  0  0
   28.8580   43.1186   10.7574 N   0  0  0  0  0  0  0  0  0  0  0  0
   32.1284   44.1714    8.5453 C   0  0  1  0  0  0  0  0  0  0  0  0
   33.2482   43.3211    9.0648 C   0  0  0  0  0  0  0  0  0  0  0  0
   32.0323   44.0442    7.0390 C   0  0  0  0  0  0  0  0  0  0  0  0
   34.4975   43.8696    9.4154 C   0  0  0  0  0  0  0  0  0  0  0  0
   35.4991   43.0326    9.9231 C   0  0  0  0  0  0  0  0  0  0  0  0
   35.2442   41.6707   10.1133 C   0  0  0  0  0  0  0  0  0  0  0  0
   34.0096   41.1326    9.7584 C   0  0  0  0  0  0  0  0  0  0  0  0
   33.0095   41.9513    9.2268 C   0  0  0  0  0  0  0  0  0  0  0  0
   33.7825   39.8221    9.9281 F   0  0  0  0  0  0  0  0  0  0  0  0
   34.8080   45.2424    9.3125 N   0  0  0  0  0  0  0  0  0  0  0  0
   34.9018   45.8188    8.0958 N   0  0  0  0  0  0  0  0  0  0  0  0
   34.7730   47.1211    8.3701 C   0  0  0  0  0  0  0  0  0  0  0  0
   34.5922   47.2866    9.7476 C   0  0  0  0  0  0  0  0  0  0  0  0
   34.5927   46.0851   10.3375 N   0  0  0  0  0  0  0  0  0  0  0  0
   28.6914   48.0001    7.9249 C   0  0  0  0  0  0  0  0  0  0  0  0
   27.6421   48.7988    7.5056 C   0  0  0  0  0  0  0  0  0  0  0  0
   28.0177   49.9508    6.8331 N   0  0  0  0  0  0  0  0  0  0  0  0
   29.3264   50.0578    6.7420 C   0  0  0  0  0  0  0  0  0  0  0  0
   30.1698   48.7681    7.5024 S   0  0  0  0  0  0  0  0  0  0  0  0
   26.1965   48.5470    7.6638 C   0  0  0  0  0  0  0  0  0  0  0  0
   30.0471   51.1552    6.0484 C   0  0  1  0  0  0  0  0  0  0  0  0
   29.3815   52.4921    6.2865 C   0  0  0  0  0  0  0  0  0  0  0  0
   31.4233   51.2436    6.4243 O   0  0  0  0  0  0  0  0  0  0  0  0
   30.0476   50.8639    4.5611 C   0  0  0  0  0  0  0  0  0  0  0  0
   30.2799   53.5613    6.0156 O   0  0  0  0  0  0  0  0  0  0  0  0
   26.8881   46.9875    9.6364 H   0  0  0  0  0  0  0  0  0  0  0  0
   30.6129   46.0893    7.7458 H   0  0  0  0  0  0  0  0  0  0  0  0
   28.0936   42.8807   11.4056 H   0  0  0  0  0  0  0  0  0  0  0  0
   29.6531   42.4744   10.6403 H   0  0  0  0  0  0  0  0  0  0  0  0
   32.3212   45.2151    8.8344 H   0  0  0  0  0  0  0  0  0  0  0  0
   31.3877   43.1903    6.7835 H   0  0  0  0  0  0  0  0  0  0  0  0
   31.6029   44.9661    6.6198 H   0  0  0  0  0  0  0  0  0  0  0  0
   33.0366   43.8838    6.6198 H   0  0  0  0  0  0  0  0  0  0  0  0
   36.4871   43.4468   10.1726 H   0  0  0  0  0  0  0  0  0  0  0  0
   36.0212   41.0225   10.5445 H   0  0  0  0  0  0  0  0  0  0  0  0
   32.0393   41.5214    8.9371 H   0  0  0  0  0  0  0  0  0  0  0  0
   35.0390   45.3665    7.1807 H   0  0  0  0  0  0  0  0  0  0  0  0
   34.8042   47.9340    7.6297 H   0  0  0  0  0  0  0  0  0  0  0  0
   34.4693   48.2504   10.2635 H   0  0  0  0  0  0  0  0  0  0  0  0
   34.4604   45.8609   11.3340 H   0  0  0  0  0  0  0  0  0  0  0  0
   25.9468   48.5035    8.7342 H   0  0  0  0  0  0  0  0  0  0  0  0
   25.6285   49.3598    7.1875 H   0  0  0  0  0  0  0  0  0  0  0  0
   25.9367   47.5901    7.1875 H   0  0  0  0  0  0  0  0  0  0  0  0
   28.5060   52.5812    5.6265 H   0  0  0  0  0  0  0  0  0  0  0  0
   29.0747   52.5492    7.3412 H   0  0  0  0  0  0  0  0  0  0  0  0
   31.4960   51.2483    7.4117 H   0  0  0  0  0  0  0  0  0  0  0  0
   30.0494   49.7757    4.4006 H   0  0  0  0  0  0  0  0  0  0  0  0
   29.1487   51.3008    4.1016 H   0  0  0  0  0  0  0  0  0  0  0  0
   30.9450   51.3038    4.1016 H   0  0  0  0  0  0  0  0  0  0  0  0
   30.6026   53.9454    6.8690 H   0  0  0  0  0  0  0  0  0  0  0  0
  1  2  2  0
  1  6  1  0
  1  7  1  0
  2  3  1  0
  2  8  1  0
  3  4  2  0
  4  5  1  0
  5  6  2  0
  5 23  1  0
  7  9  1  0
  9 10  1  0
  9 11  1  0
 10 12  1  0
 10 16  2  0
 12 13  2  0
 12 18  1  0
 13 14  1  0
 14 15  2  0
 15 16  1  0
 15 17  1  0
 18 19  1  0
 18 22  1  0
 19 20  1  0
 20 21  2  0
 21 22  1  0
 23 24  2  0
 23 27  1  0
 24 25  1  0
 24 28  1  0
 25 26  2  0
 26 27  1  0
 26 29  1  0
 29 30  1  0
 29 31  1  1
 29 32  1  0
 30 33  1  0
  4 34  1  0
  6 35  1  0
  8 36  1  0
  8 37  1  0
  9 38  1  6
 11 39  1  0
 11 40  1  0
 11 41  1  0
 13 42  1  0
 14 43  1  0
 16 44  1  0
 19 45  1  0
 20 46  1  0
 21 47  1  0
 22 48  1  0
 28 49  1  0
 28 50  1  0
 28 51  1  0
 30 52  1  0
 30 53  1  0
 31 54  1  0
 32 55  1  0
 32 56  1  0
 32 57  1  0
 33 58  1  0
M  END
>  <filename_input>  (4) 
7R7R_AWJ_docked.sdf

>  <pdb_id>  (4) 
7R7R_AWJ

>  <pose_rank>  (4) 
3

>  <num_atoms_heavy>  (4) 
33

>  <num_torsions>  (4) 
7

>  <pose>  (4) 
[29.858468384869035, 44.63004999684668, 9.159118042549215, 0.014736325569341537, -4.3152400461409695, -4.498586197306054, 0.017434420413238342, -0.20811069359491846, 1.7101661077431545, -5.869378228763272, -5.003457240251456, 6.208665694538185, 2.8428549266478615]

>  <energy>  (4) 
-1664.6340373157752

>  <inter_energy>  (4) 
-1673.5729912342413

>  <intra_energy>  (4) 
26.41615255710574

>  <rmsd>  (4) 
2.50815

>  <sdf_rank>  (4) 
0

$$$$

     RDKit          3D

 58 61  0  0  0  0  0  0  0  0999 V2000
   29.8784   44.6532    9.2067 C   0  0  0  0  0  0  0  0  0  0  0  0
   28.8025   44.3738   10.0424 C   0  0  0  0  0  0  0  0  0  0  0  0
   27.7272   45.1964   10.1405 N   0  0  0  0  0  0  0  0  0  0  0  0
   27.7386   46.3255    9.3929 C   0  0  0  0  0  0  0  0  0  0  0  0
   28.7640   46.7032    8.5410 C   0  0  0  0  0  0  0  0  0  0  0  0
   29.8436   45.8299    8.4479 C   0  0  0  0  0  0  0  0  0  0  0  0
   30.9216   43.7289    9.2094 O   0  0  0  0  0  0  0  0  0  0  0  0
   28.8254   43.1922   10.8183 N   0  0  0  0  0  0  0  0  0  0  0  0
   31.7057   43.6636    8.0146 C   0  0  1  0  0  0  0  0  0  0  0  0
   33.1513   43.5163    8.3827 C   0  0  0  0  0  0  0  0  0  0  0  0
   31.2364   42.4456    7.2461 C   0  0  0  0  0  0  0  0  0  0  0  0
   34.1249   44.4418    7.9585 C   0  0  0  0  0  0  0  0  0  0  0  0
   35.4569   44.2712    8.3560 C   0  0  0  0  0  0  0  0  0  0  0  0
   35.8064   43.2102    9.1974 C   0  0  0  0  0  0  0  0  0  0  0  0
   34.8411   42.2941    9.6081 C   0  0  0  0  0  0  0  0  0  0  0  0
   33.5127   42.4375    9.1984 C   0  0  0  0  0  0  0  0  0  0  0  0
   35.1909   41.2703   10.4000 F   0  0  0  0  0  0  0  0  0  0  0  0
   33.8388   45.5716    7.1627 N   0  0  0  0  0  0  0  0  0  0  0  0
   33.6000   46.7625    7.7510 N   0  0  0  0  0  0  0  0  0  0  0  0
   33.7972   47.6336    6.7560 C   0  0  0  0  0  0  0  0  0  0  0  0
   34.1623   46.9370    5.5988 C   0  0  0  0  0  0  0  0  0  0  0  0
   34.2089   45.6275    5.8716 N   0  0  0  0  0  0  0  0  0  0  0  0
   28.7324   47.9607    7.7961 C   0  0  0  0  0  0  0  0  0  0  0  0
   29.5199   48.4649    6.7760 C   0  0  0  0  0  0  0  0  0  0  0  0
   29.1822   49.7411    6.3542 N   0  0  0  0  0  0  0  0  0  0  0  0
   28.1487   50.2163    7.0163 C   0  0  0  0  0  0  0  0  0  0  0  0
   27.5142   49.1136    8.1714 S   0  0  0  0  0  0  0  0  0  0  0  0
   30.6763   47.8194    6.1247 C   0  0  0  0  0  0  0  0  0  0  0  0
   27.5642   51.5686    6.8305 C   0  0  1  0  0  0  0  0  0  0  0  0
   28.5871   52.6534    7.0824 C   0  0  0  0  0  0  0  0  0  0  0  0
   26.9927   51.7557    5.5337 O   0  0  0  0  0  0  0  0  0  0  0  0
   26.4193   51.7349    7.8096 C   0  0  0  0  0  0  0  0  0  0  0  0
   28.2923   53.8160    6.3175 O   0  0  0  0  0  0  0  0  0  0  0  0
   26.8678   46.9935    9.4677 H   0  0  0  0  0  0  0  0  0  0  0  0
   30.6782   46.0662    7.7715 H   0  0  0  0  0  0  0  0  0  0  0  0
   28.0365   42.9705   11.4423 H   0  0  0  0  0  0  0  0  0  0  0  0
   29.6310   42.5531   10.7596 H   0  0  0  0  0  0  0  0  0  0  0  0
   31.5928   44.5730    7.4060 H   0  0  0  0  0  0  0  0  0  0  0  0
   30.9335   41.6598    7.9538 H   0  0  0  0  0  0  0  0  0  0  0  0
   30.3793   42.7192    6.6133 H   0  0  0  0  0  0  0  0  0  0  0  0
   32.0554   42.0733    6.6133 H   0  0  0  0  0  0  0  0  0  0  0  0
   36.2289   44.9723    8.0062 H   0  0  0  0  0  0  0  0  0  0  0  0
   36.8471   43.0988    9.5359 H   0  0  0  0  0  0  0  0  0  0  0  0
   32.7546   41.7061    9.5154 H   0  0  0  0  0  0  0  0  0  0  0  0
   33.3317   46.9534    8.7270 H   0  0  0  0  0  0  0  0  0  0  0  0
   33.6894   48.7254    6.8348 H   0  0  0  0  0  0  0  0  0  0  0  0
   34.3769   47.3929    4.6209 H   0  0  0  0  0  0  0  0  0  0  0  0
   34.4658   44.8515    5.2449 H   0  0  0  0  0  0  0  0  0  0  0  0
   31.3632   47.4360    6.8935 H   0  0  0  0  0  0  0  0  0  0  0  0
   30.3260   46.9864    5.4976 H   0  0  0  0  0  0  0  0  0  0  0  0
   31.2015   48.5549    5.4976 H   0  0  0  0  0  0  0  0  0  0  0  0
   28.5800   52.9140    8.1511 H   0  0  0  0  0  0  0  0  0  0  0  0
   29.5776   52.2786    6.7852 H   0  0  0  0  0  0  0  0  0  0  0  0
   26.0560   52.0623    5.6270 H   0  0  0  0  0  0  0  0  0  0  0  0
   26.8054   51.6788    8.8381 H   0  0  0  0  0  0  0  0  0  0  0  0
   25.9400   52.7122    7.6507 H   0  0  0  0  0  0  0  0  0  0  0  0
   25.6817   50.9346    7.6507 H   0  0  0  0  0  0  0  0  0  0  0  0
   28.1006   54.5722    6.9269 H   0  0  0  0  0  0  0  0  0  0  0  0
  1  2  2  0
  1  6  1  0
  1  7  1  0
  2  3  1  0
  2  8  1  0
  3  4  2  0
  4  5  1  0
  5  6  2  0
  5 23  1  0
  7  9  1  0
  9 10  1  0
  9 11  1  0
 10 12  1  0
 10 16  2  0
 12 13  2  0
 12 18  1  0
 13 14  1  0
 14 15  2  0
 15 16  1  0
 15 17  1  0
 18 19  1  0
 18 22  1  0
 19 20  1  0
 20 21  2  0
 21 22  1  0
 23 24  2  0
 23 27  1  0
 24 25  1  0
 24 28  1  0
 25 26  2  0
 26 27  1  0
 26 29  1  0
 29 30  1  0
 29 31  1  6
 29 32  1  0
 30 33  1  0
  4 34  1  0
  6 35  1  0
  8 36  1  0
  8 37  1  0
  9 38  1  6
 11 39  1  0
 11 40  1  0
 11 41  1  0
 13 42  1  0
 14 43  1  0
 16 44  1  0
 19 45  1  0
 20 46  1  0
 21 47  1  0
 22 48  1  0
 28 49  1  0
 28 50  1  0
 28 51  1  0
 30 52  1  0
 30 53  1  0
 31 54  1  0
 32 55  1  0
 32 56  1  0
 32 57  1  0
 33 58  1  0
M  END
>  <filename_input>  (5) 
7R7R_AWJ_docked.sdf

>  <pdb_id>  (5) 
7R7R_AWJ

>  <pose_rank>  (5) 
4

>  <num_atoms_heavy>  (5) 
33

>  <num_torsions>  (5) 
7

>  <pose>  (5) 
[29.878365485897074, 44.65318455075331, 9.20673477948764, -0.039200843663918336, -0.007405006698942652, 0.045507476182051025, -2.4377262999415237, -1.9173917470377726, 1.5465167820951964, -6.662472606713077, 1.003504367518792, 6.55043254363815, -0.6159461743523793]

>  <energy>  (5) 
-1552.472411029108

>  <inter_energy>  (5) 
-1559.551066011425

>  <intra_energy>  (5) 
25.111505294207806

>  <rmsd>  (5) 
2.37694

>  <sdf_rank>  (5) 
0

$$$$

     RDKit          3D

 58 61  0  0  0  0  0  0  0  0999 V2000
   29.8902   44.6747    9.0521 C   0  0  0  0  0  0  0  0  0  0  0  0
   28.8569   44.4592    9.9575 C   0  0  0  0  0  0  0  0  0  0  0  0
   27.8170   45.3215   10.0904 N   0  0  0  0  0  0  0  0  0  0  0  0
   27.8216   46.4258    9.3065 C   0  0  0  0  0  0  0  0  0  0  0  0
   28.8069   46.7407    8.3846 C   0  0  0  0  0  0  0  0  0  0  0  0
   29.8496   45.8277    8.2581 C   0  0  0  0  0  0  0  0  0  0  0  0
   30.9006   43.7150    9.0250 O   0  0  0  0  0  0  0  0  0  0  0  0
   28.8864   43.3023   10.7694 N   0  0  0  0  0  0  0  0  0  0  0  0
   31.9724   43.9575    8.1088 C   0  0  1  0  0  0  0  0  0  0  0  0
   33.0396   44.7516    8.7998 C   0  0  0  0  0  0  0  0  0  0  0  0
   32.5136   42.6042    7.6965 C   0  0  0  0  0  0  0  0  0  0  0  0
   34.1150   44.1310    9.4652 C   0  0  0  0  0  0  0  0  0  0  0  0
   35.1000   44.9224   10.0694 C   0  0  0  0  0  0  0  0  0  0  0  0
   35.0318   46.3163    9.9786 C   0  0  0  0  0  0  0  0  0  0  0  0
   33.9626   46.9246    9.3256 C   0  0  0  0  0  0  0  0  0  0  0  0
   32.9592   46.1479    8.7400 C   0  0  0  0  0  0  0  0  0  0  0  0
   33.8979   48.2623    9.2604 F   0  0  0  0  0  0  0  0  0  0  0  0
   34.2865   42.7325    9.5440 N   0  0  0  0  0  0  0  0  0  0  0  0
   35.3902   42.1620    9.0170 N   0  0  0  0  0  0  0  0  0  0  0  0
   35.4322   40.9719    9.6250 C   0  0  0  0  0  0  0  0  0  0  0  0
   34.3549   40.8687   10.5118 C   0  0  0  0  0  0  0  0  0  0  0  0
   33.6437   42.0019   10.4715 N   0  0  0  0  0  0  0  0  0  0  0  0
   28.7730   47.9747    7.6015 C   0  0  0  0  0  0  0  0  0  0  0  0
   29.7698   48.7821    7.0824 C   0  0  0  0  0  0  0  0  0  0  0  0
   29.3192   49.9105    6.4159 N   0  0  0  0  0  0  0  0  0  0  0  0
   28.0047   49.9761    6.4013 C   0  0  0  0  0  0  0  0  0  0  0  0
   27.2474   48.6427    7.1766 S   0  0  0  0  0  0  0  0  0  0  0  0
   31.2299   48.5944    7.1871 C   0  0  0  0  0  0  0  0  0  0  0  0
   27.2116   51.0790    5.8017 C   0  0  1  0  0  0  0  0  0  0  0  0
   27.2940   52.3375    6.6361 C   0  0  0  0  0  0  0  0  0  0  0  0
   27.6011   51.3804    4.4598 O   0  0  0  0  0  0  0  0  0  0  0  0
   25.7639   50.6382    5.7179 C   0  0  0  0  0  0  0  0  0  0  0  0
   26.6173   52.1691    7.8760 O   0  0  0  0  0  0  0  0  0  0  0  0
   26.9793   47.1257    9.4094 H   0  0  0  0  0  0  0  0  0  0  0  0
   30.6502   46.0136    7.5270 H   0  0  0  0  0  0  0  0  0  0  0  0
   28.1289   43.1278   11.4451 H   0  0  0  0  0  0  0  0  0  0  0  0
   29.6656   42.6338   10.6853 H   0  0  0  0  0  0  0  0  0  0  0  0
   31.6326   44.5234    7.2289 H   0  0  0  0  0  0  0  0  0  0  0  0
   32.7494   42.0145    8.5946 H   0  0  0  0  0  0  0  0  0  0  0  0
   31.7583   42.0741    7.0977 H   0  0  0  0  0  0  0  0  0  0  0  0
   33.4261   42.7412    7.0977 H   0  0  0  0  0  0  0  0  0  0  0  0
   35.9280   44.4472   10.6159 H   0  0  0  0  0  0  0  0  0  0  0  0
   35.8251   46.9342   10.4245 H   0  0  0  0  0  0  0  0  0  0  0  0
   32.1103   46.6314    8.2345 H   0  0  0  0  0  0  0  0  0  0  0  0
   36.0405   42.5485    8.3179 H   0  0  0  0  0  0  0  0  0  0  0  0
   36.1935   40.1963    9.4548 H   0  0  0  0  0  0  0  0  0  0  0  0
   34.1286   39.9958   11.1417 H   0  0  0  0  0  0  0  0  0  0  0  0
   32.8076   42.2530   11.0180 H   0  0  0  0  0  0  0  0  0  0  0  0
   31.5196   48.5572    8.2476 H   0  0  0  0  0  0  0  0  0  0  0  0
   31.5146   47.6523    6.6959 H   0  0  0  0  0  0  0  0  0  0  0  0
   31.7436   49.4339    6.6959 H   0  0  0  0  0  0  0  0  0  0  0  0
   28.3509   52.5716    6.8314 H   0  0  0  0  0  0  0  0  0  0  0  0
   26.8148   53.1584    6.0826 H   0  0  0  0  0  0  0  0  0  0  0  0
   28.3840   51.9861    4.4716 H   0  0  0  0  0  0  0  0  0  0  0  0
   25.3589   50.5149    6.7332 H   0  0  0  0  0  0  0  0  0  0  0  0
   25.1795   51.3991    5.1799 H   0  0  0  0  0  0  0  0  0  0  0  0
   25.7027   49.6807    5.1799 H   0  0  0  0  0  0  0  0  0  0  0  0
   27.2498   52.3265    8.6212 H   0  0  0  0  0  0  0  0  0  0  0  0
  1  2  2  0
  1  6  1  0
  1  7  1  0
  2  3  1  0
  2  8  1  0
  3  4  2  0
  4  5  1  0
  5  6  2  0
  5 23  1  0
  7  9  1  0
  9 10  1  0
  9 11  1  0
 10 12  1  0
 10 16  2  0
 12 13  2  0
 12 18  1  0
 13 14  1  0
 14 15  2  0
 15 16  1  0
 15 17  1  0
 18 19  1  0
 18 22  1  0
 19 20  1  0
 20 21  2  0
 21 22  1  0
 23 24  2  0
 23 27  1  0
 24 25  1  0
 24 28  1  0
 25 26  2  0
 26 27  1  0
 26 29  1  0
 29 30  1  0
 29 31  1  6
 29 32  1  0
 30 33  1  0
  4 34  1  0
  6 35  1  0
  8 36  1  0
  8 37  1  0
  9 38  1  6
 11 39  1  0
 11 40  1  0
 11 41  1  0
 13 42  1  0
 14 43  1  0
 16 44  1  0
 19 45  1  0
 20 46  1  0
 21 47  1  0
 22 48  1  0
 28 49  1  0
 28 50  1  0
 28 51  1  0
 30 52  1  0
 30 53  1  0
 31 54  1  0
 32 55  1  0
 32 56  1  0
 32 57  1  0
 33 58  1  0
M  END
>  <filename_input>  (6) 
7R7R_AWJ_docked.sdf

>  <pdb_id>  (6) 
7R7R_AWJ

>  <pose_rank>  (6) 
5

>  <num_atoms_heavy>  (6) 
33

>  <num_torsions>  (6) 
7

>  <pose>  (6) 
[29.890180390181683, 44.67467802320257, 9.052127873530392, -0.07010215678346826, 0.05251175656567032, 0.012716694295484351, -3.1548344792440877, -2.16240357291529, -2.2925443579130156, 18.94906013307189, 18.99080026646041, 16.563662439372074, -0.1790944140191819]

>  <energy>  (6) 
-1358.3447785707565

>  <inter_energy>  (6) 
-1423.678869919308

>  <intra_energy>  (6) 
95.04705548597099

>  <rmsd>  (6) 
3.36916

>  <sdf_rank>  (6) 
0

$$$$

     RDKit          3D

 58 61  0  0  0  0  0  0  0  0999 V2000
   30.1834   44.6221    9.0216 C   0  0  0  0  0  0  0  0  0  0  0  0
   29.2803   44.2892   10.0253 C   0  0  0  0  0  0  0  0  0  0  0  0
   28.1985   45.0573   10.3120 N   0  0  0  0  0  0  0  0  0  0  0  0
   28.0274   46.1861    9.5836 C   0  0  0  0  0  0  0  0  0  0  0  0
   28.8733   46.6147    8.5734 C   0  0  0  0  0  0  0  0  0  0  0  0
   29.9627   45.7961    8.2904 C   0  0  0  0  0  0  0  0  0  0  0  0
   31.2558   43.7508    8.8387 O   0  0  0  0  0  0  0  0  0  0  0  0
   29.4924   43.1097   10.7753 N   0  0  0  0  0  0  0  0  0  0  0  0
   32.5382   44.3610    8.6660 C   0  0  1  0  0  0  0  0  0  0  0  0
   32.5820   45.0439    7.3324 C   0  0  0  0  0  0  0  0  0  0  0  0
   32.6953   45.3774    9.7780 C   0  0  0  0  0  0  0  0  0  0  0  0
   33.7663   45.6168    6.8287 C   0  0  0  0  0  0  0  0  0  0  0  0
   33.7570   46.2172    5.5635 C   0  0  0  0  0  0  0  0  0  0  0  0
   32.5888   46.2131    4.7946 C   0  0  0  0  0  0  0  0  0  0  0  0
   31.4190   45.6514    5.3004 C   0  0  0  0  0  0  0  0  0  0  0  0
   31.4070   45.0714    6.5718 C   0  0  0  0  0  0  0  0  0  0  0  0
   30.3001   45.6692    4.5618 F   0  0  0  0  0  0  0  0  0  0  0  0
   34.9982   45.6037    7.5171 N   0  0  0  0  0  0  0  0  0  0  0  0
   35.3470   46.6562    8.2865 N   0  0  0  0  0  0  0  0  0  0  0  0
   36.2931   46.1460    9.0817 C   0  0  0  0  0  0  0  0  0  0  0  0
   36.4753   44.7936    8.7728 C   0  0  0  0  0  0  0  0  0  0  0  0
   35.6316   44.4503    7.7920 N   0  0  0  0  0  0  0  0  0  0  0  0
   28.6542   47.8696    7.8561 C   0  0  0  0  0  0  0  0  0  0  0  0
   27.5066   48.5429    7.4759 C   0  0  0  0  0  0  0  0  0  0  0  0
   27.7243   49.7101    6.7613 N   0  0  0  0  0  0  0  0  0  0  0  0
   29.0081   49.9512    6.5999 C   0  0  0  0  0  0  0  0  0  0  0  0
   30.0201   48.7771    7.3415 S   0  0  0  0  0  0  0  0  0  0  0  0
   26.1055   48.1452    7.7142 C   0  0  0  0  0  0  0  0  0  0  0  0
   29.5731   51.0999    5.8474 C   0  0  1  0  0  0  0  0  0  0  0  0
   28.9930   52.4128    6.3232 C   0  0  0  0  0  0  0  0  0  0  0  0
   30.9993   51.1651    5.9175 O   0  0  0  0  0  0  0  0  0  0  0  0
   29.2438   50.9199    4.3790 C   0  0  0  0  0  0  0  0  0  0  0  0
   28.4612   52.2861    7.6365 O   0  0  0  0  0  0  0  0  0  0  0  0
   27.1505   46.8100    9.8112 H   0  0  0  0  0  0  0  0  0  0  0  0
   30.6575   46.0740    7.4842 H   0  0  0  0  0  0  0  0  0  0  0  0
   28.8329   42.8487   11.5222 H   0  0  0  0  0  0  0  0  0  0  0  0
   30.3065   42.5114   10.5748 H   0  0  0  0  0  0  0  0  0  0  0  0
   33.3484   43.6179    8.7030 H   0  0  0  0  0  0  0  0  0  0  0  0
   32.6170   44.8711   10.7513 H   0  0  0  0  0  0  0  0  0  0  0  0
   33.6791   45.8625    9.6950 H   0  0  0  0  0  0  0  0  0  0  0  0
   31.9039   46.1369    9.6950 H   0  0  0  0  0  0  0  0  0  0  0  0
   34.6694   46.6925    5.1741 H   0  0  0  0  0  0  0  0  0  0  0  0
   32.5939   46.6548    3.7873 H   0  0  0  0  0  0  0  0  0  0  0  0
   30.4788   44.6385    6.9730 H   0  0  0  0  0  0  0  0  0  0  0  0
   34.9756   47.6167    8.2661 H   0  0  0  0  0  0  0  0  0  0  0  0
   36.8417   46.7017    9.8564 H   0  0  0  0  0  0  0  0  0  0  0  0
   37.1966   44.1199    9.2584 H   0  0  0  0  0  0  0  0  0  0  0  0
   35.4998   43.5273    7.3544 H   0  0  0  0  0  0  0  0  0  0  0  0
   25.9185   48.0921    8.7969 H   0  0  0  0  0  0  0  0  0  0  0  0
   25.4316   48.8875    7.2617 H   0  0  0  0  0  0  0  0  0  0  0  0
   25.9221   47.1595    7.2617 H   0  0  0  0  0  0  0  0  0  0  0  0
   29.7850   53.1762    6.3273 H   0  0  0  0  0  0  0  0  0  0  0  0
   28.1808   52.7059    5.6417 H   0  0  0  0  0  0  0  0  0  0  0  0
   31.2828   51.1781    6.8659 H   0  0  0  0  0  0  0  0  0  0  0  0
   28.2824   50.3945    4.2805 H   0  0  0  0  0  0  0  0  0  0  0  0
   29.1743   51.9054    3.8954 H   0  0  0  0  0  0  0  0  0  0  0  0
   30.0357   50.3292    3.8954 H   0  0  0  0  0  0  0  0  0  0  0  0
   29.1761   52.4565    8.2998 H   0  0  0  0  0  0  0  0  0  0  0  0
  1  2  2  0
  1  6  1  0
  1  7  1  0
  2  3  1  0
  2  8  1  0
  3  4  2  0
  4  5  1  0
  5  6  2  0
  5 23  1  0
  7  9  1  0
  9 10  1  0
  9 11  1  0
 10 12  1  0
 10 16  2  0
 12 13  2  0
 12 18  1  0
 13 14  1  0
 14 15  2  0
 15 16  1  0
 15 17  1  0
 18 19  1  0
 18 22  1  0
 19 20  1  0
 20 21  2  0
 21 22  1  0
 23 24  2  0
 23 27  1  0
 24 25  1  0
 24 28  1  0
 25 26  2  0
 26 27  1  0
 26 29  1  0
 29 30  1  0
 29 31  1  6
 29 32  1  0
 30 33  1  0
  4 34  1  0
  6 35  1  0
  8 36  1  0
  8 37  1  0
  9 38  1  6
 11 39  1  0
 11 40  1  0
 11 41  1  0
 13 42  1  0
 14 43  1  0
 16 44  1  0
 19 45  1  0
 20 46  1  0
 21 47  1  0
 22 48  1  0
 28 49  1  0
 28 50  1  0
 28 51  1  0
 30 52  1  0
 30 53  1  0
 31 54  1  0
 32 55  1  0
 32 56  1  0
 32 57  1  0
 33 58  1  0
M  END
>  <filename_input>  (7) 
7R7R_AWJ_docked.sdf

>  <pdb_id>  (7) 
7R7R_AWJ

>  <pose_rank>  (7) 
6

>  <num_atoms_heavy>  (7) 
33

>  <num_torsions>  (7) 
7

>  <pose>  (7) 
[30.18339775761796, 44.622147758211625, 9.02161549084978, 0.9562957677514439, -5.147345218126711, -3.1131302886322127, -0.07043303217605776, 0.01693869868547754, -7.0042505856659725, -5.430889955042415, 3.6326450835863953, -0.6278822405338242, -3.9032820493825215]

>  <energy>  (7) 
-1272.3370668265536

>  <inter_energy>  (7) 
-1446.3222433977953

>  <intra_energy>  (7) 
180.57949302333174

>  <rmsd>  (7) 
2.91876

>  <sdf_rank>  (7) 
0

$$$$

     RDKit          3D

 58 61  0  0  0  0  0  0  0  0999 V2000
   29.8665   44.5491    9.2056 C   0  0  0  0  0  0  0  0  0  0  0  0
   28.7586   44.2808   10.0020 C   0  0  0  0  0  0  0  0  0  0  0  0
   27.7505   45.1746   10.1677 N   0  0  0  0  0  0  0  0  0  0  0  0
   27.8634   46.3637    9.5296 C   0  0  0  0  0  0  0  0  0  0  0  0
   28.9291   46.7351    8.7257 C   0  0  0  0  0  0  0  0  0  0  0  0
   29.9373   45.7902    8.5603 C   0  0  0  0  0  0  0  0  0  0  0  0
   30.8330   43.5477    9.1304 O   0  0  0  0  0  0  0  0  0  0  0  0
   28.6752   43.0343   10.6637 N   0  0  0  0  0  0  0  0  0  0  0  0
   32.0961   43.8477    9.7315 C   0  0  1  0  0  0  0  0  0  0  0  0
   33.1495   43.8915    8.6660 C   0  0  0  0  0  0  0  0  0  0  0  0
   31.9600   45.2066   10.3866 C   0  0  0  0  0  0  0  0  0  0  0  0
   34.0273   42.8124    8.4433 C   0  0  0  0  0  0  0  0  0  0  0  0
   34.9741   42.8958    7.4146 C   0  0  0  0  0  0  0  0  0  0  0  0
   35.0195   44.0275    6.5944 C   0  0  0  0  0  0  0  0  0  0  0  0
   34.1540   45.0943    6.8235 C   0  0  0  0  0  0  0  0  0  0  0  0
   33.2211   45.0355    7.8625 C   0  0  0  0  0  0  0  0  0  0  0  0
   34.2186   46.1821    6.0423 F   0  0  0  0  0  0  0  0  0  0  0  0
   34.0001   41.6131    9.1865 N   0  0  0  0  0  0  0  0  0  0  0  0
   32.8983   40.8341    9.1613 N   0  0  0  0  0  0  0  0  0  0  0  0
   33.3575   39.6512    9.5831 C   0  0  0  0  0  0  0  0  0  0  0  0
   34.7295   39.7532    9.8376 C   0  0  0  0  0  0  0  0  0  0  0  0
   35.1354   40.9983    9.5610 N   0  0  0  0  0  0  0  0  0  0  0  0
   29.0093   48.0548    8.1019 C   0  0  0  0  0  0  0  0  0  0  0  0
   30.0620   48.7736    7.5633 C   0  0  0  0  0  0  0  0  0  0  0  0
   29.7282   50.0337    7.0928 N   0  0  0  0  0  0  0  0  0  0  0  0
   28.4459   50.2877    7.2455 C   0  0  0  0  0  0  0  0  0  0  0  0
   27.5721   48.9845    7.9462 S   0  0  0  0  0  0  0  0  0  0  0  0
   31.4775   48.3671    7.4674 C   0  0  0  0  0  0  0  0  0  0  0  0
   27.7785   51.5626    6.8795 C   0  0  1  0  0  0  0  0  0  0  0  0
   26.3413   51.3368    6.4669 C   0  0  0  0  0  0  0  0  0  0  0  0
   27.8178   52.5336    7.9277 O   0  0  0  0  0  0  0  0  0  0  0  0
   28.5317   52.1825    5.7196 C   0  0  0  0  0  0  0  0  0  0  0  0
   25.4464   51.9229    7.4046 O   0  0  0  0  0  0  0  0  0  0  0  0
   27.0472   47.0897    9.6593 H   0  0  0  0  0  0  0  0  0  0  0  0
   30.7988   46.0204    7.9162 H   0  0  0  0  0  0  0  0  0  0  0  0
   27.8613   42.8198   11.2574 H   0  0  0  0  0  0  0  0  0  0  0  0
   29.4284   42.3406   10.5522 H   0  0  0  0  0  0  0  0  0  0  0  0
   32.3825   43.0871   10.4728 H   0  0  0  0  0  0  0  0  0  0  0  0
   31.9718   45.0893   11.4803 H   0  0  0  0  0  0  0  0  0  0  0  0
   32.7984   45.8482   10.0777 H   0  0  0  0  0  0  0  0  0  0  0  0
   31.0111   45.6693   10.0777 H   0  0  0  0  0  0  0  0  0  0  0  0
   35.6826   42.0703    7.2517 H   0  0  0  0  0  0  0  0  0  0  0  0
   35.7412   44.0753    5.7656 H   0  0  0  0  0  0  0  0  0  0  0  0
   32.5464   45.8842    8.0480 H   0  0  0  0  0  0  0  0  0  0  0  0
   31.9391   41.0883    8.8851 H   0  0  0  0  0  0  0  0  0  0  0  0
   32.7521   38.7416    9.7099 H   0  0  0  0  0  0  0  0  0  0  0  0
   35.3720   38.9400   10.2062 H   0  0  0  0  0  0  0  0  0  0  0  0
   36.0861   41.3901    9.6205 H   0  0  0  0  0  0  0  0  0  0  0  0
   31.8940   48.2475    8.4784 H   0  0  0  0  0  0  0  0  0  0  0  0
   31.5488   47.4122    6.9261 H   0  0  0  0  0  0  0  0  0  0  0  0
   32.0447   49.1387    6.9261 H   0  0  0  0  0  0  0  0  0  0  0  0
   26.1749   51.7899    5.4784 H   0  0  0  0  0  0  0  0  0  0  0  0
   26.1521   50.2539    6.4297 H   0  0  0  0  0  0  0  0  0  0  0  0
   27.7992   52.0738    8.8043 H   0  0  0  0  0  0  0  0  0  0  0  0
   29.3268   52.8369    6.1065 H   0  0  0  0  0  0  0  0  0  0  0  0
   28.9783   51.3869    5.1052 H   0  0  0  0  0  0  0  0  0  0  0  0
   27.8368   52.7738    5.1052 H   0  0  0  0  0  0  0  0  0  0  0  0
   25.7535   51.7218    8.3240 H   0  0  0  0  0  0  0  0  0  0  0  0
  1  2  2  0
  1  6  1  0
  1  7  1  0
  2  3  1  0
  2  8  1  0
  3  4  2  0
  4  5  1  0
  5  6  2  0
  5 23  1  0
  7  9  1  0
  9 10  1  0
  9 11  1  0
 10 12  1  0
 10 16  2  0
 12 13  2  0
 12 18  1  0
 13 14  1  0
 14 15  2  0
 15 16  1  0
 15 17  1  0
 18 19  1  0
 18 22  1  0
 19 20  1  0
 20 21  2  0
 21 22  1  0
 23 24  2  0
 23 27  1  0
 24 25  1  0
 24 28  1  0
 25 26  2  0
 26 27  1  0
 26 29  1  0
 29 30  1  0
 29 31  1  1
 29 32  1  0
 30 33  1  0
  4 34  1  0
  6 35  1  0
  8 36  1  0
  8 37  1  0
  9 38  1  1
 11 39  1  0
 11 40  1  0
 11 41  1  0
 13 42  1  0
 14 43  1  0
 16 44  1  0
 19 45  1  0
 20 46  1  0
 21 47  1  0
 22 48  1  0
 28 49  1  0
 28 50  1  0
 28 51  1  0
 30 52  1  0
 30 53  1  0
 31 54  1  0
 32 55  1  0
 32 56  1  0
 32 57  1  0
 33 58  1  0
M  END
>  <filename_input>  (8) 
7R7R_AWJ_docked.sdf

>  <pdb_id>  (8) 
7R7R_AWJ

>  <pose_rank>  (8) 
7

>  <num_atoms_heavy>  (8) 
33

>  <num_torsions>  (8) 
7

>  <pose>  (8) 
[29.8664989539493, 44.54912444538186, 9.20556349491733, 5.06962831333369, -1.9101734385570572, -3.313694699820515, -2.942094276945278, 1.7085248598177727, 0.8827652488089536, 1.2575855667546265, 2.8456347299363602, 0.6407696675000737, -1.1754654529919841]

>  <energy>  (8) 
-1303.5099374637846

>  <inter_energy>  (8) 
-1341.010006683197

>  <intra_energy>  (8) 
61.26745687253184

>  <rmsd>  (8) 
3.91218

>  <sdf_rank>  (8) 
0

$$$$

     RDKit          3D

 58 61  0  0  0  0  0  0  0  0999 V2000
   30.3241   44.8020    8.2087 C   0  0  0  0  0  0  0  0  0  0  0  0
   29.2612   44.5901    9.0799 C   0  0  0  0  0  0  0  0  0  0  0  0
   28.2979   45.5232    9.2898 N   0  0  0  0  0  0  0  0  0  0  0  0
   28.4111   46.6945    8.6196 C   0  0  0  0  0  0  0  0  0  0  0  0
   29.4351   47.0108    7.7413 C   0  0  0  0  0  0  0  0  0  0  0  0
   30.3967   46.0266    7.5329 C   0  0  0  0  0  0  0  0  0  0  0  0
   31.2479   43.7646    8.0942 O   0  0  0  0  0  0  0  0  0  0  0  0
   29.1769   43.3608    9.7731 N   0  0  0  0  0  0  0  0  0  0  0  0
   31.8813   43.3511    9.3085 C   0  0  1  0  0  0  0  0  0  0  0  0
   33.3380   43.1137    9.0470 C   0  0  0  0  0  0  0  0  0  0  0  0
   31.7071   44.4806   10.3026 C   0  0  0  0  0  0  0  0  0  0  0  0
   34.1204   44.0270    8.3134 C   0  0  0  0  0  0  0  0  0  0  0  0
   35.4839   43.7690    8.1238 C   0  0  0  0  0  0  0  0  0  0  0  0
   36.0671   42.6316    8.6912 C   0  0  0  0  0  0  0  0  0  0  0  0
   35.2875   41.7285    9.4096 C   0  0  0  0  0  0  0  0  0  0  0  0
   33.9205   41.9601    9.5852 C   0  0  0  0  0  0  0  0  0  0  0  0
   35.8537   40.6319    9.9338 F   0  0  0  0  0  0  0  0  0  0  0  0
   33.6183   45.2266    7.7654 N   0  0  0  0  0  0  0  0  0  0  0  0
   33.6512   46.3617    8.4947 N   0  0  0  0  0  0  0  0  0  0  0  0
   33.5200   47.3172    7.5686 C   0  0  0  0  0  0  0  0  0  0  0  0
   33.4246   46.7245    6.3047 C   0  0  0  0  0  0  0  0  0  0  0  0
   33.5110   45.3953    6.4361 N   0  0  0  0  0  0  0  0  0  0  0  0
   29.5212   48.3141    7.0846 C   0  0  0  0  0  0  0  0  0  0  0  0
   30.5350   48.9452    6.3854 C   0  0  0  0  0  0  0  0  0  0  0  0
   30.2304   50.2220    5.9410 N   0  0  0  0  0  0  0  0  0  0  0  0
   29.0059   50.5743    6.2708 C   0  0  0  0  0  0  0  0  0  0  0  0
   28.1491   49.3485    7.1171 S   0  0  0  0  0  0  0  0  0  0  0  0
   31.8878   48.4313    6.0959 C   0  0  0  0  0  0  0  0  0  0  0  0
   28.3884   51.8924    5.9774 C   0  0  1  0  0  0  0  0  0  0  0  0
   27.0466   51.7363    5.2977 C   0  0  0  0  0  0  0  0  0  0  0  0
   28.2317   52.7064    7.1419 O   0  0  0  0  0  0  0  0  0  0  0  0
   29.3171   52.6639    5.0613 C   0  0  0  0  0  0  0  0  0  0  0  0
   26.6092   52.9736    4.7485 O   0  0  0  0  0  0  0  0  0  0  0  0
   27.6311   47.4523    8.7850 H   0  0  0  0  0  0  0  0  0  0  0  0
   31.2224   46.2124    6.8302 H   0  0  0  0  0  0  0  0  0  0  0  0
   28.3960   43.1880   10.4220 H   0  0  0  0  0  0  0  0  0  0  0  0
   29.8965   42.6381    9.6291 H   0  0  0  0  0  0  0  0  0  0  0  0
   31.4418   42.4209    9.6980 H   0  0  0  0  0  0  0  0  0  0  0  0
   31.7687   44.0814   11.3258 H   0  0  0  0  0  0  0  0  0  0  0  0
   32.5007   45.2273   10.1520 H   0  0  0  0  0  0  0  0  0  0  0  0
   30.7254   44.9535   10.1520 H   0  0  0  0  0  0  0  0  0  0  0  0
   36.0965   44.4616    7.5280 H   0  0  0  0  0  0  0  0  0  0  0  0
   37.1451   42.4497    8.5696 H   0  0  0  0  0  0  0  0  0  0  0  0
   33.3052   41.2393   10.1437 H   0  0  0  0  0  0  0  0  0  0  0  0
   33.7526   46.4663    9.5143 H   0  0  0  0  0  0  0  0  0  0  0  0
   33.4915   48.3984    7.7687 H   0  0  0  0  0  0  0  0  0  0  0  0
   33.2987   47.2647    5.3548 H   0  0  0  0  0  0  0  0  0  0  0  0
   33.4984   44.6767    5.6983 H   0  0  0  0  0  0  0  0  0  0  0  0
   32.4141   48.2314    7.0409 H   0  0  0  0  0  0  0  0  0  0  0  0
   31.8100   47.5002    5.5155 H   0  0  0  0  0  0  0  0  0  0  0  0
   32.4478   49.1794    5.5155 H   0  0  0  0  0  0  0  0  0  0  0  0
   27.1360   50.9952    4.4898 H   0  0  0  0  0  0  0  0  0  0  0  0
   26.3107   51.4033    6.0445 H   0  0  0  0  0  0  0  0  0  0  0  0
   28.3392   52.1476    7.9520 H   0  0  0  0  0  0  0  0  0  0  0  0
   30.0239   53.2511    5.6658 H   0  0  0  0  0  0  0  0  0  0  0  0
   29.8746   51.9594    4.4266 H   0  0  0  0  0  0  0  0  0  0  0  0
   28.7267   53.3411    4.4266 H   0  0  0  0  0  0  0  0  0  0  0  0
   26.3877   53.6003    5.4822 H   0  0  0  0  0  0  0  0  0  0  0  0
  1  2  2  0
  1  6  1  0
  1  7  1  0
  2  3  1  0
  2  8  1  0
  3  4  2  0
  4  5  1  0
  5  6  2  0
  5 23  1  0
  7  9  1  0
  9 10  1  0
  9 11  1  0
 10 12  1  0
 10 16  2  0
 12 13  2  0
 12 18  1  0
 13 14  1  0
 14 15  2  0
 15 16  1  0
 15 17  1  0
 18 19  1  0
 18 22  1  0
 19 20  1  0
 20 21  2  0
 21 22  1  0
 23 24  2  0
 23 27  1  0
 24 25  1  0
 24 28  1  0
 25 26  2  0
 26 27  1  0
 26 29  1  0
 29 30  1  0
 29 31  1  1
 29 32  1  0
 30 33  1  0
  4 34  1  0
  6 35  1  0
  8 36  1  0
  8 37  1  0
  9 38  1  1
 11 39  1  0
 11 40  1  0
 11 41  1  0
 13 42  1  0
 14 43  1  0
 16 44  1  0
 19 45  1  0
 20 46  1  0
 21 47  1  0
 22 48  1  0
 28 49  1  0
 28 50  1  0
 28 51  1  0
 30 52  1  0
 30 53  1  0
 31 54  1  0
 32 55  1  0
 32 56  1  0
 32 57  1  0
 33 58  1  0
M  END
>  <filename_input>  (9) 
7R7R_AWJ_docked.sdf

>  <pdb_id>  (9) 
7R7R_AWJ

>  <pose_rank>  (9) 
8

>  <num_atoms_heavy>  (9) 
33

>  <num_torsions>  (9) 
7

>  <pose>  (9) 
[30.324109427981682, 44.8019899727556, 8.208673825163684, 2.2234242989324438, 3.024520011295322, -5.150056990496801, -9.135520964148993, -4.9371868923421065, -4.00147619426119, -4.06530605738867, 8.72718399101925, 9.48664514198155, -0.6835571015208086]

>  <energy>  (9) 
-559.4134275107402

>  <inter_energy>  (9) 
-816.5829642860131

>  <intra_energy>  (9) 
278.8049146584186

>  <rmsd>  (9) 
2.74417

>  <sdf_rank>  (9) 
0

$$$$

     RDKit          3D

 58 61  0  0  0  0  0  0  0  0999 V2000
   29.8869   44.5995    9.1904 C   0  0  0  0  0  0  0  0  0  0  0  0
   28.8192   44.3083   10.0324 C   0  0  0  0  0  0  0  0  0  0  0  0
   27.7461   45.1307   10.1544 N   0  0  0  0  0  0  0  0  0  0  0  0
   27.7516   46.2715    9.4247 C   0  0  0  0  0  0  0  0  0  0  0  0
   28.7689   46.6612    8.5685 C   0  0  0  0  0  0  0  0  0  0  0  0
   29.8462   45.7881    8.4507 C   0  0  0  0  0  0  0  0  0  0  0  0
   30.9287   43.6739    9.1679 O   0  0  0  0  0  0  0  0  0  0  0  0
   28.8481   43.1146   10.7892 N   0  0  0  0  0  0  0  0  0  0  0  0
   31.4071   43.2983    7.8729 C   0  0  1  0  0  0  0  0  0  0  0  0
   32.8864   43.0670    7.9434 C   0  0  0  0  0  0  0  0  0  0  0  0
   30.6958   42.0152    7.4960 C   0  0  0  0  0  0  0  0  0  0  0  0
   33.8079   43.9672    7.3733 C   0  0  0  0  0  0  0  0  0  0  0  0
   35.1805   43.7163    7.4941 C   0  0  0  0  0  0  0  0  0  0  0  0
   35.6285   42.5999    8.2072 C   0  0  0  0  0  0  0  0  0  0  0  0
   34.7130   41.7095    8.7628 C   0  0  0  0  0  0  0  0  0  0  0  0
   33.3401   41.9336    8.6284 C   0  0  0  0  0  0  0  0  0  0  0  0
   35.1537   40.6326    9.4289 F   0  0  0  0  0  0  0  0  0  0  0  0
   33.4346   45.1470    6.6951 N   0  0  0  0  0  0  0  0  0  0  0  0
   33.4842   45.1893    5.3471 N   0  0  0  0  0  0  0  0  0  0  0  0
   32.6934   46.2257    5.0501 C   0  0  0  0  0  0  0  0  0  0  0  0
   32.1808   46.7687    6.2334 C   0  0  0  0  0  0  0  0  0  0  0  0
   32.6387   46.0626    7.2742 N   0  0  0  0  0  0  0  0  0  0  0  0
   28.7316   47.9304    7.8439 C   0  0  0  0  0  0  0  0  0  0  0  0
   27.6895   48.7128    7.3784 C   0  0  0  0  0  0  0  0  0  0  0  0
   28.0767   49.8518    6.6905 N   0  0  0  0  0  0  0  0  0  0  0  0
   29.3867   49.9651    6.6325 C   0  0  0  0  0  0  0  0  0  0  0  0
   30.2165   48.6982    7.4444 S   0  0  0  0  0  0  0  0  0  0  0  0
   26.2416   48.4553    7.5028 C   0  0  0  0  0  0  0  0  0  0  0  0
   30.1197   51.0513    5.9341 C   0  0  1  0  0  0  0  0  0  0  0  0
   29.6310   51.2247    4.5136 C   0  0  0  0  0  0  0  0  0  0  0  0
   30.0378   52.3060    6.6141 O   0  0  0  0  0  0  0  0  0  0  0  0
   31.5928   50.6961    5.9077 C   0  0  0  0  0  0  0  0  0  0  0  0
   29.2253   52.5675    4.2772 O   0  0  0  0  0  0  0  0  0  0  0  0
   26.8826   46.9393    9.5189 H   0  0  0  0  0  0  0  0  0  0  0  0
   30.6742   46.0340    7.7696 H   0  0  0  0  0  0  0  0  0  0  0  0
   28.0653   42.8841   11.4176 H   0  0  0  0  0  0  0  0  0  0  0  0
   29.6521   42.4754   10.7122 H   0  0  0  0  0  0  0  0  0  0  0  0
   31.2129   44.0826    7.1264 H   0  0  0  0  0  0  0  0  0  0  0  0
   30.3986   41.4789    8.4093 H   0  0  0  0  0  0  0  0  0  0  0  0
   29.8007   42.2528    6.9026 H   0  0  0  0  0  0  0  0  0  0  0  0
   31.3718   41.3820    6.9026 H   0  0  0  0  0  0  0  0  0  0  0  0
   35.9068   44.3981    7.0275 H   0  0  0  0  0  0  0  0  0  0  0  0
   36.7075   42.4244    8.3297 H   0  0  0  0  0  0  0  0  0  0  0  0
   32.6194   41.2226    9.0587 H   0  0  0  0  0  0  0  0  0  0  0  0
   34.0037   44.5741    4.7047 H   0  0  0  0  0  0  0  0  0  0  0  0
   32.4796   46.5935    4.0357 H   0  0  0  0  0  0  0  0  0  0  0  0
   31.5088   47.6371    6.2979 H   0  0  0  0  0  0  0  0  0  0  0  0
   32.4317   46.1899    8.2751 H   0  0  0  0  0  0  0  0  0  0  0  0
   25.9680   48.4067    8.5671 H   0  0  0  0  0  0  0  0  0  0  0  0
   25.6816   49.2680    7.0171 H   0  0  0  0  0  0  0  0  0  0  0  0
   25.9961   47.4994    7.0171 H   0  0  0  0  0  0  0  0  0  0  0  0
   30.4439   50.9664    3.8190 H   0  0  0  0  0  0  0  0  0  0  0  0
   28.7665   50.5632    4.3559 H   0  0  0  0  0  0  0  0  0  0  0  0
   30.0478   52.1526    7.5921 H   0  0  0  0  0  0  0  0  0  0  0  0
   31.9667   50.6059    6.9383 H   0  0  0  0  0  0  0  0  0  0  0  0
   31.7298   49.7391    5.3829 H   0  0  0  0  0  0  0  0  0  0  0  0
   32.1510   51.4853    5.3829 H   0  0  0  0  0  0  0  0  0  0  0  0
   29.0863   53.0275    5.1428 H   0  0  0  0  0  0  0  0  0  0  0  0
  1  2  2  0
  1  6  1  0
  1  7  1  0
  2  3  1  0
  2  8  1  0
  3  4  2  0
  4  5  1  0
  5  6  2  0
  5 23  1  0
  7  9  1  0
  9 10  1  0
  9 11  1  0
 10 12  1  0
 10 16  2  0
 12 13  2  0
 12 18  1  0
 13 14  1  0
 14 15  2  0
 15 16  1  0
 15 17  1  0
 18 19  1  0
 18 22  1  0
 19 20  1  0
 20 21  2  0
 21 22  1  0
 23 24  2  0
 23 27  1  0
 24 25  1  0
 24 28  1  0
 25 26  2  0
 26 27  1  0
 26 29  1  0
 29 30  1  0
 29 31  1  1
 29 32  1  0
 30 33  1  0
  4 34  1  0
  6 35  1  0
  8 36  1  0
  8 37  1  0
  9 38  1  6
 11 39  1  0
 11 40  1  0
 11 41  1  0
 13 42  1  0
 14 43  1  0
 16 44  1  0
 19 45  1  0
 20 46  1  0
 21 47  1  0
 22 48  1  0
 28 49  1  0
 28 50  1  0
 28 51  1  0
 30 52  1  0
 30 53  1  0
 31 54  1  0
 32 55  1  0
 32 56  1  0
 32 57  1  0
 33 58  1  0
M  END
>  <filename_input>  (10) 
7R7R_AWJ_docked.sdf

>  <pdb_id>  (10) 
7R7R_AWJ

>  <pose_rank>  (10) 
9

>  <num_atoms_heavy>  (10) 
33

>  <num_torsions>  (10) 
7

>  <pose>  (10) 
[29.886880223545685, 44.59946471606665, 9.19036334808055, 2.8876331889770017, -0.3005213074319203, -5.515802149650576, 0.02319340628398357, -1.7850501584537264, 1.0856769543200857, 5.552336886798243, 7.38642730338381, 6.80268612112028, 2.2147175716507324]

>  <energy>  (10) 
-1577.1694009790401

>  <inter_energy>  (10) 
-1623.3484738439122

>  <intra_energy>  (10) 
63.47781389117473

>  <rmsd>  (10) 
2.14154

>  <sdf_rank>  (10) 
0

$$$$

     RDKit          3D

 58 61  0  0  0  0  0  0  0  0999 V2000
   29.7529   45.1662    8.5253 C   0  0  0  0  0  0  0  0  0  0  0  0
   28.8644   44.7036    9.4898 C   0  0  0  0  0  0  0  0  0  0  0  0
   27.7214   45.3665    9.8010 N   0  0  0  0  0  0  0  0  0  0  0  0
   27.4726   46.5208    9.1380 C   0  0  0  0  0  0  0  0  0  0  0  0
   28.2967   47.0746    8.1716 C   0  0  0  0  0  0  0  0  0  0  0  0
   29.4511   46.3619    7.8613 C   0  0  0  0  0  0  0  0  0  0  0  0
   30.8931   44.3936    8.3115 O   0  0  0  0  0  0  0  0  0  0  0  0
   29.1578   43.5007   10.1721 N   0  0  0  0  0  0  0  0  0  0  0  0
   32.1400   45.0945    8.3351 C   0  0  1  0  0  0  0  0  0  0  0  0
   33.2626   44.1014    8.3163 C   0  0  0  0  0  0  0  0  0  0  0  0
   32.1846   45.9556    7.0897 C   0  0  0  0  0  0  0  0  0  0  0  0
   33.5102   43.2383    9.4018 C   0  0  0  0  0  0  0  0  0  0  0  0
   34.5552   42.3095    9.3188 C   0  0  0  0  0  0  0  0  0  0  0  0
   35.3203   42.2183    8.1516 C   0  0  0  0  0  0  0  0  0  0  0  0
   35.0756   43.0787    7.0842 C   0  0  0  0  0  0  0  0  0  0  0  0
   34.0526   44.0276    7.1630 C   0  0  0  0  0  0  0  0  0  0  0  0
   35.8272   42.9945    5.9771 F   0  0  0  0  0  0  0  0  0  0  0  0
   32.7422   43.2269   10.5857 N   0  0  0  0  0  0  0  0  0  0  0  0
   32.5267   44.3784   11.2556 N   0  0  0  0  0  0  0  0  0  0  0  0
   31.4674   44.0881   12.0181 C   0  0  0  0  0  0  0  0  0  0  0  0
   31.0696   42.7694   11.7723 C   0  0  0  0  0  0  0  0  0  0  0  0
   31.8714   42.2356   10.8429 N   0  0  0  0  0  0  0  0  0  0  0  0
   27.9900   48.3500    7.5263 C   0  0  0  0  0  0  0  0  0  0  0  0
   26.7989   48.9510    7.1587 C   0  0  0  0  0  0  0  0  0  0  0  0
   26.9345   50.1743    6.5218 N   0  0  0  0  0  0  0  0  0  0  0  0
   28.1972   50.5278    6.4078 C   0  0  0  0  0  0  0  0  0  0  0  0
   29.2869   49.3951    7.1022 S   0  0  0  0  0  0  0  0  0  0  0  0
   25.4306   48.4274    7.3370 C   0  0  0  0  0  0  0  0  0  0  0  0
   28.6811   51.7629    5.7407 C   0  0  1  0  0  0  0  0  0  0  0  0
   27.8587   52.9671    6.1411 C   0  0  0  0  0  0  0  0  0  0  0  0
   30.0612   52.0316    5.9982 O   0  0  0  0  0  0  0  0  0  0  0  0
   28.5749   51.5713    4.2411 C   0  0  0  0  0  0  0  0  0  0  0  0
   28.5774   54.1724    5.9079 O   0  0  0  0  0  0  0  0  0  0  0  0
   26.5461   47.0596    9.3855 H   0  0  0  0  0  0  0  0  0  0  0  0
   30.1336   46.7415    7.0866 H   0  0  0  0  0  0  0  0  0  0  0  0
   28.5101   43.1442   10.8893 H   0  0  0  0  0  0  0  0  0  0  0  0
   30.0193   42.9807    9.9520 H   0  0  0  0  0  0  0  0  0  0  0  0
   32.2391   45.7143    9.2384 H   0  0  0  0  0  0  0  0  0  0  0  0
   32.2393   47.0156    7.3786 H   0  0  0  0  0  0  0  0  0  0  0  0
   33.0703   45.6919    6.4931 H   0  0  0  0  0  0  0  0  0  0  0  0
   31.2764   45.7846    6.4931 H   0  0  0  0  0  0  0  0  0  0  0  0
   34.7744   41.6512   10.1723 H   0  0  0  0  0  0  0  0  0  0  0  0
   36.1178   41.4644    8.0765 H   0  0  0  0  0  0  0  0  0  0  0  0
   33.8689   44.7132    6.3226 H   0  0  0  0  0  0  0  0  0  0  0  0
   33.0498   45.2636   11.1946 H   0  0  0  0  0  0  0  0  0  0  0  0
   30.9848   44.7772   12.7268 H   0  0  0  0  0  0  0  0  0  0  0  0
   30.2317   42.2537   12.2642 H   0  0  0  0  0  0  0  0  0  0  0  0
   31.8311   41.2945   10.4263 H   0  0  0  0  0  0  0  0  0  0  0  0
   25.2077   48.3422    8.4108 H   0  0  0  0  0  0  0  0  0  0  0  0
   24.7112   49.1138    6.8666 H   0  0  0  0  0  0  0  0  0  0  0  0
   25.3531   47.4361    6.8666 H   0  0  0  0  0  0  0  0  0  0  0  0
   26.9303   52.9815    5.5514 H   0  0  0  0  0  0  0  0  0  0  0  0
   27.6306   52.8959    7.2148 H   0  0  0  0  0  0  0  0  0  0  0  0
   30.2148   52.0615    6.9758 H   0  0  0  0  0  0  0  0  0  0  0  0
   28.0518   50.6273    4.0282 H   0  0  0  0  0  0  0  0  0  0  0  0
   28.0123   52.4091    3.8033 H   0  0  0  0  0  0  0  0  0  0  0  0
   29.5835   51.5384    3.8033 H   0  0  0  0  0  0  0  0  0  0  0  0
   28.8226   54.5834    6.7745 H   0  0  0  0  0  0  0  0  0  0  0  0
  1  2  2  0
  1  6  1  0
  1  7  1  0
  2  3  1  0
  2  8  1  0
  3  4  2  0
  4  5  1  0
  5  6  2  0
  5 23  1  0
  7  9  1  0
  9 10  1  0
  9 11  1  0
 10 12  1  0
 10 16  2  0
 12 13  2  0
 12 18  1  0
 13 14  1  0
 14 15  2  0
 15 16  1  0
 15 17  1  0
 18 19  1  0
 18 22  1  0
 19 20  1  0
 20 21  2  0
 21 22  1  0
 23 24  2  0
 23 27  1  0
 24 25  1  0
 24 28  1  0
 25 26  2  0
 26 27  1  0
 26 29  1  0
 29 30  1  0
 29 31  1  6
 29 32  1  0
 30 33  1  0
  4 34  1  0
  6 35  1  0
  8 36  1  0
  8 37  1  0
  9 38  1  1
 11 39  1  0
 11 40  1  0
 11 41  1  0
 13 42  1  0
 14 43  1  0
 16 44  1  0
 19 45  1  0
 20 46  1  0
 21 47  1  0
 22 48  1  0
 28 49  1  0
 28 50  1  0
 28 51  1  0
 30 52  1  0
 30 53  1  0
 31 54  1  0
 32 55  1  0
 32 56  1  0
 32 57  1  0
 33 58  1  0
M  END
>  <filename_input>  (11) 
7R7R_AWJ_docked.sdf

>  <pdb_id>  (11) 
7R7R_AWJ

>  <pose_rank>  (11) 
10

>  <num_atoms_heavy>  (11) 
33

>  <num_torsions>  (11) 
7

>  <pose>  (11) 
[29.75293691144743, 45.166235183314264, 8.525342937063504, -0.6000179778736431, -3.7071133509756304, -4.74663298777998, -0.07726642892712236, -0.11828813864273395, 1.6838955533078315, -5.324490837200529, -4.730251051933702, 7.505094942289955, 3.1189075162114546]

>  <energy>  (11) 
-1004.5521910273978

>  <inter_energy>  (11) 
-1120.1418502526217

>  <intra_energy>  (11) 
109.9637508897236

>  <rmsd>  (11) 
3.54262

>  <sdf_rank>  (11) 
0

$$$$

     RDKit          3D

 58 61  0  0  0  0  0  0  0  0999 V2000
   29.8704   44.8240    9.2286 C   0  0  0  0  0  0  0  0  0  0  0  0
   28.8918   44.4562   10.1456 C   0  0  0  0  0  0  0  0  0  0  0  0
   27.7984   45.2236   10.3869 N   0  0  0  0  0  0  0  0  0  0  0  0
   27.6924   46.3868    9.7017 C   0  0  0  0  0  0  0  0  0  0  0  0
   28.6152   46.8511    8.7784 C   0  0  0  0  0  0  0  0  0  0  0  0
   29.7154   46.0331    8.5390 C   0  0  0  0  0  0  0  0  0  0  0  0
   30.9457   43.9488    9.0852 O   0  0  0  0  0  0  0  0  0  0  0  0
   29.0368   43.2408   10.8531 N   0  0  0  0  0  0  0  0  0  0  0  0
   32.0304   44.4141    8.2767 C   0  0  1  0  0  0  0  0  0  0  0  0
   33.2110   43.5112    8.4712 C   0  0  0  0  0  0  0  0  0  0  0  0
   31.5621   44.3577    6.8373 C   0  0  0  0  0  0  0  0  0  0  0  0
   34.3417   43.9139    9.2085 C   0  0  0  0  0  0  0  0  0  0  0  0
   35.4047   43.0188    9.3831 C   0  0  0  0  0  0  0  0  0  0  0  0
   35.3239   41.7246    8.8593 C   0  0  0  0  0  0  0  0  0  0  0  0
   34.2066   41.3341    8.1253 C   0  0  0  0  0  0  0  0  0  0  0  0
   33.1495   42.2252    7.9215 C   0  0  0  0  0  0  0  0  0  0  0  0
   34.1478   40.0967    7.6123 F   0  0  0  0  0  0  0  0  0  0  0  0
   34.4690   45.1790    9.8207 N   0  0  0  0  0  0  0  0  0  0  0  0
   34.7716   46.2591    9.0702 N   0  0  0  0  0  0  0  0  0  0  0  0
   34.3959   47.2797    9.8481 C   0  0  0  0  0  0  0  0  0  0  0  0
   33.8651   46.7787   11.0419 C   0  0  0  0  0  0  0  0  0  0  0  0
   33.8940   45.4410   11.0072 N   0  0  0  0  0  0  0  0  0  0  0  0
   28.4615   48.1404    8.1065 C   0  0  0  0  0  0  0  0  0  0  0  0
   29.3153   49.2163    7.9382 C   0  0  0  0  0  0  0  0  0  0  0  0
   28.7702   50.2931    7.2570 N   0  0  0  0  0  0  0  0  0  0  0  0
   27.5282   50.0597    6.8893 C   0  0  0  0  0  0  0  0  0  0  0  0
   26.9695   48.4959    7.3310 S   0  0  0  0  0  0  0  0  0  0  0  0
   30.7025   49.3529    8.4232 C   0  0  0  0  0  0  0  0  0  0  0  0
   26.6529   51.0248    6.1771 C   0  0  1  0  0  0  0  0  0  0  0  0
   27.2258   51.4019    4.8293 C   0  0  0  0  0  0  0  0  0  0  0  0
   25.3189   50.5427    6.0007 O   0  0  0  0  0  0  0  0  0  0  0  0
   26.5271   52.2746    7.0252 C   0  0  0  0  0  0  0  0  0  0  0  0
   27.6205   50.2435    4.1040 O   0  0  0  0  0  0  0  0  0  0  0  0
   26.8064   47.0103    9.8926 H   0  0  0  0  0  0  0  0  0  0  0  0
   30.4711   46.3394    7.8006 H   0  0  0  0  0  0  0  0  0  0  0  0
   28.3209   42.9538   11.5358 H   0  0  0  0  0  0  0  0  0  0  0  0
   29.8582   42.6424   10.6858 H   0  0  0  0  0  0  0  0  0  0  0  0
   32.3272   45.4380    8.5478 H   0  0  0  0  0  0  0  0  0  0  0  0
   30.4703   44.2263    6.8118 H   0  0  0  0  0  0  0  0  0  0  0  0
   31.8306   45.2947    6.3274 H   0  0  0  0  0  0  0  0  0  0  0  0
   32.0453   43.5112    6.3274 H   0  0  0  0  0  0  0  0  0  0  0  0
   36.3039   43.3340    9.9327 H   0  0  0  0  0  0  0  0  0  0  0  0
   36.1455   41.0128    9.0277 H   0  0  0  0  0  0  0  0  0  0  0  0
   32.2733   41.9175    7.3319 H   0  0  0  0  0  0  0  0  0  0  0  0
   35.1894   46.2897    8.1293 H   0  0  0  0  0  0  0  0  0  0  0  0
   34.4893   48.3449    9.5903 H   0  0  0  0  0  0  0  0  0  0  0  0
   33.4849   47.3871   11.8757 H   0  0  0  0  0  0  0  0  0  0  0  0
   33.5575   44.7746   11.7169 H   0  0  0  0  0  0  0  0  0  0  0  0
   30.7079   49.3534    9.5232 H   0  0  0  0  0  0  0  0  0  0  0  0
   31.3047   48.5097    8.0539 H   0  0  0  0  0  0  0  0  0  0  0  0
   31.1287   50.2973    8.0539 H   0  0  0  0  0  0  0  0  0  0  0  0
   26.4627   51.9453    4.2528 H   0  0  0  0  0  0  0  0  0  0  0  0
   28.1107   52.0358    4.9882 H   0  0  0  0  0  0  0  0  0  0  0  0
   24.9025   50.3923    6.8862 H   0  0  0  0  0  0  0  0  0  0  0  0
   26.5548   51.9995    8.0898 H   0  0  0  0  0  0  0  0  0  0  0  0
   27.3612   52.9556    6.8006 H   0  0  0  0  0  0  0  0  0  0  0  0
   25.5739   52.7757    6.8006 H   0  0  0  0  0  0  0  0  0  0  0  0
   27.8656   49.5243    4.7387 H   0  0  0  0  0  0  0  0  0  0  0  0
  1  2  2  0
  1  6  1  0
  1  7  1  0
  2  3  1  0
  2  8  1  0
  3  4  2  0
  4  5  1  0
  5  6  2  0
  5 23  1  0
  7  9  1  0
  9 10  1  0
  9 11  1  0
 10 12  1  0
 10 16  2  0
 12 13  2  0
 12 18  1  0
 13 14  1  0
 14 15  2  0
 15 16  1  0
 15 17  1  0
 18 19  1  0
 18 22  1  0
 19 20  1  0
 20 21  2  0
 21 22  1  0
 23 24  2  0
 23 27  1  0
 24 25  1  0
 24 28  1  0
 25 26  2  0
 26 27  1  0
 26 29  1  0
 29 30  1  0
 29 31  1  6
 29 32  1  0
 30 33  1  0
  4 34  1  0
  6 35  1  0
  8 36  1  0
  8 37  1  0
  9 38  1  1
 11 39  1  0
 11 40  1  0
 11 41  1  0
 13 42  1  0
 14 43  1  0
 16 44  1  0
 19 45  1  0
 20 46  1  0
 21 47  1  0
 22 48  1  0
 28 49  1  0
 28 50  1  0
 28 51  1  0
 30 52  1  0
 30 53  1  0
 31 54  1  0
 32 55  1  0
 32 56  1  0
 32 57  1  0
 33 58  1  0
M  END
>  <filename_input>  (12) 
7R7R_AWJ_docked.sdf

>  <pdb_id>  (12) 
7R7R_AWJ

>  <pose_rank>  (12) 
11

>  <num_atoms_heavy>  (12) 
33

>  <num_torsions>  (12) 
7

>  <pose>  (12) 
[29.87038250301792, 44.82397550499157, 9.228643257527482, 0.013531729426602482, 0.08556893309974614, 0.09008109000229186, -16.069941632645094, -6.1078983385137935, 6.031316720989042, 37.917585132925154, 7.777830282061717, -43.44776747643322, 2.6768096943023716]

>  <energy>  (12) 
-1348.5478595494717

>  <inter_energy>  (12) 
-1387.4985348022517

>  <intra_energy>  (12) 
26.721692043832093

>  <rmsd>  (12) 
3.56217

>  <sdf_rank>  (12) 
0

$$$$

     RDKit          3D

 58 61  0  0  0  0  0  0  0  0999 V2000
   28.9650   46.9261    8.7731 C   0  0  0  0  0  0  0  0  0  0  0  0
   28.3408   46.0050    9.6072 C   0  0  0  0  0  0  0  0  0  0  0  0
   26.9983   45.8046    9.5909 N   0  0  0  0  0  0  0  0  0  0  0  0
   26.2692   46.5514    8.7280 C   0  0  0  0  0  0  0  0  0  0  0  0
   26.7897   47.5032    7.8661 C   0  0  0  0  0  0  0  0  0  0  0  0
   28.1709   47.6719    7.8928 C   0  0  0  0  0  0  0  0  0  0  0  0
   30.3485   47.0388    8.8996 O   0  0  0  0  0  0  0  0  0  0  0  0
   29.1285   45.2483   10.5047 N   0  0  0  0  0  0  0  0  0  0  0  0
   31.0759   47.2383    7.6839 C   0  0  1  0  0  0  0  0  0  0  0  0
   32.5314   46.9816    7.9342 C   0  0  0  0  0  0  0  0  0  0  0  0
   30.5357   46.2418    6.6792 C   0  0  0  0  0  0  0  0  0  0  0  0
   33.5291   47.8801    7.5080 C   0  0  0  0  0  0  0  0  0  0  0  0
   34.8720   47.6045    7.7943 C   0  0  0  0  0  0  0  0  0  0  0  0
   35.2119   46.4643    8.5293 C   0  0  0  0  0  0  0  0  0  0  0  0
   34.2221   45.5758    8.9422 C   0  0  0  0  0  0  0  0  0  0  0  0
   32.8802   45.8250    8.6417 C   0  0  0  0  0  0  0  0  0  0  0  0
   34.5611   44.4764    9.6307 F   0  0  0  0  0  0  0  0  0  0  0  0
   33.2597   49.0817    6.8186 N   0  0  0  0  0  0  0  0  0  0  0  0
   34.0548   49.4600    5.7958 N   0  0  0  0  0  0  0  0  0  0  0  0
   33.2973   50.3439    5.1381 C   0  0  0  0  0  0  0  0  0  0  0  0
   32.0604   50.4604    5.7816 C   0  0  0  0  0  0  0  0  0  0  0  0
   32.0357   49.6371    6.8366 N   0  0  0  0  0  0  0  0  0  0  0  0
   25.9388   48.3079    6.9911 C   0  0  0  0  0  0  0  0  0  0  0  0
   24.6419   48.7742    7.1165 C   0  0  0  0  0  0  0  0  0  0  0  0
   24.1703   49.4881    6.0263 N   0  0  0  0  0  0  0  0  0  0  0  0
   25.0793   49.5904    5.0799 C   0  0  0  0  0  0  0  0  0  0  0  0
   26.5726   48.8437    5.4861 S   0  0  0  0  0  0  0  0  0  0  0  0
   23.7143   48.5704    8.2461 C   0  0  0  0  0  0  0  0  0  0  0  0
   24.8763   50.2598    3.7701 C   0  0  1  0  0  0  0  0  0  0  0  0
   24.4384   51.6966    3.9444 C   0  0  0  0  0  0  0  0  0  0  0  0
   26.0384   50.2219    2.9386 O   0  0  0  0  0  0  0  0  0  0  0  0
   23.8038   49.5076    3.0080 C   0  0  0  0  0  0  0  0  0  0  0  0
   25.5634   52.5633    4.0274 O   0  0  0  0  0  0  0  0  0  0  0  0
   25.1812   46.3901    8.7100 H   0  0  0  0  0  0  0  0  0  0  0  0
   28.6438   48.3984    7.2157 H   0  0  0  0  0  0  0  0  0  0  0  0
   28.6818   44.5619   11.1292 H   0  0  0  0  0  0  0  0  0  0  0  0
   30.1492   45.3834   10.5339 H   0  0  0  0  0  0  0  0  0  0  0  0
   30.9635   48.2663    7.3089 H   0  0  0  0  0  0  0  0  0  0  0  0
   30.0772   45.3957    7.2121 H   0  0  0  0  0  0  0  0  0  0  0  0
   29.7793   46.7309    6.0479 H   0  0  0  0  0  0  0  0  0  0  0  0
   31.3585   45.8749    6.0479 H   0  0  0  0  0  0  0  0  0  0  0  0
   35.6602   48.2854    7.4405 H   0  0  0  0  0  0  0  0  0  0  0  0
   36.2644   46.2686    8.7822 H   0  0  0  0  0  0  0  0  0  0  0  0
   32.1018   45.1158    8.9595 H   0  0  0  0  0  0  0  0  0  0  0  0
   35.0105   49.1451    5.5759 H   0  0  0  0  0  0  0  0  0  0  0  0
   33.5989   50.8929    4.2339 H   0  0  0  0  0  0  0  0  0  0  0  0
   31.2392   51.1228    5.4702 H   0  0  0  0  0  0  0  0  0  0  0  0
   31.2663   49.4699    7.5006 H   0  0  0  0  0  0  0  0  0  0  0  0
   24.2592   48.6901    9.1941 H   0  0  0  0  0  0  0  0  0  0  0  0
   22.9035   49.3118    8.1930 H   0  0  0  0  0  0  0  0  0  0  0  0
   23.2889   47.5573    8.1930 H   0  0  0  0  0  0  0  0  0  0  0  0
   23.8192   51.9914    3.0843 H   0  0  0  0  0  0  0  0  0  0  0  0
   23.8623   51.7779    4.8779 H   0  0  0  0  0  0  0  0  0  0  0  0
   26.8493   50.1955    3.5058 H   0  0  0  0  0  0  0  0  0  0  0  0
   23.1174   49.0262    3.7201 H   0  0  0  0  0  0  0  0  0  0  0  0
   23.2420   50.2106    2.3754 H   0  0  0  0  0  0  0  0  0  0  0  0
   24.2735   48.7400    2.3754 H   0  0  0  0  0  0  0  0  0  0  0  0
   25.7812   52.7311    4.9784 H   0  0  0  0  0  0  0  0  0  0  0  0
  1  2  2  0
  1  6  1  0
  1  7  1  0
  2  3  1  0
  2  8  1  0
  3  4  2  0
  4  5  1  0
  5  6  2  0
  5 23  1  0
  7  9  1  0
  9 10  1  0
  9 11  1  0
 10 12  1  0
 10 16  2  0
 12 13  2  0
 12 18  1  0
 13 14  1  0
 14 15  2  0
 15 16  1  0
 15 17  1  0
 18 19  1  0
 18 22  1  0
 19 20  1  0
 20 21  2  0
 21 22  1  0
 23 24  2  0
 23 27  1  0
 24 25  1  0
 24 28  1  0
 25 26  2  0
 26 27  1  0
 26 29  1  0
 29 30  1  0
 29 31  1  6
 29 32  1  0
 30 33  1  0
  4 34  1  0
  6 35  1  0
  8 36  1  0
  8 37  1  0
  9 38  1  6
 11 39  1  0
 11 40  1  0
 11 41  1  0
 13 42  1  0
 14 43  1  0
 16 44  1  0
 19 45  1  0
 20 46  1  0
 21 47  1  0
 22 48  1  0
 28 49  1  0
 28 50  1  0
 28 51  1  0
 30 52  1  0
 30 53  1  0
 31 54  1  0
 32 55  1  0
 32 56  1  0
 32 57  1  0
 33 58  1  0
M  END
>  <filename_input>  (13) 
7R7R_AWJ_docked.sdf

>  <pdb_id>  (13) 
7R7R_AWJ

>  <pose_rank>  (13) 
12

>  <num_atoms_heavy>  (13) 
33

>  <num_torsions>  (13) 
7

>  <pose>  (13) 
[28.964998228653045, 46.926143777985146, 8.773092903178725, 0.7991465964576664, 0.5471276291502154, -5.3349770291496945, 1.0609873226434214, 0.08898560230801726, 0.4588849647459322, 5.701329613146692, -4.313246104549462, -6.181086582146303, 1.5904677953244946]

>  <energy>  (13) 
-503.42368561234866

>  <inter_energy>  (13) 
-550.5194738107994

>  <intra_energy>  (13) 
55.47165288516308

>  <rmsd>  (13) 
3.72681

>  <sdf_rank>  (13) 
0

$$$$

     RDKit          3D

 58 61  0  0  0  0  0  0  0  0999 V2000
   30.5312   44.6667    9.2766 C   0  0  0  0  0  0  0  0  0  0  0  0
   29.5022   44.1595   10.0626 C   0  0  0  0  0  0  0  0  0  0  0  0
   28.2693   44.7264   10.0981 N   0  0  0  0  0  0  0  0  0  0  0  0
   28.0706   45.8293    9.3378 C   0  0  0  0  0  0  0  0  0  0  0  0
   29.0297   46.4212    8.5319 C   0  0  0  0  0  0  0  0  0  0  0  0
   30.2776   45.8058    8.5022 C   0  0  0  0  0  0  0  0  0  0  0  0
   31.7500   43.9937    9.3415 O   0  0  0  0  0  0  0  0  0  0  0  0
   29.7444   43.0131   10.8536 N   0  0  0  0  0  0  0  0  0  0  0  0
   32.6649   44.2470    8.2712 C   0  0  1  0  0  0  0  0  0  0  0  0
   33.6672   45.2703    8.7130 C   0  0  0  0  0  0  0  0  0  0  0  0
   33.3585   42.9356    7.9654 C   0  0  0  0  0  0  0  0  0  0  0  0
   34.9665   45.3211    8.1710 C   0  0  0  0  0  0  0  0  0  0  0  0
   35.8531   46.3168    8.5997 C   0  0  0  0  0  0  0  0  0  0  0  0
   35.4356   47.2729    9.5311 C   0  0  0  0  0  0  0  0  0  0  0  0
   34.1523   47.2137   10.0689 C   0  0  0  0  0  0  0  0  0  0  0  0
   33.2653   46.2104    9.6692 C   0  0  0  0  0  0  0  0  0  0  0  0
   33.7688   48.1248   10.9747 F   0  0  0  0  0  0  0  0  0  0  0  0
   35.4389   44.4321    7.1821 N   0  0  0  0  0  0  0  0  0  0  0  0
   35.0384   44.5798    5.9018 N   0  0  0  0  0  0  0  0  0  0  0  0
   35.9630   43.8980    5.2176 C   0  0  0  0  0  0  0  0  0  0  0  0
   36.9016   43.3700    6.1109 C   0  0  0  0  0  0  0  0  0  0  0  0
   36.5741   43.7335    7.3567 N   0  0  0  0  0  0  0  0  0  0  0  0
   28.7608   47.6399    7.7705 C   0  0  0  0  0  0  0  0  0  0  0  0
   29.5878   48.5430    7.1259 C   0  0  0  0  0  0  0  0  0  0  0  0
   28.9353   49.6142    6.5364 N   0  0  0  0  0  0  0  0  0  0  0  0
   27.6317   49.5427    6.7025 C   0  0  0  0  0  0  0  0  0  0  0  0
   27.1304   48.1430    7.5639 S   0  0  0  0  0  0  0  0  0  0  0  0
   31.0600   48.5087    7.0280 C   0  0  0  0  0  0  0  0  0  0  0  0
   26.6536   50.5533    6.2259 C   0  0  1  0  0  0  0  0  0  0  0  0
   27.0259   51.9446    6.6869 C   0  0  0  0  0  0  0  0  0  0  0  0
   26.5020   50.5557    4.8046 O   0  0  0  0  0  0  0  0  0  0  0  0
   25.2889   50.1996    6.7820 C   0  0  0  0  0  0  0  0  0  0  0  0
   27.4596   52.7425    5.5919 O   0  0  0  0  0  0  0  0  0  0  0  0
   27.0720   46.2901    9.3618 H   0  0  0  0  0  0  0  0  0  0  0  0
   31.0729   46.2183    7.8641 H   0  0  0  0  0  0  0  0  0  0  0  0
   28.9930   42.6248   11.4414 H   0  0  0  0  0  0  0  0  0  0  0  0
   30.6723   42.5661   10.8420 H   0  0  0  0  0  0  0  0  0  0  0  0
   32.1479   44.6293    7.3786 H   0  0  0  0  0  0  0  0  0  0  0  0
   33.6242   42.4331    8.9071 H   0  0  0  0  0  0  0  0  0  0  0  0
   32.6835   42.2908    7.3835 H   0  0  0  0  0  0  0  0  0  0  0  0
   34.2714   43.1306    7.3835 H   0  0  0  0  0  0  0  0  0  0  0  0
   36.8788   46.3469    8.2035 H   0  0  0  0  0  0  0  0  0  0  0  0
   36.1231   48.0742    9.8399 H   0  0  0  0  0  0  0  0  0  0  0  0
   32.2561   46.1597   10.1040 H   0  0  0  0  0  0  0  0  0  0  0  0
   34.2212   45.0920    5.5404 H   0  0  0  0  0  0  0  0  0  0  0  0
   35.9826   43.7720    4.1251 H   0  0  0  0  0  0  0  0  0  0  0  0
   37.7701   42.7545    5.8336 H   0  0  0  0  0  0  0  0  0  0  0  0
   37.0708   43.5280    8.2354 H   0  0  0  0  0  0  0  0  0  0  0  0
   31.4945   48.4986    8.0385 H   0  0  0  0  0  0  0  0  0  0  0  0
   31.3704   47.6031    6.4863 H   0  0  0  0  0  0  0  0  0  0  0  0
   31.4122   49.3989    6.4863 H   0  0  0  0  0  0  0  0  0  0  0  0
   26.1479   52.4172    7.1514 H   0  0  0  0  0  0  0  0  0  0  0  0
   27.8488   51.8662    7.4126 H   0  0  0  0  0  0  0  0  0  0  0  0
   25.5390   50.5704    4.5755 H   0  0  0  0  0  0  0  0  0  0  0  0
   25.3270   50.2095    7.8813 H   0  0  0  0  0  0  0  0  0  0  0  0
   24.5492   50.9357    6.4342 H   0  0  0  0  0  0  0  0  0  0  0  0
   24.9999   49.1968    6.4342 H   0  0  0  0  0  0  0  0  0  0  0  0
   27.9034   53.5588    5.9338 H   0  0  0  0  0  0  0  0  0  0  0  0
  1  2  2  0
  1  6  1  0
  1  7  1  0
  2  3  1  0
  2  8  1  0
  3  4  2  0
  4  5  1  0
  5  6  2  0
  5 23  1  0
  7  9  1  0
  9 10  1  0
  9 11  1  0
 10 12  1  0
 10 16  2  0
 12 13  2  0
 12 18  1  0
 13 14  1  0
 14 15  2  0
 15 16  1  0
 15 17  1  0
 18 19  1  0
 18 22  1  0
 19 20  1  0
 20 21  2  0
 21 22  1  0
 23 24  2  0
 23 27  1  0
 24 25  1  0
 24 28  1  0
 25 26  2  0
 26 27  1  0
 26 29  1  0
 29 30  1  0
 29 31  1  6
 29 32  1  0
 30 33  1  0
  4 34  1  0
  6 35  1  0
  8 36  1  0
  8 37  1  0
  9 38  1  6
 11 39  1  0
 11 40  1  0
 11 41  1  0
 13 42  1  0
 14 43  1  0
 16 44  1  0
 19 45  1  0
 20 46  1  0
 21 47  1  0
 22 48  1  0
 28 49  1  0
 28 50  1  0
 28 51  1  0
 30 52  1  0
 30 53  1  0
 31 54  1  0
 32 55  1  0
 32 56  1  0
 32 57  1  0
 33 58  1  0
M  END
>  <filename_input>  (14) 
7R7R_AWJ_docked.sdf

>  <pdb_id>  (14) 
7R7R_AWJ

>  <pose_rank>  (14) 
13

>  <num_atoms_heavy>  (14) 
33

>  <num_torsions>  (14) 
7

>  <pose>  (14) 
[30.53118428506515, 44.66667333923406, 9.276622994665049, -0.046601002043896916, -0.06124669514517011, 0.2655770364390288, 3.4153247324104075, 4.472732816690918, 0.8257777623282255, 6.048704193293738, 37.9898262589675, 61.607763661800206, -0.9387042025016669]

>  <energy>  (14) 
-1119.228308047106

>  <inter_energy>  (14) 
-1187.849866713192

>  <intra_energy>  (14) 
84.95262219327152

>  <rmsd>  (14) 
2.72263

>  <sdf_rank>  (14) 
0

$$$$

     RDKit          3D

 58 61  0  0  0  0  0  0  0  0999 V2000
   29.6976   45.7019    8.2680 C   0  0  0  0  0  0  0  0  0  0  0  0
   28.8864   44.8815    9.0445 C   0  0  0  0  0  0  0  0  0  0  0  0
   27.5626   45.1258    9.2191 N   0  0  0  0  0  0  0  0  0  0  0  0
   27.0473   46.2204    8.6107 C   0  0  0  0  0  0  0  0  0  0  0  0
   27.7693   47.1076    7.8287 C   0  0  0  0  0  0  0  0  0  0  0  0
   29.1195   46.8196    7.6532 C   0  0  0  0  0  0  0  0  0  0  0  0
   31.0412   45.3415    8.1809 O   0  0  0  0  0  0  0  0  0  0  0  0
   29.4566   43.7522    9.6755 N   0  0  0  0  0  0  0  0  0  0  0  0
   31.9463   46.3806    7.7966 C   0  0  1  0  0  0  0  0  0  0  0  0
   33.1527   46.3352    8.6851 C   0  0  0  0  0  0  0  0  0  0  0  0
   32.3453   46.1081    6.3610 C   0  0  0  0  0  0  0  0  0  0  0  0
   34.3755   46.9253    8.3097 C   0  0  0  0  0  0  0  0  0  0  0  0
   35.4625   46.8781    9.1915 C   0  0  0  0  0  0  0  0  0  0  0  0
   35.3196   46.2813   10.4482 C   0  0  0  0  0  0  0  0  0  0  0  0
   34.1105   45.6933   10.8114 C   0  0  0  0  0  0  0  0  0  0  0  0
   33.0250   45.7105    9.9314 C   0  0  0  0  0  0  0  0  0  0  0  0
   33.9903   45.1079   12.0117 F   0  0  0  0  0  0  0  0  0  0  0  0
   34.5777   47.6005    7.0871 N   0  0  0  0  0  0  0  0  0  0  0  0
   34.7808   46.8924    5.9563 N   0  0  0  0  0  0  0  0  0  0  0  0
   34.5057   47.7788    4.9938 C   0  0  0  0  0  0  0  0  0  0  0  0
   34.1318   48.9936    5.5787 C   0  0  0  0  0  0  0  0  0  0  0  0
   34.1579   48.8653    6.9107 N   0  0  0  0  0  0  0  0  0  0  0  0
   27.1589   48.2972    7.2373 C   0  0  0  0  0  0  0  0  0  0  0  0
   27.6935   49.4330    6.6552 C   0  0  0  0  0  0  0  0  0  0  0  0
   26.7610   50.3705    6.2404 N   0  0  0  0  0  0  0  0  0  0  0  0
   25.5294   49.9719    6.4780 C   0  0  0  0  0  0  0  0  0  0  0  0
   25.4446   48.4126    7.1950 S   0  0  0  0  0  0  0  0  0  0  0  0
   29.1189   49.7632    6.4620 C   0  0  0  0  0  0  0  0  0  0  0  0
   24.3056   50.7613    6.1882 C   0  0  1  0  0  0  0  0  0  0  0  0
   23.9748   50.7485    4.7127 C   0  0  0  0  0  0  0  0  0  0  0  0
   23.1664   50.3154    6.9275 O   0  0  0  0  0  0  0  0  0  0  0  0
   24.5429   52.1924    6.6268 C   0  0  0  0  0  0  0  0  0  0  0  0
   22.5906   50.4945    4.5054 O   0  0  0  0  0  0  0  0  0  0  0  0
   25.9744   46.4204    8.7476 H   0  0  0  0  0  0  0  0  0  0  0  0
   29.7391   47.4767    7.0252 H   0  0  0  0  0  0  0  0  0  0  0  0
   28.8696   43.1344   10.2541 H   0  0  0  0  0  0  0  0  0  0  0  0
   30.4590   43.5472    9.5567 H   0  0  0  0  0  0  0  0  0  0  0  0
   31.4841   47.3746    7.8883 H   0  0  0  0  0  0  0  0  0  0  0  0
   33.2535   45.4878    6.3443 H   0  0  0  0  0  0  0  0  0  0  0  0
   31.5294   45.5777    5.8481 H   0  0  0  0  0  0  0  0  0  0  0  0
   32.5425   47.0610    5.8481 H   0  0  0  0  0  0  0  0  0  0  0  0
   36.4295   47.3108    8.8955 H   0  0  0  0  0  0  0  0  0  0  0  0
   36.1649   46.2763   11.1521 H   0  0  0  0  0  0  0  0  0  0  0  0
   32.0747   45.2355   10.2167 H   0  0  0  0  0  0  0  0  0  0  0  0
   35.0755   45.9103    5.8586 H   0  0  0  0  0  0  0  0  0  0  0  0
   34.5640   47.5838    3.9128 H   0  0  0  0  0  0  0  0  0  0  0  0
   33.8598   49.9081    5.0312 H   0  0  0  0  0  0  0  0  0  0  0  0
   33.9154   49.5652    7.6264 H   0  0  0  0  0  0  0  0  0  0  0  0
   29.6053   49.8759    7.4422 H   0  0  0  0  0  0  0  0  0  0  0  0
   29.6096   48.9549    5.8999 H   0  0  0  0  0  0  0  0  0  0  0  0
   29.2042   50.7049    5.8999 H   0  0  0  0  0  0  0  0  0  0  0  0
   24.2308   51.7258    4.2777 H   0  0  0  0  0  0  0  0  0  0  0  0
   24.5553   49.9490    4.2291 H   0  0  0  0  0  0  0  0  0  0  0  0
   23.3529   50.3884    7.8970 H   0  0  0  0  0  0  0  0  0  0  0  0
   24.5512   52.2426    7.7256 H   0  0  0  0  0  0  0  0  0  0  0  0
   25.5109   52.5398    6.2366 H   0  0  0  0  0  0  0  0  0  0  0  0
   23.7388   52.8336    6.2366 H   0  0  0  0  0  0  0  0  0  0  0  0
   22.1357   50.4110    5.3808 H   0  0  0  0  0  0  0  0  0  0  0  0
  1  2  2  0
  1  6  1  0
  1  7  1  0
  2  3  1  0
  2  8  1  0
  3  4  2  0
  4  5  1  0
  5  6  2  0
  5 23  1  0
  7  9  1  0
  9 10  1  0
  9 11  1  0
 10 12  1  0
 10 16  2  0
 12 13  2  0
 12 18  1  0
 13 14  1  0
 14 15  2  0
 15 16  1  0
 15 17  1  0
 18 19  1  0
 18 22  1  0
 19 20  1  0
 20 21  2  0
 21 22  1  0
 23 24  2  0
 23 27  1  0
 24 25  1  0
 24 28  1  0
 25 26  2  0
 26 27  1  0
 26 29  1  0
 29 30  1  0
 29 31  1  1
 29 32  1  0
 30 33  1  0
  4 34  1  0
  6 35  1  0
  8 36  1  0
  8 37  1  0
  9 38  1  6
 11 39  1  0
 11 40  1  0
 11 41  1  0
 13 42  1  0
 14 43  1  0
 16 44  1  0
 19 45  1  0
 20 46  1  0
 21 47  1  0
 22 48  1  0
 28 49  1  0
 28 50  1  0
 28 51  1  0
 30 52  1  0
 30 53  1  0
 31 54  1  0
 32 55  1  0
 32 56  1  0
 32 57  1  0
 33 58  1  0
M  END
>  <filename_input>  (15) 
7R7R_AWJ_docked.sdf

>  <pdb_id>  (15) 
7R7R_AWJ

>  <pose_rank>  (15) 
14

>  <num_atoms_heavy>  (15) 
33

>  <num_torsions>  (15) 
7

>  <pose>  (15) 
[29.697573960112226, 45.70185743667096, 8.2680295984753, 0.08428829648318346, -0.010169139037108865, 0.504224109091043, 3.421188906922305, 6.7179257236494, 1.2462619380824234, 6.725896884913904, 38.631549721189444, 61.733447786228346, 2.653541194353605]

>  <energy>  (15) 
-788.1118949772415

>  <inter_energy>  (15) 
-886.0106816197535

>  <intra_energy>  (15) 
103.89573344074279

>  <rmsd>  (15) 
3.44701

>  <sdf_rank>  (15) 
0

$$$$

     RDKit          3D

 58 61  0  0  0  0  0  0  0  0999 V2000
   32.9529   48.3828    7.2488 C   0  0  0  0  0  0  0  0  0  0  0  0
   33.6562   49.0913    6.2807 C   0  0  0  0  0  0  0  0  0  0  0  0
   33.0779   50.0628    5.5295 N   0  0  0  0  0  0  0  0  0  0  0  0
   31.7663   50.3193    5.7482 C   0  0  0  0  0  0  0  0  0  0  0  0
   30.9734   49.6639    6.6764 C   0  0  0  0  0  0  0  0  0  0  0  0
   31.5997   48.6865    7.4440 C   0  0  0  0  0  0  0  0  0  0  0  0
   33.6655   47.4053    7.9412 O   0  0  0  0  0  0  0  0  0  0  0  0
   35.0216   48.7927    6.0687 N   0  0  0  0  0  0  0  0  0  0  0  0
   32.9829   46.7887    9.0370 C   0  0  1  0  0  0  0  0  0  0  0  0
   32.8495   45.3199    8.7692 C   0  0  0  0  0  0  0  0  0  0  0  0
   33.8319   47.0190   10.2701 C   0  0  0  0  0  0  0  0  0  0  0  0
   32.7660   44.8073    7.4597 C   0  0  0  0  0  0  0  0  0  0  0  0
   32.6716   43.4233    7.2666 C   0  0  0  0  0  0  0  0  0  0  0  0
   32.6975   42.5592    8.3659 C   0  0  0  0  0  0  0  0  0  0  0  0
   32.7731   43.0718    9.6586 C   0  0  0  0  0  0  0  0  0  0  0  0
   32.8422   44.4519    9.8675 C   0  0  0  0  0  0  0  0  0  0  0  0
   32.7788   42.2348   10.7061 F   0  0  0  0  0  0  0  0  0  0  0  0
   32.7984   45.6102    6.2997 N   0  0  0  0  0  0  0  0  0  0  0  0
   33.9307   45.6868    5.5692 N   0  0  0  0  0  0  0  0  0  0  0  0
   33.4962   46.1408    4.3890 C   0  0  0  0  0  0  0  0  0  0  0  0
   32.1085   46.3116    4.4431 C   0  0  0  0  0  0  0  0  0  0  0  0
   31.6691   45.9501    5.6546 N   0  0  0  0  0  0  0  0  0  0  0  0
   29.5499   49.9597    6.8297 C   0  0  0  0  0  0  0  0  0  0  0  0
   28.4656   49.1810    7.1940 C   0  0  0  0  0  0  0  0  0  0  0  0
   27.2455   49.8383    7.1848 N   0  0  0  0  0  0  0  0  0  0  0  0
   27.3743   51.1012    6.8372 C   0  0  0  0  0  0  0  0  0  0  0  0
   29.0016   51.5612    6.5321 S   0  0  0  0  0  0  0  0  0  0  0  0
   28.4615   47.7492    7.5516 C   0  0  0  0  0  0  0  0  0  0  0  0
   26.2544   52.0657    6.6938 C   0  0  1  0  0  0  0  0  0  0  0  0
   25.4798   51.8290    5.4168 C   0  0  0  0  0  0  0  0  0  0  0  0
   25.3511   52.0400    7.8013 O   0  0  0  0  0  0  0  0  0  0  0  0
   26.8293   53.4678    6.6678 C   0  0  0  0  0  0  0  0  0  0  0  0
   25.4683   50.4471    5.0794 O   0  0  0  0  0  0  0  0  0  0  0  0
   31.2947   51.1077    5.1432 H   0  0  0  0  0  0  0  0  0  0  0  0
   31.0260   48.1469    8.2119 H   0  0  0  0  0  0  0  0  0  0  0  0
   35.5568   49.3082    5.3555 H   0  0  0  0  0  0  0  0  0  0  0  0
   35.4812   48.0596    6.6275 H   0  0  0  0  0  0  0  0  0  0  0  0
   31.9762   47.2098    9.1755 H   0  0  0  0  0  0  0  0  0  0  0  0
   33.2226   46.8537   11.1709 H   0  0  0  0  0  0  0  0  0  0  0  0
   34.6800   46.3185   10.2674 H   0  0  0  0  0  0  0  0  0  0  0  0
   34.2096   48.0521   10.2674 H   0  0  0  0  0  0  0  0  0  0  0  0
   32.5770   43.0157    6.2493 H   0  0  0  0  0  0  0  0  0  0  0  0
   32.6579   41.4712    8.2090 H   0  0  0  0  0  0  0  0  0  0  0  0
   32.8907   44.8543   10.8901 H   0  0  0  0  0  0  0  0  0  0  0  0
   34.8932   45.4529    5.8516 H   0  0  0  0  0  0  0  0  0  0  0  0
   34.1296   46.3474    3.5138 H   0  0  0  0  0  0  0  0  0  0  0  0
   31.4792   46.6836    3.6212 H   0  0  0  0  0  0  0  0  0  0  0  0
   30.7013   45.9359    6.0069 H   0  0  0  0  0  0  0  0  0  0  0  0
   28.4612   47.6447    8.6466 H   0  0  0  0  0  0  0  0  0  0  0  0
   27.5620   47.2703    7.1373 H   0  0  0  0  0  0  0  0  0  0  0  0
   29.3583   47.2653    7.1373 H   0  0  0  0  0  0  0  0  0  0  0  0
   24.4447   52.1749    5.5541 H   0  0  0  0  0  0  0  0  0  0  0  0
   25.9659   52.3859    4.6023 H   0  0  0  0  0  0  0  0  0  0  0  0
   25.8654   52.0546    8.6471 H   0  0  0  0  0  0  0  0  0  0  0  0
   26.9752   53.8235    7.6984 H   0  0  0  0  0  0  0  0  0  0  0  0
   27.7960   53.4580    6.1430 H   0  0  0  0  0  0  0  0  0  0  0  0
   26.1340   54.1395    6.1430 H   0  0  0  0  0  0  0  0  0  0  0  0
   25.4638   49.9051    5.9078 H   0  0  0  0  0  0  0  0  0  0  0  0
  1  2  2  0
  1  6  1  0
  1  7  1  0
  2  3  1  0
  2  8  1  0
  3  4  2  0
  4  5  1  0
  5  6  2  0
  5 23  1  0
  7  9  1  0
  9 10  1  0
  9 11  1  0
 10 12  1  0
 10 16  2  0
 12 13  2  0
 12 18  1  0
 13 14  1  0
 14 15  2  0
 15 16  1  0
 15 17  1  0
 18 19  1  0
 18 22  1  0
 19 20  1  0
 20 21  2  0
 21 22  1  0
 23 24  2  0
 23 27  1  0
 24 25  1  0
 24 28  1  0
 25 26  2  0
 26 27  1  0
 26 29  1  0
 29 30  1  0
 29 31  1  1
 29 32  1  0
 30 33  1  0
  4 34  1  0
  6 35  1  0
  8 36  1  0
  8 37  1  0
  9 38  1  1
 11 39  1  0
 11 40  1  0
 11 41  1  0
 13 42  1  0
 14 43  1  0
 16 44  1  0
 19 45  1  0
 20 46  1  0
 21 47  1  0
 22 48  1  0
 28 49  1  0
 28 50  1  0
 28 51  1  0
 30 52  1  0
 30 53  1  0
 31 54  1  0
 32 55  1  0
 32 56  1  0
 32 57  1  0
 33 58  1  0
M  END
>  <filename_input>  (16) 
7R7R_AWJ_docked.sdf

>  <pdb_id>  (16) 
7R7R_AWJ

>  <pose_rank>  (16) 
15

>  <num_atoms_heavy>  (16) 
33

>  <num_torsions>  (16) 
7

>  <pose>  (16) 
[32.95293451715178, 48.382790401126655, 7.248819993673683, -2.008425101638745, 2.2762582406716145, -0.7628835466653946, 3.1177334077000483, -2.2195793205297196, -0.5254262716396717, -0.04159708986167344, 0.6457447092746511, -4.394264817206015, -0.4666038497747122]

>  <energy>  (16) 
-602.18317524291

>  <inter_energy>  (16) 
-708.8394325218577

>  <intra_energy>  (16) 
105.41125258581552

>  <rmsd>  (16) 
4.3754

>  <sdf_rank>  (16) 
0

$$$$

     RDKit          3D

 58 61  0  0  0  0  0  0  0  0999 V2000
   32.4852   43.8637    7.5520 C   0  0  0  0  0  0  0  0  0  0  0  0
   32.4108   42.5266    7.9266 C   0  0  0  0  0  0  0  0  0  0  0  0
   33.5049   41.7246    7.9748 N   0  0  0  0  0  0  0  0  0  0  0  0
   34.6937   42.2741    7.6299 C   0  0  0  0  0  0  0  0  0  0  0  0
   34.8744   43.5884    7.2302 C   0  0  0  0  0  0  0  0  0  0  0  0
   33.7371   44.3901    7.2093 C   0  0  0  0  0  0  0  0  0  0  0  0
   31.2841   44.5706    7.5358 O   0  0  0  0  0  0  0  0  0  0  0  0
   31.1534   41.9795    8.2706 N   0  0  0  0  0  0  0  0  0  0  0  0
   30.8514   45.1022    8.7915 C   0  0  1  0  0  0  0  0  0  0  0  0
   31.9500   45.9378    9.3763 C   0  0  0  0  0  0  0  0  0  0  0  0
   29.6359   45.9613    8.5104 C   0  0  0  0  0  0  0  0  0  0  0  0
   32.2277   47.2362    8.9057 C   0  0  0  0  0  0  0  0  0  0  0  0
   33.2472   47.9837    9.5084 C   0  0  0  0  0  0  0  0  0  0  0  0
   33.9562   47.4557   10.5920 C   0  0  0  0  0  0  0  0  0  0  0  0
   33.6821   46.1688   11.0487 C   0  0  0  0  0  0  0  0  0  0  0  0
   32.6848   45.4017   10.4404 C   0  0  0  0  0  0  0  0  0  0  0  0
   34.3805   45.6657   12.0767 F   0  0  0  0  0  0  0  0  0  0  0  0
   31.5143   47.8608    7.8606 N   0  0  0  0  0  0  0  0  0  0  0  0
   30.6706   48.8768    8.1389 N   0  0  0  0  0  0  0  0  0  0  0  0
   30.5228   49.4774    6.9535 C   0  0  0  0  0  0  0  0  0  0  0  0
   31.2956   48.8084    5.9980 C   0  0  0  0  0  0  0  0  0  0  0  0
   31.9414   47.7951    6.5876 N   0  0  0  0  0  0  0  0  0  0  0  0
   36.1810   44.1056    6.8271 C   0  0  0  0  0  0  0  0  0  0  0  0
   36.7155   45.3817    6.8005 C   0  0  0  0  0  0  0  0  0  0  0  0
   38.0067   45.4637    6.3040 N   0  0  0  0  0  0  0  0  0  0  0  0
   38.4752   44.2812    5.9654 C   0  0  0  0  0  0  0  0  0  0  0  0
   37.3706   42.9996    6.2652 S   0  0  0  0  0  0  0  0  0  0  0  0
   36.0628   46.6426    7.2035 C   0  0  0  0  0  0  0  0  0  0  0  0
   39.8106   44.0316    5.3662 C   0  0  1  0  0  0  0  0  0  0  0  0
   40.0158   42.5645    5.0624 C   0  0  0  0  0  0  0  0  0  0  0  0
   40.0398   44.7925    4.1780 O   0  0  0  0  0  0  0  0  0  0  0  0
   40.8703   44.4829    6.3512 C   0  0  0  0  0  0  0  0  0  0  0  0
   41.3050   42.1349    5.4834 O   0  0  0  0  0  0  0  0  0  0  0  0
   35.5831   41.6281    7.6702 H   0  0  0  0  0  0  0  0  0  0  0  0
   33.8221   45.4481    6.9206 H   0  0  0  0  0  0  0  0  0  0  0  0
   31.0810   40.9909    8.5502 H   0  0  0  0  0  0  0  0  0  0  0  0
   30.3097   42.5697    8.2415 H   0  0  0  0  0  0  0  0  0  0  0  0
   30.6043   44.3032    9.5059 H   0  0  0  0  0  0  0  0  0  0  0  0
   29.1845   46.2803    9.4614 H   0  0  0  0  0  0  0  0  0  0  0  0
   29.9387   46.8472    7.9328 H   0  0  0  0  0  0  0  0  0  0  0  0
   28.9019   45.3802    7.9328 H   0  0  0  0  0  0  0  0  0  0  0  0
   33.4905   48.9872    9.1290 H   0  0  0  0  0  0  0  0  0  0  0  0
   34.7328   48.0586   11.0853 H   0  0  0  0  0  0  0  0  0  0  0  0
   32.4782   44.3815   10.7961 H   0  0  0  0  0  0  0  0  0  0  0  0
   30.2451   49.1278    9.0427 H   0  0  0  0  0  0  0  0  0  0  0  0
   29.8931   50.3583    6.7600 H   0  0  0  0  0  0  0  0  0  0  0  0
   31.3619   49.0731    4.9324 H   0  0  0  0  0  0  0  0  0  0  0  0
   32.6041   47.1274    6.1682 H   0  0  0  0  0  0  0  0  0  0  0  0
   36.0308   46.7044    8.3013 H   0  0  0  0  0  0  0  0  0  0  0  0
   36.6332   47.4945    6.8047 H   0  0  0  0  0  0  0  0  0  0  0  0
   35.0380   46.6687    6.8047 H   0  0  0  0  0  0  0  0  0  0  0  0
   39.2502   41.9769    5.5901 H   0  0  0  0  0  0  0  0  0  0  0  0
   39.9330   42.4154    3.9757 H   0  0  0  0  0  0  0  0  0  0  0  0
   40.3163   45.7111    4.4226 H   0  0  0  0  0  0  0  0  0  0  0  0
   40.5065   44.3280    7.3777 H   0  0  0  0  0  0  0  0  0  0  0  0
   41.7887   43.8978    6.1955 H   0  0  0  0  0  0  0  0  0  0  0  0
   41.0848   45.5505    6.1955 H   0  0  0  0  0  0  0  0  0  0  0  0
   41.3420   42.1226    6.4726 H   0  0  0  0  0  0  0  0  0  0  0  0
  1  2  2  0
  1  6  1  0
  1  7  1  0
  2  3  1  0
  2  8  1  0
  3  4  2  0
  4  5  1  0
  5  6  2  0
  5 23  1  0
  7  9  1  0
  9 10  1  0
  9 11  1  0
 10 12  1  0
 10 16  2  0
 12 13  2  0
 12 18  1  0
 13 14  1  0
 14 15  2  0
 15 16  1  0
 15 17  1  0
 18 19  1  0
 18 22  1  0
 19 20  1  0
 20 21  2  0
 21 22  1  0
 23 24  2  0
 23 27  1  0
 24 25  1  0
 24 28  1  0
 25 26  2  0
 26 27  1  0
 26 29  1  0
 29 30  1  0
 29 31  1  6
 29 32  1  0
 30 33  1  0
  4 34  1  0
  6 35  1  0
  8 36  1  0
  8 37  1  0
  9 38  1  1
 11 39  1  0
 11 40  1  0
 11 41  1  0
 13 42  1  0
 14 43  1  0
 16 44  1  0
 19 45  1  0
 20 46  1  0
 21 47  1  0
 22 48  1  0
 28 49  1  0
 28 50  1  0
 28 51  1  0
 30 52  1  0
 30 53  1  0
 31 54  1  0
 32 55  1  0
 32 56  1  0
 32 57  1  0
 33 58  1  0
M  END
>  <filename_input>  (17) 
7R7R_AWJ_docked.sdf

>  <pdb_id>  (17) 
7R7R_AWJ

>  <pose_rank>  (17) 
16

>  <num_atoms_heavy>  (17) 
33

>  <num_torsions>  (17) 
7

>  <pose>  (17) 
[32.48524742341206, 43.86370380630282, 7.5520040979133976, 1.5782334822958421, 2.0937293468399463, -1.437027838029993, -2.200133505146582, 2.272159694431421, -3.452088816842853, -1.6038361919385156, -0.48301460629332804, -2.543563517194476, -0.3675218708575235]

>  <energy>  (17) 
-633.1947083107206

>  <inter_energy>  (17) 
-707.479757694677

>  <intra_energy>  (17) 
79.50519881413695

>  <rmsd>  (17) 
7.29731

>  <sdf_rank>  (17) 
0

$$$$

     RDKit          3D

 58 61  0  0  0  0  0  0  0  0999 V2000
   33.1300   47.8020    6.9292 C   0  0  0  0  0  0  0  0  0  0  0  0
   33.3830   47.1726    5.7152 C   0  0  0  0  0  0  0  0  0  0  0  0
   32.7892   47.5621    4.5584 N   0  0  0  0  0  0  0  0  0  0  0  0
   31.9171   48.5960    4.6252 C   0  0  0  0  0  0  0  0  0  0  0  0
   31.5853   49.2810    5.7829 C   0  0  0  0  0  0  0  0  0  0  0  0
   32.2250   48.8707    6.9488 C   0  0  0  0  0  0  0  0  0  0  0  0
   33.7996   47.2950    8.0415 O   0  0  0  0  0  0  0  0  0  0  0  0
   34.2905   46.0892    5.6803 N   0  0  0  0  0  0  0  0  0  0  0  0
   32.9928   46.6011    8.9977 C   0  0  1  0  0  0  0  0  0  0  0  0
   32.9026   45.1563    8.6084 C   0  0  0  0  0  0  0  0  0  0  0  0
   33.6839   46.7378   10.3386 C   0  0  0  0  0  0  0  0  0  0  0  0
   31.6932   44.5763    8.1779 C   0  0  0  0  0  0  0  0  0  0  0  0
   31.6725   43.2283    7.7985 C   0  0  0  0  0  0  0  0  0  0  0  0
   32.8528   42.4782    7.8135 C   0  0  0  0  0  0  0  0  0  0  0  0
   34.0442   43.0548    8.2467 C   0  0  0  0  0  0  0  0  0  0  0  0
   34.0744   44.3918    8.6524 C   0  0  0  0  0  0  0  0  0  0  0  0
   35.1660   42.3210    8.2743 F   0  0  0  0  0  0  0  0  0  0  0  0
   30.4768   45.2843    8.0748 N   0  0  0  0  0  0  0  0  0  0  0  0
   29.9361   45.8508    9.1739 N   0  0  0  0  0  0  0  0  0  0  0  0
   29.0892   46.7501    8.6622 C   0  0  0  0  0  0  0  0  0  0  0  0
   29.1570   46.7048    7.2654 C   0  0  0  0  0  0  0  0  0  0  0  0
   30.0588   45.7858    6.8997 N   0  0  0  0  0  0  0  0  0  0  0  0
   30.5996   50.3606    5.7920 C   0  0  0  0  0  0  0  0  0  0  0  0
   30.7194   51.7375    5.8616 C   0  0  0  0  0  0  0  0  0  0  0  0
   29.5178   52.4276    5.8829 N   0  0  0  0  0  0  0  0  0  0  0  0
   28.4861   51.6131    5.8166 C   0  0  0  0  0  0  0  0  0  0  0  0
   28.9316   49.9581    5.6934 S   0  0  0  0  0  0  0  0  0  0  0  0
   31.9596   52.5329    5.9472 C   0  0  0  0  0  0  0  0  0  0  0  0
   27.0625   52.0334    5.8568 C   0  0  1  0  0  0  0  0  0  0  0  0
   26.1358   50.8816    5.5387 C   0  0  0  0  0  0  0  0  0  0  0  0
   26.6852   52.6055    7.1112 O   0  0  0  0  0  0  0  0  0  0  0  0
   26.8565   53.1286    4.8296 C   0  0  0  0  0  0  0  0  0  0  0  0
   25.3432   50.5410    6.6698 O   0  0  0  0  0  0  0  0  0  0  0  0
   31.4357   48.9162    3.6894 H   0  0  0  0  0  0  0  0  0  0  0  0
   32.0176   49.3910    7.8955 H   0  0  0  0  0  0  0  0  0  0  0  0
   34.4890   45.6121    4.7892 H   0  0  0  0  0  0  0  0  0  0  0  0
   34.7531   45.7768    6.5459 H   0  0  0  0  0  0  0  0  0  0  0  0
   31.9740   47.0133    9.0430 H   0  0  0  0  0  0  0  0  0  0  0  0
   32.9506   46.5927   11.1455 H   0  0  0  0  0  0  0  0  0  0  0  0
   34.4759   45.9790   10.4220 H   0  0  0  0  0  0  0  0  0  0  0  0
   34.1272   47.7411   10.4220 H   0  0  0  0  0  0  0  0  0  0  0  0
   30.7272   42.7591    7.4884 H   0  0  0  0  0  0  0  0  0  0  0  0
   32.8400   41.4294    7.4821 H   0  0  0  0  0  0  0  0  0  0  0  0
   35.0146   44.8413    9.0046 H   0  0  0  0  0  0  0  0  0  0  0  0
   30.1285   45.6417   10.1640 H   0  0  0  0  0  0  0  0  0  0  0  0
   28.4416   47.4199    9.2470 H   0  0  0  0  0  0  0  0  0  0  0  0
   28.5639   47.3254    6.5776 H   0  0  0  0  0  0  0  0  0  0  0  0
   30.3593   45.5261    5.9494 H   0  0  0  0  0  0  0  0  0  0  0  0
   32.2170   52.6980    7.0038 H   0  0  0  0  0  0  0  0  0  0  0  0
   32.7779   51.9907    5.4508 H   0  0  0  0  0  0  0  0  0  0  0  0
   31.8082   53.5027    5.4508 H   0  0  0  0  0  0  0  0  0  0  0  0
   25.4739   51.1703    4.7088 H   0  0  0  0  0  0  0  0  0  0  0  0
   26.7434   50.0082    5.2592 H   0  0  0  0  0  0  0  0  0  0  0  0
   27.0490   52.0538    7.8483 H   0  0  0  0  0  0  0  0  0  0  0  0
   26.6767   54.0843    5.3437 H   0  0  0  0  0  0  0  0  0  0  0  0
   27.7543   53.2142    4.1998 H   0  0  0  0  0  0  0  0  0  0  0  0
   25.9889   52.8822    4.1998 H   0  0  0  0  0  0  0  0  0  0  0  0
   25.8413   50.7550    7.4982 H   0  0  0  0  0  0  0  0  0  0  0  0
  1  2  2  0
  1  6  1  0
  1  7  1  0
  2  3  1  0
  2  8  1  0
  3  4  2  0
  4  5  1  0
  5  6  2  0
  5 23  1  0
  7  9  1  0
  9 10  1  0
  9 11  1  0
 10 12  1  0
 10 16  2  0
 12 13  2  0
 12 18  1  0
 13 14  1  0
 14 15  2  0
 15 16  1  0
 15 17  1  0
 18 19  1  0
 18 22  1  0
 19 20  1  0
 20 21  2  0
 21 22  1  0
 23 24  2  0
 23 27  1  0
 24 25  1  0
 24 28  1  0
 25 26  2  0
 26 27  1  0
 26 29  1  0
 29 30  1  0
 29 31  1  1
 29 32  1  0
 30 33  1  0
  4 34  1  0
  6 35  1  0
  8 36  1  0
  8 37  1  0
  9 38  1  1
 11 39  1  0
 11 40  1  0
 11 41  1  0
 13 42  1  0
 14 43  1  0
 16 44  1  0
 19 45  1  0
 20 46  1  0
 21 47  1  0
 22 48  1  0
 28 49  1  0
 28 50  1  0
 28 51  1  0
 30 52  1  0
 30 53  1  0
 31 54  1  0
 32 55  1  0
 32 56  1  0
 32 57  1  0
 33 58  1  0
M  END
>  <filename_input>  (18) 
7R7R_AWJ_docked.sdf

>  <pdb_id>  (18) 
7R7R_AWJ

>  <pose_rank>  (18) 
17

>  <num_atoms_heavy>  (18) 
33

>  <num_torsions>  (18) 
7

>  <pose>  (18) 
[33.12999590561282, 47.80196750869315, 6.929166626823168, -1.9052407565542635, 3.1382560924091862, -1.804230465805005, -7.575025239796399, -4.197973937664019, 0.9002630520144945, -36.39267987031093, 69.22320370353523, -93.81099042620298, -28.44788377930215]

>  <energy>  (18) 
-617.875738196641

>  <inter_energy>  (18) 
-644.5112739232923

>  <intra_energy>  (18) 
18.954491101176895

>  <rmsd>  (18) 
4.72799

>  <sdf_rank>  (18) 
0

$$$$

     RDKit          3D

 58 61  0  0  0  0  0  0  0  0999 V2000
   27.4404   49.1842    7.1851 C   0  0  0  0  0  0  0  0  0  0  0  0
   26.4847   48.3085    7.6885 C   0  0  0  0  0  0  0  0  0  0  0  0
   26.8101   47.0910    8.1928 N   0  0  0  0  0  0  0  0  0  0  0  0
   28.1189   46.7434    8.1811 C   0  0  0  0  0  0  0  0  0  0  0  0
   29.1459   47.5342    7.6916 C   0  0  0  0  0  0  0  0  0  0  0  0
   28.7825   48.7841    7.1988 C   0  0  0  0  0  0  0  0  0  0  0  0
   26.9685   50.3981    6.6887 O   0  0  0  0  0  0  0  0  0  0  0  0
   25.1252   48.6963    7.6769 N   0  0  0  0  0  0  0  0  0  0  0  0
   27.5801   50.8633    5.4819 C   0  0  1  0  0  0  0  0  0  0  0  0
   27.9543   52.3057    5.6448 C   0  0  0  0  0  0  0  0  0  0  0  0
   28.8220   50.0235    5.2658 C   0  0  0  0  0  0  0  0  0  0  0  0
   27.0001   53.2891    5.9718 C   0  0  0  0  0  0  0  0  0  0  0  0
   27.4104   54.6176    6.1402 C   0  0  0  0  0  0  0  0  0  0  0  0
   28.7625   54.9538    6.0200 C   0  0  0  0  0  0  0  0  0  0  0  0
   29.7005   53.9788    5.6898 C   0  0  0  0  0  0  0  0  0  0  0  0
   29.3018   52.6538    5.4937 C   0  0  0  0  0  0  0  0  0  0  0  0
   30.9916   54.3159    5.5593 F   0  0  0  0  0  0  0  0  0  0  0  0
   25.6301   53.0166    6.1722 N   0  0  0  0  0  0  0  0  0  0  0  0
   25.0368   53.3801    7.3286 N   0  0  0  0  0  0  0  0  0  0  0  0
   23.7372   53.3727    7.0143 C   0  0  0  0  0  0  0  0  0  0  0  0
   23.5900   53.0158    5.6694 C   0  0  0  0  0  0  0  0  0  0  0  0
   24.8001   52.8132    5.1345 N   0  0  0  0  0  0  0  0  0  0  0  0
   30.5346   47.0780    7.6675 C   0  0  0  0  0  0  0  0  0  0  0  0
   31.6738   47.5766    7.0605 C   0  0  0  0  0  0  0  0  0  0  0  0
   32.8170   46.8167    7.2508 N   0  0  0  0  0  0  0  0  0  0  0  0
   32.5814   45.7600    7.9993 C   0  0  0  0  0  0  0  0  0  0  0  0
   30.9526   45.6555    8.5368 S   0  0  0  0  0  0  0  0  0  0  0  0
   31.7950   48.7856    6.2227 C   0  0  0  0  0  0  0  0  0  0  0  0
   33.5854   44.7262    8.3570 C   0  0  1  0  0  0  0  0  0  0  0  0
   33.8865   43.8180    7.1860 C   0  0  0  0  0  0  0  0  0  0  0  0
   34.8085   45.2820    8.8452 O   0  0  0  0  0  0  0  0  0  0  0  0
   33.0316   43.8934    9.4957 C   0  0  0  0  0  0  0  0  0  0  0  0
   33.6321   42.4587    7.5198 O   0  0  0  0  0  0  0  0  0  0  0  0
   28.3870   45.7585    8.5913 H   0  0  0  0  0  0  0  0  0  0  0  0
   29.5574   49.4646    6.8162 H   0  0  0  0  0  0  0  0  0  0  0  0
   24.4048   48.0594    8.0460 H   0  0  0  0  0  0  0  0  0  0  0  0
   24.8552   49.6158    7.2994 H   0  0  0  0  0  0  0  0  0  0  0  0
   26.8987   50.7756    4.6229 H   0  0  0  0  0  0  0  0  0  0  0  0
   29.2452   49.7373    6.2400 H   0  0  0  0  0  0  0  0  0  0  0  0
   28.5583   49.1176    4.7003 H   0  0  0  0  0  0  0  0  0  0  0  0
   29.5645   50.6056    4.7003 H   0  0  0  0  0  0  0  0  0  0  0  0
   26.6683   55.3972    6.3672 H   0  0  0  0  0  0  0  0  0  0  0  0
   29.0862   55.9918    6.1869 H   0  0  0  0  0  0  0  0  0  0  0  0
   30.0432   51.8880    5.2221 H   0  0  0  0  0  0  0  0  0  0  0  0
   25.4771   53.6074    8.2316 H   0  0  0  0  0  0  0  0  0  0  0  0
   22.9138   53.6098    7.7041 H   0  0  0  0  0  0  0  0  0  0  0  0
   22.6326   52.9174    5.1368 H   0  0  0  0  0  0  0  0  0  0  0  0
   25.0375   52.5625    4.1641 H   0  0  0  0  0  0  0  0  0  0  0  0
   31.8839   49.6717    6.8684 H   0  0  0  0  0  0  0  0  0  0  0  0
   32.6895   48.7034    5.5877 H   0  0  0  0  0  0  0  0  0  0  0  0
   30.9021   48.8827    5.5877 H   0  0  0  0  0  0  0  0  0  0  0  0
   33.2512   44.1048    6.3350 H   0  0  0  0  0  0  0  0  0  0  0  0
   34.9496   43.9227    6.9239 H   0  0  0  0  0  0  0  0  0  0  0  0
   34.8006   45.2784    9.8352 H   0  0  0  0  0  0  0  0  0  0  0  0
   33.3291   44.3408   10.4556 H   0  0  0  0  0  0  0  0  0  0  0  0
   31.9340   43.8649    9.4290 H   0  0  0  0  0  0  0  0  0  0  0  0
   33.4297   42.8701    9.4290 H   0  0  0  0  0  0  0  0  0  0  0  0
   33.6134   42.3588    8.5046 H   0  0  0  0  0  0  0  0  0  0  0  0
  1  2  2  0
  1  6  1  0
  1  7  1  0
  2  3  1  0
  2  8  1  0
  3  4  2  0
  4  5  1  0
  5  6  2  0
  5 23  1  0
  7  9  1  0
  9 10  1  0
  9 11  1  0
 10 12  1  0
 10 16  2  0
 12 13  2  0
 12 18  1  0
 13 14  1  0
 14 15  2  0
 15 16  1  0
 15 17  1  0
 18 19  1  0
 18 22  1  0
 19 20  1  0
 20 21  2  0
 21 22  1  0
 23 24  2  0
 23 27  1  0
 24 25  1  0
 24 28  1  0
 25 26  2  0
 26 27  1  0
 26 29  1  0
 29 30  1  0
 29 31  1  1
 29 32  1  0
 30 33  1  0
  4 34  1  0
  6 35  1  0
  8 36  1  0
  8 37  1  0
  9 38  1  6
 11 39  1  0
 11 40  1  0
 11 41  1  0
 13 42  1  0
 14 43  1  0
 16 44  1  0
 19 45  1  0
 20 46  1  0
 21 47  1  0
 22 48  1  0
 28 49  1  0
 28 50  1  0
 28 51  1  0
 30 52  1  0
 30 53  1  0
 31 54  1  0
 32 55  1  0
 32 56  1  0
 32 57  1  0
 33 58  1  0
M  END
>  <filename_input>  (19) 
7R7R_AWJ_docked.sdf

>  <pdb_id>  (19) 
7R7R_AWJ

>  <pose_rank>  (19) 
18

>  <num_atoms_heavy>  (19) 
33

>  <num_torsions>  (19) 
7

>  <pose>  (19) 
[27.440444804948726, 49.18423179266417, 7.185136788254284, 2.3053274691237475, 1.2528493313238231, -1.44606539017811, 3.468323770837394, -2.19705649685729, 3.0466265599907656, 0.7926110184503472, 2.5468769406975373, 1.3965236532396819, -0.08354795680237015]

>  <energy>  (19) 
-472.61513688587627

>  <inter_energy>  (19) 
-555.8159620837674

>  <intra_energy>  (19) 
98.93971467775899

>  <rmsd>  (19) 
8.27495

>  <sdf_rank>  (19) 
0

$$$$

     RDKit          3D

 58 61  0  0  0  0  0  0  0  0999 V2000
   28.3341   49.1217    7.2876 C   0  0  0  0  0  0  0  0  0  0  0  0
   27.5969   48.0582    7.7968 C   0  0  0  0  0  0  0  0  0  0  0  0
   28.1832   46.9254    8.2610 N   0  0  0  0  0  0  0  0  0  0  0  0
   29.5344   46.8562    8.2024 C   0  0  0  0  0  0  0  0  0  0  0  0
   30.3592   47.8512    7.7028 C   0  0  0  0  0  0  0  0  0  0  0  0
   29.7296   49.0076    7.2521 C   0  0  0  0  0  0  0  0  0  0  0  0
   27.6057   50.2206    6.8355 O   0  0  0  0  0  0  0  0  0  0  0  0
   26.1871   48.1567    7.8346 N   0  0  0  0  0  0  0  0  0  0  0  0
   28.0773   50.8347    5.6325 C   0  0  1  0  0  0  0  0  0  0  0  0
   27.9460   52.3228    5.7561 C   0  0  0  0  0  0  0  0  0  0  0  0
   29.5349   50.4502    5.4843 C   0  0  0  0  0  0  0  0  0  0  0  0
   26.9310   53.0377    5.0903 C   0  0  0  0  0  0  0  0  0  0  0  0
   26.8374   54.4242    5.2645 C   0  0  0  0  0  0  0  0  0  0  0  0
   27.7235   55.0839    6.1221 C   0  0  0  0  0  0  0  0  0  0  0  0
   28.7294   54.3732    6.7723 C   0  0  0  0  0  0  0  0  0  0  0  0
   28.8506   52.9932    6.5880 C   0  0  0  0  0  0  0  0  0  0  0  0
   29.5848   55.0189    7.5780 F   0  0  0  0  0  0  0  0  0  0  0  0
   25.9620   52.4344    4.2605 N   0  0  0  0  0  0  0  0  0  0  0  0
   26.2219   52.2544    2.9485 N   0  0  0  0  0  0  0  0  0  0  0  0
   25.3339   51.3204    2.5921 C   0  0  0  0  0  0  0  0  0  0  0  0
   24.5732   50.9573    3.7089 C   0  0  0  0  0  0  0  0  0  0  0  0
   24.9942   51.6538    4.7715 N   0  0  0  0  0  0  0  0  0  0  0  0
   31.8105   47.6925    7.6269 C   0  0  0  0  0  0  0  0  0  0  0  0
   32.7866   48.3439    6.8936 C   0  0  0  0  0  0  0  0  0  0  0  0
   34.0734   47.8637    7.0784 N   0  0  0  0  0  0  0  0  0  0  0  0
   34.1048   46.8731    7.9444 C   0  0  0  0  0  0  0  0  0  0  0  0
   32.5635   46.4954    8.6035 S   0  0  0  0  0  0  0  0  0  0  0  0
   32.6069   49.4488    5.9318 C   0  0  0  0  0  0  0  0  0  0  0  0
   35.3223   46.1168    8.3327 C   0  0  1  0  0  0  0  0  0  0  0  0
   35.8247   45.2548    7.1964 C   0  0  0  0  0  0  0  0  0  0  0  0
   36.3832   46.9617    8.7841 O   0  0  0  0  0  0  0  0  0  0  0  0
   34.9790   45.2271    9.5106 C   0  0  0  0  0  0  0  0  0  0  0  0
   34.9014   44.2128    6.9038 O   0  0  0  0  0  0  0  0  0  0  0  0
   30.0134   45.9408    8.5800 H   0  0  0  0  0  0  0  0  0  0  0  0
   30.3342   49.8406    6.8640 H   0  0  0  0  0  0  0  0  0  0  0  0
   25.6264   47.3779    8.2087 H   0  0  0  0  0  0  0  0  0  0  0  0
   25.7208   49.0071    7.4881 H   0  0  0  0  0  0  0  0  0  0  0  0
   27.4989   50.5061    4.7565 H   0  0  0  0  0  0  0  0  0  0  0  0
   29.9859   50.3313    6.4805 H   0  0  0  0  0  0  0  0  0  0  0  0
   29.6096   49.5017    4.9323 H   0  0  0  0  0  0  0  0  0  0  0  0
   30.0678   51.2385    4.9323 H   0  0  0  0  0  0  0  0  0  0  0  0
   26.0662   54.9948    4.7263 H   0  0  0  0  0  0  0  0  0  0  0  0
   27.6257   56.1676    6.2836 H   0  0  0  0  0  0  0  0  0  0  0  0
   29.6529   52.4364    7.0942 H   0  0  0  0  0  0  0  0  0  0  0  0
   26.9303   52.7218    2.3649 H   0  0  0  0  0  0  0  0  0  0  0  0
   25.2196   50.9033    1.5807 H   0  0  0  0  0  0  0  0  0  0  0  0
   23.7591   50.2175    3.7129 H   0  0  0  0  0  0  0  0  0  0  0  0
   24.6584   51.6039    5.7440 H   0  0  0  0  0  0  0  0  0  0  0  0
   32.4538   50.3904    6.4794 H   0  0  0  0  0  0  0  0  0  0  0  0
   33.5030   49.5339    5.2995 H   0  0  0  0  0  0  0  0  0  0  0  0
   31.7300   49.2455    5.2995 H   0  0  0  0  0  0  0  0  0  0  0  0
   35.9576   45.8802    6.3013 H   0  0  0  0  0  0  0  0  0  0  0  0
   36.7821   44.8028    7.4946 H   0  0  0  0  0  0  0  0  0  0  0  0
   36.3976   46.9732    9.7740 H   0  0  0  0  0  0  0  0  0  0  0  0
   35.1861   45.7638   10.4482 H   0  0  0  0  0  0  0  0  0  0  0  0
   33.9129   44.9592    9.4693 H   0  0  0  0  0  0  0  0  0  0  0  0
   35.5888   44.3125    9.4693 H   0  0  0  0  0  0  0  0  0  0  0  0
   34.5599   43.8274    7.7493 H   0  0  0  0  0  0  0  0  0  0  0  0
  1  2  2  0
  1  6  1  0
  1  7  1  0
  2  3  1  0
  2  8  1  0
  3  4  2  0
  4  5  1  0
  5  6  2  0
  5 23  1  0
  7  9  1  0
  9 10  1  0
  9 11  1  0
 10 12  1  0
 10 16  2  0
 12 13  2  0
 12 18  1  0
 13 14  1  0
 14 15  2  0
 15 16  1  0
 15 17  1  0
 18 19  1  0
 18 22  1  0
 19 20  1  0
 20 21  2  0
 21 22  1  0
 23 24  2  0
 23 27  1  0
 24 25  1  0
 24 28  1  0
 25 26  2  0
 26 27  1  0
 26 29  1  0
 29 30  1  0
 29 31  1  1
 29 32  1  0
 30 33  1  0
  4 34  1  0
  6 35  1  0
  8 36  1  0
  8 37  1  0
  9 38  1  6
 11 39  1  0
 11 40  1  0
 11 41  1  0
 13 42  1  0
 14 43  1  0
 16 44  1  0
 19 45  1  0
 20 46  1  0
 21 47  1  0
 22 48  1  0
 28 49  1  0
 28 50  1  0
 28 51  1  0
 30 52  1  0
 30 53  1  0
 31 54  1  0
 32 55  1  0
 32 56  1  0
 32 57  1  0
 33 58  1  0
M  END
>  <filename_input>  (20) 
7R7R_AWJ_docked.sdf

>  <pdb_id>  (20) 
7R7R_AWJ

>  <pose_rank>  (20) 
19

>  <num_atoms_heavy>  (20) 
33

>  <num_torsions>  (20) 
7

>  <pose>  (20) 
[28.33412494960119, 49.12173452266955, 7.287613229110964, -2.407526034759715, -1.690908970616789, 1.616630059574454, -2.947642895391805, -2.109182576814715, -2.2588099736733858, -5.504066947727152, -3.885250529598608, -5.7122354676332225, -3.7956214147208347]

>  <energy>  (20) 
-421.1496842021837

>  <inter_energy>  (20) 
-522.614007449613

>  <intra_energy>  (20) 
95.75613622873655

>  <rmsd>  (20) 
8.02654

>  <sdf_rank>  (20) 
0

$$$$

     RDKit          3D

 58 61  0  0  0  0  0  0  0  0999 V2000
   32.3631   50.3598    5.6767 C   0  0  0  0  0  0  0  0  0  0  0  0
   33.0421   50.7346    4.5224 C   0  0  0  0  0  0  0  0  0  0  0  0
   32.5147   51.5996    3.6190 N   0  0  0  0  0  0  0  0  0  0  0  0
   31.2781   52.0884    3.8754 C   0  0  0  0  0  0  0  0  0  0  0  0
   30.5132   51.7698    4.9859 C   0  0  0  0  0  0  0  0  0  0  0  0
   31.0890   50.8954    5.9029 C   0  0  0  0  0  0  0  0  0  0  0  0
   33.0157   49.4566    6.5140 O   0  0  0  0  0  0  0  0  0  0  0  0
   34.3271   50.1984    4.2778 N   0  0  0  0  0  0  0  0  0  0  0  0
   32.3561   48.2043    6.7224 C   0  0  1  0  0  0  0  0  0  0  0  0
   33.3852   47.1221    6.8512 C   0  0  0  0  0  0  0  0  0  0  0  0
   31.5682   48.3308    8.0099 C   0  0  0  0  0  0  0  0  0  0  0  0
   33.0435   45.8143    7.2480 C   0  0  0  0  0  0  0  0  0  0  0  0
   34.0416   44.8347    7.3238 C   0  0  0  0  0  0  0  0  0  0  0  0
   35.3585   45.1476    6.9721 C   0  0  0  0  0  0  0  0  0  0  0  0
   35.6920   46.4439    6.5873 C   0  0  0  0  0  0  0  0  0  0  0  0
   34.7111   47.4378    6.5316 C   0  0  0  0  0  0  0  0  0  0  0  0
   36.9612   46.7370    6.2698 F   0  0  0  0  0  0  0  0  0  0  0  0
   31.7281   45.4068    7.5564 N   0  0  0  0  0  0  0  0  0  0  0  0
   31.4832   44.7495    8.7093 N   0  0  0  0  0  0  0  0  0  0  0  0
   30.1651   44.9062    8.8698 C   0  0  0  0  0  0  0  0  0  0  0  0
   29.6587   45.6669    7.8104 C   0  0  0  0  0  0  0  0  0  0  0  0
   30.6630   46.0010    6.9911 N   0  0  0  0  0  0  0  0  0  0  0  0
   29.1643   52.2994    5.1787 C   0  0  0  0  0  0  0  0  0  0  0  0
   28.5866   53.0444    6.1916 C   0  0  0  0  0  0  0  0  0  0  0  0
   27.2401   53.3219    6.0172 N   0  0  0  0  0  0  0  0  0  0  0  0
   26.7805   52.8201    4.8905 C   0  0  0  0  0  0  0  0  0  0  0  0
   27.9803   52.0068    3.9676 S   0  0  0  0  0  0  0  0  0  0  0  0
   29.2257   53.5371    7.4273 C   0  0  0  0  0  0  0  0  0  0  0  0
   25.3721   52.9082    4.4283 C   0  0  1  0  0  0  0  0  0  0  0  0
   24.4016   52.7599    5.5784 C   0  0  0  0  0  0  0  0  0  0  0  0
   25.0893   54.1232    3.7304 O   0  0  0  0  0  0  0  0  0  0  0  0
   25.1247   51.7958    3.4292 C   0  0  0  0  0  0  0  0  0  0  0  0
   23.8448   54.0187    5.9377 O   0  0  0  0  0  0  0  0  0  0  0  0
   30.8484   52.7917    3.1469 H   0  0  0  0  0  0  0  0  0  0  0  0
   30.5376   50.6222    6.8147 H   0  0  0  0  0  0  0  0  0  0  0  0
   34.8434   50.4657    3.4276 H   0  0  0  0  0  0  0  0  0  0  0  0
   34.7471   49.5405    4.9499 H   0  0  0  0  0  0  0  0  0  0  0  0
   31.6902   47.9530    5.8837 H   0  0  0  0  0  0  0  0  0  0  0  0
   32.2478   48.2217    8.8679 H   0  0  0  0  0  0  0  0  0  0  0  0
   31.0846   49.3180    8.0483 H   0  0  0  0  0  0  0  0  0  0  0  0
   30.7999   47.5444    8.0483 H   0  0  0  0  0  0  0  0  0  0  0  0
   33.7894   43.8182    7.6603 H   0  0  0  0  0  0  0  0  0  0  0  0
   36.1334   44.3674    6.9995 H   0  0  0  0  0  0  0  0  0  0  0  0
   34.9796   48.4633    6.2380 H   0  0  0  0  0  0  0  0  0  0  0  0
   32.1484   44.2498    9.3165 H   0  0  0  0  0  0  0  0  0  0  0  0
   29.5724   44.5010    9.7032 H   0  0  0  0  0  0  0  0  0  0  0  0
   28.6036   45.9459    7.6728 H   0  0  0  0  0  0  0  0  0  0  0  0
   30.6282   46.5739    6.1358 H   0  0  0  0  0  0  0  0  0  0  0  0
   28.6968   53.1294    8.3014 H   0  0  0  0  0  0  0  0  0  0  0  0
   30.2767   53.2133    7.4507 H   0  0  0  0  0  0  0  0  0  0  0  0
   29.1800   54.6359    7.4507 H   0  0  0  0  0  0  0  0  0  0  0  0
   23.5906   52.0793    5.2800 H   0  0  0  0  0  0  0  0  0  0  0  0
   24.9434   52.3547    6.4457 H   0  0  0  0  0  0  0  0  0  0  0  0
   24.9207   54.8476    4.3839 H   0  0  0  0  0  0  0  0  0  0  0  0
   24.9163   50.8593    3.9673 H   0  0  0  0  0  0  0  0  0  0  0  0
   24.2623   52.0555    2.7976 H   0  0  0  0  0  0  0  0  0  0  0  0
   26.0157   51.6653    2.7976 H   0  0  0  0  0  0  0  0  0  0  0  0
   23.8110   54.0952    6.9241 H   0  0  0  0  0  0  0  0  0  0  0  0
  1  2  2  0
  1  6  1  0
  1  7  1  0
  2  3  1  0
  2  8  1  0
  3  4  2  0
  4  5  1  0
  5  6  2  0
  5 23  1  0
  7  9  1  0
  9 10  1  0
  9 11  1  0
 10 12  1  0
 10 16  2  0
 12 13  2  0
 12 18  1  0
 13 14  1  0
 14 15  2  0
 15 16  1  0
 15 17  1  0
 18 19  1  0
 18 22  1  0
 19 20  1  0
 20 21  2  0
 21 22  1  0
 23 24  2  0
 23 27  1  0
 24 25  1  0
 24 28  1  0
 25 26  2  0
 26 27  1  0
 26 29  1  0
 29 30  1  0
 29 31  1  6
 29 32  1  0
 30 33  1  0
  4 34  1  0
  6 35  1  0
  8 36  1  0
  8 37  1  0
  9 38  1  6
 11 39  1  0
 11 40  1  0
 11 41  1  0
 13 42  1  0
 14 43  1  0
 16 44  1  0
 19 45  1  0
 20 46  1  0
 21 47  1  0
 22 48  1  0
 28 49  1  0
 28 50  1  0
 28 51  1  0
 30 52  1  0
 30 53  1  0
 31 54  1  0
 32 55  1  0
 32 56  1  0
 32 57  1  0
 33 58  1  0
M  END
>  <filename_input>  (21) 
7R7R_AWJ_docked.sdf

>  <pdb_id>  (21) 
7R7R_AWJ

>  <pose_rank>  (21) 
20

>  <num_atoms_heavy>  (21) 
33

>  <num_torsions>  (21) 
7

>  <pose>  (21) 
[32.36314129207347, 50.359815548278746, 5.676712416960645, -2.027679220671843, 2.508427407987202, -0.991735615359685, 4.675515526027722, -1.5609188156922962, 0.7261328313468711, -5.134086564734458, 1.1063362543022388, 5.38327742670081, 1.7631319638889635]

>  <energy>  (21) 
-474.50949334128137

>  <inter_energy>  (21) 
-528.3071542949588

>  <intra_energy>  (21) 
87.11210025360964

>  <rmsd>  (21) 
5.88431

>  <sdf_rank>  (21) 
0

$$$$

     RDKit          3D

 58 61  0  0  0  0  0  0  0  0999 V2000
   33.4919   47.1704    6.5750 C   0  0  0  0  0  0  0  0  0  0  0  0
   33.3754   47.5694    5.2480 C   0  0  0  0  0  0  0  0  0  0  0  0
   34.0648   46.9667    4.2460 N   0  0  0  0  0  0  0  0  0  0  0  0
   34.8944   45.9517    4.5856 C   0  0  0  0  0  0  0  0  0  0  0  0
   35.0929   45.4866    5.8757 C   0  0  0  0  0  0  0  0  0  0  0  0
   34.3577   46.1121    6.8782 C   0  0  0  0  0  0  0  0  0  0  0  0
   32.7350   47.8814    7.5047 O   0  0  0  0  0  0  0  0  0  0  0  0
   32.5091   48.6395    4.9269 N   0  0  0  0  0  0  0  0  0  0  0  0
   31.6599   47.1646    8.1189 C   0  0  1  0  0  0  0  0  0  0  0  0
   32.2018   46.3337    9.2426 C   0  0  0  0  0  0  0  0  0  0  0  0
   30.6911   48.1984    8.6546 C   0  0  0  0  0  0  0  0  0  0  0  0
   31.7894   45.0026    9.4493 C   0  0  0  0  0  0  0  0  0  0  0  0
   32.3503   44.2628   10.4979 C   0  0  0  0  0  0  0  0  0  0  0  0
   33.3378   44.8329   11.3076 C   0  0  0  0  0  0  0  0  0  0  0  0
   33.7367   46.1515   11.1032 C   0  0  0  0  0  0  0  0  0  0  0  0
   33.1673   46.9099   10.0766 C   0  0  0  0  0  0  0  0  0  0  0  0
   34.6713   46.6937   11.8971 F   0  0  0  0  0  0  0  0  0  0  0  0
   30.8464   44.3386    8.6361 N   0  0  0  0  0  0  0  0  0  0  0  0
   30.9661   43.0122    8.4177 N   0  0  0  0  0  0  0  0  0  0  0  0
   29.7424   42.6642    8.0063 C   0  0  0  0  0  0  0  0  0  0  0  0
   28.9182   43.7949    8.0025 C   0  0  0  0  0  0  0  0  0  0  0  0
   29.6218   44.8518    8.4263 N   0  0  0  0  0  0  0  0  0  0  0  0
   36.0396   44.4146    6.1785 C   0  0  0  0  0  0  0  0  0  0  0  0
   35.9406   43.2665    6.9447 C   0  0  0  0  0  0  0  0  0  0  0  0
   37.0990   42.5090    7.0137 N   0  0  0  0  0  0  0  0  0  0  0  0
   38.0736   43.0425    6.3081 C   0  0  0  0  0  0  0  0  0  0  0  0
   37.6153   44.4859    5.4960 S   0  0  0  0  0  0  0  0  0  0  0  0
   34.7712   42.7878    7.7072 C   0  0  0  0  0  0  0  0  0  0  0  0
   39.4512   42.4978    6.2063 C   0  0  1  0  0  0  0  0  0  0  0  0
   39.5142   41.3259    5.2526 C   0  0  0  0  0  0  0  0  0  0  0  0
   40.4107   43.4790    5.8068 O   0  0  0  0  0  0  0  0  0  0  0  0
   39.8873   42.0361    7.5824 C   0  0  0  0  0  0  0  0  0  0  0  0
   40.5861   41.4800    4.3300 O   0  0  0  0  0  0  0  0  0  0  0  0
   35.4529   45.4590    3.7761 H   0  0  0  0  0  0  0  0  0  0  0  0
   34.4576   45.7718    7.9195 H   0  0  0  0  0  0  0  0  0  0  0  0
   32.4114   48.9473    3.9489 H   0  0  0  0  0  0  0  0  0  0  0  0
   31.9757   49.1113    5.6711 H   0  0  0  0  0  0  0  0  0  0  0  0
   31.1576   46.4969    7.4035 H   0  0  0  0  0  0  0  0  0  0  0  0
   30.7074   48.1810    9.7544 H   0  0  0  0  0  0  0  0  0  0  0  0
   30.9864   49.1966    8.2993 H   0  0  0  0  0  0  0  0  0  0  0  0
   29.6758   47.9683    8.2993 H   0  0  0  0  0  0  0  0  0  0  0  0
   32.0137   43.2324   10.6848 H   0  0  0  0  0  0  0  0  0  0  0  0
   33.8011   44.2379   12.1084 H   0  0  0  0  0  0  0  0  0  0  0  0
   33.4763   47.9546    9.9247 H   0  0  0  0  0  0  0  0  0  0  0  0
   31.7964   42.4146    8.5383 H   0  0  0  0  0  0  0  0  0  0  0  0
   29.4325   41.6493    7.7167 H   0  0  0  0  0  0  0  0  0  0  0  0
   27.8609   43.8125    7.6995 H   0  0  0  0  0  0  0  0  0  0  0  0
   29.3026   45.8220    8.5593 H   0  0  0  0  0  0  0  0  0  0  0  0
   34.9765   42.8719    8.7846 H   0  0  0  0  0  0  0  0  0  0  0  0
   33.8924   43.3986    7.4526 H   0  0  0  0  0  0  0  0  0  0  0  0
   34.5729   41.7362    7.4526 H   0  0  0  0  0  0  0  0  0  0  0  0
   39.6645   40.4007    5.8281 H   0  0  0  0  0  0  0  0  0  0  0  0
   38.5701   41.2791    4.6901 H   0  0  0  0  0  0  0  0  0  0  0  0
   40.8146   43.8920    6.6108 H   0  0  0  0  0  0  0  0  0  0  0  0
   39.3462   42.6089    8.3499 H   0  0  0  0  0  0  0  0  0  0  0  0
   39.6632   40.9654    7.6980 H   0  0  0  0  0  0  0  0  0  0  0  0
   40.9690   42.1988    7.6980 H   0  0  0  0  0  0  0  0  0  0  0  0
   41.4339   41.6019    4.8265 H   0  0  0  0  0  0  0  0  0  0  0  0
  1  2  2  0
  1  6  1  0
  1  7  1  0
  2  3  1  0
  2  8  1  0
  3  4  2  0
  4  5  1  0
  5  6  2  0
  5 23  1  0
  7  9  1  0
  9 10  1  0
  9 11  1  0
 10 12  1  0
 10 16  2  0
 12 13  2  0
 12 18  1  0
 13 14  1  0
 14 15  2  0
 15 16  1  0
 15 17  1  0
 18 19  1  0
 18 22  1  0
 19 20  1  0
 20 21  2  0
 21 22  1  0
 23 24  2  0
 23 27  1  0
 24 25  1  0
 24 28  1  0
 25 26  2  0
 26 27  1  0
 26 29  1  0
 29 30  1  0
 29 31  1  6
 29 32  1  0
 30 33  1  0
  4 34  1  0
  6 35  1  0
  8 36  1  0
  8 37  1  0
  9 38  1  6
 11 39  1  0
 11 40  1  0
 11 41  1  0
 13 42  1  0
 14 43  1  0
 16 44  1  0
 19 45  1  0
 20 46  1  0
 21 47  1  0
 22 48  1  0
 28 49  1  0
 28 50  1  0
 28 51  1  0
 30 52  1  0
 30 53  1  0
 31 54  1  0
 32 55  1  0
 32 56  1  0
 32 57  1  0
 33 58  1  0
M  END
>  <filename_input>  (22) 
7R7R_AWJ_docked.sdf

>  <pdb_id>  (22) 
7R7R_AWJ

>  <pose_rank>  (22) 
21

>  <num_atoms_heavy>  (22) 
33

>  <num_torsions>  (22) 
7

>  <pose>  (22) 
[33.491898347149956, 47.17044652541428, 6.5750262691308246, 2.7452326971135252, 1.834966526473038, 1.7894127360861811, -8.073946628994367, 0.4668172519948819, 1.1965437698856878, -7.398684745301562, -25.13512694126765, -6.268226343181624, 6.586773154697544]

>  <energy>  (22) 
-543.4806177648363

>  <inter_energy>  (22) 
-580.5688590336549

>  <intra_energy>  (22) 
31.092701814999277

>  <rmsd>  (22) 
8.09983

>  <sdf_rank>  (22) 
0

$$$$

     RDKit          3D

 58 61  0  0  0  0  0  0  0  0999 V2000
   34.3969   45.9827    7.8801 C   0  0  0  0  0  0  0  0  0  0  0  0
   34.5936   47.3340    7.6172 C   0  0  0  0  0  0  0  0  0  0  0  0
   35.7536   47.8107    7.0979 N   0  0  0  0  0  0  0  0  0  0  0  0
   36.7374   46.9141    6.8483 C   0  0  0  0  0  0  0  0  0  0  0  0
   36.6487   45.5519    7.0857 C   0  0  0  0  0  0  0  0  0  0  0  0
   35.4405   45.0915    7.6005 C   0  0  0  0  0  0  0  0  0  0  0  0
   33.1622   45.6302    8.4224 O   0  0  0  0  0  0  0  0  0  0  0  0
   33.5512   48.2465    7.8988 N   0  0  0  0  0  0  0  0  0  0  0  0
   32.1844   45.1476    7.4962 C   0  0  1  0  0  0  0  0  0  0  0  0
   30.8297   45.6350    7.9132 C   0  0  0  0  0  0  0  0  0  0  0  0
   32.5472   45.7132    6.1386 C   0  0  0  0  0  0  0  0  0  0  0  0
   30.1049   45.0187    8.9521 C   0  0  0  0  0  0  0  0  0  0  0  0
   28.8555   45.5338    9.3199 C   0  0  0  0  0  0  0  0  0  0  0  0
   28.3524   46.6728    8.6832 C   0  0  0  0  0  0  0  0  0  0  0  0
   29.0700   47.2739    7.6520 C   0  0  0  0  0  0  0  0  0  0  0  0
   30.3063   46.7555    7.2573 C   0  0  0  0  0  0  0  0  0  0  0  0
   28.5695   48.3547    7.0363 F   0  0  0  0  0  0  0  0  0  0  0  0
   30.5743   43.9068    9.6834 N   0  0  0  0  0  0  0  0  0  0  0  0
   31.8004   43.9443   10.2462 N   0  0  0  0  0  0  0  0  0  0  0  0
   31.7375   42.9769   11.1671 C   0  0  0  0  0  0  0  0  0  0  0  0
   30.4658   42.3940   11.1375 C   0  0  0  0  0  0  0  0  0  0  0  0
   29.7242   43.0065   10.2067 N   0  0  0  0  0  0  0  0  0  0  0  0
   37.7674   44.6447    6.8352 C   0  0  0  0  0  0  0  0  0  0  0  0
   39.1299   44.7565    7.0496 C   0  0  0  0  0  0  0  0  0  0  0  0
   39.8779   43.6669    6.6326 N   0  0  0  0  0  0  0  0  0  0  0  0
   39.1190   42.7218    6.1196 C   0  0  0  0  0  0  0  0  0  0  0  0
   37.4437   43.1031    6.1478 S   0  0  0  0  0  0  0  0  0  0  0  0
   39.8618   45.8987    7.6310 C   0  0  0  0  0  0  0  0  0  0  0  0
   39.6156   41.4448    5.5472 C   0  0  1  0  0  0  0  0  0  0  0  0
   38.5753   40.7917    4.6652 C   0  0  0  0  0  0  0  0  0  0  0  0
   40.8277   41.6002    4.8056 O   0  0  0  0  0  0  0  0  0  0  0  0
   39.9522   40.5064    6.6886 C   0  0  0  0  0  0  0  0  0  0  0  0
   39.0302   40.7095    3.3199 O   0  0  0  0  0  0  0  0  0  0  0  0
   37.6780   47.2962    6.4250 H   0  0  0  0  0  0  0  0  0  0  0  0
   35.3037   44.0166    7.7897 H   0  0  0  0  0  0  0  0  0  0  0  0
   33.6808   49.2507    7.7100 H   0  0  0  0  0  0  0  0  0  0  0  0
   32.6621   47.9071    8.2928 H   0  0  0  0  0  0  0  0  0  0  0  0
   32.1641   44.0482    7.4650 H   0  0  0  0  0  0  0  0  0  0  0  0
   33.1368   46.6324    6.2701 H   0  0  0  0  0  0  0  0  0  0  0  0
   33.1401   44.9740    5.5800 H   0  0  0  0  0  0  0  0  0  0  0  0
   31.6281   45.9438    5.5800 H   0  0  0  0  0  0  0  0  0  0  0  0
   28.2695   45.0420   10.1103 H   0  0  0  0  0  0  0  0  0  0  0  0
   27.3867   47.0952    8.9979 H   0  0  0  0  0  0  0  0  0  0  0  0
   30.8656   47.2258    6.4351 H   0  0  0  0  0  0  0  0  0  0  0  0
   32.5906   44.5657   10.0216 H   0  0  0  0  0  0  0  0  0  0  0  0
   32.5562   42.6852   11.8413 H   0  0  0  0  0  0  0  0  0  0  0  0
   30.1293   41.5648   11.7771 H   0  0  0  0  0  0  0  0  0  0  0  0
   28.7415   42.8308    9.9531 H   0  0  0  0  0  0  0  0  0  0  0  0
   39.8232   45.8385    8.7286 H   0  0  0  0  0  0  0  0  0  0  0  0
   40.9101   45.8698    7.2988 H   0  0  0  0  0  0  0  0  0  0  0  0
   39.3976   46.8390    7.2988 H   0  0  0  0  0  0  0  0  0  0  0  0
   38.3714   39.7775    5.0391 H   0  0  0  0  0  0  0  0  0  0  0  0
   37.6600   41.4014    4.6903 H   0  0  0  0  0  0  0  0  0  0  0  0
   41.5878   41.6976    5.4323 H   0  0  0  0  0  0  0  0  0  0  0  0
   39.7699   41.0145    7.6470 H   0  0  0  0  0  0  0  0  0  0  0  0
   39.3201   39.6085    6.6236 H   0  0  0  0  0  0  0  0  0  0  0  0
   41.0109   40.2149    6.6236 H   0  0  0  0  0  0  0  0  0  0  0  0
   40.0044   40.5335    3.3112 H   0  0  0  0  0  0  0  0  0  0  0  0
  1  2  2  0
  1  6  1  0
  1  7  1  0
  2  3  1  0
  2  8  1  0
  3  4  2  0
  4  5  1  0
  5  6  2  0
  5 23  1  0
  7  9  1  0
  9 10  1  0
  9 11  1  0
 10 12  1  0
 10 16  2  0
 12 13  2  0
 12 18  1  0
 13 14  1  0
 14 15  2  0
 15 16  1  0
 15 17  1  0
 18 19  1  0
 18 22  1  0
 19 20  1  0
 20 21  2  0
 21 22  1  0
 23 24  2  0
 23 27  1  0
 24 25  1  0
 24 28  1  0
 25 26  2  0
 26 27  1  0
 26 29  1  0
 29 30  1  0
 29 31  1  6
 29 32  1  0
 30 33  1  0
  4 34  1  0
  6 35  1  0
  8 36  1  0
  8 37  1  0
  9 38  1  6
 11 39  1  0
 11 40  1  0
 11 41  1  0
 13 42  1  0
 14 43  1  0
 16 44  1  0
 19 45  1  0
 20 46  1  0
 21 47  1  0
 22 48  1  0
 28 49  1  0
 28 50  1  0
 28 51  1  0
 30 52  1  0
 30 53  1  0
 31 54  1  0
 32 55  1  0
 32 56  1  0
 32 57  1  0
 33 58  1  0
M  END
>  <filename_input>  (23) 
7R7R_AWJ_docked.sdf

>  <pdb_id>  (23) 
7R7R_AWJ

>  <pose_rank>  (23) 
22

>  <num_atoms_heavy>  (23) 
33

>  <num_torsions>  (23) 
7

>  <pose>  (23) 
[34.396868649925715, 45.98271062836681, 7.880111454132082, -0.6703342597141013, -0.7042650487698329, -1.819623868035096, 1.2302339348868918, 2.5597461192708133, 0.9426836674824698, -1.3579323819758338, 2.350201436670076, 1.0185028979408142, -1.35524102164685]

>  <energy>  (23) 
-616.7536060552486

>  <inter_energy>  (23) 
-653.9367493254675

>  <intra_energy>  (23) 
68.54495623796785

>  <rmsd>  (23) 
9.06929

>  <sdf_rank>  (23) 
0

$$$$

     RDKit          3D

 58 61  0  0  0  0  0  0  0  0999 V2000
   34.9774   45.6713    7.5042 C   0  0  0  0  0  0  0  0  0  0  0  0
   36.2033   45.0168    7.5541 C   0  0  0  0  0  0  0  0  0  0  0  0
   37.3667   45.6284    7.2150 N   0  0  0  0  0  0  0  0  0  0  0  0
   37.2950   46.9181    6.8082 C   0  0  0  0  0  0  0  0  0  0  0  0
   36.1261   47.6556    6.7102 C   0  0  0  0  0  0  0  0  0  0  0  0
   34.9527   47.0068    7.0829 C   0  0  0  0  0  0  0  0  0  0  0  0
   33.8599   44.9229    7.8699 O   0  0  0  0  0  0  0  0  0  0  0  0
   36.2438   43.6671    7.9727 N   0  0  0  0  0  0  0  0  0  0  0  0
   33.4582   45.0224    9.2393 C   0  0  1  0  0  0  0  0  0  0  0  0
   31.9752   44.8252    9.3322 C   0  0  0  0  0  0  0  0  0  0  0  0
   34.1788   43.9220    9.9905 C   0  0  0  0  0  0  0  0  0  0  0  0
   31.0832   45.4636    8.4483 C   0  0  0  0  0  0  0  0  0  0  0  0
   29.7087   45.2206    8.5622 C   0  0  0  0  0  0  0  0  0  0  0  0
   29.2333   44.3225    9.5230 C   0  0  0  0  0  0  0  0  0  0  0  0
   30.1190   43.6994   10.3988 C   0  0  0  0  0  0  0  0  0  0  0  0
   31.4908   43.9520   10.3133 C   0  0  0  0  0  0  0  0  0  0  0  0
   29.6503   42.8540   11.3280 F   0  0  0  0  0  0  0  0  0  0  0  0
   31.4916   46.3320    7.4136 N   0  0  0  0  0  0  0  0  0  0  0  0
   32.0669   45.8263    6.3024 N   0  0  0  0  0  0  0  0  0  0  0  0
   31.9237   46.8151    5.4139 C   0  0  0  0  0  0  0  0  0  0  0  0
   31.2525   47.8841    6.0176 C   0  0  0  0  0  0  0  0  0  0  0  0
   30.9607   47.5601    7.2831 N   0  0  0  0  0  0  0  0  0  0  0  0
   36.1146   49.0326    6.2193 C   0  0  0  0  0  0  0  0  0  0  0  0
   35.3474   49.6812    5.2675 C   0  0  0  0  0  0  0  0  0  0  0  0
   35.6768   51.0111    5.0594 N   0  0  0  0  0  0  0  0  0  0  0  0
   36.6653   51.3965    5.8384 C   0  0  0  0  0  0  0  0  0  0  0  0
   37.2254   50.1591    6.8909 S   0  0  0  0  0  0  0  0  0  0  0  0
   34.2619   49.1147    4.4436 C   0  0  0  0  0  0  0  0  0  0  0  0
   37.2788   52.7488    5.8334 C   0  0  1  0  0  0  0  0  0  0  0  0
   37.4226   53.2864    4.4273 C   0  0  0  0  0  0  0  0  0  0  0  0
   36.5534   53.6931    6.6240 O   0  0  0  0  0  0  0  0  0  0  0  0
   38.6523   52.6547    6.4670 C   0  0  0  0  0  0  0  0  0  0  0  0
   36.5175   54.3600    4.1998 O   0  0  0  0  0  0  0  0  0  0  0  0
   38.2359   47.4181    6.5350 H   0  0  0  0  0  0  0  0  0  0  0  0
   33.9959   47.5483    7.0461 H   0  0  0  0  0  0  0  0  0  0  0  0
   37.1437   43.1678    8.0153 H   0  0  0  0  0  0  0  0  0  0  0  0
   35.3733   43.1830    8.2352 H   0  0  0  0  0  0  0  0  0  0  0  0
   33.7053   46.0069    9.6632 H   0  0  0  0  0  0  0  0  0  0  0  0
   34.0715   44.0859   11.0729 H   0  0  0  0  0  0  0  0  0  0  0  0
   33.7427   42.9485    9.7220 H   0  0  0  0  0  0  0  0  0  0  0  0
   35.2455   43.9326    9.7220 H   0  0  0  0  0  0  0  0  0  0  0  0
   29.0023   45.7366    7.8953 H   0  0  0  0  0  0  0  0  0  0  0  0
   28.1564   44.1074    9.5872 H   0  0  0  0  0  0  0  0  0  0  0  0
   32.1867   43.4669   11.0137 H   0  0  0  0  0  0  0  0  0  0  0  0
   32.5081   44.9049    6.1711 H   0  0  0  0  0  0  0  0  0  0  0  0
   32.2776   46.7919    4.3726 H   0  0  0  0  0  0  0  0  0  0  0  0
   31.0042   48.8384    5.5301 H   0  0  0  0  0  0  0  0  0  0  0  0
   30.4530   48.1163    7.9858 H   0  0  0  0  0  0  0  0  0  0  0  0
   33.4789   48.7061    5.0993 H   0  0  0  0  0  0  0  0  0  0  0  0
   33.8334   49.9042    3.8087 H   0  0  0  0  0  0  0  0  0  0  0  0
   34.6644   48.3116    3.8087 H   0  0  0  0  0  0  0  0  0  0  0  0
   38.4520   53.6462    4.2828 H   0  0  0  0  0  0  0  0  0  0  0  0
   37.1951   52.4781    3.7168 H   0  0  0  0  0  0  0  0  0  0  0  0
   36.7004   53.5017    7.5842 H   0  0  0  0  0  0  0  0  0  0  0  0
   38.5521   52.6615    7.5624 H   0  0  0  0  0  0  0  0  0  0  0  0
   39.1395   51.7210    6.1492 H   0  0  0  0  0  0  0  0  0  0  0  0
   39.2623   53.5131    6.1492 H   0  0  0  0  0  0  0  0  0  0  0  0
   36.2114   54.7232    5.0684 H   0  0  0  0  0  0  0  0  0  0  0  0
  1  2  2  0
  1  6  1  0
  1  7  1  0
  2  3  1  0
  2  8  1  0
  3  4  2  0
  4  5  1  0
  5  6  2  0
  5 23  1  0
  7  9  1  0
  9 10  1  0
  9 11  1  0
 10 12  1  0
 10 16  2  0
 12 13  2  0
 12 18  1  0
 13 14  1  0
 14 15  2  0
 15 16  1  0
 15 17  1  0
 18 19  1  0
 18 22  1  0
 19 20  1  0
 20 21  2  0
 21 22  1  0
 23 24  2  0
 23 27  1  0
 24 25  1  0
 24 28  1  0
 25 26  2  0
 26 27  1  0
 26 29  1  0
 29 30  1  0
 29 31  1  1
 29 32  1  0
 30 33  1  0
  4 34  1  0
  6 35  1  0
  8 36  1  0
  8 37  1  0
  9 38  1  1
 11 39  1  0
 11 40  1  0
 11 41  1  0
 13 42  1  0
 14 43  1  0
 16 44  1  0
 19 45  1  0
 20 46  1  0
 21 47  1  0
 22 48  1  0
 28 49  1  0
 28 50  1  0
 28 51  1  0
 30 52  1  0
 30 53  1  0
 31 54  1  0
 32 55  1  0
 32 56  1  0
 32 57  1  0
 33 58  1  0
M  END
>  <filename_input>  (24) 
7R7R_AWJ_docked.sdf

>  <pdb_id>  (24) 
7R7R_AWJ

>  <pose_rank>  (24) 
23

>  <num_atoms_heavy>  (24) 
33

>  <num_torsions>  (24) 
7

>  <pose>  (24) 
[34.97739685637304, 45.671313944198964, 7.504223926948365, -0.06230202035948822, -3.2133075136136893, 1.4228735405823818, 2.8072435782509, 4.691274832355922, 0.8221405549338535, -7.711270682968536, 1.192762098186174, 1.609057290586892, -0.9651063709588713]

>  <energy>  (24) 
-533.9615223568604

>  <inter_energy>  (24) 
-615.3716999228798

>  <intra_energy>  (24) 
105.01567580164883

>  <rmsd>  (24) 
6.08597

>  <sdf_rank>  (24) 
0

$$$$

     RDKit          3D

 58 61  0  0  0  0  0  0  0  0999 V2000
   26.5497   51.0273    5.7492 C   0  0  0  0  0  0  0  0  0  0  0  0
   25.6188   51.3806    6.7200 C   0  0  0  0  0  0  0  0  0  0  0  0
   25.5958   50.8020    7.9477 N   0  0  0  0  0  0  0  0  0  0  0  0
   26.5185   49.8436    8.2003 C   0  0  0  0  0  0  0  0  0  0  0  0
   27.4788   49.4095    7.3007 C   0  0  0  0  0  0  0  0  0  0  0  0
   27.4888   50.0350    6.0575 C   0  0  0  0  0  0  0  0  0  0  0  0
   26.4550   51.6929    4.5283 O   0  0  0  0  0  0  0  0  0  0  0  0
   24.6614   52.3772    6.4219 N   0  0  0  0  0  0  0  0  0  0  0  0
   27.5223   52.5943    4.2201 C   0  0  1  0  0  0  0  0  0  0  0  0
   27.8539   52.4835    2.7625 C   0  0  0  0  0  0  0  0  0  0  0  0
   27.0255   53.9897    4.5374 C   0  0  0  0  0  0  0  0  0  0  0  0
   29.1727   52.2749    2.3135 C   0  0  0  0  0  0  0  0  0  0  0  0
   29.4214   52.1500    0.9409 C   0  0  0  0  0  0  0  0  0  0  0  0
   28.3613   52.1958    0.0299 C   0  0  0  0  0  0  0  0  0  0  0  0
   27.0603   52.4093    0.4787 C   0  0  0  0  0  0  0  0  0  0  0  0
   26.8006   52.5611    1.8435 C   0  0  0  0  0  0  0  0  0  0  0  0
   26.0539   52.4696   -0.4052 F   0  0  0  0  0  0  0  0  0  0  0  0
   30.2842   52.1537    3.1745 N   0  0  0  0  0  0  0  0  0  0  0  0
   31.2223   53.1237    3.1982 N   0  0  0  0  0  0  0  0  0  0  0  0
   31.8442   52.9112    4.3627 C   0  0  0  0  0  0  0  0  0  0  0  0
   31.2497   51.8232    5.0113 C   0  0  0  0  0  0  0  0  0  0  0  0
   30.2432   51.3612    4.2596 N   0  0  0  0  0  0  0  0  0  0  0  0
   28.4176   48.3363    7.6233 C   0  0  0  0  0  0  0  0  0  0  0  0
   28.2453   47.0679    8.1488 C   0  0  0  0  0  0  0  0  0  0  0  0
   29.4164   46.3532    8.3451 N   0  0  0  0  0  0  0  0  0  0  0  0
   30.4751   47.0388    7.9690 C   0  0  0  0  0  0  0  0  0  0  0  0
   30.0919   48.5853    7.3254 S   0  0  0  0  0  0  0  0  0  0  0  0
   26.9806   46.4190    8.5458 C   0  0  0  0  0  0  0  0  0  0  0  0
   31.8799   46.5717    8.0843 C   0  0  1  0  0  0  0  0  0  0  0  0
   32.6275   46.7376    6.7804 C   0  0  0  0  0  0  0  0  0  0  0  0
   32.6031   47.2312    9.1261 O   0  0  0  0  0  0  0  0  0  0  0  0
   31.8679   45.1038    8.4612 C   0  0  0  0  0  0  0  0  0  0  0  0
   32.4782   45.5851    5.9600 O   0  0  0  0  0  0  0  0  0  0  0  0
   26.5048   49.3742    9.1950 H   0  0  0  0  0  0  0  0  0  0  0  0
   28.2419   49.7470    5.3093 H   0  0  0  0  0  0  0  0  0  0  0  0
   23.9650   52.6504    7.1298 H   0  0  0  0  0  0  0  0  0  0  0  0
   24.6604   52.8300    5.4968 H   0  0  0  0  0  0  0  0  0  0  0  0
   28.4274   52.3639    4.8011 H   0  0  0  0  0  0  0  0  0  0  0  0
   26.9781   54.1227    5.6283 H   0  0  0  0  0  0  0  0  0  0  0  0
   27.7149   54.7310    4.1072 H   0  0  0  0  0  0  0  0  0  0  0  0
   26.0227   54.1285    4.1072 H   0  0  0  0  0  0  0  0  0  0  0  0
   30.4514   52.0157    0.5791 H   0  0  0  0  0  0  0  0  0  0  0  0
   28.5557   52.0628   -1.0446 H   0  0  0  0  0  0  0  0  0  0  0  0
   25.7735   52.7407    2.1940 H   0  0  0  0  0  0  0  0  0  0  0  0
   31.4125   53.8495    2.4926 H   0  0  0  0  0  0  0  0  0  0  0  0
   32.6897   53.4989    4.7497 H   0  0  0  0  0  0  0  0  0  0  0  0
   31.5599   51.4131    5.9837 H   0  0  0  0  0  0  0  0  0  0  0  0
   29.5951   50.5869    4.4629 H   0  0  0  0  0  0  0  0  0  0  0  0
   26.9146   46.3852    9.6433 H   0  0  0  0  0  0  0  0  0  0  0  0
   26.1323   46.9933    8.1450 H   0  0  0  0  0  0  0  0  0  0  0  0
   26.9523   45.3951    8.1450 H   0  0  0  0  0  0  0  0  0  0  0  0
   32.2306   47.6137    6.2465 H   0  0  0  0  0  0  0  0  0  0  0  0
   33.6960   46.8751    7.0026 H   0  0  0  0  0  0  0  0  0  0  0  0
   32.2674   46.9251   10.0057 H   0  0  0  0  0  0  0  0  0  0  0  0
   31.8671   45.0065    9.5569 H   0  0  0  0  0  0  0  0  0  0  0  0
   30.9659   44.6271    8.0501 H   0  0  0  0  0  0  0  0  0  0  0  0
   32.7621   44.6124    8.0501 H   0  0  0  0  0  0  0  0  0  0  0  0
   32.3744   44.7839    6.5322 H   0  0  0  0  0  0  0  0  0  0  0  0
  1  2  2  0
  1  6  1  0
  1  7  1  0
  2  3  1  0
  2  8  1  0
  3  4  2  0
  4  5  1  0
  5  6  2  0
  5 23  1  0
  7  9  1  0
  9 10  1  0
  9 11  1  0
 10 12  1  0
 10 16  2  0
 12 13  2  0
 12 18  1  0
 13 14  1  0
 14 15  2  0
 15 16  1  0
 15 17  1  0
 18 19  1  0
 18 22  1  0
 19 20  1  0
 20 21  2  0
 21 22  1  0
 23 24  2  0
 23 27  1  0
 24 25  1  0
 24 28  1  0
 25 26  2  0
 26 27  1  0
 26 29  1  0
 29 30  1  0
 29 31  1  1
 29 32  1  0
 30 33  1  0
  4 34  1  0
  6 35  1  0
  8 36  1  0
  8 37  1  0
  9 38  1  1
 11 39  1  0
 11 40  1  0
 11 41  1  0
 13 42  1  0
 14 43  1  0
 16 44  1  0
 19 45  1  0
 20 46  1  0
 21 47  1  0
 22 48  1  0
 28 49  1  0
 28 50  1  0
 28 51  1  0
 30 52  1  0
 30 53  1  0
 31 54  1  0
 32 55  1  0
 32 56  1  0
 32 57  1  0
 33 58  1  0
M  END
>  <filename_input>  (25) 
7R7R_AWJ_docked.sdf

>  <pdb_id>  (25) 
7R7R_AWJ

>  <pose_rank>  (25) 
24

>  <num_atoms_heavy>  (25) 
33

>  <num_torsions>  (25) 
7

>  <pose>  (25) 
[26.54973221289368, 51.02732174968937, 5.749208769858604, 2.0149748556369187, -0.05775092774480367, -1.9513006870439318, -4.893058494436461, 1.3730724905822598, -2.6421600057160832, -7.399619157726368, -5.254098947850953, 0.1548499601127829, 2.083198585813639]

>  <energy>  (25) 
-642.7161530465435

>  <inter_energy>  (25) 
-626.8626512235924

>  <intra_energy>  (25) 
22.022158667579696

>  <rmsd>  (25) 
8.45512

>  <sdf_rank>  (25) 
0

$$$$

     RDKit          3D

 58 61  0  0  0  0  0  0  0  0999 V2000
   29.9180   44.7420    9.2870 C   0  0  0  0  0  0  0  0  0  0  0  0
   28.8360   44.4790   10.1200 C   0  0  0  0  0  0  0  0  0  0  0  0
   27.8000   45.3450   10.2590 N   0  0  0  0  0  0  0  0  0  0  0  0
   27.8580   46.5010    9.5560 C   0  0  0  0  0  0  0  0  0  0  0  0
   28.8940   46.8650    8.7110 C   0  0  0  0  0  0  0  0  0  0  0  0
   29.9320   45.9480    8.5750 C   0  0  0  0  0  0  0  0  0  0  0  0
   30.9180   43.7720    9.2450 O   0  0  0  0  0  0  0  0  0  0  0  0
   28.8100   43.2680   10.8490 N   0  0  0  0  0  0  0  0  0  0  0  0
   31.9770   44.0020    8.3110 C   0  0  1  0  0  0  0  0  0  0  0  0
   32.9690   44.9490    8.9160 C   0  0  0  0  0  0  0  0  0  0  0  0
   32.6300   42.6610    8.0470 C   0  0  0  0  0  0  0  0  0  0  0  0
   33.5410   46.0010    8.1740 C   0  0  0  0  0  0  0  0  0  0  0  0
   34.4410   46.8740    8.7980 C   0  0  0  0  0  0  0  0  0  0  0  0
   34.7380   46.7210   10.1560 C   0  0  0  0  0  0  0  0  0  0  0  0
   34.1750   45.6750   10.8830 C   0  0  0  0  0  0  0  0  0  0  0  0
   33.2950   44.7810   10.2670 C   0  0  0  0  0  0  0  0  0  0  0  0
   34.4810   45.5270   12.1800 F   0  0  0  0  0  0  0  0  0  0  0  0
   33.2420   46.2580    6.8190 N   0  0  0  0  0  0  0  0  0  0  0  0
   32.8900   47.5030    6.4350 N   0  0  0  0  0  0  0  0  0  0  0  0
   33.1020   47.4810    5.1150 C   0  0  0  0  0  0  0  0  0  0  0  0
   33.5890   46.2220    4.7470 C   0  0  0  0  0  0  0  0  0  0  0  0
   33.6970   45.4570    5.8400 N   0  0  0  0  0  0  0  0  0  0  0  0
   28.9150   48.1510    8.0160 C   0  0  0  0  0  0  0  0  0  0  0  0
   27.9100   48.9780    7.5460 C   0  0  0  0  0  0  0  0  0  0  0  0
   28.3500   50.1190    6.8940 N   0  0  0  0  0  0  0  0  0  0  0  0
   29.6640   50.1900    6.8680 C   0  0  0  0  0  0  0  0  0  0  0  0
   30.4330   48.8780    7.6680 S   0  0  0  0  0  0  0  0  0  0  0  0
   26.4520   48.7660    7.6320 C   0  0  0  0  0  0  0  0  0  0  0  0
   30.4480   51.2670    6.2120 C   0  0  1  0  0  0  0  0  0  0  0  0
   29.9830   52.6370    6.6520 C   0  0  0  0  0  0  0  0  0  0  0  0
   31.8540   51.1530    6.4430 O   0  0  0  0  0  0  0  0  0  0  0  0
   30.2690   51.1450    4.7120 C   0  0  0  0  0  0  0  0  0  0  0  0
   30.1830   52.8160    8.0490 O   0  0  0  0  0  0  0  0  0  0  0  0
   27.0191   47.2043    9.6640 H   0  0  0  0  0  0  0  0  0  0  0  0
   30.7721   46.1727    7.9014 H   0  0  0  0  0  0  0  0  0  0  0  0
   28.0159   43.0579   11.4704 H   0  0  0  0  0  0  0  0  0  0  0  0
   29.5852   42.5958   10.7587 H   0  0  0  0  0  0  0  0  0  0  0  0
   31.6027   44.4417    7.3747 H   0  0  0  0  0  0  0  0  0  0  0  0
   32.8672   42.1739    9.0043 H   0  0  0  0  0  0  0  0  0  0  0  0
   31.9410   42.0244    7.4725 H   0  0  0  0  0  0  0  0  0  0  0  0
   33.5560   42.8109    7.4725 H   0  0  0  0  0  0  0  0  0  0  0  0
   34.9147   47.6808    8.2194 H   0  0  0  0  0  0  0  0  0  0  0  0
   35.4185   47.4291   10.6515 H   0  0  0  0  0  0  0  0  0  0  0  0
   32.8606   43.9493   10.8410 H   0  0  0  0  0  0  0  0  0  0  0  0
   32.5432   48.2795    7.0161 H   0  0  0  0  0  0  0  0  0  0  0  0
   32.9220   48.3202    4.4270 H   0  0  0  0  0  0  0  0  0  0  0  0
   33.8426   45.9106    3.7229 H   0  0  0  0  0  0  0  0  0  0  0  0
   34.0442   44.4900    5.9132 H   0  0  0  0  0  0  0  0  0  0  0  0
   26.1496   48.7220    8.6887 H   0  0  0  0  0  0  0  0  0  0  0  0
   25.9306   49.5978    7.1357 H   0  0  0  0  0  0  0  0  0  0  0  0
   26.1891   47.8202    7.1357 H   0  0  0  0  0  0  0  0  0  0  0  0
   30.5522   53.4034    6.1055 H   0  0  0  0  0  0  0  0  0  0  0  0
   28.9084   52.7299    6.4358 H   0  0  0  0  0  0  0  0  0  0  0  0
   32.0282   51.1389    7.4174 H   0  0  0  0  0  0  0  0  0  0  0  0
   29.3775   50.5374    4.4973 H   0  0  0  0  0  0  0  0  0  0  0  0
   30.1439   52.1467    4.2750 H   0  0  0  0  0  0  0  0  0  0  0  0
   31.1556   50.6624    4.2750 H   0  0  0  0  0  0  0  0  0  0  0  0
   29.5464   52.2462    8.5492 H   0  0  0  0  0  0  0  0  0  0  0  0
  1  2  2  0
  1  6  1  0
  1  7  1  0
  2  3  1  0
  2  8  1  0
  3  4  2  0
  4  5  1  0
  5  6  2  0
  5 23  1  0
  7  9  1  0
  9 10  1  0
  9 11  1  0
 10 12  1  0
 10 16  2  0
 12 13  2  0
 12 18  1  0
 13 14  1  0
 14 15  2  0
 15 16  1  0
 15 17  1  0
 18 19  1  0
 18 22  1  0
 19 20  1  0
 20 21  2  0
 21 22  1  0
 23 24  2  0
 23 27  1  0
 24 25  1  0
 24 28  1  0
 25 26  2  0
 26 27  1  0
 26 29  1  0
 29 30  1  0
 29 31  1  6
 29 32  1  0
 30 33  1  0
  4 34  1  0
  6 35  1  0
  8 36  1  0
  8 37  1  0
  9 38  1  6
 11 39  1  0
 11 40  1  0
 11 41  1  0
 13 42  1  0
 14 43  1  0
 16 44  1  0
 19 45  1  0
 20 46  1  0
 21 47  1  0
 22 48  1  0
 28 49  1  0
 28 50  1  0
 28 51  1  0
 30 52  1  0
 30 53  1  0
 31 54  1  0
 32 55  1  0
 32 56  1  0
 32 57  1  0
 33 58  1  0
M  END
>  <filename_input>  (26) 
7R7R_AWJ_docked.sdf

>  <pdb_id>  (26) 
7R7R_AWJ

>  <pose_rank>  (26) 
25

>  <num_atoms_heavy>  (26) 
33

>  <num_torsions>  (26) 
7

>  <pose>  (26) 
[29.918, 44.742, 9.287, 1e-06, 1e-06, 1e-06, 0.0, 0.0, 0.0, 0.0, 0.0, 0.0, 0.0]

>  <energy>  (26) 
-1890.3910389310693

>  <inter_energy>  (26) 
-1945.5599465392252

>  <intra_energy>  (26) 
41.0736979631159

>  <rmsd>  (26) 
0.0

>  <sdf_rank>  (26) 
0

$$$$
