
     RDKit          3D

 58 62  0  0  0  0  0  0  0  0999 V2000
  -39.9961 -115.0828  226.3518 C   0  0  0  0  0  0  0  0  0  0  0  0
  -39.8178 -115.1226  224.9697 C   0  0  0  0  0  0  0  0  0  0  0  0
  -40.0821 -116.3102  224.2962 C   0  0  0  0  0  0  0  0  0  0  0  0
  -40.4397 -116.2556  226.9973 C   0  0  0  0  0  0  0  0  0  0  0  0
  -40.1929 -114.6927  228.5629 N   0  0  0  0  0  0  0  0  0  0  0  0
  -39.6748 -115.8532  220.6309 C   0  0  0  0  0  0  0  0  0  0  0  0
  -37.8033 -111.2902  220.8827 C   0  0  0  0  0  0  0  0  0  0  0  0
  -37.4607 -110.1227  221.8484 C   0  0  0  0  0  0  0  0  0  0  0  0
  -37.7733 -112.1288  223.1571 C   0  0  0  0  0  0  0  0  0  0  0  0
  -38.0689 -115.6349  217.5601 C   0  0  0  0  0  0  0  0  0  0  0  0
  -37.9610 -112.6233  227.5600 C   0  0  0  0  0  0  0  0  0  0  0  0
  -39.4211 -112.7638  227.1217 C   0  0  2  0  0  0  0  0  0  0  0  0
  -40.3397 -111.8970  227.9794 C   0  0  0  0  0  0  0  0  0  0  0  0
  -39.8466 -114.1453  227.3210 N   0  0  0  0  0  0  0  0  0  0  0  0
  -40.5133 -117.3840  224.9391 N   0  0  0  0  0  0  0  0  0  0  0  0
  -40.6863 -117.3999  226.2408 C   0  0  0  0  0  0  0  0  0  0  0  0
  -40.5387 -115.9359  228.4111 C   0  0  0  0  0  0  0  0  0  0  0  0
  -39.9574 -116.4568  222.9131 N   0  0  0  0  0  0  0  0  0  0  0  0
  -39.4893 -115.5487  221.9803 C   0  0  0  0  0  0  0  0  0  0  0  0
  -39.2107 -114.9595  219.6877 C   0  0  0  0  0  0  0  0  0  0  0  0
  -38.5829 -113.8665  220.0683 N   0  0  0  0  0  0  0  0  0  0  0  0
  -38.4270 -113.6086  221.3579 C   0  0  0  0  0  0  0  0  0  0  0  0
  -38.8577 -114.4261  222.2986 N   0  0  0  0  0  0  0  0  0  0  0  0
  -37.7604 -112.4822  221.7425 N   0  0  0  0  0  0  0  0  0  0  0  0
  -36.9494 -110.8337  223.1354 C   0  0  2  0  0  0  0  0  0  0  0  0
  -37.1864 -110.0977  224.2973 F   0  0  0  0  0  0  0  0  0  0  0  0
  -35.5942 -111.1079  223.0036 F   0  0  0  0  0  0  0  0  0  0  0  0
  -39.4112 -115.2375  218.2245 C   0  0  1  0  0  0  0  0  0  0  0  0
  -38.3537 -115.2707  216.0829 C   0  0  0  0  0  0  0  0  0  0  0  0
  -39.1772 -114.0451  216.1437 N   0  0  0  0  0  0  0  0  0  0  0  0
  -39.7584 -113.9259  217.4951 C   0  0  0  0  0  0  0  0  0  0  0  0
  -39.4747 -114.2321  224.4227 H   0  0  0  0  0  0  0  0  0  0  0  0
  -40.1784 -116.7827  220.3269 H   0  0  0  0  0  0  0  0  0  0  0  0
  -38.8047 -111.1572  220.4473 H   0  0  0  0  0  0  0  0  0  0  0  0
  -37.1097 -111.3550  220.0315 H   0  0  0  0  0  0  0  0  0  0  0  0
  -36.6781 -109.4788  221.4207 H   0  0  0  0  0  0  0  0  0  0  0  0
  -38.3226 -109.4672  222.0417 H   0  0  0  0  0  0  0  0  0  0  0  0
  -38.7961 -111.9522  223.5213 H   0  0  0  0  0  0  0  0  0  0  0  0
  -37.3799 -112.9086  223.8259 H   0  0  0  0  0  0  0  0  0  0  0  0
  -37.2289 -115.0518  217.9655 H   0  0  0  0  0  0  0  0  0  0  0  0
  -37.7750 -116.6826  217.7210 H   0  0  0  0  0  0  0  0  0  0  0  0
  -37.9068 -112.6181  228.6587 H   0  0  0  0  0  0  0  0  0  0  0  0
  -37.3775 -113.4694  227.1681 H   0  0  0  0  0  0  0  0  0  0  0  0
  -37.5496 -111.6814  227.1681 H   0  0  0  0  0  0  0  0  0  0  0  0
  -39.4859 -112.4564  226.0676 H   0  0  0  0  0  0  0  0  0  0  0  0
  -40.1366 -112.0887  229.0434 H   0  0  0  0  0  0  0  0  0  0  0  0
  -40.1558 -110.8356  227.7564 H   0  0  0  0  0  0  0  0  0  0  0  0
  -41.3886 -112.1421  227.7564 H   0  0  0  0  0  0  0  0  0  0  0  0
  -41.0273 -118.3207  226.7365 H   0  0  0  0  0  0  0  0  0  0  0  0
  -40.8508 -116.6239  229.2106 H   0  0  0  0  0  0  0  0  0  0  0  0
  -40.2552 -117.3675  222.5350 H   0  0  0  0  0  0  0  0  0  0  0  0
  -40.1845 -116.0166  218.1532 H   0  0  0  0  0  0  0  0  0  0  0  0
  -37.4143 -115.0791  215.5437 H   0  0  0  0  0  0  0  0  0  0  0  0
  -38.8635 -116.0851  215.5472 H   0  0  0  0  0  0  0  0  0  0  0  0
  -38.5886 -113.2230  215.9467 H   0  0  0  0  0  0  0  0  0  0  0  0
  -39.9306 -114.0958  215.4431 H   0  0  0  0  0  0  0  0  0  0  0  0
  -40.8494 -113.8009  217.4322 H   0  0  0  0  0  0  0  0  0  0  0  0
  -39.3598 -113.0506  218.0291 H   0  0  0  0  0  0  0  0  0  0  0  0
  1  2  2  0
  1  4  1  0
  1 14  1  0
  2  3  1  0
  3 15  2  0
  3 18  1  0
  4 16  2  0
  4 17  1  0
  5 14  1  0
  5 17  2  0
  6 19  2  0
  6 20  1  0
  7  8  1  0
  7 24  1  0
  8 25  1  0
  9 24  1  0
  9 25  1  0
 10 28  1  0
 10 29  1  0
 12 11  1  0
 12 13  1  0
 12 14  1  0
 15 16  1  0
 18 19  1  0
 19 23  1  0
 20 21  2  0
 28 20  1  0
 21 22  1  0
 22 23  2  0
 22 24  1  0
 25 26  1  1
 25 27  1  0
 28 31  1  0
 29 30  1  0
 30 31  1  0
  2 32  1  0
  6 33  1  0
  7 34  1  0
  7 35  1  0
  8 36  1  0
  8 37  1  0
  9 38  1  0
  9 39  1  0
 10 40  1  0
 10 41  1  0
 11 42  1  0
 11 43  1  0
 11 44  1  0
 12 45  1  6
 13 46  1  0
 13 47  1  0
 13 48  1  0
 16 49  1  0
 17 50  1  0
 18 51  1  0
 28 52  1  1
 29 53  1  0
 29 54  1  0
 30 55  1  0
 30 56  1  0
 31 57  1  0
 31 58  1  0
M  CHG  1  30   1
M  END
>  <filename_input>  (1) 
7R9N_F97_docked.sdf

>  <pdb_id>  (1) 
7R9N_F97

>  <pose_rank>  (1) 
0

>  <num_atoms_heavy>  (1) 
31

>  <num_torsions>  (1) 
3

>  <pose>  (1) 
[-39.67475860188271, -115.85316881330809, 220.63092305893426, 5.678064915033571, -2.315545408734144, -1.1565018899014845, -0.01905913327814711, 0.3849872032047981, 0.29422506581309554]

>  <energy>  (1) 
-1627.9925565599099

>  <inter_energy>  (1) 
-1604.8758946950204

>  <intra_energy>  (1) 
18.128612391877983

>  <rmsd>  (1) 
0.369885

>  <sdf_rank>  (1) 
0

$$$$

     RDKit          3D

 58 62  0  0  0  0  0  0  0  0999 V2000
  -40.0626 -115.1188  226.3414 C   0  0  0  0  0  0  0  0  0  0  0  0
  -39.9105 -115.1519  224.9560 C   0  0  0  0  0  0  0  0  0  0  0  0
  -40.0669 -116.3657  224.2958 C   0  0  0  0  0  0  0  0  0  0  0  0
  -40.3707 -116.3251  227.0037 C   0  0  0  0  0  0  0  0  0  0  0  0
  -40.2511 -114.7322  228.5538 N   0  0  0  0  0  0  0  0  0  0  0  0
  -39.4828 -115.9942  220.6395 C   0  0  0  0  0  0  0  0  0  0  0  0
  -38.9572 -111.0841  220.6729 C   0  0  0  0  0  0  0  0  0  0  0  0
  -39.0968 -109.8101  221.5506 C   0  0  0  0  0  0  0  0  0  0  0  0
  -39.0709 -111.7390  223.0043 C   0  0  0  0  0  0  0  0  0  0  0  0
  -38.2944 -114.3776  217.4196 C   0  0  0  0  0  0  0  0  0  0  0  0
  -39.4344 -112.0800  228.4342 C   0  0  0  0  0  0  0  0  0  0  0  0
  -39.7104 -112.7470  227.0841 C   0  0  2  0  0  0  0  0  0  0  0  0
  -40.9519 -112.1556  226.4209 C   0  0  0  0  0  0  0  0  0  0  0  0
  -39.9887 -114.1629  227.3013 N   0  0  0  0  0  0  0  0  0  0  0  0
  -40.3729 -117.4724  224.9547 N   0  0  0  0  0  0  0  0  0  0  0  0
  -40.5155 -117.4948  226.2600 C   0  0  0  0  0  0  0  0  0  0  0  0
  -40.4717 -116.0053  228.4174 C   0  0  0  0  0  0  0  0  0  0  0  0
  -39.9574 -116.5106  222.9112 N   0  0  0  0  0  0  0  0  0  0  0  0
  -39.6041 -115.5674  221.9627 C   0  0  0  0  0  0  0  0  0  0  0  0
  -39.1278 -115.0667  219.6817 C   0  0  0  0  0  0  0  0  0  0  0  0
  -38.8826 -113.8208  220.0299 N   0  0  0  0  0  0  0  0  0  0  0  0
  -39.0101 -113.4506  221.2950 C   0  0  0  0  0  0  0  0  0  0  0  0
  -39.3531 -114.2959  222.2470 N   0  0  0  0  0  0  0  0  0  0  0  0
  -38.7375 -112.1616  221.6491 N   0  0  0  0  0  0  0  0  0  0  0  0
  -38.6285 -110.2697  222.9621 C   0  0  2  0  0  0  0  0  0  0  0  0
  -39.2359 -109.5585  223.9981 F   0  0  0  0  0  0  0  0  0  0  0  0
  -37.2462 -110.1633  223.0469 F   0  0  0  0  0  0  0  0  0  0  0  0
  -39.0096 -115.4794  218.2415 C   0  0  1  0  0  0  0  0  0  0  0  0
  -38.8158 -114.6887  215.9958 C   0  0  0  0  0  0  0  0  0  0  0  0
  -40.2168 -115.1181  216.1876 N   0  0  0  0  0  0  0  0  0  0  0  0
  -40.4090 -115.5069  217.5984 C   0  0  0  0  0  0  0  0  0  0  0  0
  -39.6715 -114.2357  224.3960 H   0  0  0  0  0  0  0  0  0  0  0  0
  -39.6656 -117.0441  220.3669 H   0  0  0  0  0  0  0  0  0  0  0  0
  -39.8745 -111.2625  220.0926 H   0  0  0  0  0  0  0  0  0  0  0  0
  -38.1440 -111.0057  219.9364 H   0  0  0  0  0  0  0  0  0  0  0  0
  -38.4554 -109.0014  221.1702 H   0  0  0  0  0  0  0  0  0  0  0  0
  -40.1215 -109.4099  221.5548 H   0  0  0  0  0  0  0  0  0  0  0  0
  -40.1485 -111.8321  223.2042 H   0  0  0  0  0  0  0  0  0  0  0  0
  -38.5970 -112.3356  223.7977 H   0  0  0  0  0  0  0  0  0  0  0  0
  -38.5920 -113.3708  217.7480 H   0  0  0  0  0  0  0  0  0  0  0  0
  -37.1984 -114.3808  217.5127 H   0  0  0  0  0  0  0  0  0  0  0  0
  -39.7179 -112.7654  229.2466 H   0  0  0  0  0  0  0  0  0  0  0  0
  -38.3636 -111.8410  228.5131 H   0  0  0  0  0  0  0  0  0  0  0  0
  -40.0235 -111.1544  228.5131 H   0  0  0  0  0  0  0  0  0  0  0  0
  -38.8285 -112.5894  226.4458 H   0  0  0  0  0  0  0  0  0  0  0  0
  -41.6568 -111.8198  227.1957 H   0  0  0  0  0  0  0  0  0  0  0  0
  -40.6604 -111.2996  225.7945 H   0  0  0  0  0  0  0  0  0  0  0  0
  -41.4329 -112.9213  225.7945 H   0  0  0  0  0  0  0  0  0  0  0  0
  -40.7505 -118.4414  226.7687 H   0  0  0  0  0  0  0  0  0  0  0  0
  -40.6950 -116.7147  229.2278 H   0  0  0  0  0  0  0  0  0  0  0  0
  -40.1689 -117.4499  222.5454 H   0  0  0  0  0  0  0  0  0  0  0  0
  -38.4846 -116.4460  218.2311 H   0  0  0  0  0  0  0  0  0  0  0  0
  -38.7699 -113.7907  215.3623 H   0  0  0  0  0  0  0  0  0  0  0  0
  -38.2123 -115.4593  215.4937 H   0  0  0  0  0  0  0  0  0  0  0  0
  -40.8516 -114.3415  215.9535 H   0  0  0  0  0  0  0  0  0  0  0  0
  -40.4234 -115.9190  215.5737 H   0  0  0  0  0  0  0  0  0  0  0  0
  -40.8385 -116.5176  217.6611 H   0  0  0  0  0  0  0  0  0  0  0  0
  -41.1021 -114.8252  218.1131 H   0  0  0  0  0  0  0  0  0  0  0  0
  1  2  2  0
  1  4  1  0
  1 14  1  0
  2  3  1  0
  3 15  2  0
  3 18  1  0
  4 16  2  0
  4 17  1  0
  5 14  1  0
  5 17  2  0
  6 19  2  0
  6 20  1  0
  7  8  1  0
  7 24  1  0
  8 25  1  0
  9 24  1  0
  9 25  1  0
 10 28  1  0
 10 29  1  0
 12 11  1  0
 12 13  1  0
 12 14  1  0
 15 16  1  0
 18 19  1  0
 19 23  1  0
 20 21  2  0
 28 20  1  0
 21 22  1  0
 22 23  2  0
 22 24  1  0
 25 26  1  1
 25 27  1  0
 28 31  1  0
 29 30  1  0
 30 31  1  0
  2 32  1  0
  6 33  1  0
  7 34  1  0
  7 35  1  0
  8 36  1  0
  8 37  1  0
  9 38  1  0
  9 39  1  0
 10 40  1  0
 10 41  1  0
 11 42  1  0
 11 43  1  0
 11 44  1  0
 12 45  1  6
 13 46  1  0
 13 47  1  0
 13 48  1  0
 16 49  1  0
 17 50  1  0
 18 51  1  0
 28 52  1  1
 29 53  1  0
 29 54  1  0
 30 55  1  0
 30 56  1  0
 31 57  1  0
 31 58  1  0
M  CHG  1  30   1
M  END
>  <filename_input>  (2) 
7R9N_F97_docked.sdf

>  <pdb_id>  (2) 
7R9N_F97

>  <pose_rank>  (2) 
1

>  <num_atoms_heavy>  (2) 
31

>  <num_torsions>  (2) 
3

>  <pose>  (2) 
[-39.482767212606554, -115.99424416685189, 220.6395154110389, 2.205272995804938, 2.472796136321103, -4.935293902406074, -0.2770990870092745, -0.7459108463360035, -0.7437617893407718]

>  <energy>  (2) 
-1580.1521563567362

>  <inter_energy>  (2) 
-1588.9786350967138

>  <intra_energy>  (2) 
22.2443485872477

>  <rmsd>  (2) 
1.06876

>  <sdf_rank>  (2) 
0

$$$$

     RDKit          3D

 58 62  0  0  0  0  0  0  0  0999 V2000
  -39.5564 -114.4271  226.2395 C   0  0  0  0  0  0  0  0  0  0  0  0
  -39.2422 -114.3206  224.8854 C   0  0  0  0  0  0  0  0  0  0  0  0
  -39.3595 -115.4494  224.0819 C   0  0  0  0  0  0  0  0  0  0  0  0
  -39.9809 -115.6812  226.7251 C   0  0  0  0  0  0  0  0  0  0  0  0
  -39.9931 -114.2681  228.4449 N   0  0  0  0  0  0  0  0  0  0  0  0
  -38.7580 -114.5477  220.5380 C   0  0  0  0  0  0  0  0  0  0  0  0
  -36.8517 -110.0828  221.4417 C   0  0  0  0  0  0  0  0  0  0  0  0
  -36.5180 -109.0610  222.5632 C   0  0  0  0  0  0  0  0  0  0  0  0
  -36.8742 -111.2223  223.5813 C   0  0  0  0  0  0  0  0  0  0  0  0
  -37.9000 -114.9617  217.7014 C   0  0  0  0  0  0  0  0  0  0  0  0
  -40.2111 -111.4233  226.3786 C   0  0  0  0  0  0  0  0  0  0  0  0
  -39.2162 -112.1657  227.2746 C   0  0  2  0  0  0  0  0  0  0  0  0
  -37.7983 -112.0766  226.7155 C   0  0  0  0  0  0  0  0  0  0  0  0
  -39.5652 -113.5823  227.3010 N   0  0  0  0  0  0  0  0  0  0  0  0
  -39.7780 -116.6043  224.5753 N   0  0  0  0  0  0  0  0  0  0  0  0
  -40.0752 -116.7579  225.8452 C   0  0  0  0  0  0  0  0  0  0  0  0
  -40.2382 -115.5082  228.1445 C   0  0  0  0  0  0  0  0  0  0  0  0
  -39.0912 -115.4521  222.7114 N   0  0  0  0  0  0  0  0  0  0  0  0
  -38.5967 -114.4312  221.9194 C   0  0  0  0  0  0  0  0  0  0  0  0
  -38.2675 -113.5397  219.7336 C   0  0  0  0  0  0  0  0  0  0  0  0
  -37.6377 -112.5158  220.2707 N   0  0  0  0  0  0  0  0  0  0  0  0
  -37.5052 -112.4370  221.5860 C   0  0  0  0  0  0  0  0  0  0  0  0
  -37.9616 -113.3695  222.3988 N   0  0  0  0  0  0  0  0  0  0  0  0
  -36.8364 -111.3808  222.1323 N   0  0  0  0  0  0  0  0  0  0  0  0
  -36.0387 -109.9458  223.7508 C   0  0  2  0  0  0  0  0  0  0  0  0
  -36.2922 -109.3715  224.9974 F   0  0  0  0  0  0  0  0  0  0  0  0
  -34.6836 -110.2151  223.6081 F   0  0  0  0  0  0  0  0  0  0  0  0
  -38.4413 -113.6145  218.2427 C   0  0  1  0  0  0  0  0  0  0  0  0
  -37.6057 -114.5889  216.2283 C   0  0  0  0  0  0  0  0  0  0  0  0
  -37.1096 -113.1977  216.2782 N   0  0  0  0  0  0  0  0  0  0  0  0
  -37.5076 -112.5939  217.5649 C   0  0  0  0  0  0  0  0  0  0  0  0
  -38.9082 -113.3623  224.4609 H   0  0  0  0  0  0  0  0  0  0  0  0
  -39.2637 -115.4216  220.1013 H   0  0  0  0  0  0  0  0  0  0  0  0
  -37.8431 -109.8806  221.0099 H   0  0  0  0  0  0  0  0  0  0  0  0
  -36.1419 -110.0395  220.6025 H   0  0  0  0  0  0  0  0  0  0  0  0
  -35.7214 -108.3741  222.2414 H   0  0  0  0  0  0  0  0  0  0  0  0
  -37.3778 -108.4280  222.8278 H   0  0  0  0  0  0  0  0  0  0  0  0
  -37.9025 -111.0851  223.9472 H   0  0  0  0  0  0  0  0  0  0  0  0
  -36.5011 -112.0901  224.1451 H   0  0  0  0  0  0  0  0  0  0  0  0
  -36.9867 -115.2721  218.2301 H   0  0  0  0  0  0  0  0  0  0  0  0
  -38.5881 -115.8108  217.8263 H   0  0  0  0  0  0  0  0  0  0  0  0
  -40.9358 -110.8825  227.0049 H   0  0  0  0  0  0  0  0  0  0  0  0
  -39.6690 -110.7072  225.7435 H   0  0  0  0  0  0  0  0  0  0  0  0
  -40.7432 -112.1469  225.7435 H   0  0  0  0  0  0  0  0  0  0  0  0
  -39.2586 -111.7079  228.2739 H   0  0  0  0  0  0  0  0  0  0  0  0
  -37.0787 -112.0314  227.5462 H   0  0  0  0  0  0  0  0  0  0  0  0
  -37.5910 -112.9635  226.0987 H   0  0  0  0  0  0  0  0  0  0  0  0
  -37.7036 -111.1708  226.0987 H   0  0  0  0  0  0  0  0  0  0  0  0
  -40.4002 -117.7411  226.2162 H   0  0  0  0  0  0  0  0  0  0  0  0
  -40.5796 -116.2883  228.8409 H   0  0  0  0  0  0  0  0  0  0  0  0
  -39.2890 -116.3368  222.2224 H   0  0  0  0  0  0  0  0  0  0  0  0
  -39.5111 -113.4575  218.0404 H   0  0  0  0  0  0  0  0  0  0  0  0
  -36.8411 -115.2572  215.8055 H   0  0  0  0  0  0  0  0  0  0  0  0
  -38.4968 -114.6874  215.5909 H   0  0  0  0  0  0  0  0  0  0  0  0
  -36.0828 -113.1937  216.1975 H   0  0  0  0  0  0  0  0  0  0  0  0
  -37.5110 -112.6560  215.4996 H   0  0  0  0  0  0  0  0  0  0  0  0
  -38.0380 -111.6455  217.3940 H   0  0  0  0  0  0  0  0  0  0  0  0
  -36.6324 -112.3700  218.1924 H   0  0  0  0  0  0  0  0  0  0  0  0
  1  2  2  0
  1  4  1  0
  1 14  1  0
  2  3  1  0
  3 15  2  0
  3 18  1  0
  4 16  2  0
  4 17  1  0
  5 14  1  0
  5 17  2  0
  6 19  2  0
  6 20  1  0
  7  8  1  0
  7 24  1  0
  8 25  1  0
  9 24  1  0
  9 25  1  0
 10 28  1  0
 10 29  1  0
 12 11  1  0
 12 13  1  0
 12 14  1  0
 15 16  1  0
 18 19  1  0
 19 23  1  0
 20 21  2  0
 28 20  1  0
 21 22  1  0
 22 23  2  0
 22 24  1  0
 25 26  1  1
 25 27  1  0
 28 31  1  0
 29 30  1  0
 30 31  1  0
  2 32  1  0
  6 33  1  0
  7 34  1  0
  7 35  1  0
  8 36  1  0
  8 37  1  0
  9 38  1  0
  9 39  1  0
 10 40  1  0
 10 41  1  0
 11 42  1  0
 11 43  1  0
 11 44  1  0
 12 45  1  1
 13 46  1  0
 13 47  1  0
 13 48  1  0
 16 49  1  0
 17 50  1  0
 18 51  1  0
 28 52  1  1
 29 53  1  0
 29 54  1  0
 30 55  1  0
 30 56  1  0
 31 57  1  0
 31 58  1  0
M  CHG  1  30   1
M  END
>  <filename_input>  (3) 
7R9N_F97_docked.sdf

>  <pdb_id>  (3) 
7R9N_F97

>  <pose_rank>  (3) 
2

>  <num_atoms_heavy>  (3) 
31

>  <num_torsions>  (3) 
3

>  <pose>  (3) 
[-38.757996759839884, -114.54773265824971, 220.53798601780855, 6.375065696085827, -0.23815386661881136, -0.09818205122906964, -37.60170896910199, 40.99856271357505, -11.330398691548917]

>  <energy>  (3) 
-868.7971808656672

>  <inter_energy>  (3) 
-900.4500361625092

>  <intra_energy>  (3) 
36.39001788557344

>  <rmsd>  (3) 
1.20548

>  <sdf_rank>  (3) 
0

$$$$

     RDKit          3D

 58 62  0  0  0  0  0  0  0  0999 V2000
  -39.9839 -115.1412  226.4023 C   0  0  0  0  0  0  0  0  0  0  0  0
  -39.8836 -115.1227  225.0118 C   0  0  0  0  0  0  0  0  0  0  0  0
  -40.1088 -116.3021  224.3104 C   0  0  0  0  0  0  0  0  0  0  0  0
  -40.3124 -116.3619  227.0273 C   0  0  0  0  0  0  0  0  0  0  0  0
  -40.0774 -114.8393  228.6338 N   0  0  0  0  0  0  0  0  0  0  0  0
  -39.2253 -115.8561  220.7558 C   0  0  0  0  0  0  0  0  0  0  0  0
  -39.6846 -110.9436  220.5483 C   0  0  0  0  0  0  0  0  0  0  0  0
  -40.2502 -109.7007  221.2889 C   0  0  0  0  0  0  0  0  0  0  0  0
  -40.1540 -111.5411  222.8504 C   0  0  0  0  0  0  0  0  0  0  0  0
  -39.1131 -114.5437  217.3561 C   0  0  0  0  0  0  0  0  0  0  0  0
  -40.5831 -112.1643  226.3400 C   0  0  0  0  0  0  0  0  0  0  0  0
  -39.5171 -112.8160  227.2248 C   0  0  2  0  0  0  0  0  0  0  0  0
  -38.1423 -112.7600  226.5630 C   0  0  0  0  0  0  0  0  0  0  0  0
  -39.8397 -114.2287  227.3958 N   0  0  0  0  0  0  0  0  0  0  0  0
  -40.4315 -117.4233  224.9358 N   0  0  0  0  0  0  0  0  0  0  0  0
  -40.5275 -117.4942  226.2436 C   0  0  0  0  0  0  0  0  0  0  0  0
  -40.3500 -116.0970  228.4553 C   0  0  0  0  0  0  0  0  0  0  0  0
  -40.0550 -116.3937  222.9180 N   0  0  0  0  0  0  0  0  0  0  0  0
  -39.7016 -115.4256  221.9950 C   0  0  0  0  0  0  0  0  0  0  0  0
  -38.8653 -114.9031  219.8252 C   0  0  0  0  0  0  0  0  0  0  0  0
  -38.9458 -113.6240  220.1269 N   0  0  0  0  0  0  0  0  0  0  0  0
  -39.4048 -113.2519  221.3120 C   0  0  0  0  0  0  0  0  0  0  0  0
  -39.7682 -114.1221  222.2336 N   0  0  0  0  0  0  0  0  0  0  0  0
  -39.4687 -111.9248  221.6219 N   0  0  0  0  0  0  0  0  0  0  0  0
  -40.0073 -110.0142  222.7942 C   0  0  2  0  0  0  0  0  0  0  0  0
  -40.9447 -109.4133  223.6358 F   0  0  0  0  0  0  0  0  0  0  0  0
  -38.7212 -109.6242  223.1449 F   0  0  0  0  0  0  0  0  0  0  0  0
  -38.3702 -115.3237  218.4700 C   0  0  1  0  0  0  0  0  0  0  0  0
  -38.9371 -115.5061  216.1567 C   0  0  0  0  0  0  0  0  0  0  0  0
  -39.0335 -116.8616  216.7375 N   0  0  0  0  0  0  0  0  0  0  0  0
  -38.8030 -116.7759  218.1928 C   0  0  0  0  0  0  0  0  0  0  0  0
  -39.6312 -114.1934  224.4801 H   0  0  0  0  0  0  0  0  0  0  0  0
  -39.1391 -116.9285  220.5267 H   0  0  0  0  0  0  0  0  0  0  0  0
  -40.4075 -111.3226  219.8109 H   0  0  0  0  0  0  0  0  0  0  0  0
  -38.7664 -110.7212  219.9849 H   0  0  0  0  0  0  0  0  0  0  0  0
  -39.7134 -108.7889  220.9881 H   0  0  0  0  0  0  0  0  0  0  0  0
  -41.3109 -109.5192  221.0607 H   0  0  0  0  0  0  0  0  0  0  0  0
  -41.2104 -111.8474  222.8377 H   0  0  0  0  0  0  0  0  0  0  0  0
  -39.7498 -112.0050  223.7623 H   0  0  0  0  0  0  0  0  0  0  0  0
  -40.1746 -114.3969  217.6044 H   0  0  0  0  0  0  0  0  0  0  0  0
  -38.7317 -113.5266  217.1821 H   0  0  0  0  0  0  0  0  0  0  0  0
  -41.3497 -111.6956  226.9745 H   0  0  0  0  0  0  0  0  0  0  0  0
  -40.1143 -111.3982  225.7049 H   0  0  0  0  0  0  0  0  0  0  0  0
  -41.0512 -112.9308  225.7049 H   0  0  0  0  0  0  0  0  0  0  0  0
  -39.4988 -112.2744  228.1820 H   0  0  0  0  0  0  0  0  0  0  0  0
  -37.3630 -112.7283  227.3386 H   0  0  0  0  0  0  0  0  0  0  0  0
  -38.0002 -113.6531  225.9367 H   0  0  0  0  0  0  0  0  0  0  0  0
  -38.0733 -111.8583  225.9367 H   0  0  0  0  0  0  0  0  0  0  0  0
  -40.7788 -118.4518  226.7229 H   0  0  0  0  0  0  0  0  0  0  0  0
  -40.5700 -116.8307  229.2448 H   0  0  0  0  0  0  0  0  0  0  0  0
  -40.3145 -117.3091  222.5233 H   0  0  0  0  0  0  0  0  0  0  0  0
  -37.2818 -115.1645  218.4670 H   0  0  0  0  0  0  0  0  0  0  0  0
  -39.7318 -115.3466  215.4131 H   0  0  0  0  0  0  0  0  0  0  0  0
  -37.9817 -115.3466  215.6354 H   0  0  0  0  0  0  0  0  0  0  0  0
  -39.9710 -117.2487  216.5582 H   0  0  0  0  0  0  0  0  0  0  0  0
  -38.3274 -117.4762  216.3080 H   0  0  0  0  0  0  0  0  0  0  0  0
  -38.0100 -117.4754  218.4959 H   0  0  0  0  0  0  0  0  0  0  0  0
  -39.7071 -117.0418  218.7601 H   0  0  0  0  0  0  0  0  0  0  0  0
  1  2  2  0
  1  4  1  0
  1 14  1  0
  2  3  1  0
  3 15  2  0
  3 18  1  0
  4 16  2  0
  4 17  1  0
  5 14  1  0
  5 17  2  0
  6 19  2  0
  6 20  1  0
  7  8  1  0
  7 24  1  0
  8 25  1  0
  9 24  1  0
  9 25  1  0
 10 28  1  0
 10 29  1  0
 12 11  1  0
 12 13  1  0
 12 14  1  0
 15 16  1  0
 18 19  1  0
 19 23  1  0
 20 21  2  0
 28 20  1  0
 21 22  1  0
 22 23  2  0
 22 24  1  0
 25 26  1  1
 25 27  1  0
 28 31  1  0
 29 30  1  0
 30 31  1  0
  2 32  1  0
  6 33  1  0
  7 34  1  0
  7 35  1  0
  8 36  1  0
  8 37  1  0
  9 38  1  0
  9 39  1  0
 10 40  1  0
 10 41  1  0
 11 42  1  0
 11 43  1  0
 11 44  1  0
 12 45  1  1
 13 46  1  0
 13 47  1  0
 13 48  1  0
 16 49  1  0
 17 50  1  0
 18 51  1  0
 28 52  1  1
 29 53  1  0
 29 54  1  0
 30 55  1  0
 30 56  1  0
 31 57  1  0
 31 58  1  0
M  CHG  1  30   1
M  END
>  <filename_input>  (4) 
7R9N_F97_docked.sdf

>  <pdb_id>  (4) 
7R9N_F97

>  <pose_rank>  (4) 
3

>  <num_atoms_heavy>  (4) 
31

>  <num_torsions>  (4) 
3

>  <pose>  (4) 
[-39.22530447611815, -115.85605595617632, 220.75577289314185, -0.19074072120263097, -0.3536171177936918, 0.47428762815525194, -6.913950655473349, 3.2107273015707194, -1.826366853353907]

>  <energy>  (4) 
-1556.5810971844955

>  <inter_energy>  (4) 
-1557.7994646349102

>  <intra_energy>  (4) 
32.12519994238268

>  <rmsd>  (4) 
1.79145

>  <sdf_rank>  (4) 
0

$$$$

     RDKit          3D

 58 62  0  0  0  0  0  0  0  0999 V2000
  -40.0207 -115.2130  226.1748 C   0  0  0  0  0  0  0  0  0  0  0  0
  -39.7397 -115.0859  224.8151 C   0  0  0  0  0  0  0  0  0  0  0  0
  -39.9032 -116.1953  223.9929 C   0  0  0  0  0  0  0  0  0  0  0  0
  -40.4605 -116.4671  226.6466 C   0  0  0  0  0  0  0  0  0  0  0  0
  -40.3961 -115.0893  228.3937 N   0  0  0  0  0  0  0  0  0  0  0  0
  -39.3096 -115.2705  220.4476 C   0  0  0  0  0  0  0  0  0  0  0  0
  -37.4730 -110.7821  221.3786 C   0  0  0  0  0  0  0  0  0  0  0  0
  -37.1715 -109.7550  222.5043 C   0  0  0  0  0  0  0  0  0  0  0  0
  -37.5203 -111.9191  223.5192 C   0  0  0  0  0  0  0  0  0  0  0  0
  -39.9843 -113.2840  217.6568 C   0  0  0  0  0  0  0  0  0  0  0  0
  -38.1204 -112.8662  226.8805 C   0  0  0  0  0  0  0  0  0  0  0  0
  -39.6029 -112.9811  227.2449 C   0  0  2  0  0  0  0  0  0  0  0  0
  -39.8671 -112.4509  228.6520 C   0  0  0  0  0  0  0  0  0  0  0  0
  -39.9828 -114.3900  227.2526 N   0  0  0  0  0  0  0  0  0  0  0  0
  -40.3346 -117.3505  224.4744 N   0  0  0  0  0  0  0  0  0  0  0  0
  -40.6020 -117.5233  225.7485 C   0  0  0  0  0  0  0  0  0  0  0  0
  -40.6767 -116.3174  228.0755 C   0  0  0  0  0  0  0  0  0  0  0  0
  -39.6710 -116.1760  222.6160 N   0  0  0  0  0  0  0  0  0  0  0  0
  -39.1745 -115.1503  221.8314 C   0  0  0  0  0  0  0  0  0  0  0  0
  -38.8168 -114.2578  219.6506 C   0  0  0  0  0  0  0  0  0  0  0  0
  -38.2089 -113.2257  220.1973 N   0  0  0  0  0  0  0  0  0  0  0  0
  -38.1009 -113.1437  221.5147 C   0  0  0  0  0  0  0  0  0  0  0  0
  -38.5608 -114.0805  222.3206 N   0  0  0  0  0  0  0  0  0  0  0  0
  -37.4546 -112.0789  222.0713 N   0  0  0  0  0  0  0  0  0  0  0  0
  -36.7031 -110.6325  223.7017 C   0  0  2  0  0  0  0  0  0  0  0  0
  -36.9857 -110.0597  224.9427 F   0  0  0  0  0  0  0  0  0  0  0  0
  -35.3426 -110.8858  223.5836 F   0  0  0  0  0  0  0  0  0  0  0  0
  -38.9629 -114.3365  218.1570 C   0  0  1  0  0  0  0  0  0  0  0  0
  -40.4264 -113.9185  216.3159 C   0  0  0  0  0  0  0  0  0  0  0  0
  -40.4529 -115.3736  216.5724 N   0  0  0  0  0  0  0  0  0  0  0  0
  -39.6504 -115.6616  217.7772 C   0  0  0  0  0  0  0  0  0  0  0  0
  -39.3954 -114.1268  224.4009 H   0  0  0  0  0  0  0  0  0  0  0  0
  -39.7970 -116.1509  220.0032 H   0  0  0  0  0  0  0  0  0  0  0  0
  -38.4587 -110.5922  220.9289 H   0  0  0  0  0  0  0  0  0  0  0  0
  -36.7488 -110.7315  220.5522 H   0  0  0  0  0  0  0  0  0  0  0  0
  -36.3775 -109.0590  222.1959 H   0  0  0  0  0  0  0  0  0  0  0  0
  -38.0434 -109.1319  222.7526 H   0  0  0  0  0  0  0  0  0  0  0  0
  -38.5565 -111.7936  223.8663 H   0  0  0  0  0  0  0  0  0  0  0  0
  -37.1471 -112.7816  224.0908 H   0  0  0  0  0  0  0  0  0  0  0  0
  -40.8299 -113.1788  218.3525 H   0  0  0  0  0  0  0  0  0  0  0  0
  -39.5792 -112.2655  217.5656 H   0  0  0  0  0  0  0  0  0  0  0  0
  -37.5192 -112.8196  227.8005 H   0  0  0  0  0  0  0  0  0  0  0  0
  -37.8189 -113.7436  226.2896 H   0  0  0  0  0  0  0  0  0  0  0  0
  -37.9578 -111.9527  226.2896 H   0  0  0  0  0  0  0  0  0  0  0  0
  -40.1755 -112.3997  226.5074 H   0  0  0  0  0  0  0  0  0  0  0  0
  -39.5042 -113.1790  229.3924 H   0  0  0  0  0  0  0  0  0  0  0  0
  -39.3398 -111.4952  228.7888 H   0  0  0  0  0  0  0  0  0  0  0  0
  -40.9476 -112.2964  228.7888 H   0  0  0  0  0  0  0  0  0  0  0  0
  -40.9392 -118.5065  226.1085 H   0  0  0  0  0  0  0  0  0  0  0  0
  -41.0173 -117.1038  228.7651 H   0  0  0  0  0  0  0  0  0  0  0  0
  -39.9013 -117.0460  222.1151 H   0  0  0  0  0  0  0  0  0  0  0  0
  -37.9561 -114.2080  217.7330 H   0  0  0  0  0  0  0  0  0  0  0  0
  -41.4251 -113.5582  216.0283 H   0  0  0  0  0  0  0  0  0  0  0  0
  -39.7477 -113.6564  215.4909 H   0  0  0  0  0  0  0  0  0  0  0  0
  -41.4246 -115.6805  216.7228 H   0  0  0  0  0  0  0  0  0  0  0  0
  -40.0616 -115.8776  215.7638 H   0  0  0  0  0  0  0  0  0  0  0  0
  -38.8978 -116.4338  217.5594 H   0  0  0  0  0  0  0  0  0  0  0  0
  -40.2777 -116.0395  218.5980 H   0  0  0  0  0  0  0  0  0  0  0  0
  1  2  2  0
  1  4  1  0
  1 14  1  0
  2  3  1  0
  3 15  2  0
  3 18  1  0
  4 16  2  0
  4 17  1  0
  5 14  1  0
  5 17  2  0
  6 19  2  0
  6 20  1  0
  7  8  1  0
  7 24  1  0
  8 25  1  0
  9 24  1  0
  9 25  1  0
 10 28  1  0
 10 29  1  0
 12 11  1  0
 12 13  1  0
 12 14  1  0
 15 16  1  0
 18 19  1  0
 19 23  1  0
 20 21  2  0
 28 20  1  0
 21 22  1  0
 22 23  2  0
 22 24  1  0
 25 26  1  1
 25 27  1  0
 28 31  1  0
 29 30  1  0
 30 31  1  0
  2 32  1  0
  6 33  1  0
  7 34  1  0
  7 35  1  0
  8 36  1  0
  8 37  1  0
  9 38  1  0
  9 39  1  0
 10 40  1  0
 10 41  1  0
 11 42  1  0
 11 43  1  0
 11 44  1  0
 12 45  1  6
 13 46  1  0
 13 47  1  0
 13 48  1  0
 16 49  1  0
 17 50  1  0
 18 51  1  0
 28 52  1  6
 29 53  1  0
 29 54  1  0
 30 55  1  0
 30 56  1  0
 31 57  1  0
 31 58  1  0
M  CHG  1  30   1
M  END
>  <filename_input>  (5) 
7R9N_F97_docked.sdf

>  <pdb_id>  (5) 
7R9N_F97

>  <pose_rank>  (5) 
4

>  <num_atoms_heavy>  (5) 
31

>  <num_torsions>  (5) 
3

>  <pose>  (5) 
[-39.3096290390381, -115.2705418628765, 220.447566399681, 6.193304733081527, -1.3563122080259569, 0.728047494438061, 6.320755925150827, 7.3229587675446375, -8.4804275812519]

>  <energy>  (5) 
-1232.458841152207

>  <inter_energy>  (5) 
-1247.5157056049788

>  <intra_energy>  (5) 
23.406072676487618

>  <rmsd>  (5) 
0.96377

>  <sdf_rank>  (5) 
0

$$$$

     RDKit          3D

 58 62  0  0  0  0  0  0  0  0999 V2000
  -40.0569 -115.0761  226.3961 C   0  0  0  0  0  0  0  0  0  0  0  0
  -39.9617 -115.0733  225.0052 C   0  0  0  0  0  0  0  0  0  0  0  0
  -40.1074 -116.2766  224.3235 C   0  0  0  0  0  0  0  0  0  0  0  0
  -40.2992 -116.3062  227.0417 C   0  0  0  0  0  0  0  0  0  0  0  0
  -40.1650 -114.7453  228.6229 N   0  0  0  0  0  0  0  0  0  0  0  0
  -39.5677 -115.8225  220.6741 C   0  0  0  0  0  0  0  0  0  0  0  0
  -39.5346 -110.8846  220.7156 C   0  0  0  0  0  0  0  0  0  0  0  0
  -39.8246 -109.6320  221.5874 C   0  0  0  0  0  0  0  0  0  0  0  0
  -39.6469 -111.5509  223.0438 C   0  0  0  0  0  0  0  0  0  0  0  0
  -38.2384 -116.5562  218.1977 C   0  0  0  0  0  0  0  0  0  0  0  0
  -40.7113 -111.9282  228.0760 C   0  0  0  0  0  0  0  0  0  0  0  0
  -39.7485 -112.7114  227.1796 C   0  0  2  0  0  0  0  0  0  0  0  0
  -40.0143 -112.4258  225.7035 C   0  0  0  0  0  0  0  0  0  0  0  0
  -39.9730 -114.1400  227.3744 N   0  0  0  0  0  0  0  0  0  0  0  0
  -40.3508 -117.4070  224.9679 N   0  0  0  0  0  0  0  0  0  0  0  0
  -40.4382 -117.4631  226.2771 C   0  0  0  0  0  0  0  0  0  0  0  0
  -40.3511 -116.0215  228.4655 C   0  0  0  0  0  0  0  0  0  0  0  0
  -40.0511 -116.3868  222.9325 N   0  0  0  0  0  0  0  0  0  0  0  0
  -39.7674 -115.4118  221.9929 C   0  0  0  0  0  0  0  0  0  0  0  0
  -39.2805 -114.8629  219.7253 C   0  0  0  0  0  0  0  0  0  0  0  0
  -39.1702 -113.5993  220.0785 N   0  0  0  0  0  0  0  0  0  0  0  0
  -39.3688 -113.2454  221.3391 C   0  0  0  0  0  0  0  0  0  0  0  0
  -39.6522 -114.1221  222.2824 N   0  0  0  0  0  0  0  0  0  0  0  0
  -39.2359 -111.9362  221.6989 N   0  0  0  0  0  0  0  0  0  0  0  0
  -39.3520 -110.0448  223.0119 C   0  0  2  0  0  0  0  0  0  0  0  0
  -40.0556 -109.3991  224.0298 F   0  0  0  0  0  0  0  0  0  0  0  0
  -37.9901 -109.8014  223.1348 F   0  0  0  0  0  0  0  0  0  0  0  0
  -39.0820 -115.2597  218.2894 C   0  0  1  0  0  0  0  0  0  0  0  0
  -37.6592 -116.4288  216.7680 C   0  0  0  0  0  0  0  0  0  0  0  0
  -37.3959 -114.9856  216.5899 N   0  0  0  0  0  0  0  0  0  0  0  0
  -38.1716 -114.2305  217.5931 C   0  0  0  0  0  0  0  0  0  0  0  0
  -39.7751 -114.1377  224.4577 H   0  0  0  0  0  0  0  0  0  0  0  0
  -39.6375 -116.8850  220.3979 H   0  0  0  0  0  0  0  0  0  0  0  0
  -40.4132 -111.1525  220.1103 H   0  0  0  0  0  0  0  0  0  0  0  0
  -38.7132 -110.7245  220.0017 H   0  0  0  0  0  0  0  0  0  0  0  0
  -39.2566 -108.7630  221.2238 H   0  0  0  0  0  0  0  0  0  0  0  0
  -40.8837 -109.3358  221.5627 H   0  0  0  0  0  0  0  0  0  0  0  0
  -40.7151 -111.7511  223.2139 H   0  0  0  0  0  0  0  0  0  0  0  0
  -39.1381 -112.0985  223.8508 H   0  0  0  0  0  0  0  0  0  0  0  0
  -37.4421 -116.5749  218.9563 H   0  0  0  0  0  0  0  0  0  0  0  0
  -38.8062 -117.4812  218.3770 H   0  0  0  0  0  0  0  0  0  0  0  0
  -40.4708 -112.1238  229.1314 H   0  0  0  0  0  0  0  0  0  0  0  0
  -40.6107 -110.8523  227.8703 H   0  0  0  0  0  0  0  0  0  0  0  0
  -41.7442 -112.2458  227.8703 H   0  0  0  0  0  0  0  0  0  0  0  0
  -38.7241 -112.4111  227.4449 H   0  0  0  0  0  0  0  0  0  0  0  0
  -40.7612 -111.6233  225.6140 H   0  0  0  0  0  0  0  0  0  0  0  0
  -39.0791 -112.1123  225.2165 H   0  0  0  0  0  0  0  0  0  0  0  0
  -40.3940 -113.3361  225.2165 H   0  0  0  0  0  0  0  0  0  0  0  0
  -40.6219 -118.4279  226.7725 H   0  0  0  0  0  0  0  0  0  0  0  0
  -40.5182 -116.7557  229.2674 H   0  0  0  0  0  0  0  0  0  0  0  0
  -40.2482 -117.3241  222.5535 H   0  0  0  0  0  0  0  0  0  0  0  0
  -40.0840 -115.3550  217.8457 H   0  0  0  0  0  0  0  0  0  0  0  0
  -36.7276 -117.0063  216.6752 H   0  0  0  0  0  0  0  0  0  0  0  0
  -38.3493 -116.8203  216.0060 H   0  0  0  0  0  0  0  0  0  0  0  0
  -36.3910 -114.7992  216.7179 H   0  0  0  0  0  0  0  0  0  0  0  0
  -37.6745 -114.6944  215.6420 H   0  0  0  0  0  0  0  0  0  0  0  0
  -38.7775 -113.4544  217.1027 H   0  0  0  0  0  0  0  0  0  0  0  0
  -37.5127 -113.7235  218.3134 H   0  0  0  0  0  0  0  0  0  0  0  0
  1  2  2  0
  1  4  1  0
  1 14  1  0
  2  3  1  0
  3 15  2  0
  3 18  1  0
  4 16  2  0
  4 17  1  0
  5 14  1  0
  5 17  2  0
  6 19  2  0
  6 20  1  0
  7  8  1  0
  7 24  1  0
  8 25  1  0
  9 24  1  0
  9 25  1  0
 10 28  1  0
 10 29  1  0
 12 11  1  0
 12 13  1  0
 12 14  1  0
 15 16  1  0
 18 19  1  0
 19 23  1  0
 20 21  2  0
 28 20  1  0
 21 22  1  0
 22 23  2  0
 22 24  1  0
 25 26  1  1
 25 27  1  0
 28 31  1  0
 29 30  1  0
 30 31  1  0
  2 32  1  0
  6 33  1  0
  7 34  1  0
  7 35  1  0
  8 36  1  0
  8 37  1  0
  9 38  1  0
  9 39  1  0
 10 40  1  0
 10 41  1  0
 11 42  1  0
 11 43  1  0
 11 44  1  0
 12 45  1  1
 13 46  1  0
 13 47  1  0
 13 48  1  0
 16 49  1  0
 17 50  1  0
 18 51  1  0
 28 52  1  6
 29 53  1  0
 29 54  1  0
 30 55  1  0
 30 56  1  0
 31 57  1  0
 31 58  1  0
M  CHG  1  30   1
M  END
>  <filename_input>  (6) 
7R9N_F97_docked.sdf

>  <pdb_id>  (6) 
7R9N_F97

>  <pose_rank>  (6) 
5

>  <num_atoms_heavy>  (6) 
31

>  <num_torsions>  (6) 
3

>  <pose>  (6) 
[-39.56768228148398, -115.8225374250614, 220.67409643155645, -0.12272371107642255, -0.17500666524421188, 0.37911348585830684, -19.22614016375488, -1.7241869686162379, 7.720471176619755]

>  <energy>  (6) 
-1509.2487741988416

>  <inter_energy>  (6) 
-1575.2037466754948

>  <intra_energy>  (6) 
82.18073230880361

>  <rmsd>  (6) 
1.54532

>  <sdf_rank>  (6) 
0

$$$$

     RDKit          3D

 58 62  0  0  0  0  0  0  0  0999 V2000
  -40.1334 -115.0512  226.2584 C   0  0  0  0  0  0  0  0  0  0  0  0
  -39.9862 -115.1130  224.8735 C   0  0  0  0  0  0  0  0  0  0  0  0
  -40.1098 -116.3463  224.2432 C   0  0  0  0  0  0  0  0  0  0  0  0
  -40.4034 -116.2497  226.9508 C   0  0  0  0  0  0  0  0  0  0  0  0
  -40.3239 -114.6173  228.4619 N   0  0  0  0  0  0  0  0  0  0  0  0
  -40.0905 -114.2728  222.0937 C   0  0  0  0  0  0  0  0  0  0  0  0
  -37.2743 -114.3425  218.0378 C   0  0  0  0  0  0  0  0  0  0  0  0
  -36.3090 -115.2172  217.1916 C   0  0  0  0  0  0  0  0  0  0  0  0
  -37.5471 -116.6651  218.6766 C   0  0  0  0  0  0  0  0  0  0  0  0
  -39.3024 -110.9678  220.4523 C   0  0  0  0  0  0  0  0  0  0  0  0
  -39.1822 -112.0313  228.1735 C   0  0  0  0  0  0  0  0  0  0  0  0
  -39.8475 -112.6530  226.9427 C   0  0  2  0  0  0  0  0  0  0  0  0
  -41.2134 -112.0243  226.6781 C   0  0  0  0  0  0  0  0  0  0  0  0
  -40.0834 -114.0708  227.1949 N   0  0  0  0  0  0  0  0  0  0  0  0
  -40.3805 -117.4453  224.9297 N   0  0  0  0  0  0  0  0  0  0  0  0
  -40.5171 -117.4406  226.2358 C   0  0  0  0  0  0  0  0  0  0  0  0
  -40.5078 -115.8992  228.3568 C   0  0  0  0  0  0  0  0  0  0  0  0
  -40.0017 -116.5210  222.8619 N   0  0  0  0  0  0  0  0  0  0  0  0
  -39.6800 -115.5910  221.8895 C   0  0  0  0  0  0  0  0  0  0  0  0
  -39.7806 -113.3335  221.1318 C   0  0  0  0  0  0  0  0  0  0  0  0
  -39.1404 -113.6953  220.0396 N   0  0  0  0  0  0  0  0  0  0  0  0
  -38.7640 -114.9550  219.8806 C   0  0  0  0  0  0  0  0  0  0  0  0
  -39.0293 -115.8893  220.7724 N   0  0  0  0  0  0  0  0  0  0  0  0
  -38.1160 -115.3239  218.7381 N   0  0  0  0  0  0  0  0  0  0  0  0
  -36.9214 -116.6459  217.2751 C   0  0  2  0  0  0  0  0  0  0  0  0
  -35.9661 -117.6574  217.1650 F   0  0  0  0  0  0  0  0  0  0  0  0
  -37.8938 -116.7891  216.2937 F   0  0  0  0  0  0  0  0  0  0  0  0
  -40.1831 -111.8983  221.3238 C   0  0  1  0  0  0  0  0  0  0  0  0
  -39.4334 -109.6325  221.2240 C   0  0  0  0  0  0  0  0  0  0  0  0
  -39.4687 -110.0177  222.6503 N   0  0  0  0  0  0  0  0  0  0  0  0
  -39.8167 -111.4485  222.7508 C   0  0  0  0  0  0  0  0  0  0  0  0
  -39.7763 -114.2039  224.2907 H   0  0  0  0  0  0  0  0  0  0  0  0
  -40.6474 -113.9897  222.9991 H   0  0  0  0  0  0  0  0  0  0  0  0
  -36.7151 -113.7236  218.7549 H   0  0  0  0  0  0  0  0  0  0  0  0
  -37.8596 -113.6411  217.4251 H   0  0  0  0  0  0  0  0  0  0  0  0
  -36.2760 -114.8665  216.1495 H   0  0  0  0  0  0  0  0  0  0  0  0
  -35.2728 -115.1795  217.5588 H   0  0  0  0  0  0  0  0  0  0  0  0
  -36.7876 -116.8193  219.4573 H   0  0  0  0  0  0  0  0  0  0  0  0
  -38.2718 -117.4761  218.8417 H   0  0  0  0  0  0  0  0  0  0  0  0
  -38.2589 -111.3143  220.4180 H   0  0  0  0  0  0  0  0  0  0  0  0
  -39.6055 -110.9137  219.3962 H   0  0  0  0  0  0  0  0  0  0  0  0
  -39.6321 -112.4517  229.0851 H   0  0  0  0  0  0  0  0  0  0  0  0
  -38.1051 -112.2540  228.1598 H   0  0  0  0  0  0  0  0  0  0  0  0
  -39.3316 -110.9416  228.1598 H   0  0  0  0  0  0  0  0  0  0  0  0
  -39.1818 -112.4884  226.0826 H   0  0  0  0  0  0  0  0  0  0  0  0
  -41.7047 -111.7981  227.6359 H   0  0  0  0  0  0  0  0  0  0  0  0
  -41.0842 -111.0950  226.1038 H   0  0  0  0  0  0  0  0  0  0  0  0
  -41.8353 -112.7268  226.1038 H   0  0  0  0  0  0  0  0  0  0  0  0
  -40.7222 -118.3812  226.7680 H   0  0  0  0  0  0  0  0  0  0  0  0
  -40.7070 -116.5952  229.1850 H   0  0  0  0  0  0  0  0  0  0  0  0
  -40.1873 -117.4746  222.5196 H   0  0  0  0  0  0  0  0  0  0  0  0
  -41.2557 -111.8359  221.0880 H   0  0  0  0  0  0  0  0  0  0  0  0
  -38.5701 -108.9819  221.0204 H   0  0  0  0  0  0  0  0  0  0  0  0
  -40.3296 -109.0687  220.9257 H   0  0  0  0  0  0  0  0  0  0  0  0
  -38.5445 -109.8560  223.0751 H   0  0  0  0  0  0  0  0  0  0  0  0
  -40.1716 -109.4520  223.1472 H   0  0  0  0  0  0  0  0  0  0  0  0
  -40.6734 -111.5869  223.4268 H   0  0  0  0  0  0  0  0  0  0  0  0
  -38.9818 -112.0384  223.1570 H   0  0  0  0  0  0  0  0  0  0  0  0
  1  2  2  0
  1  4  1  0
  1 14  1  0
  2  3  1  0
  3 15  2  0
  3 18  1  0
  4 16  2  0
  4 17  1  0
  5 14  1  0
  5 17  2  0
  6 19  2  0
  6 20  1  0
  7  8  1  0
  7 24  1  0
  8 25  1  0
  9 24  1  0
  9 25  1  0
 10 28  1  0
 10 29  1  0
 12 11  1  0
 12 13  1  0
 12 14  1  0
 15 16  1  0
 18 19  1  0
 19 23  1  0
 20 21  2  0
 28 20  1  0
 21 22  1  0
 22 23  2  0
 22 24  1  0
 25 26  1  1
 25 27  1  0
 28 31  1  0
 29 30  1  0
 30 31  1  0
  2 32  1  0
  6 33  1  0
  7 34  1  0
  7 35  1  0
  8 36  1  0
  8 37  1  0
  9 38  1  0
  9 39  1  0
 10 40  1  0
 10 41  1  0
 11 42  1  0
 11 43  1  0
 11 44  1  0
 12 45  1  6
 13 46  1  0
 13 47  1  0
 13 48  1  0
 16 49  1  0
 17 50  1  0
 18 51  1  0
 28 52  1  6
 29 53  1  0
 29 54  1  0
 30 55  1  0
 30 56  1  0
 31 57  1  0
 31 58  1  0
M  CHG  1  30   1
M  END
>  <filename_input>  (7) 
7R9N_F97_docked.sdf

>  <pdb_id>  (7) 
7R9N_F97

>  <pose_rank>  (7) 
6

>  <num_atoms_heavy>  (7) 
31

>  <num_torsions>  (7) 
3

>  <pose>  (7) 
[-40.09053519326431, -114.27278312598999, 222.09372401375583, -1.1309940089821178, -2.790369182959843, 2.6156716741995574, 2.3607065096239026, -0.4514655676739054, -1.350078804994497]

>  <energy>  (7) 
-1384.1770083459562

>  <inter_energy>  (7) 
-1386.4660654121092

>  <intra_energy>  (7) 
23.99724550818227

>  <rmsd>  (7) 
4.42001

>  <sdf_rank>  (7) 
0

$$$$

     RDKit          3D

 58 62  0  0  0  0  0  0  0  0999 V2000
  -39.8608 -115.1216  226.3449 C   0  0  0  0  0  0  0  0  0  0  0  0
  -39.7693 -115.1681  224.9545 C   0  0  0  0  0  0  0  0  0  0  0  0
  -40.0146 -116.3752  224.3092 C   0  0  0  0  0  0  0  0  0  0  0  0
  -40.2013 -116.3079  227.0271 C   0  0  0  0  0  0  0  0  0  0  0  0
  -39.9359 -114.7166  228.5607 N   0  0  0  0  0  0  0  0  0  0  0  0
  -39.6493 -114.2595  222.2990 C   0  0  0  0  0  0  0  0  0  0  0  0
  -37.6911 -114.5848  217.7773 C   0  0  0  0  0  0  0  0  0  0  0  0
  -37.1291 -115.5722  216.7179 C   0  0  0  0  0  0  0  0  0  0  0  0
  -38.3986 -116.8342  218.3398 C   0  0  0  0  0  0  0  0  0  0  0  0
  -39.2532 -111.6628  223.2168 C   0  0  0  0  0  0  0  0  0  0  0  0
  -37.8448 -112.5899  227.2051 C   0  0  0  0  0  0  0  0  0  0  0  0
  -39.3581 -112.7676  227.0571 C   0  0  2  0  0  0  0  0  0  0  0  0
  -40.1136 -111.9518  228.1033 C   0  0  0  0  0  0  0  0  0  0  0  0
  -39.6982 -114.1666  227.2947 N   0  0  0  0  0  0  0  0  0  0  0  0
  -40.3479 -117.4622  224.9873 N   0  0  0  0  0  0  0  0  0  0  0  0
  -40.4363 -117.4719  226.2975 C   0  0  0  0  0  0  0  0  0  0  0  0
  -40.2261 -115.9775  228.4417 C   0  0  0  0  0  0  0  0  0  0  0  0
  -39.9710 -116.5313  222.9222 N   0  0  0  0  0  0  0  0  0  0  0  0
  -39.6109 -115.6112  221.9537 C   0  0  0  0  0  0  0  0  0  0  0  0
  -39.2964 -113.3289  221.3435 C   0  0  0  0  0  0  0  0  0  0  0  0
  -38.9644 -113.7221  220.1316 N   0  0  0  0  0  0  0  0  0  0  0  0
  -38.9365 -115.0136  219.8400 C   0  0  0  0  0  0  0  0  0  0  0  0
  -39.2580 -115.9429  220.7184 N   0  0  0  0  0  0  0  0  0  0  0  0
  -38.6078 -115.4108  218.5769 N   0  0  0  0  0  0  0  0  0  0  0  0
  -38.0431 -116.8257  216.8465 C   0  0  2  0  0  0  0  0  0  0  0  0
  -37.3943 -118.0128  216.5036 F   0  0  0  0  0  0  0  0  0  0  0  0
  -39.1783 -116.6510  216.0655 F   0  0  0  0  0  0  0  0  0  0  0  0
  -39.3011 -111.8644  221.6812 C   0  0  1  0  0  0  0  0  0  0  0  0
  -39.8693 -110.2488  223.3463 C   0  0  0  0  0  0  0  0  0  0  0  0
  -40.9201 -110.1937  222.3087 N   0  0  0  0  0  0  0  0  0  0  0  0
  -40.6693 -111.2576  221.3170 C   0  0  0  0  0  0  0  0  0  0  0  0
  -39.5082 -114.2677  224.3792 H   0  0  0  0  0  0  0  0  0  0  0  0
  -39.9535 -113.9440  223.3079 H   0  0  0  0  0  0  0  0  0  0  0  0
  -36.8822 -114.1795  218.4030 H   0  0  0  0  0  0  0  0  0  0  0  0
  -38.1885 -113.7142  217.3250 H   0  0  0  0  0  0  0  0  0  0  0  0
  -37.1964 -115.1416  215.7080 H   0  0  0  0  0  0  0  0  0  0  0  0
  -36.0664 -115.8057  216.8795 H   0  0  0  0  0  0  0  0  0  0  0  0
  -37.5736 -117.2298  218.9504 H   0  0  0  0  0  0  0  0  0  0  0  0
  -39.2566 -117.4712  218.6009 H   0  0  0  0  0  0  0  0  0  0  0  0
  -39.8573 -112.4168  223.7427 H   0  0  0  0  0  0  0  0  0  0  0  0
  -38.2501 -111.7632  223.6570 H   0  0  0  0  0  0  0  0  0  0  0  0
  -37.5819 -112.5591  228.2728 H   0  0  0  0  0  0  0  0  0  0  0  0
  -37.3278 -113.4336  226.7245 H   0  0  0  0  0  0  0  0  0  0  0  0
  -37.5372 -111.6495  226.7245 H   0  0  0  0  0  0  0  0  0  0  0  0
  -39.6372 -112.4375  226.0456 H   0  0  0  0  0  0  0  0  0  0  0  0
  -39.8122 -112.2773  229.1099 H   0  0  0  0  0  0  0  0  0  0  0  0
  -39.8776 -110.8849  227.9770 H   0  0  0  0  0  0  0  0  0  0  0  0
  -41.1955 -112.1054  227.9770 H   0  0  0  0  0  0  0  0  0  0  0  0
  -40.6970 -118.4031  226.8217 H   0  0  0  0  0  0  0  0  0  0  0  0
  -40.4506 -116.6712  229.2653 H   0  0  0  0  0  0  0  0  0  0  0  0
  -40.2450 -117.4602  222.5715 H   0  0  0  0  0  0  0  0  0  0  0  0
  -38.4481 -111.4147  221.1520 H   0  0  0  0  0  0  0  0  0  0  0  0
  -40.3054 -110.1071  224.3462 H   0  0  0  0  0  0  0  0  0  0  0  0
  -39.1174 -109.4566  223.2158 H   0  0  0  0  0  0  0  0  0  0  0  0
  -41.8429 -110.3367  222.7432 H   0  0  0  0  0  0  0  0  0  0  0  0
  -40.9048 -109.2740  221.8451 H   0  0  0  0  0  0  0  0  0  0  0  0
  -40.6417 -110.8349  220.3018 H   0  0  0  0  0  0  0  0  0  0  0  0
  -41.4640 -112.0180  221.3325 H   0  0  0  0  0  0  0  0  0  0  0  0
  1  2  2  0
  1  4  1  0
  1 14  1  0
  2  3  1  0
  3 15  2  0
  3 18  1  0
  4 16  2  0
  4 17  1  0
  5 14  1  0
  5 17  2  0
  6 19  2  0
  6 20  1  0
  7  8  1  0
  7 24  1  0
  8 25  1  0
  9 24  1  0
  9 25  1  0
 10 28  1  0
 10 29  1  0
 12 11  1  0
 12 13  1  0
 12 14  1  0
 15 16  1  0
 18 19  1  0
 19 23  1  0
 20 21  2  0
 28 20  1  0
 21 22  1  0
 22 23  2  0
 22 24  1  0
 25 26  1  6
 25 27  1  0
 28 31  1  0
 29 30  1  0
 30 31  1  0
  2 32  1  0
  6 33  1  0
  7 34  1  0
  7 35  1  0
  8 36  1  0
  8 37  1  0
  9 38  1  0
  9 39  1  0
 10 40  1  0
 10 41  1  0
 11 42  1  0
 11 43  1  0
 11 44  1  0
 12 45  1  6
 13 46  1  0
 13 47  1  0
 13 48  1  0
 16 49  1  0
 17 50  1  0
 18 51  1  0
 28 52  1  6
 29 53  1  0
 29 54  1  0
 30 55  1  0
 30 56  1  0
 31 57  1  0
 31 58  1  0
M  CHG  1  30   1
M  END
>  <filename_input>  (8) 
7R9N_F97_docked.sdf

>  <pdb_id>  (8) 
7R9N_F97

>  <pose_rank>  (8) 
7

>  <num_atoms_heavy>  (8) 
31

>  <num_torsions>  (8) 
3

>  <pose>  (8) 
[-39.64934165035723, -114.25953862618901, 222.2990067942308, 0.7834744869880049, 1.78136025810989, -1.7287217350324307, 2.5855238574122876, 0.5247933741523588, 2.505958774595937]

>  <energy>  (8) 
-1373.3124000771072

>  <inter_energy>  (8) 
-1387.4702652170533

>  <intra_energy>  (8) 
29.451649091075545

>  <rmsd>  (8) 
4.70395

>  <sdf_rank>  (8) 
0

$$$$

     RDKit          3D

 58 62  0  0  0  0  0  0  0  0999 V2000
  -39.3487 -115.2378  226.2203 C   0  0  0  0  0  0  0  0  0  0  0  0
  -39.3370 -115.2918  224.8273 C   0  0  0  0  0  0  0  0  0  0  0  0
  -39.8303 -116.4300  224.1990 C   0  0  0  0  0  0  0  0  0  0  0  0
  -39.8651 -116.3464  226.9226 C   0  0  0  0  0  0  0  0  0  0  0  0
  -39.2376 -114.8394  228.4359 N   0  0  0  0  0  0  0  0  0  0  0  0
  -39.4466 -116.1994  220.5070 C   0  0  0  0  0  0  0  0  0  0  0  0
  -38.0018 -111.4786  220.3924 C   0  0  0  0  0  0  0  0  0  0  0  0
  -37.8500 -110.1885  221.2442 C   0  0  0  0  0  0  0  0  0  0  0  0
  -38.1096 -112.0658  222.7420 C   0  0  0  0  0  0  0  0  0  0  0  0
  -37.8424 -116.7854  217.7777 C   0  0  0  0  0  0  0  0  0  0  0  0
  -38.0322 -112.3601  228.2335 C   0  0  0  0  0  0  0  0  0  0  0  0
  -38.3904 -113.0192  226.8990 C   0  0  2  0  0  0  0  0  0  0  0  0
  -39.4542 -112.2153  226.1553 C   0  0  0  0  0  0  0  0  0  0  0  0
  -38.9674 -114.3342  227.1578 N   0  0  0  0  0  0  0  0  0  0  0  0
  -40.3217 -117.4421  224.8964 N   0  0  0  0  0  0  0  0  0  0  0  0
  -40.3446 -117.4435  226.2094 C   0  0  0  0  0  0  0  0  0  0  0  0
  -39.7584 -116.0256  228.3356 C   0  0  0  0  0  0  0  0  0  0  0  0
  -39.8854 -116.5829  222.8120 N   0  0  0  0  0  0  0  0  0  0  0  0
  -39.4126 -115.7380  221.8237 C   0  0  0  0  0  0  0  0  0  0  0  0
  -38.9756 -115.3703  219.5098 C   0  0  0  0  0  0  0  0  0  0  0  0
  -38.4808 -114.1887  219.8142 N   0  0  0  0  0  0  0  0  0  0  0  0
  -38.4667 -113.7826  221.0746 C   0  0  0  0  0  0  0  0  0  0  0  0
  -38.9109 -114.5333  222.0634 N   0  0  0  0  0  0  0  0  0  0  0  0
  -37.9366 -112.5638  221.3824 N   0  0  0  0  0  0  0  0  0  0  0  0
  -37.4005 -110.7081  222.6411 C   0  0  2  0  0  0  0  0  0  0  0  0
  -37.8051 -109.8794  223.6887 F   0  0  0  0  0  0  0  0  0  0  0  0
  -36.0206 -110.8650  222.6528 F   0  0  0  0  0  0  0  0  0  0  0  0
  -39.0163 -115.8189  218.0760 C   0  0  1  0  0  0  0  0  0  0  0  0
  -37.7074 -116.6184  216.2448 C   0  0  0  0  0  0  0  0  0  0  0  0
  -37.9867 -115.1897  215.9903 N   0  0  0  0  0  0  0  0  0  0  0  0
  -38.6965 -114.6262  217.1552 C   0  0  0  0  0  0  0  0  0  0  0  0
  -38.9453 -114.4504  224.2367 H   0  0  0  0  0  0  0  0  0  0  0  0
  -39.8392 -117.1993  220.2701 H   0  0  0  0  0  0  0  0  0  0  0  0
  -38.9665 -111.4878  219.8640 H   0  0  0  0  0  0  0  0  0  0  0  0
  -37.2298 -111.5669  219.6137 H   0  0  0  0  0  0  0  0  0  0  0  0
  -37.0891 -109.5221  220.8119 H   0  0  0  0  0  0  0  0  0  0  0  0
  -38.7788 -109.6010  221.2906 H   0  0  0  0  0  0  0  0  0  0  0  0
  -39.1729 -111.9495  222.9986 H   0  0  0  0  0  0  0  0  0  0  0  0
  -37.7144 -112.7299  223.5248 H   0  0  0  0  0  0  0  0  0  0  0  0
  -36.9241 -116.4794  218.3002 H   0  0  0  0  0  0  0  0  0  0  0  0
  -38.0112 -117.8207  218.1087 H   0  0  0  0  0  0  0  0  0  0  0  0
  -38.3781 -112.9966  229.0613 H   0  0  0  0  0  0  0  0  0  0  0  0
  -36.9415 -112.2339  228.2991 H   0  0  0  0  0  0  0  0  0  0  0  0
  -38.5198 -111.3762  228.2991 H   0  0  0  0  0  0  0  0  0  0  0  0
  -37.4715 -113.0791  226.2972 H   0  0  0  0  0  0  0  0  0  0  0  0
  -40.1126 -111.7176  226.8825 H   0  0  0  0  0  0  0  0  0  0  0  0
  -38.9666 -111.4579  225.5238 H   0  0  0  0  0  0  0  0  0  0  0  0
  -40.0497 -112.8910  225.5238 H   0  0  0  0  0  0  0  0  0  0  0  0
  -40.7442 -118.3149  226.7490 H   0  0  0  0  0  0  0  0  0  0  0  0
  -40.0641 -116.6718  229.1716 H   0  0  0  0  0  0  0  0  0  0  0  0
  -40.3414 -117.4442  222.4785 H   0  0  0  0  0  0  0  0  0  0  0  0
  -40.0073 -116.2674  217.9126 H   0  0  0  0  0  0  0  0  0  0  0  0
  -36.6905 -116.8783  215.9156 H   0  0  0  0  0  0  0  0  0  0  0  0
  -38.3945 -117.2783  215.6949 H   0  0  0  0  0  0  0  0  0  0  0  0
  -37.1006 -114.6843  215.8477 H   0  0  0  0  0  0  0  0  0  0  0  0
  -38.5693 -115.0930  215.1465 H   0  0  0  0  0  0  0  0  0  0  0  0
  -39.6251 -114.1315  216.8342 H   0  0  0  0  0  0  0  0  0  0  0  0
  -38.0861 -113.8709  217.6720 H   0  0  0  0  0  0  0  0  0  0  0  0
  1  2  2  0
  1  4  1  0
  1 14  1  0
  2  3  1  0
  3 15  2  0
  3 18  1  0
  4 16  2  0
  4 17  1  0
  5 14  1  0
  5 17  2  0
  6 19  2  0
  6 20  1  0
  7  8  1  0
  7 24  1  0
  8 25  1  0
  9 24  1  0
  9 25  1  0
 10 28  1  0
 10 29  1  0
 12 11  1  0
 12 13  1  0
 12 14  1  0
 15 16  1  0
 18 19  1  0
 19 23  1  0
 20 21  2  0
 28 20  1  0
 21 22  1  0
 22 23  2  0
 22 24  1  0
 25 26  1  1
 25 27  1  0
 28 31  1  0
 29 30  1  0
 30 31  1  0
  2 32  1  0
  6 33  1  0
  7 34  1  0
  7 35  1  0
  8 36  1  0
  8 37  1  0
  9 38  1  0
  9 39  1  0
 10 40  1  0
 10 41  1  0
 11 42  1  0
 11 43  1  0
 11 44  1  0
 12 45  1  6
 13 46  1  0
 13 47  1  0
 13 48  1  0
 16 49  1  0
 17 50  1  0
 18 51  1  0
 28 52  1  6
 29 53  1  0
 29 54  1  0
 30 55  1  0
 30 56  1  0
 31 57  1  0
 31 58  1  0
M  CHG  1  30   1
M  END
>  <filename_input>  (9) 
7R9N_F97_docked.sdf

>  <pdb_id>  (9) 
7R9N_F97

>  <pose_rank>  (9) 
8

>  <num_atoms_heavy>  (9) 
31

>  <num_torsions>  (9) 
3

>  <pose>  (9) 
[-39.4466115373301, -116.19936998792038, 220.50699950259195, -0.15012748206432955, -0.07280103042360697, 0.09577056526842553, 12.227561144316404, 5.393049084478172, 7.070799372897392]

>  <energy>  (9) 
-1478.6884938787061

>  <inter_energy>  (9) 
-1458.4135687155615

>  <intra_energy>  (9) 
25.807574546252106

>  <rmsd>  (9) 
1.02347

>  <sdf_rank>  (9) 
0

$$$$

     RDKit          3D

 58 62  0  0  0  0  0  0  0  0999 V2000
  -39.6476 -115.1151  226.2130 C   0  0  0  0  0  0  0  0  0  0  0  0
  -39.5124 -115.2663  224.8336 C   0  0  0  0  0  0  0  0  0  0  0  0
  -39.8979 -116.4695  224.2528 C   0  0  0  0  0  0  0  0  0  0  0  0
  -40.1731 -116.1964  226.9502 C   0  0  0  0  0  0  0  0  0  0  0  0
  -39.7474 -114.5568  228.3943 N   0  0  0  0  0  0  0  0  0  0  0  0
  -39.0931 -114.5770  222.1636 C   0  0  0  0  0  0  0  0  0  0  0  0
  -37.2517 -115.4478  217.6650 C   0  0  0  0  0  0  0  0  0  0  0  0
  -36.8871 -116.5656  216.6499 C   0  0  0  0  0  0  0  0  0  0  0  0
  -38.3594 -117.5024  218.3201 C   0  0  0  0  0  0  0  0  0  0  0  0
  -39.4566 -111.7057  222.2942 C   0  0  0  0  0  0  0  0  0  0  0  0
  -38.0441 -112.3077  228.0025 C   0  0  0  0  0  0  0  0  0  0  0  0
  -38.8518 -112.8085  226.8022 C   0  0  2  0  0  0  0  0  0  0  0  0
  -40.0500 -111.9030  226.5279 C   0  0  0  0  0  0  0  0  0  0  0  0
  -39.3899 -114.1297  227.1091 N   0  0  0  0  0  0  0  0  0  0  0  0
  -40.4025 -117.4537  224.9801 N   0  0  0  0  0  0  0  0  0  0  0  0
  -40.5394 -117.3639  226.2831 C   0  0  0  0  0  0  0  0  0  0  0  0
  -40.2041 -115.7720  228.3394 C   0  0  0  0  0  0  0  0  0  0  0  0
  -39.8254 -116.7221  222.8812 N   0  0  0  0  0  0  0  0  0  0  0  0
  -39.3066 -115.9259  221.8758 C   0  0  0  0  0  0  0  0  0  0  0  0
  -38.5793 -113.7685  221.1707 C   0  0  0  0  0  0  0  0  0  0  0  0
  -38.3319 -114.2668  219.9774 N   0  0  0  0  0  0  0  0  0  0  0  0
  -38.5444 -115.5523  219.7406 C   0  0  0  0  0  0  0  0  0  0  0  0
  -39.0273 -116.3686  220.6566 N   0  0  0  0  0  0  0  0  0  0  0  0
  -38.3010 -116.0561  218.4963 N   0  0  0  0  0  0  0  0  0  0  0  0
  -38.0161 -117.6223  216.8288 C   0  0  2  0  0  0  0  0  0  0  0  0
  -37.5992 -118.9221  216.5380 F   0  0  0  0  0  0  0  0  0  0  0  0
  -39.1035 -117.2740  216.0379 F   0  0  0  0  0  0  0  0  0  0  0  0
  -38.3119 -112.3155  221.4462 C   0  0  1  0  0  0  0  0  0  0  0  0
  -39.3194 -110.2060  221.9368 C   0  0  0  0  0  0  0  0  0  0  0  0
  -38.9411 -110.1869  220.5084 N   0  0  0  0  0  0  0  0  0  0  0  0
  -38.4188 -111.5156  220.1341 C   0  0  0  0  0  0  0  0  0  0  0  0
  -39.1088 -114.4498  224.2169 H   0  0  0  0  0  0  0  0  0  0  0  0
  -39.3286 -114.1687  223.1575 H   0  0  0  0  0  0  0  0  0  0  0  0
  -36.3787 -115.1730  218.2753 H   0  0  0  0  0  0  0  0  0  0  0  0
  -37.5822 -114.5201  217.1751 H   0  0  0  0  0  0  0  0  0  0  0  0
  -36.8789 -116.1728  215.6224 H   0  0  0  0  0  0  0  0  0  0  0  0
  -35.8849 -116.9843  216.8240 H   0  0  0  0  0  0  0  0  0  0  0  0
  -37.6184 -118.0174  218.9491 H   0  0  0  0  0  0  0  0  0  0  0  0
  -39.3188 -117.9584  218.6055 H   0  0  0  0  0  0  0  0  0  0  0  0
  -40.4374 -112.1044  221.9957 H   0  0  0  0  0  0  0  0  0  0  0  0
  -39.3906 -111.9241  223.3703 H   0  0  0  0  0  0  0  0  0  0  0  0
  -38.5416 -112.6162  228.9337 H   0  0  0  0  0  0  0  0  0  0  0  0
  -37.0318 -112.7369  227.9680 H   0  0  0  0  0  0  0  0  0  0  0  0
  -37.9784 -111.2102  227.9680 H   0  0  0  0  0  0  0  0  0  0  0  0
  -38.1816 -112.8244  225.9301 H   0  0  0  0  0  0  0  0  0  0  0  0
  -40.4864 -111.5731  227.4822 H   0  0  0  0  0  0  0  0  0  0  0  0
  -39.7219 -111.0251  225.9519 H   0  0  0  0  0  0  0  0  0  0  0  0
  -40.8049 -112.4582  225.9519 H   0  0  0  0  0  0  0  0  0  0  0  0
  -40.9451 -118.2144  226.8507 H   0  0  0  0  0  0  0  0  0  0  0  0
  -40.5521 -116.3725  229.1927 H   0  0  0  0  0  0  0  0  0  0  0  0
  -40.2118 -117.6268  222.5758 H   0  0  0  0  0  0  0  0  0  0  0  0
  -37.3272 -112.2616  221.9335 H   0  0  0  0  0  0  0  0  0  0  0  0
  -40.2747 -109.6827  222.0909 H   0  0  0  0  0  0  0  0  0  0  0  0
  -38.5763 -109.6968  222.5682 H   0  0  0  0  0  0  0  0  0  0  0  0
  -39.7676 -109.9662  219.9347 H   0  0  0  0  0  0  0  0  0  0  0  0
  -38.2187 -109.4703  220.3483 H   0  0  0  0  0  0  0  0  0  0  0  0
  -37.4291 -111.4187  219.6641 H   0  0  0  0  0  0  0  0  0  0  0  0
  -39.0767 -112.0173  219.4092 H   0  0  0  0  0  0  0  0  0  0  0  0
  1  2  2  0
  1  4  1  0
  1 14  1  0
  2  3  1  0
  3 15  2  0
  3 18  1  0
  4 16  2  0
  4 17  1  0
  5 14  1  0
  5 17  2  0
  6 19  2  0
  6 20  1  0
  7  8  1  0
  7 24  1  0
  8 25  1  0
  9 24  1  0
  9 25  1  0
 10 28  1  0
 10 29  1  0
 12 11  1  0
 12 13  1  0
 12 14  1  0
 15 16  1  0
 18 19  1  0
 19 23  1  0
 20 21  2  0
 28 20  1  0
 21 22  1  0
 22 23  2  0
 22 24  1  0
 25 26  1  1
 25 27  1  0
 28 31  1  0
 29 30  1  0
 30 31  1  0
  2 32  1  0
  6 33  1  0
  7 34  1  0
  7 35  1  0
  8 36  1  0
  8 37  1  0
  9 38  1  0
  9 39  1  0
 10 40  1  0
 10 41  1  0
 11 42  1  0
 11 43  1  0
 11 44  1  0
 12 45  1  6
 13 46  1  0
 13 47  1  0
 13 48  1  0
 16 49  1  0
 17 50  1  0
 18 51  1  0
 28 52  1  1
 29 53  1  0
 29 54  1  0
 30 55  1  0
 30 56  1  0
 31 57  1  0
 31 58  1  0
M  CHG  1  30   1
M  END
>  <filename_input>  (10) 
7R9N_F97_docked.sdf

>  <pdb_id>  (10) 
7R9N_F97

>  <pose_rank>  (10) 
9

>  <num_atoms_heavy>  (10) 
31

>  <num_torsions>  (10) 
3

>  <pose>  (10) 
[-39.09312704903291, -114.57704920542338, 222.16363431413112, -1.2554002495732743, -2.2496792572365862, 2.467448278387793, 8.9367951162626, -0.4281427559061838, 1.4565471410669022]

>  <energy>  (10) 
-1291.7118354784309

>  <inter_energy>  (10) 
-1323.6613392274792

>  <intra_energy>  (10) 
30.650942273041156

>  <rmsd>  (10) 
4.72669

>  <sdf_rank>  (10) 
0

$$$$

     RDKit          3D

 58 62  0  0  0  0  0  0  0  0999 V2000
  -40.0102 -115.0715  226.2186 C   0  0  0  0  0  0  0  0  0  0  0  0
  -39.8991 -115.1643  224.8320 C   0  0  0  0  0  0  0  0  0  0  0  0
  -40.0678 -116.4065  224.2302 C   0  0  0  0  0  0  0  0  0  0  0  0
  -40.2914 -116.2492  226.9416 C   0  0  0  0  0  0  0  0  0  0  0  0
  -40.1353 -114.5897  228.4168 N   0  0  0  0  0  0  0  0  0  0  0  0
  -40.0503 -114.3764  222.0403 C   0  0  0  0  0  0  0  0  0  0  0  0
  -37.3449 -114.5972  217.9149 C   0  0  0  0  0  0  0  0  0  0  0  0
  -36.4249 -115.5128  217.0615 C   0  0  0  0  0  0  0  0  0  0  0  0
  -37.6598 -116.8993  218.6067 C   0  0  0  0  0  0  0  0  0  0  0  0
  -38.9337 -111.1079  220.7669 C   0  0  0  0  0  0  0  0  0  0  0  0
  -38.2132 -112.5229  226.3389 C   0  0  0  0  0  0  0  0  0  0  0  0
  -39.6501 -112.6680  226.8467 C   0  0  2  0  0  0  0  0  0  0  0  0
  -39.8503 -111.9112  228.1575 C   0  0  0  0  0  0  0  0  0  0  0  0
  -39.9135 -114.0743  227.1334 N   0  0  0  0  0  0  0  0  0  0  0  0
  -40.3475 -117.4847  224.9453 N   0  0  0  0  0  0  0  0  0  0  0  0
  -40.4513 -117.4509  226.2540 C   0  0  0  0  0  0  0  0  0  0  0  0
  -40.3523 -115.8685  228.3424 C   0  0  0  0  0  0  0  0  0  0  0  0
  -39.9984 -116.6110  222.8505 N   0  0  0  0  0  0  0  0  0  0  0  0
  -39.6790 -115.7085  221.8518 C   0  0  0  0  0  0  0  0  0  0  0  0
  -39.7420 -113.4641  221.0522 C   0  0  0  0  0  0  0  0  0  0  0  0
  -39.1403 -113.8634  219.9512 N   0  0  0  0  0  0  0  0  0  0  0  0
  -38.8005 -115.1353  219.8075 C   0  0  0  0  0  0  0  0  0  0  0  0
  -39.0658 -116.0450  220.7243 N   0  0  0  0  0  0  0  0  0  0  0  0
  -38.1925 -115.5428  218.6562 N   0  0  0  0  0  0  0  0  0  0  0  0
  -37.0711 -116.9232  217.1893 C   0  0  2  0  0  0  0  0  0  0  0  0
  -36.1451 -117.9612  217.0746 F   0  0  0  0  0  0  0  0  0  0  0  0
  -38.0724 -117.0600  216.2365 F   0  0  0  0  0  0  0  0  0  0  0  0
  -40.1026 -112.0156  221.2260 C   0  0  1  0  0  0  0  0  0  0  0  0
  -39.2335 -109.8168  221.5663 C   0  0  0  0  0  0  0  0  0  0  0  0
  -39.7555 -110.2855  222.8670 N   0  0  0  0  0  0  0  0  0  0  0  0
  -40.1982 -111.6866  222.7278 C   0  0  0  0  0  0  0  0  0  0  0  0
  -39.6822 -114.2723  224.2259 H   0  0  0  0  0  0  0  0  0  0  0  0
  -40.5756 -114.0616  222.9541 H   0  0  0  0  0  0  0  0  0  0  0  0
  -36.7514 -113.9794  218.6049 H   0  0  0  0  0  0  0  0  0  0  0  0
  -37.9282 -113.8927  217.3038 H   0  0  0  0  0  0  0  0  0  0  0  0
  -36.4106 -115.1832  216.0122 H   0  0  0  0  0  0  0  0  0  0  0  0
  -35.3787 -115.4949  217.4009 H   0  0  0  0  0  0  0  0  0  0  0  0
  -36.8841 -117.0580  219.3703 H   0  0  0  0  0  0  0  0  0  0  0  0
  -38.4003 -117.6878  218.8066 H   0  0  0  0  0  0  0  0  0  0  0  0
  -37.9580 -111.5356  221.0410 H   0  0  0  0  0  0  0  0  0  0  0  0
  -38.8710 -110.9638  219.6782 H   0  0  0  0  0  0  0  0  0  0  0  0
  -37.5268 -112.4536  227.1956 H   0  0  0  0  0  0  0  0  0  0  0  0
  -37.9499 -113.3990  225.7281 H   0  0  0  0  0  0  0  0  0  0  0  0
  -38.1304 -111.6118  225.7281 H   0  0  0  0  0  0  0  0  0  0  0  0
  -40.3214 -112.2683  226.0723 H   0  0  0  0  0  0  0  0  0  0  0  0
  -39.6707 -112.5902  229.0040 H   0  0  0  0  0  0  0  0  0  0  0  0
  -39.1440 -111.0694  228.2064 H   0  0  0  0  0  0  0  0  0  0  0  0
  -40.8806 -111.5287  228.2064 H   0  0  0  0  0  0  0  0  0  0  0  0
  -40.6654 -118.3754  226.8102 H   0  0  0  0  0  0  0  0  0  0  0  0
  -40.5473 -116.5430  229.1892 H   0  0  0  0  0  0  0  0  0  0  0  0
  -40.2152 -117.5664  222.5323 H   0  0  0  0  0  0  0  0  0  0  0  0
  -41.0336 -111.8513  220.6637 H   0  0  0  0  0  0  0  0  0  0  0  0
  -38.3156 -109.2274  221.7076 H   0  0  0  0  0  0  0  0  0  0  0  0
  -39.9491 -109.1643  221.0445 H   0  0  0  0  0  0  0  0  0  0  0  0
  -39.0134 -110.2265  223.5788 H   0  0  0  0  0  0  0  0  0  0  0  0
  -40.5487 -109.6962  223.1574 H   0  0  0  0  0  0  0  0  0  0  0  0
  -41.2353 -111.7961  223.0777 H   0  0  0  0  0  0  0  0  0  0  0  0
  -39.5772 -112.3667  223.3293 H   0  0  0  0  0  0  0  0  0  0  0  0
  1  2  2  0
  1  4  1  0
  1 14  1  0
  2  3  1  0
  3 15  2  0
  3 18  1  0
  4 16  2  0
  4 17  1  0
  5 14  1  0
  5 17  2  0
  6 19  2  0
  6 20  1  0
  7  8  1  0
  7 24  1  0
  8 25  1  0
  9 24  1  0
  9 25  1  0
 10 28  1  0
 10 29  1  0
 12 11  1  0
 12 13  1  0
 12 14  1  0
 15 16  1  0
 18 19  1  0
 19 23  1  0
 20 21  2  0
 28 20  1  0
 21 22  1  0
 22 23  2  0
 22 24  1  0
 25 26  1  1
 25 27  1  0
 28 31  1  0
 29 30  1  0
 30 31  1  0
  2 32  1  0
  6 33  1  0
  7 34  1  0
  7 35  1  0
  8 36  1  0
  8 37  1  0
  9 38  1  0
  9 39  1  0
 10 40  1  0
 10 41  1  0
 11 42  1  0
 11 43  1  0
 11 44  1  0
 12 45  1  6
 13 46  1  0
 13 47  1  0
 13 48  1  0
 16 49  1  0
 17 50  1  0
 18 51  1  0
 28 52  1  6
 29 53  1  0
 29 54  1  0
 30 55  1  0
 30 56  1  0
 31 57  1  0
 31 58  1  0
M  CHG  1  30   1
M  END
>  <filename_input>  (11) 
7R9N_F97_docked.sdf

>  <pdb_id>  (11) 
7R9N_F97

>  <pose_rank>  (11) 
10

>  <num_atoms_heavy>  (11) 
31

>  <num_torsions>  (11) 
3

>  <pose>  (11) 
[-40.05025183471314, -114.37642829580697, 222.04033206821043, -1.0992434387674215, -2.7344679506523972, 2.6429164218399963, -22.76979623680724, 0.998154819775877, -8.005622775110398]

>  <energy>  (11) 
-1342.3609971915175

>  <inter_energy>  (11) 
-1365.0492662821684

>  <intra_energy>  (11) 
27.179787966393505

>  <rmsd>  (11) 
4.52552

>  <sdf_rank>  (11) 
0

$$$$

     RDKit          3D

 58 62  0  0  0  0  0  0  0  0999 V2000
  -40.1414 -115.1795  226.3659 C   0  0  0  0  0  0  0  0  0  0  0  0
  -39.8947 -115.0770  224.9976 C   0  0  0  0  0  0  0  0  0  0  0  0
  -40.0398 -116.2111  224.2061 C   0  0  0  0  0  0  0  0  0  0  0  0
  -40.5294 -116.4350  226.8776 C   0  0  0  0  0  0  0  0  0  0  0  0
  -40.4717 -115.0132  228.5892 N   0  0  0  0  0  0  0  0  0  0  0  0
  -39.6427 -115.3104  220.6357 C   0  0  0  0  0  0  0  0  0  0  0  0
  -37.6729 -110.8512  221.4243 C   0  0  0  0  0  0  0  0  0  0  0  0
  -37.2661 -109.8324  222.5241 C   0  0  0  0  0  0  0  0  0  0  0  0
  -37.5614 -111.9950  223.5589 C   0  0  0  0  0  0  0  0  0  0  0  0
  -38.8115 -115.6359  217.7168 C   0  0  0  0  0  0  0  0  0  0  0  0
  -40.8300 -112.1780  226.5404 C   0  0  0  0  0  0  0  0  0  0  0  0
  -39.7734 -112.9095  227.3724 C   0  0  2  0  0  0  0  0  0  0  0  0
  -38.3947 -112.8083  226.7244 C   0  0  0  0  0  0  0  0  0  0  0  0
  -40.1068 -114.3293  227.4226 N   0  0  0  0  0  0  0  0  0  0  0  0
  -40.4224 -117.3673  224.7249 N   0  0  0  0  0  0  0  0  0  0  0  0
  -40.6559 -117.5172  226.0085 C   0  0  0  0  0  0  0  0  0  0  0  0
  -40.7188 -116.2571  228.3070 C   0  0  0  0  0  0  0  0  0  0  0  0
  -39.8386 -116.2183  222.8243 N   0  0  0  0  0  0  0  0  0  0  0  0
  -39.3934 -115.1969  222.0042 C   0  0  0  0  0  0  0  0  0  0  0  0
  -39.2022 -114.3018  219.8036 C   0  0  0  0  0  0  0  0  0  0  0  0
  -38.5372 -113.2802  220.3012 N   0  0  0  0  0  0  0  0  0  0  0  0
  -38.3210 -113.2043  221.6056 C   0  0  0  0  0  0  0  0  0  0  0  0
  -38.7267 -114.1375  222.4441 N   0  0  0  0  0  0  0  0  0  0  0  0
  -37.6164 -112.1506  222.1101 N   0  0  0  0  0  0  0  0  0  0  0  0
  -36.7140 -110.7205  223.6772 C   0  0  2  0  0  0  0  0  0  0  0  0
  -36.8862 -110.1482  224.9384 F   0  0  0  0  0  0  0  0  0  0  0  0
  -35.3714 -110.9923  223.4478 F   0  0  0  0  0  0  0  0  0  0  0  0
  -39.4709 -114.3732  218.3267 C   0  0  1  0  0  0  0  0  0  0  0  0
  -38.6691 -115.2065  216.2366 C   0  0  0  0  0  0  0  0  0  0  0  0
  -38.3413 -113.7664  216.2865 N   0  0  0  0  0  0  0  0  0  0  0  0
  -38.7168 -113.2361  217.6117 C   0  0  0  0  0  0  0  0  0  0  0  0
  -39.5911 -114.1178  224.5528 H   0  0  0  0  0  0  0  0  0  0  0  0
  -40.1771 -116.1823  220.2305 H   0  0  0  0  0  0  0  0  0  0  0  0
  -38.6893 -110.6461  221.0570 H   0  0  0  0  0  0  0  0  0  0  0  0
  -37.0180 -110.8077  220.5416 H   0  0  0  0  0  0  0  0  0  0  0  0
  -36.4902 -109.1464  222.1535 H   0  0  0  0  0  0  0  0  0  0  0  0
  -38.1059 -109.1981  222.8442 H   0  0  0  0  0  0  0  0  0  0  0  0
  -38.5640 -111.8563  223.9898 H   0  0  0  0  0  0  0  0  0  0  0  0
  -37.1550 -112.8646  224.0961 H   0  0  0  0  0  0  0  0  0  0  0  0
  -37.8324 -115.8415  218.1741 H   0  0  0  0  0  0  0  0  0  0  0  0
  -39.3821 -116.5641  217.8677 H   0  0  0  0  0  0  0  0  0  0  0  0
  -41.5465 -111.6820  227.2117 H   0  0  0  0  0  0  0  0  0  0  0  0
  -40.3401 -111.4248  225.9059 H   0  0  0  0  0  0  0  0  0  0  0  0
  -41.3626 -112.9017  225.9059 H   0  0  0  0  0  0  0  0  0  0  0  0
  -39.7567 -112.4504  228.3719 H   0  0  0  0  0  0  0  0  0  0  0  0
  -37.6246 -112.7518  227.5079 H   0  0  0  0  0  0  0  0  0  0  0  0
  -38.2173 -113.6958  226.0993 H   0  0  0  0  0  0  0  0  0  0  0  0
  -38.3489 -111.9044  226.0993 H   0  0  0  0  0  0  0  0  0  0  0  0
  -40.9527 -118.5015  226.3996 H   0  0  0  0  0  0  0  0  0  0  0  0
  -41.0182 -117.0368  229.0229 H   0  0  0  0  0  0  0  0  0  0  0  0
  -40.0513 -117.1074  222.3497 H   0  0  0  0  0  0  0  0  0  0  0  0
  -40.5634 -114.3440  218.2018 H   0  0  0  0  0  0  0  0  0  0  0  0
  -37.8617 -115.7702  215.7464 H   0  0  0  0  0  0  0  0  0  0  0  0
  -39.5849 -115.4023  215.6594 H   0  0  0  0  0  0  0  0  0  0  0  0
  -37.3307 -113.6365  216.1359 H   0  0  0  0  0  0  0  0  0  0  0  0
  -38.8589 -113.2650  215.5506 H   0  0  0  0  0  0  0  0  0  0  0  0
  -39.3679 -112.3564  217.5008 H   0  0  0  0  0  0  0  0  0  0  0  0
  -37.8326 -112.9176  218.1833 H   0  0  0  0  0  0  0  0  0  0  0  0
  1  2  2  0
  1  4  1  0
  1 14  1  0
  2  3  1  0
  3 15  2  0
  3 18  1  0
  4 16  2  0
  4 17  1  0
  5 14  1  0
  5 17  2  0
  6 19  2  0
  6 20  1  0
  7  8  1  0
  7 24  1  0
  8 25  1  0
  9 24  1  0
  9 25  1  0
 10 28  1  0
 10 29  1  0
 12 11  1  0
 12 13  1  0
 12 14  1  0
 15 16  1  0
 18 19  1  0
 19 23  1  0
 20 21  2  0
 28 20  1  0
 21 22  1  0
 22 23  2  0
 22 24  1  0
 25 26  1  1
 25 27  1  0
 28 31  1  0
 29 30  1  0
 30 31  1  0
  2 32  1  0
  6 33  1  0
  7 34  1  0
  7 35  1  0
  8 36  1  0
  8 37  1  0
  9 38  1  0
  9 39  1  0
 10 40  1  0
 10 41  1  0
 11 42  1  0
 11 43  1  0
 11 44  1  0
 12 45  1  1
 13 46  1  0
 13 47  1  0
 13 48  1  0
 16 49  1  0
 17 50  1  0
 18 51  1  0
 28 52  1  1
 29 53  1  0
 29 54  1  0
 30 55  1  0
 30 56  1  0
 31 57  1  0
 31 58  1  0
M  CHG  1  30   1
M  END
>  <filename_input>  (12) 
7R9N_F97_docked.sdf

>  <pdb_id>  (12) 
7R9N_F97

>  <pose_rank>  (12) 
11

>  <num_atoms_heavy>  (12) 
31

>  <num_torsions>  (12) 
3

>  <pose>  (12) 
[-39.64270032775092, -115.3103711608755, 220.63569512615842, 0.09884425726999388, 0.06002947323659202, -0.006725147444717902, 12.68412286716246, 3.314541821831177, 7.394411550899266]

>  <energy>  (12) 
-1297.6178400210463

>  <inter_energy>  (12) 
-1358.8013340964048

>  <intra_energy>  (12) 
36.35171956459595

>  <rmsd>  (12) 
0.61492

>  <sdf_rank>  (12) 
0

$$$$

     RDKit          3D

 58 62  0  0  0  0  0  0  0  0999 V2000
  -40.0494 -115.1069  226.3361 C   0  0  0  0  0  0  0  0  0  0  0  0
  -39.8368 -115.1127  224.9583 C   0  0  0  0  0  0  0  0  0  0  0  0
  -40.0018 -116.3050  224.2621 C   0  0  0  0  0  0  0  0  0  0  0  0
  -40.4247 -116.3176  226.9542 C   0  0  0  0  0  0  0  0  0  0  0  0
  -40.3241 -114.7660  228.5470 N   0  0  0  0  0  0  0  0  0  0  0  0
  -38.8885 -115.9182  220.7583 C   0  0  0  0  0  0  0  0  0  0  0  0
  -39.1944 -110.9956  220.5119 C   0  0  0  0  0  0  0  0  0  0  0  0
  -39.7581 -109.7333  221.2204 C   0  0  0  0  0  0  0  0  0  0  0  0
  -39.7897 -111.5680  222.7912 C   0  0  0  0  0  0  0  0  0  0  0  0
  -39.0107 -115.3488  217.4249 C   0  0  0  0  0  0  0  0  0  0  0  0
  -40.5487 -112.1709  226.0597 C   0  0  0  0  0  0  0  0  0  0  0  0
  -39.6560 -112.7658  227.1519 C   0  0  2  0  0  0  0  0  0  0  0  0
  -38.1838 -112.7100  226.7514 C   0  0  0  0  0  0  0  0  0  0  0  0
  -39.9883 -114.1765  227.3216 N   0  0  0  0  0  0  0  0  0  0  0  0
  -40.3716 -117.4162  224.8793 N   0  0  0  0  0  0  0  0  0  0  0  0
  -40.5730 -117.4644  226.1762 C   0  0  0  0  0  0  0  0  0  0  0  0
  -40.5785 -116.0277  228.3696 C   0  0  0  0  0  0  0  0  0  0  0  0
  -39.8352 -116.4211  222.8805 N   0  0  0  0  0  0  0  0  0  0  0  0
  -39.4104 -115.4681  221.9720 C   0  0  0  0  0  0  0  0  0  0  0  0
  -38.4572 -114.9807  219.8426 C   0  0  0  0  0  0  0  0  0  0  0  0
  -38.5147 -113.6983  220.1356 N   0  0  0  0  0  0  0  0  0  0  0  0
  -39.0184 -113.3073  221.2963 C   0  0  0  0  0  0  0  0  0  0  0  0
  -39.4503 -114.1621  222.2025 N   0  0  0  0  0  0  0  0  0  0  0  0
  -39.0583 -111.9774  221.5980 N   0  0  0  0  0  0  0  0  0  0  0  0
  -39.5961 -110.0463  222.7366 C   0  0  2  0  0  0  0  0  0  0  0  0
  -40.5545 -109.4145  223.5306 F   0  0  0  0  0  0  0  0  0  0  0  0
  -38.3174 -109.6919  223.1468 F   0  0  0  0  0  0  0  0  0  0  0  0
  -37.9108 -115.4220  218.5140 C   0  0  1  0  0  0  0  0  0  0  0  0
  -38.4690 -116.3665  216.3921 C   0  0  0  0  0  0  0  0  0  0  0  0
  -37.8564 -117.4414  217.2004 N   0  0  0  0  0  0  0  0  0  0  0  0
  -37.6011 -116.9302  218.5612 C   0  0  0  0  0  0  0  0  0  0  0  0
  -39.5443 -114.1920  224.4321 H   0  0  0  0  0  0  0  0  0  0  0  0
  -38.8228 -116.9938  220.5374 H   0  0  0  0  0  0  0  0  0  0  0  0
  -39.8922 -111.3572  219.7423 H   0  0  0  0  0  0  0  0  0  0  0  0
  -38.2445 -110.8026  219.9921 H   0  0  0  0  0  0  0  0  0  0  0  0
  -39.1814 -108.8389  220.9423 H   0  0  0  0  0  0  0  0  0  0  0  0
  -40.8010 -109.5223  220.9414 H   0  0  0  0  0  0  0  0  0  0  0  0
  -40.8528 -111.8437  222.7293 H   0  0  0  0  0  0  0  0  0  0  0  0
  -39.4429 -112.0389  223.7229 H   0  0  0  0  0  0  0  0  0  0  0  0
  -39.9908 -115.6555  217.8190 H   0  0  0  0  0  0  0  0  0  0  0  0
  -39.1837 -114.3403  217.0212 H   0  0  0  0  0  0  0  0  0  0  0  0
  -41.3782 -111.6180  226.5249 H   0  0  0  0  0  0  0  0  0  0  0  0
  -39.9566 -111.4862  225.4348 H   0  0  0  0  0  0  0  0  0  0  0  0
  -40.9528 -112.9809  225.4348 H   0  0  0  0  0  0  0  0  0  0  0  0
  -39.8204 -112.1860  228.0721 H   0  0  0  0  0  0  0  0  0  0  0  0
  -37.5584 -112.6863  227.6560 H   0  0  0  0  0  0  0  0  0  0  0  0
  -37.9322 -113.5993  226.1548 H   0  0  0  0  0  0  0  0  0  0  0  0
  -38.0002 -111.8043  226.1548 H   0  0  0  0  0  0  0  0  0  0  0  0
  -40.8602 -118.4143  226.6506 H   0  0  0  0  0  0  0  0  0  0  0  0
  -40.8601 -116.7482  229.1516 H   0  0  0  0  0  0  0  0  0  0  0  0
  -40.0597 -117.3442  222.4826 H   0  0  0  0  0  0  0  0  0  0  0  0
  -37.0396 -114.7847  218.3023 H   0  0  0  0  0  0  0  0  0  0  0  0
  -39.2882 -116.7652  215.7758 H   0  0  0  0  0  0  0  0  0  0  0  0
  -37.7481 -115.9083  215.6991 H   0  0  0  0  0  0  0  0  0  0  0  0
  -38.4974 -118.2462  217.2480 H   0  0  0  0  0  0  0  0  0  0  0  0
  -36.9707 -117.7411  216.7684 H   0  0  0  0  0  0  0  0  0  0  0  0
  -36.5501 -117.0959  218.8407 H   0  0  0  0  0  0  0  0  0  0  0  0
  -38.2226 -117.4457  219.3082 H   0  0  0  0  0  0  0  0  0  0  0  0
  1  2  2  0
  1  4  1  0
  1 14  1  0
  2  3  1  0
  3 15  2  0
  3 18  1  0
  4 16  2  0
  4 17  1  0
  5 14  1  0
  5 17  2  0
  6 19  2  0
  6 20  1  0
  7  8  1  0
  7 24  1  0
  8 25  1  0
  9 24  1  0
  9 25  1  0
 10 28  1  0
 10 29  1  0
 12 11  1  0
 12 13  1  0
 12 14  1  0
 15 16  1  0
 18 19  1  0
 19 23  1  0
 20 21  2  0
 28 20  1  0
 21 22  1  0
 22 23  2  0
 22 24  1  0
 25 26  1  1
 25 27  1  0
 28 31  1  0
 29 30  1  0
 30 31  1  0
  2 32  1  0
  6 33  1  0
  7 34  1  0
  7 35  1  0
  8 36  1  0
  8 37  1  0
  9 38  1  0
  9 39  1  0
 10 40  1  0
 10 41  1  0
 11 42  1  0
 11 43  1  0
 11 44  1  0
 12 45  1  1
 13 46  1  0
 13 47  1  0
 13 48  1  0
 16 49  1  0
 17 50  1  0
 18 51  1  0
 28 52  1  6
 29 53  1  0
 29 54  1  0
 30 55  1  0
 30 56  1  0
 31 57  1  0
 31 58  1  0
M  CHG  1  30   1
M  END
>  <filename_input>  (13) 
7R9N_F97_docked.sdf

>  <pdb_id>  (13) 
7R9N_F97

>  <pose_rank>  (13) 
12

>  <num_atoms_heavy>  (13) 
31

>  <num_torsions>  (13) 
3

>  <pose>  (13) 
[-38.88852836164705, -115.91821527078285, 220.7583457861259, -0.2112385951695652, -0.39588662025157884, 0.44245788575648215, -6.865651925671834, 3.103713223342351, -2.416870772518829]

>  <energy>  (13) 
-1423.3488460418484

>  <inter_energy>  (13) 
-1457.8937645086903

>  <intra_energy>  (13) 
36.19601408615914

>  <rmsd>  (13) 
1.78788

>  <sdf_rank>  (13) 
0

$$$$

     RDKit          3D

 58 62  0  0  0  0  0  0  0  0999 V2000
  -39.9091 -115.0768  226.3726 C   0  0  0  0  0  0  0  0  0  0  0  0
  -39.7971 -115.1314  224.9840 C   0  0  0  0  0  0  0  0  0  0  0  0
  -40.0670 -116.3334  224.3390 C   0  0  0  0  0  0  0  0  0  0  0  0
  -40.2943 -116.2502  227.0534 C   0  0  0  0  0  0  0  0  0  0  0  0
  -40.0072 -114.6613  228.5856 N   0  0  0  0  0  0  0  0  0  0  0  0
  -39.1552 -116.1009  220.7688 C   0  0  0  0  0  0  0  0  0  0  0  0
  -39.3541 -111.1853  220.3404 C   0  0  0  0  0  0  0  0  0  0  0  0
  -39.8510 -109.8821  221.0244 C   0  0  0  0  0  0  0  0  0  0  0  0
  -39.8481 -111.6529  222.6673 C   0  0  0  0  0  0  0  0  0  0  0  0
  -39.2240 -115.2285  217.3345 C   0  0  0  0  0  0  0  0  0  0  0  0
  -40.5748 -111.9544  226.6017 C   0  0  0  0  0  0  0  0  0  0  0  0
  -39.3499 -112.7356  227.0846 C   0  0  2  0  0  0  0  0  0  0  0  0
  -38.2575 -112.7618  226.0183 C   0  0  0  0  0  0  0  0  0  0  0  0
  -39.7339 -114.1232  227.3216 N   0  0  0  0  0  0  0  0  0  0  0  0
  -40.4422 -117.4076  225.0155 N   0  0  0  0  0  0  0  0  0  0  0  0
  -40.5514 -117.4097  226.3242 C   0  0  0  0  0  0  0  0  0  0  0  0
  -40.3318 -115.9137  228.4663 C   0  0  0  0  0  0  0  0  0  0  0  0
  -40.0062 -116.4960  222.9534 N   0  0  0  0  0  0  0  0  0  0  0  0
  -39.6046 -115.5905  221.9876 C   0  0  0  0  0  0  0  0  0  0  0  0
  -38.7478 -115.2112  219.7961 C   0  0  0  0  0  0  0  0  0  0  0  0
  -38.7595 -113.9174  220.0399 N   0  0  0  0  0  0  0  0  0  0  0  0
  -39.1949 -113.4685  221.2073 C   0  0  0  0  0  0  0  0  0  0  0  0
  -39.6013 -114.2759  222.1672 N   0  0  0  0  0  0  0  0  0  0  0  0
  -39.1875 -112.1273  221.4570 N   0  0  0  0  0  0  0  0  0  0  0  0
  -39.6208 -110.1400  222.5422 C   0  0  2  0  0  0  0  0  0  0  0  0
  -40.5227 -109.4530  223.3563 F   0  0  0  0  0  0  0  0  0  0  0  0
  -38.3149 -109.8034  222.8746 F   0  0  0  0  0  0  0  0  0  0  0  0
  -38.2795 -115.7180  218.4610 C   0  0  1  0  0  0  0  0  0  0  0  0
  -38.9616 -116.2977  216.2464 C   0  0  0  0  0  0  0  0  0  0  0  0
  -38.7746 -117.5611  216.9899 N   0  0  0  0  0  0  0  0  0  0  0  0
  -38.4641 -117.2460  218.3980 C   0  0  0  0  0  0  0  0  0  0  0  0
  -39.5011 -114.2410  224.4098 H   0  0  0  0  0  0  0  0  0  0  0  0
  -39.1266 -117.1856  220.5882 H   0  0  0  0  0  0  0  0  0  0  0  0
  -40.0981 -111.5582  219.6211 H   0  0  0  0  0  0  0  0  0  0  0  0
  -38.4270 -111.0374  219.7672 H   0  0  0  0  0  0  0  0  0  0  0  0
  -39.2674 -109.0145  220.6827 H   0  0  0  0  0  0  0  0  0  0  0  0
  -40.9012 -109.6549  220.7888 H   0  0  0  0  0  0  0  0  0  0  0  0
  -40.9193 -111.9029  222.6688 H   0  0  0  0  0  0  0  0  0  0  0  0
  -39.4665 -112.0961  223.5990 H   0  0  0  0  0  0  0  0  0  0  0  0
  -40.2752 -115.2311  217.6586 H   0  0  0  0  0  0  0  0  0  0  0  0
  -39.0431 -114.1939  217.0076 H   0  0  0  0  0  0  0  0  0  0  0  0
  -41.1440 -111.5914  227.4702 H   0  0  0  0  0  0  0  0  0  0  0  0
  -40.2473 -111.0980  225.9939 H   0  0  0  0  0  0  0  0  0  0  0  0
  -41.2132 -112.6125  225.9939 H   0  0  0  0  0  0  0  0  0  0  0  0
  -38.9775 -112.2453  227.9962 H   0  0  0  0  0  0  0  0  0  0  0  0
  -37.2711 -112.7854  226.5044 H   0  0  0  0  0  0  0  0  0  0  0  0
  -38.3788 -113.6573  225.3911 H   0  0  0  0  0  0  0  0  0  0  0  0
  -38.3357 -111.8615  225.3911 H   0  0  0  0  0  0  0  0  0  0  0  0
  -40.8471 -118.3310  226.8473 H   0  0  0  0  0  0  0  0  0  0  0  0
  -40.5891 -116.5975  229.2886 H   0  0  0  0  0  0  0  0  0  0  0  0
  -40.3014 -117.4179  222.6016 H   0  0  0  0  0  0  0  0  0  0  0  0
  -37.2397 -115.3796  218.3408 H   0  0  0  0  0  0  0  0  0  0  0  0
  -39.8210 -116.3741  215.5641 H   0  0  0  0  0  0  0  0  0  0  0  0
  -38.0879 -116.0501  215.6257 H   0  0  0  0  0  0  0  0  0  0  0  0
  -39.6380 -118.1208  216.9432 H   0  0  0  0  0  0  0  0  0  0  0  0
  -38.0011 -118.0994  216.5741 H   0  0  0  0  0  0  0  0  0  0  0  0
  -37.5401 -117.7557  218.7088 H   0  0  0  0  0  0  0  0  0  0  0  0
  -39.2653 -117.5829  219.0721 H   0  0  0  0  0  0  0  0  0  0  0  0
  1  2  2  0
  1  4  1  0
  1 14  1  0
  2  3  1  0
  3 15  2  0
  3 18  1  0
  4 16  2  0
  4 17  1  0
  5 14  1  0
  5 17  2  0
  6 19  2  0
  6 20  1  0
  7  8  1  0
  7 24  1  0
  8 25  1  0
  9 24  1  0
  9 25  1  0
 10 28  1  0
 10 29  1  0
 12 11  1  0
 12 13  1  0
 12 14  1  0
 15 16  1  0
 18 19  1  0
 19 23  1  0
 20 21  2  0
 28 20  1  0
 21 22  1  0
 22 23  2  0
 22 24  1  0
 25 26  1  1
 25 27  1  0
 28 31  1  0
 29 30  1  0
 30 31  1  0
  2 32  1  0
  6 33  1  0
  7 34  1  0
  7 35  1  0
  8 36  1  0
  8 37  1  0
  9 38  1  0
  9 39  1  0
 10 40  1  0
 10 41  1  0
 11 42  1  0
 11 43  1  0
 11 44  1  0
 12 45  1  1
 13 46  1  0
 13 47  1  0
 13 48  1  0
 16 49  1  0
 17 50  1  0
 18 51  1  0
 28 52  1  6
 29 53  1  0
 29 54  1  0
 30 55  1  0
 30 56  1  0
 31 57  1  0
 31 58  1  0
M  CHG  1  30   1
M  END
>  <filename_input>  (14) 
7R9N_F97_docked.sdf

>  <pdb_id>  (14) 
7R9N_F97

>  <pose_rank>  (14) 
13

>  <num_atoms_heavy>  (14) 
31

>  <num_torsions>  (14) 
3

>  <pose>  (14) 
[-39.15521209406832, -116.10087161702862, 220.76883890661, -0.24291503682916457, -0.3357078975092138, 0.43023724274260644, -6.898463431669329, 3.5587406630898113, -2.0808715480643727]

>  <energy>  (14) 
-1503.6816187912407

>  <inter_energy>  (14) 
-1521.1630479481141

>  <intra_energy>  (14) 
36.30717008693179

>  <rmsd>  (14) 
1.80388

>  <sdf_rank>  (14) 
0

$$$$

     RDKit          3D

 58 62  0  0  0  0  0  0  0  0999 V2000
  -39.7973 -115.1536  226.5130 C   0  0  0  0  0  0  0  0  0  0  0  0
  -39.5291 -115.1487  225.1448 C   0  0  0  0  0  0  0  0  0  0  0  0
  -39.7434 -116.3147  224.4182 C   0  0  0  0  0  0  0  0  0  0  0  0
  -40.2765 -116.3476  227.0905 C   0  0  0  0  0  0  0  0  0  0  0  0
  -40.1396 -114.8350  228.7177 N   0  0  0  0  0  0  0  0  0  0  0  0
  -38.7237 -115.8901  220.8677 C   0  0  0  0  0  0  0  0  0  0  0  0
  -37.9777 -111.0131  221.0790 C   0  0  0  0  0  0  0  0  0  0  0  0
  -38.1760 -109.7472  221.9571 C   0  0  0  0  0  0  0  0  0  0  0  0
  -38.4397 -111.6968  223.3586 C   0  0  0  0  0  0  0  0  0  0  0  0
  -38.7264 -114.4962  217.5821 C   0  0  0  0  0  0  0  0  0  0  0  0
  -39.8085 -112.2929  226.0695 C   0  0  0  0  0  0  0  0  0  0  0  0
  -39.2846 -112.8589  227.3920 C   0  0  2  0  0  0  0  0  0  0  0  0
  -37.7582 -112.8723  227.4194 C   0  0  0  0  0  0  0  0  0  0  0  0
  -39.7156 -114.2472  227.5191 N   0  0  0  0  0  0  0  0  0  0  0  0
  -40.2105 -117.4097  224.9971 N   0  0  0  0  0  0  0  0  0  0  0  0
  -40.4678 -117.4677  226.2836 C   0  0  0  0  0  0  0  0  0  0  0  0
  -40.4689 -116.0736  228.5043 C   0  0  0  0  0  0  0  0  0  0  0  0
  -39.5282 -116.4167  223.0422 N   0  0  0  0  0  0  0  0  0  0  0  0
  -39.0046 -115.4779  222.1712 C   0  0  0  0  0  0  0  0  0  0  0  0
  -38.1980 -114.9669  219.9875 C   0  0  0  0  0  0  0  0  0  0  0  0
  -37.9444 -113.7401  220.3927 N   0  0  0  0  0  0  0  0  0  0  0  0
  -38.2262 -113.3832  221.6366 C   0  0  0  0  0  0  0  0  0  0  0  0
  -38.7355 -114.2249  222.5145 N   0  0  0  0  0  0  0  0  0  0  0  0
  -37.9444 -112.1148  222.0523 N   0  0  0  0  0  0  0  0  0  0  0  0
  -37.9272 -110.2508  223.4089 C   0  0  2  0  0  0  0  0  0  0  0  0
  -38.6364 -109.5261  224.3679 F   0  0  0  0  0  0  0  0  0  0  0  0
  -36.5660 -110.2141  223.6829 F   0  0  0  0  0  0  0  0  0  0  0  0
  -37.9034 -115.3631  218.5680 C   0  0  1  0  0  0  0  0  0  0  0  0
  -38.7638 -115.4195  216.3404 C   0  0  0  0  0  0  0  0  0  0  0  0
  -38.8754 -116.7885  216.8858 N   0  0  0  0  0  0  0  0  0  0  0  0
  -38.4609 -116.7743  218.3023 C   0  0  0  0  0  0  0  0  0  0  0  0
  -39.1553 -114.2402  224.6499 H   0  0  0  0  0  0  0  0  0  0  0  0
  -38.9167 -116.9254  220.5501 H   0  0  0  0  0  0  0  0  0  0  0  0
  -38.8143 -111.1370  220.3757 H   0  0  0  0  0  0  0  0  0  0  0  0
  -37.0686 -110.9639  220.4617 H   0  0  0  0  0  0  0  0  0  0  0  0
  -37.4514 -108.9656  221.6851 H   0  0  0  0  0  0  0  0  0  0  0  0
  -39.1717 -109.2969  221.8307 H   0  0  0  0  0  0  0  0  0  0  0  0
  -39.5377 -111.7395  223.4081 H   0  0  0  0  0  0  0  0  0  0  0  0
  -38.1073 -112.3280  224.1959 H   0  0  0  0  0  0  0  0  0  0  0  0
  -39.7371 -114.2952  217.9670 H   0  0  0  0  0  0  0  0  0  0  0  0
  -38.3042 -113.4981  217.3933 H   0  0  0  0  0  0  0  0  0  0  0  0
  -40.5426 -111.4999  226.2752 H   0  0  0  0  0  0  0  0  0  0  0  0
  -38.9706 -111.8760  225.4916 H   0  0  0  0  0  0  0  0  0  0  0  0
  -40.2888 -113.0962  225.4916 H   0  0  0  0  0  0  0  0  0  0  0  0
  -39.6724 -112.2267  228.2044 H   0  0  0  0  0  0  0  0  0  0  0  0
  -37.4102 -112.8754  228.4629 H   0  0  0  0  0  0  0  0  0  0  0  0
  -37.3902 -113.7737  226.9075 H   0  0  0  0  0  0  0  0  0  0  0  0
  -37.3744 -111.9775  226.9075 H   0  0  0  0  0  0  0  0  0  0  0  0
  -40.8361 -118.4048  226.7264 H   0  0  0  0  0  0  0  0  0  0  0  0
  -40.8291 -116.7876  229.2595 H   0  0  0  0  0  0  0  0  0  0  0  0
  -39.7964 -117.3155  222.6167 H   0  0  0  0  0  0  0  0  0  0  0  0
  -36.8157 -115.2702  218.4325 H   0  0  0  0  0  0  0  0  0  0  0  0
  -39.6326 -115.1830  215.7085 H   0  0  0  0  0  0  0  0  0  0  0  0
  -37.8722 -115.2980  215.7077 H   0  0  0  0  0  0  0  0  0  0  0  0
  -39.8511 -117.1106  216.8143 H   0  0  0  0  0  0  0  0  0  0  0  0
  -38.2696 -117.4274  216.3514 H   0  0  0  0  0  0  0  0  0  0  0  0
  -37.6836 -117.5320  218.4806 H   0  0  0  0  0  0  0  0  0  0  0  0
  -39.3030 -117.0070  218.9706 H   0  0  0  0  0  0  0  0  0  0  0  0
  1  2  2  0
  1  4  1  0
  1 14  1  0
  2  3  1  0
  3 15  2  0
  3 18  1  0
  4 16  2  0
  4 17  1  0
  5 14  1  0
  5 17  2  0
  6 19  2  0
  6 20  1  0
  7  8  1  0
  7 24  1  0
  8 25  1  0
  9 24  1  0
  9 25  1  0
 10 28  1  0
 10 29  1  0
 12 11  1  0
 12 13  1  0
 12 14  1  0
 15 16  1  0
 18 19  1  0
 19 23  1  0
 20 21  2  0
 28 20  1  0
 21 22  1  0
 22 23  2  0
 22 24  1  0
 25 26  1  1
 25 27  1  0
 28 31  1  0
 29 30  1  0
 30 31  1  0
  2 32  1  0
  6 33  1  0
  7 34  1  0
  7 35  1  0
  8 36  1  0
  8 37  1  0
  9 38  1  0
  9 39  1  0
 10 40  1  0
 10 41  1  0
 11 42  1  0
 11 43  1  0
 11 44  1  0
 12 45  1  1
 13 46  1  0
 13 47  1  0
 13 48  1  0
 16 49  1  0
 17 50  1  0
 18 51  1  0
 28 52  1  6
 29 53  1  0
 29 54  1  0
 30 55  1  0
 30 56  1  0
 31 57  1  0
 31 58  1  0
M  CHG  1  30   1
M  END
>  <filename_input>  (15) 
7R9N_F97_docked.sdf

>  <pdb_id>  (15) 
7R9N_F97

>  <pose_rank>  (15) 
14

>  <num_atoms_heavy>  (15) 
31

>  <num_torsions>  (15) 
3

>  <pose>  (15) 
[-38.72369779422155, -115.89013533635283, 220.86774183806494, -0.129834408371473, -0.275817743777074, 0.2230608918479905, -6.6358836424695555, 2.8498637523255623, -2.022613181599867]

>  <energy>  (15) 
-1314.2317304799262

>  <inter_energy>  (15) 
-1332.2066064826922

>  <intra_energy>  (15) 
53.16753315386513

>  <rmsd>  (15) 
1.19929

>  <sdf_rank>  (15) 
0

$$$$

     RDKit          3D

 58 62  0  0  0  0  0  0  0  0999 V2000
  -40.0043 -115.1135  226.3796 C   0  0  0  0  0  0  0  0  0  0  0  0
  -39.7898 -115.1766  225.0035 C   0  0  0  0  0  0  0  0  0  0  0  0
  -39.9220 -116.4036  224.3626 C   0  0  0  0  0  0  0  0  0  0  0  0
  -40.3479 -116.3043  227.0525 C   0  0  0  0  0  0  0  0  0  0  0  0
  -40.2909 -114.6792  228.5725 N   0  0  0  0  0  0  0  0  0  0  0  0
  -38.7553 -116.1454  220.8724 C   0  0  0  0  0  0  0  0  0  0  0  0
  -39.3522 -111.2760  220.3076 C   0  0  0  0  0  0  0  0  0  0  0  0
  -40.0190 -110.0116  220.9155 C   0  0  0  0  0  0  0  0  0  0  0  0
  -39.9987 -111.7464  222.5962 C   0  0  0  0  0  0  0  0  0  0  0  0
  -38.1966 -114.8589  217.4415 C   0  0  0  0  0  0  0  0  0  0  0  0
  -40.7066 -112.1580  226.1105 C   0  0  0  0  0  0  0  0  0  0  0  0
  -39.6747 -112.7278  227.0874 C   0  0  2  0  0  0  0  0  0  0  0  0
  -38.2673 -112.6687  226.4987 C   0  0  0  0  0  0  0  0  0  0  0  0
  -39.9694 -114.1377  227.3214 N   0  0  0  0  0  0  0  0  0  0  0  0
  -40.2627 -117.4948  225.0301 N   0  0  0  0  0  0  0  0  0  0  0  0
  -40.4645 -117.4890  226.3277 C   0  0  0  0  0  0  0  0  0  0  0  0
  -40.5112 -115.9541  228.4530 C   0  0  0  0  0  0  0  0  0  0  0  0
  -39.7505 -116.5783  222.9878 N   0  0  0  0  0  0  0  0  0  0  0  0
  -39.3501 -115.6569  222.0367 C   0  0  0  0  0  0  0  0  0  0  0  0
  -38.3472 -115.2394  219.9152 C   0  0  0  0  0  0  0  0  0  0  0  0
  -38.4943 -113.9479  220.1251 N   0  0  0  0  0  0  0  0  0  0  0  0
  -39.0653 -113.5203  221.2408 C   0  0  0  0  0  0  0  0  0  0  0  0
  -39.4787 -114.3445  222.1834 N   0  0  0  0  0  0  0  0  0  0  0  0
  -39.1982 -112.1798  221.4571 N   0  0  0  0  0  0  0  0  0  0  0  0
  -39.8966 -110.2215  222.4531 C   0  0  2  0  0  0  0  0  0  0  0  0
  -40.9218 -109.6050  223.1722 F   0  0  0  0  0  0  0  0  0  0  0  0
  -38.6587 -109.7626  222.8844 F   0  0  0  0  0  0  0  0  0  0  0  0
  -37.7241 -115.7246  218.6366 C   0  0  1  0  0  0  0  0  0  0  0  0
  -37.9780 -115.8398  216.2643 C   0  0  0  0  0  0  0  0  0  0  0  0
  -38.3280 -117.1697  216.8054 N   0  0  0  0  0  0  0  0  0  0  0  0
  -38.2957 -117.1098  218.2798 C   0  0  0  0  0  0  0  0  0  0  0  0
  -39.5213 -114.2735  224.4358 H   0  0  0  0  0  0  0  0  0  0  0  0
  -38.6154 -117.2260  220.7217 H   0  0  0  0  0  0  0  0  0  0  0  0
  -39.9964 -111.7270  219.5383 H   0  0  0  0  0  0  0  0  0  0  0  0
  -38.3965 -111.0548  219.8099 H   0  0  0  0  0  0  0  0  0  0  0  0
  -39.4877 -109.1008  220.6021 H   0  0  0  0  0  0  0  0  0  0  0  0
  -41.0613 -109.8844  220.5879 H   0  0  0  0  0  0  0  0  0  0  0  0
  -41.0397 -112.0922  222.5149 H   0  0  0  0  0  0  0  0  0  0  0  0
  -39.6599 -112.1372  223.5670 H   0  0  0  0  0  0  0  0  0  0  0  0
  -39.2549 -114.5759  217.5407 H   0  0  0  0  0  0  0  0  0  0  0  0
  -37.6675 -113.9001  217.3379 H   0  0  0  0  0  0  0  0  0  0  0  0
  -41.5330 -111.7016  226.6751 H   0  0  0  0  0  0  0  0  0  0  0  0
  -40.2299 -111.3952  225.4773 H   0  0  0  0  0  0  0  0  0  0  0  0
  -41.0983 -112.9677  225.4773 H   0  0  0  0  0  0  0  0  0  0  0  0
  -39.7239 -112.1334  228.0116 H   0  0  0  0  0  0  0  0  0  0  0  0
  -37.5297 -112.6377  227.3142 H   0  0  0  0  0  0  0  0  0  0  0  0
  -38.0913 -113.5602  225.8788 H   0  0  0  0  0  0  0  0  0  0  0  0
  -38.1667 -111.7655  225.8788 H   0  0  0  0  0  0  0  0  0  0  0  0
  -40.7267 -118.4236  226.8451 H   0  0  0  0  0  0  0  0  0  0  0  0
  -40.7745 -116.6452  229.2673 H   0  0  0  0  0  0  0  0  0  0  0  0
  -39.9497 -117.5244  222.6326 H   0  0  0  0  0  0  0  0  0  0  0  0
  -36.6347 -115.7069  218.7886 H   0  0  0  0  0  0  0  0  0  0  0  0
  -38.6330 -115.5817  215.4191 H   0  0  0  0  0  0  0  0  0  0  0  0
  -36.9462 -115.8064  215.8844 H   0  0  0  0  0  0  0  0  0  0  0  0
  -39.2726 -117.4334  216.4907 H   0  0  0  0  0  0  0  0  0  0  0  0
  -37.6528 -117.8716  216.4699 H   0  0  0  0  0  0  0  0  0  0  0  0
  -37.6494 -117.9046  218.6805 H   0  0  0  0  0  0  0  0  0  0  0  0
  -39.2973 -117.2552  218.7107 H   0  0  0  0  0  0  0  0  0  0  0  0
  1  2  2  0
  1  4  1  0
  1 14  1  0
  2  3  1  0
  3 15  2  0
  3 18  1  0
  4 16  2  0
  4 17  1  0
  5 14  1  0
  5 17  2  0
  6 19  2  0
  6 20  1  0
  7  8  1  0
  7 24  1  0
  8 25  1  0
  9 24  1  0
  9 25  1  0
 10 28  1  0
 10 29  1  0
 12 11  1  0
 12 13  1  0
 12 14  1  0
 15 16  1  0
 18 19  1  0
 19 23  1  0
 20 21  2  0
 28 20  1  0
 21 22  1  0
 22 23  2  0
 22 24  1  0
 25 26  1  1
 25 27  1  0
 28 31  1  0
 29 30  1  0
 30 31  1  0
  2 32  1  0
  6 33  1  0
  7 34  1  0
  7 35  1  0
  8 36  1  0
  8 37  1  0
  9 38  1  0
  9 39  1  0
 10 40  1  0
 10 41  1  0
 11 42  1  0
 11 43  1  0
 11 44  1  0
 12 45  1  1
 13 46  1  0
 13 47  1  0
 13 48  1  0
 16 49  1  0
 17 50  1  0
 18 51  1  0
 28 52  1  1
 29 53  1  0
 29 54  1  0
 30 55  1  0
 30 56  1  0
 31 57  1  0
 31 58  1  0
M  CHG  1  30   1
M  END
>  <filename_input>  (16) 
7R9N_F97_docked.sdf

>  <pdb_id>  (16) 
7R9N_F97

>  <pose_rank>  (16) 
15

>  <num_atoms_heavy>  (16) 
31

>  <num_torsions>  (16) 
3

>  <pose>  (16) 
[-38.75531316831017, -116.14541113376148, 220.87242436421081, -0.26763296774281525, -0.4259491719269406, 0.5131679038397308, -6.918690319459712, 3.2387206641819204, -1.63959009150331]

>  <energy>  (16) 
-1421.8323099905815

>  <inter_energy>  (16) 
-1455.638589115868

>  <intra_energy>  (16) 
31.642776770062902

>  <rmsd>  (16) 
1.83558

>  <sdf_rank>  (16) 
0

$$$$

     RDKit          3D

 58 62  0  0  0  0  0  0  0  0999 V2000
  -39.5726 -115.0679  226.5273 C   0  0  0  0  0  0  0  0  0  0  0  0
  -39.3941 -115.0588  225.1446 C   0  0  0  0  0  0  0  0  0  0  0  0
  -39.8766 -116.1310  224.4020 C   0  0  0  0  0  0  0  0  0  0  0  0
  -40.2387 -116.1696  227.1028 C   0  0  0  0  0  0  0  0  0  0  0  0
  -39.7084 -114.7796  228.7585 N   0  0  0  0  0  0  0  0  0  0  0  0
  -39.2840 -115.6017  220.7677 C   0  0  0  0  0  0  0  0  0  0  0  0
  -36.8002 -111.3622  221.2610 C   0  0  0  0  0  0  0  0  0  0  0  0
  -36.3475 -110.2807  222.2801 C   0  0  0  0  0  0  0  0  0  0  0  0
  -37.0114 -112.2537  223.5054 C   0  0  0  0  0  0  0  0  0  0  0  0
  -38.6632 -116.4714  218.0458 C   0  0  0  0  0  0  0  0  0  0  0  0
  -39.4163 -112.0117  226.5734 C   0  0  0  0  0  0  0  0  0  0  0  0
  -38.5684 -112.9530  227.4329 C   0  0  2  0  0  0  0  0  0  0  0  0
  -37.2209 -113.2372  226.7737 C   0  0  0  0  0  0  0  0  0  0  0  0
  -39.2532 -114.2362  227.5504 N   0  0  0  0  0  0  0  0  0  0  0  0
  -40.5115 -117.1380  224.9809 N   0  0  0  0  0  0  0  0  0  0  0  0
  -40.6947 -117.1979  226.2799 C   0  0  0  0  0  0  0  0  0  0  0  0
  -40.2857 -115.9217  228.5336 C   0  0  0  0  0  0  0  0  0  0  0  0
  -39.7713 -116.2162  223.0122 N   0  0  0  0  0  0  0  0  0  0  0  0
  -39.1298 -115.3613  222.1338 C   0  0  0  0  0  0  0  0  0  0  0  0
  -38.6479 -114.7602  219.8784 C   0  0  0  0  0  0  0  0  0  0  0  0
  -37.8926 -113.7786  220.3251 N   0  0  0  0  0  0  0  0  0  0  0  0
  -37.7711 -113.5785  221.6286 C   0  0  0  0  0  0  0  0  0  0  0  0
  -38.3632 -114.3493  222.5196 N   0  0  0  0  0  0  0  0  0  0  0  0
  -36.9729 -112.5694  222.0824 N   0  0  0  0  0  0  0  0  0  0  0  0
  -36.0121 -111.0901  223.5668 C   0  0  2  0  0  0  0  0  0  0  0  0
  -36.2041 -110.3574  224.7391 F   0  0  0  0  0  0  0  0  0  0  0  0
  -34.7044 -111.5524  223.4932 F   0  0  0  0  0  0  0  0  0  0  0  0
  -38.8071 -114.9695  218.3987 C   0  0  1  0  0  0  0  0  0  0  0  0
  -38.2463 -116.3844  216.5577 C   0  0  0  0  0  0  0  0  0  0  0  0
  -37.3742 -115.1942  216.4744 N   0  0  0  0  0  0  0  0  0  0  0  0
  -37.6078 -114.3463  217.6598 C   0  0  0  0  0  0  0  0  0  0  0  0
  -38.8817 -114.2201  224.6508 H   0  0  0  0  0  0  0  0  0  0  0  0
  -39.8974 -116.4414  220.4090 H   0  0  0  0  0  0  0  0  0  0  0  0
  -37.7477 -111.0760  220.7812 H   0  0  0  0  0  0  0  0  0  0  0  0
  -36.0781 -111.5042  220.4434 H   0  0  0  0  0  0  0  0  0  0  0  0
  -35.4597 -109.7451  221.9129 H   0  0  0  0  0  0  0  0  0  0  0  0
  -37.1169 -109.5135  222.4519 H   0  0  0  0  0  0  0  0  0  0  0  0
  -38.0168 -111.9416  223.8242 H   0  0  0  0  0  0  0  0  0  0  0  0
  -36.7690 -113.0986  224.1669 H   0  0  0  0  0  0  0  0  0  0  0  0
  -37.8871 -116.9574  218.6553 H   0  0  0  0  0  0  0  0  0  0  0  0
  -39.5676 -117.0699  218.2299 H   0  0  0  0  0  0  0  0  0  0  0  0
  -40.0091 -111.3537  227.2258 H   0  0  0  0  0  0  0  0  0  0  0  0
  -38.7573 -111.4014  225.9385 H   0  0  0  0  0  0  0  0  0  0  0  0
  -40.0919 -112.6037  225.9385 H   0  0  0  0  0  0  0  0  0  0  0  0
  -38.4177 -112.4707  228.4099 H   0  0  0  0  0  0  0  0  0  0  0  0
  -36.4591 -113.3978  227.5508 H   0  0  0  0  0  0  0  0  0  0  0  0
  -37.3016 -114.1380  226.1477 H   0  0  0  0  0  0  0  0  0  0  0  0
  -36.9310 -112.3804  226.1477 H   0  0  0  0  0  0  0  0  0  0  0  0
  -41.2105 -118.0637  226.7206 H   0  0  0  0  0  0  0  0  0  0  0  0
  -40.7307 -116.5831  229.2915 H   0  0  0  0  0  0  0  0  0  0  0  0
  -40.2357 -117.0283  222.5812 H   0  0  0  0  0  0  0  0  0  0  0  0
  -39.7833 -114.5445  218.1220 H   0  0  0  0  0  0  0  0  0  0  0  0
  -37.6967 -117.2884  216.2566 H   0  0  0  0  0  0  0  0  0  0  0  0
  -39.1159 -116.3073  215.8885 H   0  0  0  0  0  0  0  0  0  0  0  0
  -36.3878 -115.4894  216.4495 H   0  0  0  0  0  0  0  0  0  0  0  0
  -37.5889 -114.6636  215.6181 H   0  0  0  0  0  0  0  0  0  0  0  0
  -37.8415 -113.3162  217.3527 H   0  0  0  0  0  0  0  0  0  0  0  0
  -36.7173 -114.3008  218.3040 H   0  0  0  0  0  0  0  0  0  0  0  0
  1  2  2  0
  1  4  1  0
  1 14  1  0
  2  3  1  0
  3 15  2  0
  3 18  1  0
  4 16  2  0
  4 17  1  0
  5 14  1  0
  5 17  2  0
  6 19  2  0
  6 20  1  0
  7  8  1  0
  7 24  1  0
  8 25  1  0
  9 24  1  0
  9 25  1  0
 10 28  1  0
 10 29  1  0
 12 11  1  0
 12 13  1  0
 12 14  1  0
 15 16  1  0
 18 19  1  0
 19 23  1  0
 20 21  2  0
 28 20  1  0
 21 22  1  0
 22 23  2  0
 22 24  1  0
 25 26  1  1
 25 27  1  0
 28 31  1  0
 29 30  1  0
 30 31  1  0
  2 32  1  0
  6 33  1  0
  7 34  1  0
  7 35  1  0
  8 36  1  0
  8 37  1  0
  9 38  1  0
  9 39  1  0
 10 40  1  0
 10 41  1  0
 11 42  1  0
 11 43  1  0
 11 44  1  0
 12 45  1  1
 13 46  1  0
 13 47  1  0
 13 48  1  0
 16 49  1  0
 17 50  1  0
 18 51  1  0
 28 52  1  6
 29 53  1  0
 29 54  1  0
 30 55  1  0
 30 56  1  0
 31 57  1  0
 31 58  1  0
M  CHG  1  30   1
M  END
>  <filename_input>  (17) 
7R9N_F97_docked.sdf

>  <pdb_id>  (17) 
7R9N_F97

>  <pose_rank>  (17) 
16

>  <num_atoms_heavy>  (17) 
31

>  <num_torsions>  (17) 
3

>  <pose>  (17) 
[-39.28397534377743, -115.60172123152127, 220.7677485652325, -0.008981392067721528, -0.0330896402481972, -0.13600452833250093, 12.470101920868611, 3.2624638681263467, 7.673030384191406]

>  <energy>  (17) 
-1304.418883594929

>  <inter_energy>  (17) 
-1317.6987998111686

>  <intra_energy>  (17) 
37.23355145946073

>  <rmsd>  (17) 
1.08682

>  <sdf_rank>  (17) 
0

$$$$

     RDKit          3D

 58 62  0  0  0  0  0  0  0  0999 V2000
  -39.8148 -115.4064  226.7153 C   0  0  0  0  0  0  0  0  0  0  0  0
  -39.5655 -115.3233  225.3461 C   0  0  0  0  0  0  0  0  0  0  0  0
  -39.7799 -116.4493  224.5588 C   0  0  0  0  0  0  0  0  0  0  0  0
  -40.2759 -116.6348  227.2320 C   0  0  0  0  0  0  0  0  0  0  0  0
  -40.1294 -115.2134  228.9387 N   0  0  0  0  0  0  0  0  0  0  0  0
  -39.4504 -115.5095  221.0070 C   0  0  0  0  0  0  0  0  0  0  0  0
  -36.8735 -111.3642  221.7565 C   0  0  0  0  0  0  0  0  0  0  0  0
  -36.2533 -110.4485  222.8473 C   0  0  0  0  0  0  0  0  0  0  0  0
  -36.7361 -112.5974  223.8391 C   0  0  0  0  0  0  0  0  0  0  0  0
  -39.2406 -115.9290  218.1090 C   0  0  0  0  0  0  0  0  0  0  0  0
  -40.2618 -112.3902  226.7938 C   0  0  0  0  0  0  0  0  0  0  0  0
  -39.3095 -113.1592  227.7133 C   0  0  2  0  0  0  0  0  0  0  0  0
  -37.8856 -113.1515  227.1625 C   0  0  0  0  0  0  0  0  0  0  0  0
  -39.7270 -114.5563  227.7690 N   0  0  0  0  0  0  0  0  0  0  0  0
  -40.2297 -117.5789  225.0823 N   0  0  0  0  0  0  0  0  0  0  0  0
  -40.4688 -117.7103  226.3669 C   0  0  0  0  0  0  0  0  0  0  0  0
  -40.4511 -116.4413  228.6612 C   0  0  0  0  0  0  0  0  0  0  0  0
  -39.5827 -116.4730  223.1765 N   0  0  0  0  0  0  0  0  0  0  0  0
  -39.0791 -115.4827  222.3521 C   0  0  0  0  0  0  0  0  0  0  0  0
  -38.9542 -114.5309  220.1706 C   0  0  0  0  0  0  0  0  0  0  0  0
  -38.1269 -113.6204  220.6398 N   0  0  0  0  0  0  0  0  0  0  0  0
  -37.7982 -113.6241  221.9227 C   0  0  0  0  0  0  0  0  0  0  0  0
  -38.2500 -114.5326  222.7648 N   0  0  0  0  0  0  0  0  0  0  0  0
  -36.9271 -112.6870  222.3963 N   0  0  0  0  0  0  0  0  0  0  0  0
  -35.7271 -111.4437  223.9224 C   0  0  2  0  0  0  0  0  0  0  0  0
  -35.7229 -110.9053  225.2101 F   0  0  0  0  0  0  0  0  0  0  0  0
  -34.4527 -111.8704  223.5717 F   0  0  0  0  0  0  0  0  0  0  0  0
  -39.3481 -114.5093  218.7204 C   0  0  1  0  0  0  0  0  0  0  0  0
  -39.0720 -115.5900  216.6082 C   0  0  0  0  0  0  0  0  0  0  0  0
  -38.2431 -114.3668  216.5838 N   0  0  0  0  0  0  0  0  0  0  0  0
  -38.2941 -113.7279  217.9134 C   0  0  0  0  0  0  0  0  0  0  0  0
  -39.2062 -114.3854  224.8974 H   0  0  0  0  0  0  0  0  0  0  0  0
  -40.1221 -116.2916  220.6232 H   0  0  0  0  0  0  0  0  0  0  0  0
  -37.8819 -111.0201  221.4833 H   0  0  0  0  0  0  0  0  0  0  0  0
  -36.2917 -111.3670  220.8229 H   0  0  0  0  0  0  0  0  0  0  0  0
  -35.4290 -109.8498  222.4324 H   0  0  0  0  0  0  0  0  0  0  0  0
  -36.9772 -109.7283  223.2563 H   0  0  0  0  0  0  0  0  0  0  0  0
  -37.6749 -112.3529  224.3577 H   0  0  0  0  0  0  0  0  0  0  0  0
  -36.4013 -113.5315  224.3139 H   0  0  0  0  0  0  0  0  0  0  0  0
  -38.3687 -116.4731  218.5011 H   0  0  0  0  0  0  0  0  0  0  0  0
  -40.0940 -116.5859  218.3332 H   0  0  0  0  0  0  0  0  0  0  0  0
  -40.9745 -111.8147  227.4028 H   0  0  0  0  0  0  0  0  0  0  0  0
  -39.6833 -111.7029  226.1590 H   0  0  0  0  0  0  0  0  0  0  0  0
  -40.8119 -113.1004  226.1590 H   0  0  0  0  0  0  0  0  0  0  0  0
  -39.3358 -112.6774  228.7018 H   0  0  0  0  0  0  0  0  0  0  0  0
  -37.1695 -113.1477  227.9974 H   0  0  0  0  0  0  0  0  0  0  0  0
  -37.7259 -114.0488  226.5466 H   0  0  0  0  0  0  0  0  0  0  0  0
  -37.7356 -112.2526  226.5466 H   0  0  0  0  0  0  0  0  0  0  0  0
  -40.8230 -118.6739  226.7619 H   0  0  0  0  0  0  0  0  0  0  0  0
  -40.7949 -117.1993  229.3804 H   0  0  0  0  0  0  0  0  0  0  0  0
  -39.8491 -117.3494  222.7055 H   0  0  0  0  0  0  0  0  0  0  0  0
  -40.3625 -114.0864  218.6741 H   0  0  0  0  0  0  0  0  0  0  0  0
  -38.5649 -116.4114  216.0808 H   0  0  0  0  0  0  0  0  0  0  0  0
  -40.0398 -115.4438  216.1061 H   0  0  0  0  0  0  0  0  0  0  0  0
  -37.2694 -114.6135  216.3559 H   0  0  0  0  0  0  0  0  0  0  0  0
  -38.6019 -113.7164  215.8702 H   0  0  0  0  0  0  0  0  0  0  0  0
  -38.5901 -112.6727  217.8191 H   0  0  0  0  0  0  0  0  0  0  0  0
  -37.3117 -113.7485  218.4079 H   0  0  0  0  0  0  0  0  0  0  0  0
  1  2  2  0
  1  4  1  0
  1 14  1  0
  2  3  1  0
  3 15  2  0
  3 18  1  0
  4 16  2  0
  4 17  1  0
  5 14  1  0
  5 17  2  0
  6 19  2  0
  6 20  1  0
  7  8  1  0
  7 24  1  0
  8 25  1  0
  9 24  1  0
  9 25  1  0
 10 28  1  0
 10 29  1  0
 12 11  1  0
 12 13  1  0
 12 14  1  0
 15 16  1  0
 18 19  1  0
 19 23  1  0
 20 21  2  0
 28 20  1  0
 21 22  1  0
 22 23  2  0
 22 24  1  0
 25 26  1  1
 25 27  1  0
 28 31  1  0
 29 30  1  0
 30 31  1  0
  2 32  1  0
  6 33  1  0
  7 34  1  0
  7 35  1  0
  8 36  1  0
  8 37  1  0
  9 38  1  0
  9 39  1  0
 10 40  1  0
 10 41  1  0
 11 42  1  0
 11 43  1  0
 11 44  1  0
 12 45  1  1
 13 46  1  0
 13 47  1  0
 13 48  1  0
 16 49  1  0
 17 50  1  0
 18 51  1  0
 28 52  1  1
 29 53  1  0
 29 54  1  0
 30 55  1  0
 30 56  1  0
 31 57  1  0
 31 58  1  0
M  CHG  1  30   1
M  END
>  <filename_input>  (18) 
7R9N_F97_docked.sdf

>  <pdb_id>  (18) 
7R9N_F97

>  <pose_rank>  (18) 
17

>  <num_atoms_heavy>  (18) 
31

>  <num_torsions>  (18) 
3

>  <pose>  (18) 
[-39.45042884789226, -115.50954635083423, 221.007019156184, 0.1371295457252121, 0.13706889384663246, -0.1356959619359321, 12.795529284609891, 3.2396216818814367, 7.645685470819299]

>  <energy>  (18) 
-1217.655368146727

>  <inter_energy>  (18) 
-1228.2100993556094

>  <intra_energy>  (18) 
30.269353088679424

>  <rmsd>  (18) 
1.05098

>  <sdf_rank>  (18) 
0

$$$$

     RDKit          3D

 58 62  0  0  0  0  0  0  0  0999 V2000
  -40.2466 -114.9729  226.4208 C   0  0  0  0  0  0  0  0  0  0  0  0
  -39.9889 -114.8484  225.0563 C   0  0  0  0  0  0  0  0  0  0  0  0
  -39.8406 -116.0035  224.2966 C   0  0  0  0  0  0  0  0  0  0  0  0
  -40.3459 -116.2718  226.9610 C   0  0  0  0  0  0  0  0  0  0  0  0
  -40.6746 -114.8354  228.6293 N   0  0  0  0  0  0  0  0  0  0  0  0
  -38.9004 -115.1859  220.7985 C   0  0  0  0  0  0  0  0  0  0  0  0
  -39.8901 -110.3539  221.0412 C   0  0  0  0  0  0  0  0  0  0  0  0
  -40.5628 -109.2493  221.9017 C   0  0  0  0  0  0  0  0  0  0  0  0
  -40.2219 -111.1965  223.2899 C   0  0  0  0  0  0  0  0  0  0  0  0
  -38.9668 -113.5005  217.5382 C   0  0  0  0  0  0  0  0  0  0  0  0
  -41.5603 -112.2177  226.4074 C   0  0  0  0  0  0  0  0  0  0  0  0
  -40.4503 -112.6565  227.3662 C   0  0  2  0  0  0  0  0  0  0  0  0
  -39.0762 -112.2447  226.8436 C   0  0  0  0  0  0  0  0  0  0  0  0
  -40.4441 -114.1132  227.4515 N   0  0  0  0  0  0  0  0  0  0  0  0
  -39.9581 -117.2045  224.8409 N   0  0  0  0  0  0  0  0  0  0  0  0
  -40.1893 -117.3740  226.1225 C   0  0  0  0  0  0  0  0  0  0  0  0
  -40.6155 -116.1090  228.3793 C   0  0  0  0  0  0  0  0  0  0  0  0
  -39.6011 -115.9966  222.9208 N   0  0  0  0  0  0  0  0  0  0  0  0
  -39.3819 -114.9192  222.0810 C   0  0  0  0  0  0  0  0  0  0  0  0
  -38.6733 -114.1222  219.9495 C   0  0  0  0  0  0  0  0  0  0  0  0
  -38.8813 -112.8906  220.3661 N   0  0  0  0  0  0  0  0  0  0  0  0
  -39.3410 -112.6751  221.5892 C   0  0  0  0  0  0  0  0  0  0  0  0
  -39.5806 -113.6565  222.4366 N   0  0  0  0  0  0  0  0  0  0  0  0
  -39.5374 -111.3949  222.0178 N   0  0  0  0  0  0  0  0  0  0  0  0
  -40.2417 -109.6636  223.3675 C   0  0  2  0  0  0  0  0  0  0  0  0
  -41.2118 -109.2443  224.2790 F   0  0  0  0  0  0  0  0  0  0  0  0
  -38.9947 -109.1670  223.7246 F   0  0  0  0  0  0  0  0  0  0  0  0
  -38.1777 -114.3669  218.5520 C   0  0  1  0  0  0  0  0  0  0  0  0
  -38.7651 -114.3145  216.2372 C   0  0  0  0  0  0  0  0  0  0  0  0
  -38.7967 -115.7293  216.6632 N   0  0  0  0  0  0  0  0  0  0  0  0
  -38.5519 -115.7965  218.1172 C   0  0  0  0  0  0  0  0  0  0  0  0
  -39.9044 -113.8557  224.5899 H   0  0  0  0  0  0  0  0  0  0  0  0
  -38.7067 -116.2185  220.4725 H   0  0  0  0  0  0  0  0  0  0  0  0
  -40.5904 -110.7445  220.2881 H   0  0  0  0  0  0  0  0  0  0  0  0
  -39.0188 -109.9842  220.4807 H   0  0  0  0  0  0  0  0  0  0  0  0
  -40.1363 -108.2616  221.6725 H   0  0  0  0  0  0  0  0  0  0  0  0
  -41.6433 -109.1660  221.7131 H   0  0  0  0  0  0  0  0  0  0  0  0
  -41.2393 -111.6144  223.2720 H   0  0  0  0  0  0  0  0  0  0  0  0
  -39.7426 -111.6906  224.1479 H   0  0  0  0  0  0  0  0  0  0  0  0
  -40.0304 -113.4288  217.8095 H   0  0  0  0  0  0  0  0  0  0  0  0
  -38.6311 -112.4548  217.4764 H   0  0  0  0  0  0  0  0  0  0  0  0
  -42.4301 -111.8738  226.9863 H   0  0  0  0  0  0  0  0  0  0  0  0
  -41.1939 -111.3968  225.7735 H   0  0  0  0  0  0  0  0  0  0  0  0
  -41.8544 -113.0672  225.7735 H   0  0  0  0  0  0  0  0  0  0  0  0
  -40.6424 -112.1834  228.3405 H   0  0  0  0  0  0  0  0  0  0  0  0
  -38.4061 -112.0439  227.6926 H   0  0  0  0  0  0  0  0  0  0  0  0
  -38.6583 -113.0571  226.2309 H   0  0  0  0  0  0  0  0  0  0  0  0
  -39.1740 -111.3364  226.2309 H   0  0  0  0  0  0  0  0  0  0  0  0
  -40.2597 -118.3908  226.5362 H   0  0  0  0  0  0  0  0  0  0  0  0
  -40.7462 -116.9197  229.1112 H   0  0  0  0  0  0  0  0  0  0  0  0
  -39.5854 -116.9219  222.4686 H   0  0  0  0  0  0  0  0  0  0  0  0
  -37.0972 -114.1612  218.5586 H   0  0  0  0  0  0  0  0  0  0  0  0
  -39.5751 -114.1078  215.5222 H   0  0  0  0  0  0  0  0  0  0  0  0
  -37.8239 -114.0564  215.7298 H   0  0  0  0  0  0  0  0  0  0  0  0
  -39.7191 -116.1344  216.4488 H   0  0  0  0  0  0  0  0  0  0  0  0
  -38.0705 -116.2608  216.1622 H   0  0  0  0  0  0  0  0  0  0  0  0
  -37.7263 -116.4903  218.3340 H   0  0  0  0  0  0  0  0  0  0  0  0
  -39.4369 -116.1632  218.6579 H   0  0  0  0  0  0  0  0  0  0  0  0
  1  2  2  0
  1  4  1  0
  1 14  1  0
  2  3  1  0
  3 15  2  0
  3 18  1  0
  4 16  2  0
  4 17  1  0
  5 14  1  0
  5 17  2  0
  6 19  2  0
  6 20  1  0
  7  8  1  0
  7 24  1  0
  8 25  1  0
  9 24  1  0
  9 25  1  0
 10 28  1  0
 10 29  1  0
 12 11  1  0
 12 13  1  0
 12 14  1  0
 15 16  1  0
 18 19  1  0
 19 23  1  0
 20 21  2  0
 28 20  1  0
 21 22  1  0
 22 23  2  0
 22 24  1  0
 25 26  1  1
 25 27  1  0
 28 31  1  0
 29 30  1  0
 30 31  1  0
  2 32  1  0
  6 33  1  0
  7 34  1  0
  7 35  1  0
  8 36  1  0
  8 37  1  0
  9 38  1  0
  9 39  1  0
 10 40  1  0
 10 41  1  0
 11 42  1  0
 11 43  1  0
 11 44  1  0
 12 45  1  1
 13 46  1  0
 13 47  1  0
 13 48  1  0
 16 49  1  0
 17 50  1  0
 18 51  1  0
 28 52  1  1
 29 53  1  0
 29 54  1  0
 30 55  1  0
 30 56  1  0
 31 57  1  0
 31 58  1  0
M  CHG  1  30   1
M  END
>  <filename_input>  (19) 
7R9N_F97_docked.sdf

>  <pdb_id>  (19) 
7R9N_F97

>  <pose_rank>  (19) 
18

>  <num_atoms_heavy>  (19) 
31

>  <num_torsions>  (19) 
3

>  <pose>  (19) 
[-38.90040814928998, -115.1858584141692, 220.7984571416495, -0.0796890194749929, -0.3600409856981126, 0.5667717336871696, -6.70938040945236, 3.2446513545614035, -1.754790401041056]

>  <energy>  (19) 
-1102.8871132694728

>  <inter_energy>  (19) 
-1137.0992202411653

>  <intra_energy>  (19) 
34.84128598732469

>  <rmsd>  (19) 
1.84898

>  <sdf_rank>  (19) 
0

$$$$

     RDKit          3D

 58 62  0  0  0  0  0  0  0  0999 V2000
  -39.8056 -115.1924  226.3968 C   0  0  0  0  0  0  0  0  0  0  0  0
  -39.5265 -115.1638  225.0311 C   0  0  0  0  0  0  0  0  0  0  0  0
  -39.8282 -116.2840  224.2644 C   0  0  0  0  0  0  0  0  0  0  0  0
  -40.3844 -116.3621  226.9311 C   0  0  0  0  0  0  0  0  0  0  0  0
  -40.1394 -114.9203  228.6091 N   0  0  0  0  0  0  0  0  0  0  0  0
  -38.8102 -115.8011  220.7184 C   0  0  0  0  0  0  0  0  0  0  0  0
  -37.4979 -111.0618  221.1692 C   0  0  0  0  0  0  0  0  0  0  0  0
  -37.5239 -109.8345  222.1210 C   0  0  0  0  0  0  0  0  0  0  0  0
  -37.9735 -111.8191  223.4225 C   0  0  0  0  0  0  0  0  0  0  0  0
  -37.2414 -114.0972  217.6993 C   0  0  0  0  0  0  0  0  0  0  0  0
  -39.2748 -112.2969  228.7180 C   0  0  0  0  0  0  0  0  0  0  0  0
  -39.1167 -112.9771  227.3556 C   0  0  2  0  0  0  0  0  0  0  0  0
  -39.9171 -112.2477  226.2794 C   0  0  0  0  0  0  0  0  0  0  0  0
  -39.6594 -114.3294  227.4334 N   0  0  0  0  0  0  0  0  0  0  0  0
  -40.3870 -117.3561  224.8034 N   0  0  0  0  0  0  0  0  0  0  0  0
  -40.6588 -117.4357  226.0858 C   0  0  0  0  0  0  0  0  0  0  0  0
  -40.5658 -116.1205  228.3521 C   0  0  0  0  0  0  0  0  0  0  0  0
  -39.6104 -116.3574  222.8870 N   0  0  0  0  0  0  0  0  0  0  0  0
  -39.0055 -115.4357  222.0511 C   0  0  0  0  0  0  0  0  0  0  0  0
  -38.2052 -114.8946  219.8723 C   0  0  0  0  0  0  0  0  0  0  0  0
  -37.8001 -113.7304  220.3349 N   0  0  0  0  0  0  0  0  0  0  0  0
  -38.0043 -113.4163  221.6051 C   0  0  0  0  0  0  0  0  0  0  0  0
  -38.5836 -114.2437  222.4527 N   0  0  0  0  0  0  0  0  0  0  0  0
  -37.5660 -112.2146  222.0794 N   0  0  0  0  0  0  0  0  0  0  0  0
  -37.2955 -110.4465  223.5340 C   0  0  2  0  0  0  0  0  0  0  0  0
  -37.8894 -109.7023  224.5545 F   0  0  0  0  0  0  0  0  0  0  0  0
  -35.9323 -110.5816  223.7633 F   0  0  0  0  0  0  0  0  0  0  0  0
  -37.9976 -115.2390  218.4242 C   0  0  1  0  0  0  0  0  0  0  0  0
  -37.6740 -114.3433  216.2336 C   0  0  0  0  0  0  0  0  0  0  0  0
  -39.0811 -114.7864  216.3200 N   0  0  0  0  0  0  0  0  0  0  0  0
  -39.3555 -115.2416  217.6970 C   0  0  0  0  0  0  0  0  0  0  0  0
  -39.0765 -114.2727  224.5692 H   0  0  0  0  0  0  0  0  0  0  0  0
  -39.1306 -116.7875  220.3516 H   0  0  0  0  0  0  0  0  0  0  0  0
  -38.3623 -111.0483  220.4890 H   0  0  0  0  0  0  0  0  0  0  0  0
  -36.6065 -111.0811  220.5250 H   0  0  0  0  0  0  0  0  0  0  0  0
  -36.7212 -109.1264  221.8675 H   0  0  0  0  0  0  0  0  0  0  0  0
  -38.4637 -109.2669  222.0532 H   0  0  0  0  0  0  0  0  0  0  0  0
  -39.0673 -111.7388  223.5069 H   0  0  0  0  0  0  0  0  0  0  0  0
  -37.6937 -112.5317  224.2125 H   0  0  0  0  0  0  0  0  0  0  0  0
  -37.5649 -113.1080  218.0556 H   0  0  0  0  0  0  0  0  0  0  0  0
  -36.1530 -114.1006  217.8583 H   0  0  0  0  0  0  0  0  0  0  0  0
  -39.1038 -113.0330  229.5173 H   0  0  0  0  0  0  0  0  0  0  0  0
  -38.5423 -111.4813  228.8078 H   0  0  0  0  0  0  0  0  0  0  0  0
  -40.2919 -111.8878  228.8078 H   0  0  0  0  0  0  0  0  0  0  0  0
  -38.0468 -112.9722  227.1004 H   0  0  0  0  0  0  0  0  0  0  0  0
  -40.6497 -111.5800  226.7565 H   0  0  0  0  0  0  0  0  0  0  0  0
  -39.2342 -111.6549  225.6531 H   0  0  0  0  0  0  0  0  0  0  0  0
  -40.4442 -112.9825  225.6531 H   0  0  0  0  0  0  0  0  0  0  0  0
  -41.1052 -118.3541  226.4947 H   0  0  0  0  0  0  0  0  0  0  0  0
  -40.9888 -116.8277  229.0808 H   0  0  0  0  0  0  0  0  0  0  0  0
  -39.9468 -117.2170  222.4299 H   0  0  0  0  0  0  0  0  0  0  0  0
  -37.4666 -116.2020  218.4007 H   0  0  0  0  0  0  0  0  0  0  0  0
  -37.5958 -113.4164  215.6465 H   0  0  0  0  0  0  0  0  0  0  0  0
  -37.0362 -115.0871  215.7337 H   0  0  0  0  0  0  0  0  0  0  0  0
  -39.7057 -114.0021  216.0843 H   0  0  0  0  0  0  0  0  0  0  0  0
  -39.2451 -115.5584  215.6582 H   0  0  0  0  0  0  0  0  0  0  0  0
  -39.7814 -116.2557  217.6865 H   0  0  0  0  0  0  0  0  0  0  0  0
  -40.0829 -114.5873  218.1999 H   0  0  0  0  0  0  0  0  0  0  0  0
  1  2  2  0
  1  4  1  0
  1 14  1  0
  2  3  1  0
  3 15  2  0
  3 18  1  0
  4 16  2  0
  4 17  1  0
  5 14  1  0
  5 17  2  0
  6 19  2  0
  6 20  1  0
  7  8  1  0
  7 24  1  0
  8 25  1  0
  9 24  1  0
  9 25  1  0
 10 28  1  0
 10 29  1  0
 12 11  1  0
 12 13  1  0
 12 14  1  0
 15 16  1  0
 18 19  1  0
 19 23  1  0
 20 21  2  0
 28 20  1  0
 21 22  1  0
 22 23  2  0
 22 24  1  0
 25 26  1  1
 25 27  1  0
 28 31  1  0
 29 30  1  0
 30 31  1  0
  2 32  1  0
  6 33  1  0
  7 34  1  0
  7 35  1  0
  8 36  1  0
  8 37  1  0
  9 38  1  0
  9 39  1  0
 10 40  1  0
 10 41  1  0
 11 42  1  0
 11 43  1  0
 11 44  1  0
 12 45  1  6
 13 46  1  0
 13 47  1  0
 13 48  1  0
 16 49  1  0
 17 50  1  0
 18 51  1  0
 28 52  1  1
 29 53  1  0
 29 54  1  0
 30 55  1  0
 30 56  1  0
 31 57  1  0
 31 58  1  0
M  CHG  1  30   1
M  END
>  <filename_input>  (20) 
7R9N_F97_docked.sdf

>  <pdb_id>  (20) 
7R9N_F97

>  <pose_rank>  (20) 
19

>  <num_atoms_heavy>  (20) 
31

>  <num_torsions>  (20) 
3

>  <pose>  (20) 
[-38.81017848499158, -115.80114618898355, 220.71837987526425, -0.08619300980846993, -0.2429829563219955, 0.10250695514950145, -6.579870217970923, 11.510145574816306, -0.9235028427125558]

>  <energy>  (20) 
-1359.1383583578922

>  <inter_energy>  (20) 
-1390.7731223242536

>  <intra_energy>  (20) 
33.396003139708206

>  <rmsd>  (20) 
0.739143

>  <sdf_rank>  (20) 
0

$$$$

     RDKit          3D

 58 62  0  0  0  0  0  0  0  0999 V2000
  -40.2721 -115.1473  226.4676 C   0  0  0  0  0  0  0  0  0  0  0  0
  -39.9735 -115.1170  225.1061 C   0  0  0  0  0  0  0  0  0  0  0  0
  -40.1062 -116.2875  224.3672 C   0  0  0  0  0  0  0  0  0  0  0  0
  -40.6976 -116.3703  227.0261 C   0  0  0  0  0  0  0  0  0  0  0  0
  -40.6818 -114.8650  228.6658 N   0  0  0  0  0  0  0  0  0  0  0  0
  -39.4629 -115.6263  220.7708 C   0  0  0  0  0  0  0  0  0  0  0  0
  -37.7561 -111.0329  221.3823 C   0  0  0  0  0  0  0  0  0  0  0  0
  -37.5061 -109.9129  222.4293 C   0  0  0  0  0  0  0  0  0  0  0  0
  -37.8274 -111.9984  223.6049 C   0  0  0  0  0  0  0  0  0  0  0  0
  -38.8354 -116.3523  218.0554 C   0  0  0  0  0  0  0  0  0  0  0  0
  -40.9974 -112.1039  226.5844 C   0  0  0  0  0  0  0  0  0  0  0  0
  -39.9075 -112.8347  227.3730 C   0  0  2  0  0  0  0  0  0  0  0  0
  -38.5677 -112.7782  226.6432 C   0  0  0  0  0  0  0  0  0  0  0  0
  -40.2638 -114.2456  227.4811 N   0  0  0  0  0  0  0  0  0  0  0  0
  -40.5251 -117.4110  224.9280 N   0  0  0  0  0  0  0  0  0  0  0  0
  -40.8081 -117.4930  226.2078 C   0  0  0  0  0  0  0  0  0  0  0  0
  -40.9371 -116.1183  228.4368 C   0  0  0  0  0  0  0  0  0  0  0  0
  -39.8543 -116.3668  222.9959 N   0  0  0  0  0  0  0  0  0  0  0  0
  -39.3637 -115.3939  222.1434 C   0  0  0  0  0  0  0  0  0  0  0  0
  -38.9754 -114.6673  219.9069 C   0  0  0  0  0  0  0  0  0  0  0  0
  -38.4054 -113.5801  220.3831 N   0  0  0  0  0  0  0  0  0  0  0  0
  -38.3309 -113.3917  221.6918 C   0  0  0  0  0  0  0  0  0  0  0  0
  -38.7874 -114.2735  222.5593 N   0  0  0  0  0  0  0  0  0  0  0  0
  -37.7235 -112.2702  222.1761 N   0  0  0  0  0  0  0  0  0  0  0  0
  -37.0457 -110.6810  223.7025 C   0  0  2  0  0  0  0  0  0  0  0  0
  -37.3713 -110.0195  224.8876 F   0  0  0  0  0  0  0  0  0  0  0  0
  -35.6771 -110.9079  223.6348 F   0  0  0  0  0  0  0  0  0  0  0  0
  -39.0840 -114.8673  218.4214 C   0  0  1  0  0  0  0  0  0  0  0  0
  -38.3881 -116.2198  216.5796 C   0  0  0  0  0  0  0  0  0  0  0  0
  -37.5923 -114.9754  216.5321 N   0  0  0  0  0  0  0  0  0  0  0  0
  -37.9091 -114.1594  217.7204 C   0  0  0  0  0  0  0  0  0  0  0  0
  -39.6393 -114.1855  224.6259 H   0  0  0  0  0  0  0  0  0  0  0  0
  -39.9185 -116.5511  220.3872 H   0  0  0  0  0  0  0  0  0  0  0  0
  -38.7351 -110.9044  220.8975 H   0  0  0  0  0  0  0  0  0  0  0  0
  -37.0139 -111.0291  220.5705 H   0  0  0  0  0  0  0  0  0  0  0  0
  -36.7217 -109.2233  222.0839 H   0  0  0  0  0  0  0  0  0  0  0  0
  -38.3982 -109.2947  222.6081 H   0  0  0  0  0  0  0  0  0  0  0  0
  -38.8743 -111.8725  223.9183 H   0  0  0  0  0  0  0  0  0  0  0  0
  -37.4476 -112.8033  224.2513 H   0  0  0  0  0  0  0  0  0  0  0  0
  -38.0451 -116.7956  218.6791 H   0  0  0  0  0  0  0  0  0  0  0  0
  -39.7038 -117.0096  218.2095 H   0  0  0  0  0  0  0  0  0  0  0  0
  -41.7022 -111.6313  227.2845 H   0  0  0  0  0  0  0  0  0  0  0  0
  -40.5365 -111.3316  225.9511 H   0  0  0  0  0  0  0  0  0  0  0  0
  -41.5368 -112.8236  225.9511 H   0  0  0  0  0  0  0  0  0  0  0  0
  -39.8235 -112.3501  228.3569 H   0  0  0  0  0  0  0  0  0  0  0  0
  -37.7506 -112.7439  227.3789 H   0  0  0  0  0  0  0  0  0  0  0  0
  -38.4558 -113.6725  226.0125 H   0  0  0  0  0  0  0  0  0  0  0  0
  -38.5314 -111.8778  226.0125 H   0  0  0  0  0  0  0  0  0  0  0  0
  -41.1339 -118.4525  226.6359 H   0  0  0  0  0  0  0  0  0  0  0  0
  -41.2744 -116.8569  229.1788 H   0  0  0  0  0  0  0  0  0  0  0  0
  -40.0625 -117.2758  222.5585 H   0  0  0  0  0  0  0  0  0  0  0  0
  -40.0782 -114.5020  218.1245 H   0  0  0  0  0  0  0  0  0  0  0  0
  -37.7743 -117.0829  216.2825 H   0  0  0  0  0  0  0  0  0  0  0  0
  -39.2440 -116.1898  215.8892 H   0  0  0  0  0  0  0  0  0  0  0  0
  -36.5887 -115.2068  216.5291 H   0  0  0  0  0  0  0  0  0  0  0  0
  -37.8192 -114.4486  215.6765 H   0  0  0  0  0  0  0  0  0  0  0  0
  -38.2007 -113.1425  217.4191 H   0  0  0  0  0  0  0  0  0  0  0  0
  -37.0397 -114.0655  218.3878 H   0  0  0  0  0  0  0  0  0  0  0  0
  1  2  2  0
  1  4  1  0
  1 14  1  0
  2  3  1  0
  3 15  2  0
  3 18  1  0
  4 16  2  0
  4 17  1  0
  5 14  1  0
  5 17  2  0
  6 19  2  0
  6 20  1  0
  7  8  1  0
  7 24  1  0
  8 25  1  0
  9 24  1  0
  9 25  1  0
 10 28  1  0
 10 29  1  0
 12 11  1  0
 12 13  1  0
 12 14  1  0
 15 16  1  0
 18 19  1  0
 19 23  1  0
 20 21  2  0
 28 20  1  0
 21 22  1  0
 22 23  2  0
 22 24  1  0
 25 26  1  1
 25 27  1  0
 28 31  1  0
 29 30  1  0
 30 31  1  0
  2 32  1  0
  6 33  1  0
  7 34  1  0
  7 35  1  0
  8 36  1  0
  8 37  1  0
  9 38  1  0
  9 39  1  0
 10 40  1  0
 10 41  1  0
 11 42  1  0
 11 43  1  0
 11 44  1  0
 12 45  1  1
 13 46  1  0
 13 47  1  0
 13 48  1  0
 16 49  1  0
 17 50  1  0
 18 51  1  0
 28 52  1  6
 29 53  1  0
 29 54  1  0
 30 55  1  0
 30 56  1  0
 31 57  1  0
 31 58  1  0
M  CHG  1  30   1
M  END
>  <filename_input>  (21) 
7R9N_F97_docked.sdf

>  <pdb_id>  (21) 
7R9N_F97

>  <pose_rank>  (21) 
20

>  <num_atoms_heavy>  (21) 
31

>  <num_torsions>  (21) 
3

>  <pose>  (21) 
[-39.46293881756889, -115.62631387396102, 220.77080953741455, 0.016523820861977942, -0.042159105979875336, 0.03781088542143833, 12.591590081582995, 3.4134485220752566, 7.784742553080881]

>  <energy>  (21) 
-1446.6333412782576

>  <inter_energy>  (21) 
-1462.3816504157032

>  <intra_energy>  (21) 
43.55619300295485

>  <rmsd>  (21) 
0.891359

>  <sdf_rank>  (21) 
0

$$$$

     RDKit          3D

 58 62  0  0  0  0  0  0  0  0999 V2000
  -40.2961 -115.2860  226.9229 C   0  0  0  0  0  0  0  0  0  0  0  0
  -40.1622 -115.1554  225.5414 C   0  0  0  0  0  0  0  0  0  0  0  0
  -40.2690 -116.2936  224.7497 C   0  0  0  0  0  0  0  0  0  0  0  0
  -40.5362 -116.5729  227.4473 C   0  0  0  0  0  0  0  0  0  0  0  0
  -40.4719 -115.1604  229.1664 N   0  0  0  0  0  0  0  0  0  0  0  0
  -39.2938 -115.5090  221.2848 C   0  0  0  0  0  0  0  0  0  0  0  0
  -40.2732 -110.6694  221.3543 C   0  0  0  0  0  0  0  0  0  0  0  0
  -41.0085 -109.5459  222.1353 C   0  0  0  0  0  0  0  0  0  0  0  0
  -40.7945 -111.4675  223.5832 C   0  0  0  0  0  0  0  0  0  0  0  0
  -39.1599 -113.9811  217.9829 C   0  0  0  0  0  0  0  0  0  0  0  0
  -41.1467 -112.3715  227.0625 C   0  0  0  0  0  0  0  0  0  0  0  0
  -40.0486 -112.9982  227.9259 C   0  0  2  0  0  0  0  0  0  0  0  0
  -38.6698 -112.7797  227.3078 C   0  0  0  0  0  0  0  0  0  0  0  0
  -40.2550 -114.4415  227.9840 N   0  0  0  0  0  0  0  0  0  0  0  0
  -40.5117 -117.4812  225.2818 N   0  0  0  0  0  0  0  0  0  0  0  0
  -40.6347 -117.6573  226.5774 C   0  0  0  0  0  0  0  0  0  0  0  0
  -40.6325 -116.4195  228.8888 C   0  0  0  0  0  0  0  0  0  0  0  0
  -40.1720 -116.2762  223.3567 N   0  0  0  0  0  0  0  0  0  0  0  0
  -39.8782 -115.2160  222.5178 C   0  0  0  0  0  0  0  0  0  0  0  0
  -38.9913 -114.4627  220.4378 C   0  0  0  0  0  0  0  0  0  0  0  0
  -39.2261 -113.2226  220.8126 N   0  0  0  0  0  0  0  0  0  0  0  0
  -39.7842 -112.9819  221.9892 C   0  0  0  0  0  0  0  0  0  0  0  0
  -40.0986 -113.9459  222.8321 N   0  0  0  0  0  0  0  0  0  0  0  0
  -40.0082 -111.6929  222.3761 N   0  0  0  0  0  0  0  0  0  0  0  0
  -40.8120 -109.9333  223.6302 C   0  0  2  0  0  0  0  0  0  0  0  0
  -41.8519 -109.4928  224.4502 F   0  0  0  0  0  0  0  0  0  0  0  0
  -39.5961 -109.4350  224.0799 F   0  0  0  0  0  0  0  0  0  0  0  0
  -38.3832 -114.7361  219.0909 C   0  0  1  0  0  0  0  0  0  0  0  0
  -38.8101 -114.8389  216.7429 C   0  0  0  0  0  0  0  0  0  0  0  0
  -38.7697 -116.2300  217.2401 N   0  0  0  0  0  0  0  0  0  0  0  0
  -38.6226 -116.2090  218.7086 C   0  0  0  0  0  0  0  0  0  0  0  0
  -39.9757 -114.1714  225.0865 H   0  0  0  0  0  0  0  0  0  0  0  0
  -39.0796 -116.5484  220.9954 H   0  0  0  0  0  0  0  0  0  0  0  0
  -40.9109 -111.0715  220.5533 H   0  0  0  0  0  0  0  0  0  0  0  0
  -39.3564 -110.3140  220.8611 H   0  0  0  0  0  0  0  0  0  0  0  0
  -40.5590 -108.5644  221.9238 H   0  0  0  0  0  0  0  0  0  0  0  0
  -42.0692 -109.4618  221.8564 H   0  0  0  0  0  0  0  0  0  0  0  0
  -41.8092 -111.8816  223.4890 H   0  0  0  0  0  0  0  0  0  0  0  0
  -40.3905 -111.9471  224.4870 H   0  0  0  0  0  0  0  0  0  0  0  0
  -40.2422 -113.9766  218.1792 H   0  0  0  0  0  0  0  0  0  0  0  0
  -38.8967 -112.9172  217.8882 H   0  0  0  0  0  0  0  0  0  0  0  0
  -41.9176 -111.9315  227.7122 H   0  0  0  0  0  0  0  0  0  0  0  0
  -40.7105 -111.5863  226.4275 H   0  0  0  0  0  0  0  0  0  0  0  0
  -41.6008 -113.1464  226.4275 H   0  0  0  0  0  0  0  0  0  0  0  0
  -40.0962 -112.5306  228.9204 H   0  0  0  0  0  0  0  0  0  0  0  0
  -37.9240 -112.6616  228.1077 H   0  0  0  0  0  0  0  0  0  0  0  0
  -38.4054 -113.6472  226.6852 H   0  0  0  0  0  0  0  0  0  0  0  0
  -38.6865 -111.8730  226.6852 H   0  0  0  0  0  0  0  0  0  0  0  0
  -40.8164 -118.6655  226.9779 H   0  0  0  0  0  0  0  0  0  0  0  0
  -40.8099 -117.2257  229.6158 H   0  0  0  0  0  0  0  0  0  0  0  0
  -40.3430 -117.1778  222.8888 H   0  0  0  0  0  0  0  0  0  0  0  0
  -37.3233 -114.4496  219.1579 H   0  0  0  0  0  0  0  0  0  0  0  0
  -39.5810 -114.7281  215.9661 H   0  0  0  0  0  0  0  0  0  0  0  0
  -37.8568 -114.5354  216.2858 H   0  0  0  0  0  0  0  0  0  0  0  0
  -39.6434 -116.7131  216.9871 H   0  0  0  0  0  0  0  0  0  0  0  0
  -37.9740 -116.7288  216.8169 H   0  0  0  0  0  0  0  0  0  0  0  0
  -37.7664 -116.8275  219.0158 H   0  0  0  0  0  0  0  0  0  0  0  0
  -39.5145 -116.6149  219.2084 H   0  0  0  0  0  0  0  0  0  0  0  0
  1  2  2  0
  1  4  1  0
  1 14  1  0
  2  3  1  0
  3 15  2  0
  3 18  1  0
  4 16  2  0
  4 17  1  0
  5 14  1  0
  5 17  2  0
  6 19  2  0
  6 20  1  0
  7  8  1  0
  7 24  1  0
  8 25  1  0
  9 24  1  0
  9 25  1  0
 10 28  1  0
 10 29  1  0
 12 11  1  0
 12 13  1  0
 12 14  1  0
 15 16  1  0
 18 19  1  0
 19 23  1  0
 20 21  2  0
 28 20  1  0
 21 22  1  0
 22 23  2  0
 22 24  1  0
 25 26  1  1
 25 27  1  0
 28 31  1  0
 29 30  1  0
 30 31  1  0
  2 32  1  0
  6 33  1  0
  7 34  1  0
  7 35  1  0
  8 36  1  0
  8 37  1  0
  9 38  1  0
  9 39  1  0
 10 40  1  0
 10 41  1  0
 11 42  1  0
 11 43  1  0
 11 44  1  0
 12 45  1  1
 13 46  1  0
 13 47  1  0
 13 48  1  0
 16 49  1  0
 17 50  1  0
 18 51  1  0
 28 52  1  1
 29 53  1  0
 29 54  1  0
 30 55  1  0
 30 56  1  0
 31 57  1  0
 31 58  1  0
M  CHG  1  30   1
M  END
>  <filename_input>  (22) 
7R9N_F97_docked.sdf

>  <pdb_id>  (22) 
7R9N_F97

>  <pose_rank>  (22) 
21

>  <num_atoms_heavy>  (22) 
31

>  <num_torsions>  (22) 
3

>  <pose>  (22) 
[-39.29377040830912, -115.50904569636376, 221.2847965683102, -0.12248707452012544, -0.43496384362436485, 0.5632648354480836, -6.951057791976366, 3.21521602268601, -1.840629813929364]

>  <energy>  (22) 
-1265.189237445873

>  <inter_energy>  (22) 
-1306.2176296720809

>  <intra_energy>  (22) 
31.059225012694256

>  <rmsd>  (22) 
2.13788

>  <sdf_rank>  (22) 
0

$$$$

     RDKit          3D

 58 62  0  0  0  0  0  0  0  0999 V2000
  -40.0468 -115.1787  226.3360 C   0  0  0  0  0  0  0  0  0  0  0  0
  -39.8872 -115.2076  224.9513 C   0  0  0  0  0  0  0  0  0  0  0  0
  -40.0692 -116.4134  224.2831 C   0  0  0  0  0  0  0  0  0  0  0  0
  -40.3884 -116.3808  226.9893 C   0  0  0  0  0  0  0  0  0  0  0  0
  -40.2392 -114.8002  228.5495 N   0  0  0  0  0  0  0  0  0  0  0  0
  -39.6062 -115.9916  220.6145 C   0  0  0  0  0  0  0  0  0  0  0  0
  -38.5237 -111.1762  220.7774 C   0  0  0  0  0  0  0  0  0  0  0  0
  -38.4472 -109.9349  221.7081 C   0  0  0  0  0  0  0  0  0  0  0  0
  -38.5259 -111.9177  223.0854 C   0  0  0  0  0  0  0  0  0  0  0  0
  -38.0973 -116.3735  217.8447 C   0  0  0  0  0  0  0  0  0  0  0  0
  -40.5154 -112.2757  225.9621 C   0  0  0  0  0  0  0  0  0  0  0  0
  -39.6412 -112.8205  227.0946 C   0  0  2  0  0  0  0  0  0  0  0  0
  -38.1604 -112.7533  226.7288 C   0  0  0  0  0  0  0  0  0  0  0  0
  -39.9554 -114.2303  227.3018 N   0  0  0  0  0  0  0  0  0  0  0  0
  -40.4061 -117.5160  224.9336 N   0  0  0  0  0  0  0  0  0  0  0  0
  -40.5572 -117.5424  226.2379 C   0  0  0  0  0  0  0  0  0  0  0  0
  -40.4901 -116.0667  228.4042 C   0  0  0  0  0  0  0  0  0  0  0  0
  -39.9547 -116.5530  222.8984 N   0  0  0  0  0  0  0  0  0  0  0  0
  -39.5727 -115.6134  221.9575 C   0  0  0  0  0  0  0  0  0  0  0  0
  -39.2250 -115.0673  219.6638 C   0  0  0  0  0  0  0  0  0  0  0  0
  -38.8126 -113.8729  220.0340 N   0  0  0  0  0  0  0  0  0  0  0  0
  -38.7963 -113.5476  221.3176 C   0  0  0  0  0  0  0  0  0  0  0  0
  -39.1568 -114.3914  222.2646 N   0  0  0  0  0  0  0  0  0  0  0  0
  -38.3514 -112.3137  221.6930 N   0  0  0  0  0  0  0  0  0  0  0  0
  -37.9237 -110.5060  223.0583 C   0  0  2  0  0  0  0  0  0  0  0  0
  -38.3620 -109.7788  224.1660 F   0  0  0  0  0  0  0  0  0  0  0  0
  -36.5360 -110.5570  223.0306 F   0  0  0  0  0  0  0  0  0  0  0  0
  -39.2692 -115.4259  218.2050 C   0  0  1  0  0  0  0  0  0  0  0  0
  -37.9651 -116.1118  216.3249 C   0  0  0  0  0  0  0  0  0  0  0  0
  -38.2428 -114.6696  216.1602 N   0  0  0  0  0  0  0  0  0  0  0  0
  -38.9495 -114.1787  217.3594 C   0  0  0  0  0  0  0  0  0  0  0  0
  -39.6224 -114.2944  224.3981 H   0  0  0  0  0  0  0  0  0  0  0  0
  -39.9285 -117.0016  220.3213 H   0  0  0  0  0  0  0  0  0  0  0  0
  -39.4985 -111.2259  220.2701 H   0  0  0  0  0  0  0  0  0  0  0  0
  -37.7679 -111.1555  219.9785 H   0  0  0  0  0  0  0  0  0  0  0  0
  -37.7501 -109.1860  221.3042 H   0  0  0  0  0  0  0  0  0  0  0  0
  -39.4160 -109.4244  221.8124 H   0  0  0  0  0  0  0  0  0  0  0  0
  -39.5878 -111.8998  223.3716 H   0  0  0  0  0  0  0  0  0  0  0  0
  -38.0616 -112.5978  223.8148 H   0  0  0  0  0  0  0  0  0  0  0  0
  -37.1775 -116.1018  218.3833 H   0  0  0  0  0  0  0  0  0  0  0  0
  -38.2669 -117.4272  218.1111 H   0  0  0  0  0  0  0  0  0  0  0  0
  -41.3759 -111.7394  226.3886 H   0  0  0  0  0  0  0  0  0  0  0  0
  -39.9242 -111.5859  225.3419 H   0  0  0  0  0  0  0  0  0  0  0  0
  -40.8742 -113.1104  225.3419 H   0  0  0  0  0  0  0  0  0  0  0  0
  -39.8377 -112.2142  227.9912 H   0  0  0  0  0  0  0  0  0  0  0  0
  -37.5566 -112.7258  227.6478 H   0  0  0  0  0  0  0  0  0  0  0  0
  -37.8882 -113.6400  226.1375 H   0  0  0  0  0  0  0  0  0  0  0  0
  -37.9697 -111.8455  226.1375 H   0  0  0  0  0  0  0  0  0  0  0  0
  -40.8184 -118.4858  226.7397 H   0  0  0  0  0  0  0  0  0  0  0  0
  -40.7357 -116.7751  229.2091 H   0  0  0  0  0  0  0  0  0  0  0  0
  -40.1870 -117.4847  222.5258 H   0  0  0  0  0  0  0  0  0  0  0  0
  -40.2612 -115.8621  218.0160 H   0  0  0  0  0  0  0  0  0  0  0  0
  -36.9493 -116.3520  215.9781 H   0  0  0  0  0  0  0  0  0  0  0  0
  -38.6542 -116.7353  215.7365 H   0  0  0  0  0  0  0  0  0  0  0  0
  -37.3563 -114.1575  216.0475 H   0  0  0  0  0  0  0  0  0  0  0  0
  -38.8270 -114.5200  215.3253 H   0  0  0  0  0  0  0  0  0  0  0  0
  -39.8780 -113.6638  217.0717 H   0  0  0  0  0  0  0  0  0  0  0  0
  -38.3370 -113.4578  217.9208 H   0  0  0  0  0  0  0  0  0  0  0  0
  1  2  2  0
  1  4  1  0
  1 14  1  0
  2  3  1  0
  3 15  2  0
  3 18  1  0
  4 16  2  0
  4 17  1  0
  5 14  1  0
  5 17  2  0
  6 19  2  0
  6 20  1  0
  7  8  1  0
  7 24  1  0
  8 25  1  0
  9 24  1  0
  9 25  1  0
 10 28  1  0
 10 29  1  0
 12 11  1  0
 12 13  1  0
 12 14  1  0
 15 16  1  0
 18 19  1  0
 19 23  1  0
 20 21  2  0
 28 20  1  0
 21 22  1  0
 22 23  2  0
 22 24  1  0
 25 26  1  1
 25 27  1  0
 28 31  1  0
 29 30  1  0
 30 31  1  0
  2 32  1  0
  6 33  1  0
  7 34  1  0
  7 35  1  0
  8 36  1  0
  8 37  1  0
  9 38  1  0
  9 39  1  0
 10 40  1  0
 10 41  1  0
 11 42  1  0
 11 43  1  0
 11 44  1  0
 12 45  1  1
 13 46  1  0
 13 47  1  0
 13 48  1  0
 16 49  1  0
 17 50  1  0
 18 51  1  0
 28 52  1  6
 29 53  1  0
 29 54  1  0
 30 55  1  0
 30 56  1  0
 31 57  1  0
 31 58  1  0
M  CHG  1  30   1
M  END
>  <filename_input>  (23) 
7R9N_F97_docked.sdf

>  <pdb_id>  (23) 
7R9N_F97

>  <pose_rank>  (23) 
22

>  <num_atoms_heavy>  (23) 
31

>  <num_torsions>  (23) 
3

>  <pose>  (23) 
[-39.606191489961844, -115.99159163463835, 220.61454470044464, -0.08185465207548556, -0.05792697125998428, 0.17088189497979697, 12.418444405520502, 3.038242939725532, 7.1512179178138]

>  <energy>  (23) 
-1531.0638990005473

>  <inter_energy>  (23) 
-1569.8889132063052

>  <intra_energy>  (23) 
36.66683032368289

>  <rmsd>  (23) 
0.889646

>  <sdf_rank>  (23) 
0

$$$$

     RDKit          3D

 58 62  0  0  0  0  0  0  0  0999 V2000
  -39.6117 -115.0918  225.5883 C   0  0  0  0  0  0  0  0  0  0  0  0
  -39.4073 -115.1045  224.2092 C   0  0  0  0  0  0  0  0  0  0  0  0
  -39.6365 -116.2850  223.5110 C   0  0  0  0  0  0  0  0  0  0  0  0
  -40.0446 -116.2836  226.2055 C   0  0  0  0  0  0  0  0  0  0  0  0
  -39.8565 -114.7435  227.8015 N   0  0  0  0  0  0  0  0  0  0  0  0
  -39.2547 -115.7121  219.8656 C   0  0  0  0  0  0  0  0  0  0  0  0
  -37.2258 -111.2261  220.2485 C   0  0  0  0  0  0  0  0  0  0  0  0
  -36.8138 -110.1134  221.2510 C   0  0  0  0  0  0  0  0  0  0  0  0
  -37.1505 -112.1637  222.4829 C   0  0  0  0  0  0  0  0  0  0  0  0
  -38.7236 -116.4606  217.0749 C   0  0  0  0  0  0  0  0  0  0  0  0
  -40.1500 -112.0494  225.5690 C   0  0  0  0  0  0  0  0  0  0  0  0
  -39.0953 -112.7760  226.4077 C   0  0  2  0  0  0  0  0  0  0  0  0
  -37.7441 -112.7957  225.6972 C   0  0  0  0  0  0  0  0  0  0  0  0
  -39.4979 -114.1684  226.5757 N   0  0  0  0  0  0  0  0  0  0  0  0
  -40.0589 -117.3776  224.1276 N   0  0  0  0  0  0  0  0  0  0  0  0
  -40.2553 -117.4191  225.4254 C   0  0  0  0  0  0  0  0  0  0  0  0
  -40.1756 -115.9902  227.6223 C   0  0  0  0  0  0  0  0  0  0  0  0
  -39.4837 -116.4055  222.1282 N   0  0  0  0  0  0  0  0  0  0  0  0
  -39.0159 -115.4728  221.2197 C   0  0  0  0  0  0  0  0  0  0  0  0
  -38.7918 -114.7932  218.9463 C   0  0  0  0  0  0  0  0  0  0  0  0
  -38.1161 -113.7384  219.3518 N   0  0  0  0  0  0  0  0  0  0  0  0
  -37.9105 -113.5422  220.6452 C   0  0  0  0  0  0  0  0  0  0  0  0
  -38.3375 -114.3858  221.5641 N   0  0  0  0  0  0  0  0  0  0  0  0
  -37.1948 -112.4553  221.0549 N   0  0  0  0  0  0  0  0  0  0  0  0
  -36.2852 -110.8958  222.4886 C   0  0  2  0  0  0  0  0  0  0  0  0
  -36.4602 -110.2040  223.6881 F   0  0  0  0  0  0  0  0  0  0  0  0
  -34.9448 -111.2068  222.2999 F   0  0  0  0  0  0  0  0  0  0  0  0
  -39.0484 -115.0006  217.4801 C   0  0  1  0  0  0  0  0  0  0  0  0
  -38.4550 -116.2917  215.5599 C   0  0  0  0  0  0  0  0  0  0  0  0
  -37.7719 -114.9870  215.4363 N   0  0  0  0  0  0  0  0  0  0  0  0
  -38.0192 -114.1999  216.6601 C   0  0  0  0  0  0  0  0  0  0  0  0
  -39.0713 -114.1984  223.6838 H   0  0  0  0  0  0  0  0  0  0  0  0
  -39.7984 -116.6109  219.5394 H   0  0  0  0  0  0  0  0  0  0  0  0
  -38.2357 -111.0426  219.8530 H   0  0  0  0  0  0  0  0  0  0  0  0
  -36.5624 -111.2758  219.3725 H   0  0  0  0  0  0  0  0  0  0  0  0
  -36.0244 -109.4766  220.8251 H   0  0  0  0  0  0  0  0  0  0  0  0
  -37.6469 -109.4399  221.5009 H   0  0  0  0  0  0  0  0  0  0  0  0
  -38.1546 -111.9708  222.8884 H   0  0  0  0  0  0  0  0  0  0  0  0
  -36.7619 -112.9840  223.1042 H   0  0  0  0  0  0  0  0  0  0  0  0
  -37.8359 -116.8388  217.6031 H   0  0  0  0  0  0  0  0  0  0  0  0
  -39.5140 -117.1860  217.3179 H   0  0  0  0  0  0  0  0  0  0  0  0
  -40.8705 -111.5531  226.2357 H   0  0  0  0  0  0  0  0  0  0  0  0
  -39.6592 -111.2969  224.9343 H   0  0  0  0  0  0  0  0  0  0  0  0
  -40.6782 -112.7762  224.9343 H   0  0  0  0  0  0  0  0  0  0  0  0
  -39.0099 -112.2486  227.3692 H   0  0  0  0  0  0  0  0  0  0  0  0
  -36.9370 -112.8075  226.4445 H   0  0  0  0  0  0  0  0  0  0  0  0
  -37.6741 -113.6950  225.0676 H   0  0  0  0  0  0  0  0  0  0  0  0
  -37.6478 -111.8989  225.0676 H   0  0  0  0  0  0  0  0  0  0  0  0
  -40.5878 -118.3546  225.8990 H   0  0  0  0  0  0  0  0  0  0  0  0
  -40.4892 -116.6976  228.4042 H   0  0  0  0  0  0  0  0  0  0  0  0
  -39.7570 -117.3149  221.7293 H   0  0  0  0  0  0  0  0  0  0  0  0
  -40.0955 -114.7167  217.2985 H   0  0  0  0  0  0  0  0  0  0  0  0
  -37.8108 -117.1022  215.1886 H   0  0  0  0  0  0  0  0  0  0  0  0
  -39.3819 -116.3306  214.9688 H   0  0  0  0  0  0  0  0  0  0  0  0
  -36.7594 -115.1366  215.3201 H   0  0  0  0  0  0  0  0  0  0  0  0
  -38.1339 -114.4799  214.6162 H   0  0  0  0  0  0  0  0  0  0  0  0
  -38.4230 -113.2097  216.4024 H   0  0  0  0  0  0  0  0  0  0  0  0
  -37.0914 -114.0363  217.2280 H   0  0  0  0  0  0  0  0  0  0  0  0
  1  2  2  0
  1  4  1  0
  1 14  1  0
  2  3  1  0
  3 15  2  0
  3 18  1  0
  4 16  2  0
  4 17  1  0
  5 14  1  0
  5 17  2  0
  6 19  2  0
  6 20  1  0
  7  8  1  0
  7 24  1  0
  8 25  1  0
  9 24  1  0
  9 25  1  0
 10 28  1  0
 10 29  1  0
 12 11  1  0
 12 13  1  0
 12 14  1  0
 15 16  1  0
 18 19  1  0
 19 23  1  0
 20 21  2  0
 28 20  1  0
 21 22  1  0
 22 23  2  0
 22 24  1  0
 25 26  1  1
 25 27  1  0
 28 31  1  0
 29 30  1  0
 30 31  1  0
  2 32  1  0
  6 33  1  0
  7 34  1  0
  7 35  1  0
  8 36  1  0
  8 37  1  0
  9 38  1  0
  9 39  1  0
 10 40  1  0
 10 41  1  0
 11 42  1  0
 11 43  1  0
 11 44  1  0
 12 45  1  1
 13 46  1  0
 13 47  1  0
 13 48  1  0
 16 49  1  0
 17 50  1  0
 18 51  1  0
 28 52  1  6
 29 53  1  0
 29 54  1  0
 30 55  1  0
 30 56  1  0
 31 57  1  0
 31 58  1  0
M  CHG  1  30   1
M  END
>  <filename_input>  (24) 
7R9N_F97_docked.sdf

>  <pdb_id>  (24) 
7R9N_F97

>  <pose_rank>  (24) 
23

>  <num_atoms_heavy>  (24) 
31

>  <num_torsions>  (24) 
3

>  <pose>  (24) 
[-39.25467086749049, -115.7120692513217, 219.86560061924604, 0.004392424175288715, 0.049288155420199035, -0.023511245006483467, 12.624560377492221, 3.3260565350746654, 7.640818529661589]

>  <energy>  (24) 
-1042.5367379723095

>  <inter_energy>  (24) 
-1073.773797289923

>  <intra_energy>  (24) 
38.48740844580461

>  <rmsd>  (24) 
1.15763

>  <sdf_rank>  (24) 
0

$$$$

     RDKit          3D

 58 62  0  0  0  0  0  0  0  0999 V2000
  -40.2351 -114.9632  226.2558 C   0  0  0  0  0  0  0  0  0  0  0  0
  -40.0185 -115.0855  224.8840 C   0  0  0  0  0  0  0  0  0  0  0  0
  -39.9970 -116.3572  224.3221 C   0  0  0  0  0  0  0  0  0  0  0  0
  -40.4240 -116.1429  227.0051 C   0  0  0  0  0  0  0  0  0  0  0  0
  -40.5676 -114.4310  228.4205 N   0  0  0  0  0  0  0  0  0  0  0  0
  -39.5604 -116.1628  220.6344 C   0  0  0  0  0  0  0  0  0  0  0  0
  -38.8973 -111.2728  220.4498 C   0  0  0  0  0  0  0  0  0  0  0  0
  -38.9087 -109.9690  221.2944 C   0  0  0  0  0  0  0  0  0  0  0  0
  -38.7847 -111.8531  222.8009 C   0  0  0  0  0  0  0  0  0  0  0  0
  -38.3914 -116.9539  217.9778 C   0  0  0  0  0  0  0  0  0  0  0  0
  -41.1634 -112.1877  225.6611 C   0  0  0  0  0  0  0  0  0  0  0  0
  -40.2065 -112.5152  226.8104 C   0  0  2  0  0  0  0  0  0  0  0  0
  -38.7544 -112.2768  226.4033 C   0  0  0  0  0  0  0  0  0  0  0  0
  -40.3205 -113.9333  227.1348 N   0  0  0  0  0  0  0  0  0  0  0  0
  -40.1956 -117.4384  225.0597 N   0  0  0  0  0  0  0  0  0  0  0  0
  -40.3927 -117.3761  226.3566 C   0  0  0  0  0  0  0  0  0  0  0  0
  -40.6260 -115.7284  228.3829 C   0  0  0  0  0  0  0  0  0  0  0  0
  -39.8090 -116.5953  222.9590 N   0  0  0  0  0  0  0  0  0  0  0  0
  -39.5306 -115.6927  221.9482 C   0  0  0  0  0  0  0  0  0  0  0  0
  -39.2818 -115.2761  219.6147 C   0  0  0  0  0  0  0  0  0  0  0  0
  -38.9668 -114.0286  219.8939 N   0  0  0  0  0  0  0  0  0  0  0  0
  -38.9508 -113.6166  221.1524 C   0  0  0  0  0  0  0  0  0  0  0  0
  -39.2159 -114.4217  222.1625 N   0  0  0  0  0  0  0  0  0  0  0  0
  -38.6069 -112.3266  221.4333 N   0  0  0  0  0  0  0  0  0  0  0  0
  -38.3083 -110.4003  222.6643 C   0  0  2  0  0  0  0  0  0  0  0  0
  -38.7839 -109.6395  223.7334 F   0  0  0  0  0  0  0  0  0  0  0  0
  -36.9223 -110.3346  222.6018 F   0  0  0  0  0  0  0  0  0  0  0  0
  -39.3264 -115.7356  218.1845 C   0  0  1  0  0  0  0  0  0  0  0  0
  -38.1156 -116.8575  216.4578 C   0  0  0  0  0  0  0  0  0  0  0  0
  -38.0370 -115.4090  216.1751 N   0  0  0  0  0  0  0  0  0  0  0  0
  -38.6753 -114.6704  217.2821 C   0  0  0  0  0  0  0  0  0  0  0  0
  -39.8676 -114.1934  224.2584 H   0  0  0  0  0  0  0  0  0  0  0  0
  -39.8000 -117.2142  220.4173 H   0  0  0  0  0  0  0  0  0  0  0  0
  -39.8748 -111.4397  219.9740 H   0  0  0  0  0  0  0  0  0  0  0  0
  -38.1636 -111.2420  219.6308 H   0  0  0  0  0  0  0  0  0  0  0  0
  -38.2883 -109.1927  220.8229 H   0  0  0  0  0  0  0  0  0  0  0  0
  -39.9157 -109.5371  221.3914 H   0  0  0  0  0  0  0  0  0  0  0  0
  -39.8377 -111.9064  223.1144 H   0  0  0  0  0  0  0  0  0  0  0  0
  -38.2473 -112.4400  223.5604 H   0  0  0  0  0  0  0  0  0  0  0  0
  -37.4655 -116.8569  218.5637 H   0  0  0  0  0  0  0  0  0  0  0  0
  -38.8186 -117.9144  218.3019 H   0  0  0  0  0  0  0  0  0  0  0  0
  -42.1292 -111.8572  226.0710 H   0  0  0  0  0  0  0  0  0  0  0  0
  -40.7335 -111.3856  225.0433 H   0  0  0  0  0  0  0  0  0  0  0  0
  -41.3151 -113.0851  225.0433 H   0  0  0  0  0  0  0  0  0  0  0  0
  -40.4718 -111.8709  227.6616 H   0  0  0  0  0  0  0  0  0  0  0  0
  -38.1328 -112.1747  227.3051 H   0  0  0  0  0  0  0  0  0  0  0  0
  -38.3966 -113.1282  225.8058 H   0  0  0  0  0  0  0  0  0  0  0  0
  -38.6877 -111.3556  225.8058 H   0  0  0  0  0  0  0  0  0  0  0  0
  -40.5336 -118.3018  226.9339 H   0  0  0  0  0  0  0  0  0  0  0  0
  -40.7977 -116.3945  229.2413 H   0  0  0  0  0  0  0  0  0  0  0  0
  -39.8886 -117.5794  222.6655 H   0  0  0  0  0  0  0  0  0  0  0  0
  -40.3807 -115.9463  217.9523 H   0  0  0  0  0  0  0  0  0  0  0  0
  -37.1667 -117.3529  216.2048 H   0  0  0  0  0  0  0  0  0  0  0  0
  -38.8975 -117.3529  215.8635 H   0  0  0  0  0  0  0  0  0  0  0  0
  -37.0501 -115.1257  216.0941 H   0  0  0  0  0  0  0  0  0  0  0  0
  -38.5215 -115.1994  215.2907 H   0  0  0  0  0  0  0  0  0  0  0  0
  -39.4391 -113.9817  216.8917 H   0  0  0  0  0  0  0  0  0  0  0  0
  -37.9434 -114.0653  217.8372 H   0  0  0  0  0  0  0  0  0  0  0  0
  1  2  2  0
  1  4  1  0
  1 14  1  0
  2  3  1  0
  3 15  2  0
  3 18  1  0
  4 16  2  0
  4 17  1  0
  5 14  1  0
  5 17  2  0
  6 19  2  0
  6 20  1  0
  7  8  1  0
  7 24  1  0
  8 25  1  0
  9 24  1  0
  9 25  1  0
 10 28  1  0
 10 29  1  0
 12 11  1  0
 12 13  1  0
 12 14  1  0
 15 16  1  0
 18 19  1  0
 19 23  1  0
 20 21  2  0
 28 20  1  0
 21 22  1  0
 22 23  2  0
 22 24  1  0
 25 26  1  1
 25 27  1  0
 28 31  1  0
 29 30  1  0
 30 31  1  0
  2 32  1  0
  6 33  1  0
  7 34  1  0
  7 35  1  0
  8 36  1  0
  8 37  1  0
  9 38  1  0
  9 39  1  0
 10 40  1  0
 10 41  1  0
 11 42  1  0
 11 43  1  0
 11 44  1  0
 12 45  1  1
 13 46  1  0
 13 47  1  0
 13 48  1  0
 16 49  1  0
 17 50  1  0
 18 51  1  0
 28 52  1  6
 29 53  1  0
 29 54  1  0
 30 55  1  0
 30 56  1  0
 31 57  1  0
 31 58  1  0
M  CHG  1  30   1
M  END
>  <filename_input>  (25) 
7R9N_F97_docked.sdf

>  <pdb_id>  (25) 
7R9N_F97

>  <pose_rank>  (25) 
24

>  <num_atoms_heavy>  (25) 
31

>  <num_torsions>  (25) 
3

>  <pose>  (25) 
[-39.560362290771764, -116.16280240792622, 220.63442219957608, -0.14423575601721933, -0.03108820671793954, 0.2600536523570978, 12.505077737423866, 3.092620712774782, 7.485128880714848]

>  <energy>  (25) 
-1432.4430334702479

>  <inter_energy>  (25) 
-1459.3582115640702

>  <intra_energy>  (25) 
33.96522161639094

>  <rmsd>  (25) 
1.24389

>  <sdf_rank>  (25) 
0

$$$$

     RDKit          3D

 58 62  0  0  0  0  0  0  0  0999 V2000
  -39.9720 -115.0120  226.2200 C   0  0  0  0  0  0  0  0  0  0  0  0
  -39.7540 -115.0060  224.8430 C   0  0  0  0  0  0  0  0  0  0  0  0
  -39.9930 -116.1720  224.1240 C   0  0  0  0  0  0  0  0  0  0  0  0
  -40.4280 -116.2070  226.8140 C   0  0  0  0  0  0  0  0  0  0  0  0
  -40.2340 -114.6950  228.4360 N   0  0  0  0  0  0  0  0  0  0  0  0
  -39.5040 -115.5830  220.4890 C   0  0  0  0  0  0  0  0  0  0  0  0
  -37.6020 -111.0490  220.9490 C   0  0  0  0  0  0  0  0  0  0  0  0
  -37.2660 -109.9230  221.9650 C   0  0  0  0  0  0  0  0  0  0  0  0
  -37.6150 -111.9760  223.1890 C   0  0  0  0  0  0  0  0  0  0  0  0
  -37.8270 -114.8380  217.3900 C   0  0  0  0  0  0  0  0  0  0  0  0
  -38.2580 -112.4540  228.0290 C   0  0  0  0  0  0  0  0  0  0  0  0
  -39.4310 -112.7170  227.0810 C   0  0  2  0  0  0  0  0  0  0  0  0
  -40.6370 -111.8540  227.4440 C   0  0  0  0  0  0  0  0  0  0  0  0
  -39.8550 -114.1060  227.2230 N   0  0  0  0  0  0  0  0  0  0  0  0
  -40.4370 -117.2680  224.7190 N   0  0  0  0  0  0  0  0  0  0  0  0
  -40.6470 -117.3270  226.0140 C   0  0  0  0  0  0  0  0  0  0  0  0
  -40.5690 -115.9340  228.2340 C   0  0  0  0  0  0  0  0  0  0  0  0
  -39.8280 -116.2730  222.7410 N   0  0  0  0  0  0  0  0  0  0  0  0
  -39.3380 -115.3330  221.8520 C   0  0  0  0  0  0  0  0  0  0  0  0
  -39.0180 -114.6570  219.5890 C   0  0  0  0  0  0  0  0  0  0  0  0
  -38.3880 -113.5850  220.0220 N   0  0  0  0  0  0  0  0  0  0  0  0
  -38.2510 -113.3790  221.3230 C   0  0  0  0  0  0  0  0  0  0  0  0
  -38.7030 -114.2290  222.2240 N   0  0  0  0  0  0  0  0  0  0  0  0
  -37.5820 -112.2740  221.7620 N   0  0  0  0  0  0  0  0  0  0  0  0
  -36.7810 -110.6880  223.2310 C   0  0  2  0  0  0  0  0  0  0  0  0
  -37.0310 -109.9960  224.4170 F   0  0  0  0  0  0  0  0  0  0  0  0
  -35.4260 -110.9680  223.1100 F   0  0  0  0  0  0  0  0  0  0  0  0
  -39.1970 -114.8760  218.1130 C   0  0  1  0  0  0  0  0  0  0  0  0
  -38.2640 -114.4640  215.9530 C   0  0  0  0  0  0  0  0  0  0  0  0
  -39.3890 -113.5220  216.1290 N   0  0  0  0  0  0  0  0  0  0  0  0
  -39.9220 -113.6640  217.4980 C   0  0  0  0  0  0  0  0  0  0  0  0
  -39.3999 -114.0967  224.3353 H   0  0  0  0  0  0  0  0  0  0  0  0
  -40.0098 -116.4957  220.1409 H   0  0  0  0  0  0  0  0  0  0  0  0
  -38.5952 -110.8909  220.5034 H   0  0  0  0  0  0  0  0  0  0  0  0
  -36.8952 -111.0863  220.1069 H   0  0  0  0  0  0  0  0  0  0  0  0
  -36.4717 -109.2694  221.5753 H   0  0  0  0  0  0  0  0  0  0  0  0
  -38.1259 -109.2685  222.1702 H   0  0  0  0  0  0  0  0  0  0  0  0
  -38.6422 -111.8053  223.5436 H   0  0  0  0  0  0  0  0  0  0  0  0
  -37.2384 -112.7846  223.8328 H   0  0  0  0  0  0  0  0  0  0  0  0
  -37.1629 -114.0750  217.8221 H   0  0  0  0  0  0  0  0  0  0  0  0
  -37.2500 -115.7719  217.4607 H   0  0  0  0  0  0  0  0  0  0  0  0
  -38.6037 -112.5315  229.0704 H   0  0  0  0  0  0  0  0  0  0  0  0
  -37.4672 -113.1972  227.8489 H   0  0  0  0  0  0  0  0  0  0  0  0
  -37.8602 -111.4444  227.8489 H   0  0  0  0  0  0  0  0  0  0  0  0
  -39.0945 -112.4870  226.0593 H   0  0  0  0  0  0  0  0  0  0  0  0
  -40.7261 -111.7902  228.5385 H   0  0  0  0  0  0  0  0  0  0  0  0
  -40.5042 -110.8446  227.0275 H   0  0  0  0  0  0  0  0  0  0  0  0
  -41.5496 -112.3054  227.0275 H   0  0  0  0  0  0  0  0  0  0  0  0
  -40.9974 -118.2649  226.4695 H   0  0  0  0  0  0  0  0  0  0  0  0
  -40.9004 -116.6490  229.0015 H   0  0  0  0  0  0  0  0  0  0  0  0
  -40.1103 -117.1720  222.3251 H   0  0  0  0  0  0  0  0  0  0  0  0
  -39.7289 -115.8318  217.9969 H   0  0  0  0  0  0  0  0  0  0  0  0
  -37.4373 -113.9821  215.4105 H   0  0  0  0  0  0  0  0  0  0  0  0
  -38.5530 -115.3479  215.3655 H   0  0  0  0  0  0  0  0  0  0  0  0
  -39.0579 -112.5573  215.9853 H   0  0  0  0  0  0  0  0  0  0  0  0
  -40.1288 -113.7301  215.4432 H   0  0  0  0  0  0  0  0  0  0  0  0
  -41.0071 -113.8422  217.4690 H   0  0  0  0  0  0  0  0  0  0  0  0
  -39.7566 -112.7524  218.0910 H   0  0  0  0  0  0  0  0  0  0  0  0
  1  2  2  0
  1  4  1  0
  1 14  1  0
  2  3  1  0
  3 15  2  0
  3 18  1  0
  4 16  2  0
  4 17  1  0
  5 14  1  0
  5 17  2  0
  6 19  2  0
  6 20  1  0
  7  8  1  0
  7 24  1  0
  8 25  1  0
  9 24  1  0
  9 25  1  0
 10 28  1  0
 10 29  1  0
 12 11  1  0
 12 13  1  0
 12 14  1  0
 15 16  1  0
 18 19  1  0
 19 23  1  0
 20 21  2  0
 28 20  1  0
 21 22  1  0
 22 23  2  0
 22 24  1  0
 25 26  1  1
 25 27  1  0
 28 31  1  0
 29 30  1  0
 30 31  1  0
  2 32  1  0
  6 33  1  0
  7 34  1  0
  7 35  1  0
  8 36  1  0
  8 37  1  0
  9 38  1  0
  9 39  1  0
 10 40  1  0
 10 41  1  0
 11 42  1  0
 11 43  1  0
 11 44  1  0
 12 45  1  6
 13 46  1  0
 13 47  1  0
 13 48  1  0
 16 49  1  0
 17 50  1  0
 18 51  1  0
 28 52  1  1
 29 53  1  0
 29 54  1  0
 30 55  1  0
 30 56  1  0
 31 57  1  0
 31 58  1  0
M  CHG  1  30   1
M  END
>  <filename_input>  (26) 
7R9N_F97_docked.sdf

>  <pdb_id>  (26) 
7R9N_F97

>  <pose_rank>  (26) 
25

>  <num_atoms_heavy>  (26) 
31

>  <num_torsions>  (26) 
3

>  <pose>  (26) 
[-39.504, -115.583, 220.489, 1e-06, 1e-06, 1e-06, 0.0, 0.0, 0.0]

>  <energy>  (26) 
-1454.772501919095

>  <inter_energy>  (26) 
-1447.6908396985289

>  <intra_energy>  (26) 
17.924586641366915

>  <rmsd>  (26) 
0.0

>  <sdf_rank>  (26) 
0

$$$$
