
     RDKit          3D

 46 48  0  0  0  0  0  0  0  0999 V2000
  -48.6525   17.1231    4.2253 N   0  0  0  0  0  0  0  0  0  0  0  0
  -48.9762   17.9381    5.3980 C   0  0  1  0  0  0  0  0  0  0  0  0
  -47.8440   17.9339    6.4366 C   0  0  0  0  0  0  0  0  0  0  0  0
  -46.6133   17.0982    6.0778 C   0  0  0  0  0  0  0  0  0  0  0  0
  -45.1866   17.5440    7.1125 S   0  0  0  0  0  0  0  0  0  0  0  0
  -49.2987   19.3584    4.9667 C   0  0  0  0  0  0  0  0  0  0  0  0
  -49.7976   20.1470    5.7805 O   0  0  0  0  0  0  0  0  0  0  0  0
  -49.0882   19.7307    3.7978 O   0  0  0  0  0  0  0  0  0  0  0  0
  -44.1730   16.0430    6.9060 C   0  0  0  0  0  0  0  0  0  0  0  0
  -44.6315   14.8273    7.7110 C   0  0  1  0  0  0  0  0  0  0  0  0
  -43.9850   13.6692    7.2107 O   0  0  0  0  0  0  0  0  0  0  0  0
  -44.2612   14.8444    9.1922 C   0  0  1  0  0  0  0  0  0  0  0  0
  -45.4478   14.7393    9.9639 O   0  0  0  0  0  0  0  0  0  0  0  0
  -43.3738   13.6114    9.3883 C   0  0  1  0  0  0  0  0  0  0  0  0
  -43.5117   12.9247   10.6081 O   0  0  0  0  0  0  0  0  0  0  0  0
  -43.8171   12.7142    8.2615 C   0  0  2  0  0  0  0  0  0  0  0  0
  -42.8328   11.7998    7.6956 N   0  0  0  0  0  0  0  0  0  0  0  0
  -41.4821   12.0063    7.5633 C   0  0  0  0  0  0  0  0  0  0  0  0
  -40.9558   10.9562    6.8878 N   0  0  0  0  0  0  0  0  0  0  0  0
  -41.9541   10.0966    6.5669 C   0  0  0  0  0  0  0  0  0  0  0  0
  -41.9800    8.8938    5.8689 C   0  0  0  0  0  0  0  0  0  0  0  0
  -40.8685    8.3637    5.3688 N   0  0  0  0  0  0  0  0  0  0  0  0
  -43.1840    8.2583    5.7145 N   0  0  0  0  0  0  0  0  0  0  0  0
  -44.3505    8.7848    6.2288 C   0  0  0  0  0  0  0  0  0  0  0  0
  -44.3227    9.9882    6.9126 N   0  0  0  0  0  0  0  0  0  0  0  0
  -43.1418   10.6222    7.0667 C   0  0  0  0  0  0  0  0  0  0  0  0
  -48.2895   16.2093    4.5318 H   0  0  0  0  0  0  0  0  0  0  0  0
  -49.5018   16.9830    3.6595 H   0  0  0  0  0  0  0  0  0  0  0  0
  -47.9386   17.6039    3.6595 H   0  0  0  0  0  0  0  0  0  0  0  0
  -49.8585   17.4935    5.8817 H   0  0  0  0  0  0  0  0  0  0  0  0
  -47.5153   18.9736    6.5815 H   0  0  0  0  0  0  0  0  0  0  0  0
  -48.2682   17.4685    7.3386 H   0  0  0  0  0  0  0  0  0  0  0  0
  -46.8466   16.0339    6.2288 H   0  0  0  0  0  0  0  0  0  0  0  0
  -46.3546   17.2950    5.0270 H   0  0  0  0  0  0  0  0  0  0  0  0
  -44.1852   15.7690    5.8407 H   0  0  0  0  0  0  0  0  0  0  0  0
  -43.1724   16.2980    7.2849 H   0  0  0  0  0  0  0  0  0  0  0  0
  -45.7270   14.8387    7.6118 H   0  0  0  0  0  0  0  0  0  0  0  0
  -43.7448   15.7654    9.5008 H   0  0  0  0  0  0  0  0  0  0  0  0
  -45.2182   14.7597   10.9267 H   0  0  0  0  0  0  0  0  0  0  0  0
  -42.3165   13.9147    9.3976 H   0  0  0  0  0  0  0  0  0  0  0  0
  -43.3847   13.5572   11.3591 H   0  0  0  0  0  0  0  0  0  0  0  0
  -44.6482   12.0937    8.6279 H   0  0  0  0  0  0  0  0  0  0  0  0
  -40.9230   12.8751    7.9409 H   0  0  0  0  0  0  0  0  0  0  0  0
  -40.9092    7.4720    4.8550 H   0  0  0  0  0  0  0  0  0  0  0  0
  -39.9665    8.8446    5.4952 H   0  0  0  0  0  0  0  0  0  0  0  0
  -45.3020    8.2491    6.0956 H   0  0  0  0  0  0  0  0  0  0  0  0
  2  1  1  0
  2  3  1  0
  2  6  1  0
  3  4  1  0
  4  5  1  0
  5  9  1  0
  6  7  2  0
  6  8  1  0
 10  9  1  0
 10 11  1  0
 10 12  1  0
 11 16  1  0
 12 13  1  0
 12 14  1  0
 14 15  1  0
 14 16  1  0
 16 17  1  0
 17 18  1  0
 17 26  1  0
 18 19  2  0
 19 20  1  0
 20 21  2  0
 20 26  1  0
 21 22  1  0
 21 23  1  0
 23 24  2  0
 24 25  1  0
 25 26  2  0
  1 27  1  0
  1 28  1  0
  1 29  1  0
  2 30  1  1
  3 31  1  0
  3 32  1  0
  4 33  1  0
  4 34  1  0
  9 35  1  0
  9 36  1  0
 10 37  1  1
 12 38  1  1
 13 39  1  0
 14 40  1  6
 15 41  1  0
 16 42  1  1
 18 43  1  0
 22 44  1  0
 22 45  1  0
 24 46  1  0
M  CHG  2   1   1   8  -1
M  END
>  <filename_input>  (1) 
7RC3_SAH_docked.sdf

>  <pdb_id>  (1) 
7RC3_SAH

>  <pose_rank>  (1) 
0

>  <num_atoms_heavy>  (1) 
26

>  <num_torsions>  (1) 
7

>  <pose>  (1) 
[-44.631513080617495, 14.827296266733551, 7.710993990504376, -1.9894775903512205, -5.642479772184267, -1.592599631577631, 0.009709296635865425, 12.231596126854356, -6.137827553866573, 0.826379723298261, -12.662525699124378, -1.0425461803814218, 0.026474796901341024]

>  <energy>  (1) 
-1063.8173740649004

>  <inter_energy>  (1) 
-1051.727663534089

>  <intra_energy>  (1) 
0.0

>  <rmsd>  (1) 
0.623409

>  <sdf_rank>  (1) 
0

$$$$

     RDKit          3D

 46 48  0  0  0  0  0  0  0  0999 V2000
  -41.5780   10.7940    5.1901 N   0  0  0  0  0  0  0  0  0  0  0  0
  -41.5862   10.0346    6.4422 C   0  0  1  0  0  0  0  0  0  0  0  0
  -41.6592   10.9498    7.6741 C   0  0  0  0  0  0  0  0  0  0  0  0
  -43.0462   11.4993    8.0152 C   0  0  0  0  0  0  0  0  0  0  0  0
  -42.9332   13.1195    8.8317 S   0  0  0  0  0  0  0  0  0  0  0  0
  -42.7421    9.0492    6.4408 C   0  0  0  0  0  0  0  0  0  0  0  0
  -42.5208    7.8461    6.2488 O   0  0  0  0  0  0  0  0  0  0  0  0
  -43.9115    9.4415    6.6076 O   0  0  0  0  0  0  0  0  0  0  0  0
  -43.9634   14.1095    7.6995 C   0  0  0  0  0  0  0  0  0  0  0  0
  -44.1615   15.5704    8.1029 C   0  0  1  0  0  0  0  0  0  0  0  0
  -44.9858   16.2088    7.1424 O   0  0  0  0  0  0  0  0  0  0  0  0
  -44.8957   15.7920    9.4232 C   0  0  1  0  0  0  0  0  0  0  0  0
  -44.0654   16.5507   10.2890 O   0  0  0  0  0  0  0  0  0  0  0  0
  -46.1524   16.5817    9.0448 C   0  0  1  0  0  0  0  0  0  0  0  0
  -46.5828   17.5568    9.9626 O   0  0  0  0  0  0  0  0  0  0  0  0
  -45.7340   17.2568    7.7641 C   0  0  2  0  0  0  0  0  0  0  0  0
  -46.7674   17.5304    6.7729 N   0  0  0  0  0  0  0  0  0  0  0  0
  -46.8417   17.0464    5.4904 C   0  0  0  0  0  0  0  0  0  0  0  0
  -47.8959   17.6342    4.8747 N   0  0  0  0  0  0  0  0  0  0  0  0
  -48.4790   18.5027    5.7375 C   0  0  0  0  0  0  0  0  0  0  0  0
  -49.5604   19.3698    5.6218 C   0  0  0  0  0  0  0  0  0  0  0  0
  -50.2558   19.4566    4.4925 N   0  0  0  0  0  0  0  0  0  0  0  0
  -49.9009   20.1318    6.7085 N   0  0  0  0  0  0  0  0  0  0  0  0
  -49.1987   20.0560    7.8932 C   0  0  0  0  0  0  0  0  0  0  0  0
  -48.1156   19.2006    8.0008 N   0  0  0  0  0  0  0  0  0  0  0  0
  -47.7715   18.4487    6.9346 C   0  0  0  0  0  0  0  0  0  0  0  0
  -41.5673   11.8023    5.4002 H   0  0  0  0  0  0  0  0  0  0  0  0
  -40.7396   10.5479    4.6448 H   0  0  0  0  0  0  0  0  0  0  0  0
  -42.4215   10.5658    4.6448 H   0  0  0  0  0  0  0  0  0  0  0  0
  -40.6361    9.4839    6.5061 H   0  0  0  0  0  0  0  0  0  0  0  0
  -41.3007   10.3767    8.5419 H   0  0  0  0  0  0  0  0  0  0  0  0
  -41.0421   11.8273    7.4310 H   0  0  0  0  0  0  0  0  0  0  0  0
  -43.6275   11.6055    7.0874 H   0  0  0  0  0  0  0  0  0  0  0  0
  -43.5377   10.7969    8.7045 H   0  0  0  0  0  0  0  0  0  0  0  0
  -43.4896   14.0925    6.7070 H   0  0  0  0  0  0  0  0  0  0  0  0
  -44.9631   13.6509    7.7196 H   0  0  0  0  0  0  0  0  0  0  0  0
  -43.1384   15.9655    8.1869 H   0  0  0  0  0  0  0  0  0  0  0  0
  -45.1494   14.8560    9.9423 H   0  0  0  0  0  0  0  0  0  0  0  0
  -44.2926   16.3430   11.2299 H   0  0  0  0  0  0  0  0  0  0  0  0
  -47.0145   15.9006    8.9907 H   0  0  0  0  0  0  0  0  0  0  0  0
  -46.4378   17.2285   10.8852 H   0  0  0  0  0  0  0  0  0  0  0  0
  -45.2820   18.2258    8.0224 H   0  0  0  0  0  0  0  0  0  0  0  0
  -46.1620   16.3081    5.0399 H   0  0  0  0  0  0  0  0  0  0  0  0
  -51.0533   20.1051    4.4274 H   0  0  0  0  0  0  0  0  0  0  0  0
  -49.9972   18.8752    3.6825 H   0  0  0  0  0  0  0  0  0  0  0  0
  -49.4991   20.6747    8.7517 H   0  0  0  0  0  0  0  0  0  0  0  0
  2  1  1  0
  2  3  1  0
  2  6  1  0
  3  4  1  0
  4  5  1  0
  5  9  1  0
  6  7  2  0
  6  8  1  0
 10  9  1  0
 10 11  1  0
 10 12  1  0
 11 16  1  0
 12 13  1  0
 12 14  1  0
 14 15  1  0
 14 16  1  0
 16 17  1  0
 17 18  1  0
 17 26  1  0
 18 19  2  0
 19 20  1  0
 20 21  2  0
 20 26  1  0
 21 22  1  0
 21 23  1  0
 23 24  2  0
 24 25  1  0
 25 26  2  0
  1 27  1  0
  1 28  1  0
  1 29  1  0
  2 30  1  1
  3 31  1  0
  3 32  1  0
  4 33  1  0
  4 34  1  0
  9 35  1  0
  9 36  1  0
 10 37  1  1
 12 38  1  1
 13 39  1  0
 14 40  1  6
 15 41  1  0
 16 42  1  1
 18 43  1  0
 22 44  1  0
 22 45  1  0
 24 46  1  0
M  CHG  2   1   1   8  -1
M  END
>  <filename_input>  (2) 
7RC3_SAH_docked.sdf

>  <pdb_id>  (2) 
7RC3_SAH

>  <pose_rank>  (2) 
1

>  <num_atoms_heavy>  (2) 
26

>  <num_torsions>  (2) 
7

>  <pose>  (2) 
[-44.161514779508536, 15.570353721593117, 8.102859023718455, 0.4263583749230433, -0.45536242175653374, -2.6624752383058103, -1.4862073529635496, -0.07126346035793948, 10.866052932564367, 12.759222756472122, 6.9901466233385845, 6.628894935672349, -1.0986386539941608]

>  <energy>  (2) 
-848.7497823502794

>  <inter_energy>  (2) 
-880.0057762076707

>  <intra_energy>  (2) 
39.35331038950059

>  <rmsd>  (2) 
9.11224

>  <sdf_rank>  (2) 
0

$$$$

     RDKit          3D

 46 48  0  0  0  0  0  0  0  0999 V2000
  -42.4702   21.2848    4.9321 N   0  0  0  0  0  0  0  0  0  0  0  0
  -41.8128   20.7687    6.1345 C   0  0  1  0  0  0  0  0  0  0  0  0
  -42.3966   19.4190    6.5796 C   0  0  0  0  0  0  0  0  0  0  0  0
  -43.6166   18.9293    5.7962 C   0  0  0  0  0  0  0  0  0  0  0  0
  -44.7085   17.9160    6.8381 S   0  0  0  0  0  0  0  0  0  0  0  0
  -40.3176   20.6497    5.8947 C   0  0  0  0  0  0  0  0  0  0  0  0
  -39.9007   19.9446    4.9660 O   0  0  0  0  0  0  0  0  0  0  0  0
  -39.5067   21.2346    6.6360 O   0  0  0  0  0  0  0  0  0  0  0  0
  -43.7721   16.3520    6.8389 C   0  0  0  0  0  0  0  0  0  0  0  0
  -44.3665   15.2333    7.6942 C   0  0  1  0  0  0  0  0  0  0  0  0
  -43.7715   14.0009    7.3243 O   0  0  0  0  0  0  0  0  0  0  0  0
  -44.0935   15.3385    9.1928 C   0  0  1  0  0  0  0  0  0  0  0  0
  -45.3325   15.3698    9.8846 O   0  0  0  0  0  0  0  0  0  0  0  0
  -43.3097   14.0687    9.5381 C   0  0  1  0  0  0  0  0  0  0  0  0
  -43.5750   13.4868   10.7910 O   0  0  0  0  0  0  0  0  0  0  0  0
  -43.7402   13.1195    8.4497 C   0  0  2  0  0  0  0  0  0  0  0  0
  -42.7877   12.1026    8.0210 N   0  0  0  0  0  0  0  0  0  0  0  0
  -41.4204   12.2119    7.9642 C   0  0  0  0  0  0  0  0  0  0  0  0
  -40.9264   11.0804    7.4060 N   0  0  0  0  0  0  0  0  0  0  0  0
  -41.9595   10.2630    7.0844 C   0  0  0  0  0  0  0  0  0  0  0  0
  -42.0244    9.0127    6.4784 C   0  0  0  0  0  0  0  0  0  0  0  0
  -40.9230    8.3753    6.0949 N   0  0  0  0  0  0  0  0  0  0  0  0
  -43.2572    8.4446    6.2920 N   0  0  0  0  0  0  0  0  0  0  0  0
  -44.4145    9.0831    6.6862 C   0  0  0  0  0  0  0  0  0  0  0  0
  -44.3468   10.3326    7.2782 N   0  0  0  0  0  0  0  0  0  0  0  0
  -43.1370   10.9008    7.4629 C   0  0  0  0  0  0  0  0  0  0  0  0
  -43.2515   21.8982    5.2044 H   0  0  0  0  0  0  0  0  0  0  0  0
  -41.7914   21.8211    4.3730 H   0  0  0  0  0  0  0  0  0  0  0  0
  -42.8300   20.4981    4.3730 H   0  0  0  0  0  0  0  0  0  0  0  0
  -41.9967   21.4837    6.9499 H   0  0  0  0  0  0  0  0  0  0  0  0
  -41.6059   18.6606    6.4815 H   0  0  0  0  0  0  0  0  0  0  0  0
  -42.7459   19.5707    7.6116 H   0  0  0  0  0  0  0  0  0  0  0  0
  -44.1792   19.8000    5.4284 H   0  0  0  0  0  0  0  0  0  0  0  0
  -43.2648   18.3103    4.9577 H   0  0  0  0  0  0  0  0  0  0  0  0
  -43.7128   15.9912    5.8015 H   0  0  0  0  0  0  0  0  0  0  0  0
  -42.7927   16.5850    7.2821 H   0  0  0  0  0  0  0  0  0  0  0  0
  -45.4496   15.3086    7.5175 H   0  0  0  0  0  0  0  0  0  0  0  0
  -43.5350   16.2445    9.4707 H   0  0  0  0  0  0  0  0  0  0  0  0
  -45.1658   15.3656   10.8604 H   0  0  0  0  0  0  0  0  0  0  0  0
  -42.2366   14.3021    9.6003 H   0  0  0  0  0  0  0  0  0  0  0  0
  -43.2924   14.1068   11.5093 H   0  0  0  0  0  0  0  0  0  0  0  0
  -44.6350   12.5840    8.7998 H   0  0  0  0  0  0  0  0  0  0  0  0
  -40.8277   13.0707    8.3121 H   0  0  0  0  0  0  0  0  0  0  0  0
  -40.9927    7.4500    5.6478 H   0  0  0  0  0  0  0  0  0  0  0  0
  -39.9997    8.8066    6.2449 H   0  0  0  0  0  0  0  0  0  0  0  0
  -45.3903    8.5999    6.5302 H   0  0  0  0  0  0  0  0  0  0  0  0
  2  1  1  0
  2  3  1  0
  2  6  1  0
  3  4  1  0
  4  5  1  0
  5  9  1  0
  6  7  2  0
  6  8  1  0
 10  9  1  0
 10 11  1  0
 10 12  1  0
 11 16  1  0
 12 13  1  0
 12 14  1  0
 14 15  1  0
 14 16  1  0
 16 17  1  0
 17 18  1  0
 17 26  1  0
 18 19  2  0
 19 20  1  0
 20 21  2  0
 20 26  1  0
 21 22  1  0
 21 23  1  0
 23 24  2  0
 24 25  1  0
 25 26  2  0
  1 27  1  0
  1 28  1  0
  1 29  1  0
  2 30  1  1
  3 31  1  0
  3 32  1  0
  4 33  1  0
  4 34  1  0
  9 35  1  0
  9 36  1  0
 10 37  1  1
 12 38  1  6
 13 39  1  0
 14 40  1  1
 15 41  1  0
 16 42  1  1
 18 43  1  0
 22 44  1  0
 22 45  1  0
 24 46  1  0
M  CHG  2   1   1   8  -1
M  END
>  <filename_input>  (3) 
7RC3_SAH_docked.sdf

>  <pdb_id>  (3) 
7RC3_SAH

>  <pose_rank>  (3) 
2

>  <num_atoms_heavy>  (3) 
26

>  <num_torsions>  (3) 
7

>  <pose>  (3) 
[-44.36647515704687, 15.233343892537288, 7.69415528389709, -4.143537859832096, 1.5255794705571648, -4.560231349492408, -12.562109611092227, 31.05928612924917, 10.863458739394085, 28.098441743125974, -11.849448557482152, 5.146763396931599, 2.349814951181166]

>  <energy>  (3) 
-787.3020415255631

>  <inter_energy>  (3) 
-789.741633869103

>  <intra_energy>  (3) 
0.0

>  <rmsd>  (3) 
3.88955

>  <sdf_rank>  (3) 
0

$$$$

     RDKit          3D

 46 48  0  0  0  0  0  0  0  0999 V2000
  -49.4027   17.2938    4.1889 N   0  0  0  0  0  0  0  0  0  0  0  0
  -49.0614   17.8126    5.5151 C   0  0  1  0  0  0  0  0  0  0  0  0
  -47.7118   17.2766    6.0169 C   0  0  0  0  0  0  0  0  0  0  0  0
  -47.1210   17.9922    7.2338 C   0  0  0  0  0  0  0  0  0  0  0  0
  -45.3944   17.4994    7.5171 S   0  0  0  0  0  0  0  0  0  0  0  0
  -49.0556   19.3313    5.4896 C   0  0  0  0  0  0  0  0  0  0  0  0
  -48.4277   19.9263    4.6036 O   0  0  0  0  0  0  0  0  0  0  0  0
  -49.6560   19.9837    6.3632 O   0  0  0  0  0  0  0  0  0  0  0  0
  -45.4806   15.7547    6.9957 C   0  0  0  0  0  0  0  0  0  0  0  0
  -45.4759   14.7311    8.1307 C   0  0  1  0  0  0  0  0  0  0  0  0
  -45.2255   13.4436    7.5929 O   0  0  0  0  0  0  0  0  0  0  0  0
  -44.3760   14.9142    9.1739 C   0  0  1  0  0  0  0  0  0  0  0  0
  -44.9750   15.0651   10.4517 O   0  0  0  0  0  0  0  0  0  0  0  0
  -43.5543   13.6233    9.1074 C   0  0  1  0  0  0  0  0  0  0  0  0
  -43.0432   13.1394   10.3252 O   0  0  0  0  0  0  0  0  0  0  0  0
  -44.5524   12.6350    8.5611 C   0  0  2  0  0  0  0  0  0  0  0  0
  -44.0439   11.5366    7.7486 N   0  0  0  0  0  0  0  0  0  0  0  0
  -44.7569   10.4863    7.2263 C   0  0  0  0  0  0  0  0  0  0  0  0
  -43.8860    9.6349    6.6323 N   0  0  0  0  0  0  0  0  0  0  0  0
  -42.6276   10.1148    6.7896 C   0  0  0  0  0  0  0  0  0  0  0  0
  -41.3780    9.6388    6.4067 C   0  0  0  0  0  0  0  0  0  0  0  0
  -41.2513    8.4974    5.7378 N   0  0  0  0  0  0  0  0  0  0  0  0
  -40.2732   10.3823    6.7289 N   0  0  0  0  0  0  0  0  0  0  0  0
  -40.3786   11.5728    7.4175 C   0  0  0  0  0  0  0  0  0  0  0  0
  -41.6229   12.0374    7.8074 N   0  0  0  0  0  0  0  0  0  0  0  0
  -42.7161   11.3101    7.4968 C   0  0  0  0  0  0  0  0  0  0  0  0
  -49.9661   16.4375    4.2897 H   0  0  0  0  0  0  0  0  0  0  0  0
  -49.9436   18.0018    3.6721 H   0  0  0  0  0  0  0  0  0  0  0  0
  -48.5385   17.0773    3.6721 H   0  0  0  0  0  0  0  0  0  0  0  0
  -49.8294   17.4615    6.2200 H   0  0  0  0  0  0  0  0  0  0  0  0
  -47.8467   16.2173    6.2811 H   0  0  0  0  0  0  0  0  0  0  0  0
  -46.9995   17.4462    5.1960 H   0  0  0  0  0  0  0  0  0  0  0  0
  -47.1603   19.0784    7.0645 H   0  0  0  0  0  0  0  0  0  0  0  0
  -47.7109   17.7145    8.1197 H   0  0  0  0  0  0  0  0  0  0  0  0
  -46.4075   15.6181    6.4192 H   0  0  0  0  0  0  0  0  0  0  0  0
  -44.5665   15.5665    6.4135 H   0  0  0  0  0  0  0  0  0  0  0  0
  -46.4564   14.8611    8.6120 H   0  0  0  0  0  0  0  0  0  0  0  0
  -43.7492   15.8001    8.9942 H   0  0  0  0  0  0  0  0  0  0  0  0
  -44.2994   14.8949   11.1551 H   0  0  0  0  0  0  0  0  0  0  0  0
  -42.6451   13.7941    8.5123 H   0  0  0  0  0  0  0  0  0  0  0  0
  -43.5102   13.5815   11.0780 H   0  0  0  0  0  0  0  0  0  0  0  0
  -45.0795   12.1787    9.4119 H   0  0  0  0  0  0  0  0  0  0  0  0
  -45.8480   10.3578    7.2807 H   0  0  0  0  0  0  0  0  0  0  0  0
  -40.3168    8.1622    5.4634 H   0  0  0  0  0  0  0  0  0  0  0  0
  -42.0876    7.9479    5.4937 H   0  0  0  0  0  0  0  0  0  0  0  0
  -39.4748   12.1524    7.6565 H   0  0  0  0  0  0  0  0  0  0  0  0
  2  1  1  0
  2  3  1  0
  2  6  1  0
  3  4  1  0
  4  5  1  0
  5  9  1  0
  6  7  2  0
  6  8  1  0
 10  9  1  0
 10 11  1  0
 10 12  1  0
 11 16  1  0
 12 13  1  0
 12 14  1  0
 14 15  1  0
 14 16  1  0
 16 17  1  0
 17 18  1  0
 17 26  1  0
 18 19  2  0
 19 20  1  0
 20 21  2  0
 20 26  1  0
 21 22  1  0
 21 23  1  0
 23 24  2  0
 24 25  1  0
 25 26  2  0
  1 27  1  0
  1 28  1  0
  1 29  1  0
  2 30  1  1
  3 31  1  0
  3 32  1  0
  4 33  1  0
  4 34  1  0
  9 35  1  0
  9 36  1  0
 10 37  1  1
 12 38  1  6
 13 39  1  0
 14 40  1  6
 15 41  1  0
 16 42  1  1
 18 43  1  0
 22 44  1  0
 22 45  1  0
 24 46  1  0
M  CHG  2   1   1   8  -1
M  END
>  <filename_input>  (4) 
7RC3_SAH_docked.sdf

>  <pdb_id>  (4) 
7RC3_SAH

>  <pose_rank>  (4) 
3

>  <num_atoms_heavy>  (4) 
26

>  <num_torsions>  (4) 
7

>  <pose>  (4) 
[-45.47585509900181, 14.731075623325555, 8.130690063612931, 1.1602631401871175, -5.470776938310198, 0.6140937664649578, -2.6321838400637683, 0.16155416618805682, -0.34353111098868994, -2.567812738912756, 0.3939860820630887, -4.4109825331043355, 2.4945636234393276]

>  <energy>  (4) 
-860.5526351371888

>  <inter_energy>  (4) 
-883.5264694772236

>  <intra_energy>  (4) 
31.995436705170427

>  <rmsd>  (4) 
1.90431

>  <sdf_rank>  (4) 
0

$$$$

     RDKit          3D

 46 48  0  0  0  0  0  0  0  0999 V2000
  -44.5666   10.1324    7.1646 N   0  0  0  0  0  0  0  0  0  0  0  0
  -43.2759   10.4468    6.5487 C   0  0  1  0  0  0  0  0  0  0  0  0
  -42.4019   11.3290    7.4534 C   0  0  0  0  0  0  0  0  0  0  0  0
  -42.9838   11.6539    8.8310 C   0  0  0  0  0  0  0  0  0  0  0  0
  -43.0138   13.4467    9.1302 S   0  0  0  0  0  0  0  0  0  0  0  0
  -42.5475    9.1625    6.1921 C   0  0  0  0  0  0  0  0  0  0  0  0
  -43.1329    8.0767    6.2993 O   0  0  0  0  0  0  0  0  0  0  0  0
  -41.3614    9.1883    5.8157 O   0  0  0  0  0  0  0  0  0  0  0  0
  -44.5357   13.8860    8.2282 C   0  0  0  0  0  0  0  0  0  0  0  0
  -44.3793   14.9824    7.1749 C   0  0  1  0  0  0  0  0  0  0  0  0
  -45.5754   15.7408    7.1139 O   0  0  0  0  0  0  0  0  0  0  0  0
  -43.2992   16.0217    7.4660 C   0  0  1  0  0  0  0  0  0  0  0  0
  -42.3731   16.0357    6.3905 O   0  0  0  0  0  0  0  0  0  0  0  0
  -44.0507   17.3534    7.5539 C   0  0  1  0  0  0  0  0  0  0  0  0
  -43.3876   18.4848    7.0452 O   0  0  0  0  0  0  0  0  0  0  0  0
  -45.2795   17.0843    6.7240 C   0  0  2  0  0  0  0  0  0  0  0  0
  -46.5056   17.7879    7.0801 N   0  0  0  0  0  0  0  0  0  0  0  0
  -46.8787   18.2368    8.3226 C   0  0  0  0  0  0  0  0  0  0  0  0
  -48.1358   18.7347    8.2348 N   0  0  0  0  0  0  0  0  0  0  0  0
  -48.5777   18.5877    6.9613 C   0  0  0  0  0  0  0  0  0  0  0  0
  -49.7800   18.8978    6.3347 C   0  0  0  0  0  0  0  0  0  0  0  0
  -50.7792   19.4643    7.0035 N   0  0  0  0  0  0  0  0  0  0  0  0
  -49.9096   18.6126    5.0008 N   0  0  0  0  0  0  0  0  0  0  0  0
  -48.8857   18.0303    4.2833 C   0  0  0  0  0  0  0  0  0  0  0  0
  -47.6947   17.7120    4.9131 N   0  0  0  0  0  0  0  0  0  0  0  0
  -47.5596   17.9867    6.2272 C   0  0  0  0  0  0  0  0  0  0  0  0
  -44.4723   10.1554    8.1901 H   0  0  0  0  0  0  0  0  0  0  0  0
  -45.2667   10.8275    6.8686 H   0  0  0  0  0  0  0  0  0  0  0  0
  -44.8686    9.1933    6.8686 H   0  0  0  0  0  0  0  0  0  0  0  0
  -43.4734   11.0219    5.6320 H   0  0  0  0  0  0  0  0  0  0  0  0
  -41.4435   10.8110    7.6056 H   0  0  0  0  0  0  0  0  0  0  0  0
  -42.3117   12.2937    6.9325 H   0  0  0  0  0  0  0  0  0  0  0  0
  -44.0110   11.2642    8.8869 H   0  0  0  0  0  0  0  0  0  0  0  0
  -42.3472   11.1851    9.5958 H   0  0  0  0  0  0  0  0  0  0  0  0
  -44.9047   12.9808    7.7238 H   0  0  0  0  0  0  0  0  0  0  0  0
  -45.2303   14.2859    8.9816 H   0  0  0  0  0  0  0  0  0  0  0  0
  -44.1174   14.4358    6.2569 H   0  0  0  0  0  0  0  0  0  0  0  0
  -42.7349   15.8161    8.3876 H   0  0  0  0  0  0  0  0  0  0  0  0
  -41.4506   16.0497    6.7495 H   0  0  0  0  0  0  0  0  0  0  0  0
  -44.2104   17.6187    8.6095 H   0  0  0  0  0  0  0  0  0  0  0  0
  -43.0613   19.0415    7.7961 H   0  0  0  0  0  0  0  0  0  0  0  0
  -45.0525   17.3558    5.6825 H   0  0  0  0  0  0  0  0  0  0  0  0
  -46.2627   18.1987    9.2332 H   0  0  0  0  0  0  0  0  0  0  0  0
  -51.6616   19.6860    6.5208 H   0  0  0  0  0  0  0  0  0  0  0  0
  -50.6710   19.6815    8.0045 H   0  0  0  0  0  0  0  0  0  0  0  0
  -49.0153   17.8190    3.2115 H   0  0  0  0  0  0  0  0  0  0  0  0
  2  1  1  0
  2  3  1  0
  2  6  1  0
  3  4  1  0
  4  5  1  0
  5  9  1  0
  6  7  2  0
  6  8  1  0
 10  9  1  0
 10 11  1  0
 10 12  1  0
 11 16  1  0
 12 13  1  0
 12 14  1  0
 14 15  1  0
 14 16  1  0
 16 17  1  0
 17 18  1  0
 17 26  1  0
 18 19  2  0
 19 20  1  0
 20 21  2  0
 20 26  1  0
 21 22  1  0
 21 23  1  0
 23 24  2  0
 24 25  1  0
 25 26  2  0
  1 27  1  0
  1 28  1  0
  1 29  1  0
  2 30  1  6
  3 31  1  0
  3 32  1  0
  4 33  1  0
  4 34  1  0
  9 35  1  0
  9 36  1  0
 10 37  1  6
 12 38  1  1
 13 39  1  0
 14 40  1  1
 15 41  1  0
 16 42  1  6
 18 43  1  0
 22 44  1  0
 22 45  1  0
 24 46  1  0
M  CHG  2   1   1   8  -1
M  END
>  <filename_input>  (5) 
7RC3_SAH_docked.sdf

>  <pdb_id>  (5) 
7RC3_SAH

>  <pose_rank>  (5) 
4

>  <num_atoms_heavy>  (5) 
26

>  <num_torsions>  (5) 
7

>  <pose>  (5) 
[-44.379305254639334, 14.982411640036435, 7.174857586445999, 1.8415967065729808, 1.33229244506711, 2.344897102775639, 0.088545592122371, -5.783080971811393, -0.7081675615567623, 5.739369868197535, -5.152663848034915, -0.9845809143512378, -2.7794760976984985]

>  <energy>  (5) 
-727.6657001369042

>  <inter_energy>  (5) 
-738.1663203828489

>  <intra_energy>  (5) 
0.0

>  <rmsd>  (5) 
8.93617

>  <sdf_rank>  (5) 
0

$$$$

     RDKit          3D

 46 48  0  0  0  0  0  0  0  0999 V2000
  -42.8980   14.2856   15.8842 N   0  0  0  0  0  0  0  0  0  0  0  0
  -41.7304   14.5578   15.0435 C   0  0  1  0  0  0  0  0  0  0  0  0
  -42.1207   15.1807   13.6943 C   0  0  0  0  0  0  0  0  0  0  0  0
  -43.2101   14.4452   12.9107 C   0  0  0  0  0  0  0  0  0  0  0  0
  -43.6087   15.3096   11.3620 S   0  0  0  0  0  0  0  0  0  0  0  0
  -40.7588   15.4593   15.7856 C   0  0  0  0  0  0  0  0  0  0  0  0
  -40.7197   15.4301   17.0229 O   0  0  0  0  0  0  0  0  0  0  0  0
  -40.0183   16.2434   15.1642 O   0  0  0  0  0  0  0  0  0  0  0  0
  -44.3631   13.9384   10.4272 C   0  0  0  0  0  0  0  0  0  0  0  0
  -44.5399   14.1863    8.9294 C   0  0  1  0  0  0  0  0  0  0  0  0
  -45.5242   15.1884    8.7382 O   0  0  0  0  0  0  0  0  0  0  0  0
  -43.3118   14.7342    8.2062 C   0  0  1  0  0  0  0  0  0  0  0  0
  -42.9633   13.8466    7.1549 O   0  0  0  0  0  0  0  0  0  0  0  0
  -43.7578   16.0893    7.6486 C   0  0  1  0  0  0  0  0  0  0  0  0
  -43.2401   16.4540    6.3926 O   0  0  0  0  0  0  0  0  0  0  0  0
  -45.2507   15.9153    7.5377 C   0  0  2  0  0  0  0  0  0  0  0  0
  -46.0850   17.1003    7.6956 N   0  0  0  0  0  0  0  0  0  0  0  0
  -46.2478   17.8607    8.8269 C   0  0  0  0  0  0  0  0  0  0  0  0
  -47.1924   18.7992    8.5759 N   0  0  0  0  0  0  0  0  0  0  0  0
  -47.6505   18.6326    7.3105 C   0  0  0  0  0  0  0  0  0  0  0  0
  -48.6193   19.2905    6.5601 C   0  0  0  0  0  0  0  0  0  0  0  0
  -49.3036   20.3127    7.0633 N   0  0  0  0  0  0  0  0  0  0  0  0
  -48.8483   18.8641    5.2783 N   0  0  0  0  0  0  0  0  0  0  0  0
  -48.1477   17.8094    4.7312 C   0  0  0  0  0  0  0  0  0  0  0  0
  -47.1926   17.1493    5.4852 N   0  0  0  0  0  0  0  0  0  0  0  0
  -46.9628   17.5608    6.7495 C   0  0  0  0  0  0  0  0  0  0  0  0
  -42.6288   14.3483   16.8764 H   0  0  0  0  0  0  0  0  0  0  0  0
  -43.6342   14.9774   15.6837 H   0  0  0  0  0  0  0  0  0  0  0  0
  -43.2522   13.3394   15.6837 H   0  0  0  0  0  0  0  0  0  0  0  0
  -41.2432   13.5961   14.8252 H   0  0  0  0  0  0  0  0  0  0  0  0
  -42.4753   16.2043   13.8853 H   0  0  0  0  0  0  0  0  0  0  0  0
  -41.2170   15.1291   13.0692 H   0  0  0  0  0  0  0  0  0  0  0  0
  -42.8578   13.4303   12.6740 H   0  0  0  0  0  0  0  0  0  0  0  0
  -44.1180   14.4076   13.5306 H   0  0  0  0  0  0  0  0  0  0  0  0
  -43.7249   13.0512   10.5515 H   0  0  0  0  0  0  0  0  0  0  0  0
  -45.3768   13.8141   10.8359 H   0  0  0  0  0  0  0  0  0  0  0  0
  -44.7875   13.1950    8.5218 H   0  0  0  0  0  0  0  0  0  0  0  0
  -42.4325   14.8372    8.8591 H   0  0  0  0  0  0  0  0  0  0  0  0
  -42.6297   12.9967    7.5375 H   0  0  0  0  0  0  0  0  0  0  0  0
  -43.3973   16.8956    8.3042 H   0  0  0  0  0  0  0  0  0  0  0  0
  -42.4372   17.0195    6.5182 H   0  0  0  0  0  0  0  0  0  0  0  0
  -45.4722   15.5057    6.5412 H   0  0  0  0  0  0  0  0  0  0  0  0
  -45.7047   17.7304    9.7746 H   0  0  0  0  0  0  0  0  0  0  0  0
  -50.0170   20.7865    6.4909 H   0  0  0  0  0  0  0  0  0  0  0  0
  -49.1205   20.6312    8.0255 H   0  0  0  0  0  0  0  0  0  0  0  0
  -48.3477   17.4931    3.6968 H   0  0  0  0  0  0  0  0  0  0  0  0
  2  1  1  0
  2  3  1  0
  2  6  1  0
  3  4  1  0
  4  5  1  0
  5  9  1  0
  6  7  2  0
  6  8  1  0
 10  9  1  0
 10 11  1  0
 10 12  1  0
 11 16  1  0
 12 13  1  0
 12 14  1  0
 14 15  1  0
 14 16  1  0
 16 17  1  0
 17 18  1  0
 17 26  1  0
 18 19  2  0
 19 20  1  0
 20 21  2  0
 20 26  1  0
 21 22  1  0
 21 23  1  0
 23 24  2  0
 24 25  1  0
 25 26  2  0
  1 27  1  0
  1 28  1  0
  1 29  1  0
  2 30  1  6
  3 31  1  0
  3 32  1  0
  4 33  1  0
  4 34  1  0
  9 35  1  0
  9 36  1  0
 10 37  1  6
 12 38  1  1
 13 39  1  0
 14 40  1  1
 15 41  1  0
 16 42  1  6
 18 43  1  0
 22 44  1  0
 22 45  1  0
 24 46  1  0
M  CHG  2   1   1   8  -1
M  END
>  <filename_input>  (6) 
7RC3_SAH_docked.sdf

>  <pdb_id>  (6) 
7RC3_SAH

>  <pose_rank>  (6) 
5

>  <num_atoms_heavy>  (6) 
26

>  <num_torsions>  (6) 
7

>  <pose>  (6) 
[-44.539893762753415, 14.186267869953731, 8.92935526177514, -2.5257985646670162, -1.7431429099998355, -1.4990975076641124, -0.5597970731281428, 1.869836001467633, 4.869000051368464, -5.471302923059381, 0.16364165892246157, -1.9244016382714992, 3.8548246952484204]

>  <energy>  (6) 
-668.6009501386783

>  <inter_energy>  (6) 
-663.8280554469486

>  <intra_energy>  (6) 
0.3163803087377739

>  <rmsd>  (6) 
9.12995

>  <sdf_rank>  (6) 
0

$$$$

     RDKit          3D

 46 48  0  0  0  0  0  0  0  0999 V2000
  -38.6418   21.2959    5.7588 N   0  0  0  0  0  0  0  0  0  0  0  0
  -39.5963   21.9386    4.8533 C   0  0  1  0  0  0  0  0  0  0  0  0
  -41.0479   21.5450    5.1675 C   0  0  0  0  0  0  0  0  0  0  0  0
  -41.2725   20.0824    5.5576 C   0  0  0  0  0  0  0  0  0  0  0  0
  -42.8714   19.8589    6.3933 S   0  0  0  0  0  0  0  0  0  0  0  0
  -39.4284   23.4471    4.9122 C   0  0  0  0  0  0  0  0  0  0  0  0
  -38.5098   23.9860    4.2804 O   0  0  0  0  0  0  0  0  0  0  0  0
  -40.1900   24.1445    5.6070 O   0  0  0  0  0  0  0  0  0  0  0  0
  -42.6885   18.1346    6.9559 C   0  0  0  0  0  0  0  0  0  0  0  0
  -43.8324   17.6026    7.8189 C   0  0  1  0  0  0  0  0  0  0  0  0
  -45.0679   17.9694    7.2286 O   0  0  0  0  0  0  0  0  0  0  0  0
  -43.9157   16.0822    7.9320 C   0  0  1  0  0  0  0  0  0  0  0  0
  -43.8434   15.7185    9.3020 O   0  0  0  0  0  0  0  0  0  0  0  0
  -45.2832   15.7202    7.3447 C   0  0  1  0  0  0  0  0  0  0  0  0
  -45.9696   14.6564    7.9577 O   0  0  0  0  0  0  0  0  0  0  0  0
  -46.0648   16.9935    7.5420 C   0  0  2  0  0  0  0  0  0  0  0  0
  -47.1142   17.3013    6.5780 N   0  0  0  0  0  0  0  0  0  0  0  0
  -47.3054   16.7322    5.3435 C   0  0  0  0  0  0  0  0  0  0  0  0
  -48.3231   17.3821    4.7289 N   0  0  0  0  0  0  0  0  0  0  0  0
  -48.7665   18.3717    5.5430 C   0  0  0  0  0  0  0  0  0  0  0  0
  -49.7558   19.3395    5.4047 C   0  0  0  0  0  0  0  0  0  0  0  0
  -50.4963   19.4150    4.3036 N   0  0  0  0  0  0  0  0  0  0  0  0
  -49.9578   20.2143    6.4398 N   0  0  0  0  0  0  0  0  0  0  0  0
  -49.2066   20.1531    7.5950 C   0  0  0  0  0  0  0  0  0  0  0  0
  -48.2147   19.1962    7.7242 N   0  0  0  0  0  0  0  0  0  0  0  0
  -48.0071   18.3326    6.7085 C   0  0  0  0  0  0  0  0  0  0  0  0
  -38.9161   21.4806    6.7343 H   0  0  0  0  0  0  0  0  0  0  0  0
  -38.6386   20.2799    5.5895 H   0  0  0  0  0  0  0  0  0  0  0  0
  -37.6992   21.6751    5.5895 H   0  0  0  0  0  0  0  0  0  0  0  0
  -39.3806   21.5861    3.8339 H   0  0  0  0  0  0  0  0  0  0  0  0
  -41.3950   22.1736    6.0008 H   0  0  0  0  0  0  0  0  0  0  0  0
  -41.6066   21.6935    4.2317 H   0  0  0  0  0  0  0  0  0  0  0  0
  -41.2534   19.4624    4.6492 H   0  0  0  0  0  0  0  0  0  0  0  0
  -40.4735   19.7817    6.2513 H   0  0  0  0  0  0  0  0  0  0  0  0
  -42.6085   17.4937    6.0656 H   0  0  0  0  0  0  0  0  0  0  0  0
  -41.7931   18.1172    7.5946 H   0  0  0  0  0  0  0  0  0  0  0  0
  -43.6373   18.0293    8.8139 H   0  0  0  0  0  0  0  0  0  0  0  0
  -43.1014   15.5617    7.4067 H   0  0  0  0  0  0  0  0  0  0  0  0
  -44.0023   16.5176    9.8644 H   0  0  0  0  0  0  0  0  0  0  0  0
  -45.1594   15.3665    6.3104 H   0  0  0  0  0  0  0  0  0  0  0  0
  -45.9101   14.7486    8.9416 H   0  0  0  0  0  0  0  0  0  0  0  0
  -46.5487   16.9460    8.5287 H   0  0  0  0  0  0  0  0  0  0  0  0
  -46.7310   15.8925    4.9251 H   0  0  0  0  0  0  0  0  0  0  0  0
  -51.2240   20.1392    4.2210 H   0  0  0  0  0  0  0  0  0  0  0  0
  -50.3425   18.7492    3.5329 H   0  0  0  0  0  0  0  0  0  0  0  0
  -49.3955   20.8641    8.4128 H   0  0  0  0  0  0  0  0  0  0  0  0
  2  1  1  0
  2  3  1  0
  2  6  1  0
  3  4  1  0
  4  5  1  0
  5  9  1  0
  6  7  2  0
  6  8  1  0
 10  9  1  0
 10 11  1  0
 10 12  1  0
 11 16  1  0
 12 13  1  0
 12 14  1  0
 14 15  1  0
 14 16  1  0
 16 17  1  0
 17 18  1  0
 17 26  1  0
 18 19  2  0
 19 20  1  0
 20 21  2  0
 20 26  1  0
 21 22  1  0
 21 23  1  0
 23 24  2  0
 24 25  1  0
 25 26  2  0
  1 27  1  0
  1 28  1  0
  1 29  1  0
  2 30  1  6
  3 31  1  0
  3 32  1  0
  4 33  1  0
  4 34  1  0
  9 35  1  0
  9 36  1  0
 10 37  1  1
 12 38  1  6
 13 39  1  0
 14 40  1  6
 15 41  1  0
 16 42  1  1
 18 43  1  0
 22 44  1  0
 22 45  1  0
 24 46  1  0
M  CHG  2   1   1   8  -1
M  END
>  <filename_input>  (7) 
7RC3_SAH_docked.sdf

>  <pdb_id>  (7) 
7RC3_SAH

>  <pose_rank>  (7) 
6

>  <num_atoms_heavy>  (7) 
26

>  <num_torsions>  (7) 
7

>  <pose>  (7) 
[-43.83235166052912, 17.602634831802742, 7.818916273174823, 1.028536810724719, 1.0834087054693695, -1.4677507525817421, 6.602894118349617, -8.71376900577797, 4.5494806727845125, 7.622116746520541, -0.12027036023928098, -1.72316820962824, -1.5270857262164375]

>  <energy>  (7) 
-602.192613014485

>  <inter_energy>  (7) 
-609.202279856483

>  <intra_energy>  (7) 
0.22455174613302756

>  <rmsd>  (7) 
8.75731

>  <sdf_rank>  (7) 
0

$$$$

     RDKit          3D

 46 48  0  0  0  0  0  0  0  0999 V2000
  -49.0309   19.3941    6.9658 N   0  0  0  0  0  0  0  0  0  0  0  0
  -48.2056   18.6494    6.0127 C   0  0  1  0  0  0  0  0  0  0  0  0
  -47.1757   17.7519    6.7159 C   0  0  0  0  0  0  0  0  0  0  0  0
  -46.0426   17.2206    5.8351 C   0  0  0  0  0  0  0  0  0  0  0  0
  -44.5986   16.7438    6.8313 S   0  0  0  0  0  0  0  0  0  0  0  0
  -49.0925   17.8254    5.0953 C   0  0  0  0  0  0  0  0  0  0  0  0
  -50.3234   17.8917    5.2121 O   0  0  0  0  0  0  0  0  0  0  0  0
  -48.5946   17.0668    4.2434 O   0  0  0  0  0  0  0  0  0  0  0  0
  -44.1123   15.2176    5.9611 C   0  0  0  0  0  0  0  0  0  0  0  0
  -43.1752   14.2920    6.7365 C   0  0  1  0  0  0  0  0  0  0  0  0
  -43.1733   14.6723    8.1021 O   0  0  0  0  0  0  0  0  0  0  0  0
  -43.5830   12.8208    6.7650 C   0  0  1  0  0  0  0  0  0  0  0  0
  -42.5271   12.0407    6.2254 O   0  0  0  0  0  0  0  0  0  0  0  0
  -43.7922   12.5011    8.2483 C   0  0  1  0  0  0  0  0  0  0  0  0
  -43.4075   11.2173    8.6755 O   0  0  0  0  0  0  0  0  0  0  0  0
  -42.9228   13.5297    8.9244 C   0  0  2  0  0  0  0  0  0  0  0  0
  -43.3299   14.0008   10.2426 N   0  0  0  0  0  0  0  0  0  0  0  0
  -42.9733   13.4791   11.4612 C   0  0  0  0  0  0  0  0  0  0  0  0
  -43.6580   14.1423   12.4242 N   0  0  0  0  0  0  0  0  0  0  0  0
  -44.4629   15.0613   11.8359 C   0  0  0  0  0  0  0  0  0  0  0  0
  -45.3790   15.9786   12.3399 C   0  0  0  0  0  0  0  0  0  0  0  0
  -45.6000   16.0843   13.6462 N   0  0  0  0  0  0  0  0  0  0  0  0
  -46.0470   16.7827   11.4543 N   0  0  0  0  0  0  0  0  0  0  0  0
  -45.8314   16.6963   10.0947 C   0  0  0  0  0  0  0  0  0  0  0  0
  -44.9276   15.7740    9.5958 N   0  0  0  0  0  0  0  0  0  0  0  0
  -44.2675   14.9760   10.4607 C   0  0  0  0  0  0  0  0  0  0  0  0
  -48.7552   19.1453    7.9265 H   0  0  0  0  0  0  0  0  0  0  0  0
  -48.8957   20.4048    6.8207 H   0  0  0  0  0  0  0  0  0  0  0  0
  -50.0225   19.1560    6.8207 H   0  0  0  0  0  0  0  0  0  0  0  0
  -47.6409   19.3806    5.4157 H   0  0  0  0  0  0  0  0  0  0  0  0
  -46.7236   18.3334    7.5329 H   0  0  0  0  0  0  0  0  0  0  0  0
  -47.7329   16.8652    7.0525 H   0  0  0  0  0  0  0  0  0  0  0  0
  -46.4020   16.3408    5.2813 H   0  0  0  0  0  0  0  0  0  0  0  0
  -45.7380   18.0191    5.1427 H   0  0  0  0  0  0  0  0  0  0  0  0
  -45.0275   14.6546    5.7259 H   0  0  0  0  0  0  0  0  0  0  0  0
  -43.5518   15.5410    5.0716 H   0  0  0  0  0  0  0  0  0  0  0  0
  -42.2113   14.3903    6.2158 H   0  0  0  0  0  0  0  0  0  0  0  0
  -44.4873   12.6086    6.1759 H   0  0  0  0  0  0  0  0  0  0  0  0
  -41.9962   11.6485    6.9633 H   0  0  0  0  0  0  0  0  0  0  0  0
  -44.8666   12.5243    8.4834 H   0  0  0  0  0  0  0  0  0  0  0  0
  -43.3986   11.1877    9.6651 H   0  0  0  0  0  0  0  0  0  0  0  0
  -41.9166   13.1008    9.0409 H   0  0  0  0  0  0  0  0  0  0  0  0
  -42.2550   12.6628   11.6275 H   0  0  0  0  0  0  0  0  0  0  0  0
  -46.2827   16.7701   13.9991 H   0  0  0  0  0  0  0  0  0  0  0  0
  -45.0886   15.4805   14.3056 H   0  0  0  0  0  0  0  0  0  0  0  0
  -46.3770   17.3597    9.4075 H   0  0  0  0  0  0  0  0  0  0  0  0
  2  1  1  0
  2  3  1  0
  2  6  1  0
  3  4  1  0
  4  5  1  0
  5  9  1  0
  6  7  2  0
  6  8  1  0
 10  9  1  0
 10 11  1  0
 10 12  1  0
 11 16  1  0
 12 13  1  0
 12 14  1  0
 14 15  1  0
 14 16  1  0
 16 17  1  0
 17 18  1  0
 17 26  1  0
 18 19  2  0
 19 20  1  0
 20 21  2  0
 20 26  1  0
 21 22  1  0
 21 23  1  0
 23 24  2  0
 24 25  1  0
 25 26  2  0
  1 27  1  0
  1 28  1  0
  1 29  1  0
  2 30  1  6
  3 31  1  0
  3 32  1  0
  4 33  1  0
  4 34  1  0
  9 35  1  0
  9 36  1  0
 10 37  1  6
 12 38  1  6
 13 39  1  0
 14 40  1  1
 15 41  1  0
 16 42  1  1
 18 43  1  0
 22 44  1  0
 22 45  1  0
 24 46  1  0
M  CHG  2   1   1   8  -1
M  END
>  <filename_input>  (8) 
7RC3_SAH_docked.sdf

>  <pdb_id>  (8) 
7RC3_SAH

>  <pose_rank>  (8) 
7

>  <num_atoms_heavy>  (8) 
26

>  <num_torsions>  (8) 
7

>  <pose>  (8) 
[-43.17523806475747, 14.291991516127984, 6.73652275459002, 0.3635219783660451, -1.9649006257225126, 1.8674795044625752, -4.11682763131125, 3.326593318239683, -1.3573134682474435, -5.806215532154199, -0.19037901467017088, 2.3697475526167735, -2.8857725189795267]

>  <energy>  (8) 
-577.0551013273741

>  <inter_energy>  (8) 
-626.095429431639

>  <intra_energy>  (8) 
64.11731955204083

>  <rmsd>  (8) 
5.30877

>  <sdf_rank>  (8) 
0

$$$$

     RDKit          3D

 46 48  0  0  0  0  0  0  0  0999 V2000
  -49.5641   19.5274    5.8803 N   0  0  0  0  0  0  0  0  0  0  0  0
  -48.7751   18.5853    5.0839 C   0  0  1  0  0  0  0  0  0  0  0  0
  -47.5806   18.0219    5.8689 C   0  0  0  0  0  0  0  0  0  0  0  0
  -47.7618   17.9332    7.3859 C   0  0  0  0  0  0  0  0  0  0  0  0
  -46.1589   17.9039    8.2428 S   0  0  0  0  0  0  0  0  0  0  0  0
  -49.6645   17.4592    4.5857 C   0  0  0  0  0  0  0  0  0  0  0  0
  -50.7822   17.2923    5.0918 O   0  0  0  0  0  0  0  0  0  0  0  0
  -49.2722   16.6885    3.6906 O   0  0  0  0  0  0  0  0  0  0  0  0
  -45.6459   16.1923    7.8819 C   0  0  0  0  0  0  0  0  0  0  0  0
  -44.3049   15.7703    8.4818 C   0  0  1  0  0  0  0  0  0  0  0  0
  -44.3234   16.0166    9.8777 O   0  0  0  0  0  0  0  0  0  0  0  0
  -43.9783   14.2825    8.3751 C   0  0  1  0  0  0  0  0  0  0  0  0
  -42.7506   14.1302    7.6792 O   0  0  0  0  0  0  0  0  0  0  0  0
  -43.8446   13.8060    9.8246 C   0  0  1  0  0  0  0  0  0  0  0  0
  -42.8629   12.8310   10.0784 O   0  0  0  0  0  0  0  0  0  0  0  0
  -43.4799   15.0766   10.5481 C   0  0  2  0  0  0  0  0  0  0  0  0
  -43.9053   15.2127   11.9359 N   0  0  0  0  0  0  0  0  0  0  0  0
  -44.9880   15.9098   12.4116 C   0  0  0  0  0  0  0  0  0  0  0  0
  -44.9566   15.8714   13.7657 N   0  0  0  0  0  0  0  0  0  0  0  0
  -43.8576   15.1815   14.1594 C   0  0  0  0  0  0  0  0  0  0  0  0
  -43.3353   14.8657   15.4092 C   0  0  0  0  0  0  0  0  0  0  0  0
  -43.9431   15.2507   16.5268 N   0  0  0  0  0  0  0  0  0  0  0  0
  -42.1768   14.1362   15.4635 N   0  0  0  0  0  0  0  0  0  0  0  0
  -41.5302   13.7201   14.3185 C   0  0  0  0  0  0  0  0  0  0  0  0
  -42.0465   14.0464   13.0762 N   0  0  0  0  0  0  0  0  0  0  0  0
  -43.1855   14.7671   13.0134 C   0  0  0  0  0  0  0  0  0  0  0  0
  -49.4100   19.3434    6.8820 H   0  0  0  0  0  0  0  0  0  0  0  0
  -49.2739   20.4907    5.6596 H   0  0  0  0  0  0  0  0  0  0  0  0
  -50.5634   19.4108    5.6596 H   0  0  0  0  0  0  0  0  0  0  0  0
  -48.3648   19.1351    4.2241 H   0  0  0  0  0  0  0  0  0  0  0  0
  -47.3782   17.0080    5.4935 H   0  0  0  0  0  0  0  0  0  0  0  0
  -46.7560   18.7320    5.7079 H   0  0  0  0  0  0  0  0  0  0  0  0
  -48.3359   18.8063    7.7298 H   0  0  0  0  0  0  0  0  0  0  0  0
  -48.2960   16.9999    7.6175 H   0  0  0  0  0  0  0  0  0  0  0  0
  -46.4205   15.5161    8.2728 H   0  0  0  0  0  0  0  0  0  0  0  0
  -45.5209   16.1367    6.7905 H   0  0  0  0  0  0  0  0  0  0  0  0
  -43.5629   16.3456    7.9088 H   0  0  0  0  0  0  0  0  0  0  0  0
  -44.7421   13.7075    7.8310 H   0  0  0  0  0  0  0  0  0  0  0  0
  -42.0111   14.0385    8.3310 H   0  0  0  0  0  0  0  0  0  0  0  0
  -44.7726   13.3040   10.1358 H   0  0  0  0  0  0  0  0  0  0  0  0
  -42.7521   12.7210   11.0560 H   0  0  0  0  0  0  0  0  0  0  0  0
  -42.3836   15.1668   10.5453 H   0  0  0  0  0  0  0  0  0  0  0  0
  -45.7502   16.4131   11.7987 H   0  0  0  0  0  0  0  0  0  0  0  0
  -43.5399   15.0066   17.4426 H   0  0  0  0  0  0  0  0  0  0  0  0
  -44.8173   15.7931   16.4770 H   0  0  0  0  0  0  0  0  0  0  0  0
  -40.6052   13.1294   14.3923 H   0  0  0  0  0  0  0  0  0  0  0  0
  2  1  1  0
  2  3  1  0
  2  6  1  0
  3  4  1  0
  4  5  1  0
  5  9  1  0
  6  7  2  0
  6  8  1  0
 10  9  1  0
 10 11  1  0
 10 12  1  0
 11 16  1  0
 12 13  1  0
 12 14  1  0
 14 15  1  0
 14 16  1  0
 16 17  1  0
 17 18  1  0
 17 26  1  0
 18 19  2  0
 19 20  1  0
 20 21  2  0
 20 26  1  0
 21 22  1  0
 21 23  1  0
 23 24  2  0
 24 25  1  0
 25 26  2  0
  1 27  1  0
  1 28  1  0
  1 29  1  0
  2 30  1  6
  3 31  1  0
  3 32  1  0
  4 33  1  0
  4 34  1  0
  9 35  1  0
  9 36  1  0
 10 37  1  6
 12 38  1  6
 13 39  1  0
 14 40  1  1
 15 41  1  0
 16 42  1  1
 18 43  1  0
 22 44  1  0
 22 45  1  0
 24 46  1  0
M  CHG  2   1   1   8  -1
M  END
>  <filename_input>  (9) 
7RC3_SAH_docked.sdf

>  <pdb_id>  (9) 
7RC3_SAH

>  <pose_rank>  (9) 
8

>  <num_atoms_heavy>  (9) 
26

>  <num_torsions>  (9) 
7

>  <pose>  (9) 
[-44.304924659505396, 15.770259567289468, 8.481826209844359, 1.0192606736365484, -2.028064720898051, 1.989751413114739, -1.1572186160204923, 4.004824948504617, -1.6370340898197953, -3.2727113097136415, 0.586892333379842, -0.5337332915004818, -3.1798125291014934]

>  <energy>  (9) 
-548.1020208386788

>  <inter_energy>  (9) 
-540.8387472991782

>  <intra_energy>  (9) 
0.947967796455222

>  <rmsd>  (9) 
6.11127

>  <sdf_rank>  (9) 
0

$$$$

     RDKit          3D

 46 48  0  0  0  0  0  0  0  0999 V2000
  -36.7546    7.6452    8.7917 N   0  0  0  0  0  0  0  0  0  0  0  0
  -35.7965    8.7365    8.9795 C   0  0  1  0  0  0  0  0  0  0  0  0
  -36.1890    9.9942    8.1891 C   0  0  0  0  0  0  0  0  0  0  0  0
  -37.6900   10.2114    7.9840 C   0  0  0  0  0  0  0  0  0  0  0  0
  -38.0713   11.9655    7.6974 S   0  0  0  0  0  0  0  0  0  0  0  0
  -35.6618    9.0566   10.4582 C   0  0  0  0  0  0  0  0  0  0  0  0
  -36.0806    8.2505   11.2997 O   0  0  0  0  0  0  0  0  0  0  0  0
  -35.1562   10.1307   10.8323 O   0  0  0  0  0  0  0  0  0  0  0  0
  -39.6291   11.7956    6.7659 C   0  0  0  0  0  0  0  0  0  0  0  0
  -40.7857   11.1577    7.5350 C   0  0  1  0  0  0  0  0  0  0  0  0
  -41.6008   12.1816    8.0799 O   0  0  0  0  0  0  0  0  0  0  0  0
  -41.7521   10.3263    6.6946 C   0  0  1  0  0  0  0  0  0  0  0  0
  -41.7959    9.0067    7.2155 O   0  0  0  0  0  0  0  0  0  0  0  0
  -43.1081   11.0200    6.8560 C   0  0  1  0  0  0  0  0  0  0  0  0
  -44.2395   10.1857    6.9072 O   0  0  0  0  0  0  0  0  0  0  0  0
  -42.9525   11.7257    8.1785 C   0  0  2  0  0  0  0  0  0  0  0  0
  -43.6862   12.9703    8.3734 N   0  0  0  0  0  0  0  0  0  0  0  0
  -44.3214   13.7223    7.4166 C   0  0  0  0  0  0  0  0  0  0  0  0
  -44.7812   14.8545    8.0020 N   0  0  0  0  0  0  0  0  0  0  0  0
  -44.4275   14.8460    9.3110 C   0  0  0  0  0  0  0  0  0  0  0  0
  -44.6171   15.7524   10.3488 C   0  0  0  0  0  0  0  0  0  0  0  0
  -45.2683   16.8947   10.1552 N   0  0  0  0  0  0  0  0  0  0  0  0
  -44.1218   15.4354   11.5864 N   0  0  0  0  0  0  0  0  0  0  0  0
  -43.4475   14.2540   11.8143 C   0  0  0  0  0  0  0  0  0  0  0  0
  -43.2502   13.3598   10.7762 N   0  0  0  0  0  0  0  0  0  0  0  0
  -43.7321   13.6652    9.5535 C   0  0  0  0  0  0  0  0  0  0  0  0
  -37.0614    7.2957    9.7108 H   0  0  0  0  0  0  0  0  0  0  0  0
  -37.5702    7.9909    8.2662 H   0  0  0  0  0  0  0  0  0  0  0  0
  -36.3062    6.8812    8.2662 H   0  0  0  0  0  0  0  0  0  0  0  0
  -34.8250    8.4005    8.5880 H   0  0  0  0  0  0  0  0  0  0  0  0
  -35.7921   10.8680    8.7267 H   0  0  0  0  0  0  0  0  0  0  0  0
  -35.7669    9.8580    7.1825 H   0  0  0  0  0  0  0  0  0  0  0  0
  -38.0209    9.6260    7.1135 H   0  0  0  0  0  0  0  0  0  0  0  0
  -38.2151    9.8865    8.8944 H   0  0  0  0  0  0  0  0  0  0  0  0
  -39.9458   12.7999    6.4480 H   0  0  0  0  0  0  0  0  0  0  0  0
  -39.4098   11.1161    5.9292 H   0  0  0  0  0  0  0  0  0  0  0  0
  -40.2908   10.5050    8.2691 H   0  0  0  0  0  0  0  0  0  0  0  0
  -41.4590   10.2562    5.6367 H   0  0  0  0  0  0  0  0  0  0  0  0
  -41.7947    9.0422    8.2049 H   0  0  0  0  0  0  0  0  0  0  0  0
  -43.3087   11.6488    5.9760 H   0  0  0  0  0  0  0  0  0  0  0  0
  -44.4776   10.0102    7.8520 H   0  0  0  0  0  0  0  0  0  0  0  0
  -43.2829   11.0387    8.9714 H   0  0  0  0  0  0  0  0  0  0  0  0
  -44.4372   13.4522    6.3566 H   0  0  0  0  0  0  0  0  0  0  0  0
  -45.3980   17.5524   10.9372 H   0  0  0  0  0  0  0  0  0  0  0  0
  -45.6433   17.1221    9.2233 H   0  0  0  0  0  0  0  0  0  0  0  0
  -43.0668   14.0226   12.8201 H   0  0  0  0  0  0  0  0  0  0  0  0
  2  1  1  0
  2  3  1  0
  2  6  1  0
  3  4  1  0
  4  5  1  0
  5  9  1  0
  6  7  2  0
  6  8  1  0
 10  9  1  0
 10 11  1  0
 10 12  1  0
 11 16  1  0
 12 13  1  0
 12 14  1  0
 14 15  1  0
 14 16  1  0
 16 17  1  0
 17 18  1  0
 17 26  1  0
 18 19  2  0
 19 20  1  0
 20 21  2  0
 20 26  1  0
 21 22  1  0
 21 23  1  0
 23 24  2  0
 24 25  1  0
 25 26  2  0
  1 27  1  0
  1 28  1  0
  1 29  1  0
  2 30  1  6
  3 31  1  0
  3 32  1  0
  4 33  1  0
  4 34  1  0
  9 35  1  0
  9 36  1  0
 10 37  1  1
 12 38  1  6
 13 39  1  0
 14 40  1  6
 15 41  1  0
 16 42  1  1
 18 43  1  0
 22 44  1  0
 22 45  1  0
 24 46  1  0
M  CHG  2   1   1   8  -1
M  END
>  <filename_input>  (10) 
7RC3_SAH_docked.sdf

>  <pdb_id>  (10) 
7RC3_SAH

>  <pose_rank>  (10) 
9

>  <num_atoms_heavy>  (10) 
26

>  <num_torsions>  (10) 
7

>  <pose>  (10) 
[-40.7857102871457, 11.157726942581302, 7.535011441097451, -1.8259344909942117, -1.9403267059662581, 1.6756764432294542, 0.3606302467724724, -1.5473326492027162, -3.6878084310979626, 0.7412499447326082, -0.22655777631700216, -0.5037029678123124, -2.6471129241238662]

>  <energy>  (10) 
-473.6339246744008

>  <inter_energy>  (10) 
-468.34045960069693

>  <intra_energy>  (10) 
0.5024401457459349

>  <rmsd>  (10) 
9.79032

>  <sdf_rank>  (10) 
0

$$$$

     RDKit          3D

 46 48  0  0  0  0  0  0  0  0999 V2000
  -37.2897    5.9920    9.4358 N   0  0  0  0  0  0  0  0  0  0  0  0
  -37.9579    6.6606    8.3174 C   0  0  1  0  0  0  0  0  0  0  0  0
  -37.5146    8.1242    8.1691 C   0  0  0  0  0  0  0  0  0  0  0  0
  -38.6405    9.1499    8.0197 C   0  0  0  0  0  0  0  0  0  0  0  0
  -38.0134   10.7317    7.3798 S   0  0  0  0  0  0  0  0  0  0  0  0
  -37.7036    5.8937    7.0311 C   0  0  0  0  0  0  0  0  0  0  0  0
  -38.2638    4.8050    6.8465 O   0  0  0  0  0  0  0  0  0  0  0  0
  -36.9204    6.3371    6.1713 O   0  0  0  0  0  0  0  0  0  0  0  0
  -39.5860   11.5134    6.8911 C   0  0  0  0  0  0  0  0  0  0  0  0
  -40.8234   11.0197    7.6403 C   0  0  1  0  0  0  0  0  0  0  0  0
  -41.4327   12.1153    8.3019 O   0  0  0  0  0  0  0  0  0  0  0  0
  -41.9379   10.4533    6.7636 C   0  0  1  0  0  0  0  0  0  0  0  0
  -42.2066    9.1191    7.1665 O   0  0  0  0  0  0  0  0  0  0  0  0
  -43.1453   11.3564    7.0330 C   0  0  1  0  0  0  0  0  0  0  0  0
  -44.4061   10.7330    7.0493 O   0  0  0  0  0  0  0  0  0  0  0  0
  -42.8419   11.8970    8.4067 C   0  0  2  0  0  0  0  0  0  0  0  0
  -43.3384   13.2274    8.7366 N   0  0  0  0  0  0  0  0  0  0  0  0
  -43.5191   13.7634    9.9874 C   0  0  0  0  0  0  0  0  0  0  0  0
  -44.1016   14.9789    9.8488 N   0  0  0  0  0  0  0  0  0  0  0  0
  -44.3165   15.2144    8.5308 C   0  0  0  0  0  0  0  0  0  0  0  0
  -44.8947   16.2743    7.8404 C   0  0  0  0  0  0  0  0  0  0  0  0
  -45.3653   17.3390    8.4818 N   0  0  0  0  0  0  0  0  0  0  0  0
  -44.9610   16.2002    6.4738 N   0  0  0  0  0  0  0  0  0  0  0  0
  -44.4747   15.1089    5.7847 C   0  0  0  0  0  0  0  0  0  0  0  0
  -43.9107   14.0504    6.4760 N   0  0  0  0  0  0  0  0  0  0  0  0
  -43.8440   14.1138    7.8221 C   0  0  0  0  0  0  0  0  0  0  0  0
  -37.6573    6.3599   10.3248 H   0  0  0  0  0  0  0  0  0  0  0  0
  -37.4657    4.9785    9.3846 H   0  0  0  0  0  0  0  0  0  0  0  0
  -36.2760    6.1675    9.3846 H   0  0  0  0  0  0  0  0  0  0  0  0
  -39.0371    6.6710    8.5298 H   0  0  0  0  0  0  0  0  0  0  0  0
  -36.9307    8.3919    9.0621 H   0  0  0  0  0  0  0  0  0  0  0  0
  -36.9432    8.1694    7.2303 H   0  0  0  0  0  0  0  0  0  0  0  0
  -39.3945    8.7552    7.3228 H   0  0  0  0  0  0  0  0  0  0  0  0
  -39.0819    9.3274    9.0115 H   0  0  0  0  0  0  0  0  0  0  0  0
  -39.4948   12.5961    7.0627 H   0  0  0  0  0  0  0  0  0  0  0  0
  -39.7431   11.2452    5.8359 H   0  0  0  0  0  0  0  0  0  0  0  0
  -40.4392   10.2243    8.2959 H   0  0  0  0  0  0  0  0  0  0  0  0
  -41.6817   10.4320    5.6941 H   0  0  0  0  0  0  0  0  0  0  0  0
  -42.2167    9.0687    8.1552 H   0  0  0  0  0  0  0  0  0  0  0  0
  -43.2468   12.0902    6.2198 H   0  0  0  0  0  0  0  0  0  0  0  0
  -44.6922   10.5915    7.9865 H   0  0  0  0  0  0  0  0  0  0  0  0
  -43.2748   11.2077    9.1466 H   0  0  0  0  0  0  0  0  0  0  0  0
  -43.2392   13.2877   10.9389 H   0  0  0  0  0  0  0  0  0  0  0  0
  -45.7899   18.1135    7.9518 H   0  0  0  0  0  0  0  0  0  0  0  0
  -45.3055   17.3897    9.5088 H   0  0  0  0  0  0  0  0  0  0  0  0
  -44.5350   15.0796    4.6867 H   0  0  0  0  0  0  0  0  0  0  0  0
  2  1  1  0
  2  3  1  0
  2  6  1  0
  3  4  1  0
  4  5  1  0
  5  9  1  0
  6  7  2  0
  6  8  1  0
 10  9  1  0
 10 11  1  0
 10 12  1  0
 11 16  1  0
 12 13  1  0
 12 14  1  0
 14 15  1  0
 14 16  1  0
 16 17  1  0
 17 18  1  0
 17 26  1  0
 18 19  2  0
 19 20  1  0
 20 21  2  0
 20 26  1  0
 21 22  1  0
 21 23  1  0
 23 24  2  0
 24 25  1  0
 25 26  2  0
  1 27  1  0
  1 28  1  0
  1 29  1  0
  2 30  1  1
  3 31  1  0
  3 32  1  0
  4 33  1  0
  4 34  1  0
  9 35  1  0
  9 36  1  0
 10 37  1  1
 12 38  1  6
 13 39  1  0
 14 40  1  6
 15 41  1  0
 16 42  1  1
 18 43  1  0
 22 44  1  0
 22 45  1  0
 24 46  1  0
M  CHG  2   1   1   8  -1
M  END
>  <filename_input>  (11) 
7RC3_SAH_docked.sdf

>  <pdb_id>  (11) 
7RC3_SAH

>  <pose_rank>  (11) 
10

>  <num_atoms_heavy>  (11) 
26

>  <num_torsions>  (11) 
7

>  <pose>  (11) 
[-40.82339202441292, 11.01965288552913, 7.640298169892325, -1.870214943670647, -1.753872805178751, 1.5245002545370794, 3.3821703428784073, -1.112778367235358, 1.9254722872070935, 0.9158746350668991, 0.4799402441484693, -3.3327628792167117, -1.6583520588816207]

>  <energy>  (11) 
-517.7063644284913

>  <inter_energy>  (11) 
-533.1485765209543

>  <intra_energy>  (11) 
21.949714776900223

>  <rmsd>  (11) 
9.81839

>  <sdf_rank>  (11) 
0

$$$$

     RDKit          3D

 46 48  0  0  0  0  0  0  0  0999 V2000
  -41.6901    9.6534    4.5206 N   0  0  0  0  0  0  0  0  0  0  0  0
  -41.0492    9.2182    5.7632 C   0  0  1  0  0  0  0  0  0  0  0  0
  -41.9301    9.4846    6.9935 C   0  0  0  0  0  0  0  0  0  0  0  0
  -43.4409    9.4259    6.7570 C   0  0  0  0  0  0  0  0  0  0  0  0
  -44.3193   10.6383    7.7881 S   0  0  0  0  0  0  0  0  0  0  0  0
  -40.6930    7.7444    5.6717 C   0  0  0  0  0  0  0  0  0  0  0  0
  -41.0170    7.0975    4.6668 O   0  0  0  0  0  0  0  0  0  0  0  0
  -40.0997    7.1750    6.6060 O   0  0  0  0  0  0  0  0  0  0  0  0
  -43.3684   12.1390    7.3799 C   0  0  0  0  0  0  0  0  0  0  0  0
  -44.2049   13.3768    7.0573 C   0  0  1  0  0  0  0  0  0  0  0  0
  -44.7139   13.9197    8.2638 O   0  0  0  0  0  0  0  0  0  0  0  0
  -43.4408   14.5378    6.4250 C   0  0  1  0  0  0  0  0  0  0  0  0
  -44.0367   14.8544    5.1763 O   0  0  0  0  0  0  0  0  0  0  0  0
  -43.6013   15.6968    7.4136 C   0  0  1  0  0  0  0  0  0  0  0  0
  -43.7318   16.9830    6.8592 O   0  0  0  0  0  0  0  0  0  0  0  0
  -44.8767   15.3339    8.1297 C   0  0  2  0  0  0  0  0  0  0  0  0
  -45.0216   15.7625    9.5156 N   0  0  0  0  0  0  0  0  0  0  0  0
  -45.7481   16.8273    9.9874 C   0  0  0  0  0  0  0  0  0  0  0  0
  -45.5239   16.9381   11.3191 N   0  0  0  0  0  0  0  0  0  0  0  0
  -44.6472   15.9754   11.6977 C   0  0  0  0  0  0  0  0  0  0  0  0
  -44.0646   15.6525   12.9187 C   0  0  0  0  0  0  0  0  0  0  0  0
  -44.3445   16.3430   14.0193 N   0  0  0  0  0  0  0  0  0  0  0  0
  -43.1961   14.5937   12.9641 N   0  0  0  0  0  0  0  0  0  0  0  0
  -42.8937   13.8580   11.8373 C   0  0  0  0  0  0  0  0  0  0  0  0
  -43.4662   14.1898   10.6214 N   0  0  0  0  0  0  0  0  0  0  0  0
  -44.3203   15.2329   10.5670 C   0  0  0  0  0  0  0  0  0  0  0  0
  -42.5222   10.2183    4.7431 H   0  0  0  0  0  0  0  0  0  0  0  0
  -41.0271   10.2197    3.9724 H   0  0  0  0  0  0  0  0  0  0  0  0
  -41.9720    8.8282    3.9724 H   0  0  0  0  0  0  0  0  0  0  0  0
  -40.1304    9.8093    5.8911 H   0  0  0  0  0  0  0  0  0  0  0  0
  -41.6788    8.7340    7.7573 H   0  0  0  0  0  0  0  0  0  0  0  0
  -41.7154   10.5203    7.2957 H   0  0  0  0  0  0  0  0  0  0  0  0
  -43.6463    9.6408    5.6979 H   0  0  0  0  0  0  0  0  0  0  0  0
  -43.7954    8.4200    7.0262 H   0  0  0  0  0  0  0  0  0  0  0  0
  -42.7258   12.3782    8.2400 H   0  0  0  0  0  0  0  0  0  0  0  0
  -42.8088   11.9035    6.4626 H   0  0  0  0  0  0  0  0  0  0  0  0
  -44.9604   13.0110    6.3464 H   0  0  0  0  0  0  0  0  0  0  0  0
  -42.3807   14.3109    6.2392 H   0  0  0  0  0  0  0  0  0  0  0  0
  -44.9004   15.3133    5.3296 H   0  0  0  0  0  0  0  0  0  0  0  0
  -42.6932   15.7872    8.0277 H   0  0  0  0  0  0  0  0  0  0  0  0
  -43.7996   17.6506    7.5870 H   0  0  0  0  0  0  0  0  0  0  0  0
  -45.7163   15.7772    7.5743 H   0  0  0  0  0  0  0  0  0  0  0  0
  -46.4003   17.4789    9.3874 H   0  0  0  0  0  0  0  0  0  0  0  0
  -43.9023   16.0877   14.9138 H   0  0  0  0  0  0  0  0  0  0  0  0
  -45.0037   17.1334   13.9777 H   0  0  0  0  0  0  0  0  0  0  0  0
  -42.1981   13.0085   11.9048 H   0  0  0  0  0  0  0  0  0  0  0  0
  2  1  1  0
  2  3  1  0
  2  6  1  0
  3  4  1  0
  4  5  1  0
  5  9  1  0
  6  7  2  0
  6  8  1  0
 10  9  1  0
 10 11  1  0
 10 12  1  0
 11 16  1  0
 12 13  1  0
 12 14  1  0
 14 15  1  0
 14 16  1  0
 16 17  1  0
 17 18  1  0
 17 26  1  0
 18 19  2  0
 19 20  1  0
 20 21  2  0
 20 26  1  0
 21 22  1  0
 21 23  1  0
 23 24  2  0
 24 25  1  0
 25 26  2  0
  1 27  1  0
  1 28  1  0
  1 29  1  0
  2 30  1  1
  3 31  1  0
  3 32  1  0
  4 33  1  0
  4 34  1  0
  9 35  1  0
  9 36  1  0
 10 37  1  6
 12 38  1  6
 13 39  1  0
 14 40  1  1
 15 41  1  0
 16 42  1  6
 18 43  1  0
 22 44  1  0
 22 45  1  0
 24 46  1  0
M  CHG  2   1   1   8  -1
M  END
>  <filename_input>  (12) 
7RC3_SAH_docked.sdf

>  <pdb_id>  (12) 
7RC3_SAH

>  <pose_rank>  (12) 
11

>  <num_atoms_heavy>  (12) 
26

>  <num_torsions>  (12) 
7

>  <pose>  (12) 
[-44.204947886189856, 13.376819383154498, 7.0573078301605925, 3.461436873897148, 1.043667002749849, 1.3790044548761948, 2.3607436958161507, 4.3933817593759334, 28.9470498060359, 11.49888635382691, 0.7993209764882534, -0.5006387471777343, 3.302942908066068]

>  <energy>  (12) 
-454.1769458106908

>  <inter_energy>  (12) 
-487.2831696768486

>  <intra_energy>  (12) 
20.8283400890552

>  <rmsd>  (12) 
8.54851

>  <sdf_rank>  (12) 
0

$$$$

     RDKit          3D

 46 48  0  0  0  0  0  0  0  0999 V2000
  -43.7042   13.5474    5.9382 N   0  0  0  0  0  0  0  0  0  0  0  0
  -44.2088   14.0656    7.2114 C   0  0  1  0  0  0  0  0  0  0  0  0
  -45.6797   14.4997    7.1179 C   0  0  0  0  0  0  0  0  0  0  0  0
  -45.9816   15.6218    6.1221 C   0  0  0  0  0  0  0  0  0  0  0  0
  -47.1947   15.0917    4.8763 S   0  0  0  0  0  0  0  0  0  0  0  0
  -44.0291   13.0225    8.3010 C   0  0  0  0  0  0  0  0  0  0  0  0
  -43.9409   13.3808    9.4829 O   0  0  0  0  0  0  0  0  0  0  0  0
  -43.9463   11.8138    8.0158 O   0  0  0  0  0  0  0  0  0  0  0  0
  -48.0236   16.6830    4.5543 C   0  0  0  0  0  0  0  0  0  0  0  0
  -48.4612   17.4568    5.7976 C   0  0  1  0  0  0  0  0  0  0  0  0
  -47.5568   17.1853    6.8549 O   0  0  0  0  0  0  0  0  0  0  0  0
  -48.4294   18.9778    5.6678 C   0  0  1  0  0  0  0  0  0  0  0  0
  -49.7267   19.4890    5.9332 O   0  0  0  0  0  0  0  0  0  0  0  0
  -47.4335   19.4412    6.7353 C   0  0  1  0  0  0  0  0  0  0  0  0
  -47.7306   20.6499    7.3906 O   0  0  0  0  0  0  0  0  0  0  0  0
  -47.4824   18.3120    7.7320 C   0  0  2  0  0  0  0  0  0  0  0  0
  -46.2740   18.0302    8.4973 N   0  0  0  0  0  0  0  0  0  0  0  0
  -44.9778   18.3088    8.1414 C   0  0  0  0  0  0  0  0  0  0  0  0
  -44.1564   17.7829    9.0820 N   0  0  0  0  0  0  0  0  0  0  0  0
  -44.9085   17.1531   10.0182 C   0  0  0  0  0  0  0  0  0  0  0  0
  -44.5867   16.4378   11.1669 C   0  0  0  0  0  0  0  0  0  0  0  0
  -43.3228   16.2696   11.5420 N   0  0  0  0  0  0  0  0  0  0  0  0
  -45.6093   15.9141   11.9135 N   0  0  0  0  0  0  0  0  0  0  0  0
  -46.9291   16.0796   11.5487 C   0  0  0  0  0  0  0  0  0  0  0  0
  -47.2450   16.7819   10.3983 N   0  0  0  0  0  0  0  0  0  0  0  0
  -46.2441   17.2985    9.6555 C   0  0  0  0  0  0  0  0  0  0  0  0
  -42.9968   12.8210    6.1194 H   0  0  0  0  0  0  0  0  0  0  0  0
  -44.4829   13.1416    5.3999 H   0  0  0  0  0  0  0  0  0  0  0  0
  -43.2779   14.3151    5.3999 H   0  0  0  0  0  0  0  0  0  0  0  0
  -43.6239   14.9624    7.4636 H   0  0  0  0  0  0  0  0  0  0  0  0
  -46.2730   13.6207    6.8258 H   0  0  0  0  0  0  0  0  0  0  0  0
  -45.9353   14.9033    8.1088 H   0  0  0  0  0  0  0  0  0  0  0  0
  -46.3845   16.4871    6.6688 H   0  0  0  0  0  0  0  0  0  0  0  0
  -45.0476   15.8878    5.6056 H   0  0  0  0  0  0  0  0  0  0  0  0
  -47.3289   17.3187    3.9857 H   0  0  0  0  0  0  0  0  0  0  0  0
  -48.9468   16.4391    4.0081 H   0  0  0  0  0  0  0  0  0  0  0  0
  -49.4979   17.1295    5.9650 H   0  0  0  0  0  0  0  0  0  0  0  0
  -48.1351   19.3229    4.6657 H   0  0  0  0  0  0  0  0  0  0  0  0
  -49.8660   19.5438    6.9118 H   0  0  0  0  0  0  0  0  0  0  0  0
  -46.4605   19.6509    6.2669 H   0  0  0  0  0  0  0  0  0  0  0  0
  -47.6965   20.5112    8.3702 H   0  0  0  0  0  0  0  0  0  0  0  0
  -48.2720   18.5382    8.4637 H   0  0  0  0  0  0  0  0  0  0  0  0
  -44.6603   18.8637    7.2462 H   0  0  0  0  0  0  0  0  0  0  0  0
  -43.1057   15.7365   12.3961 H   0  0  0  0  0  0  0  0  0  0  0  0
  -42.5605   16.6723   10.9785 H   0  0  0  0  0  0  0  0  0  0  0  0
  -47.7299   15.6539   12.1713 H   0  0  0  0  0  0  0  0  0  0  0  0
  2  1  1  0
  2  3  1  0
  2  6  1  0
  3  4  1  0
  4  5  1  0
  5  9  1  0
  6  7  2  0
  6  8  1  0
 10  9  1  0
 10 11  1  0
 10 12  1  0
 11 16  1  0
 12 13  1  0
 12 14  1  0
 14 15  1  0
 14 16  1  0
 16 17  1  0
 17 18  1  0
 17 26  1  0
 18 19  2  0
 19 20  1  0
 20 21  2  0
 20 26  1  0
 21 22  1  0
 21 23  1  0
 23 24  2  0
 24 25  1  0
 25 26  2  0
  1 27  1  0
  1 28  1  0
  1 29  1  0
  2 30  1  1
  3 31  1  0
  3 32  1  0
  4 33  1  0
  4 34  1  0
  9 35  1  0
  9 36  1  0
 10 37  1  1
 12 38  1  6
 13 39  1  0
 14 40  1  6
 15 41  1  0
 16 42  1  1
 18 43  1  0
 22 44  1  0
 22 45  1  0
 24 46  1  0
M  CHG  2   1   1   8  -1
M  END
>  <filename_input>  (13) 
7RC3_SAH_docked.sdf

>  <pdb_id>  (13) 
7RC3_SAH

>  <pose_rank>  (13) 
12

>  <num_atoms_heavy>  (13) 
26

>  <num_torsions>  (13) 
7

>  <pose>  (13) 
[-48.461185653278825, 17.45678857804275, 5.797576222876619, 4.611917943181599, -0.11383962110757853, -0.7061381055342554, 0.14804367309520278, -2.6736464105837694, 0.6344320622293371, 6.912501739814716, -0.8270459992700065, 4.178046510644769, -0.21727197650430863]

>  <energy>  (13) 
-429.8664106827624

>  <inter_energy>  (13) 
-494.05024088513824

>  <intra_energy>  (13) 
59.35189813893234

>  <rmsd>  (13) 
7.48996

>  <sdf_rank>  (13) 
0

$$$$

     RDKit          3D

 46 48  0  0  0  0  0  0  0  0999 V2000
  -40.2126   22.7189    6.0648 N   0  0  0  0  0  0  0  0  0  0  0  0
  -40.6453   21.7580    5.0481 C   0  0  1  0  0  0  0  0  0  0  0  0
  -41.9129   20.9993    5.4704 C   0  0  0  0  0  0  0  0  0  0  0  0
  -41.9059   20.4278    6.8900 C   0  0  0  0  0  0  0  0  0  0  0  0
  -42.7947   18.8440    6.9697 S   0  0  0  0  0  0  0  0  0  0  0  0
  -40.8666   22.4707    3.7251 C   0  0  0  0  0  0  0  0  0  0  0  0
  -41.1309   21.8111    2.7111 O   0  0  0  0  0  0  0  0  0  0  0  0
  -40.7621   23.7084    3.6450 O   0  0  0  0  0  0  0  0  0  0  0  0
  -44.1088   19.1644    5.7476 C   0  0  0  0  0  0  0  0  0  0  0  0
  -45.4837   18.5977    6.1007 C   0  0  1  0  0  0  0  0  0  0  0  0
  -45.3434   17.2360    6.4689 O   0  0  0  0  0  0  0  0  0  0  0  0
  -46.1656   19.2369    7.3081 C   0  0  1  0  0  0  0  0  0  0  0  0
  -47.4236   19.7556    6.9043 O   0  0  0  0  0  0  0  0  0  0  0  0
  -46.3456   18.0909    8.3083 C   0  0  1  0  0  0  0  0  0  0  0  0
  -47.5219   18.1077    9.0794 O   0  0  0  0  0  0  0  0  0  0  0  0
  -46.3585   16.8803    7.4109 C   0  0  2  0  0  0  0  0  0  0  0  0
  -45.8509   15.6270    7.9556 N   0  0  0  0  0  0  0  0  0  0  0  0
  -46.5096   14.7485    8.7795 C   0  0  0  0  0  0  0  0  0  0  0  0
  -45.6421   13.7720    9.1401 N   0  0  0  0  0  0  0  0  0  0  0  0
  -44.4350   14.0286    8.5781 C   0  0  0  0  0  0  0  0  0  0  0  0
  -43.2069   13.3783    8.6348 C   0  0  0  0  0  0  0  0  0  0  0  0
  -43.0499   12.2634    9.3411 N   0  0  0  0  0  0  0  0  0  0  0  0
  -42.1568   13.9112    7.9343 N   0  0  0  0  0  0  0  0  0  0  0  0
  -42.2955   15.0638    7.1895 C   0  0  0  0  0  0  0  0  0  0  0  0
  -43.5163   15.7150    7.1451 N   0  0  0  0  0  0  0  0  0  0  0  0
  -44.5549   15.1986    7.8343 C   0  0  0  0  0  0  0  0  0  0  0  0
  -40.3880   22.3294    7.0020 H   0  0  0  0  0  0  0  0  0  0  0  0
  -39.2059   22.9062    5.9538 H   0  0  0  0  0  0  0  0  0  0  0  0
  -40.7395   23.5969    5.9538 H   0  0  0  0  0  0  0  0  0  0  0  0
  -39.8465   21.0107    4.9319 H   0  0  0  0  0  0  0  0  0  0  0  0
  -42.7634   21.6922    5.3898 H   0  0  0  0  0  0  0  0  0  0  0  0
  -41.9781   20.1303    4.7992 H   0  0  0  0  0  0  0  0  0  0  0  0
  -40.8646   20.2706    7.2078 H   0  0  0  0  0  0  0  0  0  0  0  0
  -42.4122   21.1435    7.5545 H   0  0  0  0  0  0  0  0  0  0  0  0
  -44.2093   20.2539    5.6349 H   0  0  0  0  0  0  0  0  0  0  0  0
  -43.7971   18.6519    4.8255 H   0  0  0  0  0  0  0  0  0  0  0  0
  -46.0891   18.7856    5.2017 H   0  0  0  0  0  0  0  0  0  0  0  0
  -45.5893   20.0658    7.7449 H   0  0  0  0  0  0  0  0  0  0  0  0
  -47.9615   19.9774    7.7053 H   0  0  0  0  0  0  0  0  0  0  0  0
  -45.5539   18.1378    9.0706 H   0  0  0  0  0  0  0  0  0  0  0  0
  -47.2862   18.1044   10.0410 H   0  0  0  0  0  0  0  0  0  0  0  0
  -47.3992   16.6927    7.1081 H   0  0  0  0  0  0  0  0  0  0  0  0
  -47.5612   14.8242    9.0932 H   0  0  0  0  0  0  0  0  0  0  0  0
  -42.1320   11.7970    9.3701 H   0  0  0  0  0  0  0  0  0  0  0  0
  -43.8462   11.8657    9.8594 H   0  0  0  0  0  0  0  0  0  0  0  0
  -41.4368   15.4652    6.6313 H   0  0  0  0  0  0  0  0  0  0  0  0
  2  1  1  0
  2  3  1  0
  2  6  1  0
  3  4  1  0
  4  5  1  0
  5  9  1  0
  6  7  2  0
  6  8  1  0
 10  9  1  0
 10 11  1  0
 10 12  1  0
 11 16  1  0
 12 13  1  0
 12 14  1  0
 14 15  1  0
 14 16  1  0
 16 17  1  0
 17 18  1  0
 17 26  1  0
 18 19  2  0
 19 20  1  0
 20 21  2  0
 20 26  1  0
 21 22  1  0
 21 23  1  0
 23 24  2  0
 24 25  1  0
 25 26  2  0
  1 27  1  0
  1 28  1  0
  1 29  1  0
  2 30  1  6
  3 31  1  0
  3 32  1  0
  4 33  1  0
  4 34  1  0
  9 35  1  0
  9 36  1  0
 10 37  1  6
 12 38  1  1
 13 39  1  0
 14 40  1  1
 15 41  1  0
 16 42  1  6
 18 43  1  0
 22 44  1  0
 22 45  1  0
 24 46  1  0
M  CHG  2   1   1   8  -1
M  END
>  <filename_input>  (14) 
7RC3_SAH_docked.sdf

>  <pdb_id>  (14) 
7RC3_SAH

>  <pose_rank>  (14) 
13

>  <num_atoms_heavy>  (14) 
26

>  <num_torsions>  (14) 
7

>  <pose>  (14) 
[-45.48367316027173, 18.59772997456077, 6.1006849882067105, 2.0283363633845486, 4.406889467775425, 2.333170424898765, 1.983503596576844, 2.1982162197807016, -0.9898766990436607, 3.7106098297235937, 0.8020359318719443, 4.418093951782802, 0.11985481708634424]

>  <energy>  (14) 
-446.16990504521306

>  <inter_energy>  (14) 
-490.1391765976896

>  <intra_energy>  (14) 
42.46710861569694

>  <rmsd>  (14) 
6.24126

>  <sdf_rank>  (14) 
0

$$$$

     RDKit          3D

 46 48  0  0  0  0  0  0  0  0999 V2000
  -44.6764   12.1180    8.7318 N   0  0  0  0  0  0  0  0  0  0  0  0
  -43.8074   12.8803    7.8329 C   0  0  1  0  0  0  0  0  0  0  0  0
  -43.8979   14.3932    8.0849 C   0  0  0  0  0  0  0  0  0  0  0  0
  -44.8285   15.1702    7.1511 C   0  0  0  0  0  0  0  0  0  0  0  0
  -43.9596   15.7053    5.6467 S   0  0  0  0  0  0  0  0  0  0  0  0
  -42.3727   12.4014    7.9728 C   0  0  0  0  0  0  0  0  0  0  0  0
  -41.4737   12.9673    7.3366 O   0  0  0  0  0  0  0  0  0  0  0  0
  -42.0948   11.4318    8.7020 O   0  0  0  0  0  0  0  0  0  0  0  0
  -45.0853   17.0277    5.0925 C   0  0  0  0  0  0  0  0  0  0  0  0
  -46.5671   16.7907    5.3829 C   0  0  1  0  0  0  0  0  0  0  0  0
  -46.8617   17.2473    6.6922 O   0  0  0  0  0  0  0  0  0  0  0  0
  -47.5406   17.5635    4.4961 C   0  0  1  0  0  0  0  0  0  0  0  0
  -48.3946   16.6405    3.8379 O   0  0  0  0  0  0  0  0  0  0  0  0
  -48.3356   18.4458    5.4633 C   0  0  1  0  0  0  0  0  0  0  0  0
  -49.6952   18.6436    5.1616 O   0  0  0  0  0  0  0  0  0  0  0  0
  -48.2211   17.6856    6.7595 C   0  0  2  0  0  0  0  0  0  0  0  0
  -48.2388   18.4525    7.9992 N   0  0  0  0  0  0  0  0  0  0  0  0
  -47.2297   18.5681    8.9227 C   0  0  0  0  0  0  0  0  0  0  0  0
  -47.6977   19.2796    9.9766 N   0  0  0  0  0  0  0  0  0  0  0  0
  -48.9960   19.5977    9.7491 C   0  0  0  0  0  0  0  0  0  0  0  0
  -49.9476   20.2840   10.4962 C   0  0  0  0  0  0  0  0  0  0  0  0
  -49.6527   20.7896   11.6895 N   0  0  0  0  0  0  0  0  0  0  0  0
  -51.2023   20.4363    9.9672 N   0  0  0  0  0  0  0  0  0  0  0  0
  -51.5315   19.9261    8.7288 C   0  0  0  0  0  0  0  0  0  0  0  0
  -50.5853   19.2332    7.9933 N   0  0  0  0  0  0  0  0  0  0  0  0
  -49.3480   19.0760    8.5079 C   0  0  0  0  0  0  0  0  0  0  0  0
  -44.4320   12.3324    9.7092 H   0  0  0  0  0  0  0  0  0  0  0  0
  -45.6588   12.3749    8.5593 H   0  0  0  0  0  0  0  0  0  0  0  0
  -44.5496   11.1105    8.5593 H   0  0  0  0  0  0  0  0  0  0  0  0
  -44.1531   12.7041    6.8036 H   0  0  0  0  0  0  0  0  0  0  0  0
  -44.2523   14.5429    9.1155 H   0  0  0  0  0  0  0  0  0  0  0  0
  -42.8886   14.7880    7.8967 H   0  0  0  0  0  0  0  0  0  0  0  0
  -45.6720   14.5238    6.8668 H   0  0  0  0  0  0  0  0  0  0  0  0
  -45.1852   16.0648    7.6824 H   0  0  0  0  0  0  0  0  0  0  0  0
  -44.7861   17.9603    5.5933 H   0  0  0  0  0  0  0  0  0  0  0  0
  -44.9931   17.0654    3.9970 H   0  0  0  0  0  0  0  0  0  0  0  0
  -46.7031   15.7121    5.2154 H   0  0  0  0  0  0  0  0  0  0  0  0
  -47.0407   18.1639    3.7217 H   0  0  0  0  0  0  0  0  0  0  0  0
  -48.8871   16.1082    4.5118 H   0  0  0  0  0  0  0  0  0  0  0  0
  -47.9313   19.4687    5.4480 H   0  0  0  0  0  0  0  0  0  0  0  0
  -50.2123   18.7188    6.0025 H   0  0  0  0  0  0  0  0  0  0  0  0
  -49.0625   16.9793    6.8149 H   0  0  0  0  0  0  0  0  0  0  0  0
  -46.2154   18.1543    8.8239 H   0  0  0  0  0  0  0  0  0  0  0  0
  -50.3719   21.2945   12.2268 H   0  0  0  0  0  0  0  0  0  0  0  0
  -48.7051   20.6764   12.0769 H   0  0  0  0  0  0  0  0  0  0  0  0
  -52.5450   20.0696    8.3259 H   0  0  0  0  0  0  0  0  0  0  0  0
  2  1  1  0
  2  3  1  0
  2  6  1  0
  3  4  1  0
  4  5  1  0
  5  9  1  0
  6  7  2  0
  6  8  1  0
 10  9  1  0
 10 11  1  0
 10 12  1  0
 11 16  1  0
 12 13  1  0
 12 14  1  0
 14 15  1  0
 14 16  1  0
 16 17  1  0
 17 18  1  0
 17 26  1  0
 18 19  2  0
 19 20  1  0
 20 21  2  0
 20 26  1  0
 21 22  1  0
 21 23  1  0
 23 24  2  0
 24 25  1  0
 25 26  2  0
  1 27  1  0
  1 28  1  0
  1 29  1  0
  2 30  1  6
  3 31  1  0
  3 32  1  0
  4 33  1  0
  4 34  1  0
  9 35  1  0
  9 36  1  0
 10 37  1  1
 12 38  1  6
 13 39  1  0
 14 40  1  1
 15 41  1  0
 16 42  1  1
 18 43  1  0
 22 44  1  0
 22 45  1  0
 24 46  1  0
M  CHG  2   1   1   8  -1
M  END
>  <filename_input>  (15) 
7RC3_SAH_docked.sdf

>  <pdb_id>  (15) 
7RC3_SAH

>  <pose_rank>  (15) 
14

>  <num_atoms_heavy>  (15) 
26

>  <num_torsions>  (15) 
7

>  <pose>  (15) 
[-46.567058734973756, 16.79072297631892, 5.3829260944604576, -1.7180477695506962, -1.4540495203756418, 0.43879430113406165, -7.722968666654398, -14.285433717185606, -24.238744014230747, -29.904470562329397, -10.764968575235919, 9.820368018256394, 0.27959557847230554]

>  <energy>  (15) 
-342.13959822283124

>  <inter_energy>  (15) 
-365.55453813231486

>  <intra_energy>  (15) 
22.503690297292238

>  <rmsd>  (15) 
9.54142

>  <sdf_rank>  (15) 
0

$$$$

     RDKit          3D

 46 48  0  0  0  0  0  0  0  0999 V2000
  -43.6514   13.1181    6.7361 N   0  0  0  0  0  0  0  0  0  0  0  0
  -43.8201   12.2124    7.8743 C   0  0  1  0  0  0  0  0  0  0  0  0
  -42.9315   10.9644    7.7579 C   0  0  0  0  0  0  0  0  0  0  0  0
  -41.4253   11.2233    7.6798 C   0  0  0  0  0  0  0  0  0  0  0  0
  -40.5650    9.8692    6.8249 S   0  0  0  0  0  0  0  0  0  0  0  0
  -43.5333   12.9521    9.1696 C   0  0  0  0  0  0  0  0  0  0  0  0
  -43.7687   14.1653    9.2468 O   0  0  0  0  0  0  0  0  0  0  0  0
  -43.0426   12.3564   10.1461 O   0  0  0  0  0  0  0  0  0  0  0  0
  -38.9823    9.8878    7.7293 C   0  0  0  0  0  0  0  0  0  0  0  0
  -38.4816    8.5229    8.2010 C   0  0  1  0  0  0  0  0  0  0  0  0
  -38.0452    7.7757    7.0782 O   0  0  0  0  0  0  0  0  0  0  0  0
  -37.2619    8.5537    9.1190 C   0  0  1  0  0  0  0  0  0  0  0  0
  -37.5891    7.9083   10.3400 O   0  0  0  0  0  0  0  0  0  0  0  0
  -36.1829    7.7724    8.3630 C   0  0  1  0  0  0  0  0  0  0  0  0
  -35.3182    6.9808    9.1404 O   0  0  0  0  0  0  0  0  0  0  0  0
  -37.0017    6.8790    7.4671 C   0  0  2  0  0  0  0  0  0  0  0  0
  -36.4270    6.4960    6.1832 N   0  0  0  0  0  0  0  0  0  0  0  0
  -35.2643    6.9587    5.6189 C   0  0  0  0  0  0  0  0  0  0  0  0
  -35.1562    6.4314    4.3754 N   0  0  0  0  0  0  0  0  0  0  0  0
  -36.2439    5.6596    4.1304 C   0  0  0  0  0  0  0  0  0  0  0  0
  -36.6492    4.9180    3.0258 C   0  0  0  0  0  0  0  0  0  0  0  0
  -35.9082    4.8627    1.9239 N   0  0  0  0  0  0  0  0  0  0  0  0
  -37.8336    4.2334    3.1023 N   0  0  0  0  0  0  0  0  0  0  0  0
  -38.6178    4.2700    4.2363 C   0  0  0  0  0  0  0  0  0  0  0  0
  -38.2171    5.0189    5.3295 N   0  0  0  0  0  0  0  0  0  0  0  0
  -37.0535    5.6986    5.2617 C   0  0  0  0  0  0  0  0  0  0  0  0
  -43.4737   14.0725    7.0802 H   0  0  0  0  0  0  0  0  0  0  0  0
  -42.8542   12.8055    6.1637 H   0  0  0  0  0  0  0  0  0  0  0  0
  -44.5078   13.1134    6.1637 H   0  0  0  0  0  0  0  0  0  0  0  0
  -44.8639   11.8655    7.8746 H   0  0  0  0  0  0  0  0  0  0  0  0
  -43.1200   10.3328    8.6386 H   0  0  0  0  0  0  0  0  0  0  0  0
  -43.2032   10.4926    6.8021 H   0  0  0  0  0  0  0  0  0  0  0  0
  -41.2510   12.1609    7.1317 H   0  0  0  0  0  0  0  0  0  0  0  0
  -41.0315   11.2922    8.7046 H   0  0  0  0  0  0  0  0  0  0  0  0
  -38.2177   10.3195    7.0667 H   0  0  0  0  0  0  0  0  0  0  0  0
  -39.1606   10.4772    8.6407 H   0  0  0  0  0  0  0  0  0  0  0  0
  -39.3363    8.0995    8.7490 H   0  0  0  0  0  0  0  0  0  0  0  0
  -36.9257    9.5726    9.3616 H   0  0  0  0  0  0  0  0  0  0  0  0
  -37.3021    8.4743   11.0998 H   0  0  0  0  0  0  0  0  0  0  0  0
  -35.4940    8.4749    7.8712 H   0  0  0  0  0  0  0  0  0  0  0  0
  -35.4959    7.1434   10.1006 H   0  0  0  0  0  0  0  0  0  0  0  0
  -37.2042    5.9450    8.0118 H   0  0  0  0  0  0  0  0  0  0  0  0
  -34.5440    7.6406    6.0945 H   0  0  0  0  0  0  0  0  0  0  0  0
  -36.2262    4.3077    1.1166 H   0  0  0  0  0  0  0  0  0  0  0  0
  -35.0158    5.3750    1.8771 H   0  0  0  0  0  0  0  0  0  0  0  0
  -39.5608    3.7047    4.2721 H   0  0  0  0  0  0  0  0  0  0  0  0
  2  1  1  0
  2  3  1  0
  2  6  1  0
  3  4  1  0
  4  5  1  0
  5  9  1  0
  6  7  2  0
  6  8  1  0
 10  9  1  0
 10 11  1  0
 10 12  1  0
 11 16  1  0
 12 13  1  0
 12 14  1  0
 14 15  1  0
 14 16  1  0
 16 17  1  0
 17 18  1  0
 17 26  1  0
 18 19  2  0
 19 20  1  0
 20 21  2  0
 20 26  1  0
 21 22  1  0
 21 23  1  0
 23 24  2  0
 24 25  1  0
 25 26  2  0
  1 27  1  0
  1 28  1  0
  1 29  1  0
  2 30  1  1
  3 31  1  0
  3 32  1  0
  4 33  1  0
  4 34  1  0
  9 35  1  0
  9 36  1  0
 10 37  1  1
 12 38  1  1
 13 39  1  0
 14 40  1  6
 15 41  1  0
 16 42  1  1
 18 43  1  0
 22 44  1  0
 22 45  1  0
 24 46  1  0
M  CHG  2   1   1   8  -1
M  END
>  <filename_input>  (16) 
7RC3_SAH_docked.sdf

>  <pdb_id>  (16) 
7RC3_SAH

>  <pose_rank>  (16) 
15

>  <num_atoms_heavy>  (16) 
26

>  <num_torsions>  (16) 
7

>  <pose>  (16) 
[-38.48161954470661, 8.522909327231794, 8.201022995059683, -1.5356217020539273, -4.593272816863101, -2.3617405183150884, 0.4655034724546924, 4.309902248214642, 3.7992025830166316, -4.52714437499298, 0.6392743363310412, -6.281294540899156, -2.3854232176586563]

>  <energy>  (16) 
-325.066821627357

>  <inter_energy>  (16) 
-330.73539054681777

>  <intra_energy>  (16) 
7.601589252593942

>  <rmsd>  (16) 
8.4746

>  <sdf_rank>  (16) 
0

$$$$

     RDKit          3D

 46 48  0  0  0  0  0  0  0  0999 V2000
  -43.5667   10.2996    8.0151 N   0  0  0  0  0  0  0  0  0  0  0  0
  -42.5898   10.2342    6.9262 C   0  0  1  0  0  0  0  0  0  0  0  0
  -41.1461   10.1625    7.4469 C   0  0  0  0  0  0  0  0  0  0  0  0
  -40.3511   11.4689    7.3896 C   0  0  0  0  0  0  0  0  0  0  0  0
  -38.5624   11.1520    7.3187 S   0  0  0  0  0  0  0  0  0  0  0  0
  -42.8933    9.0451    6.0311 C   0  0  0  0  0  0  0  0  0  0  0  0
  -42.1152    8.7561    5.1123 O   0  0  0  0  0  0  0  0  0  0  0  0
  -43.9274    8.3726    6.1970 O   0  0  0  0  0  0  0  0  0  0  0  0
  -38.5498    9.3654    7.6807 C   0  0  0  0  0  0  0  0  0  0  0  0
  -37.3851    8.8803    8.5435 C   0  0  1  0  0  0  0  0  0  0  0  0
  -37.8318    8.7232    9.8796 O   0  0  0  0  0  0  0  0  0  0  0  0
  -36.8266    7.5069    8.1784 C   0  0  1  0  0  0  0  0  0  0  0  0
  -35.4442    7.6363    7.8838 O   0  0  0  0  0  0  0  0  0  0  0  0
  -37.0378    6.6525    9.4320 C   0  0  1  0  0  0  0  0  0  0  0  0
  -36.0351    5.7117    9.7285 O   0  0  0  0  0  0  0  0  0  0  0  0
  -37.0825    7.6900   10.5241 C   0  0  2  0  0  0  0  0  0  0  0  0
  -37.8966    7.4031   11.6990 N   0  0  0  0  0  0  0  0  0  0  0  0
  -38.6387    6.2745   11.9439 C   0  0  0  0  0  0  0  0  0  0  0  0
  -39.3292    6.4612   13.0947 N   0  0  0  0  0  0  0  0  0  0  0  0
  -39.0568    7.7004   13.5732 C   0  0  0  0  0  0  0  0  0  0  0  0
  -39.5026    8.4044   14.6868 C   0  0  0  0  0  0  0  0  0  0  0  0
  -40.3661    7.8658   15.5417 N   0  0  0  0  0  0  0  0  0  0  0  0
  -39.0218    9.6713   14.8895 N   0  0  0  0  0  0  0  0  0  0  0  0
  -38.1210   10.2503   14.0203 C   0  0  0  0  0  0  0  0  0  0  0  0
  -37.6886    9.5511   12.9065 N   0  0  0  0  0  0  0  0  0  0  0  0
  -38.1593    8.3040   12.6975 C   0  0  0  0  0  0  0  0  0  0  0  0
  -43.0753   10.2667    8.9197 H   0  0  0  0  0  0  0  0  0  0  0  0
  -44.0998   11.1782    7.9458 H   0  0  0  0  0  0  0  0  0  0  0  0
  -44.2122    9.4999    7.9458 H   0  0  0  0  0  0  0  0  0  0  0  0
  -42.6759   11.1627    6.3427 H   0  0  0  0  0  0  0  0  0  0  0  0
  -41.1818    9.8352    8.4965 H   0  0  0  0  0  0  0  0  0  0  0  0
  -40.6218    9.4645    6.7777 H   0  0  0  0  0  0  0  0  0  0  0  0
  -40.6509   12.0316    6.4932 H   0  0  0  0  0  0  0  0  0  0  0  0
  -40.5653   12.0457    8.3014 H   0  0  0  0  0  0  0  0  0  0  0  0
  -39.4855    9.1183    8.2036 H   0  0  0  0  0  0  0  0  0  0  0  0
  -38.4395    8.8599    6.7100 H   0  0  0  0  0  0  0  0  0  0  0  0
  -36.6048    9.6405    8.3909 H   0  0  0  0  0  0  0  0  0  0  0  0
  -37.3131    7.0592    7.2993 H   0  0  0  0  0  0  0  0  0  0  0  0
  -34.9299    7.6845    8.7284 H   0  0  0  0  0  0  0  0  0  0  0  0
  -37.9316    6.0240    9.3047 H   0  0  0  0  0  0  0  0  0  0  0  0
  -35.9433    5.6255   10.7104 H   0  0  0  0  0  0  0  0  0  0  0  0
  -36.0555    7.8486   10.8846 H   0  0  0  0  0  0  0  0  0  0  0  0
  -38.6678    5.3732   11.3139 H   0  0  0  0  0  0  0  0  0  0  0  0
  -40.6839    8.4040   16.3604 H   0  0  0  0  0  0  0  0  0  0  0  0
  -40.7175    6.9103   15.3855 H   0  0  0  0  0  0  0  0  0  0  0  0
  -37.7464   11.2667   14.2119 H   0  0  0  0  0  0  0  0  0  0  0  0
  2  1  1  0
  2  3  1  0
  2  6  1  0
  3  4  1  0
  4  5  1  0
  5  9  1  0
  6  7  2  0
  6  8  1  0
 10  9  1  0
 10 11  1  0
 10 12  1  0
 11 16  1  0
 12 13  1  0
 12 14  1  0
 14 15  1  0
 14 16  1  0
 16 17  1  0
 17 18  1  0
 17 26  1  0
 18 19  2  0
 19 20  1  0
 20 21  2  0
 20 26  1  0
 21 22  1  0
 21 23  1  0
 23 24  2  0
 24 25  1  0
 25 26  2  0
  1 27  1  0
  1 28  1  0
  1 29  1  0
  2 30  1  6
  3 31  1  0
  3 32  1  0
  4 33  1  0
  4 34  1  0
  9 35  1  0
  9 36  1  0
 10 37  1  1
 12 38  1  6
 13 39  1  0
 14 40  1  6
 15 41  1  0
 16 42  1  1
 18 43  1  0
 22 44  1  0
 22 45  1  0
 24 46  1  0
M  CHG  2   1   1   8  -1
M  END
>  <filename_input>  (17) 
7RC3_SAH_docked.sdf

>  <pdb_id>  (17) 
7RC3_SAH

>  <pose_rank>  (17) 
16

>  <num_atoms_heavy>  (17) 
26

>  <num_torsions>  (17) 
7

>  <pose>  (17) 
[-37.385109442206044, 8.880338719374853, 8.543471084692506, 0.9371299921571753, -2.5107702711624706, 2.0720125052049645, 0.5946631171668426, -1.4693313435867446, -1.008644475499235, -2.14792270967888, 0.6249597077663558, -2.8169644508681384, 0.32213207208498007]

>  <energy>  (17) 
-356.9166121984322

>  <inter_energy>  (17) 
-362.7677158561379

>  <intra_energy>  (17) 
4.410694838554612

>  <rmsd>  (17) 
9.64892

>  <sdf_rank>  (17) 
0

$$$$

     RDKit          3D

 46 48  0  0  0  0  0  0  0  0999 V2000
  -45.6490   15.7623    9.1178 N   0  0  0  0  0  0  0  0  0  0  0  0
  -44.2395   15.5682    8.7716 C   0  0  1  0  0  0  0  0  0  0  0  0
  -43.7642   14.1359    9.0598 C   0  0  0  0  0  0  0  0  0  0  0  0
  -42.9783   13.9429   10.3587 C   0  0  0  0  0  0  0  0  0  0  0  0
  -44.0333   14.2067   11.8154 S   0  0  0  0  0  0  0  0  0  0  0  0
  -44.0132   15.9214    7.3116 C   0  0  0  0  0  0  0  0  0  0  0  0
  -43.0713   16.6622    6.9999 O   0  0  0  0  0  0  0  0  0  0  0  0
  -44.7783   15.4928    6.4284 O   0  0  0  0  0  0  0  0  0  0  0  0
  -42.9382   15.2803   12.8008 C   0  0  0  0  0  0  0  0  0  0  0  0
  -42.0677   14.5597   13.8298 C   0  0  1  0  0  0  0  0  0  0  0  0
  -41.0852   15.4582   14.3167 O   0  0  0  0  0  0  0  0  0  0  0  0
  -42.7933   14.0907   15.0888 C   0  0  1  0  0  0  0  0  0  0  0  0
  -42.6251   12.6875   15.2204 O   0  0  0  0  0  0  0  0  0  0  0  0
  -42.1026   14.8314   16.2378 C   0  0  1  0  0  0  0  0  0  0  0  0
  -41.9552   14.1234   17.4443 O   0  0  0  0  0  0  0  0  0  0  0  0
  -40.7399   15.1183   15.6619 C   0  0  2  0  0  0  0  0  0  0  0  0
  -40.0500   16.3189   16.1180 N   0  0  0  0  0  0  0  0  0  0  0  0
  -40.6052   17.4239   16.7140 C   0  0  0  0  0  0  0  0  0  0  0  0
  -39.6325   18.3533   16.8758 N   0  0  0  0  0  0  0  0  0  0  0  0
  -38.4724   17.8663   16.3700 C   0  0  0  0  0  0  0  0  0  0  0  0
  -37.1925   18.3986   16.2549 C   0  0  0  0  0  0  0  0  0  0  0  0
  -36.9121   19.6198   16.6981 N   0  0  0  0  0  0  0  0  0  0  0  0
  -36.2179   17.6273   15.6783 N   0  0  0  0  0  0  0  0  0  0  0  0
  -36.4821   16.3551   15.2156 C   0  0  0  0  0  0  0  0  0  0  0  0
  -37.7600   15.8332   15.3211 N   0  0  0  0  0  0  0  0  0  0  0  0
  -38.7266   16.5870   15.8849 C   0  0  0  0  0  0  0  0  0  0  0  0
  -45.7520   15.7765   10.1426 H   0  0  0  0  0  0  0  0  0  0  0  0
  -45.9786   16.6566    8.7273 H   0  0  0  0  0  0  0  0  0  0  0  0
  -46.2080   14.9903    8.7273 H   0  0  0  0  0  0  0  0  0  0  0  0
  -43.6430   16.2394    9.4070 H   0  0  0  0  0  0  0  0  0  0  0  0
  -44.6521   13.4881    9.1033 H   0  0  0  0  0  0  0  0  0  0  0  0
  -43.0657   13.8843    8.2482 H   0  0  0  0  0  0  0  0  0  0  0  0
  -42.5786   12.9185   10.3867 H   0  0  0  0  0  0  0  0  0  0  0  0
  -42.1624   14.6802   10.3832 H   0  0  0  0  0  0  0  0  0  0  0  0
  -42.2722   15.8142   12.1069 H   0  0  0  0  0  0  0  0  0  0  0  0
  -43.6009   15.9440   13.3755 H   0  0  0  0  0  0  0  0  0  0  0  0
  -41.6818   13.6841   13.2872 H   0  0  0  0  0  0  0  0  0  0  0  0
  -43.8739   14.2953   15.0697 H   0  0  0  0  0  0  0  0  0  0  0  0
  -42.5963   12.4472   16.1804 H   0  0  0  0  0  0  0  0  0  0  0  0
  -42.7100   15.6984   16.5368 H   0  0  0  0  0  0  0  0  0  0  0  0
  -42.0838   14.7410   18.2072 H   0  0  0  0  0  0  0  0  0  0  0  0
  -40.0836   14.2687   15.9017 H   0  0  0  0  0  0  0  0  0  0  0  0
  -41.6588   17.5357   17.0095 H   0  0  0  0  0  0  0  0  0  0  0  0
  -35.9578   19.9955   16.6034 H   0  0  0  0  0  0  0  0  0  0  0  0
  -37.6491   20.1904   17.1364 H   0  0  0  0  0  0  0  0  0  0  0  0
  -35.6783   15.7557   14.7633 H   0  0  0  0  0  0  0  0  0  0  0  0
  2  1  1  0
  2  3  1  0
  2  6  1  0
  3  4  1  0
  4  5  1  0
  5  9  1  0
  6  7  2  0
  6  8  1  0
 10  9  1  0
 10 11  1  0
 10 12  1  0
 11 16  1  0
 12 13  1  0
 12 14  1  0
 14 15  1  0
 14 16  1  0
 16 17  1  0
 17 18  1  0
 17 26  1  0
 18 19  2  0
 19 20  1  0
 20 21  2  0
 20 26  1  0
 21 22  1  0
 21 23  1  0
 23 24  2  0
 24 25  1  0
 25 26  2  0
  1 27  1  0
  1 28  1  0
  1 29  1  0
  2 30  1  1
  3 31  1  0
  3 32  1  0
  4 33  1  0
  4 34  1  0
  9 35  1  0
  9 36  1  0
 10 37  1  6
 12 38  1  6
 13 39  1  0
 14 40  1  1
 15 41  1  0
 16 42  1  6
 18 43  1  0
 22 44  1  0
 22 45  1  0
 24 46  1  0
M  CHG  2   1   1   8  -1
M  END
>  <filename_input>  (18) 
7RC3_SAH_docked.sdf

>  <pdb_id>  (18) 
7RC3_SAH

>  <pose_rank>  (18) 
17

>  <num_atoms_heavy>  (18) 
26

>  <num_torsions>  (18) 
7

>  <pose>  (18) 
[-42.06765462371591, 14.559666332526623, 13.8298355454319, 0.09949282962603984, 1.7241019479824298, -4.040908261085324, 0.23772684192696697, -0.2889361125284955, -0.1613529143174102, -4.292071959258783, -1.7744397848699331, 3.498001266690623, -0.6197936355280034]

>  <energy>  (18) 
-327.7200103428168

>  <inter_energy>  (18) 
-327.1513915613631

>  <intra_energy>  (18) 
2.55659358767821

>  <rmsd>  (18) 
9.55665

>  <sdf_rank>  (18) 
0

$$$$

     RDKit          3D

 46 48  0  0  0  0  0  0  0  0999 V2000
  -44.4437   10.2629    7.4258 N   0  0  0  0  0  0  0  0  0  0  0  0
  -43.1455   10.9394    7.4623 C   0  0  1  0  0  0  0  0  0  0  0  0
  -42.3381   10.7132    6.1748 C   0  0  0  0  0  0  0  0  0  0  0  0
  -42.0409    9.2540    5.8219 C   0  0  0  0  0  0  0  0  0  0  0  0
  -40.5279    8.6700    6.6429 S   0  0  0  0  0  0  0  0  0  0  0  0
  -43.3440   12.4243    7.7130 C   0  0  0  0  0  0  0  0  0  0  0  0
  -42.4050   13.2084    7.5214 O   0  0  0  0  0  0  0  0  0  0  0  0
  -44.4331   12.8580    8.1312 O   0  0  0  0  0  0  0  0  0  0  0  0
  -39.7830   10.2712    7.0951 C   0  0  0  0  0  0  0  0  0  0  0  0
  -38.6068   10.1948    8.0682 C   0  0  1  0  0  0  0  0  0  0  0  0
  -38.7718    9.0640    8.9071 O   0  0  0  0  0  0  0  0  0  0  0  0
  -37.2381    9.9801    7.4265 C   0  0  1  0  0  0  0  0  0  0  0  0
  -36.3813   11.0471    7.8035 O   0  0  0  0  0  0  0  0  0  0  0  0
  -36.7390    8.6519    8.0034 C   0  0  1  0  0  0  0  0  0  0  0  0
  -35.3593    8.5565    8.2604 O   0  0  0  0  0  0  0  0  0  0  0  0
  -37.4929    8.5637    9.3053 C   0  0  2  0  0  0  0  0  0  0  0  0
  -37.8223    7.2361    9.8095 N   0  0  0  0  0  0  0  0  0  0  0  0
  -37.9070    6.0690    9.0917 C   0  0  0  0  0  0  0  0  0  0  0  0
  -38.3473    5.0915    9.9204 N   0  0  0  0  0  0  0  0  0  0  0  0
  -38.5673    5.6236   11.1481 C   0  0  0  0  0  0  0  0  0  0  0  0
  -39.0357    5.0866   12.3426 C   0  0  0  0  0  0  0  0  0  0  0  0
  -39.3623    3.8019   12.4389 N   0  0  0  0  0  0  0  0  0  0  0  0
  -39.1455    5.9153   13.4282 N   0  0  0  0  0  0  0  0  0  0  0  0
  -38.8076    7.2506   13.3555 C   0  0  0  0  0  0  0  0  0  0  0  0
  -38.3531    7.7842   12.1617 N   0  0  0  0  0  0  0  0  0  0  0  0
  -38.2447    6.9759   11.0868 C   0  0  0  0  0  0  0  0  0  0  0  0
  -44.7696   10.0931    8.3880 H   0  0  0  0  0  0  0  0  0  0  0  0
  -45.1260   10.8557    6.9318 H   0  0  0  0  0  0  0  0  0  0  0  0
  -44.3487    9.3641    6.9318 H   0  0  0  0  0  0  0  0  0  0  0  0
  -42.5638   10.5035    8.2879 H   0  0  0  0  0  0  0  0  0  0  0  0
  -42.9034   11.1537    5.3403 H   0  0  0  0  0  0  0  0  0  0  0  0
  -41.3591   11.1831    6.3501 H   0  0  0  0  0  0  0  0  0  0  0  0
  -42.8869    8.6284    6.1429 H   0  0  0  0  0  0  0  0  0  0  0  0
  -41.8948    9.1831    4.7340 H   0  0  0  0  0  0  0  0  0  0  0  0
  -39.4292   10.7538    6.1721 H   0  0  0  0  0  0  0  0  0  0  0  0
  -40.5707   10.8362    7.6150 H   0  0  0  0  0  0  0  0  0  0  0  0
  -38.6184   11.1691    8.5786 H   0  0  0  0  0  0  0  0  0  0  0  0
  -37.2723    9.9542    6.3273 H   0  0  0  0  0  0  0  0  0  0  0  0
  -36.3373   11.1018    8.7910 H   0  0  0  0  0  0  0  0  0  0  0  0
  -36.9073    7.8457    7.2743 H   0  0  0  0  0  0  0  0  0  0  0  0
  -35.2058    8.5458    9.2384 H   0  0  0  0  0  0  0  0  0  0  0  0
  -36.8880    9.0537   10.0824 H   0  0  0  0  0  0  0  0  0  0  0  0
  -37.6599    5.9480    8.0267 H   0  0  0  0  0  0  0  0  0  0  0  0
  -39.7073    3.4239   13.3327 H   0  0  0  0  0  0  0  0  0  0  0  0
  -39.2705    3.1844   11.6197 H   0  0  0  0  0  0  0  0  0  0  0  0
  -38.8992    7.8909   14.2452 H   0  0  0  0  0  0  0  0  0  0  0  0
  2  1  1  0
  2  3  1  0
  2  6  1  0
  3  4  1  0
  4  5  1  0
  5  9  1  0
  6  7  2  0
  6  8  1  0
 10  9  1  0
 10 11  1  0
 10 12  1  0
 11 16  1  0
 12 13  1  0
 12 14  1  0
 14 15  1  0
 14 16  1  0
 16 17  1  0
 17 18  1  0
 17 26  1  0
 18 19  2  0
 19 20  1  0
 20 21  2  0
 20 26  1  0
 21 22  1  0
 21 23  1  0
 23 24  2  0
 24 25  1  0
 25 26  2  0
  1 27  1  0
  1 28  1  0
  1 29  1  0
  2 30  1  1
  3 31  1  0
  3 32  1  0
  4 33  1  0
  4 34  1  0
  9 35  1  0
  9 36  1  0
 10 37  1  1
 12 38  1  6
 13 39  1  0
 14 40  1  6
 15 41  1  0
 16 42  1  1
 18 43  1  0
 22 44  1  0
 22 45  1  0
 24 46  1  0
M  CHG  2   1   1   8  -1
M  END
>  <filename_input>  (19) 
7RC3_SAH_docked.sdf

>  <pdb_id>  (19) 
7RC3_SAH

>  <pose_rank>  (19) 
18

>  <num_atoms_heavy>  (19) 
26

>  <num_torsions>  (19) 
7

>  <pose>  (19) 
[-38.60684032498917, 10.19475244326109, 8.068224949672938, 1.9972654111138517, -3.3636853952896675, 1.46480216407105, 0.20835980889825628, 2.5436174839674224, -1.8636132119770958, -2.2621073800002693, 1.824917459908501, 4.2277157736328155, 0.46798525793227647]

>  <energy>  (19) 
-348.71989882228655

>  <inter_energy>  (19) 
-349.44484412687746

>  <intra_energy>  (19) 
3.7199184484844787

>  <rmsd>  (19) 
8.37551

>  <sdf_rank>  (19) 
0

$$$$

     RDKit          3D

 46 48  0  0  0  0  0  0  0  0999 V2000
  -42.6831   13.8682    8.6298 N   0  0  0  0  0  0  0  0  0  0  0  0
  -44.0927   14.2390    8.7707 C   0  0  1  0  0  0  0  0  0  0  0  0
  -44.5194   14.3448   10.2429 C   0  0  0  0  0  0  0  0  0  0  0  0
  -43.7721   15.3850   11.0805 C   0  0  0  0  0  0  0  0  0  0  0  0
  -42.5077   14.6057   12.1286 S   0  0  0  0  0  0  0  0  0  0  0  0
  -44.3579   15.5460    8.0436 C   0  0  0  0  0  0  0  0  0  0  0  0
  -43.5466   15.9536    7.2016 O   0  0  0  0  0  0  0  0  0  0  0  0
  -45.3700   16.2227    8.3019 O   0  0  0  0  0  0  0  0  0  0  0  0
  -43.3289   14.7330   13.7511 C   0  0  0  0  0  0  0  0  0  0  0  0
  -42.3954   14.7096   14.9612 C   0  0  1  0  0  0  0  0  0  0  0  0
  -42.1715   13.3644   15.3481 O   0  0  0  0  0  0  0  0  0  0  0  0
  -40.9925   15.2607   14.7173 C   0  0  1  0  0  0  0  0  0  0  0  0
  -40.7539   16.3275   15.6226 O   0  0  0  0  0  0  0  0  0  0  0  0
  -40.0544   14.0842   15.0039 C   0  0  1  0  0  0  0  0  0  0  0  0
  -38.8264   14.3934   15.6163 O   0  0  0  0  0  0  0  0  0  0  0  0
  -40.8769   13.2387   15.9418 C   0  0  2  0  0  0  0  0  0  0  0  0
  -40.6635   11.7967   15.9185 N   0  0  0  0  0  0  0  0  0  0  0  0
  -41.6077   10.8169   15.7374 C   0  0  0  0  0  0  0  0  0  0  0  0
  -41.0069    9.6129   15.8969 N   0  0  0  0  0  0  0  0  0  0  0  0
  -39.7004    9.8118   16.2006 C   0  0  0  0  0  0  0  0  0  0  0  0
  -38.6514    8.9434   16.4836 C   0  0  0  0  0  0  0  0  0  0  0  0
  -38.8281    7.6262   16.4814 N   0  0  0  0  0  0  0  0  0  0  0  0
  -37.4206    9.4795   16.7580 N   0  0  0  0  0  0  0  0  0  0  0  0
  -37.2102   10.8426   16.7609 C   0  0  0  0  0  0  0  0  0  0  0  0
  -38.2594   11.7042   16.4905 N   0  0  0  0  0  0  0  0  0  0  0  0
  -39.4755   11.1850   16.2221 C   0  0  0  0  0  0  0  0  0  0  0  0
  -42.2623   13.7574    9.5633 H   0  0  0  0  0  0  0  0  0  0  0  0
  -42.6118   12.9798    8.1135 H   0  0  0  0  0  0  0  0  0  0  0  0
  -42.1838   14.6064    8.1135 H   0  0  0  0  0  0  0  0  0  0  0  0
  -44.6965   13.4391    8.3173 H   0  0  0  0  0  0  0  0  0  0  0  0
  -45.5895   14.5982   10.2666 H   0  0  0  0  0  0  0  0  0  0  0  0
  -44.2797   13.3705   10.6938 H   0  0  0  0  0  0  0  0  0  0  0  0
  -43.2847   16.1047   10.4063 H   0  0  0  0  0  0  0  0  0  0  0  0
  -44.4986   15.8924   11.7323 H   0  0  0  0  0  0  0  0  0  0  0  0
  -43.8908   15.6784   13.7740 H   0  0  0  0  0  0  0  0  0  0  0  0
  -43.9641   13.8394   13.8407 H   0  0  0  0  0  0  0  0  0  0  0  0
  -42.9067   15.3380   15.7053 H   0  0  0  0  0  0  0  0  0  0  0  0
  -40.8493   15.6509   13.6989 H   0  0  0  0  0  0  0  0  0  0  0  0
  -40.8284   15.9946   16.5520 H   0  0  0  0  0  0  0  0  0  0  0  0
  -39.7440   13.6197   14.0564 H   0  0  0  0  0  0  0  0  0  0  0  0
  -38.9323   14.3668   16.6002 H   0  0  0  0  0  0  0  0  0  0  0  0
  -40.6688   13.5704   16.9697 H   0  0  0  0  0  0  0  0  0  0  0  0
  -42.6699   10.9810   15.5031 H   0  0  0  0  0  0  0  0  0  0  0  0
  -38.0382    7.0002   16.6937 H   0  0  0  0  0  0  0  0  0  0  0  0
  -39.7550    7.2313   16.2675 H   0  0  0  0  0  0  0  0  0  0  0  0
  -36.2095   11.2447   16.9778 H   0  0  0  0  0  0  0  0  0  0  0  0
  2  1  1  0
  2  3  1  0
  2  6  1  0
  3  4  1  0
  4  5  1  0
  5  9  1  0
  6  7  2  0
  6  8  1  0
 10  9  1  0
 10 11  1  0
 10 12  1  0
 11 16  1  0
 12 13  1  0
 12 14  1  0
 14 15  1  0
 14 16  1  0
 16 17  1  0
 17 18  1  0
 17 26  1  0
 18 19  2  0
 19 20  1  0
 20 21  2  0
 20 26  1  0
 21 22  1  0
 21 23  1  0
 23 24  2  0
 24 25  1  0
 25 26  2  0
  1 27  1  0
  1 28  1  0
  1 29  1  0
  2 30  1  6
  3 31  1  0
  3 32  1  0
  4 33  1  0
  4 34  1  0
  9 35  1  0
  9 36  1  0
 10 37  1  1
 12 38  1  6
 13 39  1  0
 14 40  1  6
 15 41  1  0
 16 42  1  1
 18 43  1  0
 22 44  1  0
 22 45  1  0
 24 46  1  0
M  CHG  2   1   1   8  -1
M  END
>  <filename_input>  (20) 
7RC3_SAH_docked.sdf

>  <pdb_id>  (20) 
7RC3_SAH

>  <pose_rank>  (20) 
19

>  <num_atoms_heavy>  (20) 
26

>  <num_torsions>  (20) 
7

>  <pose>  (20) 
[-42.395441343889665, 14.709634417343356, 14.96116211213469, 2.70206797012912, -3.733703786267496, 0.7260667077845093, -1.6088101789197065, 1.5320925897961524, -1.2414589885491674, -3.8128384445386883, 1.556804971230584, 0.019149295838019807, -2.6185341747916566]

>  <energy>  (20) 
-295.7753532559173

>  <inter_energy>  (20) 
-315.2362256634846

>  <intra_energy>  (20) 
21.804156588477767

>  <rmsd>  (20) 
8.39469

>  <sdf_rank>  (20) 
0

$$$$

     RDKit          3D

 46 48  0  0  0  0  0  0  0  0999 V2000
  -45.9266   17.0343    9.8743 N   0  0  0  0  0  0  0  0  0  0  0  0
  -44.5437   16.5699    9.7475 C   0  0  1  0  0  0  0  0  0  0  0  0
  -44.1439   15.6225   10.8891 C   0  0  0  0  0  0  0  0  0  0  0  0
  -44.2629   14.1270   10.5870 C   0  0  0  0  0  0  0  0  0  0  0  0
  -43.3421   13.1323   11.7984 S   0  0  0  0  0  0  0  0  0  0  0  0
  -44.3472   15.8948    8.4010 C   0  0  0  0  0  0  0  0  0  0  0  0
  -45.3350   15.5393    7.7445 O   0  0  0  0  0  0  0  0  0  0  0  0
  -43.2037   15.6743    7.9617 O   0  0  0  0  0  0  0  0  0  0  0  0
  -42.8559   14.4421   12.9692 C   0  0  0  0  0  0  0  0  0  0  0  0
  -42.8418   14.0321   14.4416 C   0  0  1  0  0  0  0  0  0  0  0  0
  -41.9261   12.9642   14.6167 O   0  0  0  0  0  0  0  0  0  0  0  0
  -42.3508   15.1011   15.4150 C   0  0  1  0  0  0  0  0  0  0  0  0
  -43.3675   15.3523   16.3730 O   0  0  0  0  0  0  0  0  0  0  0  0
  -41.1158   14.4868   16.0810 C   0  0  1  0  0  0  0  0  0  0  0  0
  -40.9180   14.7896   17.4403 O   0  0  0  0  0  0  0  0  0  0  0  0
  -41.3735   13.0092   15.9347 C   0  0  2  0  0  0  0  0  0  0  0  0
  -40.2183   12.1278   15.8172 N   0  0  0  0  0  0  0  0  0  0  0  0
  -38.9452   12.4685   15.4330 C   0  0  0  0  0  0  0  0  0  0  0  0
  -38.2085   11.3344   15.3500 N   0  0  0  0  0  0  0  0  0  0  0  0
  -38.9991   10.2749   15.6517 C   0  0  0  0  0  0  0  0  0  0  0  0
  -38.7686    8.9040   15.6970 C   0  0  0  0  0  0  0  0  0  0  0  0
  -37.5719    8.3973   15.4181 N   0  0  0  0  0  0  0  0  0  0  0  0
  -39.8075    8.0819   16.0467 N   0  0  0  0  0  0  0  0  0  0  0  0
  -41.0569    8.5834   16.3461 C   0  0  0  0  0  0  0  0  0  0  0  0
  -41.2859    9.9475   16.2883 N   0  0  0  0  0  0  0  0  0  0  0  0
  -40.2692   10.7641   15.9421 C   0  0  0  0  0  0  0  0  0  0  0  0
  -46.1711   17.1165   10.8715 H   0  0  0  0  0  0  0  0  0  0  0  0
  -46.0229   17.9539    9.4203 H   0  0  0  0  0  0  0  0  0  0  0  0
  -46.5584   16.3594    9.4203 H   0  0  0  0  0  0  0  0  0  0  0  0
  -43.8872   17.4499    9.8147 H   0  0  0  0  0  0  0  0  0  0  0  0
  -43.0959   15.8317   11.1498 H   0  0  0  0  0  0  0  0  0  0  0  0
  -44.8560   15.8199   11.7039 H   0  0  0  0  0  0  0  0  0  0  0  0
  -45.3238   13.8384   10.6189 H   0  0  0  0  0  0  0  0  0  0  0  0
  -43.8381   13.9397    9.5897 H   0  0  0  0  0  0  0  0  0  0  0  0
  -41.8437   14.7788   12.7008 H   0  0  0  0  0  0  0  0  0  0  0  0
  -43.6207   15.2277   12.8804 H   0  0  0  0  0  0  0  0  0  0  0  0
  -43.8930   13.7961   14.6634 H   0  0  0  0  0  0  0  0  0  0  0  0
  -42.1111   16.0571   14.9265 H   0  0  0  0  0  0  0  0  0  0  0  0
  -42.9923   15.2596   17.2844 H   0  0  0  0  0  0  0  0  0  0  0  0
  -40.2052   14.8832   15.6081 H   0  0  0  0  0  0  0  0  0  0  0  0
  -41.3650   14.1055   17.9992 H   0  0  0  0  0  0  0  0  0  0  0  0
  -41.9365   12.6732   16.8180 H   0  0  0  0  0  0  0  0  0  0  0  0
  -38.5850   13.4874   15.2278 H   0  0  0  0  0  0  0  0  0  0  0  0
  -37.4219    7.3791   15.4574 H   0  0  0  0  0  0  0  0  0  0  0  0
  -36.7946    9.0229   15.1627 H   0  0  0  0  0  0  0  0  0  0  0  0
  -41.8707    7.9002   16.6306 H   0  0  0  0  0  0  0  0  0  0  0  0
  2  1  1  0
  2  3  1  0
  2  6  1  0
  3  4  1  0
  4  5  1  0
  5  9  1  0
  6  7  2  0
  6  8  1  0
 10  9  1  0
 10 11  1  0
 10 12  1  0
 11 16  1  0
 12 13  1  0
 12 14  1  0
 14 15  1  0
 14 16  1  0
 16 17  1  0
 17 18  1  0
 17 26  1  0
 18 19  2  0
 19 20  1  0
 20 21  2  0
 20 26  1  0
 21 22  1  0
 21 23  1  0
 23 24  2  0
 24 25  1  0
 25 26  2  0
  1 27  1  0
  1 28  1  0
  1 29  1  0
  2 30  1  6
  3 31  1  0
  3 32  1  0
  4 33  1  0
  4 34  1  0
  9 35  1  0
  9 36  1  0
 10 37  1  1
 12 38  1  6
 13 39  1  0
 14 40  1  6
 15 41  1  0
 16 42  1  1
 18 43  1  0
 22 44  1  0
 22 45  1  0
 24 46  1  0
M  CHG  2   1   1   8  -1
M  END
>  <filename_input>  (21) 
7RC3_SAH_docked.sdf

>  <pdb_id>  (21) 
7RC3_SAH

>  <pose_rank>  (21) 
20

>  <num_atoms_heavy>  (21) 
26

>  <num_torsions>  (21) 
7

>  <pose>  (21) 
[-42.84177649042203, 14.032091698681667, 14.441577048322765, 4.792478607859091, -2.048292180964858, -1.6989452509771723, 0.22326397636578246, 4.105736528073669, -2.283880957642263, -1.8450049539992361, 6.19516940730824, 6.923192535651955, 3.078730878389706]

>  <energy>  (21) 
-271.5007799659301

>  <inter_energy>  (21) 
-282.8762893108994

>  <intra_energy>  (21) 
6.06413752963601

>  <rmsd>  (21) 
7.86748

>  <sdf_rank>  (21) 
0

$$$$

     RDKit          3D

 46 48  0  0  0  0  0  0  0  0999 V2000
  -34.4119   12.7903    0.9650 N   0  0  0  0  0  0  0  0  0  0  0  0
  -35.6285   13.3597    1.5482 C   0  0  1  0  0  0  0  0  0  0  0  0
  -35.5381   13.4756    3.0776 C   0  0  0  0  0  0  0  0  0  0  0  0
  -36.8736   13.4985    3.8245 C   0  0  0  0  0  0  0  0  0  0  0  0
  -36.7809   12.5529    5.3743 S   0  0  0  0  0  0  0  0  0  0  0  0
  -35.9130   14.7162    0.9267 C   0  0  0  0  0  0  0  0  0  0  0  0
  -36.9563   14.8875    0.2822 O   0  0  0  0  0  0  0  0  0  0  0  0
  -35.0978   15.6500    1.0387 O   0  0  0  0  0  0  0  0  0  0  0  0
  -38.4410   12.8945    6.0454 C   0  0  0  0  0  0  0  0  0  0  0  0
  -38.8134   12.1091    7.3027 C   0  0  1  0  0  0  0  0  0  0  0  0
  -40.2255   12.0555    7.4146 O   0  0  0  0  0  0  0  0  0  0  0  0
  -38.3878   10.6427    7.3095 C   0  0  1  0  0  0  0  0  0  0  0  0
  -37.5591   10.4099    8.4381 O   0  0  0  0  0  0  0  0  0  0  0  0
  -39.6968    9.8557    7.4244 C   0  0  1  0  0  0  0  0  0  0  0  0
  -39.6589    8.6810    8.1973 O   0  0  0  0  0  0  0  0  0  0  0  0
  -40.6146   10.8530    8.0833 C   0  0  2  0  0  0  0  0  0  0  0  0
  -42.0370   10.7726    7.7745 N   0  0  0  0  0  0  0  0  0  0  0  0
  -43.0640   11.4394    8.3951 C   0  0  0  0  0  0  0  0  0  0  0  0
  -44.2342   10.9952    7.8762 N   0  0  0  0  0  0  0  0  0  0  0  0
  -43.9690   10.0387    6.9524 C   0  0  0  0  0  0  0  0  0  0  0  0
  -44.7828    9.2475    6.1484 C   0  0  0  0  0  0  0  0  0  0  0  0
  -46.1067    9.3563    6.1899 N   0  0  0  0  0  0  0  0  0  0  0  0
  -44.1848    8.3529    5.3001 N   0  0  0  0  0  0  0  0  0  0  0  0
  -42.8131    8.2250    5.2343 C   0  0  0  0  0  0  0  0  0  0  0  0
  -42.0068    9.0058    6.0446 N   0  0  0  0  0  0  0  0  0  0  0  0
  -42.5873    9.8872    6.8851 C   0  0  0  0  0  0  0  0  0  0  0  0
  -33.7764   12.4929    1.7190 H   0  0  0  0  0  0  0  0  0  0  0  0
  -34.6584   11.9771    0.3829 H   0  0  0  0  0  0  0  0  0  0  0  0
  -33.9454   13.5005    0.3829 H   0  0  0  0  0  0  0  0  0  0  0  0
  -36.4593   12.6739    1.3258 H   0  0  0  0  0  0  0  0  0  0  0  0
  -34.9594   12.6164    3.4475 H   0  0  0  0  0  0  0  0  0  0  0  0
  -35.0686   14.4505    3.2758 H   0  0  0  0  0  0  0  0  0  0  0  0
  -37.1366   14.5412    4.0563 H   0  0  0  0  0  0  0  0  0  0  0  0
  -37.6383   13.0375    3.1821 H   0  0  0  0  0  0  0  0  0  0  0  0
  -38.4960   13.9664    6.2860 H   0  0  0  0  0  0  0  0  0  0  0  0
  -39.1531   12.5791    5.2686 H   0  0  0  0  0  0  0  0  0  0  0  0
  -38.2936   12.6405    8.1135 H   0  0  0  0  0  0  0  0  0  0  0  0
  -37.8196   10.3505    6.4142 H   0  0  0  0  0  0  0  0  0  0  0  0
  -38.0809   10.5565    9.2665 H   0  0  0  0  0  0  0  0  0  0  0  0
  -39.9935    9.4850    6.4322 H   0  0  0  0  0  0  0  0  0  0  0  0
  -39.6665    8.9180    9.1584 H   0  0  0  0  0  0  0  0  0  0  0  0
  -40.5222   10.7320    9.1727 H   0  0  0  0  0  0  0  0  0  0  0  0
  -42.9555   12.2033    9.1792 H   0  0  0  0  0  0  0  0  0  0  0  0
  -46.6916    8.7609    5.5863 H   0  0  0  0  0  0  0  0  0  0  0  0
  -46.5479   10.0360    6.8257 H   0  0  0  0  0  0  0  0  0  0  0  0
  -42.3602    7.5032    4.5386 H   0  0  0  0  0  0  0  0  0  0  0  0
  2  1  1  0
  2  3  1  0
  2  6  1  0
  3  4  1  0
  4  5  1  0
  5  9  1  0
  6  7  2  0
  6  8  1  0
 10  9  1  0
 10 11  1  0
 10 12  1  0
 11 16  1  0
 12 13  1  0
 12 14  1  0
 14 15  1  0
 14 16  1  0
 16 17  1  0
 17 18  1  0
 17 26  1  0
 18 19  2  0
 19 20  1  0
 20 21  2  0
 20 26  1  0
 21 22  1  0
 21 23  1  0
 23 24  2  0
 24 25  1  0
 25 26  2  0
  1 27  1  0
  1 28  1  0
  1 29  1  0
  2 30  1  1
  3 31  1  0
  3 32  1  0
  4 33  1  0
  4 34  1  0
  9 35  1  0
  9 36  1  0
 10 37  1  1
 12 38  1  6
 13 39  1  0
 14 40  1  6
 15 41  1  0
 16 42  1  1
 18 43  1  0
 22 44  1  0
 22 45  1  0
 24 46  1  0
M  CHG  2   1   1   8  -1
M  END
>  <filename_input>  (22) 
7RC3_SAH_docked.sdf

>  <pdb_id>  (22) 
7RC3_SAH

>  <pose_rank>  (22) 
21

>  <num_atoms_heavy>  (22) 
26

>  <num_torsions>  (22) 
7

>  <pose>  (22) 
[-38.81336077644468, 12.109137657318369, 7.302688758361821, -0.8582764131926677, -2.855995777317499, 2.79369655672497, -2.7322316339283717, 0.31299784764210015, -1.7824861826373968, 1.1042981990938214, -0.4845494575086, 2.5241440860497226, -0.867227153120539]

>  <energy>  (22) 
-293.8674480959218

>  <inter_energy>  (22) 
-328.05017423427586

>  <intra_energy>  (22) 
26.69507748676155

>  <rmsd>  (22) 
8.50206

>  <sdf_rank>  (22) 
0

$$$$

     RDKit          3D

 46 48  0  0  0  0  0  0  0  0999 V2000
  -45.9406   15.5062    9.1153 N   0  0  0  0  0  0  0  0  0  0  0  0
  -44.4919   15.3901    8.9358 C   0  0  1  0  0  0  0  0  0  0  0  0
  -43.8848   14.2914    9.8217 C   0  0  0  0  0  0  0  0  0  0  0  0
  -44.4046   14.2314   11.2598 C   0  0  0  0  0  0  0  0  0  0  0  0
  -43.4092   13.0996   12.2761 S   0  0  0  0  0  0  0  0  0  0  0  0
  -44.1719   15.1331    7.4733 C   0  0  0  0  0  0  0  0  0  0  0  0
  -43.4048   14.2105    7.1674 O   0  0  0  0  0  0  0  0  0  0  0  0
  -44.6543   15.8546    6.5812 O   0  0  0  0  0  0  0  0  0  0  0  0
  -42.5465   14.3092   13.3324 C   0  0  0  0  0  0  0  0  0  0  0  0
  -42.2988   13.8617   14.7727 C   0  0  1  0  0  0  0  0  0  0  0  0
  -41.3609   12.7986   14.7731 O   0  0  0  0  0  0  0  0  0  0  0  0
  -41.6668   14.9101   15.6853 C   0  0  1  0  0  0  0  0  0  0  0  0
  -42.5217   15.1267   16.7974 O   0  0  0  0  0  0  0  0  0  0  0  0
  -40.3391   14.2909   16.1324 C   0  0  1  0  0  0  0  0  0  0  0  0
  -39.9317   14.5606   17.4514 O   0  0  0  0  0  0  0  0  0  0  0  0
  -40.6083   12.8151   15.9887 C   0  0  2  0  0  0  0  0  0  0  0  0
  -39.4811   11.9483   15.6676 N   0  0  0  0  0  0  0  0  0  0  0  0
  -39.4032   10.5874   15.8293 C   0  0  0  0  0  0  0  0  0  0  0  0
  -38.1459   10.1931   15.5133 N   0  0  0  0  0  0  0  0  0  0  0  0
  -37.4157   11.2848   15.1763 C   0  0  0  0  0  0  0  0  0  0  0  0
  -36.0882   11.4562   14.7982 C   0  0  0  0  0  0  0  0  0  0  0  0
  -35.2610   10.4206   14.6999 N   0  0  0  0  0  0  0  0  0  0  0  0
  -35.6511   12.7243   14.5186 N   0  0  0  0  0  0  0  0  0  0  0  0
  -36.4912   13.8146   14.6077 C   0  0  0  0  0  0  0  0  0  0  0  0
  -37.8087   13.6417   14.9959 N   0  0  0  0  0  0  0  0  0  0  0  0
  -38.2468   12.3966   15.2759 C   0  0  0  0  0  0  0  0  0  0  0  0
  -46.1615   15.5239   10.1212 H   0  0  0  0  0  0  0  0  0  0  0  0
  -46.2724   16.3765    8.6756 H   0  0  0  0  0  0  0  0  0  0  0  0
  -46.4068   14.6999    8.6756 H   0  0  0  0  0  0  0  0  0  0  0  0
  -44.0383   16.3424    9.2476 H   0  0  0  0  0  0  0  0  0  0  0  0
  -44.0934   13.3214    9.3468 H   0  0  0  0  0  0  0  0  0  0  0  0
  -42.8139   14.5299    9.9012 H   0  0  0  0  0  0  0  0  0  0  0  0
  -44.3611   15.2391   11.6987 H   0  0  0  0  0  0  0  0  0  0  0  0
  -45.4397   13.8597   11.2393 H   0  0  0  0  0  0  0  0  0  0  0  0
  -41.5715   14.5274   12.8722 H   0  0  0  0  0  0  0  0  0  0  0  0
  -43.2103   15.1840   13.3964 H   0  0  0  0  0  0  0  0  0  0  0  0
  -43.3007   13.6098   15.1504 H   0  0  0  0  0  0  0  0  0  0  0  0
  -41.5123   15.8806   15.1911 H   0  0  0  0  0  0  0  0  0  0  0  0
  -42.0115   14.9974   17.6359 H   0  0  0  0  0  0  0  0  0  0  0  0
  -39.5163   14.7082   15.5332 H   0  0  0  0  0  0  0  0  0  0  0  0
  -40.5660   14.1407   18.0851 H   0  0  0  0  0  0  0  0  0  0  0  0
  -41.0235   12.4511   16.9400 H   0  0  0  0  0  0  0  0  0  0  0  0
  -40.2210    9.9298   16.1589 H   0  0  0  0  0  0  0  0  0  0  0  0
  -34.2814   10.5688   14.4183 H   0  0  0  0  0  0  0  0  0  0  0  0
  -35.5995    9.4697   14.9054 H   0  0  0  0  0  0  0  0  0  0  0  0
  -36.1147   14.8205   14.3704 H   0  0  0  0  0  0  0  0  0  0  0  0
  2  1  1  0
  2  3  1  0
  2  6  1  0
  3  4  1  0
  4  5  1  0
  5  9  1  0
  6  7  2  0
  6  8  1  0
 10  9  1  0
 10 11  1  0
 10 12  1  0
 11 16  1  0
 12 13  1  0
 12 14  1  0
 14 15  1  0
 14 16  1  0
 16 17  1  0
 17 18  1  0
 17 26  1  0
 18 19  2  0
 19 20  1  0
 20 21  2  0
 20 26  1  0
 21 22  1  0
 21 23  1  0
 23 24  2  0
 24 25  1  0
 25 26  2  0
  1 27  1  0
  1 28  1  0
  1 29  1  0
  2 30  1  1
  3 31  1  0
  3 32  1  0
  4 33  1  0
  4 34  1  0
  9 35  1  0
  9 36  1  0
 10 37  1  1
 12 38  1  6
 13 39  1  0
 14 40  1  6
 15 41  1  0
 16 42  1  1
 18 43  1  0
 22 44  1  0
 22 45  1  0
 24 46  1  0
M  CHG  2   1   1   8  -1
M  END
>  <filename_input>  (23) 
7RC3_SAH_docked.sdf

>  <pdb_id>  (23) 
7RC3_SAH

>  <pose_rank>  (23) 
22

>  <num_atoms_heavy>  (23) 
26

>  <num_torsions>  (23) 
7

>  <pose>  (23) 
[-42.29876784747266, 13.861653447856591, 14.772663670472358, 4.183885645004097, -2.8207293289617277, -2.005807517339529, -2.8773858844624036, -2.0398528639570195, -14.841649346951808, 6.21920962884561, 6.651062940087917, -8.067291147774522, 1.0808205760010368]

>  <energy>  (23) 
-297.40544589295934

>  <inter_energy>  (23) 
-310.38807030917496

>  <intra_energy>  (23) 
22.509129714278163

>  <rmsd>  (23) 
8.40079

>  <sdf_rank>  (23) 
0

$$$$

     RDKit          3D

 46 48  0  0  0  0  0  0  0  0999 V2000
  -34.3899   17.0306    3.7877 N   0  0  0  0  0  0  0  0  0  0  0  0
  -34.6424   15.7293    3.1657 C   0  0  1  0  0  0  0  0  0  0  0  0
  -35.7226   14.9307    3.9115 C   0  0  0  0  0  0  0  0  0  0  0  0
  -35.3194   13.5257    4.3646 C   0  0  0  0  0  0  0  0  0  0  0  0
  -36.6005   12.3042    3.9505 S   0  0  0  0  0  0  0  0  0  0  0  0
  -35.0304   15.9196    1.7095 C   0  0  0  0  0  0  0  0  0  0  0  0
  -35.2921   17.0545    1.2890 O   0  0  0  0  0  0  0  0  0  0  0  0
  -35.1106   14.9441    0.9407 O   0  0  0  0  0  0  0  0  0  0  0  0
  -36.8872   11.5845    5.6005 C   0  0  0  0  0  0  0  0  0  0  0  0
  -38.0853   12.1503    6.3626 C   0  0  1  0  0  0  0  0  0  0  0  0
  -39.2671   11.5135    5.9073 O   0  0  0  0  0  0  0  0  0  0  0  0
  -38.0854   11.8934    7.8677 C   0  0  1  0  0  0  0  0  0  0  0  0
  -38.1450   13.1385    8.5465 O   0  0  0  0  0  0  0  0  0  0  0  0
  -39.3529   11.0727    8.1247 C   0  0  1  0  0  0  0  0  0  0  0  0
  -40.0359   11.3298    9.3272 O   0  0  0  0  0  0  0  0  0  0  0  0
  -40.2299   11.4638    6.9632 C   0  0  2  0  0  0  0  0  0  0  0  0
  -41.1814   10.4759    6.4693 N   0  0  0  0  0  0  0  0  0  0  0  0
  -41.0018    9.5882    5.4377 C   0  0  0  0  0  0  0  0  0  0  0  0
  -42.1689    8.9302    5.2351 N   0  0  0  0  0  0  0  0  0  0  0  0
  -43.0952    9.4025    6.1055 C   0  0  0  0  0  0  0  0  0  0  0  0
  -44.4377    9.1041    6.3137 C   0  0  0  0  0  0  0  0  0  0  0  0
  -45.0592    8.1824    5.5854 N   0  0  0  0  0  0  0  0  0  0  0  0
  -45.1079    9.7801    7.2992 N   0  0  0  0  0  0  0  0  0  0  0  0
  -44.4841   10.7369    8.0723 C   0  0  0  0  0  0  0  0  0  0  0  0
  -43.1510   11.0397    7.8543 N   0  0  0  0  0  0  0  0  0  0  0  0
  -42.4841   10.3810    6.8838 C   0  0  0  0  0  0  0  0  0  0  0  0
  -34.4092   16.9308    4.8127 H   0  0  0  0  0  0  0  0  0  0  0  0
  -33.4658   17.3780    3.4940 H   0  0  0  0  0  0  0  0  0  0  0  0
  -35.1169   17.6985    3.4940 H   0  0  0  0  0  0  0  0  0  0  0  0
  -33.7125   15.1444    3.2231 H   0  0  0  0  0  0  0  0  0  0  0  0
  -36.0091   15.5042    4.8054 H   0  0  0  0  0  0  0  0  0  0  0  0
  -36.5403   14.7884    3.1897 H   0  0  0  0  0  0  0  0  0  0  0  0
  -34.3808   13.2438    3.8649 H   0  0  0  0  0  0  0  0  0  0  0  0
  -35.1910   13.5369    5.4570 H   0  0  0  0  0  0  0  0  0  0  0  0
  -37.0438   10.5028    5.4766 H   0  0  0  0  0  0  0  0  0  0  0  0
  -35.9999   11.8365    6.1999 H   0  0  0  0  0  0  0  0  0  0  0  0
  -38.0304   13.2337    6.1804 H   0  0  0  0  0  0  0  0  0  0  0  0
  -37.1862   11.3662    8.2191 H   0  0  0  0  0  0  0  0  0  0  0  0
  -38.1375   12.9821    9.5241 H   0  0  0  0  0  0  0  0  0  0  0  0
  -39.0917   10.0080    8.2158 H   0  0  0  0  0  0  0  0  0  0  0  0
  -39.4493   11.1090   10.0936 H   0  0  0  0  0  0  0  0  0  0  0  0
  -40.8177   12.3441    7.2624 H   0  0  0  0  0  0  0  0  0  0  0  0
  -40.0703    9.4369    4.8726 H   0  0  0  0  0  0  0  0  0  0  0  0
  -46.0540    7.9762    5.7554 H   0  0  0  0  0  0  0  0  0  0  0  0
  -44.5462    7.6741    4.8510 H   0  0  0  0  0  0  0  0  0  0  0  0
  -45.0453   11.2588    8.8613 H   0  0  0  0  0  0  0  0  0  0  0  0
  2  1  1  0
  2  3  1  0
  2  6  1  0
  3  4  1  0
  4  5  1  0
  5  9  1  0
  6  7  2  0
  6  8  1  0
 10  9  1  0
 10 11  1  0
 10 12  1  0
 11 16  1  0
 12 13  1  0
 12 14  1  0
 14 15  1  0
 14 16  1  0
 16 17  1  0
 17 18  1  0
 17 26  1  0
 18 19  2  0
 19 20  1  0
 20 21  2  0
 20 26  1  0
 21 22  1  0
 21 23  1  0
 23 24  2  0
 24 25  1  0
 25 26  2  0
  1 27  1  0
  1 28  1  0
  1 29  1  0
  2 30  1  6
  3 31  1  0
  3 32  1  0
  4 33  1  0
  4 34  1  0
  9 35  1  0
  9 36  1  0
 10 37  1  1
 12 38  1  1
 13 39  1  0
 14 40  1  6
 15 41  1  0
 16 42  1  1
 18 43  1  0
 22 44  1  0
 22 45  1  0
 24 46  1  0
M  CHG  2   1   1   8  -1
M  END
>  <filename_input>  (24) 
7RC3_SAH_docked.sdf

>  <pdb_id>  (24) 
7RC3_SAH

>  <pose_rank>  (24) 
23

>  <num_atoms_heavy>  (24) 
26

>  <num_torsions>  (24) 
7

>  <pose>  (24) 
[-38.08526254725628, 12.150303019581063, 6.362563884486974, -0.09453410595190055, 0.061913519004806336, 4.696216190615223, -1.0591325416201505, -1.7938273389092756, 3.1884823413891645, -4.145596850668958, 1.0059304892089185, 3.059800374735222, -3.1151247440745884]

>  <energy>  (24) 
-265.8746669260897

>  <inter_energy>  (24) 
-253.01907646574756

>  <intra_energy>  (24) 
0.058218619213650485

>  <rmsd>  (24) 
8.50804

>  <sdf_rank>  (24) 
0

$$$$

     RDKit          3D

 46 48  0  0  0  0  0  0  0  0999 V2000
  -50.8966   16.7595   17.3648 N   0  0  0  0  0  0  0  0  0  0  0  0
  -52.0463   16.6917   16.4604 C   0  0  1  0  0  0  0  0  0  0  0  0
  -53.0701   15.6352   16.9034 C   0  0  0  0  0  0  0  0  0  0  0  0
  -53.3082   14.4850   15.9224 C   0  0  0  0  0  0  0  0  0  0  0  0
  -53.2044   12.8728   16.7559 S   0  0  0  0  0  0  0  0  0  0  0  0
  -52.7017   18.0580   16.3552 C   0  0  0  0  0  0  0  0  0  0  0  0
  -52.3310   18.8488   15.4775 O   0  0  0  0  0  0  0  0  0  0  0  0
  -53.5909   18.3995   17.1563 O   0  0  0  0  0  0  0  0  0  0  0  0
  -53.9483   11.8125   15.4732 C   0  0  0  0  0  0  0  0  0  0  0  0
  -53.0744   11.5592   14.2451 C   0  0  1  0  0  0  0  0  0  0  0  0
  -52.4067   10.3183   14.3991 O   0  0  0  0  0  0  0  0  0  0  0  0
  -53.8267   11.4108   12.9247 C   0  0  1  0  0  0  0  0  0  0  0  0
  -53.3483   12.3860   12.0110 O   0  0  0  0  0  0  0  0  0  0  0  0
  -53.4892    9.9981   12.4383 C   0  0  1  0  0  0  0  0  0  0  0  0
  -53.3375    9.8301   11.0501 O   0  0  0  0  0  0  0  0  0  0  0  0
  -52.1703    9.7313   13.1169 C   0  0  2  0  0  0  0  0  0  0  0  0
  -51.8520    8.3510   13.4614 N   0  0  0  0  0  0  0  0  0  0  0  0
  -51.9719    7.7492   14.6894 C   0  0  0  0  0  0  0  0  0  0  0  0
  -51.4650    6.4958   14.5997 N   0  0  0  0  0  0  0  0  0  0  0  0
  -51.0022    6.2991   13.3404 C   0  0  0  0  0  0  0  0  0  0  0  0
  -50.3747    5.2243   12.7194 C   0  0  0  0  0  0  0  0  0  0  0  0
  -50.1259    4.0975   13.3788 N   0  0  0  0  0  0  0  0  0  0  0  0
  -50.0241    5.3504   11.4009 N   0  0  0  0  0  0  0  0  0  0  0  0
  -50.2765    6.5070   10.6932 C   0  0  0  0  0  0  0  0  0  0  0  0
  -50.8905    7.5791   11.3179 N   0  0  0  0  0  0  0  0  0  0  0  0
  -51.2364    7.4646   12.6170 C   0  0  0  0  0  0  0  0  0  0  0  0
  -51.2258   16.7401   18.3406 H   0  0  0  0  0  0  0  0  0  0  0  0
  -50.2782   15.9535   17.1950 H   0  0  0  0  0  0  0  0  0  0  0  0
  -50.3772   17.6326   17.1950 H   0  0  0  0  0  0  0  0  0  0  0  0
  -51.6763   16.3863   15.4705 H   0  0  0  0  0  0  0  0  0  0  0  0
  -52.7195   15.2025   17.8520 H   0  0  0  0  0  0  0  0  0  0  0  0
  -54.0310   16.1650   16.9809 H   0  0  0  0  0  0  0  0  0  0  0  0
  -54.3083   14.5947   15.4777 H   0  0  0  0  0  0  0  0  0  0  0  0
  -52.5301   14.5247   15.1459 H   0  0  0  0  0  0  0  0  0  0  0  0
  -54.1817   10.8396   15.9303 H   0  0  0  0  0  0  0  0  0  0  0  0
  -54.8343   12.3532   15.1089 H   0  0  0  0  0  0  0  0  0  0  0  0
  -52.4234   12.4444   14.1932 H   0  0  0  0  0  0  0  0  0  0  0  0
  -54.9128   11.5536   13.0244 H   0  0  0  0  0  0  0  0  0  0  0  0
  -52.9725   13.1522   12.5129 H   0  0  0  0  0  0  0  0  0  0  0  0
  -54.3193    9.3169   12.6769 H   0  0  0  0  0  0  0  0  0  0  0  0
  -52.6845    9.1070   10.8745 H   0  0  0  0  0  0  0  0  0  0  0  0
  -51.3682   10.0819   12.4508 H   0  0  0  0  0  0  0  0  0  0  0  0
  -52.4051    8.2061   15.5914 H   0  0  0  0  0  0  0  0  0  0  0  0
  -49.6601    3.3131   12.9006 H   0  0  0  0  0  0  0  0  0  0  0  0
  -50.3988    4.0086   14.3680 H   0  0  0  0  0  0  0  0  0  0  0  0
  -49.9902    6.5776    9.6335 H   0  0  0  0  0  0  0  0  0  0  0  0
  2  1  1  0
  2  3  1  0
  2  6  1  0
  3  4  1  0
  4  5  1  0
  5  9  1  0
  6  7  2  0
  6  8  1  0
 10  9  1  0
 10 11  1  0
 10 12  1  0
 11 16  1  0
 12 13  1  0
 12 14  1  0
 14 15  1  0
 14 16  1  0
 16 17  1  0
 17 18  1  0
 17 26  1  0
 18 19  2  0
 19 20  1  0
 20 21  2  0
 20 26  1  0
 21 22  1  0
 21 23  1  0
 23 24  2  0
 24 25  1  0
 25 26  2  0
  1 27  1  0
  1 28  1  0
  1 29  1  0
  2 30  1  6
  3 31  1  0
  3 32  1  0
  4 33  1  0
  4 34  1  0
  9 35  1  0
  9 36  1  0
 10 37  1  6
 12 38  1  1
 13 39  1  0
 14 40  1  1
 15 41  1  0
 16 42  1  6
 18 43  1  0
 22 44  1  0
 22 45  1  0
 24 46  1  0
M  CHG  2   1   1   8  -1
M  END
>  <filename_input>  (25) 
7RC3_SAH_docked.sdf

>  <pdb_id>  (25) 
7RC3_SAH

>  <pose_rank>  (25) 
24

>  <num_atoms_heavy>  (25) 
26

>  <num_torsions>  (25) 
7

>  <pose>  (25) 
[-53.07439986619015, 11.559236381207421, 14.24510072151806, -1.552644011945849, 3.1050457915609395, 0.3259964323260216, -1.157657264969684, -1.532187929491367, 2.7581584570420303, -5.352449854663166, -0.6706293962233488, 3.189259646428375, -1.342293769669725]

>  <energy>  (25) 
-228.5114664280092

>  <inter_energy>  (25) 
-231.78107504892085

>  <intra_energy>  (25) 
0.9542120247707979

>  <rmsd>  (25) 
11.3196

>  <sdf_rank>  (25) 
0

$$$$

     RDKit          3D

 46 48  0  0  0  0  0  0  0  0999 V2000
  -48.9950   17.0370    5.4230 N   0  0  0  0  0  0  0  0  0  0  0  0
  -48.7180   17.9840    6.5050 C   0  0  1  0  0  0  0  0  0  0  0  0
  -47.3810   17.6910    7.2030 C   0  0  0  0  0  0  0  0  0  0  0  0
  -46.1390   17.7350    6.3100 C   0  0  0  0  0  0  0  0  0  0  0  0
  -44.6130   17.6930    7.2970 S   0  0  0  0  0  0  0  0  0  0  0  0
  -48.7380   19.4040    5.9660 C   0  0  0  0  0  0  0  0  0  0  0  0
  -48.7620   20.3580    6.7550 O   0  0  0  0  0  0  0  0  0  0  0  0
  -48.7540   19.6180    4.7400 O   0  0  0  0  0  0  0  0  0  0  0  0
  -43.9760   16.0550    6.8130 C   0  0  0  0  0  0  0  0  0  0  0  0
  -44.5300   14.8750    7.6110 C   0  0  1  0  0  0  0  0  0  0  0  0
  -43.8730   13.6880    7.2000 O   0  0  0  0  0  0  0  0  0  0  0  0
  -44.2840   14.9290    9.1170 C   0  0  1  0  0  0  0  0  0  0  0  0
  -45.5330   14.8740    9.7890 O   0  0  0  0  0  0  0  0  0  0  0  0
  -43.4470   13.6830    9.4220 C   0  0  1  0  0  0  0  0  0  0  0  0
  -43.7030   13.0370   10.6450 O   0  0  0  0  0  0  0  0  0  0  0  0
  -43.8170   12.7620    8.2880 C   0  0  2  0  0  0  0  0  0  0  0  0
  -42.8120   11.8090    7.8330 N   0  0  0  0  0  0  0  0  0  0  0  0
  -41.4510   11.9850    7.7990 C   0  0  0  0  0  0  0  0  0  0  0  0
  -40.8970   10.9010    7.2040 N   0  0  0  0  0  0  0  0  0  0  0  0
  -41.8860   10.0490    6.8370 C   0  0  0  0  0  0  0  0  0  0  0  0
  -41.8840    8.8220    6.1820 C   0  0  0  0  0  0  0  0  0  0  0  0
  -40.7490    8.2530    5.7890 N   0  0  0  0  0  0  0  0  0  0  0  0
  -43.0860    8.2040    5.9570 N   0  0  0  0  0  0  0  0  0  0  0  0
  -44.2770    8.7710    6.3600 C   0  0  0  0  0  0  0  0  0  0  0  0
  -44.2760    9.9980    7.0010 N   0  0  0  0  0  0  0  0  0  0  0  0
  -43.0970   10.6150    7.2240 C   0  0  0  0  0  0  0  0  0  0  0  0
  -49.2614   16.1263    5.8237 H   0  0  0  0  0  0  0  0  0  0  0  0
  -49.7664   17.3954    4.8421 H   0  0  0  0  0  0  0  0  0  0  0  0
  -48.1521   16.9232    4.8421 H   0  0  0  0  0  0  0  0  0  0  0  0
  -49.5082   17.8687    7.2615 H   0  0  0  0  0  0  0  0  0  0  0  0
  -47.2480   18.4344    8.0028 H   0  0  0  0  0  0  0  0  0  0  0  0
  -47.4532   16.6541    7.5629 H   0  0  0  0  0  0  0  0  0  0  0  0
  -46.1526   16.8670    5.6344 H   0  0  0  0  0  0  0  0  0  0  0  0
  -46.1563   18.6743    5.7378 H   0  0  0  0  0  0  0  0  0  0  0  0
  -44.2232   15.8942    5.7533 H   0  0  0  0  0  0  0  0  0  0  0  0
  -42.8951   16.0777    7.0159 H   0  0  0  0  0  0  0  0  0  0  0  0
  -45.6128   14.9078    7.4198 H   0  0  0  0  0  0  0  0  0  0  0  0
  -43.7724   15.8471    9.4415 H   0  0  0  0  0  0  0  0  0  0  0  0
  -45.3819   14.8807   10.7674 H   0  0  0  0  0  0  0  0  0  0  0  0
  -42.3869   13.9626    9.5114 H   0  0  0  0  0  0  0  0  0  0  0  0
  -43.4641   13.6399   11.3930 H   0  0  0  0  0  0  0  0  0  0  0  0
  -44.6909   12.1717    8.6008 H   0  0  0  0  0  0  0  0  0  0  0  0
  -40.9040   12.8565    8.1880 H   0  0  0  0  0  0  0  0  0  0  0  0
  -40.7692    7.3438    5.3054 H   0  0  0  0  0  0  0  0  0  0  0  0
  -39.8492    8.7212    5.9681 H   0  0  0  0  0  0  0  0  0  0  0  0
  -45.2267    8.2487    6.1722 H   0  0  0  0  0  0  0  0  0  0  0  0
  2  1  1  0
  2  3  1  0
  2  6  1  0
  3  4  1  0
  4  5  1  0
  5  9  1  0
  6  7  2  0
  6  8  1  0
 10  9  1  0
 10 11  1  0
 10 12  1  0
 11 16  1  0
 12 13  1  0
 12 14  1  0
 14 15  1  0
 14 16  1  0
 16 17  1  0
 17 18  1  0
 17 26  1  0
 18 19  2  0
 19 20  1  0
 20 21  2  0
 20 26  1  0
 21 22  1  0
 21 23  1  0
 23 24  2  0
 24 25  1  0
 25 26  2  0
  1 27  1  0
  1 28  1  0
  1 29  1  0
  2 30  1  1
  3 31  1  0
  3 32  1  0
  4 33  1  0
  4 34  1  0
  9 35  1  0
  9 36  1  0
 10 37  1  1
 12 38  1  6
 13 39  1  0
 14 40  1  6
 15 41  1  0
 16 42  1  1
 18 43  1  0
 22 44  1  0
 22 45  1  0
 24 46  1  0
M  CHG  2   1   1   8  -1
M  END
>  <filename_input>  (26) 
7RC3_SAH_docked.sdf

>  <pdb_id>  (26) 
7RC3_SAH

>  <pose_rank>  (26) 
25

>  <num_atoms_heavy>  (26) 
26

>  <num_torsions>  (26) 
7

>  <pose>  (26) 
[-44.53, 14.875, 7.611, 1e-06, 1e-06, 1e-06, 0.0, 0.0, 0.0, 0.0, 0.0, 0.0, 0.0]

>  <energy>  (26) 
-1022.7900072856669

>  <inter_energy>  (26) 
-1034.8276493563244

>  <intra_energy>  (26) 
0.007185062424515129

>  <rmsd>  (26) 
0.0

>  <sdf_rank>  (26) 
0

$$$$
