
     RDKit          3D

 56 58  0  0  0  0  0  0  0  0999 V2000
   11.0006   -9.0519    2.1349 C   0  0  0  0  0  0  0  0  0  0  0  0
   15.5224   -7.6077   -1.1505 C   0  0  0  0  0  0  0  0  0  0  0  0
   20.3597   -5.5297    0.5601 O   0  0  0  0  0  0  0  0  0  0  0  0
   20.7904   -5.6909   -0.7855 C   0  0  0  0  0  0  0  0  0  0  0  0
   22.1332   -9.9401   -2.0288 C   0  0  0  0  0  0  0  0  0  0  0  0
   18.5826   -6.8443   -0.9545 C   0  0  2  0  0  0  0  0  0  0  0  0
   17.8240   -7.9695   -1.5845 C   0  0  1  0  0  0  0  0  0  0  0  0
   20.0072   -8.9569   -2.1892 C   0  0  1  0  0  0  0  0  0  0  0  0
   18.6117   -9.2755   -1.7278 C   0  0  1  0  0  0  0  0  0  0  0  0
   19.9827   -6.7268   -1.5298 C   0  0  2  0  0  0  0  0  0  0  0  0
   20.6757   -7.9774   -1.3801 O   0  0  0  0  0  0  0  0  0  0  0  0
   20.7404  -10.1515   -2.1470 O   0  0  0  0  0  0  0  0  0  0  0  0
   18.7505   -9.9218   -0.4294 O   0  0  0  0  0  0  0  0  0  0  0  0
   18.0606  -11.0359   -0.2316 C   0  0  0  0  0  0  0  0  0  0  0  0
   16.6603   -8.1048   -0.7284 O   0  0  0  0  0  0  0  0  0  0  0  0
   18.6308   -7.0656    0.4590 O   0  0  0  0  0  0  0  0  0  0  0  0
   15.4485   -6.9523   -2.1344 O   0  0  0  0  0  0  0  0  0  0  0  0
   16.9026  -11.1786   -0.6049 O   0  0  0  0  0  0  0  0  0  0  0  0
   18.8944  -12.1503    0.3214 C   0  0  0  0  0  0  0  0  0  0  0  0
   14.3552   -7.9889   -0.2955 C   0  0  0  0  0  0  0  0  0  0  0  0
   13.0910   -8.1596   -0.8643 C   0  0  0  0  0  0  0  0  0  0  0  0
   14.5084   -8.2075    1.0699 C   0  0  0  0  0  0  0  0  0  0  0  0
   12.0248   -8.5287   -0.0694 C   0  0  0  0  0  0  0  0  0  0  0  0
   13.4175   -8.5609    1.8280 C   0  0  0  0  0  0  0  0  0  0  0  0
   12.1821   -8.7285    1.2863 C   0  0  0  0  0  0  0  0  0  0  0  0
   20.0122  -12.5252   -0.4227 C   0  0  0  0  0  0  0  0  0  0  0  0
   18.6014  -12.9037    1.4575 C   0  0  0  0  0  0  0  0  0  0  0  0
   20.7873  -13.6176   -0.0536 C   0  0  0  0  0  0  0  0  0  0  0  0
   19.3318  -14.0026    1.8342 C   0  0  0  0  0  0  0  0  0  0  0  0
   17.4326  -12.5541    2.2753 N   0  0  0  0  0  0  0  0  0  0  0  0
   20.4304  -14.3376    1.0638 C   0  0  0  0  0  0  0  0  0  0  0  0
   21.3023  -15.7290    1.4985 Cl  0  0  0  0  0  0  0  0  0  0  0  0
   17.5687  -11.5755    3.0454 O   0  0  0  0  0  0  0  0  0  0  0  0
   16.3554  -13.1508    2.1167 O   0  0  0  0  0  0  0  0  0  0  0  0
   11.2795   -8.9756    3.1962 H   0  0  0  0  0  0  0  0  0  0  0  0
   10.1879   -8.3432    1.9174 H   0  0  0  0  0  0  0  0  0  0  0  0
   10.6622  -10.0757    1.9174 H   0  0  0  0  0  0  0  0  0  0  0  0
   21.0870   -5.8018    1.1742 H   0  0  0  0  0  0  0  0  0  0  0  0
   20.6924   -4.7265   -1.3054 H   0  0  0  0  0  0  0  0  0  0  0  0
   21.8355   -6.0335   -0.7637 H   0  0  0  0  0  0  0  0  0  0  0  0
   22.4087   -9.8983   -0.9647 H   0  0  0  0  0  0  0  0  0  0  0  0
   22.6721  -10.7667   -2.5149 H   0  0  0  0  0  0  0  0  0  0  0  0
   22.4026   -8.9908   -2.5149 H   0  0  0  0  0  0  0  0  0  0  0  0
   18.0690   -5.8954   -1.1690 H   0  0  0  0  0  0  0  0  0  0  0  0
   17.5736   -7.7482   -2.6325 H   0  0  0  0  0  0  0  0  0  0  0  0
   19.9391   -8.5286   -3.2002 H   0  0  0  0  0  0  0  0  0  0  0  0
   18.0788   -9.9254   -2.4375 H   0  0  0  0  0  0  0  0  0  0  0  0
   19.8799   -6.4437   -2.5878 H   0  0  0  0  0  0  0  0  0  0  0  0
   18.4457   -6.2161    0.9325 H   0  0  0  0  0  0  0  0  0  0  0  0
   12.9455   -8.0003   -1.9429 H   0  0  0  0  0  0  0  0  0  0  0  0
   15.4968   -8.0982    1.5402 H   0  0  0  0  0  0  0  0  0  0  0  0
   11.0329   -8.6658   -0.5247 H   0  0  0  0  0  0  0  0  0  0  0  0
   13.5486   -8.7132    2.9095 H   0  0  0  0  0  0  0  0  0  0  0  0
   20.2850  -11.9464   -1.3174 H   0  0  0  0  0  0  0  0  0  0  0  0
   21.6708  -13.9020   -0.6440 H   0  0  0  0  0  0  0  0  0  0  0  0
   19.0535  -14.5959    2.7176 H   0  0  0  0  0  0  0  0  0  0  0  0
  1 25  1  0
  2 15  1  0
  2 17  2  0
  2 20  1  0
  3  4  1  0
 10  4  1  0
  5 12  1  0
  6  7  1  0
  6 10  1  0
  6 16  1  0
  7  9  1  0
  7 15  1  0
  8  9  1  0
  8 11  1  0
  8 12  1  0
  9 13  1  0
 10 11  1  0
 13 14  1  0
 14 18  2  0
 14 19  1  0
 19 26  2  0
 19 27  1  0
 20 21  2  0
 20 22  1  0
 21 23  1  0
 22 24  2  0
 23 25  2  0
 24 25  1  0
 26 28  1  0
 27 29  2  0
 27 30  1  0
 28 31  2  0
 29 31  1  0
 30 33  2  0
 30 34  1  0
 31 32  1  0
  1 35  1  0
  1 36  1  0
  1 37  1  0
  3 38  1  0
  4 39  1  0
  4 40  1  0
  5 41  1  0
  5 42  1  0
  5 43  1  0
  6 44  1  1
  7 45  1  6
  8 46  1  6
  9 47  1  6
 10 48  1  6
 16 49  1  0
 21 50  1  0
 22 51  1  0
 23 52  1  0
 24 53  1  0
 26 54  1  0
 28 55  1  0
 29 56  1  0
M  CHG  2  30   1  34  -1
M  END
>  <filename_input>  (1) 
7RH3_59O_docked.sdf

>  <pdb_id>  (1) 
7RH3_59O

>  <pose_rank>  (1) 
0

>  <num_atoms_heavy>  (1) 
34

>  <num_torsions>  (1) 
9

>  <pose>  (1) 
[18.582554173875632, -6.844276661459462, -0.9545437301791111, 2.8116415836576767, -5.435268595047981, -0.8977304196928334, -2.67988830371962, 0.5731424169058006, -0.4660686959236226, 11.948743605581225, 7.092114832578658, -1.8040700703958321, 5.432497480612331, -18.981825904872363, -5.701472193656483]

>  <energy>  (1) 
-768.1622406836937

>  <inter_energy>  (1) 
-822.9440975743444

>  <intra_energy>  (1) 
58.854598548876716

>  <rmsd>  (1) 
1.31748

>  <sdf_rank>  (1) 
0

$$$$

     RDKit          3D

 56 58  0  0  0  0  0  0  0  0999 V2000
   10.6937   -9.2043    1.8997 C   0  0  0  0  0  0  0  0  0  0  0  0
   15.2965   -7.4410   -1.1054 C   0  0  0  0  0  0  0  0  0  0  0  0
   21.9122   -5.5087   -0.6394 O   0  0  0  0  0  0  0  0  0  0  0  0
   20.5176   -5.5065   -0.3614 C   0  0  0  0  0  0  0  0  0  0  0  0
   21.5405   -9.8871   -3.1020 C   0  0  0  0  0  0  0  0  0  0  0  0
   18.3347   -6.6652   -0.7160 C   0  0  2  0  0  0  0  0  0  0  0  0
   17.6193   -7.7462   -1.4631 C   0  0  1  0  0  0  0  0  0  0  0  0
   19.8397   -8.6627   -2.0434 C   0  0  1  0  0  0  0  0  0  0  0  0
   18.4298   -9.0296   -1.6702 C   0  0  1  0  0  0  0  0  0  0  0  0
   19.7569   -6.4902   -1.2177 C   0  0  2  0  0  0  0  0  0  0  0  0
   20.4592   -7.7417   -1.1330 O   0  0  0  0  0  0  0  0  0  0  0  0
   20.5861   -9.8497   -2.0597 O   0  0  0  0  0  0  0  0  0  0  0  0
   18.5203   -9.7722   -0.4199 O   0  0  0  0  0  0  0  0  0  0  0  0
   17.8614  -10.9198   -0.3492 C   0  0  0  0  0  0  0  0  0  0  0  0
   16.4212   -7.9583   -0.6725 O   0  0  0  0  0  0  0  0  0  0  0  0
   18.3240   -6.9938    0.6773 O   0  0  0  0  0  0  0  0  0  0  0  0
   15.2562   -6.7183   -2.0430 O   0  0  0  0  0  0  0  0  0  0  0  0
   17.2284  -11.3847   -1.2894 O   0  0  0  0  0  0  0  0  0  0  0  0
   18.1229  -11.6675    0.9218 C   0  0  0  0  0  0  0  0  0  0  0  0
   14.0993   -7.8903   -0.3285 C   0  0  0  0  0  0  0  0  0  0  0  0
   14.2421   -8.3513    0.9821 C   0  0  0  0  0  0  0  0  0  0  0  0
   12.8237   -7.8324   -0.8811 C   0  0  0  0  0  0  0  0  0  0  0  0
   13.1289   -8.7466    1.6959 C   0  0  0  0  0  0  0  0  0  0  0  0
   11.7430   -8.2485   -0.1404 C   0  0  0  0  0  0  0  0  0  0  0  0
   11.8695   -8.7005    1.1353 C   0  0  0  0  0  0  0  0  0  0  0  0
   17.2751  -11.3951    1.9945 C   0  0  0  0  0  0  0  0  0  0  0  0
   19.1893  -12.5351    1.1548 C   0  0  0  0  0  0  0  0  0  0  0  0
   17.4997  -11.9529    3.2470 C   0  0  0  0  0  0  0  0  0  0  0  0
   19.4527  -13.0817    2.3856 C   0  0  0  0  0  0  0  0  0  0  0  0
   20.1154  -12.8528    0.0600 N   0  0  0  0  0  0  0  0  0  0  0  0
   18.5855  -12.7809    3.4200 C   0  0  0  0  0  0  0  0  0  0  0  0
   18.9419  -13.4135    4.9556 Cl  0  0  0  0  0  0  0  0  0  0  0  0
   21.2082  -12.2404    0.0644 O   0  0  0  0  0  0  0  0  0  0  0  0
   19.8428  -13.7530   -0.7504 O   0  0  0  0  0  0  0  0  0  0  0  0
   10.8934   -9.1188    2.9780 H   0  0  0  0  0  0  0  0  0  0  0  0
    9.8061   -8.6075    1.6427 H   0  0  0  0  0  0  0  0  0  0  0  0
   10.5136  -10.2586    1.6427 H   0  0  0  0  0  0  0  0  0  0  0  0
   22.4183   -5.5095    0.2115 H   0  0  0  0  0  0  0  0  0  0  0  0
   20.3680   -5.7697    0.6961 H   0  0  0  0  0  0  0  0  0  0  0  0
   20.1332   -4.5005   -0.5854 H   0  0  0  0  0  0  0  0  0  0  0  0
   22.5521   -9.9267   -2.6717 H   0  0  0  0  0  0  0  0  0  0  0  0
   21.3709  -10.7793   -3.7227 H   0  0  0  0  0  0  0  0  0  0  0  0
   21.4411   -8.9844   -3.7227 H   0  0  0  0  0  0  0  0  0  0  0  0
   17.8185   -5.7079   -0.8802 H   0  0  0  0  0  0  0  0  0  0  0  0
   17.4120   -7.4477   -2.5013 H   0  0  0  0  0  0  0  0  0  0  0  0
   19.8102   -8.1589   -3.0208 H   0  0  0  0  0  0  0  0  0  0  0  0
   17.9371   -9.6284   -2.4504 H   0  0  0  0  0  0  0  0  0  0  0  0
   19.6967   -6.1278   -2.2546 H   0  0  0  0  0  0  0  0  0  0  0  0
   18.3510   -6.1616    1.2128 H   0  0  0  0  0  0  0  0  0  0  0  0
   15.2392   -8.3992    1.4443 H   0  0  0  0  0  0  0  0  0  0  0  0
   12.6808   -7.4558   -1.9047 H   0  0  0  0  0  0  0  0  0  0  0  0
   13.2481   -9.1043    2.7293 H   0  0  0  0  0  0  0  0  0  0  0  0
   10.7421   -8.2146   -0.5954 H   0  0  0  0  0  0  0  0  0  0  0  0
   16.4136  -10.7273    1.8468 H   0  0  0  0  0  0  0  0  0  0  0  0
   16.8217  -11.7366    4.0857 H   0  0  0  0  0  0  0  0  0  0  0  0
   20.3227  -13.7359    2.5438 H   0  0  0  0  0  0  0  0  0  0  0  0
  1 25  1  0
  2 15  1  0
  2 17  2  0
  2 20  1  0
  3  4  1  0
 10  4  1  0
  5 12  1  0
  6  7  1  0
  6 10  1  0
  6 16  1  0
  7  9  1  0
  7 15  1  0
  8  9  1  0
  8 11  1  0
  8 12  1  0
  9 13  1  0
 10 11  1  0
 13 14  1  0
 14 18  2  0
 14 19  1  0
 19 26  2  0
 19 27  1  0
 20 21  2  0
 20 22  1  0
 21 23  1  0
 22 24  2  0
 23 25  2  0
 24 25  1  0
 26 28  1  0
 27 29  2  0
 27 30  1  0
 28 31  2  0
 29 31  1  0
 30 33  2  0
 30 34  1  0
 31 32  1  0
  1 35  1  0
  1 36  1  0
  1 37  1  0
  3 38  1  0
  4 39  1  0
  4 40  1  0
  5 41  1  0
  5 42  1  0
  5 43  1  0
  6 44  1  1
  7 45  1  6
  8 46  1  6
  9 47  1  6
 10 48  1  6
 16 49  1  0
 21 50  1  0
 22 51  1  0
 23 52  1  0
 24 53  1  0
 26 54  1  0
 28 55  1  0
 29 56  1  0
M  CHG  2  30   1  34  -1
M  END
>  <filename_input>  (2) 
7RH3_59O_docked.sdf

>  <pdb_id>  (2) 
7RH3_59O

>  <pose_rank>  (2) 
1

>  <num_atoms_heavy>  (2) 
34

>  <num_torsions>  (2) 
9

>  <pose>  (2) 
[18.334683637305545, -6.6652363844444515, -0.7160246415785702, -3.283196119785289, -4.3718235196049, -2.9749570313216633, -0.2104803525617023, -0.5034296239137895, -13.006732249123285, 12.71306449135093, -2.908290595327729, 1.3174943270821462, -7.134392270801455, -6.407992798238179, 3.567501133101014]

>  <energy>  (2) 
-930.9077795801055

>  <inter_energy>  (2) 
-921.8221760286184

>  <intra_energy>  (2) 
6.828963614502353

>  <rmsd>  (2) 
1.89489

>  <sdf_rank>  (2) 
0

$$$$

     RDKit          3D

 56 58  0  0  0  0  0  0  0  0999 V2000
   10.9386   -8.6033    2.3971 C   0  0  0  0  0  0  0  0  0  0  0  0
   15.5536   -8.9781   -1.0506 C   0  0  0  0  0  0  0  0  0  0  0  0
   21.6394   -5.3946   -0.4360 O   0  0  0  0  0  0  0  0  0  0  0  0
   20.2220   -5.3041   -0.3651 C   0  0  0  0  0  0  0  0  0  0  0  0
   21.6030   -9.0338   -3.8220 C   0  0  0  0  0  0  0  0  0  0  0  0
   18.2592   -6.8272   -0.6118 C   0  0  2  0  0  0  0  0  0  0  0  0
   17.6496   -7.9332   -1.4140 C   0  0  1  0  0  0  0  0  0  0  0  0
   19.8877   -8.3092   -2.3920 C   0  0  1  0  0  0  0  0  0  0  0  0
   18.6403   -8.9936   -1.9046 C   0  0  1  0  0  0  0  0  0  0  0  0
   19.5342   -6.3115   -1.2548 C   0  0  2  0  0  0  0  0  0  0  0  0
   20.4578   -7.3974   -1.4409 O   0  0  0  0  0  0  0  0  0  0  0  0
   20.8272   -9.3115   -2.6732 O   0  0  0  0  0  0  0  0  0  0  0  0
   19.0509   -9.8462   -0.7967 O   0  0  0  0  0  0  0  0  0  0  0  0
   19.3448  -11.1069   -1.0806 C   0  0  0  0  0  0  0  0  0  0  0  0
   16.6423   -8.4742   -0.5206 O   0  0  0  0  0  0  0  0  0  0  0  0
   18.5173   -7.3146    0.7093 O   0  0  0  0  0  0  0  0  0  0  0  0
   15.5504   -9.4799   -2.1236 O   0  0  0  0  0  0  0  0  0  0  0  0
   20.1585  -11.4252   -1.9392 O   0  0  0  0  0  0  0  0  0  0  0  0
   18.7249  -12.0813   -0.1272 C   0  0  0  0  0  0  0  0  0  0  0  0
   14.3603   -8.8883   -0.1525 C   0  0  0  0  0  0  0  0  0  0  0  0
   13.0766   -8.7904   -0.6940 C   0  0  0  0  0  0  0  0  0  0  0  0
   14.5004   -8.9284    1.2311 C   0  0  0  0  0  0  0  0  0  0  0  0
   11.9814   -8.7261    0.1434 C   0  0  0  0  0  0  0  0  0  0  0  0
   13.3843   -8.8480    2.0296 C   0  0  0  0  0  0  0  0  0  0  0  0
   12.1302   -8.7510    1.5145 C   0  0  0  0  0  0  0  0  0  0  0  0
   19.0168  -11.9069    1.2249 C   0  0  0  0  0  0  0  0  0  0  0  0
   17.9639  -13.1960   -0.4778 C   0  0  0  0  0  0  0  0  0  0  0  0
   18.5812  -12.8200    2.1772 C   0  0  0  0  0  0  0  0  0  0  0  0
   17.5407  -14.1288    0.4352 C   0  0  0  0  0  0  0  0  0  0  0  0
   17.6312  -13.4294   -1.8891 N   0  0  0  0  0  0  0  0  0  0  0  0
   17.8563  -13.9148    1.7646 C   0  0  0  0  0  0  0  0  0  0  0  0
   17.3794  -15.0967    2.8874 Cl  0  0  0  0  0  0  0  0  0  0  0  0
   18.4025  -14.1874   -2.5214 O   0  0  0  0  0  0  0  0  0  0  0  0
   16.5843  -12.9677   -2.3710 O   0  0  0  0  0  0  0  0  0  0  0  0
   11.2549   -8.6425    3.4499 H   0  0  0  0  0  0  0  0  0  0  0  0
   10.4510   -7.6379    2.1965 H   0  0  0  0  0  0  0  0  0  0  0  0
   10.2302   -9.4206    2.1965 H   0  0  0  0  0  0  0  0  0  0  0  0
   22.0147   -5.4186    0.4798 H   0  0  0  0  0  0  0  0  0  0  0  0
   19.9087   -5.4793    0.6746 H   0  0  0  0  0  0  0  0  0  0  0  0
   19.9330   -4.3004   -0.7103 H   0  0  0  0  0  0  0  0  0  0  0  0
   22.5976   -8.6777   -3.5155 H   0  0  0  0  0  0  0  0  0  0  0  0
   21.7101   -9.9494   -4.4222 H   0  0  0  0  0  0  0  0  0  0  0  0
   21.1048   -8.2582   -4.4222 H   0  0  0  0  0  0  0  0  0  0  0  0
   17.5583   -5.9805   -0.5696 H   0  0  0  0  0  0  0  0  0  0  0  0
   17.2383   -7.5611   -2.3639 H   0  0  0  0  0  0  0  0  0  0  0  0
   19.6208   -7.7089   -3.2743 H   0  0  0  0  0  0  0  0  0  0  0  0
   18.1541   -9.5820   -2.6966 H   0  0  0  0  0  0  0  0  0  0  0  0
   19.2544   -5.8479   -2.2123 H   0  0  0  0  0  0  0  0  0  0  0  0
   18.1737   -6.6658    1.3734 H   0  0  0  0  0  0  0  0  0  0  0  0
   12.9388   -8.7647   -1.7851 H   0  0  0  0  0  0  0  0  0  0  0  0
   15.4985   -9.0239    1.6835 H   0  0  0  0  0  0  0  0  0  0  0  0
   10.9729   -8.6537   -0.2898 H   0  0  0  0  0  0  0  0  0  0  0  0
   13.5104   -8.8627    3.1223 H   0  0  0  0  0  0  0  0  0  0  0  0
   19.6019  -11.0315    1.5431 H   0  0  0  0  0  0  0  0  0  0  0  0
   18.8117  -12.6705    3.2423 H   0  0  0  0  0  0  0  0  0  0  0  0
   16.9706  -15.0155    0.1209 H   0  0  0  0  0  0  0  0  0  0  0  0
  1 25  1  0
  2 15  1  0
  2 17  2  0
  2 20  1  0
  3  4  1  0
 10  4  1  0
  5 12  1  0
  6  7  1  0
  6 10  1  0
  6 16  1  0
  7  9  1  0
  7 15  1  0
  8  9  1  0
  8 11  1  0
  8 12  1  0
  9 13  1  0
 10 11  1  0
 13 14  1  0
 14 18  2  0
 14 19  1  0
 19 26  2  0
 19 27  1  0
 20 21  2  0
 20 22  1  0
 21 23  1  0
 22 24  2  0
 23 25  2  0
 24 25  1  0
 26 28  1  0
 27 29  2  0
 27 30  1  0
 28 31  2  0
 29 31  1  0
 30 33  2  0
 30 34  1  0
 31 32  1  0
  1 35  1  0
  1 36  1  0
  1 37  1  0
  3 38  1  0
  4 39  1  0
  4 40  1  0
  5 41  1  0
  5 42  1  0
  5 43  1  0
  6 44  1  1
  7 45  1  6
  8 46  1  6
  9 47  1  6
 10 48  1  6
 16 49  1  0
 21 50  1  0
 22 51  1  0
 23 52  1  0
 24 53  1  0
 26 54  1  0
 28 55  1  0
 29 56  1  0
M  CHG  2  30   1  34  -1
M  END
>  <filename_input>  (3) 
7RH3_59O_docked.sdf

>  <pdb_id>  (3) 
7RH3_59O

>  <pose_rank>  (3) 
2

>  <num_atoms_heavy>  (3) 
34

>  <num_torsions>  (3) 
9

>  <pose>  (3) 
[18.259181000369896, -6.827217855464666, -0.611814347242571, 0.1629116853149115, 0.1808023126855497, 0.2229242159112281, -0.6392179707530272, 5.776898538059581, 0.21821289625255907, 7.327649810671749, 0.82265093142603, 1.2024169715968969, -0.046299126942288826, -5.766519217156389, -0.4895341068194244]

>  <energy>  (3) 
-749.2008156527376

>  <inter_energy>  (3) 
-803.6862553156458

>  <intra_energy>  (3) 
68.69099315507981

>  <rmsd>  (3) 
2.03822

>  <sdf_rank>  (3) 
0

$$$$

     RDKit          3D

 56 58  0  0  0  0  0  0  0  0999 V2000
   12.1583   -4.4097   -3.5947 C   0  0  0  0  0  0  0  0  0  0  0  0
   15.5057   -8.7705   -1.8331 C   0  0  0  0  0  0  0  0  0  0  0  0
   21.6419   -5.4971   -0.1982 O   0  0  0  0  0  0  0  0  0  0  0  0
   20.2239   -5.4924   -0.3058 C   0  0  0  0  0  0  0  0  0  0  0  0
   22.1785   -9.8007   -2.3990 C   0  0  0  0  0  0  0  0  0  0  0  0
   18.2489   -6.8988   -0.9016 C   0  0  2  0  0  0  0  0  0  0  0  0
   17.7704   -8.0923   -1.6665 C   0  0  1  0  0  0  0  0  0  0  0  0
   20.1336   -8.7958   -1.8323 C   0  0  1  0  0  0  0  0  0  0  0  0
   18.7248   -9.2904   -1.6519 C   0  0  1  0  0  0  0  0  0  0  0  0
   19.7089   -6.6006   -1.1925 C   0  0  2  0  0  0  0  0  0  0  0  0
   20.5075   -7.7619   -0.9091 O   0  0  0  0  0  0  0  0  0  0  0  0
   20.9853   -9.8942   -1.6465 O   0  0  0  0  0  0  0  0  0  0  0  0
   18.6873   -9.9450   -0.3508 O   0  0  0  0  0  0  0  0  0  0  0  0
   18.4726  -11.2527   -0.3377 C   0  0  0  0  0  0  0  0  0  0  0  0
   16.4883   -8.3861   -1.0540 O   0  0  0  0  0  0  0  0  0  0  0  0
   18.0488   -7.1450    0.4943 O   0  0  0  0  0  0  0  0  0  0  0  0
   15.3301   -9.9090   -2.1090 O   0  0  0  0  0  0  0  0  0  0  0  0
   18.7439  -11.9828   -1.2833 O   0  0  0  0  0  0  0  0  0  0  0  0
   18.0437  -11.7620    1.0037 C   0  0  0  0  0  0  0  0  0  0  0  0
   14.6313   -7.6435   -2.2847 C   0  0  0  0  0  0  0  0  0  0  0  0
   14.4984   -7.3562   -3.6450 C   0  0  0  0  0  0  0  0  0  0  0  0
   13.9148   -6.8809   -1.3677 C   0  0  0  0  0  0  0  0  0  0  0  0
   13.6753   -6.3257   -4.0517 C   0  0  0  0  0  0  0  0  0  0  0  0
   13.1165   -5.8547   -1.8142 C   0  0  0  0  0  0  0  0  0  0  0  0
   12.9803   -5.5645   -3.1351 C   0  0  0  0  0  0  0  0  0  0  0  0
   16.9550  -11.1245    1.5971 C   0  0  0  0  0  0  0  0  0  0  0  0
   18.6907  -12.7473    1.7486 C   0  0  0  0  0  0  0  0  0  0  0  0
   16.5480  -11.4483    2.8854 C   0  0  0  0  0  0  0  0  0  0  0  0
   18.3291  -13.0719    3.0319 C   0  0  0  0  0  0  0  0  0  0  0  0
   19.8461  -13.4475    1.1724 N   0  0  0  0  0  0  0  0  0  0  0  0
   17.2446  -12.4113    3.5795 C   0  0  0  0  0  0  0  0  0  0  0  0
   16.8307  -12.7740    5.1865 Cl  0  0  0  0  0  0  0  0  0  0  0  0
   20.9707  -12.9517    1.4146 O   0  0  0  0  0  0  0  0  0  0  0  0
   19.6912  -14.5214    0.5689 O   0  0  0  0  0  0  0  0  0  0  0  0
   11.7705   -3.8649   -2.7212 H   0  0  0  0  0  0  0  0  0  0  0  0
   12.7804   -3.7349   -4.2010 H   0  0  0  0  0  0  0  0  0  0  0  0
   11.3170   -4.7766   -4.2010 H   0  0  0  0  0  0  0  0  0  0  0  0
   21.9003   -5.4980    0.7575 H   0  0  0  0  0  0  0  0  0  0  0  0
   19.7933   -5.6153    0.6989 H   0  0  0  0  0  0  0  0  0  0  0  0
   19.9258   -4.5354   -0.7588 H   0  0  0  0  0  0  0  0  0  0  0  0
   23.0382   -9.7332   -1.7162 H   0  0  0  0  0  0  0  0  0  0  0  0
   22.2830  -10.6934   -3.0332 H   0  0  0  0  0  0  0  0  0  0  0  0
   22.1426   -8.9026   -3.0332 H   0  0  0  0  0  0  0  0  0  0  0  0
   17.6745   -6.0139   -1.2132 H   0  0  0  0  0  0  0  0  0  0  0  0
   17.7029   -7.8787   -2.7435 H   0  0  0  0  0  0  0  0  0  0  0  0
   20.2110   -8.3558   -2.8375 H   0  0  0  0  0  0  0  0  0  0  0  0
   18.4233   -9.9833   -2.4514 H   0  0  0  0  0  0  0  0  0  0  0  0
   19.7793   -6.3077   -2.2505 H   0  0  0  0  0  0  0  0  0  0  0  0
   18.5766   -6.4954    1.0230 H   0  0  0  0  0  0  0  0  0  0  0  0
   15.0483   -7.9497   -4.3903 H   0  0  0  0  0  0  0  0  0  0  0  0
   13.9867   -7.0979   -0.2917 H   0  0  0  0  0  0  0  0  0  0  0  0
   13.5717   -6.1078   -5.1250 H   0  0  0  0  0  0  0  0  0  0  0  0
   12.5694   -5.2479   -1.0776 H   0  0  0  0  0  0  0  0  0  0  0  0
   16.4090  -10.3521    1.0357 H   0  0  0  0  0  0  0  0  0  0  0  0
   15.6841  -10.9438    3.3428 H   0  0  0  0  0  0  0  0  0  0  0  0
   18.8823  -13.8308    3.6048 H   0  0  0  0  0  0  0  0  0  0  0  0
  1 25  1  0
  2 15  1  0
  2 17  2  0
  2 20  1  0
  3  4  1  0
 10  4  1  0
  5 12  1  0
  6  7  1  0
  6 10  1  0
  6 16  1  0
  7  9  1  0
  7 15  1  0
  8  9  1  0
  8 11  1  0
  8 12  1  0
  9 13  1  0
 10 11  1  0
 13 14  1  0
 14 18  2  0
 14 19  1  0
 19 26  2  0
 19 27  1  0
 20 21  2  0
 20 22  1  0
 21 23  1  0
 22 24  2  0
 23 25  2  0
 24 25  1  0
 26 28  1  0
 27 29  2  0
 27 30  1  0
 28 31  2  0
 29 31  1  0
 30 33  2  0
 30 34  1  0
 31 32  1  0
  1 35  1  0
  1 36  1  0
  1 37  1  0
  3 38  1  0
  4 39  1  0
  4 40  1  0
  5 41  1  0
  5 42  1  0
  5 43  1  0
  6 44  1  6
  7 45  1  6
  8 46  1  6
  9 47  1  6
 10 48  1  6
 16 49  1  0
 21 50  1  0
 22 51  1  0
 23 52  1  0
 24 53  1  0
 26 54  1  0
 28 55  1  0
 29 56  1  0
M  CHG  2  30   1  34  -1
M  END
>  <filename_input>  (4) 
7RH3_59O_docked.sdf

>  <pdb_id>  (4) 
7RH3_59O

>  <pose_rank>  (4) 
3

>  <num_atoms_heavy>  (4) 
34

>  <num_torsions>  (4) 
9

>  <pose>  (4) 
[18.2488790095207, -6.898759478154544, -0.9016457377201441, 1.3680349391757152, 3.8597163606573783, -4.527393770875913, -0.37625882956426193, 12.198819004823001, -0.14276012631518004, 0.546118026768325, 2.728898209253459, -5.12494458496565, 6.111793722116207, -11.031698730973199, -1.039047512115259]

>  <energy>  (4) 
-749.3528683215205

>  <inter_energy>  (4) 
-761.543824040103

>  <intra_energy>  (4) 
16.394427923341013

>  <rmsd>  (4) 
2.87669

>  <sdf_rank>  (4) 
0

$$$$

     RDKit          3D

 56 58  0  0  0  0  0  0  0  0999 V2000
   12.4224  -10.7752   -5.1290 C   0  0  0  0  0  0  0  0  0  0  0  0
   15.1292   -7.5209   -1.2036 C   0  0  0  0  0  0  0  0  0  0  0  0
   21.7157   -5.6222   -0.5514 O   0  0  0  0  0  0  0  0  0  0  0  0
   20.3570   -5.7838   -0.1640 C   0  0  0  0  0  0  0  0  0  0  0  0
   21.2713  -10.3353   -2.8359 C   0  0  0  0  0  0  0  0  0  0  0  0
   18.1589   -6.8681   -0.6392 C   0  0  2  0  0  0  0  0  0  0  0  0
   17.4529   -7.9391   -1.4093 C   0  0  1  0  0  0  0  0  0  0  0  0
   19.6694   -8.9516   -1.8202 C   0  0  1  0  0  0  0  0  0  0  0  0
   18.2247   -9.2564   -1.5345 C   0  0  1  0  0  0  0  0  0  0  0  0
   19.6169   -6.7584   -1.0483 C   0  0  2  0  0  0  0  0  0  0  0  0
   20.2628   -8.0329   -0.8902 O   0  0  0  0  0  0  0  0  0  0  0  0
   20.3685  -10.1657   -1.7613 O   0  0  0  0  0  0  0  0  0  0  0  0
   18.2035   -9.9720   -0.2654 O   0  0  0  0  0  0  0  0  0  0  0  0
   17.5958  -11.1495   -0.2453 C   0  0  0  0  0  0  0  0  0  0  0  0
   16.1979   -8.0873   -0.6963 O   0  0  0  0  0  0  0  0  0  0  0  0
   18.0434   -7.1629    0.7569 O   0  0  0  0  0  0  0  0  0  0  0  0
   14.7906   -6.4281   -0.8966 O   0  0  0  0  0  0  0  0  0  0  0  0
   17.0256  -11.6227   -1.2207 O   0  0  0  0  0  0  0  0  0  0  0  0
   17.8371  -11.9109    1.0216 C   0  0  0  0  0  0  0  0  0  0  0  0
   14.4318   -8.3717   -2.2177 C   0  0  0  0  0  0  0  0  0  0  0  0
   14.4743   -8.0319   -3.5717 C   0  0  0  0  0  0  0  0  0  0  0  0
   13.7545   -9.5268   -1.8397 C   0  0  0  0  0  0  0  0  0  0  0  0
   13.8424   -8.8334   -4.5008 C   0  0  0  0  0  0  0  0  0  0  0  0
   13.1271  -10.2899   -2.7956 C   0  0  0  0  0  0  0  0  0  0  0  0
   13.1601   -9.9687   -4.1160 C   0  0  0  0  0  0  0  0  0  0  0  0
   17.3496  -11.3417    2.1972 C   0  0  0  0  0  0  0  0  0  0  0  0
   18.5829  -13.0830    1.1409 C   0  0  0  0  0  0  0  0  0  0  0  0
   17.6156  -11.9126    3.4356 C   0  0  0  0  0  0  0  0  0  0  0  0
   18.8841  -13.6571    2.3503 C   0  0  0  0  0  0  0  0  0  0  0  0
   19.1235  -13.7220   -0.0659 N   0  0  0  0  0  0  0  0  0  0  0  0
   18.3807  -13.0554    3.4892 C   0  0  0  0  0  0  0  0  0  0  0  0
   18.7985  -13.7346    4.9890 Cl  0  0  0  0  0  0  0  0  0  0  0  0
   18.3912  -14.5778   -0.6143 O   0  0  0  0  0  0  0  0  0  0  0  0
   20.2038  -13.3425   -0.5459 O   0  0  0  0  0  0  0  0  0  0  0  0
   11.7651  -11.4938   -4.6176 H   0  0  0  0  0  0  0  0  0  0  0  0
   11.8161  -10.1073   -5.7585 H   0  0  0  0  0  0  0  0  0  0  0  0
   13.1415  -11.3197   -5.7585 H   0  0  0  0  0  0  0  0  0  0  0  0
   22.2835   -5.5547    0.2568 H   0  0  0  0  0  0  0  0  0  0  0  0
   20.3268   -6.1535    0.8715 H   0  0  0  0  0  0  0  0  0  0  0  0
   19.8635   -4.8052   -0.2581 H   0  0  0  0  0  0  0  0  0  0  0  0
   22.2803  -10.5247   -2.4408 H   0  0  0  0  0  0  0  0  0  0  0  0
   20.9523  -11.1892   -3.4516 H   0  0  0  0  0  0  0  0  0  0  0  0
   21.2838   -9.4238   -3.4516 H   0  0  0  0  0  0  0  0  0  0  0  0
   17.6923   -5.8963   -0.8579 H   0  0  0  0  0  0  0  0  0  0  0  0
   17.3264   -7.6578   -2.4652 H   0  0  0  0  0  0  0  0  0  0  0  0
   19.7242   -8.4704   -2.8078 H   0  0  0  0  0  0  0  0  0  0  0  0
   17.7617   -9.8547   -2.3329 H   0  0  0  0  0  0  0  0  0  0  0  0
   19.6394   -6.4188   -2.0943 H   0  0  0  0  0  0  0  0  0  0  0  0
   18.3488   -6.3832    1.2851 H   0  0  0  0  0  0  0  0  0  0  0  0
   15.0099   -7.1277   -3.8968 H   0  0  0  0  0  0  0  0  0  0  0  0
   13.7213   -9.8276   -0.7822 H   0  0  0  0  0  0  0  0  0  0  0  0
   13.8838   -8.5623   -5.5661 H   0  0  0  0  0  0  0  0  0  0  0  0
   12.5799  -11.1910   -2.4814 H   0  0  0  0  0  0  0  0  0  0  0  0
   16.7441  -10.4249    2.1433 H   0  0  0  0  0  0  0  0  0  0  0  0
   17.2216  -11.4592    4.3570 H   0  0  0  0  0  0  0  0  0  0  0  0
   19.5040  -14.5637    2.4117 H   0  0  0  0  0  0  0  0  0  0  0  0
  1 25  1  0
  2 15  1  0
  2 17  2  0
  2 20  1  0
  3  4  1  0
 10  4  1  0
  5 12  1  0
  6  7  1  0
  6 10  1  0
  6 16  1  0
  7  9  1  0
  7 15  1  0
  8  9  1  0
  8 11  1  0
  8 12  1  0
  9 13  1  0
 10 11  1  0
 13 14  1  0
 14 18  2  0
 14 19  1  0
 19 26  2  0
 19 27  1  0
 20 21  2  0
 20 22  1  0
 21 23  1  0
 22 24  2  0
 23 25  2  0
 24 25  1  0
 26 28  1  0
 27 29  2  0
 27 30  1  0
 28 31  2  0
 29 31  1  0
 30 33  2  0
 30 34  1  0
 31 32  1  0
  1 35  1  0
  1 36  1  0
  1 37  1  0
  3 38  1  0
  4 39  1  0
  4 40  1  0
  5 41  1  0
  5 42  1  0
  5 43  1  0
  6 44  1  1
  7 45  1  6
  8 46  1  6
  9 47  1  6
 10 48  1  6
 16 49  1  0
 21 50  1  0
 22 51  1  0
 23 52  1  0
 24 53  1  0
 26 54  1  0
 28 55  1  0
 29 56  1  0
M  CHG  2  30   1  34  -1
M  END
>  <filename_input>  (5) 
7RH3_59O_docked.sdf

>  <pdb_id>  (5) 
7RH3_59O

>  <pose_rank>  (5) 
4

>  <num_atoms_heavy>  (5) 
34

>  <num_torsions>  (5) 
9

>  <pose>  (5) 
[18.158854771097133, -6.868144260321321, -0.6392350618841178, 1.8453563699135378, -5.654779024744824, -2.110689459880699, 0.02264226842968224, -0.6333136613660862, -0.3401482841066781, 0.06287548033799611, -22.21646069828915, -2.0209018956705664, 5.413594623018308, -1.6173215747666692, 1.260945397754585]

>  <energy>  (5) 
-662.5346586383233

>  <inter_energy>  (5) 
-656.7471026240133

>  <intra_energy>  (5) 
9.756304858533207

>  <rmsd>  (5) 
2.8284

>  <sdf_rank>  (5) 
0

$$$$

     RDKit          3D

 56 58  0  0  0  0  0  0  0  0999 V2000
   14.8754   -6.8496   -6.9579 C   0  0  0  0  0  0  0  0  0  0  0  0
   15.5226   -6.8970   -1.2216 C   0  0  0  0  0  0  0  0  0  0  0  0
   19.8342   -4.2672    0.0664 O   0  0  0  0  0  0  0  0  0  0  0  0
   20.6785   -5.3281   -0.3624 C   0  0  0  0  0  0  0  0  0  0  0  0
   21.5618  -10.0387   -2.8322 C   0  0  0  0  0  0  0  0  0  0  0  0
   18.4833   -6.4315   -0.8066 C   0  0  2  0  0  0  0  0  0  0  0  0
   17.7833   -7.5380   -1.5304 C   0  0  1  0  0  0  0  0  0  0  0  0
   20.0020   -8.5724   -1.8681 C   0  0  1  0  0  0  0  0  0  0  0  0
   18.5538   -8.8609   -1.5828 C   0  0  1  0  0  0  0  0  0  0  0  0
   19.9456   -6.3440   -1.2054 C   0  0  2  0  0  0  0  0  0  0  0  0
   20.5875   -7.6101   -0.9782 O   0  0  0  0  0  0  0  0  0  0  0  0
   20.6981   -9.7832   -1.7424 O   0  0  0  0  0  0  0  0  0  0  0  0
   18.5182   -9.5133   -0.2804 O   0  0  0  0  0  0  0  0  0  0  0  0
   17.6126  -10.4648   -0.1053 C   0  0  0  0  0  0  0  0  0  0  0  0
   16.5207   -7.6493   -0.8241 O   0  0  0  0  0  0  0  0  0  0  0  0
   18.3530   -6.6571    0.6011 O   0  0  0  0  0  0  0  0  0  0  0  0
   14.8594   -6.2778   -0.4602 O   0  0  0  0  0  0  0  0  0  0  0  0
   16.7415  -10.7164   -0.9290 O   0  0  0  0  0  0  0  0  0  0  0  0
   17.8778  -11.3100    1.1022 C   0  0  0  0  0  0  0  0  0  0  0  0
   15.3505   -6.8768   -2.7077 C   0  0  0  0  0  0  0  0  0  0  0  0
   14.8184   -7.9851   -3.3706 C   0  0  0  0  0  0  0  0  0  0  0  0
   15.6879   -5.7513   -3.4528 C   0  0  0  0  0  0  0  0  0  0  0  0
   14.6473   -7.9492   -4.7397 C   0  0  0  0  0  0  0  0  0  0  0  0
   15.5141   -5.7621   -4.8164 C   0  0  0  0  0  0  0  0  0  0  0  0
   14.9988   -6.8350   -5.4729 C   0  0  0  0  0  0  0  0  0  0  0  0
   18.8800  -12.2721    0.9857 C   0  0  0  0  0  0  0  0  0  0  0  0
   17.1525  -11.2843    2.2929 C   0  0  0  0  0  0  0  0  0  0  0  0
   19.1285  -13.1780    2.0094 C   0  0  0  0  0  0  0  0  0  0  0  0
   17.3565  -12.1807    3.3115 C   0  0  0  0  0  0  0  0  0  0  0  0
   16.0826  -10.2932    2.4664 N   0  0  0  0  0  0  0  0  0  0  0  0
   18.3601  -13.1184    3.1496 C   0  0  0  0  0  0  0  0  0  0  0  0
   18.5765  -14.2619    4.3869 Cl  0  0  0  0  0  0  0  0  0  0  0  0
   14.9210  -10.6811    2.2027 O   0  0  0  0  0  0  0  0  0  0  0  0
   16.3350   -9.1752    2.9435 O   0  0  0  0  0  0  0  0  0  0  0  0
   13.8187   -6.9745   -7.2368 H   0  0  0  0  0  0  0  0  0  0  0  0
   15.2528   -5.9006   -7.3665 H   0  0  0  0  0  0  0  0  0  0  0  0
   15.4637   -7.6844   -7.3665 H   0  0  0  0  0  0  0  0  0  0  0  0
   19.8136   -4.2412    1.0559 H   0  0  0  0  0  0  0  0  0  0  0  0
   21.5026   -4.9055   -0.9560 H   0  0  0  0  0  0  0  0  0  0  0  0
   21.0503   -5.8437    0.5352 H   0  0  0  0  0  0  0  0  0  0  0  0
   22.5524  -10.3317   -2.4541 H   0  0  0  0  0  0  0  0  0  0  0  0
   21.1478  -10.8528   -3.4451 H   0  0  0  0  0  0  0  0  0  0  0  0
   21.6573   -9.1303   -3.4451 H   0  0  0  0  0  0  0  0  0  0  0  0
   18.0208   -5.4709   -1.0775 H   0  0  0  0  0  0  0  0  0  0  0  0
   17.6681   -7.3087   -2.6001 H   0  0  0  0  0  0  0  0  0  0  0  0
   20.0678   -8.1404   -2.8776 H   0  0  0  0  0  0  0  0  0  0  0  0
   18.0979   -9.4971   -2.3557 H   0  0  0  0  0  0  0  0  0  0  0  0
   19.9795   -6.0561   -2.2665 H   0  0  0  0  0  0  0  0  0  0  0  0
   18.7819   -5.9144    1.0955 H   0  0  0  0  0  0  0  0  0  0  0  0
   14.5365   -8.8842   -2.8031 H   0  0  0  0  0  0  0  0  0  0  0  0
   16.0914   -4.8580   -2.9536 H   0  0  0  0  0  0  0  0  0  0  0  0
   14.2235   -8.8239   -5.2548 H   0  0  0  0  0  0  0  0  0  0  0  0
   15.8017   -4.8724   -5.3958 H   0  0  0  0  0  0  0  0  0  0  0  0
   19.4844  -12.3148    0.0675 H   0  0  0  0  0  0  0  0  0  0  0  0
   19.9255  -13.9297    1.9103 H   0  0  0  0  0  0  0  0  0  0  0  0
   16.7436  -12.1544    4.2245 H   0  0  0  0  0  0  0  0  0  0  0  0
  1 25  1  0
  2 15  1  0
  2 17  2  0
  2 20  1  0
  3  4  1  0
 10  4  1  0
  5 12  1  0
  6  7  1  0
  6 10  1  0
  6 16  1  0
  7  9  1  0
  7 15  1  0
  8  9  1  0
  8 11  1  0
  8 12  1  0
  9 13  1  0
 10 11  1  0
 13 14  1  0
 14 18  2  0
 14 19  1  0
 19 26  2  0
 19 27  1  0
 20 21  2  0
 20 22  1  0
 21 23  1  0
 22 24  2  0
 23 25  2  0
 24 25  1  0
 26 28  1  0
 27 29  2  0
 27 30  1  0
 28 31  2  0
 29 31  1  0
 30 33  2  0
 30 34  1  0
 31 32  1  0
  1 35  1  0
  1 36  1  0
  1 37  1  0
  3 38  1  0
  4 39  1  0
  4 40  1  0
  5 41  1  0
  5 42  1  0
  5 43  1  0
  6 44  1  1
  7 45  1  6
  8 46  1  6
  9 47  1  6
 10 48  1  6
 16 49  1  0
 21 50  1  0
 22 51  1  0
 23 52  1  0
 24 53  1  0
 26 54  1  0
 28 55  1  0
 29 56  1  0
M  CHG  2  30   1  34  -1
M  END
>  <filename_input>  (6) 
7RH3_59O_docked.sdf

>  <pdb_id>  (6) 
7RH3_59O

>  <pose_rank>  (6) 
5

>  <num_atoms_heavy>  (6) 
34

>  <num_torsions>  (6) 
9

>  <pose>  (6) 
[18.48327300512944, -6.4314820714203345, -0.8065696451896753, 4.580772651591412, 4.051768916567194, 1.1767759605259842, -3.6819919650874042, -0.6858664453529386, 5.615696916953411, -12.586960990988588, 6.74181226579521, 1.230991803370498, -1.0988864022713638, 3.9556614220179935, -1.8358245779743665]

>  <energy>  (6) 
-653.8327332783938

>  <inter_energy>  (6) 
-683.597576758708

>  <intra_energy>  (6) 
30.719605277040333

>  <rmsd>  (6) 
3.1235

>  <sdf_rank>  (6) 
0

$$$$

     RDKit          3D

 56 58  0  0  0  0  0  0  0  0999 V2000
   10.6421   -9.1312    1.6817 C   0  0  0  0  0  0  0  0  0  0  0  0
   15.3480   -7.6037   -1.2926 C   0  0  0  0  0  0  0  0  0  0  0  0
   21.4604   -5.0471   -1.3023 O   0  0  0  0  0  0  0  0  0  0  0  0
   20.5047   -5.7957   -0.5617 C   0  0  0  0  0  0  0  0  0  0  0  0
   21.7937  -10.1004   -2.9638 C   0  0  0  0  0  0  0  0  0  0  0  0
   18.3333   -6.9660   -0.9480 C   0  0  2  0  0  0  0  0  0  0  0  0
   17.6386   -8.0627   -1.6917 C   0  0  1  0  0  0  0  0  0  0  0  0
   19.8744   -8.9850   -2.1991 C   0  0  1  0  0  0  0  0  0  0  0  0
   18.4563   -9.3479   -1.8540 C   0  0  1  0  0  0  0  0  0  0  0  0
   19.7672   -6.7973   -1.4176 C   0  0  2  0  0  0  0  0  0  0  0  0
   20.4695   -8.0453   -1.2915 O   0  0  0  0  0  0  0  0  0  0  0  0
   20.6231  -10.1705   -2.1742 O   0  0  0  0  0  0  0  0  0  0  0  0
   18.5171  -10.0663   -0.5879 O   0  0  0  0  0  0  0  0  0  0  0  0
   19.1579  -11.2262   -0.5810 C   0  0  0  0  0  0  0  0  0  0  0  0
   16.4217   -8.2623   -0.9271 O   0  0  0  0  0  0  0  0  0  0  0  0
   18.2887   -7.2679    0.4507 O   0  0  0  0  0  0  0  0  0  0  0  0
   15.3665   -6.8073   -2.1692 O   0  0  0  0  0  0  0  0  0  0  0  0
   20.3787  -11.3143   -0.6300 O   0  0  0  0  0  0  0  0  0  0  0  0
   18.2545  -12.3924   -0.3225 C   0  0  0  0  0  0  0  0  0  0  0  0
   14.1233   -7.9943   -0.5271 C   0  0  0  0  0  0  0  0  0  0  0  0
   14.1023   -7.8971    0.8661 C   0  0  0  0  0  0  0  0  0  0  0  0
   12.9776   -8.4327   -1.1835 C   0  0  0  0  0  0  0  0  0  0  0  0
   12.9612   -8.2432    1.5612 C   0  0  0  0  0  0  0  0  0  0  0  0
   11.8667   -8.7804   -0.4523 C   0  0  0  0  0  0  0  0  0  0  0  0
   11.8347   -8.6916    0.9037 C   0  0  0  0  0  0  0  0  0  0  0  0
   18.0579  -12.7490    1.0109 C   0  0  0  0  0  0  0  0  0  0  0  0
   17.6723  -13.2059   -1.2938 C   0  0  0  0  0  0  0  0  0  0  0  0
   17.3272  -13.8806    1.3514 C   0  0  0  0  0  0  0  0  0  0  0  0
   16.9670  -14.3434   -0.9909 C   0  0  0  0  0  0  0  0  0  0  0  0
   17.8516  -12.8778   -2.7141 N   0  0  0  0  0  0  0  0  0  0  0  0
   16.8001  -14.6581    0.3454 C   0  0  0  0  0  0  0  0  0  0  0  0
   15.9740  -16.0945    0.7190 Cl  0  0  0  0  0  0  0  0  0  0  0  0
   18.8548  -13.3763   -3.2747 O   0  0  0  0  0  0  0  0  0  0  0  0
   16.9880  -12.2234   -3.3202 O   0  0  0  0  0  0  0  0  0  0  0  0
   10.8567   -9.0521    2.7576 H   0  0  0  0  0  0  0  0  0  0  0  0
    9.7840   -8.4902    1.4308 H   0  0  0  0  0  0  0  0  0  0  0  0
   10.4052  -10.1757    1.4308 H   0  0  0  0  0  0  0  0  0  0  0  0
   22.0648   -4.5737   -0.6774 H   0  0  0  0  0  0  0  0  0  0  0  0
   21.0256   -6.3349    0.2432 H   0  0  0  0  0  0  0  0  0  0  0  0
   19.7638   -5.0886   -0.1604 H   0  0  0  0  0  0  0  0  0  0  0  0
   22.6755  -10.0476   -2.3083 H   0  0  0  0  0  0  0  0  0  0  0  0
   21.8618  -10.9961   -3.5987 H   0  0  0  0  0  0  0  0  0  0  0  0
   21.7545   -9.2030   -3.5987 H   0  0  0  0  0  0  0  0  0  0  0  0
   17.8196   -6.0131   -1.1432 H   0  0  0  0  0  0  0  0  0  0  0  0
   17.4566   -7.7845   -2.7402 H   0  0  0  0  0  0  0  0  0  0  0  0
   19.8682   -8.5001   -3.1864 H   0  0  0  0  0  0  0  0  0  0  0  0
   17.9841   -9.9626   -2.6346 H   0  0  0  0  0  0  0  0  0  0  0  0
   19.7321   -6.4549   -2.4623 H   0  0  0  0  0  0  0  0  0  0  0  0
   18.4117   -6.4353    0.9721 H   0  0  0  0  0  0  0  0  0  0  0  0
   14.9928   -7.5457    1.4079 H   0  0  0  0  0  0  0  0  0  0  0  0
   12.9609   -8.5008   -2.2813 H   0  0  0  0  0  0  0  0  0  0  0  0
   12.9500   -8.1599    2.6580 H   0  0  0  0  0  0  0  0  0  0  0  0
   10.9735   -9.1427   -0.9824 H   0  0  0  0  0  0  0  0  0  0  0  0
   18.4886  -12.1239    1.8069 H   0  0  0  0  0  0  0  0  0  0  0  0
   17.1727  -14.1504    2.4065 H   0  0  0  0  0  0  0  0  0  0  0  0
   16.5491  -14.9822   -1.7829 H   0  0  0  0  0  0  0  0  0  0  0  0
  1 25  1  0
  2 15  1  0
  2 17  2  0
  2 20  1  0
  3  4  1  0
 10  4  1  0
  5 12  1  0
  6  7  1  0
  6 10  1  0
  6 16  1  0
  7  9  1  0
  7 15  1  0
  8  9  1  0
  8 11  1  0
  8 12  1  0
  9 13  1  0
 10 11  1  0
 13 14  1  0
 14 18  2  0
 14 19  1  0
 19 26  2  0
 19 27  1  0
 20 21  2  0
 20 22  1  0
 21 23  1  0
 22 24  2  0
 23 25  2  0
 24 25  1  0
 26 28  1  0
 27 29  2  0
 27 30  1  0
 28 31  2  0
 29 31  1  0
 30 33  2  0
 30 34  1  0
 31 32  1  0
  1 35  1  0
  1 36  1  0
  1 37  1  0
  3 38  1  0
  4 39  1  0
  4 40  1  0
  5 41  1  0
  5 42  1  0
  5 43  1  0
  6 44  1  1
  7 45  1  6
  8 46  1  6
  9 47  1  6
 10 48  1  6
 16 49  1  0
 21 50  1  0
 22 51  1  0
 23 52  1  0
 24 53  1  0
 26 54  1  0
 28 55  1  0
 29 56  1  0
M  CHG  2  30   1  34  -1
M  END
>  <filename_input>  (7) 
7RH3_59O_docked.sdf

>  <pdb_id>  (7) 
7RH3_59O

>  <pose_rank>  (7) 
6

>  <num_atoms_heavy>  (7) 
34

>  <num_torsions>  (7) 
9

>  <pose>  (7) 
[18.333289757247226, -6.9659580396821745, -0.9479958272925453, -1.9738191753204015, -2.8903109903011814, -5.17424510940122, 0.5753805479991771, -0.2551561713374451, -36.970712002188165, -48.86683367114999, -6.030109225517551, -5.164112430100695, 30.400902075063147, 25.052244435462782, -2.127315421123566]

>  <energy>  (7) 
-564.816906778464

>  <inter_energy>  (7) 
-706.6923149693661

>  <intra_energy>  (7) 
141.32316187581154

>  <rmsd>  (7) 
2.53157

>  <sdf_rank>  (7) 
0

$$$$

     RDKit          3D

 56 58  0  0  0  0  0  0  0  0999 V2000
    9.6586   -9.0880    0.5026 C   0  0  0  0  0  0  0  0  0  0  0  0
   15.4229   -8.8524    0.2949 C   0  0  0  0  0  0  0  0  0  0  0  0
   13.9799   -6.9204   -6.3780 O   0  0  0  0  0  0  0  0  0  0  0  0
   14.2475   -6.6765   -5.0028 C   0  0  0  0  0  0  0  0  0  0  0  0
   17.1777  -11.7116   -4.9142 C   0  0  0  0  0  0  0  0  0  0  0  0
   14.8936   -7.6391   -2.7915 C   0  0  2  0  0  0  0  0  0  0  0  0
   15.4037   -8.8494   -2.0750 C   0  0  1  0  0  0  0  0  0  0  0  0
   16.1011   -9.7244   -4.2783 C   0  0  1  0  0  0  0  0  0  0  0  0
   16.4832   -9.6345   -2.8265 C   0  0  1  0  0  0  0  0  0  0  0  0
   14.6157   -7.9351   -4.2545 C   0  0  2  0  0  0  0  0  0  0  0  0
   15.8018   -8.4551   -4.8785 O   0  0  0  0  0  0  0  0  0  0  0  0
   17.1855  -10.2985   -4.9573 O   0  0  0  0  0  0  0  0  0  0  0  0
   17.7487   -8.9135   -2.7831 O   0  0  0  0  0  0  0  0  0  0  0  0
   18.7051   -9.4164   -2.0161 C   0  0  0  0  0  0  0  0  0  0  0  0
   15.8744   -8.3126   -0.8117 O   0  0  0  0  0  0  0  0  0  0  0  0
   15.8616   -6.5928   -2.6597 O   0  0  0  0  0  0  0  0  0  0  0  0
   16.1471   -9.2126    1.1603 O   0  0  0  0  0  0  0  0  0  0  0  0
   18.5357  -10.3875   -1.2888 O   0  0  0  0  0  0  0  0  0  0  0  0
   20.0448   -8.7968   -2.2692 C   0  0  0  0  0  0  0  0  0  0  0  0
   13.9294   -8.9190    0.3559 C   0  0  0  0  0  0  0  0  0  0  0  0
   13.1909   -9.2357   -0.7865 C   0  0  0  0  0  0  0  0  0  0  0  0
   13.2505   -8.6962    1.5497 C   0  0  0  0  0  0  0  0  0  0  0  0
   11.8147   -9.3119   -0.7150 C   0  0  0  0  0  0  0  0  0  0  0  0
   11.8780   -8.7687    1.5745 C   0  0  0  0  0  0  0  0  0  0  0  0
   11.1484   -9.0744    0.4692 C   0  0  0  0  0  0  0  0  0  0  0  0
   20.9797   -9.5799   -2.9447 C   0  0  0  0  0  0  0  0  0  0  0  0
   20.4686   -7.5504   -1.8095 C   0  0  0  0  0  0  0  0  0  0  0  0
   22.2841   -9.1397   -3.1322 C   0  0  0  0  0  0  0  0  0  0  0  0
   21.7557   -7.0980   -1.9563 C   0  0  0  0  0  0  0  0  0  0  0  0
   19.5249   -6.6868   -1.0879 N   0  0  0  0  0  0  0  0  0  0  0  0
   22.6484   -7.9107   -2.6311 C   0  0  0  0  0  0  0  0  0  0  0  0
   24.2547   -7.3749   -2.7654 Cl  0  0  0  0  0  0  0  0  0  0  0  0
   18.4164   -7.1957   -0.8023 O   0  0  0  0  0  0  0  0  0  0  0  0
   19.8726   -5.5565   -0.7099 O   0  0  0  0  0  0  0  0  0  0  0  0
    9.3153   -9.0911    1.5477 H   0  0  0  0  0  0  0  0  0  0  0  0
    9.2722   -8.1933   -0.0075 H   0  0  0  0  0  0  0  0  0  0  0  0
    9.2885   -9.9895   -0.0075 H   0  0  0  0  0  0  0  0  0  0  0  0
   13.2508   -7.5851   -6.4595 H   0  0  0  0  0  0  0  0  0  0  0  0
   15.0817   -5.9637   -4.9265 H   0  0  0  0  0  0  0  0  0  0  0  0
   13.3296   -6.2740   -4.5494 H   0  0  0  0  0  0  0  0  0  0  0  0
   17.1759  -12.0465   -3.8664 H   0  0  0  0  0  0  0  0  0  0  0  0
   16.2775  -12.0890   -5.4213 H   0  0  0  0  0  0  0  0  0  0  0  0
   18.0738  -12.0988   -5.4213 H   0  0  0  0  0  0  0  0  0  0  0  0
   13.9392   -7.3268   -2.3425 H   0  0  0  0  0  0  0  0  0  0  0  0
   14.6176   -9.6105   -1.9619 H   0  0  0  0  0  0  0  0  0  0  0  0
   15.1819  -10.3245   -4.3491 H   0  0  0  0  0  0  0  0  0  0  0  0
   16.5778  -10.6264   -2.3607 H   0  0  0  0  0  0  0  0  0  0  0  0
   13.7874   -8.6580   -4.2913 H   0  0  0  0  0  0  0  0  0  0  0  0
   16.0264   -6.4147   -1.6998 H   0  0  0  0  0  0  0  0  0  0  0  0
   13.7048   -9.4240   -1.7407 H   0  0  0  0  0  0  0  0  0  0  0  0
   13.8089   -8.4634    2.4685 H   0  0  0  0  0  0  0  0  0  0  0  0
   11.2396   -9.5663   -1.6175 H   0  0  0  0  0  0  0  0  0  0  0  0
   11.3524   -8.5726    2.5207 H   0  0  0  0  0  0  0  0  0  0  0  0
   20.6796  -10.5632   -3.3360 H   0  0  0  0  0  0  0  0  0  0  0  0
   23.0129   -9.7624   -3.6716 H   0  0  0  0  0  0  0  0  0  0  0  0
   22.0665   -6.1235   -1.5516 H   0  0  0  0  0  0  0  0  0  0  0  0
  1 25  1  0
  2 15  1  0
  2 17  2  0
  2 20  1  0
  3  4  1  0
 10  4  1  0
  5 12  1  0
  6  7  1  0
  6 10  1  0
  6 16  1  0
  7  9  1  0
  7 15  1  0
  8  9  1  0
  8 11  1  0
  8 12  1  0
  9 13  1  0
 10 11  1  0
 13 14  1  0
 14 18  2  0
 14 19  1  0
 19 26  2  0
 19 27  1  0
 20 21  2  0
 20 22  1  0
 21 23  1  0
 22 24  2  0
 23 25  2  0
 24 25  1  0
 26 28  1  0
 27 29  2  0
 27 30  1  0
 28 31  2  0
 29 31  1  0
 30 33  2  0
 30 34  1  0
 31 32  1  0
  1 35  1  0
  1 36  1  0
  1 37  1  0
  3 38  1  0
  4 39  1  0
  4 40  1  0
  5 41  1  0
  5 42  1  0
  5 43  1  0
  6 44  1  1
  7 45  1  1
  8 46  1  1
  9 47  1  1
 10 48  1  1
 16 49  1  0
 21 50  1  0
 22 51  1  0
 23 52  1  0
 24 53  1  0
 26 54  1  0
 28 55  1  0
 29 56  1  0
M  CHG  2  30   1  34  -1
M  END
>  <filename_input>  (8) 
7RH3_59O_docked.sdf

>  <pdb_id>  (8) 
7RH3_59O

>  <pose_rank>  (8) 
7

>  <num_atoms_heavy>  (8) 
34

>  <num_torsions>  (8) 
9

>  <pose>  (8) 
[14.893585057683305, -7.639134148807999, -2.7915325060176692, -0.7964115574411597, 1.376904118134475, 0.7875396277657436, -0.013291496042152623, -1.5078898676848842, 24.646537773520688, 12.583803216830555, -0.06262785506729532, -0.3114039225159674, 12.140116677064041, 39.94717685565315, -2.4404203665013466]

>  <energy>  (8) 
-402.8632345800853

>  <inter_energy>  (8) 
-525.7551183952204

>  <intra_energy>  (8) 
128.34472020013666

>  <rmsd>  (8) 
5.23017

>  <sdf_rank>  (8) 
0

$$$$

     RDKit          3D

 56 58  0  0  0  0  0  0  0  0999 V2000
   17.5489  -14.0135    5.6131 C   0  0  0  0  0  0  0  0  0  0  0  0
   17.2941  -12.0921    0.1753 C   0  0  0  0  0  0  0  0  0  0  0  0
   13.5556   -8.0901    2.4353 O   0  0  0  0  0  0  0  0  0  0  0  0
   13.8315   -7.5061    1.1684 C   0  0  0  0  0  0  0  0  0  0  0  0
   14.0458   -8.0949   -4.1945 C   0  0  0  0  0  0  0  0  0  0  0  0
   15.3863   -9.3803    0.6175 C   0  0  2  0  0  0  0  0  0  0  0  0
   15.8797  -10.2983   -0.4559 C   0  0  1  0  0  0  0  0  0  0  0  0
   14.8597   -8.7535   -2.0931 C   0  0  1  0  0  0  0  0  0  0  0  0
   16.0400   -9.6489   -1.8341 C   0  0  1  0  0  0  0  0  0  0  0  0
   14.2237   -8.5325    0.1330 C   0  0  2  0  0  0  0  0  0  0  0  0
   14.6110   -7.8048   -1.0447 O   0  0  0  0  0  0  0  0  0  0  0  0
   15.1228   -8.0541   -3.2796 O   0  0  0  0  0  0  0  0  0  0  0  0
   17.2148   -8.7873   -1.8484 O   0  0  0  0  0  0  0  0  0  0  0  0
   18.0573   -8.9302   -2.8613 C   0  0  0  0  0  0  0  0  0  0  0  0
   17.1329  -10.7939    0.0822 O   0  0  0  0  0  0  0  0  0  0  0  0
   16.4752   -8.5541    1.0430 O   0  0  0  0  0  0  0  0  0  0  0  0
   17.4070  -12.7822   -0.7807 O   0  0  0  0  0  0  0  0  0  0  0  0
   17.8162   -8.5249   -3.9919 O   0  0  0  0  0  0  0  0  0  0  0  0
   19.3919   -9.4645   -2.4415 C   0  0  0  0  0  0  0  0  0  0  0  0
   17.3612  -12.5816    1.5876 C   0  0  0  0  0  0  0  0  0  0  0  0
   18.2418  -13.6080    1.9366 C   0  0  0  0  0  0  0  0  0  0  0  0
   16.5739  -12.0099    2.5821 C   0  0  0  0  0  0  0  0  0  0  0  0
   18.3084  -14.0398    3.2458 C   0  0  0  0  0  0  0  0  0  0  0  0
   16.6613  -12.4789    3.8713 C   0  0  0  0  0  0  0  0  0  0  0  0
   17.5132  -13.4780    4.2228 C   0  0  0  0  0  0  0  0  0  0  0  0
   19.7268  -10.7398   -2.8944 C   0  0  0  0  0  0  0  0  0  0  0  0
   20.2824   -8.8430   -1.5668 C   0  0  0  0  0  0  0  0  0  0  0  0
   20.8918  -11.3687   -2.4728 C   0  0  0  0  0  0  0  0  0  0  0  0
   21.4275   -9.4472   -1.1122 C   0  0  0  0  0  0  0  0  0  0  0  0
   19.9760   -7.5005   -1.0562 N   0  0  0  0  0  0  0  0  0  0  0  0
   21.7168  -10.7134   -1.5873 C   0  0  0  0  0  0  0  0  0  0  0  0
   23.1054  -11.4829   -0.9832 Cl  0  0  0  0  0  0  0  0  0  0  0  0
   19.1822   -7.4443   -0.0887 O   0  0  0  0  0  0  0  0  0  0  0  0
   20.5628   -6.5067   -1.5138 O   0  0  0  0  0  0  0  0  0  0  0  0
   17.4933  -13.1799    6.3286 H   0  0  0  0  0  0  0  0  0  0  0  0
   16.6937  -14.6877    5.7684 H   0  0  0  0  0  0  0  0  0  0  0  0
   18.4860  -14.5682    5.7684 H   0  0  0  0  0  0  0  0  0  0  0  0
   13.8468   -7.4737    3.1533 H   0  0  0  0  0  0  0  0  0  0  0  0
   12.9316   -6.9786    0.8194 H   0  0  0  0  0  0  0  0  0  0  0  0
   14.6798   -6.8173    1.2949 H   0  0  0  0  0  0  0  0  0  0  0  0
   13.0958   -8.1309   -3.6412 H   0  0  0  0  0  0  0  0  0  0  0  0
   14.0678   -7.1953   -4.8271 H   0  0  0  0  0  0  0  0  0  0  0  0
   14.1358   -8.9903   -4.8271 H   0  0  0  0  0  0  0  0  0  0  0  0
   15.0149   -9.9775    1.4633 H   0  0  0  0  0  0  0  0  0  0  0  0
   15.1506  -11.0932   -0.6714 H   0  0  0  0  0  0  0  0  0  0  0  0
   13.9626   -9.3869   -2.1562 H   0  0  0  0  0  0  0  0  0  0  0  0
   16.1269  -10.4476   -2.5854 H   0  0  0  0  0  0  0  0  0  0  0  0
   13.3831   -9.2130   -0.0683 H   0  0  0  0  0  0  0  0  0  0  0  0
   16.5051   -8.5313    2.0323 H   0  0  0  0  0  0  0  0  0  0  0  0
   18.8806  -14.0710    1.1700 H   0  0  0  0  0  0  0  0  0  0  0  0
   15.8854  -11.1874    2.3381 H   0  0  0  0  0  0  0  0  0  0  0  0
   19.0075  -14.8454    3.5146 H   0  0  0  0  0  0  0  0  0  0  0  0
   16.0202  -12.0304    4.6446 H   0  0  0  0  0  0  0  0  0  0  0  0
   19.0573  -11.2570   -3.5975 H   0  0  0  0  0  0  0  0  0  0  0  0
   21.1502  -12.3727   -2.8404 H   0  0  0  0  0  0  0  0  0  0  0  0
   22.0917   -8.9424   -0.3954 H   0  0  0  0  0  0  0  0  0  0  0  0
  1 25  1  0
  2 15  1  0
  2 17  2  0
  2 20  1  0
  3  4  1  0
 10  4  1  0
  5 12  1  0
  6  7  1  0
  6 10  1  0
  6 16  1  0
  7  9  1  0
  7 15  1  0
  8  9  1  0
  8 11  1  0
  8 12  1  0
  9 13  1  0
 10 11  1  0
 13 14  1  0
 14 18  2  0
 14 19  1  0
 19 26  2  0
 19 27  1  0
 20 21  2  0
 20 22  1  0
 21 23  1  0
 22 24  2  0
 23 25  2  0
 24 25  1  0
 26 28  1  0
 27 29  2  0
 27 30  1  0
 28 31  2  0
 29 31  1  0
 30 33  2  0
 30 34  1  0
 31 32  1  0
  1 35  1  0
  1 36  1  0
  1 37  1  0
  3 38  1  0
  4 39  1  0
  4 40  1  0
  5 41  1  0
  5 42  1  0
  5 43  1  0
  6 44  1  1
  7 45  1  6
  8 46  1  6
  9 47  1  6
 10 48  1  6
 16 49  1  0
 21 50  1  0
 22 51  1  0
 23 52  1  0
 24 53  1  0
 26 54  1  0
 28 55  1  0
 29 56  1  0
M  CHG  2  30   1  34  -1
M  END
>  <filename_input>  (9) 
7RH3_59O_docked.sdf

>  <pdb_id>  (9) 
7RH3_59O

>  <pose_rank>  (9) 
8

>  <num_atoms_heavy>  (9) 
34

>  <num_torsions>  (9) 
9

>  <pose>  (9) 
[15.38631881980545, -9.380299207554868, 0.617463414754742, -0.591621578861365, -2.2914873611090627, -3.315358595319215, 2.179018720530333, -0.6975777771475662, -12.650954929002905, -23.728879695833825, -8.784724594980819, 0.9779970457748929, -0.4588957204935111, -11.368018923140443, 0.6851512075650357]

>  <energy>  (9) 
-499.15830750688133

>  <inter_energy>  (9) 
-520.1215826550692

>  <intra_energy>  (9) 
36.65912283833856

>  <rmsd>  (9) 
5.84705

>  <sdf_rank>  (9) 
0

$$$$

     RDKit          3D

 56 58  0  0  0  0  0  0  0  0999 V2000
    8.5805   -7.7984   -9.1509 C   0  0  0  0  0  0  0  0  0  0  0  0
   10.1912   -8.6132   -3.6675 C   0  0  0  0  0  0  0  0  0  0  0  0
   13.7428   -4.0873   -3.7980 O   0  0  0  0  0  0  0  0  0  0  0  0
   14.6542   -5.1560   -4.0204 C   0  0  0  0  0  0  0  0  0  0  0  0
   16.7725   -8.6523   -6.2622 C   0  0  0  0  0  0  0  0  0  0  0  0
   12.8785   -6.9086   -3.9268 C   0  0  2  0  0  0  0  0  0  0  0  0
   12.3371   -8.1509   -4.5609 C   0  0  1  0  0  0  0  0  0  0  0  0
   14.5038   -8.3663   -5.7297 C   0  0  1  0  0  0  0  0  0  0  0  0
   13.4004   -9.1357   -5.0570 C   0  0  1  0  0  0  0  0  0  0  0  0
   14.0154   -6.3184   -4.7417 C   0  0  2  0  0  0  0  0  0  0  0  0
   15.0437   -7.3058   -4.9269 O   0  0  0  0  0  0  0  0  0  0  0  0
   15.5288   -9.2787   -6.0182 O   0  0  0  0  0  0  0  0  0  0  0  0
   14.0136   -9.8219   -3.9273 O   0  0  0  0  0  0  0  0  0  0  0  0
   13.8482  -11.1347   -3.8551 C   0  0  0  0  0  0  0  0  0  0  0  0
   11.4912   -8.7109   -3.5235 O   0  0  0  0  0  0  0  0  0  0  0  0
   13.3160   -7.2298   -2.6021 O   0  0  0  0  0  0  0  0  0  0  0  0
    9.4507   -8.6600   -2.7442 O   0  0  0  0  0  0  0  0  0  0  0  0
   12.8663  -11.7094   -4.3093 O   0  0  0  0  0  0  0  0  0  0  0  0
   15.0570  -11.8491   -3.3341 C   0  0  0  0  0  0  0  0  0  0  0  0
    9.7661   -8.3981   -5.0858 C   0  0  0  0  0  0  0  0  0  0  0  0
    9.7694   -9.4614   -5.9915 C   0  0  0  0  0  0  0  0  0  0  0  0
    9.3347   -7.1497   -5.5229 C   0  0  0  0  0  0  0  0  0  0  0  0
    9.3584   -9.2559   -7.2929 C   0  0  0  0  0  0  0  0  0  0  0  0
    8.9464   -6.9848   -6.8312 C   0  0  0  0  0  0  0  0  0  0  0  0
    8.9467   -8.0114   -7.7222 C   0  0  0  0  0  0  0  0  0  0  0  0
   15.5260  -11.4554   -2.0816 C   0  0  0  0  0  0  0  0  0  0  0  0
   15.8055  -12.8002   -4.0264 C   0  0  0  0  0  0  0  0  0  0  0  0
   16.7019  -11.9784   -1.5582 C   0  0  0  0  0  0  0  0  0  0  0  0
   16.9836  -13.3165   -3.5482 C   0  0  0  0  0  0  0  0  0  0  0  0
   15.3584  -13.2471   -5.3521 N   0  0  0  0  0  0  0  0  0  0  0  0
   17.4102  -12.8943   -2.3023 C   0  0  0  0  0  0  0  0  0  0  0  0
   18.8953  -13.4918   -1.7342 Cl  0  0  0  0  0  0  0  0  0  0  0  0
   14.6279  -14.2645   -5.3757 O   0  0  0  0  0  0  0  0  0  0  0  0
   15.6241  -12.5763   -6.3624 O   0  0  0  0  0  0  0  0  0  0  0  0
    7.6310   -7.2461   -9.2076 H   0  0  0  0  0  0  0  0  0  0  0  0
    9.3718   -7.2196   -9.6498 H   0  0  0  0  0  0  0  0  0  0  0  0
    8.4686   -8.7723   -9.6498 H   0  0  0  0  0  0  0  0  0  0  0  0
   13.6261   -3.9503   -2.8245 H   0  0  0  0  0  0  0  0  0  0  0  0
   15.4940   -4.7836   -4.6253 H   0  0  0  0  0  0  0  0  0  0  0  0
   14.9929   -5.5170   -3.0380 H   0  0  0  0  0  0  0  0  0  0  0  0
   17.2549   -8.4093   -5.3040 H   0  0  0  0  0  0  0  0  0  0  0  0
   17.4191   -9.3322   -6.8363 H   0  0  0  0  0  0  0  0  0  0  0  0
   16.6111   -7.7280   -6.8363 H   0  0  0  0  0  0  0  0  0  0  0  0
   12.0860   -6.1468   -3.8864 H   0  0  0  0  0  0  0  0  0  0  0  0
   11.7968   -7.9241   -5.4919 H   0  0  0  0  0  0  0  0  0  0  0  0
   14.0845   -7.8909   -6.6287 H   0  0  0  0  0  0  0  0  0  0  0  0
   12.9185   -9.8513   -5.7394 H   0  0  0  0  0  0  0  0  0  0  0  0
   13.5931   -5.9871   -5.7019 H   0  0  0  0  0  0  0  0  0  0  0  0
   12.7206   -6.7928   -1.9429 H   0  0  0  0  0  0  0  0  0  0  0  0
   10.0987  -10.4600   -5.6683 H   0  0  0  0  0  0  0  0  0  0  0  0
    9.3044   -6.2995   -4.8255 H   0  0  0  0  0  0  0  0  0  0  0  0
    9.3592  -10.0988   -7.9997 H   0  0  0  0  0  0  0  0  0  0  0  0
    8.6246   -5.9885   -7.1686 H   0  0  0  0  0  0  0  0  0  0  0  0
   14.9552  -10.7183   -1.4978 H   0  0  0  0  0  0  0  0  0  0  0  0
   17.0607  -11.6658   -0.5664 H   0  0  0  0  0  0  0  0  0  0  0  0
   17.5679  -14.0404   -4.1351 H   0  0  0  0  0  0  0  0  0  0  0  0
  1 25  1  0
  2 15  1  0
  2 17  2  0
  2 20  1  0
  3  4  1  0
 10  4  1  0
  5 12  1  0
  6  7  1  0
  6 10  1  0
  6 16  1  0
  7  9  1  0
  7 15  1  0
  8  9  1  0
  8 11  1  0
  8 12  1  0
  9 13  1  0
 10 11  1  0
 13 14  1  0
 14 18  2  0
 14 19  1  0
 19 26  2  0
 19 27  1  0
 20 21  2  0
 20 22  1  0
 21 23  1  0
 22 24  2  0
 23 25  2  0
 24 25  1  0
 26 28  1  0
 27 29  2  0
 27 30  1  0
 28 31  2  0
 29 31  1  0
 30 33  2  0
 30 34  1  0
 31 32  1  0
  1 35  1  0
  1 36  1  0
  1 37  1  0
  3 38  1  0
  4 39  1  0
  4 40  1  0
  5 41  1  0
  5 42  1  0
  5 43  1  0
  6 44  1  1
  7 45  1  6
  8 46  1  6
  9 47  1  6
 10 48  1  6
 16 49  1  0
 21 50  1  0
 22 51  1  0
 23 52  1  0
 24 53  1  0
 26 54  1  0
 28 55  1  0
 29 56  1  0
M  CHG  2  30   1  34  -1
M  END
>  <filename_input>  (10) 
7RH3_59O_docked.sdf

>  <pdb_id>  (10) 
7RH3_59O

>  <pose_rank>  (10) 
9

>  <num_atoms_heavy>  (10) 
34

>  <num_torsions>  (10) 
9

>  <pose>  (10) 
[12.878461526592302, -6.9086446348511865, -3.9267759205334456, -0.9104232335297691, -3.9121240620386324, -4.234672002073773, 2.0512855710626705, 0.4815820934292435, -0.3391061079496911, -0.39941662076623935, -3.483322533252862, -2.054413970575967, -0.7870157643752319, -2.7423009184484815, -1.792018263326665]

>  <energy>  (10) 
-100.09081161106417

>  <inter_energy>  (10) 
-131.06893154769014

>  <intra_energy>  (10) 
28.81360690637377

>  <rmsd>  (10) 
7.02441

>  <sdf_rank>  (10) 
0

$$$$

     RDKit          3D

 56 58  0  0  0  0  0  0  0  0999 V2000
   10.7564   -8.9949    2.3110 C   0  0  0  0  0  0  0  0  0  0  0  0
   15.1688   -8.0004   -1.2761 C   0  0  0  0  0  0  0  0  0  0  0  0
   21.5701   -5.1791   -1.2329 O   0  0  0  0  0  0  0  0  0  0  0  0
   20.4353   -5.6802   -0.5376 C   0  0  0  0  0  0  0  0  0  0  0  0
   20.5591  -10.7092   -3.3413 C   0  0  0  0  0  0  0  0  0  0  0  0
   18.2498   -6.8539   -0.8198 C   0  0  2  0  0  0  0  0  0  0  0  0
   17.5263   -7.9625   -1.5168 C   0  0  1  0  0  0  0  0  0  0  0  0
   19.7402   -8.8971   -2.0930 C   0  0  1  0  0  0  0  0  0  0  0  0
   18.3360   -9.2516   -1.6875 C   0  0  1  0  0  0  0  0  0  0  0  0
   19.6648   -6.6957   -1.3468 C   0  0  2  0  0  0  0  0  0  0  0  0
   20.3703   -7.9423   -1.2256 O   0  0  0  0  0  0  0  0  0  0  0  0
   20.4883  -10.0830   -2.0757 O   0  0  0  0  0  0  0  0  0  0  0  0
   18.4447   -9.9476   -0.4121 O   0  0  0  0  0  0  0  0  0  0  0  0
   18.3409  -11.2686   -0.4333 C   0  0  0  0  0  0  0  0  0  0  0  0
   16.3393   -8.1468   -0.7028 O   0  0  0  0  0  0  0  0  0  0  0  0
   18.2585   -7.1310    0.5847 O   0  0  0  0  0  0  0  0  0  0  0  0
   15.0601   -7.7278   -2.4237 O   0  0  0  0  0  0  0  0  0  0  0  0
   17.7796  -11.8793   -1.3348 O   0  0  0  0  0  0  0  0  0  0  0  0
   19.1326  -11.9353    0.6490 C   0  0  0  0  0  0  0  0  0  0  0  0
   14.0199   -8.2531   -0.3517 C   0  0  0  0  0  0  0  0  0  0  0  0
   14.1576   -8.0317    1.0205 C   0  0  0  0  0  0  0  0  0  0  0  0
   12.7899   -8.6839   -0.8387 C   0  0  0  0  0  0  0  0  0  0  0  0
   13.0859   -8.2509    1.8621 C   0  0  0  0  0  0  0  0  0  0  0  0
   11.7520   -8.9032    0.0357 C   0  0  0  0  0  0  0  0  0  0  0  0
   11.8743   -8.6929    1.3730 C   0  0  0  0  0  0  0  0  0  0  0  0
   20.4817  -12.1684    0.3854 C   0  0  0  0  0  0  0  0  0  0  0  0
   18.6227  -12.4256    1.8506 C   0  0  0  0  0  0  0  0  0  0  0  0
   21.2758  -12.8775    1.2781 C   0  0  0  0  0  0  0  0  0  0  0  0
   19.3741  -13.1509    2.7406 C   0  0  0  0  0  0  0  0  0  0  0  0
   17.2066  -12.2112    2.1761 N   0  0  0  0  0  0  0  0  0  0  0  0
   20.7068  -13.3588    2.4352 C   0  0  0  0  0  0  0  0  0  0  0  0
   21.6232  -14.3024    3.5100 Cl  0  0  0  0  0  0  0  0  0  0  0  0
   16.4058  -13.0809    1.7616 O   0  0  0  0  0  0  0  0  0  0  0  0
   16.8672  -11.2661    2.9061 O   0  0  0  0  0  0  0  0  0  0  0  0
   11.1115   -8.8989    3.3476 H   0  0  0  0  0  0  0  0  0  0  0  0
    9.9320   -8.2873    2.1388 H   0  0  0  0  0  0  0  0  0  0  0  0
   10.4005  -10.0214    2.1388 H   0  0  0  0  0  0  0  0  0  0  0  0
   22.2509   -4.8785   -0.5800 H   0  0  0  0  0  0  0  0  0  0  0  0
   20.7740   -6.1554    0.3948 H   0  0  0  0  0  0  0  0  0  0  0  0
   19.7637   -4.8322   -0.3379 H   0  0  0  0  0  0  0  0  0  0  0  0
   20.6817  -11.7941   -3.2072 H   0  0  0  0  0  0  0  0  0  0  0  0
   19.6329  -10.5112   -3.9006 H   0  0  0  0  0  0  0  0  0  0  0  0
   21.4178  -10.3095   -3.9006 H   0  0  0  0  0  0  0  0  0  0  0  0
   17.7297   -5.9038   -1.0121 H   0  0  0  0  0  0  0  0  0  0  0  0
   17.3045   -7.7027   -2.5624 H   0  0  0  0  0  0  0  0  0  0  0  0
   19.6967   -8.4296   -3.0878 H   0  0  0  0  0  0  0  0  0  0  0  0
   17.8339   -9.8794   -2.4384 H   0  0  0  0  0  0  0  0  0  0  0  0
   19.5899   -6.3718   -2.3954 H   0  0  0  0  0  0  0  0  0  0  0  0
   18.2317   -6.2796    1.0892 H   0  0  0  0  0  0  0  0  0  0  0  0
   15.1176   -7.6835    1.4293 H   0  0  0  0  0  0  0  0  0  0  0  0
   12.6487   -8.8480   -1.9172 H   0  0  0  0  0  0  0  0  0  0  0  0
   13.2000   -8.0702    2.9412 H   0  0  0  0  0  0  0  0  0  0  0  0
   10.7901   -9.2610   -0.3603 H   0  0  0  0  0  0  0  0  0  0  0  0
   20.9249  -11.7844   -0.5452 H   0  0  0  0  0  0  0  0  0  0  0  0
   22.3406  -13.0511    1.0639 H   0  0  0  0  0  0  0  0  0  0  0  0
   18.9322  -13.5527    3.6643 H   0  0  0  0  0  0  0  0  0  0  0  0
  1 25  1  0
  2 15  1  0
  2 17  2  0
  2 20  1  0
  3  4  1  0
 10  4  1  0
  5 12  1  0
  6  7  1  0
  6 10  1  0
  6 16  1  0
  7  9  1  0
  7 15  1  0
  8  9  1  0
  8 11  1  0
  8 12  1  0
  9 13  1  0
 10 11  1  0
 13 14  1  0
 14 18  2  0
 14 19  1  0
 19 26  2  0
 19 27  1  0
 20 21  2  0
 20 22  1  0
 21 23  1  0
 22 24  2  0
 23 25  2  0
 24 25  1  0
 26 28  1  0
 27 29  2  0
 27 30  1  0
 28 31  2  0
 29 31  1  0
 30 33  2  0
 30 34  1  0
 31 32  1  0
  1 35  1  0
  1 36  1  0
  1 37  1  0
  3 38  1  0
  4 39  1  0
  4 40  1  0
  5 41  1  0
  5 42  1  0
  5 43  1  0
  6 44  1  1
  7 45  1  6
  8 46  1  6
  9 47  1  6
 10 48  1  6
 16 49  1  0
 21 50  1  0
 22 51  1  0
 23 52  1  0
 24 53  1  0
 26 54  1  0
 28 55  1  0
 29 56  1  0
M  CHG  2  30   1  34  -1
M  END
>  <filename_input>  (11) 
7RH3_59O_docked.sdf

>  <pdb_id>  (11) 
7RH3_59O

>  <pose_rank>  (11) 
10

>  <num_atoms_heavy>  (11) 
34

>  <num_torsions>  (11) 
9

>  <pose>  (11) 
[18.249755144257303, -6.853885050581309, -0.8198037312434406, 0.55975451007658, -5.5038056394834225, -2.8444262436779404, 0.32670403551943306, -1.3349562335692537, 44.05360937298307, 43.69472288592375, 12.900889308042874, -5.185637150339595, -19.37014510276605, -12.570402719946006, 3.648649511758783]

>  <energy>  (11) 
-808.786233495202

>  <inter_energy>  (11) 
-805.7702757255512

>  <intra_energy>  (11) 
18.018048301233172

>  <rmsd>  (11) 
0.8976

>  <sdf_rank>  (11) 
0

$$$$

     RDKit          3D

 56 58  0  0  0  0  0  0  0  0999 V2000
   21.0542  -13.2668    4.1964 C   0  0  0  0  0  0  0  0  0  0  0  0
   17.0762  -13.8630    0.0555 C   0  0  0  0  0  0  0  0  0  0  0  0
   16.9418  -12.4258   -6.5075 O   0  0  0  0  0  0  0  0  0  0  0  0
   16.8202  -13.1855   -5.3116 C   0  0  0  0  0  0  0  0  0  0  0  0
   17.8980   -8.7169   -4.7556 C   0  0  0  0  0  0  0  0  0  0  0  0
   17.0093  -13.0602   -2.8252 C   0  0  2  0  0  0  0  0  0  0  0  0
   17.6212  -12.3326   -1.6700 C   0  0  1  0  0  0  0  0  0  0  0  0
   18.1343  -10.4954   -3.2411 C   0  0  1  0  0  0  0  0  0  0  0  0
   17.6998  -10.8118   -1.8365 C   0  0  1  0  0  0  0  0  0  0  0  0
   17.5507  -12.5548   -4.1505 C   0  0  2  0  0  0  0  0  0  0  0  0
   17.3409  -11.1362   -4.2515 O   0  0  0  0  0  0  0  0  0  0  0  0
   18.0327   -9.1062   -3.4032 O   0  0  0  0  0  0  0  0  0  0  0  0
   16.3772  -10.2214   -1.6775 O   0  0  0  0  0  0  0  0  0  0  0  0
   16.2645   -9.2104   -0.8281 C   0  0  0  0  0  0  0  0  0  0  0  0
   16.7923  -12.7342   -0.5488 O   0  0  0  0  0  0  0  0  0  0  0  0
   15.5883  -12.8980   -2.7616 O   0  0  0  0  0  0  0  0  0  0  0  0
   16.5763  -14.8891   -0.2610 O   0  0  0  0  0  0  0  0  0  0  0  0
   17.1172   -8.3386   -0.7117 O   0  0  0  0  0  0  0  0  0  0  0  0
   14.9206   -9.1457   -0.1704 C   0  0  0  0  0  0  0  0  0  0  0  0
   18.1069  -13.7174    1.1304 C   0  0  0  0  0  0  0  0  0  0  0  0
   17.9423  -12.7668    2.1404 C   0  0  0  0  0  0  0  0  0  0  0  0
   19.2293  -14.5389    1.1626 C   0  0  0  0  0  0  0  0  0  0  0  0
   18.8903  -12.6530    3.1369 C   0  0  0  0  0  0  0  0  0  0  0  0
   20.1564  -14.3834    2.1656 C   0  0  0  0  0  0  0  0  0  0  0  0
   20.0081  -13.4610    3.1530 C   0  0  0  0  0  0  0  0  0  0  0  0
   14.9000   -9.2221    1.2215 C   0  0  0  0  0  0  0  0  0  0  0  0
   13.6907   -9.1113   -0.8265 C   0  0  0  0  0  0  0  0  0  0  0  0
   13.7003   -9.2810    1.9198 C   0  0  0  0  0  0  0  0  0  0  0  0
   12.4899   -9.1934   -0.1676 C   0  0  0  0  0  0  0  0  0  0  0  0
   13.6553   -9.0349   -2.2928 N   0  0  0  0  0  0  0  0  0  0  0  0
   12.5194   -9.2702    1.2129 C   0  0  0  0  0  0  0  0  0  0  0  0
   11.0357   -9.4265    2.0249 Cl  0  0  0  0  0  0  0  0  0  0  0  0
   13.2729  -10.0667   -2.8916 O   0  0  0  0  0  0  0  0  0  0  0  0
   13.9007   -7.9639   -2.8709 O   0  0  0  0  0  0  0  0  0  0  0  0
   20.5976  -13.3515    5.1935 H   0  0  0  0  0  0  0  0  0  0  0  0
   21.8325  -14.0358    4.0829 H   0  0  0  0  0  0  0  0  0  0  0  0
   21.5046  -12.2697    4.0829 H   0  0  0  0  0  0  0  0  0  0  0  0
   17.0940  -11.4744   -6.2801 H   0  0  0  0  0  0  0  0  0  0  0  0
   15.7542  -13.2701   -5.0539 H   0  0  0  0  0  0  0  0  0  0  0  0
   17.2710  -14.1721   -5.4944 H   0  0  0  0  0  0  0  0  0  0  0  0
   17.5386   -7.6784   -4.8042 H   0  0  0  0  0  0  0  0  0  0  0  0
   18.8740   -8.7910   -5.2575 H   0  0  0  0  0  0  0  0  0  0  0  0
   17.1765   -9.3785   -5.2575 H   0  0  0  0  0  0  0  0  0  0  0  0
   17.2689  -14.1272   -2.7607 H   0  0  0  0  0  0  0  0  0  0  0  0
   18.6823  -12.5948   -1.5465 H   0  0  0  0  0  0  0  0  0  0  0  0
   19.1605  -10.8702   -3.3697 H   0  0  0  0  0  0  0  0  0  0  0  0
   18.4012  -10.4169   -1.0869 H   0  0  0  0  0  0  0  0  0  0  0  0
   18.6199  -12.8107   -4.1870 H   0  0  0  0  0  0  0  0  0  0  0  0
   15.3020  -12.8653   -1.8144 H   0  0  0  0  0  0  0  0  0  0  0  0
   17.0594  -12.1106    2.1415 H   0  0  0  0  0  0  0  0  0  0  0  0
   19.3740  -15.3083    0.3899 H   0  0  0  0  0  0  0  0  0  0  0  0
   18.7521  -11.9053    3.9319 H   0  0  0  0  0  0  0  0  0  0  0  0
   21.0483  -15.0271    2.1694 H   0  0  0  0  0  0  0  0  0  0  0  0
   15.8497   -9.2361    1.7763 H   0  0  0  0  0  0  0  0  0  0  0  0
   13.6944   -9.3352    3.0184 H   0  0  0  0  0  0  0  0  0  0  0  0
   11.5374   -9.1978   -0.7180 H   0  0  0  0  0  0  0  0  0  0  0  0
  1 25  1  0
  2 15  1  0
  2 17  2  0
  2 20  1  0
  3  4  1  0
 10  4  1  0
  5 12  1  0
  6  7  1  0
  6 10  1  0
  6 16  1  0
  7  9  1  0
  7 15  1  0
  8  9  1  0
  8 11  1  0
  8 12  1  0
  9 13  1  0
 10 11  1  0
 13 14  1  0
 14 18  2  0
 14 19  1  0
 19 26  2  0
 19 27  1  0
 20 21  2  0
 20 22  1  0
 21 23  1  0
 22 24  2  0
 23 25  2  0
 24 25  1  0
 26 28  1  0
 27 29  2  0
 27 30  1  0
 28 31  2  0
 29 31  1  0
 30 33  2  0
 30 34  1  0
 31 32  1  0
  1 35  1  0
  1 36  1  0
  1 37  1  0
  3 38  1  0
  4 39  1  0
  4 40  1  0
  5 41  1  0
  5 42  1  0
  5 43  1  0
  6 44  1  1
  7 45  1  1
  8 46  1  1
  9 47  1  1
 10 48  1  6
 16 49  1  0
 21 50  1  0
 22 51  1  0
 23 52  1  0
 24 53  1  0
 26 54  1  0
 28 55  1  0
 29 56  1  0
M  CHG  2  30   1  34  -1
M  END
>  <filename_input>  (12) 
7RH3_59O_docked.sdf

>  <pdb_id>  (12) 
7RH3_59O

>  <pose_rank>  (12) 
11

>  <num_atoms_heavy>  (12) 
34

>  <num_torsions>  (12) 
9

>  <pose>  (12) 
[17.00925850044926, -13.060194712403883, -2.8251629579346846, 2.453079892222429, 0.5824132133166398, -2.270725764061302, -0.3803251812478846, 0.5628388079552751, -0.12391730592589079, 0.7851215265644075, -2.3653134751698217, 1.46377721390532, -1.160480754453931, -1.609390008740698, -2.200176378647807]

>  <energy>  (12) 
-381.75191490393576

>  <inter_energy>  (12) 
-413.6018935052923

>  <intra_energy>  (12) 
29.415192728485376

>  <rmsd>  (12) 
6.835

>  <sdf_rank>  (12) 
0

$$$$

     RDKit          3D

 56 58  0  0  0  0  0  0  0  0999 V2000
    7.9520   -6.0103   -5.7973 C   0  0  0  0  0  0  0  0  0  0  0  0
   12.8362   -6.1586   -2.7234 C   0  0  0  0  0  0  0  0  0  0  0  0
   11.1557   -9.9542    2.3187 O   0  0  0  0  0  0  0  0  0  0  0  0
   11.1338   -8.5730    1.9809 C   0  0  0  0  0  0  0  0  0  0  0  0
   15.5892  -10.3151    2.3835 C   0  0  0  0  0  0  0  0  0  0  0  0
   12.1849   -7.7186   -0.1164 C   0  0  2  0  0  0  0  0  0  0  0  0
   13.4721   -7.4094   -0.8134 C   0  0  1  0  0  0  0  0  0  0  0  0
   14.6025   -8.7877    0.8981 C   0  0  1  0  0  0  0  0  0  0  0  0
   14.5991   -8.4153   -0.5590 C   0  0  1  0  0  0  0  0  0  0  0  0
   12.4177   -8.1178    1.3299 C   0  0  2  0  0  0  0  0  0  0  0  0
   13.3269   -9.2299    1.3863 O   0  0  0  0  0  0  0  0  0  0  0  0
   15.5302   -9.8271    1.0579 O   0  0  0  0  0  0  0  0  0  0  0  0
   14.3454   -9.6481   -1.2930 O   0  0  0  0  0  0  0  0  0  0  0  0
   15.1225   -9.9016   -2.3361 C   0  0  0  0  0  0  0  0  0  0  0  0
   13.0842   -7.3397   -2.2099 O   0  0  0  0  0  0  0  0  0  0  0  0
   11.5220   -8.7661   -0.8324 O   0  0  0  0  0  0  0  0  0  0  0  0
   13.5732   -5.2426   -2.5794 O   0  0  0  0  0  0  0  0  0  0  0  0
   14.6878  -10.0484   -3.4719 O   0  0  0  0  0  0  0  0  0  0  0  0
   16.5823   -9.8056   -2.0154 C   0  0  0  0  0  0  0  0  0  0  0  0
   11.5739   -6.1139   -3.5255 C   0  0  0  0  0  0  0  0  0  0  0  0
   10.3419   -5.9385   -2.8913 C   0  0  0  0  0  0  0  0  0  0  0  0
   11.6026   -6.2170   -4.9126 C   0  0  0  0  0  0  0  0  0  0  0  0
    9.1854   -5.8808   -3.6423 C   0  0  0  0  0  0  0  0  0  0  0  0
   10.4261   -6.1681   -5.6220 C   0  0  0  0  0  0  0  0  0  0  0  0
    9.2210   -5.9994   -5.0161 C   0  0  0  0  0  0  0  0  0  0  0  0
   17.1875   -8.5657   -2.2157 C   0  0  0  0  0  0  0  0  0  0  0  0
   17.4048  -10.8625   -1.6274 C   0  0  0  0  0  0  0  0  0  0  0  0
   18.5573   -8.4004   -2.0527 C   0  0  0  0  0  0  0  0  0  0  0  0
   18.7637  -10.7377   -1.4829 C   0  0  0  0  0  0  0  0  0  0  0  0
   16.8191  -12.1912   -1.4068 N   0  0  0  0  0  0  0  0  0  0  0  0
   19.3194   -9.4890   -1.6944 C   0  0  0  0  0  0  0  0  0  0  0  0
   21.0073   -9.3466   -1.5687 Cl  0  0  0  0  0  0  0  0  0  0  0  0
   16.8494  -12.6209   -0.2305 O   0  0  0  0  0  0  0  0  0  0  0  0
   16.2460  -12.7854   -2.3341 O   0  0  0  0  0  0  0  0  0  0  0  0
    7.0962   -6.0177   -5.1062 H   0  0  0  0  0  0  0  0  0  0  0  0
    7.9038   -5.1125   -6.4310 H   0  0  0  0  0  0  0  0  0  0  0  0
    7.9193   -6.9087   -6.4310 H   0  0  0  0  0  0  0  0  0  0  0  0
   11.1573  -10.0530    3.3038 H   0  0  0  0  0  0  0  0  0  0  0  0
   10.3017   -8.3932    1.2843 H   0  0  0  0  0  0  0  0  0  0  0  0
   11.0106   -8.0023    2.9132 H   0  0  0  0  0  0  0  0  0  0  0  0
   15.4878   -9.4762    3.0878 H   0  0  0  0  0  0  0  0  0  0  0  0
   14.7711  -11.0320    2.5470 H   0  0  0  0  0  0  0  0  0  0  0  0
   16.5544  -10.8166    2.5470 H   0  0  0  0  0  0  0  0  0  0  0  0
   11.5549   -6.8170   -0.1009 H   0  0  0  0  0  0  0  0  0  0  0  0
   13.9199   -6.4782   -0.4361 H   0  0  0  0  0  0  0  0  0  0  0  0
   14.8599   -7.8879    1.4761 H   0  0  0  0  0  0  0  0  0  0  0  0
   15.5492   -7.9577   -0.8720 H   0  0  0  0  0  0  0  0  0  0  0  0
   12.8201   -7.2374    1.8524 H   0  0  0  0  0  0  0  0  0  0  0  0
   11.1196   -9.4021   -0.1892 H   0  0  0  0  0  0  0  0  0  0  0  0
   10.2934   -5.8466   -1.7962 H   0  0  0  0  0  0  0  0  0  0  0  0
   12.5611   -6.3370   -5.4387 H   0  0  0  0  0  0  0  0  0  0  0  0
    8.2189   -5.7379   -3.1368 H   0  0  0  0  0  0  0  0  0  0  0  0
   10.4610   -6.2689   -6.7168 H   0  0  0  0  0  0  0  0  0  0  0  0
   16.5699   -7.7035   -2.5077 H   0  0  0  0  0  0  0  0  0  0  0  0
   19.0246   -7.4167   -2.2074 H   0  0  0  0  0  0  0  0  0  0  0  0
   19.3888  -11.6001   -1.2085 H   0  0  0  0  0  0  0  0  0  0  0  0
  1 25  1  0
  2 15  1  0
  2 17  2  0
  2 20  1  0
  3  4  1  0
 10  4  1  0
  5 12  1  0
  6  7  1  0
  6 10  1  0
  6 16  1  0
  7  9  1  0
  7 15  1  0
  8  9  1  0
  8 11  1  0
  8 12  1  0
  9 13  1  0
 10 11  1  0
 13 14  1  0
 14 18  2  0
 14 19  1  0
 19 26  2  0
 19 27  1  0
 20 21  2  0
 20 22  1  0
 21 23  1  0
 22 24  2  0
 23 25  2  0
 24 25  1  0
 26 28  1  0
 27 29  2  0
 27 30  1  0
 28 31  2  0
 29 31  1  0
 30 33  2  0
 30 34  1  0
 31 32  1  0
  1 35  1  0
  1 36  1  0
  1 37  1  0
  3 38  1  0
  4 39  1  0
  4 40  1  0
  5 41  1  0
  5 42  1  0
  5 43  1  0
  6 44  1  1
  7 45  1  1
  8 46  1  1
  9 47  1  6
 10 48  1  1
 16 49  1  0
 21 50  1  0
 22 51  1  0
 23 52  1  0
 24 53  1  0
 26 54  1  0
 28 55  1  0
 29 56  1  0
M  CHG  2  30   1  34  -1
M  END
>  <filename_input>  (13) 
7RH3_59O_docked.sdf

>  <pdb_id>  (13) 
7RH3_59O

>  <pose_rank>  (13) 
12

>  <num_atoms_heavy>  (13) 
34

>  <num_torsions>  (13) 
9

>  <pose>  (13) 
[12.18491928852291, -7.718582854385222, -0.11637721524084405, -2.411534507549563, 3.48520613791623, -0.5895710299092805, -1.171070443610074, 0.2039335047704834, -0.4772221496002822, 16.84959890365862, -6.074880603050191, 3.851163618998645, -0.9505320180380527, 0.8392574609349495, -1.6764821254758002]

>  <energy>  (13) 
-369.8448720023063

>  <inter_energy>  (13) 
-379.9589420750018

>  <intra_energy>  (13) 
33.15195389394647

>  <rmsd>  (13) 
6.21836

>  <sdf_rank>  (13) 
0

$$$$

     RDKit          3D

 56 58  0  0  0  0  0  0  0  0999 V2000
   27.2843  -11.4654   -4.3269 C   0  0  0  0  0  0  0  0  0  0  0  0
   22.0604  -13.7114   -3.3307 C   0  0  0  0  0  0  0  0  0  0  0  0
   20.4132  -13.8847    3.1570 O   0  0  0  0  0  0  0  0  0  0  0  0
   21.1245  -14.4284    2.0522 C   0  0  0  0  0  0  0  0  0  0  0  0
   17.1112  -12.3423    1.4442 C   0  0  0  0  0  0  0  0  0  0  0  0
   21.2115  -13.9011   -0.3867 C   0  0  2  0  0  0  0  0  0  0  0  0
   20.4094  -13.6832   -1.6307 C   0  0  1  0  0  0  0  0  0  0  0  0
   18.4302  -13.4143   -0.1755 C   0  0  1  0  0  0  0  0  0  0  0  0
   19.1005  -12.9143   -1.4256 C   0  0  1  0  0  0  0  0  0  0  0  0
   20.3358  -14.3573    0.7667 C   0  0  2  0  0  0  0  0  0  0  0  0
   19.2804  -13.4052    0.9812 O   0  0  0  0  0  0  0  0  0  0  0  0
   17.3308  -12.5785    0.0677 O   0  0  0  0  0  0  0  0  0  0  0  0
   19.3792  -11.5020   -1.2003 O   0  0  0  0  0  0  0  0  0  0  0  0
   19.0982  -10.6651   -2.1886 C   0  0  0  0  0  0  0  0  0  0  0  0
   21.3373  -12.9920   -2.5063 O   0  0  0  0  0  0  0  0  0  0  0  0
   21.8846  -12.6802   -0.0617 O   0  0  0  0  0  0  0  0  0  0  0  0
   21.6472  -14.7039   -3.8279 O   0  0  0  0  0  0  0  0  0  0  0  0
   18.4427  -10.9893   -3.1714 O   0  0  0  0  0  0  0  0  0  0  0  0
   19.5012   -9.2534   -1.8926 C   0  0  0  0  0  0  0  0  0  0  0  0
   23.4121  -13.1281   -3.5976 C   0  0  0  0  0  0  0  0  0  0  0  0
   24.5649  -13.8130   -3.2067 C   0  0  0  0  0  0  0  0  0  0  0  0
   23.5497  -11.9130   -4.2612 C   0  0  0  0  0  0  0  0  0  0  0  0
   25.8072  -13.2743   -3.4737 C   0  0  0  0  0  0  0  0  0  0  0  0
   24.8055  -11.4052   -4.4953 C   0  0  0  0  0  0  0  0  0  0  0  0
   25.9345  -12.0615   -4.1184 C   0  0  0  0  0  0  0  0  0  0  0  0
   20.8598   -8.9561   -1.9908 C   0  0  0  0  0  0  0  0  0  0  0  0
   18.6569   -8.2407   -1.4387 C   0  0  0  0  0  0  0  0  0  0  0  0
   21.3492   -7.7065   -1.6314 C   0  0  0  0  0  0  0  0  0  0  0  0
   19.1125   -7.0054   -1.0521 C   0  0  0  0  0  0  0  0  0  0  0  0
   17.2172   -8.5020   -1.3125 N   0  0  0  0  0  0  0  0  0  0  0  0
   20.4683   -6.7574   -1.1650 C   0  0  0  0  0  0  0  0  0  0  0  0
   21.0395   -5.2478   -0.6358 Cl  0  0  0  0  0  0  0  0  0  0  0  0
   16.5062   -8.1653   -2.2874 O   0  0  0  0  0  0  0  0  0  0  0  0
   16.7750   -9.1132   -0.3265 O   0  0  0  0  0  0  0  0  0  0  0  0
   27.7491  -11.2601   -3.3512 H   0  0  0  0  0  0  0  0  0  0  0  0
   27.9129  -12.1696   -4.8916 H   0  0  0  0  0  0  0  0  0  0  0  0
   27.1873  -10.5265   -4.8916 H   0  0  0  0  0  0  0  0  0  0  0  0
   20.8243  -14.1989    4.0011 H   0  0  0  0  0  0  0  0  0  0  0  0
   22.0607  -13.8654    1.9235 H   0  0  0  0  0  0  0  0  0  0  0  0
   21.3179  -15.4896    2.2681 H   0  0  0  0  0  0  0  0  0  0  0  0
   17.7418  -13.0205    2.0378 H   0  0  0  0  0  0  0  0  0  0  0  0
   17.3681  -11.2997    1.6828 H   0  0  0  0  0  0  0  0  0  0  0  0
   16.0527  -12.5229    1.6828 H   0  0  0  0  0  0  0  0  0  0  0  0
   21.9468  -14.6998   -0.5642 H   0  0  0  0  0  0  0  0  0  0  0  0
   20.0426  -14.6343   -2.0440 H   0  0  0  0  0  0  0  0  0  0  0  0
   18.1453  -14.4636   -0.3417 H   0  0  0  0  0  0  0  0  0  0  0  0
   18.4723  -13.0554   -2.3174 H   0  0  0  0  0  0  0  0  0  0  0  0
   19.9403  -15.3500    0.5055 H   0  0  0  0  0  0  0  0  0  0  0  0
   21.9375  -12.5843    0.9222 H   0  0  0  0  0  0  0  0  0  0  0  0
   24.4829  -14.7793   -2.6875 H   0  0  0  0  0  0  0  0  0  0  0  0
   22.6587  -11.3618   -4.5965 H   0  0  0  0  0  0  0  0  0  0  0  0
   26.7110  -13.8212   -3.1672 H   0  0  0  0  0  0  0  0  0  0  0  0
   24.8999  -10.4349   -5.0049 H   0  0  0  0  0  0  0  0  0  0  0  0
   21.5560   -9.7239   -2.3592 H   0  0  0  0  0  0  0  0  0  0  0  0
   22.4221   -7.4796   -1.7180 H   0  0  0  0  0  0  0  0  0  0  0  0
   18.4236   -6.2396   -0.6662 H   0  0  0  0  0  0  0  0  0  0  0  0
  1 25  1  0
  2 15  1  0
  2 17  2  0
  2 20  1  0
  3  4  1  0
 10  4  1  0
  5 12  1  0
  6  7  1  0
  6 10  1  0
  6 16  1  0
  7  9  1  0
  7 15  1  0
  8  9  1  0
  8 11  1  0
  8 12  1  0
  9 13  1  0
 10 11  1  0
 13 14  1  0
 14 18  2  0
 14 19  1  0
 19 26  2  0
 19 27  1  0
 20 21  2  0
 20 22  1  0
 21 23  1  0
 22 24  2  0
 23 25  2  0
 24 25  1  0
 26 28  1  0
 27 29  2  0
 27 30  1  0
 28 31  2  0
 29 31  1  0
 30 33  2  0
 30 34  1  0
 31 32  1  0
  1 35  1  0
  1 36  1  0
  1 37  1  0
  3 38  1  0
  4 39  1  0
  4 40  1  0
  5 41  1  0
  5 42  1  0
  5 43  1  0
  6 44  1  6
  7 45  1  6
  8 46  1  6
  9 47  1  6
 10 48  1  6
 16 49  1  0
 21 50  1  0
 22 51  1  0
 23 52  1  0
 24 53  1  0
 26 54  1  0
 28 55  1  0
 29 56  1  0
M  CHG  2  30   1  34  -1
M  END
>  <filename_input>  (14) 
7RH3_59O_docked.sdf

>  <pdb_id>  (14) 
7RH3_59O

>  <pose_rank>  (14) 
13

>  <num_atoms_heavy>  (14) 
34

>  <num_torsions>  (14) 
9

>  <pose>  (14) 
[21.21149586425454, -13.901129632432003, -0.38665795849727763, -1.2810539989675067, -0.9296351862914951, -2.1931552277351676, -0.7716320086051054, 0.7939920855677876, 62.319524680478686, 44.289927113021925, 9.420341679955193, 4.183406030792688, -7.3021420349922295, -18.259851387221445, -1.0980294774889379]

>  <energy>  (14) 
-343.87888562285093

>  <inter_energy>  (14) 
-348.1893324210325

>  <intra_energy>  (14) 
7.941310257458924

>  <rmsd>  (14) 
8.54221

>  <sdf_rank>  (14) 
0

$$$$

     RDKit          3D

 56 58  0  0  0  0  0  0  0  0999 V2000
   24.0876  -17.0474   -3.2763 C   0  0  0  0  0  0  0  0  0  0  0  0
   20.3442  -13.5949   -0.5572 C   0  0  0  0  0  0  0  0  0  0  0  0
   16.8310  -11.5920   -5.2145 O   0  0  0  0  0  0  0  0  0  0  0  0
   18.0843  -10.9380   -5.3680 C   0  0  0  0  0  0  0  0  0  0  0  0
   18.6659   -8.0366   -0.2584 C   0  0  0  0  0  0  0  0  0  0  0  0
   18.9811  -12.0579   -3.3247 C   0  0  2  0  0  0  0  0  0  0  0  0
   19.5488  -11.8545   -1.9555 C   0  0  1  0  0  0  0  0  0  0  0  0
   18.6835   -9.5421   -2.0599 C   0  0  1  0  0  0  0  0  0  0  0  0
   18.9019  -10.7215   -1.1527 C   0  0  1  0  0  0  0  0  0  0  0  0
   18.7959  -10.7378   -4.0515 C   0  0  2  0  0  0  0  0  0  0  0  0
   17.9712   -9.8618   -3.2647 O   0  0  0  0  0  0  0  0  0  0  0  0
   17.9432   -8.5953   -1.3375 O   0  0  0  0  0  0  0  0  0  0  0  0
   17.5818  -11.1271   -0.6882 O   0  0  0  0  0  0  0  0  0  0  0  0
   17.3965  -11.1954    0.6222 C   0  0  0  0  0  0  0  0  0  0  0  0
   19.3817  -13.1537   -1.3312 O   0  0  0  0  0  0  0  0  0  0  0  0
   17.7335  -12.7488   -3.1999 O   0  0  0  0  0  0  0  0  0  0  0  0
   20.3961  -13.3289    0.5958 O   0  0  0  0  0  0  0  0  0  0  0  0
   18.1906  -11.7380    1.3809 O   0  0  0  0  0  0  0  0  0  0  0  0
   16.2249  -10.3885    1.0905 C   0  0  0  0  0  0  0  0  0  0  0  0
   21.3164  -14.4830   -1.2676 C   0  0  0  0  0  0  0  0  0  0  0  0
   20.9215  -15.7467   -1.7126 C   0  0  0  0  0  0  0  0  0  0  0  0
   22.6173  -14.0611   -1.5234 C   0  0  0  0  0  0  0  0  0  0  0  0
   21.8213  -16.5507   -2.3826 C   0  0  0  0  0  0  0  0  0  0  0  0
   23.4860  -14.8986   -2.1821 C   0  0  0  0  0  0  0  0  0  0  0  0
   23.1139  -16.1309   -2.6185 C   0  0  0  0  0  0  0  0  0  0  0  0
   15.4985   -9.7122    0.1113 C   0  0  0  0  0  0  0  0  0  0  0  0
   15.8557  -10.1788    2.4186 C   0  0  0  0  0  0  0  0  0  0  0  0
   14.4629   -8.8509    0.4519 C   0  0  0  0  0  0  0  0  0  0  0  0
   14.8551   -9.3158    2.7886 C   0  0  0  0  0  0  0  0  0  0  0  0
   16.5906  -10.8636    3.4901 N   0  0  0  0  0  0  0  0  0  0  0  0
   14.1641   -8.6655    1.7826 C   0  0  0  0  0  0  0  0  0  0  0  0
   12.9623   -7.5566    2.2422 Cl  0  0  0  0  0  0  0  0  0  0  0  0
   17.7239  -10.4056    3.7640 O   0  0  0  0  0  0  0  0  0  0  0  0
   16.0517  -11.7775    4.1349 O   0  0  0  0  0  0  0  0  0  0  0  0
   24.6605  -17.5866   -2.5075 H   0  0  0  0  0  0  0  0  0  0  0  0
   23.5450  -17.7701   -3.9034 H   0  0  0  0  0  0  0  0  0  0  0  0
   24.7761  -16.4620   -3.9034 H   0  0  0  0  0  0  0  0  0  0  0  0
   16.6295  -11.6972   -4.2509 H   0  0  0  0  0  0  0  0  0  0  0  0
   18.7223  -11.5473   -6.0250 H   0  0  0  0  0  0  0  0  0  0  0  0
   17.8927   -9.9444   -5.7994 H   0  0  0  0  0  0  0  0  0  0  0  0
   18.2270   -8.3758    0.6915 H   0  0  0  0  0  0  0  0  0  0  0  0
   19.7158   -8.3602   -0.3136 H   0  0  0  0  0  0  0  0  0  0  0  0
   18.6171   -6.9390   -0.3136 H   0  0  0  0  0  0  0  0  0  0  0  0
   19.6835  -12.6560   -3.9237 H   0  0  0  0  0  0  0  0  0  0  0  0
   20.5962  -11.5214   -2.0002 H   0  0  0  0  0  0  0  0  0  0  0  0
   19.6699   -9.1698   -2.3734 H   0  0  0  0  0  0  0  0  0  0  0  0
   19.5604  -10.4769   -0.3062 H   0  0  0  0  0  0  0  0  0  0  0  0
   19.7964  -10.3122   -4.2185 H   0  0  0  0  0  0  0  0  0  0  0  0
   17.5170  -12.8686   -2.2413 H   0  0  0  0  0  0  0  0  0  0  0  0
   19.8960  -16.1001   -1.5296 H   0  0  0  0  0  0  0  0  0  0  0  0
   22.9489  -13.0633   -1.2003 H   0  0  0  0  0  0  0  0  0  0  0  0
   21.5022  -17.5429   -2.7343 H   0  0  0  0  0  0  0  0  0  0  0  0
   24.5170  -14.5600   -2.3620 H   0  0  0  0  0  0  0  0  0  0  0  0
   15.7496   -9.8631   -0.9490 H   0  0  0  0  0  0  0  0  0  0  0  0
   13.8918   -8.3264   -0.3283 H   0  0  0  0  0  0  0  0  0  0  0  0
   14.6113   -9.1472    3.8479 H   0  0  0  0  0  0  0  0  0  0  0  0
  1 25  1  0
  2 15  1  0
  2 17  2  0
  2 20  1  0
  3  4  1  0
 10  4  1  0
  5 12  1  0
  6  7  1  0
  6 10  1  0
  6 16  1  0
  7  9  1  0
  7 15  1  0
  8  9  1  0
  8 11  1  0
  8 12  1  0
  9 13  1  0
 10 11  1  0
 13 14  1  0
 14 18  2  0
 14 19  1  0
 19 26  2  0
 19 27  1  0
 20 21  2  0
 20 22  1  0
 21 23  1  0
 22 24  2  0
 23 25  2  0
 24 25  1  0
 26 28  1  0
 27 29  2  0
 27 30  1  0
 28 31  2  0
 29 31  1  0
 30 33  2  0
 30 34  1  0
 31 32  1  0
  1 35  1  0
  1 36  1  0
  1 37  1  0
  3 38  1  0
  4 39  1  0
  4 40  1  0
  5 41  1  0
  5 42  1  0
  5 43  1  0
  6 44  1  6
  7 45  1  6
  8 46  1  6
  9 47  1  1
 10 48  1  6
 16 49  1  0
 21 50  1  0
 22 51  1  0
 23 52  1  0
 24 53  1  0
 26 54  1  0
 28 55  1  0
 29 56  1  0
M  CHG  2  30   1  34  -1
M  END
>  <filename_input>  (15) 
7RH3_59O_docked.sdf

>  <pdb_id>  (15) 
7RH3_59O

>  <pose_rank>  (15) 
14

>  <num_atoms_heavy>  (15) 
34

>  <num_torsions>  (15) 
9

>  <pose>  (15) 
[18.981074438285404, -12.057873184942913, -3.32466855684645, 1.811962200793653, 1.9317713312623381, -2.2778335400271086, -2.1772559196502086, 4.473460828541465, -0.33031001381378483, -0.701203180294229, 1.8217309299964313, -5.4046527741814225, -0.17920578181227267, 1.5150751005265035, 1.964849974316006]

>  <energy>  (15) 
-225.74051548448875

>  <inter_energy>  (15) 
-313.7599069543968

>  <intra_energy>  (15) 
86.95398780744368

>  <rmsd>  (15) 
7.36626

>  <sdf_rank>  (15) 
0

$$$$

     RDKit          3D

 56 58  0  0  0  0  0  0  0  0999 V2000
   22.8483  -17.5747    1.5612 C   0  0  0  0  0  0  0  0  0  0  0  0
   21.6156  -12.0374    0.4914 C   0  0  0  0  0  0  0  0  0  0  0  0
   16.9524  -14.1662    4.1816 O   0  0  0  0  0  0  0  0  0  0  0  0
   16.5275  -13.2368    3.1927 C   0  0  0  0  0  0  0  0  0  0  0  0
   16.1775  -13.4830   -2.4895 C   0  0  0  0  0  0  0  0  0  0  0  0
   18.6285  -12.6478    1.9793 C   0  0  2  0  0  0  0  0  0  0  0  0
   19.3327  -12.6512    0.6593 C   0  0  1  0  0  0  0  0  0  0  0  0
   17.1279  -13.0277   -0.3915 C   0  0  1  0  0  0  0  0  0  0  0  0
   18.4451  -12.3181   -0.5440 C   0  0  1  0  0  0  0  0  0  0  0  0
   17.2981  -13.3752    1.9017 C   0  0  2  0  0  0  0  0  0  0  0  0
   16.4849  -12.7912    0.8701 O   0  0  0  0  0  0  0  0  0  0  0  0
   16.2889  -12.5686   -1.4171 O   0  0  0  0  0  0  0  0  0  0  0  0
   18.1397  -10.8935   -0.5621 O   0  0  0  0  0  0  0  0  0  0  0  0
   18.5254  -10.2060   -1.6273 C   0  0  0  0  0  0  0  0  0  0  0  0
   20.4032  -11.6910    0.8524 O   0  0  0  0  0  0  0  0  0  0  0  0
   18.4418  -11.2891    2.3898 O   0  0  0  0  0  0  0  0  0  0  0  0
   22.3804  -11.2603    0.0285 O   0  0  0  0  0  0  0  0  0  0  0  0
   18.3480  -10.5977   -2.7744 O   0  0  0  0  0  0  0  0  0  0  0  0
   19.0251   -8.8351   -1.2897 C   0  0  0  0  0  0  0  0  0  0  0  0
   21.9276  -13.4750    0.7642 C   0  0  0  0  0  0  0  0  0  0  0  0
   22.2020  -13.9019    2.0655 C   0  0  0  0  0  0  0  0  0  0  0  0
   21.9235  -14.4159   -0.2607 C   0  0  0  0  0  0  0  0  0  0  0  0
   22.4711  -15.2336    2.3086 C   0  0  0  0  0  0  0  0  0  0  0  0
   22.2100  -15.7303    0.0226 C   0  0  0  0  0  0  0  0  0  0  0  0
   22.4801  -16.1574    1.2844 C   0  0  0  0  0  0  0  0  0  0  0  0
   20.3754   -8.5840   -1.5288 C   0  0  0  0  0  0  0  0  0  0  0  0
   18.2869   -7.8252   -0.6737 C   0  0  0  0  0  0  0  0  0  0  0  0
   20.9606   -7.3824   -1.1492 C   0  0  0  0  0  0  0  0  0  0  0  0
   18.8409   -6.6385   -0.2641 C   0  0  0  0  0  0  0  0  0  0  0  0
   16.8609   -8.0393   -0.3949 N   0  0  0  0  0  0  0  0  0  0  0  0
   20.1846   -6.4354   -0.5206 C   0  0  0  0  0  0  0  0  0  0  0  0
   20.8826   -4.9897    0.0345 Cl  0  0  0  0  0  0  0  0  0  0  0  0
   16.0811   -7.9063   -1.3663 O   0  0  0  0  0  0  0  0  0  0  0  0
   16.4923   -8.4262    0.7258 O   0  0  0  0  0  0  0  0  0  0  0  0
   22.8904  -17.7370    2.6483 H   0  0  0  0  0  0  0  0  0  0  0  0
   22.0938  -18.2425    1.1197 H   0  0  0  0  0  0  0  0  0  0  0  0
   23.8324  -17.7908    1.1197 H   0  0  0  0  0  0  0  0  0  0  0  0
   16.7811  -13.7916    5.0818 H   0  0  0  0  0  0  0  0  0  0  0  0
   15.4601  -13.4043    2.9863 H   0  0  0  0  0  0  0  0  0  0  0  0
   16.7091  -12.2250    3.5842 H   0  0  0  0  0  0  0  0  0  0  0  0
   16.0534  -14.5011   -2.0920 H   0  0  0  0  0  0  0  0  0  0  0  0
   15.3046  -13.2210   -3.1056 H   0  0  0  0  0  0  0  0  0  0  0  0
   17.0877  -13.4383   -3.1056 H   0  0  0  0  0  0  0  0  0  0  0  0
   19.2419  -13.1829    2.7193 H   0  0  0  0  0  0  0  0  0  0  0  0
   19.6893  -13.6581    0.3968 H   0  0  0  0  0  0  0  0  0  0  0  0
   17.3192  -14.1097   -0.4432 H   0  0  0  0  0  0  0  0  0  0  0  0
   18.9749  -12.6201   -1.4595 H   0  0  0  0  0  0  0  0  0  0  0  0
   17.5147  -14.4341    1.6974 H   0  0  0  0  0  0  0  0  0  0  0  0
   18.4352  -11.2410    3.3786 H   0  0  0  0  0  0  0  0  0  0  0  0
   22.2037  -13.1787    2.8943 H   0  0  0  0  0  0  0  0  0  0  0  0
   21.6922  -14.1099   -1.2916 H   0  0  0  0  0  0  0  0  0  0  0  0
   22.6819  -15.5638    3.3365 H   0  0  0  0  0  0  0  0  0  0  0  0
   22.2211  -16.4609   -0.7997 H   0  0  0  0  0  0  0  0  0  0  0  0
   20.9880   -9.3502   -2.0265 H   0  0  0  0  0  0  0  0  0  0  0  0
   22.0256   -7.1914   -1.3476 H   0  0  0  0  0  0  0  0  0  0  0  0
   18.2376   -5.8758    0.2500 H   0  0  0  0  0  0  0  0  0  0  0  0
  1 25  1  0
  2 15  1  0
  2 17  2  0
  2 20  1  0
  3  4  1  0
 10  4  1  0
  5 12  1  0
  6  7  1  0
  6 10  1  0
  6 16  1  0
  7  9  1  0
  7 15  1  0
  8  9  1  0
  8 11  1  0
  8 12  1  0
  9 13  1  0
 10 11  1  0
 13 14  1  0
 14 18  2  0
 14 19  1  0
 19 26  2  0
 19 27  1  0
 20 21  2  0
 20 22  1  0
 21 23  1  0
 22 24  2  0
 23 25  2  0
 24 25  1  0
 26 28  1  0
 27 29  2  0
 27 30  1  0
 28 31  2  0
 29 31  1  0
 30 33  2  0
 30 34  1  0
 31 32  1  0
  1 35  1  0
  1 36  1  0
  1 37  1  0
  3 38  1  0
  4 39  1  0
  4 40  1  0
  5 41  1  0
  5 42  1  0
  5 43  1  0
  6 44  1  1
  7 45  1  6
  8 46  1  6
  9 47  1  6
 10 48  1  6
 16 49  1  0
 21 50  1  0
 22 51  1  0
 23 52  1  0
 24 53  1  0
 26 54  1  0
 28 55  1  0
 29 56  1  0
M  CHG  2  30   1  34  -1
M  END
>  <filename_input>  (16) 
7RH3_59O_docked.sdf

>  <pdb_id>  (16) 
7RH3_59O

>  <pose_rank>  (16) 
15

>  <num_atoms_heavy>  (16) 
34

>  <num_torsions>  (16) 
9

>  <pose>  (16) 
[18.628526311585823, -12.64777904262682, 1.9793428528604562, -0.14225239694356595, 1.706768180794326, 2.8462645920964316, -4.584651263072063, -51.46985517218039, -182.49298988876043, 51.17489573857669, 85.48107320133441, 4.468788329023104, 18.51149720078535, -3.767224411637151, 1.8360789053951214]

>  <energy>  (16) 
-512.0983922408882

>  <inter_energy>  (16) 
-534.2900615942988

>  <intra_energy>  (16) 
26.140574033168683

>  <rmsd>  (16) 
7.67053

>  <sdf_rank>  (16) 
0

$$$$

     RDKit          3D

 56 58  0  0  0  0  0  0  0  0999 V2000
   15.8547  -11.8857    2.1741 C   0  0  0  0  0  0  0  0  0  0  0  0
   17.8934  -14.4620   -2.5727 C   0  0  0  0  0  0  0  0  0  0  0  0
   18.2283   -8.2095   -4.3777 O   0  0  0  0  0  0  0  0  0  0  0  0
   18.6366   -9.2278   -5.2824 C   0  0  0  0  0  0  0  0  0  0  0  0
   15.4037  -13.1153   -8.0535 C   0  0  0  0  0  0  0  0  0  0  0  0
   18.3639  -11.4512   -4.1800 C   0  0  2  0  0  0  0  0  0  0  0  0
   17.6099  -12.7434   -4.1798 C   0  0  1  0  0  0  0  0  0  0  0  0
   16.8420  -12.1687   -6.4573 C   0  0  1  0  0  0  0  0  0  0  0  0
   17.2856  -13.2991   -5.5700 C   0  0  1  0  0  0  0  0  0  0  0  0
   17.7816  -10.4679   -5.1795 C   0  0  2  0  0  0  0  0  0  0  0  0
   17.7568  -11.0628   -6.4880 O   0  0  0  0  0  0  0  0  0  0  0  0
   16.7170  -12.6853   -7.7550 O   0  0  0  0  0  0  0  0  0  0  0  0
   18.4878  -13.8491   -6.1827 O   0  0  0  0  0  0  0  0  0  0  0  0
   18.9199  -13.2693   -7.2932 C   0  0  0  0  0  0  0  0  0  0  0  0
   18.4638  -13.6252   -3.4060 O   0  0  0  0  0  0  0  0  0  0  0  0
   19.7363  -11.7274   -4.4793 O   0  0  0  0  0  0  0  0  0  0  0  0
   17.8445  -15.6263   -2.7851 O   0  0  0  0  0  0  0  0  0  0  0  0
   18.1669  -12.7891   -8.1317 O   0  0  0  0  0  0  0  0  0  0  0  0
   20.4076  -13.0999   -7.3242 C   0  0  0  0  0  0  0  0  0  0  0  0
   17.3657  -13.8021   -1.3379 C   0  0  0  0  0  0  0  0  0  0  0  0
   16.1797  -13.0658   -1.3843 C   0  0  0  0  0  0  0  0  0  0  0  0
   18.0252  -13.9302   -0.1195 C   0  0  0  0  0  0  0  0  0  0  0  0
   15.6925  -12.4760   -0.2356 C   0  0  0  0  0  0  0  0  0  0  0  0
   17.5130  -13.3154    0.9982 C   0  0  0  0  0  0  0  0  0  0  0  0
   16.3607  -12.5950    0.9652 C   0  0  0  0  0  0  0  0  0  0  0  0
   20.9085  -11.8782   -6.8765 C   0  0  0  0  0  0  0  0  0  0  0  0
   21.3232  -14.0130   -7.8459 C   0  0  0  0  0  0  0  0  0  0  0  0
   22.2626  -11.5808   -6.9668 C   0  0  0  0  0  0  0  0  0  0  0  0
   22.6620  -13.7395   -7.9719 C   0  0  0  0  0  0  0  0  0  0  0  0
   20.8482  -15.3137   -8.3354 N   0  0  0  0  0  0  0  0  0  0  0  0
   23.1121  -12.5138   -7.5163 C   0  0  0  0  0  0  0  0  0  0  0  0
   24.7594  -12.1538   -7.7218 Cl  0  0  0  0  0  0  0  0  0  0  0  0
   20.7159  -15.4231   -9.5763 O   0  0  0  0  0  0  0  0  0  0  0  0
   20.6913  -16.2607   -7.5481 O   0  0  0  0  0  0  0  0  0  0  0  0
   16.2188  -12.3961    3.0780 H   0  0  0  0  0  0  0  0  0  0  0  0
   16.2171  -10.8471    2.1684 H   0  0  0  0  0  0  0  0  0  0  0  0
   14.7547  -11.8902    2.1684 H   0  0  0  0  0  0  0  0  0  0  0  0
   18.3546   -8.5243   -3.4476 H   0  0  0  0  0  0  0  0  0  0  0  0
   18.5689   -8.8364   -6.3082 H   0  0  0  0  0  0  0  0  0  0  0  0
   19.6682   -9.5101   -5.0252 H   0  0  0  0  0  0  0  0  0  0  0  0
   14.8550  -13.2949   -7.1172 H   0  0  0  0  0  0  0  0  0  0  0  0
   14.8877  -12.3391   -8.6378 H   0  0  0  0  0  0  0  0  0  0  0  0
   15.4466  -14.0463   -8.6378 H   0  0  0  0  0  0  0  0  0  0  0  0
   18.2825  -10.9834   -3.1878 H   0  0  0  0  0  0  0  0  0  0  0  0
   16.6038  -12.6215   -3.7521 H   0  0  0  0  0  0  0  0  0  0  0  0
   15.8956  -11.7763   -6.0568 H   0  0  0  0  0  0  0  0  0  0  0  0
   16.5090  -14.0707   -5.4623 H   0  0  0  0  0  0  0  0  0  0  0  0
   16.7707  -10.2075   -4.8326 H   0  0  0  0  0  0  0  0  0  0  0  0
   20.2440  -11.8296   -3.6355 H   0  0  0  0  0  0  0  0  0  0  0  0
   15.6355  -12.9563   -2.3340 H   0  0  0  0  0  0  0  0  0  0  0  0
   18.9512  -14.5200   -0.0511 H   0  0  0  0  0  0  0  0  0  0  0  0
   14.7555  -11.9014   -0.2784 H   0  0  0  0  0  0  0  0  0  0  0  0
   18.0538  -13.4095    1.9514 H   0  0  0  0  0  0  0  0  0  0  0  0
   20.2198  -11.1372   -6.4444 H   0  0  0  0  0  0  0  0  0  0  0  0
   22.6490  -10.6164   -6.6054 H   0  0  0  0  0  0  0  0  0  0  0  0
   23.3526  -14.4694   -8.4195 H   0  0  0  0  0  0  0  0  0  0  0  0
  1 25  1  0
  2 15  1  0
  2 17  2  0
  2 20  1  0
  3  4  1  0
 10  4  1  0
  5 12  1  0
  6  7  1  0
  6 10  1  0
  6 16  1  0
  7  9  1  0
  7 15  1  0
  8  9  1  0
  8 11  1  0
  8 12  1  0
  9 13  1  0
 10 11  1  0
 13 14  1  0
 14 18  2  0
 14 19  1  0
 19 26  2  0
 19 27  1  0
 20 21  2  0
 20 22  1  0
 21 23  1  0
 22 24  2  0
 23 25  2  0
 24 25  1  0
 26 28  1  0
 27 29  2  0
 27 30  1  0
 28 31  2  0
 29 31  1  0
 30 33  2  0
 30 34  1  0
 31 32  1  0
  1 35  1  0
  1 36  1  0
  1 37  1  0
  3 38  1  0
  4 39  1  0
  4 40  1  0
  5 41  1  0
  5 42  1  0
  5 43  1  0
  6 44  1  1
  7 45  1  1
  8 46  1  1
  9 47  1  1
 10 48  1  1
 16 49  1  0
 21 50  1  0
 22 51  1  0
 23 52  1  0
 24 53  1  0
 26 54  1  0
 28 55  1  0
 29 56  1  0
M  CHG  2  30   1  34  -1
M  END
>  <filename_input>  (17) 
7RH3_59O_docked.sdf

>  <pdb_id>  (17) 
7RH3_59O

>  <pose_rank>  (17) 
16

>  <num_atoms_heavy>  (17) 
34

>  <num_torsions>  (17) 
9

>  <pose>  (17) 
[18.363888544770532, -11.451237433923158, -4.1800174016110105, 0.563002870909149, 1.6346042763194997, 0.48746621502841864, 1.5364885433149964, -1.3505614177094718, 20.719068389064756, 5.790757509943417, 6.450226197441544, -4.97252208255012, 6.099461728178726, -10.692369018263367, -1.7924653143206484]

>  <energy>  (17) 
300.6749777887323

>  <inter_energy>  (17) 
-42.01392436833977

>  <intra_energy>  (17) 
342.87211419563863

>  <rmsd>  (17) 
8.208

>  <sdf_rank>  (17) 
0

$$$$

     RDKit          3D

 56 58  0  0  0  0  0  0  0  0999 V2000
   17.9220  -13.4522    3.2825 C   0  0  0  0  0  0  0  0  0  0  0  0
   17.3888   -8.6059    0.1914 C   0  0  0  0  0  0  0  0  0  0  0  0
   17.6123  -11.8240   -5.5317 O   0  0  0  0  0  0  0  0  0  0  0  0
   16.8539  -11.5902   -4.3517 C   0  0  0  0  0  0  0  0  0  0  0  0
   14.8847   -6.6377   -5.9035 C   0  0  0  0  0  0  0  0  0  0  0  0
   16.8176   -9.9698   -2.4526 C   0  0  2  0  0  0  0  0  0  0  0  0
   16.6406   -8.5380   -2.0563 C   0  0  1  0  0  0  0  0  0  0  0  0
   15.6349   -8.1610   -4.2819 C   0  0  1  0  0  0  0  0  0  0  0  0
   15.5506   -7.7872   -2.8276 C   0  0  1  0  0  0  0  0  0  0  0  0
   16.8275  -10.1317   -3.9622 C   0  0  2  0  0  0  0  0  0  0  0  0
   15.6234   -9.5770   -4.5180 O   0  0  0  0  0  0  0  0  0  0  0  0
   14.5256   -7.5893   -4.9215 O   0  0  0  0  0  0  0  0  0  0  0  0
   14.2328   -8.2125   -2.3743 O   0  0  0  0  0  0  0  0  0  0  0  0
   13.5618   -7.3755   -1.5962 C   0  0  0  0  0  0  0  0  0  0  0  0
   16.3691   -8.6193   -0.6333 O   0  0  0  0  0  0  0  0  0  0  0  0
   15.7604  -10.7364   -1.8661 O   0  0  0  0  0  0  0  0  0  0  0  0
   18.0959   -7.6621    0.3023 O   0  0  0  0  0  0  0  0  0  0  0  0
   13.8587   -6.1931   -1.4758 O   0  0  0  0  0  0  0  0  0  0  0  0
   12.3098   -7.9751   -1.0342 C   0  0  0  0  0  0  0  0  0  0  0  0
   17.5264   -9.8668    0.9849 C   0  0  0  0  0  0  0  0  0  0  0  0
   16.7073  -10.0950    2.0930 C   0  0  0  0  0  0  0  0  0  0  0  0
   18.4471  -10.8448    0.6221 C   0  0  0  0  0  0  0  0  0  0  0  0
   16.8304  -11.2695    2.8074 C   0  0  0  0  0  0  0  0  0  0  0  0
   18.5468  -11.9946    1.3690 C   0  0  0  0  0  0  0  0  0  0  0  0
   17.7565  -12.2273    2.4501 C   0  0  0  0  0  0  0  0  0  0  0  0
   11.1725   -7.9190   -1.8386 C   0  0  0  0  0  0  0  0  0  0  0  0
   12.1585   -8.4957    0.2505 C   0  0  0  0  0  0  0  0  0  0  0  0
    9.9378   -8.3478   -1.3675 C   0  0  0  0  0  0  0  0  0  0  0  0
   10.9487   -8.9034    0.7537 C   0  0  0  0  0  0  0  0  0  0  0  0
   13.3238   -8.5737    1.1409 N   0  0  0  0  0  0  0  0  0  0  0  0
    9.8482   -8.8269   -0.0804 C   0  0  0  0  0  0  0  0  0  0  0  0
    8.3417   -9.2804    0.5600 Cl  0  0  0  0  0  0  0  0  0  0  0  0
   13.3435   -7.7664    2.0986 O   0  0  0  0  0  0  0  0  0  0  0  0
   14.1737   -9.4652    0.9845 O   0  0  0  0  0  0  0  0  0  0  0  0
   17.8852  -13.1796    4.3475 H   0  0  0  0  0  0  0  0  0  0  0  0
   17.1115  -14.1609    3.0572 H   0  0  0  0  0  0  0  0  0  0  0  0
   18.8916  -13.9204    3.0572 H   0  0  0  0  0  0  0  0  0  0  0  0
   18.5284  -12.1064   -5.2846 H   0  0  0  0  0  0  0  0  0  0  0  0
   15.8213  -11.9285   -4.5230 H   0  0  0  0  0  0  0  0  0  0  0  0
   17.3305  -12.1471   -3.5316 H   0  0  0  0  0  0  0  0  0  0  0  0
   15.2322   -5.7170   -5.4121 H   0  0  0  0  0  0  0  0  0  0  0  0
   15.6909   -7.0450   -6.5312 H   0  0  0  0  0  0  0  0  0  0  0  0
   14.0104   -6.4108   -6.5312 H   0  0  0  0  0  0  0  0  0  0  0  0
   17.7905  -10.3300   -2.0869 H   0  0  0  0  0  0  0  0  0  0  0  0
   17.5320   -7.9408   -2.2989 H   0  0  0  0  0  0  0  0  0  0  0  0
   16.5947   -7.7903   -4.6708 H   0  0  0  0  0  0  0  0  0  0  0  0
   15.6939   -6.7083   -2.6680 H   0  0  0  0  0  0  0  0  0  0  0  0
   17.7236   -9.6185   -4.3412 H   0  0  0  0  0  0  0  0  0  0  0  0
   15.8263  -10.6886   -0.8795 H   0  0  0  0  0  0  0  0  0  0  0  0
   15.9661   -9.3407    2.3956 H   0  0  0  0  0  0  0  0  0  0  0  0
   19.0916  -10.6988   -0.2573 H   0  0  0  0  0  0  0  0  0  0  0  0
   16.1790  -11.4447    3.6763 H   0  0  0  0  0  0  0  0  0  0  0  0
   19.2913  -12.7518    1.0820 H   0  0  0  0  0  0  0  0  0  0  0  0
   11.2541   -7.5287   -2.8638 H   0  0  0  0  0  0  0  0  0  0  0  0
    9.0473   -8.3050   -2.0119 H   0  0  0  0  0  0  0  0  0  0  0  0
   10.8575   -9.2779    1.7839 H   0  0  0  0  0  0  0  0  0  0  0  0
  1 25  1  0
  2 15  1  0
  2 17  2  0
  2 20  1  0
  3  4  1  0
 10  4  1  0
  5 12  1  0
  6  7  1  0
  6 10  1  0
  6 16  1  0
  7  9  1  0
  7 15  1  0
  8  9  1  0
  8 11  1  0
  8 12  1  0
  9 13  1  0
 10 11  1  0
 13 14  1  0
 14 18  2  0
 14 19  1  0
 19 26  2  0
 19 27  1  0
 20 21  2  0
 20 22  1  0
 21 23  1  0
 22 24  2  0
 23 25  2  0
 24 25  1  0
 26 28  1  0
 27 29  2  0
 27 30  1  0
 28 31  2  0
 29 31  1  0
 30 33  2  0
 30 34  1  0
 31 32  1  0
  1 35  1  0
  1 36  1  0
  1 37  1  0
  3 38  1  0
  4 39  1  0
  4 40  1  0
  5 41  1  0
  5 42  1  0
  5 43  1  0
  6 44  1  1
  7 45  1  1
  8 46  1  6
  9 47  1  6
 10 48  1  6
 16 49  1  0
 21 50  1  0
 22 51  1  0
 23 52  1  0
 24 53  1  0
 26 54  1  0
 28 55  1  0
 29 56  1  0
M  CHG  2  30   1  34  -1
M  END
>  <filename_input>  (18) 
7RH3_59O_docked.sdf

>  <pdb_id>  (18) 
7RH3_59O

>  <pose_rank>  (18) 
17

>  <num_atoms_heavy>  (18) 
34

>  <num_torsions>  (18) 
9

>  <pose>  (18) 
[16.817638301447747, -9.969772266807151, -2.4526345559963003, -2.086939018789285, -0.94456893140353, 3.0712122314214363, 0.5924031569281869, -0.9363959577519546, -6.825503067169018, 0.380058253795672, 0.3274173846977288, 1.4476905730696237, 5.191041773782141, -5.15234532341077, 1.790444742103074]

>  <energy>  (18) 
-406.53312245273685

>  <inter_energy>  (18) 
-447.4370817334773

>  <intra_energy>  (18) 
41.09511743880678

>  <rmsd>  (18) 
6.80903

>  <sdf_rank>  (18) 
0

$$$$

     RDKit          3D

 56 58  0  0  0  0  0  0  0  0999 V2000
   24.6798  -13.8210   -3.6375 C   0  0  0  0  0  0  0  0  0  0  0  0
   20.5854   -9.9972   -2.2449 C   0  0  0  0  0  0  0  0  0  0  0  0
   18.2785  -14.5266    2.0391 O   0  0  0  0  0  0  0  0  0  0  0  0
   17.4221  -13.8016    1.1654 C   0  0  0  0  0  0  0  0  0  0  0  0
   15.5184  -14.3542   -3.0237 C   0  0  0  0  0  0  0  0  0  0  0  0
   18.7895  -12.2029   -0.1792 C   0  0  2  0  0  0  0  0  0  0  0  0
   19.2966  -11.8585   -1.5440 C   0  0  1  0  0  0  0  0  0  0  0  0
   17.5798  -13.3892   -2.4478 C   0  0  1  0  0  0  0  0  0  0  0  0
   18.2933  -12.0856   -2.6791 C   0  0  1  0  0  0  0  0  0  0  0  0
   18.0596  -13.5342   -0.1769 C   0  0  2  0  0  0  0  0  0  0  0  0
   16.9947  -13.5059   -1.1421 O   0  0  0  0  0  0  0  0  0  0  0  0
   16.5610  -13.4797   -3.4071 O   0  0  0  0  0  0  0  0  0  0  0  0
   17.2675  -11.0510   -2.6555 O   0  0  0  0  0  0  0  0  0  0  0  0
   17.2552  -10.1886   -3.6616 C   0  0  0  0  0  0  0  0  0  0  0  0
   19.6902  -10.4683   -1.4101 O   0  0  0  0  0  0  0  0  0  0  0  0
   17.9268  -11.1495    0.2629 O   0  0  0  0  0  0  0  0  0  0  0  0
   20.5576   -8.8778   -2.6313 O   0  0  0  0  0  0  0  0  0  0  0  0
   17.2994  -10.5333   -4.8363 O   0  0  0  0  0  0  0  0  0  0  0  0
   16.9971   -8.7804   -3.2222 C   0  0  0  0  0  0  0  0  0  0  0  0
   21.6402  -10.9941   -2.6083 C   0  0  0  0  0  0  0  0  0  0  0  0
   22.6467  -11.3193   -1.6962 C   0  0  0  0  0  0  0  0  0  0  0  0
   21.6251  -11.6351   -3.8431 C   0  0  0  0  0  0  0  0  0  0  0  0
   23.6045  -12.2534   -2.0350 C   0  0  0  0  0  0  0  0  0  0  0  0
   22.6058  -12.5496   -4.1459 C   0  0  0  0  0  0  0  0  0  0  0  0
   23.5912  -12.8730   -3.2673 C   0  0  0  0  0  0  0  0  0  0  0  0
   17.6845   -8.3409   -2.0917 C   0  0  0  0  0  0  0  0  0  0  0  0
   16.0660   -7.9071   -3.7833 C   0  0  0  0  0  0  0  0  0  0  0  0
   17.4340   -7.0907   -1.5398 C   0  0  0  0  0  0  0  0  0  0  0  0
   15.7777   -6.6772   -3.2474 C   0  0  0  0  0  0  0  0  0  0  0  0
   15.3111   -8.3218   -4.9729 N   0  0  0  0  0  0  0  0  0  0  0  0
   16.4832   -6.2853   -2.1243 C   0  0  0  0  0  0  0  0  0  0  0  0
   16.0883   -4.7866   -1.4294 Cl  0  0  0  0  0  0  0  0  0  0  0  0
   15.8158   -8.0242   -6.0801 O   0  0  0  0  0  0  0  0  0  0  0  0
   14.2863   -9.0129   -4.8556 O   0  0  0  0  0  0  0  0  0  0  0  0
   25.1420  -14.2235   -2.7240 H   0  0  0  0  0  0  0  0  0  0  0  0
   24.2607  -14.6470   -4.2308 H   0  0  0  0  0  0  0  0  0  0  0  0
   25.4404  -13.2924   -4.2308 H   0  0  0  0  0  0  0  0  0  0  0  0
   18.0396  -14.3243    2.9783 H   0  0  0  0  0  0  0  0  0  0  0  0
   16.5020  -14.3839    1.0095 H   0  0  0  0  0  0  0  0  0  0  0  0
   17.2102  -12.8296    1.6349 H   0  0  0  0  0  0  0  0  0  0  0  0
   15.4635  -14.4002   -1.9260 H   0  0  0  0  0  0  0  0  0  0  0  0
   14.5631  -13.9832   -3.4234 H   0  0  0  0  0  0  0  0  0  0  0  0
   15.7174  -15.3595   -3.4234 H   0  0  0  0  0  0  0  0  0  0  0  0
   19.6413  -12.3050    0.5093 H   0  0  0  0  0  0  0  0  0  0  0  0
   20.1218  -12.5205   -1.8450 H   0  0  0  0  0  0  0  0  0  0  0  0
   18.3205  -14.1984   -2.5283 H   0  0  0  0  0  0  0  0  0  0  0  0
   18.8413  -12.0766   -3.6329 H   0  0  0  0  0  0  0  0  0  0  0  0
   18.7992  -14.3141   -0.4110 H   0  0  0  0  0  0  0  0  0  0  0  0
   17.9106  -11.1297    1.2526 H   0  0  0  0  0  0  0  0  0  0  0  0
   22.6759  -10.8321   -0.7104 H   0  0  0  0  0  0  0  0  0  0  0  0
   20.8329  -11.4115   -4.5728 H   0  0  0  0  0  0  0  0  0  0  0  0
   24.3917  -12.5081   -1.3101 H   0  0  0  0  0  0  0  0  0  0  0  0
   22.5927  -13.0359   -5.1324 H   0  0  0  0  0  0  0  0  0  0  0  0
   18.4381   -8.9950   -1.6289 H   0  0  0  0  0  0  0  0  0  0  0  0
   17.9858   -6.7506   -0.6510 H   0  0  0  0  0  0  0  0  0  0  0  0
   15.0125   -6.0261   -3.6952 H   0  0  0  0  0  0  0  0  0  0  0  0
  1 25  1  0
  2 15  1  0
  2 17  2  0
  2 20  1  0
  3  4  1  0
 10  4  1  0
  5 12  1  0
  6  7  1  0
  6 10  1  0
  6 16  1  0
  7  9  1  0
  7 15  1  0
  8  9  1  0
  8 11  1  0
  8 12  1  0
  9 13  1  0
 10 11  1  0
 13 14  1  0
 14 18  2  0
 14 19  1  0
 19 26  2  0
 19 27  1  0
 20 21  2  0
 20 22  1  0
 21 23  1  0
 22 24  2  0
 23 25  2  0
 24 25  1  0
 26 28  1  0
 27 29  2  0
 27 30  1  0
 28 31  2  0
 29 31  1  0
 30 33  2  0
 30 34  1  0
 31 32  1  0
  1 35  1  0
  1 36  1  0
  1 37  1  0
  3 38  1  0
  4 39  1  0
  4 40  1  0
  5 41  1  0
  5 42  1  0
  5 43  1  0
  6 44  1  1
  7 45  1  6
  8 46  1  6
  9 47  1  6
 10 48  1  6
 16 49  1  0
 21 50  1  0
 22 51  1  0
 23 52  1  0
 24 53  1  0
 26 54  1  0
 28 55  1  0
 29 56  1  0
M  CHG  2  30   1  34  -1
M  END
>  <filename_input>  (19) 
7RH3_59O_docked.sdf

>  <pdb_id>  (19) 
7RH3_59O

>  <pose_rank>  (19) 
18

>  <num_atoms_heavy>  (19) 
34

>  <num_torsions>  (19) 
9

>  <pose>  (19) 
[18.789525051698327, -12.202922670438111, -0.179220349769393, -0.6339363945872272, 1.956051886434017, 3.2477546283552954, 1.5324861980709477, 0.5515213404285255, -19.268110517027697, -11.602567052839655, 8.85843073109536, -2.035325471415319, 0.09367704856653192, 2.540298338178761, 1.8535795062839189]

>  <energy>  (19) 
-132.92414485974052

>  <inter_energy>  (19) 
-202.69432876680924

>  <intra_energy>  (19) 
61.87545937783911

>  <rmsd>  (19) 
8.03616

>  <sdf_rank>  (19) 
0

$$$$

     RDKit          3D

 56 58  0  0  0  0  0  0  0  0999 V2000
   13.0590   -6.4199   -1.6711 C   0  0  0  0  0  0  0  0  0  0  0  0
   15.8592  -10.3088    1.5477 C   0  0  0  0  0  0  0  0  0  0  0  0
   17.6651  -16.3229    3.5100 O   0  0  0  0  0  0  0  0  0  0  0  0
   17.3072  -15.6373    2.3167 C   0  0  0  0  0  0  0  0  0  0  0  0
   21.9881  -13.7506    1.0405 C   0  0  0  0  0  0  0  0  0  0  0  0
   16.9488  -13.2283    1.7671 C   0  0  2  0  0  0  0  0  0  0  0  0
   17.6082  -11.9079    1.5221 C   0  0  1  0  0  0  0  0  0  0  0  0
   19.7277  -13.1447    1.2309 C   0  0  1  0  0  0  0  0  0  0  0  0
   18.9181  -11.9800    0.7311 C   0  0  1  0  0  0  0  0  0  0  0  0
   17.9514  -14.2753    2.2183 C   0  0  2  0  0  0  0  0  0  0  0  0
   19.0072  -14.3863    1.2490 O   0  0  0  0  0  0  0  0  0  0  0  0
   20.8323  -13.2780    0.3774 O   0  0  0  0  0  0  0  0  0  0  0  0
   18.6409  -12.2506   -0.6735 O   0  0  0  0  0  0  0  0  0  0  0  0
   18.8723  -11.2708   -1.5352 C   0  0  0  0  0  0  0  0  0  0  0  0
   16.5795  -11.1454    0.8396 O   0  0  0  0  0  0  0  0  0  0  0  0
   16.2936  -13.6382    0.5620 O   0  0  0  0  0  0  0  0  0  0  0  0
   15.8261  -10.3526    2.7309 O   0  0  0  0  0  0  0  0  0  0  0  0
   19.5280  -10.2752   -1.2530 O   0  0  0  0  0  0  0  0  0  0  0  0
   18.4125  -11.5918   -2.9238 C   0  0  0  0  0  0  0  0  0  0  0  0
   15.1395   -9.2946    0.7158 C   0  0  0  0  0  0  0  0  0  0  0  0
   13.7644   -9.1046    0.8697 C   0  0  0  0  0  0  0  0  0  0  0  0
   15.8244   -8.5050   -0.2024 C   0  0  0  0  0  0  0  0  0  0  0  0
   13.1135   -8.1539    0.1099 C   0  0  0  0  0  0  0  0  0  0  0  0
   15.1355   -7.5788   -0.9490 C   0  0  0  0  0  0  0  0  0  0  0  0
   13.7973   -7.3857   -0.8093 C   0  0  0  0  0  0  0  0  0  0  0  0
   17.0612  -11.3873   -3.1994 C   0  0  0  0  0  0  0  0  0  0  0  0
   19.1904  -12.1625   -3.9306 C   0  0  0  0  0  0  0  0  0  0  0  0
   16.5136  -11.7567   -4.4216 C   0  0  0  0  0  0  0  0  0  0  0  0
   18.6746  -12.5612   -5.1380 C   0  0  0  0  0  0  0  0  0  0  0  0
   20.6193  -12.4035   -3.6913 N   0  0  0  0  0  0  0  0  0  0  0  0
   17.3284  -12.3402   -5.3650 C   0  0  0  0  0  0  0  0  0  0  0  0
   16.6786  -12.8827   -6.8376 Cl  0  0  0  0  0  0  0  0  0  0  0  0
   20.9280  -13.5507   -3.2941 O   0  0  0  0  0  0  0  0  0  0  0  0
   21.4576  -11.5316   -3.9712 O   0  0  0  0  0  0  0  0  0  0  0  0
   12.5130   -5.7058   -1.0371 H   0  0  0  0  0  0  0  0  0  0  0  0
   13.7729   -5.8750   -2.3062 H   0  0  0  0  0  0  0  0  0  0  0  0
   12.3459   -6.9660   -2.3062 H   0  0  0  0  0  0  0  0  0  0  0  0
   17.3857  -15.7877    4.2946 H   0  0  0  0  0  0  0  0  0  0  0  0
   17.6249  -16.2411    1.4538 H   0  0  0  0  0  0  0  0  0  0  0  0
   16.2170  -15.4918    2.3283 H   0  0  0  0  0  0  0  0  0  0  0  0
   21.8376  -13.6890    2.1284 H   0  0  0  0  0  0  0  0  0  0  0  0
   22.1731  -14.7965    0.7545 H   0  0  0  0  0  0  0  0  0  0  0  0
   22.8528  -13.1338    0.7545 H   0  0  0  0  0  0  0  0  0  0  0  0
   16.2126  -13.1216    2.5774 H   0  0  0  0  0  0  0  0  0  0  0  0
   17.9447  -11.4463    2.4621 H   0  0  0  0  0  0  0  0  0  0  0  0
   20.0113  -12.9365    2.2732 H   0  0  0  0  0  0  0  0  0  0  0  0
   19.4488  -11.0242    0.8518 H   0  0  0  0  0  0  0  0  0  0  0  0
   18.3337  -13.9614    3.2009 H   0  0  0  0  0  0  0  0  0  0  0  0
   15.4764  -14.1493    0.7882 H   0  0  0  0  0  0  0  0  0  0  0  0
   13.2016   -9.7110    1.5947 H   0  0  0  0  0  0  0  0  0  0  0  0
   16.9107   -8.6211   -0.3302 H   0  0  0  0  0  0  0  0  0  0  0  0
   12.0312   -8.0063    0.2395 H   0  0  0  0  0  0  0  0  0  0  0  0
   15.6859   -6.9734   -1.6843 H   0  0  0  0  0  0  0  0  0  0  0  0
   16.4177  -10.9256   -2.4361 H   0  0  0  0  0  0  0  0  0  0  0  0
   15.4475  -11.5858   -4.6317 H   0  0  0  0  0  0  0  0  0  0  0  0
   19.3093  -13.0397   -5.8984 H   0  0  0  0  0  0  0  0  0  0  0  0
  1 25  1  0
  2 15  1  0
  2 17  2  0
  2 20  1  0
  3  4  1  0
 10  4  1  0
  5 12  1  0
  6  7  1  0
  6 10  1  0
  6 16  1  0
  7  9  1  0
  7 15  1  0
  8  9  1  0
  8 11  1  0
  8 12  1  0
  9 13  1  0
 10 11  1  0
 13 14  1  0
 14 18  2  0
 14 19  1  0
 19 26  2  0
 19 27  1  0
 20 21  2  0
 20 22  1  0
 21 23  1  0
 22 24  2  0
 23 25  2  0
 24 25  1  0
 26 28  1  0
 27 29  2  0
 27 30  1  0
 28 31  2  0
 29 31  1  0
 30 33  2  0
 30 34  1  0
 31 32  1  0
  1 35  1  0
  1 36  1  0
  1 37  1  0
  3 38  1  0
  4 39  1  0
  4 40  1  0
  5 41  1  0
  5 42  1  0
  5 43  1  0
  6 44  1  1
  7 45  1  1
  8 46  1  1
  9 47  1  6
 10 48  1  1
 16 49  1  0
 21 50  1  0
 22 51  1  0
 23 52  1  0
 24 53  1  0
 26 54  1  0
 28 55  1  0
 29 56  1  0
M  CHG  2  30   1  34  -1
M  END
>  <filename_input>  (20) 
7RH3_59O_docked.sdf

>  <pdb_id>  (20) 
7RH3_59O

>  <pose_rank>  (20) 
19

>  <num_atoms_heavy>  (20) 
34

>  <num_torsions>  (20) 
9

>  <pose>  (20) 
[16.948785884229004, -13.228327021705152, 1.767066679408463, 2.13015696340083, -1.1310560131870195, -0.4180253016544798, 0.7699492529968859, -0.4141128493827417, -0.4467687772454693, 0.35683390216796146, -3.038167190466182, 1.213642289306936, -0.9191686254159285, -0.2813949543345336, -0.8910862882061075]

>  <energy>  (20) 
-372.8895507510448

>  <inter_energy>  (20) 
-373.4999433894496

>  <intra_energy>  (20) 
8.590218946578817

>  <rmsd>  (20) 
6.25089

>  <sdf_rank>  (20) 
0

$$$$

     RDKit          3D

 56 58  0  0  0  0  0  0  0  0999 V2000
   25.7515  -10.7879    2.0474 C   0  0  0  0  0  0  0  0  0  0  0  0
   20.9169  -10.4758   -1.0918 C   0  0  0  0  0  0  0  0  0  0  0  0
   19.3790  -15.1559    1.9255 O   0  0  0  0  0  0  0  0  0  0  0  0
   18.0775  -14.7674    1.5044 C   0  0  0  0  0  0  0  0  0  0  0  0
   14.9961  -12.5031   -2.7520 C   0  0  0  0  0  0  0  0  0  0  0  0
   19.1065  -12.8046    0.3546 C   0  0  2  0  0  0  0  0  0  0  0  0
   19.0333  -11.8895   -0.8267 C   0  0  1  0  0  0  0  0  0  0  0  0
   16.7333  -12.7184   -1.1874 C   0  0  1  0  0  0  0  0  0  0  0  0
   17.6140  -11.5010   -1.2524 C   0  0  1  0  0  0  0  0  0  0  0  0
   18.1027  -13.9382    0.2429 C   0  0  2  0  0  0  0  0  0  0  0  0
   16.7800  -13.4007    0.0749 O   0  0  0  0  0  0  0  0  0  0  0  0
   15.4180  -12.2912   -1.4194 O   0  0  0  0  0  0  0  0  0  0  0  0
   17.0528  -10.5425   -0.3093 O   0  0  0  0  0  0  0  0  0  0  0  0
   16.8044   -9.3224   -0.7629 C   0  0  0  0  0  0  0  0  0  0  0  0
   19.8289  -10.7491   -0.4122 O   0  0  0  0  0  0  0  0  0  0  0  0
   18.8743  -12.0349    1.5391 O   0  0  0  0  0  0  0  0  0  0  0  0
   20.8833  -10.1616   -2.2333 O   0  0  0  0  0  0  0  0  0  0  0  0
   17.5698   -8.7174   -1.5037 O   0  0  0  0  0  0  0  0  0  0  0  0
   15.4250   -8.8438   -0.4300 C   0  0  0  0  0  0  0  0  0  0  0  0
   22.1655  -10.5613   -0.2718 C   0  0  0  0  0  0  0  0  0  0  0  0
   22.9001   -9.4087    0.0157 C   0  0  0  0  0  0  0  0  0  0  0  0
   22.6031  -11.7780    0.2420 C   0  0  0  0  0  0  0  0  0  0  0  0
   24.0406   -9.4964    0.7879 C   0  0  0  0  0  0  0  0  0  0  0  0
   23.7520  -11.8233    0.9955 C   0  0  0  0  0  0  0  0  0  0  0  0
   24.4762  -10.7089    1.2806 C   0  0  0  0  0  0  0  0  0  0  0  0
   14.7541   -9.5235    0.5857 C   0  0  0  0  0  0  0  0  0  0  0  0
   14.7209   -7.8472   -1.1049 C   0  0  0  0  0  0  0  0  0  0  0  0
   13.4321   -9.2290    0.8954 C   0  0  0  0  0  0  0  0  0  0  0  0
   13.4076   -7.5503   -0.8400 C   0  0  0  0  0  0  0  0  0  0  0  0
   15.3791   -7.1029   -2.1864 N   0  0  0  0  0  0  0  0  0  0  0  0
   12.7831   -8.2525    0.1746 C   0  0  0  0  0  0  0  0  0  0  0  0
   11.1424   -7.9232    0.4661 Cl  0  0  0  0  0  0  0  0  0  0  0  0
   15.8366   -5.9766   -1.8843 O   0  0  0  0  0  0  0  0  0  0  0  0
   15.5445   -7.6287   -3.2989 O   0  0  0  0  0  0  0  0  0  0  0  0
   25.5327  -10.7744    3.1253 H   0  0  0  0  0  0  0  0  0  0  0  0
   26.2761  -11.7203    1.7915 H   0  0  0  0  0  0  0  0  0  0  0  0
   26.3872   -9.9275    1.7915 H   0  0  0  0  0  0  0  0  0  0  0  0
   19.4161  -15.1670    2.9148 H   0  0  0  0  0  0  0  0  0  0  0  0
   17.4813  -15.6732    1.3195 H   0  0  0  0  0  0  0  0  0  0  0  0
   17.6378  -14.1504    2.3018 H   0  0  0  0  0  0  0  0  0  0  0  0
   14.0131  -12.9968   -2.7512 H   0  0  0  0  0  0  0  0  0  0  0  0
   14.9203  -11.5361   -3.2708 H   0  0  0  0  0  0  0  0  0  0  0  0
   15.7266  -13.1413   -3.2708 H   0  0  0  0  0  0  0  0  0  0  0  0
   20.1045  -13.2653    0.3955 H   0  0  0  0  0  0  0  0  0  0  0  0
   19.4094  -12.3783   -1.7376 H   0  0  0  0  0  0  0  0  0  0  0  0
   17.0925  -13.4357   -1.9401 H   0  0  0  0  0  0  0  0  0  0  0  0
   17.6602  -11.0767   -2.2662 H   0  0  0  0  0  0  0  0  0  0  0  0
   18.4014  -14.5574   -0.6158 H   0  0  0  0  0  0  0  0  0  0  0  0
   19.0438  -12.5969    2.3363 H   0  0  0  0  0  0  0  0  0  0  0  0
   22.5705   -8.4337   -0.3724 H   0  0  0  0  0  0  0  0  0  0  0  0
   22.0331  -12.6982    0.0464 H   0  0  0  0  0  0  0  0  0  0  0  0
   24.6119   -8.5841    1.0142 H   0  0  0  0  0  0  0  0  0  0  0  0
   24.0970  -12.7943    1.3806 H   0  0  0  0  0  0  0  0  0  0  0  0
   15.2804  -10.3063    1.1516 H   0  0  0  0  0  0  0  0  0  0  0  0
   12.9132   -9.7668    1.7025 H   0  0  0  0  0  0  0  0  0  0  0  0
   12.8707   -6.7810   -1.4144 H   0  0  0  0  0  0  0  0  0  0  0  0
  1 25  1  0
  2 15  1  0
  2 17  2  0
  2 20  1  0
  3  4  1  0
 10  4  1  0
  5 12  1  0
  6  7  1  0
  6 10  1  0
  6 16  1  0
  7  9  1  0
  7 15  1  0
  8  9  1  0
  8 11  1  0
  8 12  1  0
  9 13  1  0
 10 11  1  0
 13 14  1  0
 14 18  2  0
 14 19  1  0
 19 26  2  0
 19 27  1  0
 20 21  2  0
 20 22  1  0
 21 23  1  0
 22 24  2  0
 23 25  2  0
 24 25  1  0
 26 28  1  0
 27 29  2  0
 27 30  1  0
 28 31  2  0
 29 31  1  0
 30 33  2  0
 30 34  1  0
 31 32  1  0
  1 35  1  0
  1 36  1  0
  1 37  1  0
  3 38  1  0
  4 39  1  0
  4 40  1  0
  5 41  1  0
  5 42  1  0
  5 43  1  0
  6 44  1  1
  7 45  1  6
  8 46  1  6
  9 47  1  6
 10 48  1  6
 16 49  1  0
 21 50  1  0
 22 51  1  0
 23 52  1  0
 24 53  1  0
 26 54  1  0
 28 55  1  0
 29 56  1  0
M  CHG  2  30   1  34  -1
M  END
>  <filename_input>  (21) 
7RH3_59O_docked.sdf

>  <pdb_id>  (21) 
7RH3_59O

>  <pose_rank>  (21) 
20

>  <num_atoms_heavy>  (21) 
34

>  <num_torsions>  (21) 
9

>  <pose>  (21) 
[19.106507046511553, -12.804604916530185, 0.35461840088101915, 0.1105386498432385, 0.7859035009913437, 3.7458959992748215, -4.018722869606631, -1.252839574023878, -0.37936545052671655, -0.6230346288351194, 2.1135162647869157, -2.1719297963525137, -19.445463164602405, -24.028398950137987, -5.084752001440378]

>  <energy>  (21) 
-337.6372257257764

>  <inter_energy>  (21) 
-359.20878394143597

>  <intra_energy>  (21) 
32.019910991694445

>  <rmsd>  (21) 
7.7853

>  <sdf_rank>  (21) 
0

$$$$

     RDKit          3D

 56 58  0  0  0  0  0  0  0  0999 V2000
   11.1253   -8.5250    1.2774 C   0  0  0  0  0  0  0  0  0  0  0  0
   16.6226   -9.0273   -0.4115 C   0  0  0  0  0  0  0  0  0  0  0  0
   19.9742   -9.2805   -4.6550 O   0  0  0  0  0  0  0  0  0  0  0  0
   19.8447  -10.6757   -4.4120 C   0  0  0  0  0  0  0  0  0  0  0  0
   16.5037  -14.8660   -4.3344 C   0  0  0  0  0  0  0  0  0  0  0  0
   18.2120  -10.3443   -2.5524 C   0  0  2  0  0  0  0  0  0  0  0  0
   16.9330  -10.8155   -1.9356 C   0  0  1  0  0  0  0  0  0  0  0  0
   17.1632  -12.8681   -3.2924 C   0  0  1  0  0  0  0  0  0  0  0  0
   16.7308  -12.3338   -1.9547 C   0  0  1  0  0  0  0  0  0  0  0  0
   18.4833  -11.0434   -3.8725 C   0  0  2  0  0  0  0  0  0  0  0  0
   18.4873  -12.4675   -3.6759 O   0  0  0  0  0  0  0  0  0  0  0  0
   17.1219  -14.2675   -3.2126 O   0  0  0  0  0  0  0  0  0  0  0  0
   17.5940  -12.9667   -0.9660 O   0  0  0  0  0  0  0  0  0  0  0  0
   17.0439  -13.8804   -0.1795 C   0  0  0  0  0  0  0  0  0  0  0  0
   16.9935  -10.2723   -0.5914 O   0  0  0  0  0  0  0  0  0  0  0  0
   19.2763  -10.5796   -1.6244 O   0  0  0  0  0  0  0  0  0  0  0  0
   17.3544   -8.1176   -0.6119 O   0  0  0  0  0  0  0  0  0  0  0  0
   16.1553  -14.6357   -0.5544 O   0  0  0  0  0  0  0  0  0  0  0  0
   17.7421  -14.0151    1.1386 C   0  0  0  0  0  0  0  0  0  0  0  0
   15.1969   -8.8897    0.0210 C   0  0  0  0  0  0  0  0  0  0  0  0
   14.8692   -8.8902    1.3787 C   0  0  0  0  0  0  0  0  0  0  0  0
   14.1773   -8.7312   -0.9123 C   0  0  0  0  0  0  0  0  0  0  0  0
   13.5529   -8.7449    1.7672 C   0  0  0  0  0  0  0  0  0  0  0  0
   12.8776   -8.6031   -0.4833 C   0  0  0  0  0  0  0  0  0  0  0  0
   12.5461   -8.6037    0.8350 C   0  0  0  0  0  0  0  0  0  0  0  0
   17.4187  -13.0767    2.1176 C   0  0  0  0  0  0  0  0  0  0  0  0
   18.7492  -14.9312    1.4398 C   0  0  0  0  0  0  0  0  0  0  0  0
   18.0891  -13.0480    3.3342 C   0  0  0  0  0  0  0  0  0  0  0  0
   19.4469  -14.9129    2.6213 C   0  0  0  0  0  0  0  0  0  0  0  0
   19.1321  -15.9389    0.4423 N   0  0  0  0  0  0  0  0  0  0  0  0
   19.0924  -13.9624    3.5611 C   0  0  0  0  0  0  0  0  0  0  0  0
   19.9917  -13.9047    5.0010 Cl  0  0  0  0  0  0  0  0  0  0  0  0
   20.0548  -15.6184   -0.3421 O   0  0  0  0  0  0  0  0  0  0  0  0
   18.6203  -17.0698    0.4652 O   0  0  0  0  0  0  0  0  0  0  0  0
   11.0831   -8.5227    2.3766 H   0  0  0  0  0  0  0  0  0  0  0  0
   10.6716   -7.6004    0.8911 H   0  0  0  0  0  0  0  0  0  0  0  0
   10.5723   -9.3939    0.8911 H   0  0  0  0  0  0  0  0  0  0  0  0
   20.0191   -8.7980   -3.7917 H   0  0  0  0  0  0  0  0  0  0  0  0
   20.0075  -11.2151   -5.3567 H   0  0  0  0  0  0  0  0  0  0  0  0
   20.5915  -10.9542   -3.6540 H   0  0  0  0  0  0  0  0  0  0  0  0
   15.7522  -15.5936   -3.9941 H   0  0  0  0  0  0  0  0  0  0  0  0
   16.0142  -14.0898   -4.9409 H   0  0  0  0  0  0  0  0  0  0  0  0
   17.2637  -15.3803   -4.9409 H   0  0  0  0  0  0  0  0  0  0  0  0
   18.1349   -9.2690   -2.7709 H   0  0  0  0  0  0  0  0  0  0  0  0
   16.0596  -10.4707   -2.5085 H   0  0  0  0  0  0  0  0  0  0  0  0
   16.4835  -12.4597   -4.0548 H   0  0  0  0  0  0  0  0  0  0  0  0
   15.6714  -12.5450   -1.7468 H   0  0  0  0  0  0  0  0  0  0  0  0
   17.6967  -10.7329   -4.5759 H   0  0  0  0  0  0  0  0  0  0  0  0
   18.9309  -10.5032   -0.6998 H   0  0  0  0  0  0  0  0  0  0  0  0
   15.6582   -9.0062    2.1364 H   0  0  0  0  0  0  0  0  0  0  0  0
   14.4098   -8.7086   -1.9872 H   0  0  0  0  0  0  0  0  0  0  0  0
   13.3024   -8.7416    2.8383 H   0  0  0  0  0  0  0  0  0  0  0  0
   12.0788   -8.4966   -1.2320 H   0  0  0  0  0  0  0  0  0  0  0  0
   16.6192  -12.3465    1.9235 H   0  0  0  0  0  0  0  0  0  0  0  0
   17.8226  -12.3073    4.1026 H   0  0  0  0  0  0  0  0  0  0  0  0
   20.2594  -15.6290    2.8140 H   0  0  0  0  0  0  0  0  0  0  0  0
  1 25  1  0
  2 15  1  0
  2 17  2  0
  2 20  1  0
  3  4  1  0
 10  4  1  0
  5 12  1  0
  6  7  1  0
  6 10  1  0
  6 16  1  0
  7  9  1  0
  7 15  1  0
  8  9  1  0
  8 11  1  0
  8 12  1  0
  9 13  1  0
 10 11  1  0
 13 14  1  0
 14 18  2  0
 14 19  1  0
 19 26  2  0
 19 27  1  0
 20 21  2  0
 20 22  1  0
 21 23  1  0
 22 24  2  0
 23 25  2  0
 24 25  1  0
 26 28  1  0
 27 29  2  0
 27 30  1  0
 28 31  2  0
 29 31  1  0
 30 33  2  0
 30 34  1  0
 31 32  1  0
  1 35  1  0
  1 36  1  0
  1 37  1  0
  3 38  1  0
  4 39  1  0
  4 40  1  0
  5 41  1  0
  5 42  1  0
  5 43  1  0
  6 44  1  6
  7 45  1  6
  8 46  1  6
  9 47  1  1
 10 48  1  6
 16 49  1  0
 21 50  1  0
 22 51  1  0
 23 52  1  0
 24 53  1  0
 26 54  1  0
 28 55  1  0
 29 56  1  0
M  CHG  2  30   1  34  -1
M  END
>  <filename_input>  (22) 
7RH3_59O_docked.sdf

>  <pdb_id>  (22) 
7RH3_59O

>  <pose_rank>  (22) 
21

>  <num_atoms_heavy>  (22) 
34

>  <num_torsions>  (22) 
9

>  <pose>  (22) 
[18.21196160963327, -10.344276629666156, -2.552389781789104, 1.1984316170854676, -4.32629874010023, 2.4466488949842873, 2.0715160858373003, -0.6382827772341904, 18.80128100924535, -11.863720780883583, 9.50509901911614, 1.1434662277836356, -57.74011335733824, -32.8673798063624, 4.72957380295189]

>  <energy>  (22) 
-400.4515974106327

>  <inter_energy>  (22) 
-426.23393453359125

>  <intra_energy>  (22) 
32.044509010027674

>  <rmsd>  (22) 
3.92348

>  <sdf_rank>  (22) 
0

$$$$

     RDKit          3D

 56 58  0  0  0  0  0  0  0  0999 V2000
    8.8160   -5.8084   -8.7044 C   0  0  0  0  0  0  0  0  0  0  0  0
   11.5405   -5.7194   -3.6156 C   0  0  0  0  0  0  0  0  0  0  0  0
   14.3365   -6.4263   -8.4446 O   0  0  0  0  0  0  0  0  0  0  0  0
   15.0715   -7.3784   -7.6859 C   0  0  0  0  0  0  0  0  0  0  0  0
   15.5345  -11.4529   -4.6933 C   0  0  0  0  0  0  0  0  0  0  0  0
   13.6730   -6.8335   -5.6907 C   0  0  2  0  0  0  0  0  0  0  0  0
   13.0045   -7.3771   -4.4676 C   0  0  1  0  0  0  0  0  0  0  0  0
   14.4229   -9.3850   -4.7189 C   0  0  1  0  0  0  0  0  0  0  0  0
   13.8052   -8.4470   -3.7187 C   0  0  1  0  0  0  0  0  0  0  0  0
   14.2708   -7.9431   -6.5372 C   0  0  2  0  0  0  0  0  0  0  0  0
   15.1805   -8.7232   -5.7431 O   0  0  0  0  0  0  0  0  0  0  0  0
   15.2772  -10.2421   -4.0103 O   0  0  0  0  0  0  0  0  0  0  0  0
   14.9133   -7.8319   -2.9999 O   0  0  0  0  0  0  0  0  0  0  0  0
   14.6938   -7.4726   -1.7434 C   0  0  0  0  0  0  0  0  0  0  0  0
   12.7632   -6.1911   -3.6671 O   0  0  0  0  0  0  0  0  0  0  0  0
   14.6838   -5.9064   -5.2806 O   0  0  0  0  0  0  0  0  0  0  0  0
   11.0753   -5.2853   -2.6166 O   0  0  0  0  0  0  0  0  0  0  0  0
   13.8762   -6.6170   -1.4272 O   0  0  0  0  0  0  0  0  0  0  0  0
   15.4058   -8.3420   -0.7533 C   0  0  0  0  0  0  0  0  0  0  0  0
   10.8365   -5.7512   -4.9355 C   0  0  0  0  0  0  0  0  0  0  0  0
   11.1290   -4.7978   -5.9133 C   0  0  0  0  0  0  0  0  0  0  0  0
    9.9026   -6.7408   -5.2256 C   0  0  0  0  0  0  0  0  0  0  0  0
   10.4867   -4.8470   -7.1339 C   0  0  0  0  0  0  0  0  0  0  0  0
    9.2756   -6.7457   -6.4489 C   0  0  0  0  0  0  0  0  0  0  0  0
    9.5507   -5.8224   -7.4079 C   0  0  0  0  0  0  0  0  0  0  0  0
   16.7575   -8.5860   -0.9918 C   0  0  0  0  0  0  0  0  0  0  0  0
   14.8185   -9.0012    0.3260 C   0  0  0  0  0  0  0  0  0  0  0  0
   17.4799   -9.4658   -0.1954 C   0  0  0  0  0  0  0  0  0  0  0  0
   15.4979   -9.8948    1.1151 C   0  0  0  0  0  0  0  0  0  0  0  0
   13.3960   -8.7830    0.6194 N   0  0  0  0  0  0  0  0  0  0  0  0
   16.8363  -10.1064    0.8388 C   0  0  0  0  0  0  0  0  0  0  0  0
   17.6633  -11.2527    1.7809 Cl  0  0  0  0  0  0  0  0  0  0  0  0
   13.1345   -8.2391    1.7171 O   0  0  0  0  0  0  0  0  0  0  0  0
   12.5328   -9.0426   -0.2344 O   0  0  0  0  0  0  0  0  0  0  0  0
    7.7332   -5.7877   -8.5120 H   0  0  0  0  0  0  0  0  0  0  0  0
    9.1035   -4.9155   -9.2790 H   0  0  0  0  0  0  0  0  0  0  0  0
    9.0692   -6.7115   -9.2790 H   0  0  0  0  0  0  0  0  0  0  0  0
   13.8616   -5.8113   -7.8312 H   0  0  0  0  0  0  0  0  0  0  0  0
   15.3688   -8.2044   -8.3487 H   0  0  0  0  0  0  0  0  0  0  0  0
   15.9475   -6.8649   -7.2628 H   0  0  0  0  0  0  0  0  0  0  0  0
   15.7054  -12.2570   -3.9624 H   0  0  0  0  0  0  0  0  0  0  0  0
   14.6707  -11.7086   -5.3245 H   0  0  0  0  0  0  0  0  0  0  0  0
   16.4277  -11.3352   -5.3245 H   0  0  0  0  0  0  0  0  0  0  0  0
   12.9259   -6.3226   -6.3159 H   0  0  0  0  0  0  0  0  0  0  0  0
   12.0870   -7.9278   -4.7223 H   0  0  0  0  0  0  0  0  0  0  0  0
   13.6078   -9.9165   -5.2317 H   0  0  0  0  0  0  0  0  0  0  0  0
   13.1261   -8.9672   -3.0272 H   0  0  0  0  0  0  0  0  0  0  0  0
   13.4369   -8.5525   -6.9156 H   0  0  0  0  0  0  0  0  0  0  0  0
   14.7197   -5.8734   -4.2918 H   0  0  0  0  0  0  0  0  0  0  0  0
   11.8694   -4.0098   -5.7112 H   0  0  0  0  0  0  0  0  0  0  0  0
    9.6672   -7.5149   -4.4803 H   0  0  0  0  0  0  0  0  0  0  0  0
   10.7252   -4.0957   -7.9012 H   0  0  0  0  0  0  0  0  0  0  0  0
    8.5261   -7.5229   -6.6589 H   0  0  0  0  0  0  0  0  0  0  0  0
   17.2607   -8.0731   -1.8248 H   0  0  0  0  0  0  0  0  0  0  0  0
   18.5476   -9.6473   -0.3881 H   0  0  0  0  0  0  0  0  0  0  0  0
   14.9957  -10.4241    1.9384 H   0  0  0  0  0  0  0  0  0  0  0  0
  1 25  1  0
  2 15  1  0
  2 17  2  0
  2 20  1  0
  3  4  1  0
 10  4  1  0
  5 12  1  0
  6  7  1  0
  6 10  1  0
  6 16  1  0
  7  9  1  0
  7 15  1  0
  8  9  1  0
  8 11  1  0
  8 12  1  0
  9 13  1  0
 10 11  1  0
 13 14  1  0
 14 18  2  0
 14 19  1  0
 19 26  2  0
 19 27  1  0
 20 21  2  0
 20 22  1  0
 21 23  1  0
 22 24  2  0
 23 25  2  0
 24 25  1  0
 26 28  1  0
 27 29  2  0
 27 30  1  0
 28 31  2  0
 29 31  1  0
 30 33  2  0
 30 34  1  0
 31 32  1  0
  1 35  1  0
  1 36  1  0
  1 37  1  0
  3 38  1  0
  4 39  1  0
  4 40  1  0
  5 41  1  0
  5 42  1  0
  5 43  1  0
  6 44  1  6
  7 45  1  6
  8 46  1  6
  9 47  1  1
 10 48  1  6
 16 49  1  0
 21 50  1  0
 22 51  1  0
 23 52  1  0
 24 53  1  0
 26 54  1  0
 28 55  1  0
 29 56  1  0
M  CHG  2  30   1  34  -1
M  END
>  <filename_input>  (23) 
7RH3_59O_docked.sdf

>  <pdb_id>  (23) 
7RH3_59O

>  <pose_rank>  (23) 
22

>  <num_atoms_heavy>  (23) 
34

>  <num_torsions>  (23) 
9

>  <pose>  (23) 
[13.673003837981943, -6.8334915282709785, -5.690701901125268, -1.1882518824132693, 0.8900327404321984, -0.216552975544685, 2.222960655899012, -0.2278688184469608, -0.7686763969754461, -0.9990579441561118, -3.6325583595228634, -2.4677424547323588, -0.8175887447656048, -3.8298610065988687, 1.8142782548246188]

>  <energy>  (23) 
-258.6905159334694

>  <inter_energy>  (23) 
-349.6703005896868

>  <intra_energy>  (23) 
93.21715694520312

>  <rmsd>  (23) 
6.65438

>  <sdf_rank>  (23) 
0

$$$$

     RDKit          3D

 56 58  0  0  0  0  0  0  0  0999 V2000
   15.4850  -18.4830   -2.5180 C   0  0  0  0  0  0  0  0  0  0  0  0
   18.1922  -13.4061   -2.0466 C   0  0  0  0  0  0  0  0  0  0  0  0
   19.5141  -15.2747    4.1751 O   0  0  0  0  0  0  0  0  0  0  0  0
   19.4726  -13.9045    3.7969 C   0  0  0  0  0  0  0  0  0  0  0  0
   16.1119  -10.5543    3.7457 C   0  0  0  0  0  0  0  0  0  0  0  0
   18.9903  -13.7536    1.3519 C   0  0  2  0  0  0  0  0  0  0  0  0
   17.9973  -13.3345    0.3143 C   0  0  1  0  0  0  0  0  0  0  0  0
   16.8670  -12.0284    2.0817 C   0  0  1  0  0  0  0  0  0  0  0  0
   17.2498  -12.0345    0.6273 C   0  0  1  0  0  0  0  0  0  0  0  0
   18.4185  -13.6258    2.7525 C   0  0  2  0  0  0  0  0  0  0  0  0
   17.9656  -12.2790    2.9712 O   0  0  0  0  0  0  0  0  0  0  0  0
   16.3384  -10.7610    2.3656 O   0  0  0  0  0  0  0  0  0  0  0  0
   18.1315  -10.8907    0.4342 O   0  0  0  0  0  0  0  0  0  0  0  0
   17.6727   -9.8916   -0.3057 C   0  0  0  0  0  0  0  0  0  0  0  0
   18.7967  -13.2476   -0.8935 O   0  0  0  0  0  0  0  0  0  0  0  0
   20.1646  -12.9477    1.2069 O   0  0  0  0  0  0  0  0  0  0  0  0
   18.2369  -12.5844   -2.8985 O   0  0  0  0  0  0  0  0  0  0  0  0
   16.5445   -9.8783   -0.7829 O   0  0  0  0  0  0  0  0  0  0  0  0
   18.5990   -8.7154   -0.3401 C   0  0  0  0  0  0  0  0  0  0  0  0
   17.4964  -14.7244   -2.1752 C   0  0  0  0  0  0  0  0  0  0  0  0
   16.1133  -14.7759   -2.3624 C   0  0  0  0  0  0  0  0  0  0  0  0
   18.2107  -15.9179   -2.1396 C   0  0  0  0  0  0  0  0  0  0  0  0
   15.4839  -15.9968   -2.4977 C   0  0  0  0  0  0  0  0  0  0  0  0
   17.5431  -17.1131   -2.2647 C   0  0  0  0  0  0  0  0  0  0  0  0
   16.1975  -17.1761   -2.4458 C   0  0  0  0  0  0  0  0  0  0  0  0
   18.2856   -7.6464    0.4982 C   0  0  0  0  0  0  0  0  0  0  0  0
   19.6859   -8.5562   -1.1990 C   0  0  0  0  0  0  0  0  0  0  0  0
   19.0177   -6.4662    0.4613 C   0  0  0  0  0  0  0  0  0  0  0  0
   20.4125   -7.3948   -1.2772 C   0  0  0  0  0  0  0  0  0  0  0  0
   20.0568   -9.6501   -2.1061 N   0  0  0  0  0  0  0  0  0  0  0  0
   20.0631   -6.3609   -0.4278 C   0  0  0  0  0  0  0  0  0  0  0  0
   20.9273   -4.9048   -0.5624 Cl  0  0  0  0  0  0  0  0  0  0  0  0
   20.7604  -10.5624   -1.6143 O   0  0  0  0  0  0  0  0  0  0  0  0
   19.6007   -9.6894   -3.2602 O   0  0  0  0  0  0  0  0  0  0  0  0
   15.2857  -18.8487   -1.4999 H   0  0  0  0  0  0  0  0  0  0  0  0
   14.5332  -18.3526   -3.0537 H   0  0  0  0  0  0  0  0  0  0  0  0
   16.1104  -19.2124   -3.0537 H   0  0  0  0  0  0  0  0  0  0  0  0
   19.5162  -15.3446    5.1626 H   0  0  0  0  0  0  0  0  0  0  0  0
   19.2547  -13.2986    4.6888 H   0  0  0  0  0  0  0  0  0  0  0  0
   20.4501  -13.6473    3.3629 H   0  0  0  0  0  0  0  0  0  0  0  0
   16.8009  -11.1831    4.3286 H   0  0  0  0  0  0  0  0  0  0  0  0
   16.2846   -9.4960    3.9912 H   0  0  0  0  0  0  0  0  0  0  0  0
   15.0738  -10.8229    3.9912 H   0  0  0  0  0  0  0  0  0  0  0  0
   19.2422  -14.8143    1.2057 H   0  0  0  0  0  0  0  0  0  0  0  0
   17.1671  -14.0523    0.2395 H   0  0  0  0  0  0  0  0  0  0  0  0
   16.1454  -12.8425    2.2444 H   0  0  0  0  0  0  0  0  0  0  0  0
   16.3719  -11.9722   -0.0325 H   0  0  0  0  0  0  0  0  0  0  0  0
   17.5949  -14.3500    2.8378 H   0  0  0  0  0  0  0  0  0  0  0  0
   20.5133  -12.7085    2.1020 H   0  0  0  0  0  0  0  0  0  0  0  0
   15.5271  -13.8460   -2.4019 H   0  0  0  0  0  0  0  0  0  0  0  0
   19.3032  -15.9051   -2.0120 H   0  0  0  0  0  0  0  0  0  0  0  0
   14.3949  -16.0299   -2.6494 H   0  0  0  0  0  0  0  0  0  0  0  0
   18.1174  -18.0500   -2.2168 H   0  0  0  0  0  0  0  0  0  0  0  0
   17.4443   -7.7390    1.2008 H   0  0  0  0  0  0  0  0  0  0  0  0
   18.7663   -5.6305    1.1309 H   0  0  0  0  0  0  0  0  0  0  0  0
   21.2435   -7.2899   -1.9903 H   0  0  0  0  0  0  0  0  0  0  0  0
  1 25  1  0
  2 15  1  0
  2 17  2  0
  2 20  1  0
  3  4  1  0
 10  4  1  0
  5 12  1  0
  6  7  1  0
  6 10  1  0
  6 16  1  0
  7  9  1  0
  7 15  1  0
  8  9  1  0
  8 11  1  0
  8 12  1  0
  9 13  1  0
 10 11  1  0
 13 14  1  0
 14 18  2  0
 14 19  1  0
 19 26  2  0
 19 27  1  0
 20 21  2  0
 20 22  1  0
 21 23  1  0
 22 24  2  0
 23 25  2  0
 24 25  1  0
 26 28  1  0
 27 29  2  0
 27 30  1  0
 28 31  2  0
 29 31  1  0
 30 33  2  0
 30 34  1  0
 31 32  1  0
  1 35  1  0
  1 36  1  0
  1 37  1  0
  3 38  1  0
  4 39  1  0
  4 40  1  0
  5 41  1  0
  5 42  1  0
  5 43  1  0
  6 44  1  6
  7 45  1  6
  8 46  1  6
  9 47  1  6
 10 48  1  6
 16 49  1  0
 21 50  1  0
 22 51  1  0
 23 52  1  0
 24 53  1  0
 26 54  1  0
 28 55  1  0
 29 56  1  0
M  CHG  2  30   1  34  -1
M  END
>  <filename_input>  (24) 
7RH3_59O_docked.sdf

>  <pdb_id>  (24) 
7RH3_59O

>  <pose_rank>  (24) 
23

>  <num_atoms_heavy>  (24) 
34

>  <num_torsions>  (24) 
9

>  <pose>  (24) 
[18.99031753850474, -13.753556181036558, 1.3518625777049778, -2.003766038776689, -0.7989270997779792, -2.1849975806372646, 1.538612785935683, 0.3051062463449433, -0.10628989527487286, 0.15099658732462928, 0.05821590587539049, -1.878073852744989, 0.0578899261664871, -4.1360472506320525, -1.054586141664957]

>  <energy>  (24) 
-431.1526584167991

>  <inter_energy>  (24) 
-444.6799696363873

>  <intra_energy>  (24) 
13.230827990244194

>  <rmsd>  (24) 
7.15744

>  <sdf_rank>  (24) 
0

$$$$

     RDKit          3D

 56 58  0  0  0  0  0  0  0  0999 V2000
   17.2979   -7.5758   -9.3533 C   0  0  0  0  0  0  0  0  0  0  0  0
   13.4007   -9.2768   -5.4490 C   0  0  0  0  0  0  0  0  0  0  0  0
   18.4209   -7.7659   -0.7368 O   0  0  0  0  0  0  0  0  0  0  0  0
   17.0780   -8.0935   -1.0708 C   0  0  0  0  0  0  0  0  0  0  0  0
   19.1925  -12.0302   -2.6433 C   0  0  0  0  0  0  0  0  0  0  0  0
   15.5288   -8.7587   -2.9123 C   0  0  2  0  0  0  0  0  0  0  0  0
   15.3811   -9.5467   -4.1754 C   0  0  1  0  0  0  0  0  0  0  0  0
   17.4537  -10.7361   -3.5458 C   0  0  1  0  0  0  0  0  0  0  0  0
   16.0984  -10.9003   -4.1766 C   0  0  1  0  0  0  0  0  0  0  0  0
   16.9653   -8.7602   -2.4207 C   0  0  2  0  0  0  0  0  0  0  0  0
   17.4195  -10.1138   -2.2526 O   0  0  0  0  0  0  0  0  0  0  0  0
   18.0071  -12.0178   -3.4137 O   0  0  0  0  0  0  0  0  0  0  0  0
   15.3747  -11.8515   -3.3434 O   0  0  0  0  0  0  0  0  0  0  0  0
   14.8381  -12.9006   -3.9498 C   0  0  0  0  0  0  0  0  0  0  0  0
   13.9429   -9.6714   -4.3218 O   0  0  0  0  0  0  0  0  0  0  0  0
   14.6534   -9.3154   -1.9258 O   0  0  0  0  0  0  0  0  0  0  0  0
   12.2271   -9.2509   -5.6074 O   0  0  0  0  0  0  0  0  0  0  0  0
   13.7156  -12.8858   -4.4400 O   0  0  0  0  0  0  0  0  0  0  0  0
   15.8059  -14.0287   -4.1335 C   0  0  0  0  0  0  0  0  0  0  0  0
   14.4041   -8.8343   -6.4668 C   0  0  0  0  0  0  0  0  0  0  0  0
   15.5002   -9.6436   -6.7739 C   0  0  0  0  0  0  0  0  0  0  0  0
   14.2529   -7.6288   -7.1448 C   0  0  0  0  0  0  0  0  0  0  0  0
   16.4102   -9.2340   -7.7273 C   0  0  0  0  0  0  0  0  0  0  0  0
   15.1897   -7.2519   -8.0776 C   0  0  0  0  0  0  0  0  0  0  0  0
   16.2613   -8.0301   -8.3839 C   0  0  0  0  0  0  0  0  0  0  0  0
   16.2491  -14.2684   -5.4335 C   0  0  0  0  0  0  0  0  0  0  0  0
   16.2267  -14.9139   -3.1418 C   0  0  0  0  0  0  0  0  0  0  0  0
   17.0608  -15.3573   -5.7261 C   0  0  0  0  0  0  0  0  0  0  0  0
   17.0068  -16.0122   -3.4027 C   0  0  0  0  0  0  0  0  0  0  0  0
   15.7856  -14.7098   -1.7559 N   0  0  0  0  0  0  0  0  0  0  0  0
   17.4201  -16.2103   -4.7075 C   0  0  0  0  0  0  0  0  0  0  0  0
   18.3403  -17.5988   -5.0400 Cl  0  0  0  0  0  0  0  0  0  0  0  0
   14.7447  -15.3158   -1.4115 O   0  0  0  0  0  0  0  0  0  0  0  0
   16.4806  -14.0487   -0.9677 O   0  0  0  0  0  0  0  0  0  0  0  0
   18.1708   -7.1931   -8.8042 H   0  0  0  0  0  0  0  0  0  0  0  0
   17.6045   -8.4220   -9.9857 H   0  0  0  0  0  0  0  0  0  0  0  0
   16.8834   -6.7768   -9.9857 H   0  0  0  0  0  0  0  0  0  0  0  0
   18.5195   -7.7418    0.2480 H   0  0  0  0  0  0  0  0  0  0  0  0
   16.6804   -8.7764   -0.3055 H   0  0  0  0  0  0  0  0  0  0  0  0
   16.5049   -7.1554   -1.1118 H   0  0  0  0  0  0  0  0  0  0  0  0
   18.9348  -12.0275   -1.5739 H   0  0  0  0  0  0  0  0  0  0  0  0
   19.7731  -12.9345   -2.8783 H   0  0  0  0  0  0  0  0  0  0  0  0
   19.7919  -11.1383   -2.8783 H   0  0  0  0  0  0  0  0  0  0  0  0
   15.2588   -7.7099   -3.1051 H   0  0  0  0  0  0  0  0  0  0  0  0
   15.8656   -9.0409   -5.0236 H   0  0  0  0  0  0  0  0  0  0  0  0
   18.0491  -10.0742   -4.1919 H   0  0  0  0  0  0  0  0  0  0  0  0
   16.1651  -11.2561   -5.2154 H   0  0  0  0  0  0  0  0  0  0  0  0
   17.5674   -8.2195   -3.1657 H   0  0  0  0  0  0  0  0  0  0  0  0
   14.9943   -9.0986   -1.0220 H   0  0  0  0  0  0  0  0  0  0  0  0
   15.6378  -10.6050   -6.2573 H   0  0  0  0  0  0  0  0  0  0  0  0
   13.3888   -6.9811   -6.9357 H   0  0  0  0  0  0  0  0  0  0  0  0
   17.2687   -9.8784   -7.9675 H   0  0  0  0  0  0  0  0  0  0  0  0
   15.0681   -6.2881   -8.5935 H   0  0  0  0  0  0  0  0  0  0  0  0
   15.9511  -13.5837   -6.2412 H   0  0  0  0  0  0  0  0  0  0  0  0
   17.4102  -15.5346   -6.7540 H   0  0  0  0  0  0  0  0  0  0  0  0
   17.2933  -16.7103   -2.6024 H   0  0  0  0  0  0  0  0  0  0  0  0
  1 25  1  0
  2 15  1  0
  2 17  2  0
  2 20  1  0
  3  4  1  0
 10  4  1  0
  5 12  1  0
  6  7  1  0
  6 10  1  0
  6 16  1  0
  7  9  1  0
  7 15  1  0
  8  9  1  0
  8 11  1  0
  8 12  1  0
  9 13  1  0
 10 11  1  0
 13 14  1  0
 14 18  2  0
 14 19  1  0
 19 26  2  0
 19 27  1  0
 20 21  2  0
 20 22  1  0
 21 23  1  0
 22 24  2  0
 23 25  2  0
 24 25  1  0
 26 28  1  0
 27 29  2  0
 27 30  1  0
 28 31  2  0
 29 31  1  0
 30 33  2  0
 30 34  1  0
 31 32  1  0
  1 35  1  0
  1 36  1  0
  1 37  1  0
  3 38  1  0
  4 39  1  0
  4 40  1  0
  5 41  1  0
  5 42  1  0
  5 43  1  0
  6 44  1  6
  7 45  1  6
  8 46  1  6
  9 47  1  6
 10 48  1  6
 16 49  1  0
 21 50  1  0
 22 51  1  0
 23 52  1  0
 24 53  1  0
 26 54  1  0
 28 55  1  0
 29 56  1  0
M  CHG  2  30   1  34  -1
M  END
>  <filename_input>  (25) 
7RH3_59O_docked.sdf

>  <pdb_id>  (25) 
7RH3_59O

>  <pose_rank>  (25) 
24

>  <num_atoms_heavy>  (25) 
34

>  <num_torsions>  (25) 
9

>  <pose>  (25) 
[15.528770656336535, -8.758659435846258, -2.91225670282281, 2.60214179466248, -6.397694309304349, -0.802295772765751, 0.2525800848178368, 0.32124854862320107, -0.36882050847936426, -7.705819231561755, -6.367913163752071, 1.1732761675406398, -0.44332787492977554, -3.045143321877849, 4.031809793882773]

>  <energy>  (25) 
-41.83981341092871

>  <inter_energy>  (25) 
-127.29598240072563

>  <intra_energy>  (25) 
85.2628255525411

>  <rmsd>  (25) 
6.51753

>  <sdf_rank>  (25) 
0

$$$$

     RDKit          3D

 56 58  0  0  0  0  0  0  0  0999 V2000
   10.7330   -9.0150    2.0130 C   0  0  0  0  0  0  0  0  0  0  0  0
   15.3930   -8.4370   -1.3450 C   0  0  0  0  0  0  0  0  0  0  0  0
   21.9620   -5.5320   -0.6960 O   0  0  0  0  0  0  0  0  0  0  0  0
   20.6070   -5.6810   -0.2910 C   0  0  0  0  0  0  0  0  0  0  0  0
   21.9430   -9.9570   -2.3360 C   0  0  0  0  0  0  0  0  0  0  0  0
   18.4080   -6.7900   -0.7010 C   0  0  2  0  0  0  0  0  0  0  0  0
   17.6930   -7.8740   -1.4440 C   0  0  1  0  0  0  0  0  0  0  0  0
   19.9080   -8.8690   -1.9030 C   0  0  1  0  0  0  0  0  0  0  0  0
   18.4740   -9.1850   -1.5780 C   0  0  1  0  0  0  0  0  0  0  0  0
   19.8540   -6.6700   -1.1480 C   0  0  2  0  0  0  0  0  0  0  0  0
   20.5160   -7.9370   -0.9960 O   0  0  0  0  0  0  0  0  0  0  0  0
   20.6200  -10.0760   -1.8520 O   0  0  0  0  0  0  0  0  0  0  0  0
   18.4920   -9.8900   -0.3030 O   0  0  0  0  0  0  0  0  0  0  0  0
   18.2690  -11.1960   -0.3310 C   0  0  0  0  0  0  0  0  0  0  0  0
   16.4580   -8.0280   -0.6980 O   0  0  0  0  0  0  0  0  0  0  0  0
   18.3310   -7.0740    0.7000 O   0  0  0  0  0  0  0  0  0  0  0  0
   15.4170   -8.6850   -2.5030 O   0  0  0  0  0  0  0  0  0  0  0  0
   17.9460  -11.7960   -1.3490 O   0  0  0  0  0  0  0  0  0  0  0  0
   18.6300  -11.8790    0.9520 C   0  0  0  0  0  0  0  0  0  0  0  0
   14.1900   -8.5920   -0.4690 C   0  0  0  0  0  0  0  0  0  0  0  0
   12.9700   -9.0000   -1.0130 C   0  0  0  0  0  0  0  0  0  0  0  0
   14.2670   -8.3620    0.9010 C   0  0  0  0  0  0  0  0  0  0  0  0
   11.8710   -9.1570   -0.1930 C   0  0  0  0  0  0  0  0  0  0  0  0
   13.1450   -8.5170    1.6800 C   0  0  0  0  0  0  0  0  0  0  0  0
   11.9520   -8.9120    1.1620 C   0  0  0  0  0  0  0  0  0  0  0  0
   19.8220  -12.6020    0.9630 C   0  0  0  0  0  0  0  0  0  0  0  0
   17.8390  -11.9340    2.0990 C   0  0  0  0  0  0  0  0  0  0  0  0
   20.1920  -13.3600    2.0670 C   0  0  0  0  0  0  0  0  0  0  0  0
   18.1640  -12.6930    3.1950 C   0  0  0  0  0  0  0  0  0  0  0  0
   16.5710  -11.1940    2.1390 N   0  0  0  0  0  0  0  0  0  0  0  0
   19.3550  -13.3950    3.1590 C   0  0  0  0  0  0  0  0  0  0  0  0
   19.7310  -14.3770    4.4930 Cl  0  0  0  0  0  0  0  0  0  0  0  0
   16.0300  -10.9630    1.0330 O   0  0  0  0  0  0  0  0  0  0  0  0
   16.0420  -10.9150    3.2270 O   0  0  0  0  0  0  0  0  0  0  0  0
   11.0232   -8.9905    3.0738 H   0  0  0  0  0  0  0  0  0  0  0  0
   10.0624   -8.1703    1.7967 H   0  0  0  0  0  0  0  0  0  0  0  0
   10.2136   -9.9602    1.7967 H   0  0  0  0  0  0  0  0  0  0  0  0
   22.5407   -5.4684    0.1047 H   0  0  0  0  0  0  0  0  0  0  0  0
   20.5867   -6.0303    0.7519 H   0  0  0  0  0  0  0  0  0  0  0  0
   20.1159   -4.7026   -0.3988 H   0  0  0  0  0  0  0  0  0  0  0  0
   22.6397   -9.8943   -1.4871 H   0  0  0  0  0  0  0  0  0  0  0  0
   22.1898  -10.8366   -2.9487 H   0  0  0  0  0  0  0  0  0  0  0  0
   22.0289   -9.0475   -2.9487 H   0  0  0  0  0  0  0  0  0  0  0  0
   17.9267   -5.8245   -0.9156 H   0  0  0  0  0  0  0  0  0  0  0  0
   17.5370   -7.6028   -2.4986 H   0  0  0  0  0  0  0  0  0  0  0  0
   19.9330   -8.3957   -2.8956 H   0  0  0  0  0  0  0  0  0  0  0  0
   17.9966   -9.7944   -2.3595 H   0  0  0  0  0  0  0  0  0  0  0  0
   19.8466   -6.3390   -2.1970 H   0  0  0  0  0  0  0  0  0  0  0  0
   18.5523   -6.2578    1.2148 H   0  0  0  0  0  0  0  0  0  0  0  0
   12.8853   -9.1957   -2.0921 H   0  0  0  0  0  0  0  0  0  0  0  0
   15.2202   -8.0579    1.3582 H   0  0  0  0  0  0  0  0  0  0  0  0
   10.9144   -9.4830   -0.6273 H   0  0  0  0  0  0  0  0  0  0  0  0
   13.2150   -8.3145    2.7589 H   0  0  0  0  0  0  0  0  0  0  0  0
   20.4808  -12.5718    0.0826 H   0  0  0  0  0  0  0  0  0  0  0  0
   21.1374  -13.9223    2.0683 H   0  0  0  0  0  0  0  0  0  0  0  0
   17.5007  -12.7414    4.0712 H   0  0  0  0  0  0  0  0  0  0  0  0
  1 25  1  0
  2 15  1  0
  2 17  2  0
  2 20  1  0
  3  4  1  0
 10  4  1  0
  5 12  1  0
  6  7  1  0
  6 10  1  0
  6 16  1  0
  7  9  1  0
  7 15  1  0
  8  9  1  0
  8 11  1  0
  8 12  1  0
  9 13  1  0
 10 11  1  0
 13 14  1  0
 14 18  2  0
 14 19  1  0
 19 26  2  0
 19 27  1  0
 20 21  2  0
 20 22  1  0
 21 23  1  0
 22 24  2  0
 23 25  2  0
 24 25  1  0
 26 28  1  0
 27 29  2  0
 27 30  1  0
 28 31  2  0
 29 31  1  0
 30 33  2  0
 30 34  1  0
 31 32  1  0
  1 35  1  0
  1 36  1  0
  1 37  1  0
  3 38  1  0
  4 39  1  0
  4 40  1  0
  5 41  1  0
  5 42  1  0
  5 43  1  0
  6 44  1  1
  7 45  1  6
  8 46  1  6
  9 47  1  6
 10 48  1  6
 16 49  1  0
 21 50  1  0
 22 51  1  0
 23 52  1  0
 24 53  1  0
 26 54  1  0
 28 55  1  0
 29 56  1  0
M  CHG  2  30   1  34  -1
M  END
>  <filename_input>  (26) 
7RH3_59O_docked.sdf

>  <pdb_id>  (26) 
7RH3_59O

>  <pose_rank>  (26) 
25

>  <num_atoms_heavy>  (26) 
34

>  <num_torsions>  (26) 
9

>  <pose>  (26) 
[18.408, -6.79, -0.701, 1e-06, 1e-06, 1e-06, 0.0, 0.0, 0.0, 0.0, 0.0, 0.0, 0.0, 0.0, 0.0]

>  <energy>  (26) 
-851.8559266614109

>  <inter_energy>  (26) 
-928.5638926789927

>  <intra_energy>  (26) 
58.504482550646884

>  <rmsd>  (26) 
0.0

>  <sdf_rank>  (26) 
0

$$$$
