
     RDKit          3D

 38 40  0  0  0  0  0  0  0  0999 V2000
   17.4998   -7.7484   16.7387 C   0  0  0  0  0  0  0  0  0  0  0  0
   20.2794   -7.5485   18.6963 C   0  0  0  0  0  0  0  0  0  0  0  0
   14.9708  -10.1446   14.6428 F   0  0  0  0  0  0  0  0  0  0  0  0
   15.8437   -9.3165   15.2261 C   0  0  0  0  0  0  0  0  0  0  0  0
   16.5709   -8.3449   14.5815 C   0  0  0  0  0  0  0  0  0  0  0  0
   17.4228   -7.5708   15.3616 C   0  0  0  0  0  0  0  0  0  0  0  0
   16.6927   -8.7116   17.3206 C   0  0  0  0  0  0  0  0  0  0  0  0
   15.8815   -9.5033   16.5776 C   0  0  0  0  0  0  0  0  0  0  0  0
   18.3383   -6.9428   17.7111 C   0  0  2  0  0  0  0  0  0  0  0  0
   18.9555   -7.7390   18.5195 O   0  0  0  0  0  0  0  0  0  0  0  0
   20.9164   -6.7647   18.0291 O   0  0  0  0  0  0  0  0  0  0  0  0
   20.8780   -8.4301   19.7213 C   0  0  0  0  0  0  0  0  0  0  0  0
   20.1024   -9.2205   20.5407 C   0  0  0  0  0  0  0  0  0  0  0  0
   20.7105  -10.0834   21.4457 C   0  0  0  0  0  0  0  0  0  0  0  0
   19.7465  -11.0558   22.5011 Cl  0  0  0  0  0  0  0  0  0  0  0  0
   22.0742  -10.1415   21.6103 C   0  0  0  0  0  0  0  0  0  0  0  0
   22.8137   -9.3277   20.8246 C   0  0  0  0  0  0  0  0  0  0  0  0
   22.2446   -8.5015   19.8779 C   0  0  0  0  0  0  0  0  0  0  0  0
   24.5267   -9.4271   20.9797 Cl  0  0  0  0  0  0  0  0  0  0  0  0
   17.3379   -5.9704   18.3196 C   0  0  0  0  0  0  0  0  0  0  0  0
   18.0347   -4.6867   18.6345 N   0  0  0  0  0  0  0  0  0  0  0  0
   18.4334   -4.1883   19.8765 C   0  0  0  0  0  0  0  0  0  0  0  0
   19.0315   -3.0008   19.7940 N   0  0  0  0  0  0  0  0  0  0  0  0
   19.0345   -2.7400   18.4253 C   0  0  0  0  0  0  0  0  0  0  0  0
   18.4363   -3.7703   17.7053 C   0  0  0  0  0  0  0  0  0  0  0  0
   16.4830   -8.1866   13.4965 H   0  0  0  0  0  0  0  0  0  0  0  0
   18.0474   -6.8037   14.8805 H   0  0  0  0  0  0  0  0  0  0  0  0
   16.7105   -8.8372   18.4133 H   0  0  0  0  0  0  0  0  0  0  0  0
   15.2662  -10.2806   17.0540 H   0  0  0  0  0  0  0  0  0  0  0  0
   19.1679   -6.3663   17.2760 H   0  0  0  0  0  0  0  0  0  0  0  0
   19.0053   -9.1692   20.4793 H   0  0  0  0  0  0  0  0  0  0  0  0
   22.5397  -10.8161   22.3441 H   0  0  0  0  0  0  0  0  0  0  0  0
   22.8942   -7.8883   19.2360 H   0  0  0  0  0  0  0  0  0  0  0  0
   16.5245   -5.7821   17.6034 H   0  0  0  0  0  0  0  0  0  0  0  0
   16.9167   -6.3995   19.2407 H   0  0  0  0  0  0  0  0  0  0  0  0
   18.2704   -4.7211   20.8250 H   0  0  0  0  0  0  0  0  0  0  0  0
   19.4572   -1.8322   17.9700 H   0  0  0  0  0  0  0  0  0  0  0  0
   18.3128   -3.8333   16.6141 H   0  0  0  0  0  0  0  0  0  0  0  0
  1  6  2  0
  1  7  1  0
  1  9  1  0
  2 10  1  0
  2 11  2  0
  2 12  1  0
  3  4  1  0
  4  5  2  0
  4  8  1  0
  5  6  1  0
  7  8  2  0
  9 10  1  0
  9 20  1  0
 12 13  2  0
 12 18  1  0
 13 14  1  0
 14 15  1  0
 14 16  2  0
 16 17  1  0
 17 18  2  0
 17 19  1  0
 20 21  1  0
 21 22  1  0
 21 25  1  0
 22 23  2  0
 23 24  1  0
 24 25  2  0
  5 26  1  0
  6 27  1  0
  7 28  1  0
  8 29  1  0
  9 30  1  6
 13 31  1  0
 16 32  1  0
 18 33  1  0
 20 34  1  0
 20 35  1  0
 22 36  1  0
 24 37  1  0
 25 38  1  0
M  END
>  <filename_input>  (1) 
7RKW_5TV_docked.sdf

>  <pdb_id>  (1) 
7RKW_5TV

>  <pose_rank>  (1) 
0

>  <num_atoms_heavy>  (1) 
25

>  <num_torsions>  (1) 
6

>  <pose>  (1) 
[18.338254301615574, -6.942786801753446, 17.71105042606103, -5.662912267099482, -2.065995132915881, -1.554878492474168, 0.17783337590836368, -6.014902267990132, -0.05581598405436759, -6.622057980784355, 0.4470501516303765, -0.046203392392424825]

>  <energy>  (1) 
-917.3735591339911

>  <inter_energy>  (1) 
-897.0551405846551

>  <intra_energy>  (1) 
0.11664507777466007

>  <rmsd>  (1) 
0.468733

>  <sdf_rank>  (1) 
0

$$$$

     RDKit          3D

 38 40  0  0  0  0  0  0  0  0999 V2000
   17.4605   -7.7088   16.7440 C   0  0  0  0  0  0  0  0  0  0  0  0
   20.1745   -7.3015   18.8487 C   0  0  0  0  0  0  0  0  0  0  0  0
   15.5920   -9.7406   13.7589 F   0  0  0  0  0  0  0  0  0  0  0  0
   16.1355   -9.1316   14.8180 C   0  0  0  0  0  0  0  0  0  0  0  0
   15.9226   -9.4782   16.1306 C   0  0  0  0  0  0  0  0  0  0  0  0
   16.5875   -8.7319   17.0973 C   0  0  0  0  0  0  0  0  0  0  0  0
   17.6640   -7.4577   15.3974 C   0  0  0  0  0  0  0  0  0  0  0  0
   17.0001   -8.1466   14.4373 C   0  0  0  0  0  0  0  0  0  0  0  0
   18.2883   -6.8577   17.6863 C   0  0  2  0  0  0  0  0  0  0  0  0
   18.9001   -7.6148   18.5354 O   0  0  0  0  0  0  0  0  0  0  0  0
   20.7353   -6.3322   18.3895 O   0  0  0  0  0  0  0  0  0  0  0  0
   20.8295   -8.2839   19.7385 C   0  0  0  0  0  0  0  0  0  0  0  0
   22.1999   -8.4159   19.7893 C   0  0  0  0  0  0  0  0  0  0  0  0
   22.7755   -9.3066   20.6887 C   0  0  0  0  0  0  0  0  0  0  0  0
   24.4923   -9.5036   20.7379 Cl  0  0  0  0  0  0  0  0  0  0  0  0
   22.0268  -10.1241   21.5017 C   0  0  0  0  0  0  0  0  0  0  0  0
   20.6837  -10.0068   21.4060 C   0  0  0  0  0  0  0  0  0  0  0  0
   20.0823   -9.0935   20.5652 C   0  0  0  0  0  0  0  0  0  0  0  0
   19.7311  -10.9851   22.4566 Cl  0  0  0  0  0  0  0  0  0  0  0  0
   17.2802   -5.8615   18.2412 C   0  0  0  0  0  0  0  0  0  0  0  0
   17.9922   -4.6004   18.6092 N   0  0  0  0  0  0  0  0  0  0  0  0
   18.3710   -3.5367   17.7875 C   0  0  0  0  0  0  0  0  0  0  0  0
   18.9975   -2.5647   18.4489 N   0  0  0  0  0  0  0  0  0  0  0  0
   18.9972   -3.0231   19.7647 C   0  0  0  0  0  0  0  0  0  0  0  0
   18.3749   -4.2633   19.8758 C   0  0  0  0  0  0  0  0  0  0  0  0
   15.2558  -10.3092   16.4044 H   0  0  0  0  0  0  0  0  0  0  0  0
   16.4198   -8.9551   18.1613 H   0  0  0  0  0  0  0  0  0  0  0  0
   18.3823   -6.6797   15.0995 H   0  0  0  0  0  0  0  0  0  0  0  0
   17.1551   -7.9165   13.3729 H   0  0  0  0  0  0  0  0  0  0  0  0
   19.1205   -6.2993   17.2329 H   0  0  0  0  0  0  0  0  0  0  0  0
   22.8368   -7.8185   19.1204 H   0  0  0  0  0  0  0  0  0  0  0  0
   22.4968  -10.8373   22.1949 H   0  0  0  0  0  0  0  0  0  0  0  0
   18.9855   -9.0103   20.5546 H   0  0  0  0  0  0  0  0  0  0  0  0
   16.5178   -5.6451   17.4784 H   0  0  0  0  0  0  0  0  0  0  0  0
   16.7916   -6.2848   19.1312 H   0  0  0  0  0  0  0  0  0  0  0  0
   18.1726   -3.5048   16.7060 H   0  0  0  0  0  0  0  0  0  0  0  0
   19.4345   -2.4730   20.6109 H   0  0  0  0  0  0  0  0  0  0  0  0
   18.2229   -4.8502   20.7937 H   0  0  0  0  0  0  0  0  0  0  0  0
  1  6  2  0
  1  7  1  0
  1  9  1  0
  2 10  1  0
  2 11  2  0
  2 12  1  0
  3  4  1  0
  4  5  2  0
  4  8  1  0
  5  6  1  0
  7  8  2  0
  9 10  1  0
  9 20  1  0
 12 13  2  0
 12 18  1  0
 13 14  1  0
 14 15  1  0
 14 16  2  0
 16 17  1  0
 17 18  2  0
 17 19  1  0
 20 21  1  0
 21 22  1  0
 21 25  1  0
 22 23  2  0
 23 24  1  0
 24 25  2  0
  5 26  1  0
  6 27  1  0
  7 28  1  0
  8 29  1  0
  9 30  1  6
 13 31  1  0
 16 32  1  0
 18 33  1  0
 20 34  1  0
 20 35  1  0
 22 36  1  0
 24 37  1  0
 25 38  1  0
M  END
>  <filename_input>  (2) 
7RKW_5TV_docked.sdf

>  <pdb_id>  (2) 
7RKW_5TV

>  <pose_rank>  (2) 
1

>  <num_atoms_heavy>  (2) 
25

>  <num_torsions>  (2) 
6

>  <pose>  (2) 
[18.288296186778485, -6.857705430004847, 17.686296158597873, -2.1421016811013804, -3.148248396024806, -4.971250933991321, -2.9285548443527465, 0.41916998997241034, 0.11323757900812312, 2.54906425278411, -5.916704302674553, -3.062048897820887]

>  <energy>  (2) 
-868.8447333556567

>  <inter_energy>  (2) 
-860.6318336768117

>  <intra_energy>  (2) 
4.590864994371406

>  <rmsd>  (2) 
0.919677

>  <sdf_rank>  (2) 
0

$$$$

     RDKit          3D

 38 40  0  0  0  0  0  0  0  0999 V2000
   20.7941   -8.4649   20.0829 C   0  0  0  0  0  0  0  0  0  0  0  0
   17.4159   -7.7369   19.1874 C   0  0  0  0  0  0  0  0  0  0  0  0
   24.3200  -10.3034   20.9301 F   0  0  0  0  0  0  0  0  0  0  0  0
   23.1052   -9.7979   20.6923 C   0  0  0  0  0  0  0  0  0  0  0  0
   21.9185  -10.3473   21.1146 C   0  0  0  0  0  0  0  0  0  0  0  0
   20.7525   -9.6681   20.7789 C   0  0  0  0  0  0  0  0  0  0  0  0
   22.0328   -7.9485   19.7416 C   0  0  0  0  0  0  0  0  0  0  0  0
   23.1815   -8.6096   20.0253 C   0  0  0  0  0  0  0  0  0  0  0  0
   19.6114   -7.5963   19.7028 C   0  0  2  0  0  0  0  0  0  0  0  0
   18.6049   -8.3422   19.3878 O   0  0  0  0  0  0  0  0  0  0  0  0
   16.7606   -7.2785   20.0960 O   0  0  0  0  0  0  0  0  0  0  0  0
   16.9675   -7.7529   17.7786 C   0  0  0  0  0  0  0  0  0  0  0  0
   16.6134   -8.9229   17.1433 C   0  0  0  0  0  0  0  0  0  0  0  0
   16.1347   -8.8832   15.8384 C   0  0  0  0  0  0  0  0  0  0  0  0
   15.7183  -10.3484   15.0209 Cl  0  0  0  0  0  0  0  0  0  0  0  0
   16.0554   -7.7170   15.1149 C   0  0  0  0  0  0  0  0  0  0  0  0
   16.4466   -6.5867   15.7442 C   0  0  0  0  0  0  0  0  0  0  0  0
   16.8727   -6.5841   17.0562 C   0  0  0  0  0  0  0  0  0  0  0  0
   16.3026   -5.1088   14.8705 Cl  0  0  0  0  0  0  0  0  0  0  0  0
   20.1731   -6.6892   18.6173 C   0  0  0  0  0  0  0  0  0  0  0  0
   19.5918   -5.3217   18.7750 N   0  0  0  0  0  0  0  0  0  0  0  0
   19.2580   -4.6419   19.9481 C   0  0  0  0  0  0  0  0  0  0  0  0
   18.7541   -3.4295   19.7225 N   0  0  0  0  0  0  0  0  0  0  0  0
   18.7904   -3.3228   18.3337 C   0  0  0  0  0  0  0  0  0  0  0  0
   19.3114   -4.4712   17.7443 C   0  0  0  0  0  0  0  0  0  0  0  0
   21.8922  -11.2828   21.6926 H   0  0  0  0  0  0  0  0  0  0  0  0
   19.7792  -10.0905   21.0692 H   0  0  0  0  0  0  0  0  0  0  0  0
   22.0859   -6.9775   19.2274 H   0  0  0  0  0  0  0  0  0  0  0  0
   24.1556   -8.1968   19.7240 H   0  0  0  0  0  0  0  0  0  0  0  0
   19.1923   -6.9683   20.5028 H   0  0  0  0  0  0  0  0  0  0  0  0
   16.7091   -9.8857   17.6667 H   0  0  0  0  0  0  0  0  0  0  0  0
   15.6921   -7.7043   14.0766 H   0  0  0  0  0  0  0  0  0  0  0  0
   17.1418   -5.6307   17.5344 H   0  0  0  0  0  0  0  0  0  0  0  0
   21.2679   -6.6373   18.7104 H   0  0  0  0  0  0  0  0  0  0  0  0
   19.9129   -7.0909   17.6269 H   0  0  0  0  0  0  0  0  0  0  0  0
   19.3967   -5.0638   20.9544 H   0  0  0  0  0  0  0  0  0  0  0  0
   18.4497   -2.4402   17.7725 H   0  0  0  0  0  0  0  0  0  0  0  0
   19.4652   -4.6554   16.6708 H   0  0  0  0  0  0  0  0  0  0  0  0
  1  6  2  0
  1  7  1  0
  1  9  1  0
  2 10  1  0
  2 11  2  0
  2 12  1  0
  3  4  1  0
  4  5  2  0
  4  8  1  0
  5  6  1  0
  7  8  2  0
  9 10  1  0
  9 20  1  0
 12 13  2  0
 12 18  1  0
 13 14  1  0
 14 15  1  0
 14 16  2  0
 16 17  1  0
 17 18  2  0
 17 19  1  0
 20 21  1  0
 21 22  1  0
 21 25  1  0
 22 23  2  0
 23 24  1  0
 24 25  2  0
  5 26  1  0
  6 27  1  0
  7 28  1  0
  8 29  1  0
  9 30  1  1
 13 31  1  0
 16 32  1  0
 18 33  1  0
 20 34  1  0
 20 35  1  0
 22 36  1  0
 24 37  1  0
 25 38  1  0
M  END
>  <filename_input>  (3) 
7RKW_5TV_docked.sdf

>  <pdb_id>  (3) 
7RKW_5TV

>  <pose_rank>  (3) 
2

>  <num_atoms_heavy>  (3) 
25

>  <num_torsions>  (3) 
6

>  <pose>  (3) 
[19.61142664389772, -7.596319677052869, 19.70282637108909, 0.12998905914343378, 3.7368824832901137, -0.12826191739191994, -4.413217181069959, 0.9822323494239577, -1.1788877590712163, 0.9944012084956148, -5.745083054947797, -3.8829566479641313]

>  <energy>  (3) 
-850.8958295889631

>  <inter_energy>  (3) 
-845.2123823427704

>  <intra_energy>  (3) 
18.835857526720247

>  <rmsd>  (3) 
6.2065

>  <sdf_rank>  (3) 
0

$$$$

     RDKit          3D

 38 40  0  0  0  0  0  0  0  0999 V2000
   17.8261   -8.2093   17.1858 C   0  0  0  0  0  0  0  0  0  0  0  0
   19.7820   -8.6980   19.9139 C   0  0  0  0  0  0  0  0  0  0  0  0
   15.4328   -9.7763   14.2966 F   0  0  0  0  0  0  0  0  0  0  0  0
   16.1214   -9.2517   15.3157 C   0  0  0  0  0  0  0  0  0  0  0  0
   15.6361   -9.0559   16.5863 C   0  0  0  0  0  0  0  0  0  0  0  0
   16.5090   -8.5063   17.5188 C   0  0  0  0  0  0  0  0  0  0  0  0
   18.2547   -8.4881   15.8988 C   0  0  0  0  0  0  0  0  0  0  0  0
   17.4133   -8.9894   14.9619 C   0  0  0  0  0  0  0  0  0  0  0  0
   18.8942   -7.6629   18.1121 C   0  0  2  0  0  0  0  0  0  0  0  0
   19.6073   -8.6342   18.5776 O   0  0  0  0  0  0  0  0  0  0  0  0
   18.8523   -8.7502   20.6874 O   0  0  0  0  0  0  0  0  0  0  0  0
   21.1973   -8.6267   20.3353 C   0  0  0  0  0  0  0  0  0  0  0  0
   21.8486   -7.4225   20.4893 C   0  0  0  0  0  0  0  0  0  0  0  0
   23.1600   -7.4001   20.9509 C   0  0  0  0  0  0  0  0  0  0  0  0
   23.9971   -5.8967   21.1167 Cl  0  0  0  0  0  0  0  0  0  0  0  0
   23.8739   -8.5470   21.2062 C   0  0  0  0  0  0  0  0  0  0  0  0
   23.2284   -9.7180   21.0093 C   0  0  0  0  0  0  0  0  0  0  0  0
   21.9102   -9.7736   20.6064 C   0  0  0  0  0  0  0  0  0  0  0  0
   24.0905  -11.1637   21.3764 Cl  0  0  0  0  0  0  0  0  0  0  0  0
   18.1030   -6.8364   19.1158 C   0  0  0  0  0  0  0  0  0  0  0  0
   18.4701   -5.3964   18.9595 N   0  0  0  0  0  0  0  0  0  0  0  0
   19.0719   -4.7590   17.8726 C   0  0  0  0  0  0  0  0  0  0  0  0
   19.2607   -3.4554   18.0720 N   0  0  0  0  0  0  0  0  0  0  0  0
   18.7303   -3.2475   19.3435 C   0  0  0  0  0  0  0  0  0  0  0  0
   18.2339   -4.4270   19.8916 C   0  0  0  0  0  0  0  0  0  0  0  0
   14.6028   -9.3220   16.8539 H   0  0  0  0  0  0  0  0  0  0  0  0
   16.1512   -8.3028   18.5388 H   0  0  0  0  0  0  0  0  0  0  0  0
   19.3043   -8.2980   15.6301 H   0  0  0  0  0  0  0  0  0  0  0  0
   17.7644   -9.1810   13.9372 H   0  0  0  0  0  0  0  0  0  0  0  0
   19.6558   -7.0181   17.6493 H   0  0  0  0  0  0  0  0  0  0  0  0
   21.3327   -6.4815   20.2477 H   0  0  0  0  0  0  0  0  0  0  0  0
   24.9172   -8.5133   21.5531 H   0  0  0  0  0  0  0  0  0  0  0  0
   21.4193  -10.7521   20.4996 H   0  0  0  0  0  0  0  0  0  0  0  0
   17.0262   -6.9643   18.9312 H   0  0  0  0  0  0  0  0  0  0  0  0
   18.3369   -7.1701   20.1376 H   0  0  0  0  0  0  0  0  0  0  0  0
   19.3603   -5.2795   16.9474 H   0  0  0  0  0  0  0  0  0  0  0  0
   18.7066   -2.2721   19.8515 H   0  0  0  0  0  0  0  0  0  0  0  0
   17.7515   -4.5520   20.8722 H   0  0  0  0  0  0  0  0  0  0  0  0
  1  6  2  0
  1  7  1  0
  1  9  1  0
  2 10  1  0
  2 11  2  0
  2 12  1  0
  3  4  1  0
  4  5  2  0
  4  8  1  0
  5  6  1  0
  7  8  2  0
  9 10  1  0
  9 20  1  0
 12 13  2  0
 12 18  1  0
 13 14  1  0
 14 15  1  0
 14 16  2  0
 16 17  1  0
 17 18  2  0
 17 19  1  0
 20 21  1  0
 21 22  1  0
 21 25  1  0
 22 23  2  0
 23 24  1  0
 24 25  2  0
  5 26  1  0
  6 27  1  0
  7 28  1  0
  8 29  1  0
  9 30  1  6
 13 31  1  0
 16 32  1  0
 18 33  1  0
 20 34  1  0
 20 35  1  0
 22 36  1  0
 24 37  1  0
 25 38  1  0
M  END
>  <filename_input>  (4) 
7RKW_5TV_docked.sdf

>  <pdb_id>  (4) 
7RKW_5TV

>  <pose_rank>  (4) 
3

>  <num_atoms_heavy>  (4) 
25

>  <num_torsions>  (4) 
6

>  <pose>  (4) 
[18.894200401542975, -7.6629387110823295, 18.112133575943332, 0.28188587807946514, 0.22565153274503774, -0.03219762629424572, 4.182892745238361, 2.019771811225331, 1.0729796750295444, 1.2827125487207176, 1.0207910816167463, 2.1258957162080585]

>  <energy>  (4) 
-819.0102658356217

>  <inter_energy>  (4) 
-842.49356473457

>  <intra_energy>  (4) 
30.936648673138226

>  <rmsd>  (4) 
2.03651

>  <sdf_rank>  (4) 
0

$$$$

     RDKit          3D

 38 40  0  0  0  0  0  0  0  0999 V2000
   18.8072   -6.5302   18.7174 C   0  0  0  0  0  0  0  0  0  0  0  0
   19.9740   -8.7617   19.9654 C   0  0  0  0  0  0  0  0  0  0  0  0
   18.7666   -2.5782   19.6719 F   0  0  0  0  0  0  0  0  0  0  0  0
   18.7318   -3.8991   19.4665 C   0  0  0  0  0  0  0  0  0  0  0  0
   18.0902   -4.8120   20.2686 C   0  0  0  0  0  0  0  0  0  0  0  0
   18.1558   -6.1469   19.8847 C   0  0  0  0  0  0  0  0  0  0  0  0
   19.3813   -5.5432   17.9339 C   0  0  0  0  0  0  0  0  0  0  0  0
   19.3626   -4.2398   18.3051 C   0  0  0  0  0  0  0  0  0  0  0  0
   18.9067   -7.9338   18.1540 C   0  0  2  0  0  0  0  0  0  0  0  0
   19.9481   -8.5258   18.6373 O   0  0  0  0  0  0  0  0  0  0  0  0
   18.9655   -8.8314   20.6312 O   0  0  0  0  0  0  0  0  0  0  0  0
   21.3377   -8.8539   20.5292 C   0  0  0  0  0  0  0  0  0  0  0  0
   22.1685   -7.7573   20.6012 C   0  0  0  0  0  0  0  0  0  0  0  0
   23.4183   -7.8753   21.1992 C   0  0  0  0  0  0  0  0  0  0  0  0
   24.4815   -6.5138   21.2658 Cl  0  0  0  0  0  0  0  0  0  0  0  0
   23.9005   -9.0715   21.6752 C   0  0  0  0  0  0  0  0  0  0  0  0
   23.0848  -10.1427   21.5572 C   0  0  0  0  0  0  0  0  0  0  0  0
   21.8176  -10.0478   21.0206 C   0  0  0  0  0  0  0  0  0  0  0  0
   23.6516  -11.6383   22.1976 Cl  0  0  0  0  0  0  0  0  0  0  0  0
   18.8661   -7.7144   16.6484 C   0  0  0  0  0  0  0  0  0  0  0  0
   17.6543   -8.3868   16.0897 N   0  0  0  0  0  0  0  0  0  0  0  0
   16.7920   -9.2937   16.7092 C   0  0  0  0  0  0  0  0  0  0  0  0
   15.8051   -9.7018   15.9128 N   0  0  0  0  0  0  0  0  0  0  0  0
   16.0381   -9.0003   14.7317 C   0  0  0  0  0  0  0  0  0  0  0  0
   17.1614   -8.1843   14.8326 C   0  0  0  0  0  0  0  0  0  0  0  0
   17.5489   -4.5006   21.1741 H   0  0  0  0  0  0  0  0  0  0  0  0
   17.6835   -6.9139   20.5161 H   0  0  0  0  0  0  0  0  0  0  0  0
   19.8647   -5.8241   16.9865 H   0  0  0  0  0  0  0  0  0  0  0  0
   19.8460   -3.4721   17.6830 H   0  0  0  0  0  0  0  0  0  0  0  0
   18.0982   -8.6268   18.4296 H   0  0  0  0  0  0  0  0  0  0  0  0
   21.8442   -6.7913   20.1868 H   0  0  0  0  0  0  0  0  0  0  0  0
   24.8993   -9.1527   22.1288 H   0  0  0  0  0  0  0  0  0  0  0  0
   21.1784  -10.9423   20.9844 H   0  0  0  0  0  0  0  0  0  0  0  0
   18.8212   -6.6364   16.4342 H   0  0  0  0  0  0  0  0  0  0  0  0
   19.7708   -8.1374   16.1873 H   0  0  0  0  0  0  0  0  0  0  0  0
   16.9148   -9.6358   17.7474 H   0  0  0  0  0  0  0  0  0  0  0  0
   15.4119   -9.0812   13.8309 H   0  0  0  0  0  0  0  0  0  0  0  0
   17.5676   -7.5151   14.0598 H   0  0  0  0  0  0  0  0  0  0  0  0
  1  6  2  0
  1  7  1  0
  1  9  1  0
  2 10  1  0
  2 11  2  0
  2 12  1  0
  3  4  1  0
  4  5  2  0
  4  8  1  0
  5  6  1  0
  7  8  2  0
  9 10  1  0
  9 20  1  0
 12 13  2  0
 12 18  1  0
 13 14  1  0
 14 15  1  0
 14 16  2  0
 16 17  1  0
 17 18  2  0
 17 19  1  0
 20 21  1  0
 21 22  1  0
 21 25  1  0
 22 23  2  0
 23 24  1  0
 24 25  2  0
  5 26  1  0
  6 27  1  0
  7 28  1  0
  8 29  1  0
  9 30  1  1
 13 31  1  0
 16 32  1  0
 18 33  1  0
 20 34  1  0
 20 35  1  0
 22 36  1  0
 24 37  1  0
 25 38  1  0
M  END
>  <filename_input>  (5) 
7RKW_5TV_docked.sdf

>  <pdb_id>  (5) 
7RKW_5TV

>  <pose_rank>  (5) 
4

>  <num_atoms_heavy>  (5) 
25

>  <num_torsions>  (5) 
6

>  <pose>  (5) 
[18.906706065306505, -7.9338122060346175, 18.15399949444812, -1.8898458642693474, 1.6393281142733271, -1.5250140047315892, 0.9597980296133926, -0.8903381773679914, 0.4855063778139392, 1.0079649327018572, 0.9652411704445794, 1.5831939024036037]

>  <energy>  (5) 
-741.5339893689026

>  <inter_energy>  (5) 
-761.3918735831022

>  <intra_energy>  (5) 
36.84458705251039

>  <rmsd>  (5) 
4.79658

>  <sdf_rank>  (5) 
0

$$$$

     RDKit          3D

 38 40  0  0  0  0  0  0  0  0999 V2000
   21.8428   -8.8123   20.4057 C   0  0  0  0  0  0  0  0  0  0  0  0
   19.0016   -7.9310   18.4263 C   0  0  0  0  0  0  0  0  0  0  0  0
   25.6766   -9.0493   21.7384 F   0  0  0  0  0  0  0  0  0  0  0  0
   24.4160   -8.8563   21.3362 C   0  0  0  0  0  0  0  0  0  0  0  0
   23.7816   -7.6395   21.2645 C   0  0  0  0  0  0  0  0  0  0  0  0
   22.4677   -7.6374   20.8091 C   0  0  0  0  0  0  0  0  0  0  0  0
   22.5688   -9.9905   20.4556 C   0  0  0  0  0  0  0  0  0  0  0  0
   23.8381  -10.0240   20.9298 C   0  0  0  0  0  0  0  0  0  0  0  0
   20.4431   -8.9463   19.8396 C   0  0  2  0  0  0  0  0  0  0  0  0
   20.2375   -8.0233   18.9596 O   0  0  0  0  0  0  0  0  0  0  0  0
   18.3505   -8.9063   18.1265 O   0  0  0  0  0  0  0  0  0  0  0  0
   18.5586   -6.5416   18.1828 C   0  0  0  0  0  0  0  0  0  0  0  0
   18.0140   -6.1546   16.9780 C   0  0  0  0  0  0  0  0  0  0  0  0
   17.5502   -4.8538   16.8153 C   0  0  0  0  0  0  0  0  0  0  0  0
   16.8950   -4.3487   15.2974 Cl  0  0  0  0  0  0  0  0  0  0  0  0
   17.6685   -3.8983   17.7966 C   0  0  0  0  0  0  0  0  0  0  0  0
   18.2429   -4.2893   18.9558 C   0  0  0  0  0  0  0  0  0  0  0  0
   18.6619   -5.5861   19.1694 C   0  0  0  0  0  0  0  0  0  0  0  0
   18.3497   -3.1190   20.2156 Cl  0  0  0  0  0  0  0  0  0  0  0  0
   19.5582   -8.9375   21.0780 C   0  0  0  0  0  0  0  0  0  0  0  0
   19.4065  -10.3369   21.5794 N   0  0  0  0  0  0  0  0  0  0  0  0
   20.3867  -11.2036   22.0670 C   0  0  0  0  0  0  0  0  0  0  0  0
   19.9002  -12.3897   22.4294 N   0  0  0  0  0  0  0  0  0  0  0  0
   18.5350  -12.2634   22.1809 C   0  0  0  0  0  0  0  0  0  0  0  0
   18.2204  -11.0072   21.6704 C   0  0  0  0  0  0  0  0  0  0  0  0
   24.2905   -6.7083   21.5545 H   0  0  0  0  0  0  0  0  0  0  0  0
   21.9124   -6.6888   20.7673 H   0  0  0  0  0  0  0  0  0  0  0  0
   22.1039  -10.9224   20.1015 H   0  0  0  0  0  0  0  0  0  0  0  0
   24.3912  -10.9732   20.9860 H   0  0  0  0  0  0  0  0  0  0  0  0
   20.2359   -9.8622   19.2667 H   0  0  0  0  0  0  0  0  0  0  0  0
   17.9463   -6.8723   16.1472 H   0  0  0  0  0  0  0  0  0  0  0  0
   17.3136   -2.8680   17.6460 H   0  0  0  0  0  0  0  0  0  0  0  0
   19.0865   -5.8623   20.1458 H   0  0  0  0  0  0  0  0  0  0  0  0
   20.0215   -8.3149   21.8576 H   0  0  0  0  0  0  0  0  0  0  0  0
   18.5704   -8.5249   20.8252 H   0  0  0  0  0  0  0  0  0  0  0  0
   21.4506  -10.9348   22.1441 H   0  0  0  0  0  0  0  0  0  0  0  0
   17.7972  -13.0582   22.3653 H   0  0  0  0  0  0  0  0  0  0  0  0
   17.2231  -10.6322   21.3971 H   0  0  0  0  0  0  0  0  0  0  0  0
  1  6  2  0
  1  7  1  0
  1  9  1  0
  2 10  1  0
  2 11  2  0
  2 12  1  0
  3  4  1  0
  4  5  2  0
  4  8  1  0
  5  6  1  0
  7  8  2  0
  9 10  1  0
  9 20  1  0
 12 13  2  0
 12 18  1  0
 13 14  1  0
 14 15  1  0
 14 16  2  0
 16 17  1  0
 17 18  2  0
 17 19  1  0
 20 21  1  0
 21 22  1  0
 21 25  1  0
 22 23  2  0
 23 24  1  0
 24 25  2  0
  5 26  1  0
  6 27  1  0
  7 28  1  0
  8 29  1  0
  9 30  1  6
 13 31  1  0
 16 32  1  0
 18 33  1  0
 20 34  1  0
 20 35  1  0
 22 36  1  0
 24 37  1  0
 25 38  1  0
M  END
>  <filename_input>  (6) 
7RKW_5TV_docked.sdf

>  <pdb_id>  (6) 
7RKW_5TV

>  <pose_rank>  (6) 
5

>  <num_atoms_heavy>  (6) 
25

>  <num_torsions>  (6) 
6

>  <pose>  (6) 
[20.443059014081282, -8.946283054121329, 19.839600045916615, -1.789462961750933, 1.1305176568893271, 1.9111598009942017, -2.9901311539453777, 1.21323306495224, -0.62320914733829, 2.111031358484648, 1.4746055244741867, 2.889606514842]

>  <energy>  (6) 
-665.3985565307089

>  <inter_energy>  (6) 
-696.8048316576424

>  <intra_energy>  (6) 
37.737395209564475

>  <rmsd>  (6) 
7.42478

>  <sdf_rank>  (6) 
0

$$$$

     RDKit          3D

 38 40  0  0  0  0  0  0  0  0999 V2000
   19.3502   -6.0799   18.7253 C   0  0  0  0  0  0  0  0  0  0  0  0
   18.2635   -8.8888   17.6686 C   0  0  0  0  0  0  0  0  0  0  0  0
   19.1452   -2.3132   17.2087 F   0  0  0  0  0  0  0  0  0  0  0  0
   19.2032   -3.5025   17.8170 C   0  0  0  0  0  0  0  0  0  0  0  0
   18.9524   -3.7274   19.1493 C   0  0  0  0  0  0  0  0  0  0  0  0
   19.0515   -5.0396   19.5985 C   0  0  0  0  0  0  0  0  0  0  0  0
   19.5344   -5.7782   17.3864 C   0  0  0  0  0  0  0  0  0  0  0  0
   19.4792   -4.5030   16.9306 C   0  0  0  0  0  0  0  0  0  0  0  0
   19.4339   -7.5543   19.0669 C   0  0  2  0  0  0  0  0  0  0  0  0
   18.3138   -8.1325   18.7847 O   0  0  0  0  0  0  0  0  0  0  0  0
   18.8556   -9.9400   17.5707 O   0  0  0  0  0  0  0  0  0  0  0  0
   17.4837   -8.2805   16.5696 C   0  0  0  0  0  0  0  0  0  0  0  0
   17.5361   -6.9297   16.3042 C   0  0  0  0  0  0  0  0  0  0  0  0
   16.8375   -6.4109   15.2196 C   0  0  0  0  0  0  0  0  0  0  0  0
   16.8704   -4.7129   14.8969 Cl  0  0  0  0  0  0  0  0  0  0  0  0
   16.0302   -7.1856   14.4208 C   0  0  0  0  0  0  0  0  0  0  0  0
   15.9616   -8.5009   14.7244 C   0  0  0  0  0  0  0  0  0  0  0  0
   16.6860   -9.0568   15.7583 C   0  0  0  0  0  0  0  0  0  0  0  0
   14.9973   -9.4959   13.7005 Cl  0  0  0  0  0  0  0  0  0  0  0  0
   19.8705   -7.5554   20.5250 C   0  0  0  0  0  0  0  0  0  0  0  0
   21.1457   -8.3239   20.6520 N   0  0  0  0  0  0  0  0  0  0  0  0
   22.4405   -7.9365   20.3009 C   0  0  0  0  0  0  0  0  0  0  0  0
   23.3512   -8.8766   20.5489 N   0  0  0  0  0  0  0  0  0  0  0  0
   22.6000   -9.9081   21.1085 C   0  0  0  0  0  0  0  0  0  0  0  0
   21.2503   -9.5762   21.1861 C   0  0  0  0  0  0  0  0  0  0  0  0
   18.6851   -2.9058   19.8301 H   0  0  0  0  0  0  0  0  0  0  0  0
   18.8908   -5.2589   20.6643 H   0  0  0  0  0  0  0  0  0  0  0  0
   19.7305   -6.5939   16.6749 H   0  0  0  0  0  0  0  0  0  0  0  0
   19.6533   -4.2788   15.8678 H   0  0  0  0  0  0  0  0  0  0  0  0
   20.1537   -8.1482   18.4845 H   0  0  0  0  0  0  0  0  0  0  0  0
   18.1288   -6.2635   16.9483 H   0  0  0  0  0  0  0  0  0  0  0  0
   15.4689   -6.7570   13.5775 H   0  0  0  0  0  0  0  0  0  0  0  0
   16.6255  -10.1403   15.9383 H   0  0  0  0  0  0  0  0  0  0  0  0
   20.0286   -6.5207   20.8631 H   0  0  0  0  0  0  0  0  0  0  0  0
   19.0919   -8.0237   21.1450 H   0  0  0  0  0  0  0  0  0  0  0  0
   22.6834   -6.9563   19.8647 H   0  0  0  0  0  0  0  0  0  0  0  0
   23.0213  -10.8661   21.4471 H   0  0  0  0  0  0  0  0  0  0  0  0
   20.4368  -10.1945   21.5934 H   0  0  0  0  0  0  0  0  0  0  0  0
  1  6  2  0
  1  7  1  0
  1  9  1  0
  2 10  1  0
  2 11  2  0
  2 12  1  0
  3  4  1  0
  4  5  2  0
  4  8  1  0
  5  6  1  0
  7  8  2  0
  9 10  1  0
  9 20  1  0
 12 13  2  0
 12 18  1  0
 13 14  1  0
 14 15  1  0
 14 16  2  0
 16 17  1  0
 17 18  2  0
 17 19  1  0
 20 21  1  0
 21 22  1  0
 21 25  1  0
 22 23  2  0
 23 24  1  0
 24 25  2  0
  5 26  1  0
  6 27  1  0
  7 28  1  0
  8 29  1  0
  9 30  1  6
 13 31  1  0
 16 32  1  0
 18 33  1  0
 20 34  1  0
 20 35  1  0
 22 36  1  0
 24 37  1  0
 25 38  1  0
M  END
>  <filename_input>  (7) 
7RKW_5TV_docked.sdf

>  <pdb_id>  (7) 
7RKW_5TV

>  <pose_rank>  (7) 
6

>  <num_atoms_heavy>  (7) 
25

>  <num_torsions>  (7) 
6

>  <pose>  (7) 
[19.433917325006448, -7.554303623060923, 19.06688231086116, 1.1199553381245249, 0.07162926546015469, -1.6639557051896163, -8.37044161463441, -12.768551164013267, 1.288646390584613, -5.784728441362126, 0.8846805127787789, -3.172030434381371]

>  <energy>  (7) 
-642.1268096826518

>  <inter_energy>  (7) 
-738.2753299407051

>  <intra_energy>  (7) 
96.86400088400569

>  <rmsd>  (7) 
6.45269

>  <sdf_rank>  (7) 
0

$$$$

     RDKit          3D

 38 40  0  0  0  0  0  0  0  0999 V2000
   17.5315   -7.7949   16.6006 C   0  0  0  0  0  0  0  0  0  0  0  0
   20.1471   -7.2255   18.8946 C   0  0  0  0  0  0  0  0  0  0  0  0
   15.3363   -9.6191   13.7051 F   0  0  0  0  0  0  0  0  0  0  0  0
   16.0433   -9.1186   14.7238 C   0  0  0  0  0  0  0  0  0  0  0  0
   16.4648   -9.8272   15.8232 C   0  0  0  0  0  0  0  0  0  0  0  0
   17.2023   -9.1344   16.7770 C   0  0  0  0  0  0  0  0  0  0  0  0
   17.1164   -7.1663   15.4386 C   0  0  0  0  0  0  0  0  0  0  0  0
   16.3657   -7.8096   14.5113 C   0  0  0  0  0  0  0  0  0  0  0  0
   18.3715   -6.9383   17.5270 C   0  0  2  0  0  0  0  0  0  0  0  0
   18.9924   -7.6902   18.3742 O   0  0  0  0  0  0  0  0  0  0  0  0
   20.6006   -6.1422   18.6016 O   0  0  0  0  0  0  0  0  0  0  0  0
   20.8282   -8.1859   19.7890 C   0  0  0  0  0  0  0  0  0  0  0  0
   22.1996   -8.2106   19.9173 C   0  0  0  0  0  0  0  0  0  0  0  0
   22.7936   -9.0861   20.8195 C   0  0  0  0  0  0  0  0  0  0  0  0
   24.5151   -9.1481   20.9648 Cl  0  0  0  0  0  0  0  0  0  0  0  0
   22.0688   -9.9906   21.5588 C   0  0  0  0  0  0  0  0  0  0  0  0
   20.7283   -9.9767   21.3868 C   0  0  0  0  0  0  0  0  0  0  0  0
   20.1035   -9.0828   20.5422 C   0  0  0  0  0  0  0  0  0  0  0  0
   19.8002  -11.0665   22.3456 Cl  0  0  0  0  0  0  0  0  0  0  0  0
   17.3714   -5.9368   18.0867 C   0  0  0  0  0  0  0  0  0  0  0  0
   16.5630   -6.5992   19.1547 N   0  0  0  0  0  0  0  0  0  0  0  0
   16.9455   -6.9529   20.4502 C   0  0  0  0  0  0  0  0  0  0  0  0
   15.9673   -7.5356   21.1418 N   0  0  0  0  0  0  0  0  0  0  0  0
   14.8989   -7.5318   20.2473 C   0  0  0  0  0  0  0  0  0  0  0  0
   15.2495   -6.9513   19.0316 C   0  0  0  0  0  0  0  0  0  0  0  0
   16.2294  -10.8949   15.9433 H   0  0  0  0  0  0  0  0  0  0  0  0
   17.5314   -9.6557   17.6880 H   0  0  0  0  0  0  0  0  0  0  0  0
   17.4031   -6.1189   15.2637 H   0  0  0  0  0  0  0  0  0  0  0  0
   16.0232   -7.2871   13.6059 H   0  0  0  0  0  0  0  0  0  0  0  0
   19.1990   -6.3842   17.0598 H   0  0  0  0  0  0  0  0  0  0  0  0
   22.8229   -7.5397   19.3078 H   0  0  0  0  0  0  0  0  0  0  0  0
   22.5551  -10.6900   22.2549 H   0  0  0  0  0  0  0  0  0  0  0  0
   19.0059   -9.0865   20.4688 H   0  0  0  0  0  0  0  0  0  0  0  0
   17.9096   -5.0768   18.5119 H   0  0  0  0  0  0  0  0  0  0  0  0
   16.7076   -5.5864   17.2826 H   0  0  0  0  0  0  0  0  0  0  0  0
   17.9507   -6.7694   20.8577 H   0  0  0  0  0  0  0  0  0  0  0  0
   13.9018   -7.9374   20.4737 H   0  0  0  0  0  0  0  0  0  0  0  0
   14.6026   -6.8063   18.1539 H   0  0  0  0  0  0  0  0  0  0  0  0
  1  6  2  0
  1  7  1  0
  1  9  1  0
  2 10  1  0
  2 11  2  0
  2 12  1  0
  3  4  1  0
  4  5  2  0
  4  8  1  0
  5  6  1  0
  7  8  2  0
  9 10  1  0
  9 20  1  0
 12 13  2  0
 12 18  1  0
 13 14  1  0
 14 15  1  0
 14 16  2  0
 16 17  1  0
 17 18  2  0
 17 19  1  0
 20 21  1  0
 21 22  1  0
 21 25  1  0
 22 23  2  0
 23 24  1  0
 24 25  2  0
  5 26  1  0
  6 27  1  0
  7 28  1  0
  8 29  1  0
  9 30  1  6
 13 31  1  0
 16 32  1  0
 18 33  1  0
 20 34  1  0
 20 35  1  0
 22 36  1  0
 24 37  1  0
 25 38  1  0
M  END
>  <filename_input>  (8) 
7RKW_5TV_docked.sdf

>  <pdb_id>  (8) 
7RKW_5TV

>  <pose_rank>  (8) 
7

>  <num_atoms_heavy>  (8) 
25

>  <num_torsions>  (8) 
6

>  <pose>  (8) 
[18.371494310926696, -6.938290180312645, 17.526982052175754, -0.055684758142659045, -5.170110245115398, -3.521835280738679, -3.5277880513040856, 0.6686954750723109, 0.0910542098078364, 2.424452723023488, -1.9014748273438187, 3.06828421735164]

>  <energy>  (8) 
-734.2176549296657

>  <inter_energy>  (8) 
-751.1912936605675

>  <intra_energy>  (8) 
20.405593674156577

>  <rmsd>  (8) 
2.09776

>  <sdf_rank>  (8) 
0

$$$$

     RDKit          3D

 38 40  0  0  0  0  0  0  0  0999 V2000
   21.4928   -8.9192   20.2883 C   0  0  0  0  0  0  0  0  0  0  0  0
   19.7244   -7.3292   17.6421 C   0  0  0  0  0  0  0  0  0  0  0  0
   24.0082  -11.4890   22.1854 F   0  0  0  0  0  0  0  0  0  0  0  0
   23.2789  -10.5853   21.5226 C   0  0  0  0  0  0  0  0  0  0  0  0
   23.7739   -9.6594   20.6359 C   0  0  0  0  0  0  0  0  0  0  0  0
   22.8552   -8.8072   20.0333 C   0  0  0  0  0  0  0  0  0  0  0  0
   21.0682   -9.9149   21.1519 C   0  0  0  0  0  0  0  0  0  0  0  0
   21.9468  -10.7341   21.7798 C   0  0  0  0  0  0  0  0  0  0  0  0
   20.3829   -8.0985   19.6621 C   0  0  2  0  0  0  0  0  0  0  0  0
   20.4205   -8.2214   18.3768 O   0  0  0  0  0  0  0  0  0  0  0  0
   20.1629   -6.2358   17.3641 O   0  0  0  0  0  0  0  0  0  0  0  0
   18.3665   -7.7861   17.2771 C   0  0  0  0  0  0  0  0  0  0  0  0
   17.4344   -8.1266   18.2326 C   0  0  0  0  0  0  0  0  0  0  0  0
   16.1485   -8.4878   17.8459 C   0  0  0  0  0  0  0  0  0  0  0  0
   14.9809   -8.9482   19.0348 Cl  0  0  0  0  0  0  0  0  0  0  0  0
   15.7725   -8.5846   16.5271 C   0  0  0  0  0  0  0  0  0  0  0  0
   16.7150   -8.2854   15.6057 C   0  0  0  0  0  0  0  0  0  0  0  0
   17.9824   -7.8694   15.9570 C   0  0  0  0  0  0  0  0  0  0  0  0
   16.2450   -8.3491   13.9494 Cl  0  0  0  0  0  0  0  0  0  0  0  0
   20.6056   -6.7063   20.2355 C   0  0  0  0  0  0  0  0  0  0  0  0
   19.2905   -6.0043   20.3373 N   0  0  0  0  0  0  0  0  0  0  0  0
   18.9467   -4.7215   19.9059 C   0  0  0  0  0  0  0  0  0  0  0  0
   17.6769   -4.4089   20.1600 N   0  0  0  0  0  0  0  0  0  0  0  0
   17.1798   -5.5618   20.7643 C   0  0  0  0  0  0  0  0  0  0  0  0
   18.1563   -6.5485   20.8681 C   0  0  0  0  0  0  0  0  0  0  0  0
   24.8491   -9.5954   20.4129 H   0  0  0  0  0  0  0  0  0  0  0  0
   23.2128   -8.0299   19.3419 H   0  0  0  0  0  0  0  0  0  0  0  0
   19.9909  -10.0444   21.3329 H   0  0  0  0  0  0  0  0  0  0  0  0
   21.5934  -11.5031   22.4823 H   0  0  0  0  0  0  0  0  0  0  0  0
   19.3549   -8.4134   19.8945 H   0  0  0  0  0  0  0  0  0  0  0  0
   17.7066   -8.1129   19.2983 H   0  0  0  0  0  0  0  0  0  0  0  0
   14.7565   -8.8900   16.2366 H   0  0  0  0  0  0  0  0  0  0  0  0
   18.6998   -7.5992   15.1681 H   0  0  0  0  0  0  0  0  0  0  0  0
   21.0583   -6.7874   21.2348 H   0  0  0  0  0  0  0  0  0  0  0  0
   21.2797   -6.1377   19.5780 H   0  0  0  0  0  0  0  0  0  0  0  0
   19.6516   -4.0395   19.4077 H   0  0  0  0  0  0  0  0  0  0  0  0
   16.1440   -5.6780   21.1158 H   0  0  0  0  0  0  0  0  0  0  0  0
   18.0385   -7.5575   21.2902 H   0  0  0  0  0  0  0  0  0  0  0  0
  1  6  2  0
  1  7  1  0
  1  9  1  0
  2 10  1  0
  2 11  2  0
  2 12  1  0
  3  4  1  0
  4  5  2  0
  4  8  1  0
  5  6  1  0
  7  8  2  0
  9 10  1  0
  9 20  1  0
 12 13  2  0
 12 18  1  0
 13 14  1  0
 14 15  1  0
 14 16  2  0
 16 17  1  0
 17 18  2  0
 17 19  1  0
 20 21  1  0
 21 22  1  0
 21 25  1  0
 22 23  2  0
 23 24  1  0
 24 25  2  0
  5 26  1  0
  6 27  1  0
  7 28  1  0
  8 29  1  0
  9 30  1  1
 13 31  1  0
 16 32  1  0
 18 33  1  0
 20 34  1  0
 20 35  1  0
 22 36  1  0
 24 37  1  0
 25 38  1  0
M  END
>  <filename_input>  (9) 
7RKW_5TV_docked.sdf

>  <pdb_id>  (9) 
7RKW_5TV

>  <pose_rank>  (9) 
8

>  <num_atoms_heavy>  (9) 
25

>  <num_torsions>  (9) 
6

>  <pose>  (9) 
[20.38288144950699, -8.098486965416432, 19.662102698462874, -0.8158818195306685, 2.5580149606678977, 0.9704634261444514, -2.765949534984258, -4.888503217264884, 1.524671805519319, 7.1242240900318174, 0.4033636532535374, -0.4992282263143949]

>  <energy>  (9) 
-667.762193113895

>  <inter_energy>  (9) 
-722.3862493986285

>  <intra_energy>  (9) 
60.97844844347175

>  <rmsd>  (9) 
6.17243

>  <sdf_rank>  (9) 
0

$$$$

     RDKit          3D

 38 40  0  0  0  0  0  0  0  0999 V2000
   21.4066   -9.2803   20.3520 C   0  0  0  0  0  0  0  0  0  0  0  0
   20.7378   -7.2277   17.9289 C   0  0  0  0  0  0  0  0  0  0  0  0
   24.8555  -10.8990   21.7715 F   0  0  0  0  0  0  0  0  0  0  0  0
   23.6623  -10.4526   21.3654 C   0  0  0  0  0  0  0  0  0  0  0  0
   22.4480  -10.8725   21.8528 C   0  0  0  0  0  0  0  0  0  0  0  0
   21.3113  -10.2814   21.3124 C   0  0  0  0  0  0  0  0  0  0  0  0
   22.6689   -8.8736   19.9534 C   0  0  0  0  0  0  0  0  0  0  0  0
   23.7909   -9.4594   20.4381 C   0  0  0  0  0  0  0  0  0  0  0  0
   20.2590   -8.5158   19.7226 C   0  0  2  0  0  0  0  0  0  0  0  0
   20.6851   -7.3843   19.2679 O   0  0  0  0  0  0  0  0  0  0  0  0
   21.7673   -6.9706   17.3464 O   0  0  0  0  0  0  0  0  0  0  0  0
   19.4215   -7.3292   17.2634 C   0  0  0  0  0  0  0  0  0  0  0  0
   18.7513   -8.5284   17.1604 C   0  0  0  0  0  0  0  0  0  0  0  0
   17.4861   -8.5658   16.5849 C   0  0  0  0  0  0  0  0  0  0  0  0
   16.6502  -10.0701   16.4213 Cl  0  0  0  0  0  0  0  0  0  0  0  0
   16.8856   -7.4528   16.0457 C   0  0  0  0  0  0  0  0  0  0  0  0
   17.5787   -6.2949   16.1213 C   0  0  0  0  0  0  0  0  0  0  0  0
   18.8109   -6.2129   16.7359 C   0  0  0  0  0  0  0  0  0  0  0  0
   16.8178   -4.8799   15.4992 Cl  0  0  0  0  0  0  0  0  0  0  0  0
   19.2137   -8.4732   20.8281 C   0  0  0  0  0  0  0  0  0  0  0  0
   18.3921   -7.2345   20.6755 N   0  0  0  0  0  0  0  0  0  0  0  0
   18.8175   -5.9087   20.5710 C   0  0  0  0  0  0  0  0  0  0  0  0
   17.8098   -5.0460   20.4483 N   0  0  0  0  0  0  0  0  0  0  0  0
   16.6847   -5.8679   20.4517 C   0  0  0  0  0  0  0  0  0  0  0  0
   17.0302   -7.2103   20.5795 C   0  0  0  0  0  0  0  0  0  0  0  0
   22.3784  -11.6421   22.6356 H   0  0  0  0  0  0  0  0  0  0  0  0
   20.3182  -10.6119   21.6510 H   0  0  0  0  0  0  0  0  0  0  0  0
   22.7633   -8.0545   19.2251 H   0  0  0  0  0  0  0  0  0  0  0  0
   24.7849   -9.1408   20.0912 H   0  0  0  0  0  0  0  0  0  0  0  0
   19.8057   -8.9684   18.8283 H   0  0  0  0  0  0  0  0  0  0  0  0
   19.2157   -9.4536   17.5323 H   0  0  0  0  0  0  0  0  0  0  0  0
   15.8918   -7.5020   15.5767 H   0  0  0  0  0  0  0  0  0  0  0  0
   19.3153   -5.2379   16.8061 H   0  0  0  0  0  0  0  0  0  0  0  0
   18.5639   -9.3578   20.7552 H   0  0  0  0  0  0  0  0  0  0  0  0
   19.7113   -8.4697   21.8092 H   0  0  0  0  0  0  0  0  0  0  0  0
   19.8754   -5.6076   20.5882 H   0  0  0  0  0  0  0  0  0  0  0  0
   15.6512   -5.5014   20.3642 H   0  0  0  0  0  0  0  0  0  0  0  0
   16.3477   -8.0728   20.5992 H   0  0  0  0  0  0  0  0  0  0  0  0
  1  6  2  0
  1  7  1  0
  1  9  1  0
  2 10  1  0
  2 11  2  0
  2 12  1  0
  3  4  1  0
  4  5  2  0
  4  8  1  0
  5  6  1  0
  7  8  2  0
  9 10  1  0
  9 20  1  0
 12 13  2  0
 12 18  1  0
 13 14  1  0
 14 15  1  0
 14 16  2  0
 16 17  1  0
 17 18  2  0
 17 19  1  0
 20 21  1  0
 21 22  1  0
 21 25  1  0
 22 23  2  0
 23 24  1  0
 24 25  2  0
  5 26  1  0
  6 27  1  0
  7 28  1  0
  8 29  1  0
  9 30  1  6
 13 31  1  0
 16 32  1  0
 18 33  1  0
 20 34  1  0
 20 35  1  0
 22 36  1  0
 24 37  1  0
 25 38  1  0
M  END
>  <filename_input>  (10) 
7RKW_5TV_docked.sdf

>  <pdb_id>  (10) 
7RKW_5TV

>  <pose_rank>  (10) 
9

>  <num_atoms_heavy>  (10) 
25

>  <num_torsions>  (10) 
6

>  <pose>  (10) 
[20.25897749527311, -8.515808742624024, 19.722586089140787, 2.321008798817685, -1.7658666056378791, -2.8292796251639074, -7.312823183467078, -0.09655007982993641, 4.249598114863703, -1.4141304641477626, 5.647085604357682, 7.143523868499669]

>  <energy>  (10) 
-686.1980239640109

>  <inter_energy>  (10) 
-744.64158708902

>  <intra_energy>  (10) 
59.32317867099794

>  <rmsd>  (10) 
6.21339

>  <sdf_rank>  (10) 
0

$$$$

     RDKit          3D

 38 40  0  0  0  0  0  0  0  0999 V2000
   21.1070   -8.2398   19.7248 C   0  0  0  0  0  0  0  0  0  0  0  0
   19.4379   -6.2802   17.3493 C   0  0  0  0  0  0  0  0  0  0  0  0
   24.5306   -9.9722   21.0695 F   0  0  0  0  0  0  0  0  0  0  0  0
   23.4048   -9.3365   20.7282 C   0  0  0  0  0  0  0  0  0  0  0  0
   22.8851   -8.2388   21.3711 C   0  0  0  0  0  0  0  0  0  0  0  0
   21.7062   -7.7066   20.8607 C   0  0  0  0  0  0  0  0  0  0  0  0
   21.7233   -9.3120   19.1016 C   0  0  0  0  0  0  0  0  0  0  0  0
   22.8525   -9.8714   19.6006 C   0  0  0  0  0  0  0  0  0  0  0  0
   19.8596   -7.7274   19.0326 C   0  0  2  0  0  0  0  0  0  0  0  0
   20.1589   -7.3053   17.8491 O   0  0  0  0  0  0  0  0  0  0  0  0
   19.6878   -5.1247   17.6089 O   0  0  0  0  0  0  0  0  0  0  0  0
   18.2874   -6.7058   16.5240 C   0  0  0  0  0  0  0  0  0  0  0  0
   17.5293   -5.8004   15.8144 C   0  0  0  0  0  0  0  0  0  0  0  0
   16.4974   -6.2519   14.9991 C   0  0  0  0  0  0  0  0  0  0  0  0
   15.5193   -5.1222   14.1298 Cl  0  0  0  0  0  0  0  0  0  0  0  0
   16.1489   -7.5791   14.9137 C   0  0  0  0  0  0  0  0  0  0  0  0
   16.8800   -8.4452   15.6500 C   0  0  0  0  0  0  0  0  0  0  0  0
   17.9456   -8.0364   16.4247 C   0  0  0  0  0  0  0  0  0  0  0  0
   16.4917  -10.1181   15.5128 Cl  0  0  0  0  0  0  0  0  0  0  0  0
   19.3029   -6.7077   20.0159 C   0  0  0  0  0  0  0  0  0  0  0  0
   17.9184   -7.1118   20.4066 N   0  0  0  0  0  0  0  0  0  0  0  0
   17.5154   -8.1104   21.2955 C   0  0  0  0  0  0  0  0  0  0  0  0
   16.1913   -8.2049   21.4078 N   0  0  0  0  0  0  0  0  0  0  0  0
   15.7274   -7.1982   20.5636 C   0  0  0  0  0  0  0  0  0  0  0  0
   16.7764   -6.5159   19.9538 C   0  0  0  0  0  0  0  0  0  0  0  0
   23.3798   -7.8006   22.2505 H   0  0  0  0  0  0  0  0  0  0  0  0
   21.2390   -6.8478   21.3649 H   0  0  0  0  0  0  0  0  0  0  0  0
   21.2854   -9.7199   18.1787 H   0  0  0  0  0  0  0  0  0  0  0  0
   23.3145  -10.7390   19.1067 H   0  0  0  0  0  0  0  0  0  0  0  0
   19.0794   -8.4736   18.8215 H   0  0  0  0  0  0  0  0  0  0  0  0
   17.7397   -4.7236   15.8925 H   0  0  0  0  0  0  0  0  0  0  0  0
   15.3175   -7.9187   14.2785 H   0  0  0  0  0  0  0  0  0  0  0  0
   18.5334   -8.7870   16.9733 H   0  0  0  0  0  0  0  0  0  0  0  0
   19.9423   -6.6710   20.9103 H   0  0  0  0  0  0  0  0  0  0  0  0
   19.2805   -5.7133   19.5462 H   0  0  0  0  0  0  0  0  0  0  0  0
   18.2186   -8.7526   21.8461 H   0  0  0  0  0  0  0  0  0  0  0  0
   14.6637   -6.9708   20.3992 H   0  0  0  0  0  0  0  0  0  0  0  0
   16.7009   -5.6717   19.2526 H   0  0  0  0  0  0  0  0  0  0  0  0
  1  6  2  0
  1  7  1  0
  1  9  1  0
  2 10  1  0
  2 11  2  0
  2 12  1  0
  3  4  1  0
  4  5  2  0
  4  8  1  0
  5  6  1  0
  7  8  2  0
  9 10  1  0
  9 20  1  0
 12 13  2  0
 12 18  1  0
 13 14  1  0
 14 15  1  0
 14 16  2  0
 16 17  1  0
 17 18  2  0
 17 19  1  0
 20 21  1  0
 21 22  1  0
 21 25  1  0
 22 23  2  0
 23 24  1  0
 24 25  2  0
  5 26  1  0
  6 27  1  0
  7 28  1  0
  8 29  1  0
  9 30  1  6
 13 31  1  0
 16 32  1  0
 18 33  1  0
 20 34  1  0
 20 35  1  0
 22 36  1  0
 24 37  1  0
 25 38  1  0
M  END
>  <filename_input>  (11) 
7RKW_5TV_docked.sdf

>  <pdb_id>  (11) 
7RKW_5TV

>  <pose_rank>  (11) 
10

>  <num_atoms_heavy>  (11) 
25

>  <num_torsions>  (11) 
6

>  <pose>  (11) 
[19.85962123337295, -7.72744150026219, 19.03263952987416, 1.7878898915710684, -2.5811300970913575, -1.7479724746262288, -1.7585209535218012, -4.602345972193624, 1.5385409759619488, -3.1971278195005786, 0.9036857113508626, 3.1289586504302416]

>  <energy>  (11) 
-726.6144419655016

>  <inter_energy>  (11) 
-745.8407369984149

>  <intra_energy>  (11) 
25.563140125458848

>  <rmsd>  (11) 
6.5481

>  <sdf_rank>  (11) 
0

$$$$

     RDKit          3D

 38 40  0  0  0  0  0  0  0  0999 V2000
   18.4927   -5.8117   18.3778 C   0  0  0  0  0  0  0  0  0  0  0  0
   19.4187   -8.9351   18.9528 C   0  0  0  0  0  0  0  0  0  0  0  0
   19.6012   -1.9936   19.2282 F   0  0  0  0  0  0  0  0  0  0  0  0
   19.2587   -3.2241   18.8327 C   0  0  0  0  0  0  0  0  0  0  0  0
   19.4575   -3.7391   17.5743 C   0  0  0  0  0  0  0  0  0  0  0  0
   19.0438   -5.0484   17.3544 C   0  0  0  0  0  0  0  0  0  0  0  0
   18.3772   -5.2382   19.6330 C   0  0  0  0  0  0  0  0  0  0  0  0
   18.7392   -3.9525   19.8634 C   0  0  0  0  0  0  0  0  0  0  0  0
   18.0534   -7.2600   18.2927 C   0  0  2  0  0  0  0  0  0  0  0  0
   18.5726   -7.9319   19.2660 O   0  0  0  0  0  0  0  0  0  0  0  0
   19.3255   -9.5639   17.9227 O   0  0  0  0  0  0  0  0  0  0  0  0
   20.4105   -9.2315   20.0085 C   0  0  0  0  0  0  0  0  0  0  0  0
   21.7595   -9.0321   19.8131 C   0  0  0  0  0  0  0  0  0  0  0  0
   22.6502   -9.2618   20.8559 C   0  0  0  0  0  0  0  0  0  0  0  0
   24.3480   -9.0459   20.6117 Cl  0  0  0  0  0  0  0  0  0  0  0  0
   22.2491   -9.7484   22.0775 C   0  0  0  0  0  0  0  0  0  0  0  0
   20.9260   -9.9754   22.2336 C   0  0  0  0  0  0  0  0  0  0  0  0
   20.0099   -9.7046   21.2385 C   0  0  0  0  0  0  0  0  0  0  0  0
   20.3995  -10.5337   23.7761 Cl  0  0  0  0  0  0  0  0  0  0  0  0
   18.4451   -7.6660   16.8790 C   0  0  0  0  0  0  0  0  0  0  0  0
   17.2121   -8.0250   16.1151 N   0  0  0  0  0  0  0  0  0  0  0  0
   16.5952   -7.3316   15.0718 C   0  0  0  0  0  0  0  0  0  0  0  0
   15.5003   -7.9396   14.6174 N   0  0  0  0  0  0  0  0  0  0  0  0
   15.4295   -9.0924   15.3969 C   0  0  0  0  0  0  0  0  0  0  0  0
   16.4783   -9.1599   16.3097 C   0  0  0  0  0  0  0  0  0  0  0  0
   19.9232   -3.1421   16.7763 H   0  0  0  0  0  0  0  0  0  0  0  0
   19.1546   -5.4884   16.3524 H   0  0  0  0  0  0  0  0  0  0  0  0
   17.9818   -5.8411   20.4637 H   0  0  0  0  0  0  0  0  0  0  0  0
   18.6168   -3.5053   20.8609 H   0  0  0  0  0  0  0  0  0  0  0  0
   16.9785   -7.4507   18.4275 H   0  0  0  0  0  0  0  0  0  0  0  0
   22.1310   -8.6922   18.8351 H   0  0  0  0  0  0  0  0  0  0  0  0
   22.9684   -9.9429   22.8867 H   0  0  0  0  0  0  0  0  0  0  0  0
   18.9394   -9.8695   21.4308 H   0  0  0  0  0  0  0  0  0  0  0  0
   18.9550   -6.8272   16.3826 H   0  0  0  0  0  0  0  0  0  0  0  0
   19.1236   -8.5310   16.9160 H   0  0  0  0  0  0  0  0  0  0  0  0
   16.9740   -6.3815   14.6670 H   0  0  0  0  0  0  0  0  0  0  0  0
   14.6421   -9.8547   15.3027 H   0  0  0  0  0  0  0  0  0  0  0  0
   16.6752   -9.9614   17.0369 H   0  0  0  0  0  0  0  0  0  0  0  0
  1  6  2  0
  1  7  1  0
  1  9  1  0
  2 10  1  0
  2 11  2  0
  2 12  1  0
  3  4  1  0
  4  5  2  0
  4  8  1  0
  5  6  1  0
  7  8  2  0
  9 10  1  0
  9 20  1  0
 12 13  2  0
 12 18  1  0
 13 14  1  0
 14 15  1  0
 14 16  2  0
 16 17  1  0
 17 18  2  0
 17 19  1  0
 20 21  1  0
 21 22  1  0
 21 25  1  0
 22 23  2  0
 23 24  1  0
 24 25  2  0
  5 26  1  0
  6 27  1  0
  7 28  1  0
  8 29  1  0
  9 30  1  6
 13 31  1  0
 16 32  1  0
 18 33  1  0
 20 34  1  0
 20 35  1  0
 22 36  1  0
 24 37  1  0
 25 38  1  0
M  END
>  <filename_input>  (12) 
7RKW_5TV_docked.sdf

>  <pdb_id>  (12) 
7RKW_5TV

>  <pose_rank>  (12) 
11

>  <num_atoms_heavy>  (12) 
25

>  <num_torsions>  (12) 
6

>  <pose>  (12) 
[18.05344315806847, -7.2599626024205905, 18.29266493725827, -1.3786766204160912, 1.7937868164240574, -2.2900415002940644, -1.5108145914263778, 2.217559441229991, -0.43520623692758287, -2.186662590891394, 0.9713661897797814, 3.694385012314341]

>  <energy>  (12) 
-734.9742539716311

>  <inter_energy>  (12) 
-746.2682311422495

>  <intra_energy>  (12) 
53.626067765663166

>  <rmsd>  (12) 
4.72466

>  <sdf_rank>  (12) 
0

$$$$

     RDKit          3D

 38 40  0  0  0  0  0  0  0  0999 V2000
   21.5031   -8.3360   20.5976 C   0  0  0  0  0  0  0  0  0  0  0  0
   19.2660   -7.8520   18.0502 C   0  0  0  0  0  0  0  0  0  0  0  0
   25.4319   -8.2937   21.6431 F   0  0  0  0  0  0  0  0  0  0  0  0
   24.1220   -8.2237   21.3840 C   0  0  0  0  0  0  0  0  0  0  0  0
   23.2624   -7.2744   21.8822 C   0  0  0  0  0  0  0  0  0  0  0  0
   21.9313   -7.3582   21.4889 C   0  0  0  0  0  0  0  0  0  0  0  0
   22.4423   -9.2219   20.0970 C   0  0  0  0  0  0  0  0  0  0  0  0
   23.7380   -9.1837   20.4930 C   0  0  0  0  0  0  0  0  0  0  0  0
   20.1023   -8.5074   20.0444 C   0  0  2  0  0  0  0  0  0  0  0  0
   19.8308   -7.5383   19.2347 O   0  0  0  0  0  0  0  0  0  0  0  0
   19.3223   -8.9660   17.5799 O   0  0  0  0  0  0  0  0  0  0  0  0
   18.6434   -6.7010   17.3620 C   0  0  0  0  0  0  0  0  0  0  0  0
   18.7409   -5.4197   17.8584 C   0  0  0  0  0  0  0  0  0  0  0  0
   18.1963   -4.3584   17.1439 C   0  0  0  0  0  0  0  0  0  0  0  0
   18.2846   -2.7509   17.7736 Cl  0  0  0  0  0  0  0  0  0  0  0  0
   17.4962   -4.5362   15.9741 C   0  0  0  0  0  0  0  0  0  0  0  0
   17.3779   -5.8061   15.5268 C   0  0  0  0  0  0  0  0  0  0  0  0
   17.9545   -6.8744   16.1820 C   0  0  0  0  0  0  0  0  0  0  0  0
   16.5505   -6.0412   14.0341 Cl  0  0  0  0  0  0  0  0  0  0  0  0
   19.2416   -8.6336   21.2933 C   0  0  0  0  0  0  0  0  0  0  0  0
   19.2302  -10.0607   21.7361 N   0  0  0  0  0  0  0  0  0  0  0  0
   20.2862  -10.9734   21.7773 C   0  0  0  0  0  0  0  0  0  0  0  0
   19.9209  -12.1731   22.2269 N   0  0  0  0  0  0  0  0  0  0  0  0
   18.5662  -12.0089   22.5084 C   0  0  0  0  0  0  0  0  0  0  0  0
   18.1355  -10.7166   22.2217 C   0  0  0  0  0  0  0  0  0  0  0  0
   23.6118   -6.4833   22.5619 H   0  0  0  0  0  0  0  0  0  0  0  0
   21.2034   -6.6376   21.8902 H   0  0  0  0  0  0  0  0  0  0  0  0
   22.1290   -9.9755   19.3595 H   0  0  0  0  0  0  0  0  0  0  0  0
   24.4653   -9.9115   20.1042 H   0  0  0  0  0  0  0  0  0  0  0  0
   19.9343   -9.3914   19.4116 H   0  0  0  0  0  0  0  0  0  0  0  0
   19.2480   -5.2366   18.8172 H   0  0  0  0  0  0  0  0  0  0  0  0
   17.0549   -3.6882   15.4299 H   0  0  0  0  0  0  0  0  0  0  0  0
   17.8625   -7.8835   15.7540 H   0  0  0  0  0  0  0  0  0  0  0  0
   19.6577   -8.0030   22.0929 H   0  0  0  0  0  0  0  0  0  0  0  0
   18.2153   -8.3058   21.0712 H   0  0  0  0  0  0  0  0  0  0  0  0
   21.3134  -10.7272   21.4704 H   0  0  0  0  0  0  0  0  0  0  0  0
   17.9174  -12.8023   22.9078 H   0  0  0  0  0  0  0  0  0  0  0  0
   17.1231  -10.3084   22.3580 H   0  0  0  0  0  0  0  0  0  0  0  0
  1  6  2  0
  1  7  1  0
  1  9  1  0
  2 10  1  0
  2 11  2  0
  2 12  1  0
  3  4  1  0
  4  5  2  0
  4  8  1  0
  5  6  1  0
  7  8  2  0
  9 10  1  0
  9 20  1  0
 12 13  2  0
 12 18  1  0
 13 14  1  0
 14 15  1  0
 14 16  2  0
 16 17  1  0
 17 18  2  0
 17 19  1  0
 20 21  1  0
 21 22  1  0
 21 25  1  0
 22 23  2  0
 23 24  1  0
 24 25  2  0
  5 26  1  0
  6 27  1  0
  7 28  1  0
  8 29  1  0
  9 30  1  6
 13 31  1  0
 16 32  1  0
 18 33  1  0
 20 34  1  0
 20 35  1  0
 22 36  1  0
 24 37  1  0
 25 38  1  0
M  END
>  <filename_input>  (13) 
7RKW_5TV_docked.sdf

>  <pdb_id>  (13) 
7RKW_5TV

>  <pose_rank>  (13) 
12

>  <num_atoms_heavy>  (13) 
25

>  <num_torsions>  (13) 
6

>  <pose>  (13) 
[20.102337993329378, -8.507426879193, 20.044385179550897, 2.1515529834719227, -1.2238363256234825, -2.376829246197003, -2.554761654522852, 0.3195440056747269, -0.259074228342209, -0.0974305879110586, 1.5227948034018581, 2.505894070351189]

>  <energy>  (13) 
-633.0179940133919

>  <inter_energy>  (13) 
-660.2179436629318

>  <intra_energy>  (13) 
22.455028594024988

>  <rmsd>  (13) 
7.44352

>  <sdf_rank>  (13) 
0

$$$$

     RDKit          3D

 38 40  0  0  0  0  0  0  0  0999 V2000
   19.7013   -5.9363   18.5351 C   0  0  0  0  0  0  0  0  0  0  0  0
   17.7407   -7.7713   18.9077 C   0  0  0  0  0  0  0  0  0  0  0  0
   19.2364   -1.9261   19.0170 F   0  0  0  0  0  0  0  0  0  0  0  0
   19.3534   -3.2300   18.7444 C   0  0  0  0  0  0  0  0  0  0  0  0
   19.2774   -3.7905   17.4921 C   0  0  0  0  0  0  0  0  0  0  0  0
   19.4359   -5.1693   17.4060 C   0  0  0  0  0  0  0  0  0  0  0  0
   19.8183   -5.2889   19.7536 C   0  0  0  0  0  0  0  0  0  0  0  0
   19.6319   -3.9514   19.8690 C   0  0  0  0  0  0  0  0  0  0  0  0
   19.9500   -7.4310   18.5777 C   0  0  2  0  0  0  0  0  0  0  0  0
   19.0204   -8.0093   19.2630 O   0  0  0  0  0  0  0  0  0  0  0  0
   16.9583   -7.2092   19.6405 O   0  0  0  0  0  0  0  0  0  0  0  0
   17.3765   -8.3204   17.5841 C   0  0  0  0  0  0  0  0  0  0  0  0
   17.2661   -9.6762   17.3666 C   0  0  0  0  0  0  0  0  0  0  0  0
   16.8569  -10.1456   16.1234 C   0  0  0  0  0  0  0  0  0  0  0  0
   16.7463  -11.8457   15.8301 Cl  0  0  0  0  0  0  0  0  0  0  0  0
   16.6129   -9.3086   15.0605 C   0  0  0  0  0  0  0  0  0  0  0  0
   16.7670   -7.9848   15.2850 C   0  0  0  0  0  0  0  0  0  0  0  0
   17.1168   -7.4833   16.5216 C   0  0  0  0  0  0  0  0  0  0  0  0
   16.4128   -6.9182   13.9791 Cl  0  0  0  0  0  0  0  0  0  0  0  0
   21.3736   -7.5378   19.1056 C   0  0  0  0  0  0  0  0  0  0  0  0
   21.4347   -8.6263   20.1274 N   0  0  0  0  0  0  0  0  0  0  0  0
   20.7929   -8.7028   21.3652 C   0  0  0  0  0  0  0  0  0  0  0  0
   21.0741   -9.8225   22.0299 N   0  0  0  0  0  0  0  0  0  0  0  0
   21.9213  -10.5053   21.1596 C   0  0  0  0  0  0  0  0  0  0  0  0
   22.1402   -9.7870   19.9875 C   0  0  0  0  0  0  0  0  0  0  0  0
   19.0990   -3.1758   16.5974 H   0  0  0  0  0  0  0  0  0  0  0  0
   19.3497   -5.6624   16.4265 H   0  0  0  0  0  0  0  0  0  0  0  0
   20.0688   -5.8748   20.6503 H   0  0  0  0  0  0  0  0  0  0  0  0
   19.7035   -3.4573   20.8492 H   0  0  0  0  0  0  0  0  0  0  0  0
   19.8918   -7.9612   17.6156 H   0  0  0  0  0  0  0  0  0  0  0  0
   17.5011  -10.3854   18.1740 H   0  0  0  0  0  0  0  0  0  0  0  0
   16.3079   -9.6965   14.0773 H   0  0  0  0  0  0  0  0  0  0  0  0
   17.1897   -6.3947   16.6617 H   0  0  0  0  0  0  0  0  0  0  0  0
   22.0576   -7.7718   18.2765 H   0  0  0  0  0  0  0  0  0  0  0  0
   21.6725   -6.5829   19.5625 H   0  0  0  0  0  0  0  0  0  0  0  0
   20.1242   -7.9194   21.7514 H   0  0  0  0  0  0  0  0  0  0  0  0
   22.3626  -11.4902   21.3724 H   0  0  0  0  0  0  0  0  0  0  0  0
   22.7543  -10.0912   19.1271 H   0  0  0  0  0  0  0  0  0  0  0  0
  1  6  2  0
  1  7  1  0
  1  9  1  0
  2 10  1  0
  2 11  2  0
  2 12  1  0
  3  4  1  0
  4  5  2  0
  4  8  1  0
  5  6  1  0
  7  8  2  0
  9 10  1  0
  9 20  1  0
 12 13  2  0
 12 18  1  0
 13 14  1  0
 14 15  1  0
 14 16  2  0
 16 17  1  0
 17 18  2  0
 17 19  1  0
 20 21  1  0
 21 22  1  0
 21 25  1  0
 22 23  2  0
 23 24  1  0
 24 25  2  0
  5 26  1  0
  6 27  1  0
  7 28  1  0
  8 29  1  0
  9 30  1  6
 13 31  1  0
 16 32  1  0
 18 33  1  0
 20 34  1  0
 20 35  1  0
 22 36  1  0
 24 37  1  0
 25 38  1  0
M  END
>  <filename_input>  (14) 
7RKW_5TV_docked.sdf

>  <pdb_id>  (14) 
7RKW_5TV

>  <pose_rank>  (14) 
13

>  <num_atoms_heavy>  (14) 
25

>  <num_torsions>  (14) 
6

>  <pose>  (14) 
[19.950047719338805, -7.430965461317431, 18.577651608242974, -0.596457893532799, -1.3151708446323969, 3.7936354644980095, 0.4784788117625246, -1.0783631248130534, -1.9459939376737208, 1.0357412064631917, -0.8799594973246544, 0.6714273417070131]

>  <energy>  (14) 
-665.6558907870557

>  <inter_energy>  (14) 
-702.0457145150951

>  <intra_energy>  (14) 
44.74100552612352

>  <rmsd>  (14) 
6.28601

>  <sdf_rank>  (14) 
0

$$$$

     RDKit          3D

 38 40  0  0  0  0  0  0  0  0999 V2000
   20.3713   -9.4162   21.1044 C   0  0  0  0  0  0  0  0  0  0  0  0
   19.8899   -7.1879   18.4637 C   0  0  0  0  0  0  0  0  0  0  0  0
   18.4319  -11.8095   23.7577 F   0  0  0  0  0  0  0  0  0  0  0  0
   19.1720  -11.0762   22.9196 C   0  0  0  0  0  0  0  0  0  0  0  0
   20.4967  -11.2961   22.6282 C   0  0  0  0  0  0  0  0  0  0  0  0
   21.0962  -10.4310   21.7196 C   0  0  0  0  0  0  0  0  0  0  0  0
   19.0260   -9.2950   21.4097 C   0  0  0  0  0  0  0  0  0  0  0  0
   18.4277  -10.1024   22.3192 C   0  0  0  0  0  0  0  0  0  0  0  0
   20.8811   -8.4430   20.0600 C   0  0  2  0  0  0  0  0  0  0  0  0
   20.0453   -8.3795   19.0771 O   0  0  0  0  0  0  0  0  0  0  0  0
   20.5202   -6.2060   18.7857 O   0  0  0  0  0  0  0  0  0  0  0  0
   18.8390   -7.1842   17.4237 C   0  0  0  0  0  0  0  0  0  0  0  0
   18.1432   -8.3258   17.0914 C   0  0  0  0  0  0  0  0  0  0  0  0
   17.1179   -8.2621   16.1543 C   0  0  0  0  0  0  0  0  0  0  0  0
   16.2602   -9.6946   15.7063 Cl  0  0  0  0  0  0  0  0  0  0  0  0
   16.8001   -7.1050   15.4833 C   0  0  0  0  0  0  0  0  0  0  0  0
   17.5228   -6.0065   15.7956 C   0  0  0  0  0  0  0  0  0  0  0  0
   18.5082   -6.0231   16.7608 C   0  0  0  0  0  0  0  0  0  0  0  0
   17.1016   -4.5356   15.0035 Cl  0  0  0  0  0  0  0  0  0  0  0  0
   22.2808   -8.9556   19.7521 C   0  0  0  0  0  0  0  0  0  0  0  0
   23.2593   -8.2733   20.6519 N   0  0  0  0  0  0  0  0  0  0  0  0
   24.3409   -8.8205   21.3451 C   0  0  0  0  0  0  0  0  0  0  0  0
   25.0087   -7.9196   22.0643 N   0  0  0  0  0  0  0  0  0  0  0  0
   24.3305   -6.7322   21.7968 C   0  0  0  0  0  0  0  0  0  0  0  0
   23.2644   -6.9354   20.9250 C   0  0  0  0  0  0  0  0  0  0  0  0
   21.0581  -12.1200   23.0932 H   0  0  0  0  0  0  0  0  0  0  0  0
   22.1637  -10.5515   21.4830 H   0  0  0  0  0  0  0  0  0  0  0  0
   18.4281   -8.5242   20.9014 H   0  0  0  0  0  0  0  0  0  0  0  0
   17.3638   -9.9753   22.5683 H   0  0  0  0  0  0  0  0  0  0  0  0
   20.9533   -7.3902   20.3705 H   0  0  0  0  0  0  0  0  0  0  0  0
   18.3979   -9.2849   17.5660 H   0  0  0  0  0  0  0  0  0  0  0  0
   15.9984   -7.0749   14.7307 H   0  0  0  0  0  0  0  0  0  0  0  0
   19.0397   -5.0916   17.0056 H   0  0  0  0  0  0  0  0  0  0  0  0
   22.3208  -10.0419   19.9204 H   0  0  0  0  0  0  0  0  0  0  0  0
   22.5312   -8.7427   18.7023 H   0  0  0  0  0  0  0  0  0  0  0  0
   24.6134   -9.8853   21.3017 H   0  0  0  0  0  0  0  0  0  0  0  0
   24.6037   -5.7552   22.2218 H   0  0  0  0  0  0  0  0  0  0  0  0
   22.5701   -6.1758   20.5367 H   0  0  0  0  0  0  0  0  0  0  0  0
  1  6  2  0
  1  7  1  0
  1  9  1  0
  2 10  1  0
  2 11  2  0
  2 12  1  0
  3  4  1  0
  4  5  2  0
  4  8  1  0
  5  6  1  0
  7  8  2  0
  9 10  1  0
  9 20  1  0
 12 13  2  0
 12 18  1  0
 13 14  1  0
 14 15  1  0
 14 16  2  0
 16 17  1  0
 17 18  2  0
 17 19  1  0
 20 21  1  0
 21 22  1  0
 21 25  1  0
 22 23  2  0
 23 24  1  0
 24 25  2  0
  5 26  1  0
  6 27  1  0
  7 28  1  0
  8 29  1  0
  9 30  1  1
 13 31  1  0
 16 32  1  0
 18 33  1  0
 20 34  1  0
 20 35  1  0
 22 36  1  0
 24 37  1  0
 25 38  1  0
M  END
>  <filename_input>  (15) 
7RKW_5TV_docked.sdf

>  <pdb_id>  (15) 
7RKW_5TV

>  <pose_rank>  (15) 
14

>  <num_atoms_heavy>  (15) 
25

>  <num_torsions>  (15) 
6

>  <pose>  (15) 
[20.881103769707774, -8.44302465363227, 20.05996607173877, 1.5724274357000583, 2.514439671015631, -0.09149411938478265, -1.460083234586719, -5.763908386616678, 0.10864241068618943, -0.23231789361001876, 1.4231997731708437, -2.1034490461726505]

>  <energy>  (15) 
-658.3229586324705

>  <inter_energy>  (15) 
-662.3545958038982

>  <intra_energy>  (15) 
8.575791416383824

>  <rmsd>  (15) 
6.64678

>  <sdf_rank>  (15) 
0

$$$$

     RDKit          3D

 38 40  0  0  0  0  0  0  0  0999 V2000
   20.9593   -7.9324   19.6005 C   0  0  0  0  0  0  0  0  0  0  0  0
   18.5341   -5.3787   19.0113 C   0  0  0  0  0  0  0  0  0  0  0  0
   24.0719  -10.1665   20.9609 F   0  0  0  0  0  0  0  0  0  0  0  0
   23.0960   -9.3386   20.5734 C   0  0  0  0  0  0  0  0  0  0  0  0
   23.0943   -7.9753   20.7459 C   0  0  0  0  0  0  0  0  0  0  0  0
   21.9917   -7.2785   20.2641 C   0  0  0  0  0  0  0  0  0  0  0  0
   21.0621   -9.3012   19.4176 C   0  0  0  0  0  0  0  0  0  0  0  0
   22.1087  -10.0078   19.9098 C   0  0  0  0  0  0  0  0  0  0  0  0
   19.7332   -7.2936   18.9790 C   0  0  2  0  0  0  0  0  0  0  0  0
   19.6505   -6.0580   19.3465 O   0  0  0  0  0  0  0  0  0  0  0  0
   17.6314   -5.1880   19.7949 O   0  0  0  0  0  0  0  0  0  0  0  0
   18.4931   -4.9593   17.5941 C   0  0  0  0  0  0  0  0  0  0  0  0
   17.7770   -5.6621   16.6500 C   0  0  0  0  0  0  0  0  0  0  0  0
   17.7128   -5.1944   15.3421 C   0  0  0  0  0  0  0  0  0  0  0  0
   16.8440   -6.0858   14.1425 Cl  0  0  0  0  0  0  0  0  0  0  0  0
   18.3944   -4.0768   14.9220 C   0  0  0  0  0  0  0  0  0  0  0  0
   19.1234   -3.4261   15.8557 C   0  0  0  0  0  0  0  0  0  0  0  0
   19.1627   -3.8315   17.1736 C   0  0  0  0  0  0  0  0  0  0  0  0
   19.9401   -1.9928   15.3587 Cl  0  0  0  0  0  0  0  0  0  0  0  0
   18.6011   -8.2216   19.3956 C   0  0  0  0  0  0  0  0  0  0  0  0
   17.8509   -8.6536   18.1777 N   0  0  0  0  0  0  0  0  0  0  0  0
   16.4708   -8.7437   17.9852 C   0  0  0  0  0  0  0  0  0  0  0  0
   16.1412   -9.1718   16.7674 N   0  0  0  0  0  0  0  0  0  0  0  0
   17.3759   -9.3413   16.1444 C   0  0  0  0  0  0  0  0  0  0  0  0
   18.4289   -9.0167   16.9951 C   0  0  0  0  0  0  0  0  0  0  0  0
   23.9282   -7.4582   21.2431 H   0  0  0  0  0  0  0  0  0  0  0  0
   21.9350   -6.1897   20.4105 H   0  0  0  0  0  0  0  0  0  0  0  0
   20.2746   -9.8282   18.8588 H   0  0  0  0  0  0  0  0  0  0  0  0
   22.1614  -11.0985   19.7772 H   0  0  0  0  0  0  0  0  0  0  0  0
   19.7321   -7.2090   17.8822 H   0  0  0  0  0  0  0  0  0  0  0  0
   17.2576   -6.5904   16.9300 H   0  0  0  0  0  0  0  0  0  0  0  0
   18.3487   -3.7299   13.8791 H   0  0  0  0  0  0  0  0  0  0  0  0
   19.7395   -3.2431   17.9024 H   0  0  0  0  0  0  0  0  0  0  0  0
   19.0162   -9.1038   19.9049 H   0  0  0  0  0  0  0  0  0  0  0  0
   17.9222   -7.6939   20.0817 H   0  0  0  0  0  0  0  0  0  0  0  0
   15.7321   -8.4876   18.7590 H   0  0  0  0  0  0  0  0  0  0  0  0
   17.5029   -9.6885   15.1084 H   0  0  0  0  0  0  0  0  0  0  0  0
   19.5036   -9.0465   16.7628 H   0  0  0  0  0  0  0  0  0  0  0  0
  1  6  2  0
  1  7  1  0
  1  9  1  0
  2 10  1  0
  2 11  2  0
  2 12  1  0
  3  4  1  0
  4  5  2  0
  4  8  1  0
  5  6  1  0
  7  8  2  0
  9 10  1  0
  9 20  1  0
 12 13  2  0
 12 18  1  0
 13 14  1  0
 14 15  1  0
 14 16  2  0
 16 17  1  0
 17 18  2  0
 17 19  1  0
 20 21  1  0
 21 22  1  0
 21 25  1  0
 22 23  2  0
 23 24  1  0
 24 25  2  0
  5 26  1  0
  6 27  1  0
  7 28  1  0
  8 29  1  0
  9 30  1  6
 13 31  1  0
 16 32  1  0
 18 33  1  0
 20 34  1  0
 20 35  1  0
 22 36  1  0
 24 37  1  0
 25 38  1  0
M  END
>  <filename_input>  (16) 
7RKW_5TV_docked.sdf

>  <pdb_id>  (16) 
7RKW_5TV

>  <pose_rank>  (16) 
15

>  <num_atoms_heavy>  (16) 
25

>  <num_torsions>  (16) 
6

>  <pose>  (16) 
[19.73323537126807, -7.293575206095808, 18.978967785308058, 2.5326394388471978, 0.030130405855728584, -3.3312048038322803, 2.3214255073791894, 1.2577474796282484, 1.832891881865289, 1.5575948678310219, 0.8163847100458647, -0.5910186414524992]

>  <energy>  (16) 
-620.0422242525043

>  <inter_energy>  (16) 
-637.225497966868

>  <intra_energy>  (16) 
21.538192878252037

>  <rmsd>  (16) 
6.83726

>  <sdf_rank>  (16) 
0

$$$$

     RDKit          3D

 38 40  0  0  0  0  0  0  0  0999 V2000
   19.2935   -6.0524   18.3369 C   0  0  0  0  0  0  0  0  0  0  0  0
   20.1507   -8.8190   20.3874 C   0  0  0  0  0  0  0  0  0  0  0  0
   19.2267   -3.6698   15.0431 F   0  0  0  0  0  0  0  0  0  0  0  0
   19.1684   -4.5239   16.0703 C   0  0  0  0  0  0  0  0  0  0  0  0
   18.5489   -5.7503   16.0507 C   0  0  0  0  0  0  0  0  0  0  0  0
   18.6043   -6.5052   17.2172 C   0  0  0  0  0  0  0  0  0  0  0  0
   19.9390   -4.8298   18.2581 C   0  0  0  0  0  0  0  0  0  0  0  0
   19.8692   -4.0591   17.1454 C   0  0  0  0  0  0  0  0  0  0  0  0
   19.4807   -6.7921   19.6466 C   0  0  2  0  0  0  0  0  0  0  0  0
   19.5968   -8.0585   19.4203 O   0  0  0  0  0  0  0  0  0  0  0  0
   19.4997   -9.5831   21.0637 O   0  0  0  0  0  0  0  0  0  0  0  0
   21.5960   -8.5768   20.5832 C   0  0  0  0  0  0  0  0  0  0  0  0
   22.0884   -7.3243   20.8774 C   0  0  0  0  0  0  0  0  0  0  0  0
   23.4473   -7.1550   21.1185 C   0  0  0  0  0  0  0  0  0  0  0  0
   24.0803   -5.5822   21.4565 Cl  0  0  0  0  0  0  0  0  0  0  0  0
   24.3511   -8.1856   21.0135 C   0  0  0  0  0  0  0  0  0  0  0  0
   23.8514   -9.3973   20.6838 C   0  0  0  0  0  0  0  0  0  0  0  0
   22.5019   -9.6105   20.4936 C   0  0  0  0  0  0  0  0  0  0  0  0
   24.9627  -10.7113   20.6011 Cl  0  0  0  0  0  0  0  0  0  0  0  0
   18.2912   -6.3399   20.4816 C   0  0  0  0  0  0  0  0  0  0  0  0
   17.1464   -7.2704   20.2443 N   0  0  0  0  0  0  0  0  0  0  0  0
   16.5246   -8.1408   21.1418 C   0  0  0  0  0  0  0  0  0  0  0  0
   15.5282   -8.8329   20.5914 N   0  0  0  0  0  0  0  0  0  0  0  0
   15.4991   -8.3615   19.2805 C   0  0  0  0  0  0  0  0  0  0  0  0
   16.4784   -7.3971   19.0601 C   0  0  0  0  0  0  0  0  0  0  0  0
   18.0321   -6.1185   15.1522 H   0  0  0  0  0  0  0  0  0  0  0  0
   18.0936   -7.4787   17.2549 H   0  0  0  0  0  0  0  0  0  0  0  0
   20.5231   -4.4752   19.1202 H   0  0  0  0  0  0  0  0  0  0  0  0
   20.3671   -3.0789   17.1094 H   0  0  0  0  0  0  0  0  0  0  0  0
   20.4039   -6.5710   20.2023 H   0  0  0  0  0  0  0  0  0  0  0  0
   21.4085   -6.4606   20.9215 H   0  0  0  0  0  0  0  0  0  0  0  0
   25.4261   -8.0319   21.1889 H   0  0  0  0  0  0  0  0  0  0  0  0
   22.1425  -10.6249   20.2661 H   0  0  0  0  0  0  0  0  0  0  0  0
   18.5625   -6.3538   21.5475 H   0  0  0  0  0  0  0  0  0  0  0  0
   18.0039   -5.3175   20.1948 H   0  0  0  0  0  0  0  0  0  0  0  0
   16.8264   -8.2444   22.1945 H   0  0  0  0  0  0  0  0  0  0  0  0
   14.7900   -8.7086   18.5145 H   0  0  0  0  0  0  0  0  0  0  0  0
   16.6737   -6.8504   18.1258 H   0  0  0  0  0  0  0  0  0  0  0  0
  1  6  2  0
  1  7  1  0
  1  9  1  0
  2 10  1  0
  2 11  2  0
  2 12  1  0
  3  4  1  0
  4  5  2  0
  4  8  1  0
  5  6  1  0
  7  8  2  0
  9 10  1  0
  9 20  1  0
 12 13  2  0
 12 18  1  0
 13 14  1  0
 14 15  1  0
 14 16  2  0
 16 17  1  0
 17 18  2  0
 17 19  1  0
 20 21  1  0
 21 22  1  0
 21 25  1  0
 22 23  2  0
 23 24  1  0
 24 25  2  0
  5 26  1  0
  6 27  1  0
  7 28  1  0
  8 29  1  0
  9 30  1  1
 13 31  1  0
 16 32  1  0
 18 33  1  0
 20 34  1  0
 20 35  1  0
 22 36  1  0
 24 37  1  0
 25 38  1  0
M  END
>  <filename_input>  (17) 
7RKW_5TV_docked.sdf

>  <pdb_id>  (17) 
7RKW_5TV

>  <pose_rank>  (17) 
16

>  <num_atoms_heavy>  (17) 
25

>  <num_torsions>  (17) 
6

>  <pose>  (17) 
[19.48069027237868, -6.792111465215737, 19.646607805512218, -4.49051004836489, 2.058439719404453, 1.0001752018480712, 3.1245883491330972, 0.7947609833184527, 1.9570116239756636, 7.093028259070096, -7.981307580193598, -2.4896380603917807]

>  <energy>  (17) 
-581.7916573072754

>  <inter_energy>  (17) 
-637.0161144931241

>  <intra_energy>  (17) 
67.79577045565831

>  <rmsd>  (17) 
4.14057

>  <sdf_rank>  (17) 
0

$$$$

     RDKit          3D

 38 40  0  0  0  0  0  0  0  0999 V2000
   19.1559   -8.8692   20.8903 C   0  0  0  0  0  0  0  0  0  0  0  0
   21.9177   -7.7173   19.4326 C   0  0  0  0  0  0  0  0  0  0  0  0
   18.2414  -11.6759   23.6860 F   0  0  0  0  0  0  0  0  0  0  0  0
   18.4341  -10.7039   22.7881 C   0  0  0  0  0  0  0  0  0  0  0  0
   17.6310   -9.6008   22.6256 C   0  0  0  0  0  0  0  0  0  0  0  0
   18.0007   -8.6889   21.6431 C   0  0  0  0  0  0  0  0  0  0  0  0
   19.9421   -9.9785   21.1530 C   0  0  0  0  0  0  0  0  0  0  0  0
   19.5841  -10.9004   22.0798 C   0  0  0  0  0  0  0  0  0  0  0  0
   19.7041   -7.9319   19.8326 C   0  0  2  0  0  0  0  0  0  0  0  0
   20.8465   -7.4642   20.2130 O   0  0  0  0  0  0  0  0  0  0  0  0
   21.8252   -7.8749   18.2360 O   0  0  0  0  0  0  0  0  0  0  0  0
   23.1847   -7.8517   20.1827 C   0  0  0  0  0  0  0  0  0  0  0  0
   23.4280   -7.1300   21.3307 C   0  0  0  0  0  0  0  0  0  0  0  0
   24.6058   -7.3366   22.0402 C   0  0  0  0  0  0  0  0  0  0  0  0
   24.9357   -6.4133   23.4640 Cl  0  0  0  0  0  0  0  0  0  0  0  0
   25.5875   -8.1973   21.6094 C   0  0  0  0  0  0  0  0  0  0  0  0
   25.3452   -8.8644   20.4592 C   0  0  0  0  0  0  0  0  0  0  0  0
   24.1634   -8.7244   19.7616 C   0  0  0  0  0  0  0  0  0  0  0  0
   26.5413   -9.9875   19.9335 Cl  0  0  0  0  0  0  0  0  0  0  0  0
   18.5755   -6.9316   19.6271 C   0  0  0  0  0  0  0  0  0  0  0  0
   19.1466   -5.5512   19.5949 N   0  0  0  0  0  0  0  0  0  0  0  0
   19.6845   -4.8508   18.5133 C   0  0  0  0  0  0  0  0  0  0  0  0
   20.1097   -3.6316   18.8412 N   0  0  0  0  0  0  0  0  0  0  0  0
   19.8054   -3.5424   20.1980 C   0  0  0  0  0  0  0  0  0  0  0  0
   19.2059   -4.7078   20.6672 C   0  0  0  0  0  0  0  0  0  0  0  0
   16.7354   -9.4459   23.2452 H   0  0  0  0  0  0  0  0  0  0  0  0
   17.3677   -7.8086   21.4579 H   0  0  0  0  0  0  0  0  0  0  0  0
   20.8805  -10.1150   20.5955 H   0  0  0  0  0  0  0  0  0  0  0  0
   20.2077  -11.7889   22.2575 H   0  0  0  0  0  0  0  0  0  0  0  0
   19.9518   -8.3859   18.8618 H   0  0  0  0  0  0  0  0  0  0  0  0
   22.6927   -6.3925   21.6850 H   0  0  0  0  0  0  0  0  0  0  0  0
   26.5225   -8.3360   22.1721 H   0  0  0  0  0  0  0  0  0  0  0  0
   23.9997   -9.3210   18.8521 H   0  0  0  0  0  0  0  0  0  0  0  0
   18.0656   -7.1417   18.6752 H   0  0  0  0  0  0  0  0  0  0  0  0
   17.8516   -7.0145   20.4512 H   0  0  0  0  0  0  0  0  0  0  0  0
   19.7504   -5.2632   17.4956 H   0  0  0  0  0  0  0  0  0  0  0  0
   20.0132   -2.6601   20.8213 H   0  0  0  0  0  0  0  0  0  0  0  0
   18.8531   -4.9079   21.6897 H   0  0  0  0  0  0  0  0  0  0  0  0
  1  6  2  0
  1  7  1  0
  1  9  1  0
  2 10  1  0
  2 11  2  0
  2 12  1  0
  3  4  1  0
  4  5  2  0
  4  8  1  0
  5  6  1  0
  7  8  2  0
  9 10  1  0
  9 20  1  0
 12 13  2  0
 12 18  1  0
 13 14  1  0
 14 15  1  0
 14 16  2  0
 16 17  1  0
 17 18  2  0
 17 19  1  0
 20 21  1  0
 21 22  1  0
 21 25  1  0
 22 23  2  0
 23 24  1  0
 24 25  2  0
  5 26  1  0
  6 27  1  0
  7 28  1  0
  8 29  1  0
  9 30  1  6
 13 31  1  0
 16 32  1  0
 18 33  1  0
 20 34  1  0
 20 35  1  0
 22 36  1  0
 24 37  1  0
 25 38  1  0
M  END
>  <filename_input>  (18) 
7RKW_5TV_docked.sdf

>  <pdb_id>  (18) 
7RKW_5TV

>  <pose_rank>  (18) 
17

>  <num_atoms_heavy>  (18) 
25

>  <num_torsions>  (18) 
6

>  <pose>  (18) 
[19.70409712152514, -7.931873300260878, 19.832607544731722, -1.3026243689692305, 0.6701535151756571, 0.2158376115800732, 4.532118658623736, 0.08058521478384673, 0.58817036398919, -0.7571261233347097, -0.9107651960432616, -3.00161510411473]

>  <energy>  (18) 
-482.0019491104541

>  <inter_energy>  (18) 
-485.5468719316131

>  <intra_energy>  (18) 
10.627848084529058

>  <rmsd>  (18) 
4.6212

>  <sdf_rank>  (18) 
0

$$$$

     RDKit          3D

 38 40  0  0  0  0  0  0  0  0999 V2000
   21.1688   -7.9077   19.3756 C   0  0  0  0  0  0  0  0  0  0  0  0
   18.2603   -7.2718   20.3066 C   0  0  0  0  0  0  0  0  0  0  0  0
   24.3346   -9.9825   20.8600 F   0  0  0  0  0  0  0  0  0  0  0  0
   23.2678   -9.3974   20.3054 C   0  0  0  0  0  0  0  0  0  0  0  0
   22.3249  -10.0316   19.5326 C   0  0  0  0  0  0  0  0  0  0  0  0
   21.2762   -9.2557   19.0513 C   0  0  0  0  0  0  0  0  0  0  0  0
   22.1298   -7.3556   20.2058 C   0  0  0  0  0  0  0  0  0  0  0  0
   23.1812   -8.0817   20.6579 C   0  0  0  0  0  0  0  0  0  0  0  0
   20.0550   -6.9635   18.9688 C   0  0  2  0  0  0  0  0  0  0  0  0
   18.9103   -7.5328   19.1535 O   0  0  0  0  0  0  0  0  0  0  0  0
   17.8068   -6.1790   20.5621 O   0  0  0  0  0  0  0  0  0  0  0  0
   18.2206   -8.4161   21.2420 C   0  0  0  0  0  0  0  0  0  0  0  0
   19.2733   -9.2976   21.3549 C   0  0  0  0  0  0  0  0  0  0  0  0
   19.2199  -10.3210   22.2947 C   0  0  0  0  0  0  0  0  0  0  0  0
   20.5211  -11.4520   22.4223 Cl  0  0  0  0  0  0  0  0  0  0  0  0
   18.1193  -10.5390   23.0892 C   0  0  0  0  0  0  0  0  0  0  0  0
   17.0819   -9.6868   22.9328 C   0  0  0  0  0  0  0  0  0  0  0  0
   17.1254   -8.6278   22.0500 C   0  0  0  0  0  0  0  0  0  0  0  0
   15.7163   -9.9124   23.9586 Cl  0  0  0  0  0  0  0  0  0  0  0  0
   20.4200   -6.5798   17.5419 C   0  0  0  0  0  0  0  0  0  0  0  0
   19.3610   -5.6801   16.9924 N   0  0  0  0  0  0  0  0  0  0  0  0
   18.0510   -5.9927   16.6237 C   0  0  0  0  0  0  0  0  0  0  0  0
   17.3737   -4.9413   16.1648 N   0  0  0  0  0  0  0  0  0  0  0  0
   18.2936   -3.8999   16.2684 C   0  0  0  0  0  0  0  0  0  0  0  0
   19.5099   -4.3390   16.7838 C   0  0  0  0  0  0  0  0  0  0  0  0
   22.3966  -11.1054   19.3050 H   0  0  0  0  0  0  0  0  0  0  0  0
   20.5174   -9.7168   18.4020 H   0  0  0  0  0  0  0  0  0  0  0  0
   22.0376   -6.3013   20.5059 H   0  0  0  0  0  0  0  0  0  0  0  0
   23.9492   -7.6200   21.2959 H   0  0  0  0  0  0  0  0  0  0  0  0
   19.9549   -6.0443   19.5647 H   0  0  0  0  0  0  0  0  0  0  0  0
   20.1534   -9.1922   20.7035 H   0  0  0  0  0  0  0  0  0  0  0  0
   18.0847  -11.3647   23.8151 H   0  0  0  0  0  0  0  0  0  0  0  0
   16.2694   -7.9395   21.9901 H   0  0  0  0  0  0  0  0  0  0  0  0
   21.3874   -6.0561   17.5370 H   0  0  0  0  0  0  0  0  0  0  0  0
   20.4958   -7.4853   16.9220 H   0  0  0  0  0  0  0  0  0  0  0  0
   17.6225   -7.0027   16.7038 H   0  0  0  0  0  0  0  0  0  0  0  0
   18.0845   -2.8595   15.9787 H   0  0  0  0  0  0  0  0  0  0  0  0
   20.4052   -3.7315   16.9819 H   0  0  0  0  0  0  0  0  0  0  0  0
  1  6  2  0
  1  7  1  0
  1  9  1  0
  2 10  1  0
  2 11  2  0
  2 12  1  0
  3  4  1  0
  4  5  2  0
  4  8  1  0
  5  6  1  0
  7  8  2  0
  9 10  1  0
  9 20  1  0
 12 13  2  0
 12 18  1  0
 13 14  1  0
 14 15  1  0
 14 16  2  0
 16 17  1  0
 17 18  2  0
 17 19  1  0
 20 21  1  0
 21 22  1  0
 21 25  1  0
 22 23  2  0
 23 24  1  0
 24 25  2  0
  5 26  1  0
  6 27  1  0
  7 28  1  0
  8 29  1  0
  9 30  1  1
 13 31  1  0
 16 32  1  0
 18 33  1  0
 20 34  1  0
 20 35  1  0
 22 36  1  0
 24 37  1  0
 25 38  1  0
M  END
>  <filename_input>  (19) 
7RKW_5TV_docked.sdf

>  <pdb_id>  (19) 
7RKW_5TV

>  <pose_rank>  (19) 
18

>  <num_atoms_heavy>  (19) 
25

>  <num_torsions>  (19) 
6

>  <pose>  (19) 
[20.055028541791316, -6.9634793626160185, 18.96883612219591, 0.7127943494958825, 3.8331369226983893, -0.7416855478908826, 3.3101110524965414, -0.3382897263802695, 1.2629414504511676, 0.43415447143481917, 6.121428766748503, 0.5467582539520875]

>  <energy>  (19) 
-594.8202581290047

>  <inter_energy>  (19) 
-634.5708498889828

>  <intra_energy>  (19) 
48.64178095298258

>  <rmsd>  (19) 
5.14259

>  <sdf_rank>  (19) 
0

$$$$

     RDKit          3D

 38 40  0  0  0  0  0  0  0  0999 V2000
   20.0873   -6.1919   19.0662 C   0  0  0  0  0  0  0  0  0  0  0  0
   19.9014   -9.1691   20.3413 C   0  0  0  0  0  0  0  0  0  0  0  0
   17.8476   -2.8127   18.7578 F   0  0  0  0  0  0  0  0  0  0  0  0
   18.5691   -3.9384   18.7405 C   0  0  0  0  0  0  0  0  0  0  0  0
   18.9959   -4.5921   17.6096 C   0  0  0  0  0  0  0  0  0  0  0  0
   19.7488   -5.7467   17.7931 C   0  0  0  0  0  0  0  0  0  0  0  0
   19.6657   -5.4460   20.1542 C   0  0  0  0  0  0  0  0  0  0  0  0
   18.9002   -4.3377   20.0029 C   0  0  0  0  0  0  0  0  0  0  0  0
   20.9438   -7.3949   19.4079 C   0  0  2  0  0  0  0  0  0  0  0  0
   20.4921   -7.9636   20.4761 O   0  0  0  0  0  0  0  0  0  0  0  0
   19.9669   -9.8123   19.3180 O   0  0  0  0  0  0  0  0  0  0  0  0
   19.1194   -9.5866   21.5246 C   0  0  0  0  0  0  0  0  0  0  0  0
   17.8987   -9.0222   21.8233 C   0  0  0  0  0  0  0  0  0  0  0  0
   17.1674   -9.4916   22.9089 C   0  0  0  0  0  0  0  0  0  0  0  0
   15.6497   -8.7687   23.3118 Cl  0  0  0  0  0  0  0  0  0  0  0  0
   17.6409  -10.4679   23.7530 C   0  0  0  0  0  0  0  0  0  0  0  0
   18.8585  -10.9788   23.4647 C   0  0  0  0  0  0  0  0  0  0  0  0
   19.5845  -10.5751   22.3633 C   0  0  0  0  0  0  0  0  0  0  0  0
   19.4434  -12.2412   24.4807 Cl  0  0  0  0  0  0  0  0  0  0  0  0
   22.3524   -6.8211   19.4667 C   0  0  0  0  0  0  0  0  0  0  0  0
   23.2800   -7.8592   20.0095 N   0  0  0  0  0  0  0  0  0  0  0  0
   24.2629   -7.7276   20.9925 C   0  0  0  0  0  0  0  0  0  0  0  0
   24.9142   -8.8644   21.2338 N   0  0  0  0  0  0  0  0  0  0  0  0
   24.2979   -9.7730   20.3758 C   0  0  0  0  0  0  0  0  0  0  0  0
   23.2890   -9.1707   19.6295 C   0  0  0  0  0  0  0  0  0  0  0  0
   18.7528   -4.2186   16.6039 H   0  0  0  0  0  0  0  0  0  0  0  0
   20.0829   -6.3185   16.9147 H   0  0  0  0  0  0  0  0  0  0  0  0
   19.9593   -5.7608   21.1664 H   0  0  0  0  0  0  0  0  0  0  0  0
   18.5529   -3.7716   20.8797 H   0  0  0  0  0  0  0  0  0  0  0  0
   20.9318   -8.2220   18.6829 H   0  0  0  0  0  0  0  0  0  0  0  0
   17.5037   -8.2027   21.2050 H   0  0  0  0  0  0  0  0  0  0  0  0
   17.0585  -10.8156   24.6190 H   0  0  0  0  0  0  0  0  0  0  0  0
   20.5529  -11.0517   22.1510 H   0  0  0  0  0  0  0  0  0  0  0  0
   22.6747   -6.5312   18.4557 H   0  0  0  0  0  0  0  0  0  0  0  0
   22.3651   -5.9350   20.1184 H   0  0  0  0  0  0  0  0  0  0  0  0
   24.4773   -6.7829   21.5137 H   0  0  0  0  0  0  0  0  0  0  0  0
   24.5744  -10.8348   20.2979 H   0  0  0  0  0  0  0  0  0  0  0  0
   22.6347   -9.6515   18.8874 H   0  0  0  0  0  0  0  0  0  0  0  0
  1  6  2  0
  1  7  1  0
  1  9  1  0
  2 10  1  0
  2 11  2  0
  2 12  1  0
  3  4  1  0
  4  5  2  0
  4  8  1  0
  5  6  1  0
  7  8  2  0
  9 10  1  0
  9 20  1  0
 12 13  2  0
 12 18  1  0
 13 14  1  0
 14 15  1  0
 14 16  2  0
 16 17  1  0
 17 18  2  0
 17 19  1  0
 20 21  1  0
 21 22  1  0
 21 25  1  0
 22 23  2  0
 23 24  1  0
 24 25  2  0
  5 26  1  0
  6 27  1  0
  7 28  1  0
  8 29  1  0
  9 30  1  6
 13 31  1  0
 16 32  1  0
 18 33  1  0
 20 34  1  0
 20 35  1  0
 22 36  1  0
 24 37  1  0
 25 38  1  0
M  END
>  <filename_input>  (20) 
7RKW_5TV_docked.sdf

>  <pdb_id>  (20) 
7RKW_5TV

>  <pose_rank>  (20) 
19

>  <num_atoms_heavy>  (20) 
25

>  <num_torsions>  (20) 
6

>  <pose>  (20) 
[20.943825429131742, -7.394872720629276, 19.40790823794267, 0.6000676667522843, -1.2142082065092938, 4.1440484669013244, -0.00017896658656676653, -6.382043643588907, 0.2864078035447297, 1.1118277150574793, -0.2788725728452657, -0.5476272821933255]

>  <energy>  (20) 
-562.645587182168

>  <inter_energy>  (20) 
-573.629776475865

>  <intra_energy>  (20) 
10.662746091889886

>  <rmsd>  (20) 
5.51497

>  <sdf_rank>  (20) 
0

$$$$

     RDKit          3D

 38 40  0  0  0  0  0  0  0  0999 V2000
   16.4699   -7.9673   17.0767 C   0  0  0  0  0  0  0  0  0  0  0  0
   19.1673   -7.5501   18.6059 C   0  0  0  0  0  0  0  0  0  0  0  0
   15.5171   -8.9230   13.2414 F   0  0  0  0  0  0  0  0  0  0  0  0
   15.7827   -8.7145   14.5353 C   0  0  0  0  0  0  0  0  0  0  0  0
   15.6692   -9.6538   15.5318 C   0  0  0  0  0  0  0  0  0  0  0  0
   16.0027   -9.2517   16.8205 C   0  0  0  0  0  0  0  0  0  0  0  0
   16.6091   -7.0963   16.0091 C   0  0  0  0  0  0  0  0  0  0  0  0
   16.2563   -7.4526   14.7499 C   0  0  0  0  0  0  0  0  0  0  0  0
   16.9197   -7.4165   18.4153 C   0  0  2  0  0  0  0  0  0  0  0  0
   17.9468   -8.0769   18.8366 O   0  0  0  0  0  0  0  0  0  0  0  0
   20.1856   -8.1909   18.7388 O   0  0  0  0  0  0  0  0  0  0  0  0
   19.1409   -6.1154   18.2497 C   0  0  0  0  0  0  0  0  0  0  0  0
   19.2720   -5.6890   16.9463 C   0  0  0  0  0  0  0  0  0  0  0  0
   19.1753   -4.3341   16.6493 C   0  0  0  0  0  0  0  0  0  0  0  0
   19.3707   -3.7854   15.0216 Cl  0  0  0  0  0  0  0  0  0  0  0  0
   19.0149   -3.3738   17.6200 C   0  0  0  0  0  0  0  0  0  0  0  0
   18.9296   -3.8115   18.8958 C   0  0  0  0  0  0  0  0  0  0  0  0
   18.9652   -5.1522   19.2184 C   0  0  0  0  0  0  0  0  0  0  0  0
   18.6741   -2.6259   20.1195 Cl  0  0  0  0  0  0  0  0  0  0  0  0
   15.6577   -7.4753   19.2642 C   0  0  0  0  0  0  0  0  0  0  0  0
   15.9697   -8.1588   20.5557 N   0  0  0  0  0  0  0  0  0  0  0  0
   15.3124   -9.2327   21.1594 C   0  0  0  0  0  0  0  0  0  0  0  0
   15.8585   -9.5922   22.3202 N   0  0  0  0  0  0  0  0  0  0  0  0
   16.9339   -8.7160   22.4512 C   0  0  0  0  0  0  0  0  0  0  0  0
   17.0176   -7.8413   21.3715 C   0  0  0  0  0  0  0  0  0  0  0  0
   15.3296  -10.6783   15.3196 H   0  0  0  0  0  0  0  0  0  0  0  0
   15.8949   -9.9629   17.6527 H   0  0  0  0  0  0  0  0  0  0  0  0
   17.0163   -6.0901   16.1875 H   0  0  0  0  0  0  0  0  0  0  0  0
   16.3497   -6.7392   13.9178 H   0  0  0  0  0  0  0  0  0  0  0  0
   17.2943   -6.3823   18.4145 H   0  0  0  0  0  0  0  0  0  0  0  0
   19.4528   -6.4183   16.1428 H   0  0  0  0  0  0  0  0  0  0  0  0
   18.9590   -2.3038   17.3709 H   0  0  0  0  0  0  0  0  0  0  0  0
   18.8511   -5.4578   20.2690 H   0  0  0  0  0  0  0  0  0  0  0  0
   15.3004   -6.4543   19.4644 H   0  0  0  0  0  0  0  0  0  0  0  0
   14.8759   -8.0336   18.7284 H   0  0  0  0  0  0  0  0  0  0  0  0
   14.4345   -9.7305   20.7218 H   0  0  0  0  0  0  0  0  0  0  0  0
   17.6306   -8.7155   23.3025 H   0  0  0  0  0  0  0  0  0  0  0  0
   17.7715   -7.0569   21.2092 H   0  0  0  0  0  0  0  0  0  0  0  0
  1  6  2  0
  1  7  1  0
  1  9  1  0
  2 10  1  0
  2 11  2  0
  2 12  1  0
  3  4  1  0
  4  5  2  0
  4  8  1  0
  5  6  1  0
  7  8  2  0
  9 10  1  0
  9 20  1  0
 12 13  2  0
 12 18  1  0
 13 14  1  0
 14 15  1  0
 14 16  2  0
 16 17  1  0
 17 18  2  0
 17 19  1  0
 20 21  1  0
 21 22  1  0
 21 25  1  0
 22 23  2  0
 23 24  1  0
 24 25  2  0
  5 26  1  0
  6 27  1  0
  7 28  1  0
  8 29  1  0
  9 30  1  6
 13 31  1  0
 16 32  1  0
 18 33  1  0
 20 34  1  0
 20 35  1  0
 22 36  1  0
 24 37  1  0
 25 38  1  0
M  END
>  <filename_input>  (21) 
7RKW_5TV_docked.sdf

>  <pdb_id>  (21) 
7RKW_5TV

>  <pose_rank>  (21) 
20

>  <num_atoms_heavy>  (21) 
25

>  <num_torsions>  (21) 
6

>  <pose>  (21) 
[16.919705422940318, -7.416517888735725, 18.41529469848367, -3.8732943449350885, -0.17360736672337185, -3.8902143165440703, -2.676588075286832, 5.961996141490167, 3.4620469227539017, 10.611291612175814, -1.0066599944518164, -0.45192221905207536]

>  <energy>  (21) 
-563.3515392269288

>  <inter_energy>  (21) 
-622.7696783266668

>  <intra_energy>  (21) 
67.11013924464832

>  <rmsd>  (21) 
4.8666

>  <sdf_rank>  (21) 
0

$$$$

     RDKit          3D

 38 40  0  0  0  0  0  0  0  0999 V2000
   17.5367   -9.0145   17.4097 C   0  0  0  0  0  0  0  0  0  0  0  0
   18.9182   -6.7939   16.7578 C   0  0  0  0  0  0  0  0  0  0  0  0
   14.6672  -10.5635   14.9814 F   0  0  0  0  0  0  0  0  0  0  0  0
   15.6873  -10.1338   15.7316 C   0  0  0  0  0  0  0  0  0  0  0  0
   17.0031  -10.4939   15.5661 C   0  0  0  0  0  0  0  0  0  0  0  0
   17.9270   -9.9319   16.4403 C   0  0  0  0  0  0  0  0  0  0  0  0
   16.1993   -8.6611   17.4759 C   0  0  0  0  0  0  0  0  0  0  0  0
   15.2743   -9.2221   16.6595 C   0  0  0  0  0  0  0  0  0  0  0  0
   18.4403   -8.2868   18.3852 C   0  0  2  0  0  0  0  0  0  0  0  0
   19.3381   -7.6221   17.7365 O   0  0  0  0  0  0  0  0  0  0  0  0
   18.6374   -7.1903   15.6491 O   0  0  0  0  0  0  0  0  0  0  0  0
   18.9042   -5.3677   17.1475 C   0  0  0  0  0  0  0  0  0  0  0  0
   18.8805   -4.9768   18.4683 C   0  0  0  0  0  0  0  0  0  0  0  0
   18.9347   -3.6252   18.7901 C   0  0  0  0  0  0  0  0  0  0  0  0
   18.8728   -3.1225   20.4430 Cl  0  0  0  0  0  0  0  0  0  0  0  0
   18.9473   -2.6373   17.8341 C   0  0  0  0  0  0  0  0  0  0  0  0
   18.9288   -3.0425   16.5449 C   0  0  0  0  0  0  0  0  0  0  0  0
   18.9321   -4.3761   16.1920 C   0  0  0  0  0  0  0  0  0  0  0  0
   18.9990   -1.8191   15.3339 Cl  0  0  0  0  0  0  0  0  0  0  0  0
   18.9259   -9.3934   19.3106 C   0  0  0  0  0  0  0  0  0  0  0  0
   20.3141   -9.0765   19.7637 N   0  0  0  0  0  0  0  0  0  0  0  0
   21.4418   -9.9000   19.7729 C   0  0  0  0  0  0  0  0  0  0  0  0
   22.5271   -9.2923   20.2502 N   0  0  0  0  0  0  0  0  0  0  0  0
   22.0718   -8.0073   20.5385 C   0  0  0  0  0  0  0  0  0  0  0  0
   20.7212   -7.8612   20.2345 C   0  0  0  0  0  0  0  0  0  0  0  0
   17.3118  -11.1955   14.7772 H   0  0  0  0  0  0  0  0  0  0  0  0
   18.9862  -10.2183   16.3635 H   0  0  0  0  0  0  0  0  0  0  0  0
   15.8799   -7.9061   18.2093 H   0  0  0  0  0  0  0  0  0  0  0  0
   14.2122   -8.9483   16.7431 H   0  0  0  0  0  0  0  0  0  0  0  0
   17.9670   -7.5025   18.9941 H   0  0  0  0  0  0  0  0  0  0  0  0
   18.8189   -5.7318   19.2660 H   0  0  0  0  0  0  0  0  0  0  0  0
   18.9712   -1.5713   18.1047 H   0  0  0  0  0  0  0  0  0  0  0  0
   18.9575   -4.6527   15.1276 H   0  0  0  0  0  0  0  0  0  0  0  0
   18.2601   -9.4625   20.1835 H   0  0  0  0  0  0  0  0  0  0  0  0
   18.9208  -10.3540   18.7748 H   0  0  0  0  0  0  0  0  0  0  0  0
   21.4348  -10.9426   19.4223 H   0  0  0  0  0  0  0  0  0  0  0  0
   22.7017   -7.2074   20.9547 H   0  0  0  0  0  0  0  0  0  0  0  0
   20.1089   -6.9547   20.3497 H   0  0  0  0  0  0  0  0  0  0  0  0
  1  6  2  0
  1  7  1  0
  1  9  1  0
  2 10  1  0
  2 11  2  0
  2 12  1  0
  3  4  1  0
  4  5  2  0
  4  8  1  0
  5  6  1  0
  7  8  2  0
  9 10  1  0
  9 20  1  0
 12 13  2  0
 12 18  1  0
 13 14  1  0
 14 15  1  0
 14 16  2  0
 16 17  1  0
 17 18  2  0
 17 19  1  0
 20 21  1  0
 21 22  1  0
 21 25  1  0
 22 23  2  0
 23 24  1  0
 24 25  2  0
  5 26  1  0
  6 27  1  0
  7 28  1  0
  8 29  1  0
  9 30  1  1
 13 31  1  0
 16 32  1  0
 18 33  1  0
 20 34  1  0
 20 35  1  0
 22 36  1  0
 24 37  1  0
 25 38  1  0
M  END
>  <filename_input>  (22) 
7RKW_5TV_docked.sdf

>  <pdb_id>  (22) 
7RKW_5TV

>  <pose_rank>  (22) 
21

>  <num_atoms_heavy>  (22) 
25

>  <num_torsions>  (22) 
6

>  <pose>  (22) 
[18.44032090946474, -8.286845090782244, 18.38516597810989, -2.447692522556565, -2.176119720986886, -2.5540964006045916, -2.769672010295916, 5.173700006239347, -26.463036968799138, -6.82243146502565, -0.6912222552903241, -0.503802197163052]

>  <energy>  (22) 
-535.5993179675634

>  <inter_energy>  (22) 
-591.2058213150568

>  <intra_energy>  (22) 
70.68664621976608

>  <rmsd>  (22) 
5.25029

>  <sdf_rank>  (22) 
0

$$$$

     RDKit          3D

 38 40  0  0  0  0  0  0  0  0999 V2000
   24.0732  -10.5673   10.5161 C   0  0  0  0  0  0  0  0  0  0  0  0
   27.0014  -11.8354   11.4477 C   0  0  0  0  0  0  0  0  0  0  0  0
   20.6854  -11.9963    8.7808 F   0  0  0  0  0  0  0  0  0  0  0  0
   21.7416  -11.4215    9.3656 C   0  0  0  0  0  0  0  0  0  0  0  0
   21.7346  -10.2012    9.9975 C   0  0  0  0  0  0  0  0  0  0  0  0
   22.9326   -9.7730   10.5587 C   0  0  0  0  0  0  0  0  0  0  0  0
   23.9840  -11.8090    9.9095 C   0  0  0  0  0  0  0  0  0  0  0  0
   22.8379  -12.2334    9.3234 C   0  0  0  0  0  0  0  0  0  0  0  0
   25.4216  -10.2510   11.1320 C   0  0  2  0  0  0  0  0  0  0  0  0
   25.8369  -11.2635   11.8182 O   0  0  0  0  0  0  0  0  0  0  0  0
   27.8606  -11.2278   10.8496 O   0  0  0  0  0  0  0  0  0  0  0  0
   27.0915  -13.2740   11.7770 C   0  0  0  0  0  0  0  0  0  0  0  0
   26.8666  -14.2501   10.8313 C   0  0  0  0  0  0  0  0  0  0  0  0
   27.0269  -15.5894   11.1689 C   0  0  0  0  0  0  0  0  0  0  0  0
   26.7157  -16.8235    9.9989 Cl  0  0  0  0  0  0  0  0  0  0  0  0
   27.3437  -15.9983   12.4427 C   0  0  0  0  0  0  0  0  0  0  0  0
   27.5198  -15.0254   13.3642 C   0  0  0  0  0  0  0  0  0  0  0  0
   27.4237  -13.6860   13.0486 C   0  0  0  0  0  0  0  0  0  0  0  0
   27.9705  -15.5177   14.9525 Cl  0  0  0  0  0  0  0  0  0  0  0  0
   25.1700   -8.9537   11.8873 C   0  0  0  0  0  0  0  0  0  0  0  0
   25.9180   -7.8466   11.2183 N   0  0  0  0  0  0  0  0  0  0  0  0
   25.8435   -7.4154    9.8923 C   0  0  0  0  0  0  0  0  0  0  0  0
   26.6588   -6.3951    9.6293 N   0  0  0  0  0  0  0  0  0  0  0  0
   27.2674   -6.1488   10.8583 C   0  0  0  0  0  0  0  0  0  0  0  0
   26.8134   -7.0246   11.8404 C   0  0  0  0  0  0  0  0  0  0  0  0
   20.8217   -9.5903   10.0566 H   0  0  0  0  0  0  0  0  0  0  0  0
   22.9789   -8.7876   11.0454 H   0  0  0  0  0  0  0  0  0  0  0  0
   24.8652  -12.4674    9.9033 H   0  0  0  0  0  0  0  0  0  0  0  0
   22.7923  -13.2123    8.8237 H   0  0  0  0  0  0  0  0  0  0  0  0
   26.2522  -10.0921   10.4285 H   0  0  0  0  0  0  0  0  0  0  0  0
   26.5611  -13.9709    9.8121 H   0  0  0  0  0  0  0  0  0  0  0  0
   27.4486  -17.0629   12.6988 H   0  0  0  0  0  0  0  0  0  0  0  0
   27.6159  -12.9329   13.8271 H   0  0  0  0  0  0  0  0  0  0  0  0
   24.0936   -8.7270   11.8820 H   0  0  0  0  0  0  0  0  0  0  0  0
   25.5128   -9.0575   12.9273 H   0  0  0  0  0  0  0  0  0  0  0  0
   25.1802   -7.8710    9.1423 H   0  0  0  0  0  0  0  0  0  0  0  0
   28.0143   -5.3599   11.0311 H   0  0  0  0  0  0  0  0  0  0  0  0
   27.1137   -7.0494   12.8984 H   0  0  0  0  0  0  0  0  0  0  0  0
  1  6  2  0
  1  7  1  0
  1  9  1  0
  2 10  1  0
  2 11  2  0
  2 12  1  0
  3  4  1  0
  4  5  2  0
  4  8  1  0
  5  6  1  0
  7  8  2  0
  9 10  1  0
  9 20  1  0
 12 13  2  0
 12 18  1  0
 13 14  1  0
 14 15  1  0
 14 16  2  0
 16 17  1  0
 17 18  2  0
 17 19  1  0
 20 21  1  0
 21 22  1  0
 21 25  1  0
 22 23  2  0
 23 24  1  0
 24 25  2  0
  5 26  1  0
  6 27  1  0
  7 28  1  0
  8 29  1  0
  9 30  1  6
 13 31  1  0
 16 32  1  0
 18 33  1  0
 20 34  1  0
 20 35  1  0
 22 36  1  0
 24 37  1  0
 25 38  1  0
M  END
>  <filename_input>  (23) 
7RKW_5TV_docked.sdf

>  <pdb_id>  (23) 
7RKW_5TV

>  <pose_rank>  (23) 
22

>  <num_atoms_heavy>  (23) 
25

>  <num_torsions>  (23) 
6

>  <pose>  (23) 
[25.4215976347241, -10.250957424722515, 11.131995382861124, 0.019498076843366813, 0.30462010152209545, -0.4577548863569497, -1.485917811832547, 0.07101691489443324, 0.5238830921924829, 1.563316606411321, 1.0663356599771852, 2.7770433772663585]

>  <energy>  (23) 
-233.99797870076492

>  <inter_energy>  (23) 
-217.45216327907633

>  <intra_energy>  (23) 
5.860274840671875

>  <rmsd>  (23) 
10.9778

>  <sdf_rank>  (23) 
0

$$$$

     RDKit          3D

 38 40  0  0  0  0  0  0  0  0999 V2000
   25.0538  -15.3500   11.9066 C   0  0  0  0  0  0  0  0  0  0  0  0
   23.4880  -12.7609   12.0513 C   0  0  0  0  0  0  0  0  0  0  0  0
   27.9862  -16.5791    9.3727 F   0  0  0  0  0  0  0  0  0  0  0  0
   27.1068  -16.1652   10.2910 C   0  0  0  0  0  0  0  0  0  0  0  0
   27.4272  -15.6587   11.5276 C   0  0  0  0  0  0  0  0  0  0  0  0
   26.3713  -15.2684   12.3439 C   0  0  0  0  0  0  0  0  0  0  0  0
   24.8171  -15.8195   10.6255 C   0  0  0  0  0  0  0  0  0  0  0  0
   25.8263  -16.2402    9.8245 C   0  0  0  0  0  0  0  0  0  0  0  0
   23.8178  -14.9101   12.6659 C   0  0  2  0  0  0  0  0  0  0  0  0
   23.9122  -13.6573   12.9660 O   0  0  0  0  0  0  0  0  0  0  0  0
   22.3710  -12.7890   11.5856 O   0  0  0  0  0  0  0  0  0  0  0  0
   24.5294  -11.8002   11.6288 C   0  0  0  0  0  0  0  0  0  0  0  0
   25.7360  -11.7026   12.2865 C   0  0  0  0  0  0  0  0  0  0  0  0
   26.7119  -10.8318   11.8145 C   0  0  0  0  0  0  0  0  0  0  0  0
   28.2169  -10.6777   12.6511 Cl  0  0  0  0  0  0  0  0  0  0  0  0
   26.5040  -10.0006   10.7393 C   0  0  0  0  0  0  0  0  0  0  0  0
   25.2983  -10.0839   10.1343 C   0  0  0  0  0  0  0  0  0  0  0  0
   24.3296  -10.9771   10.5427 C   0  0  0  0  0  0  0  0  0  0  0  0
   25.0405   -9.0884    8.7520 Cl  0  0  0  0  0  0  0  0  0  0  0  0
   23.7411  -15.8991   13.8203 C   0  0  0  0  0  0  0  0  0  0  0  0
   22.3560  -16.4547   13.8957 N   0  0  0  0  0  0  0  0  0  0  0  0
   21.6141  -17.0957   12.9015 C   0  0  0  0  0  0  0  0  0  0  0  0
   20.4014  -17.4641   13.3119 N   0  0  0  0  0  0  0  0  0  0  0  0
   20.3786  -17.0568   14.6442 C   0  0  0  0  0  0  0  0  0  0  0  0
   21.5740  -16.4473   15.0150 C   0  0  0  0  0  0  0  0  0  0  0  0
   28.4726  -15.5661   11.8571 H   0  0  0  0  0  0  0  0  0  0  0  0
   26.5821  -14.8880   13.3543 H   0  0  0  0  0  0  0  0  0  0  0  0
   23.7842  -15.8518   10.2485 H   0  0  0  0  0  0  0  0  0  0  0  0
   25.6176  -16.6341    8.8189 H   0  0  0  0  0  0  0  0  0  0  0  0
   22.8686  -14.9440   12.1110 H   0  0  0  0  0  0  0  0  0  0  0  0
   25.9268  -12.3117   13.1824 H   0  0  0  0  0  0  0  0  0  0  0  0
   27.2794   -9.3034   10.3892 H   0  0  0  0  0  0  0  0  0  0  0  0
   23.3798  -11.0331    9.9905 H   0  0  0  0  0  0  0  0  0  0  0  0
   24.4576  -16.7168   13.6532 H   0  0  0  0  0  0  0  0  0  0  0  0
   23.9879  -15.3888   14.7630 H   0  0  0  0  0  0  0  0  0  0  0  0
   21.9920  -17.2776   11.8845 H   0  0  0  0  0  0  0  0  0  0  0  0
   19.5220  -17.1993   15.3194 H   0  0  0  0  0  0  0  0  0  0  0  0
   21.8344  -16.0435   16.0044 H   0  0  0  0  0  0  0  0  0  0  0  0
  1  6  2  0
  1  7  1  0
  1  9  1  0
  2 10  1  0
  2 11  2  0
  2 12  1  0
  3  4  1  0
  4  5  2  0
  4  8  1  0
  5  6  1  0
  7  8  2  0
  9 10  1  0
  9 20  1  0
 12 13  2  0
 12 18  1  0
 13 14  1  0
 14 15  1  0
 14 16  2  0
 16 17  1  0
 17 18  2  0
 17 19  1  0
 20 21  1  0
 21 22  1  0
 21 25  1  0
 22 23  2  0
 23 24  1  0
 24 25  2  0
  5 26  1  0
  6 27  1  0
  7 28  1  0
  8 29  1  0
  9 30  1  6
 13 31  1  0
 16 32  1  0
 18 33  1  0
 20 34  1  0
 20 35  1  0
 22 36  1  0
 24 37  1  0
 25 38  1  0
M  END
>  <filename_input>  (24) 
7RKW_5TV_docked.sdf

>  <pdb_id>  (24) 
7RKW_5TV

>  <pose_rank>  (24) 
23

>  <num_atoms_heavy>  (24) 
25

>  <num_torsions>  (24) 
6

>  <pose>  (24) 
[23.81780695660306, -14.910106800943128, 12.665875976475917, 0.5179361720299029, -0.9207346019892138, -3.7633723028086923, -2.759513149030386, -0.5010530994014598, 1.0437022400827796, -0.36546476167706876, 0.7404743917074008, 2.7511620623809256]

>  <energy>  (24) 
-197.51031270508633

>  <inter_energy>  (24) 
-203.40689547735082

>  <intra_energy>  (24) 
3.2588381086262945

>  <rmsd>  (24) 
12.346

>  <sdf_rank>  (24) 
0

$$$$

     RDKit          3D

 38 40  0  0  0  0  0  0  0  0999 V2000
   19.9366  -12.0326   25.9501 C   0  0  0  0  0  0  0  0  0  0  0  0
   19.6673  -10.4525   23.0297 C   0  0  0  0  0  0  0  0  0  0  0  0
   18.4879  -15.4541   27.6010 F   0  0  0  0  0  0  0  0  0  0  0  0
   19.0457  -14.3267   27.1470 C   0  0  0  0  0  0  0  0  0  0  0  0
   20.2254  -13.7854   27.5982 C   0  0  0  0  0  0  0  0  0  0  0  0
   20.6531  -12.6087   26.9934 C   0  0  0  0  0  0  0  0  0  0  0  0
   18.7865  -12.6699   25.5156 C   0  0  0  0  0  0  0  0  0  0  0  0
   18.3294  -13.7975   26.1128 C   0  0  0  0  0  0  0  0  0  0  0  0
   20.3146  -10.7904   25.1681 C   0  0  2  0  0  0  0  0  0  0  0  0
   20.4586  -11.0872   23.9193 O   0  0  0  0  0  0  0  0  0  0  0  0
   18.4592  -10.4897   23.0947 O   0  0  0  0  0  0  0  0  0  0  0  0
   20.4106   -9.7774   21.9445 C   0  0  0  0  0  0  0  0  0  0  0  0
   21.7615   -9.9738   21.7592 C   0  0  0  0  0  0  0  0  0  0  0  0
   22.4068   -9.3701   20.6856 C   0  0  0  0  0  0  0  0  0  0  0  0
   24.1078   -9.5838   20.4627 Cl  0  0  0  0  0  0  0  0  0  0  0  0
   21.7627   -8.5191   19.8191 C   0  0  0  0  0  0  0  0  0  0  0  0
   20.4467   -8.3087   20.0440 C   0  0  0  0  0  0  0  0  0  0  0  0
   19.7646   -8.9362   21.0657 C   0  0  0  0  0  0  0  0  0  0  0  0
   19.6119   -7.2877   18.9355 Cl  0  0  0  0  0  0  0  0  0  0  0  0
   21.5391  -10.2672   25.9054 C   0  0  0  0  0  0  0  0  0  0  0  0
   21.1031   -9.2698   26.9292 N   0  0  0  0  0  0  0  0  0  0  0  0
   20.6273   -7.9708   26.7394 C   0  0  0  0  0  0  0  0  0  0  0  0
   20.3299   -7.3526   27.8814 N   0  0  0  0  0  0  0  0  0  0  0  0
   20.6094   -8.3168   28.8477 C   0  0  0  0  0  0  0  0  0  0  0  0
   21.0732   -9.4978   28.2751 C   0  0  0  0  0  0  0  0  0  0  0  0
   20.8056  -14.2618   28.4022 H   0  0  0  0  0  0  0  0  0  0  0  0
   21.5754  -12.1244   27.3468 H   0  0  0  0  0  0  0  0  0  0  0  0
   18.2300  -12.2506   24.6644 H   0  0  0  0  0  0  0  0  0  0  0  0
   17.4000  -14.2763   25.7709 H   0  0  0  0  0  0  0  0  0  0  0  0
   19.5597   -9.9912   25.1302 H   0  0  0  0  0  0  0  0  0  0  0  0
   22.3280  -10.6064   22.4585 H   0  0  0  0  0  0  0  0  0  0  0  0
   22.2914   -8.0341   18.9853 H   0  0  0  0  0  0  0  0  0  0  0  0
   18.6847   -8.7614   21.1809 H   0  0  0  0  0  0  0  0  0  0  0  0
   22.0556  -11.1024   26.4012 H   0  0  0  0  0  0  0  0  0  0  0  0
   22.2262   -9.7897   25.1914 H   0  0  0  0  0  0  0  0  0  0  0  0
   20.5100   -7.5061   25.7493 H   0  0  0  0  0  0  0  0  0  0  0  0
   20.4796   -8.1637   29.9292 H   0  0  0  0  0  0  0  0  0  0  0  0
   21.3568  -10.4229   28.7984 H   0  0  0  0  0  0  0  0  0  0  0  0
  1  6  2  0
  1  7  1  0
  1  9  1  0
  2 10  1  0
  2 11  2  0
  2 12  1  0
  3  4  1  0
  4  5  2  0
  4  8  1  0
  5  6  1  0
  7  8  2  0
  9 10  1  0
  9 20  1  0
 12 13  2  0
 12 18  1  0
 13 14  1  0
 14 15  1  0
 14 16  2  0
 16 17  1  0
 17 18  2  0
 17 19  1  0
 20 21  1  0
 21 22  1  0
 21 25  1  0
 22 23  2  0
 23 24  1  0
 24 25  2  0
  5 26  1  0
  6 27  1  0
  7 28  1  0
  8 29  1  0
  9 30  1  6
 13 31  1  0
 16 32  1  0
 18 33  1  0
 20 34  1  0
 20 35  1  0
 22 36  1  0
 24 37  1  0
 25 38  1  0
M  END
>  <filename_input>  (25) 
7RKW_5TV_docked.sdf

>  <pdb_id>  (25) 
7RKW_5TV

>  <pose_rank>  (25) 
24

>  <num_atoms_heavy>  (25) 
25

>  <num_torsions>  (25) 
6

>  <pose>  (25) 
[20.314647139136646, -10.79036276555101, 25.168127814497, -0.7893798490123749, -3.8247932319133877, -0.6745333712313973, -1.684762813648313, 0.08714292060614776, -0.9177723944908329, -0.010400810337149118, 1.398865451625502, 0.5272269488427211]

>  <energy>  (25) 
-189.67349876067354

>  <inter_energy>  (25) 
-204.6726388649322

>  <intra_energy>  (25) 
16.23236794586442

>  <rmsd>  (25) 
8.71813

>  <sdf_rank>  (25) 
0

$$$$

     RDKit          3D

 38 40  0  0  0  0  0  0  0  0999 V2000
   17.5410   -7.5280   16.7000 C   0  0  0  0  0  0  0  0  0  0  0  0
   20.3110   -7.4940   18.4780 C   0  0  0  0  0  0  0  0  0  0  0  0
   15.0950  -10.0750   14.6850 F   0  0  0  0  0  0  0  0  0  0  0  0
   15.9280   -9.1890   15.2410 C   0  0  0  0  0  0  0  0  0  0  0  0
   16.5050   -8.1240   14.5920 C   0  0  0  0  0  0  0  0  0  0  0  0
   17.3380   -7.3020   15.3430 C   0  0  0  0  0  0  0  0  0  0  0  0
   16.8790   -8.5900   17.2930 C   0  0  0  0  0  0  0  0  0  0  0  0
   16.0910   -9.4270   16.5750 C   0  0  0  0  0  0  0  0  0  0  0  0
   18.3730   -6.6840   17.6450 C   0  0  2  0  0  0  0  0  0  0  0  0
   18.9630   -7.4450   18.5060 O   0  0  0  0  0  0  0  0  0  0  0  0
   20.9630   -6.9230   17.6330 O   0  0  0  0  0  0  0  0  0  0  0  0
   20.8990   -8.3590   19.5230 C   0  0  0  0  0  0  0  0  0  0  0  0
   20.1230   -9.2010   20.2890 C   0  0  0  0  0  0  0  0  0  0  0  0
   20.7260  -10.0450   21.2150 C   0  0  0  0  0  0  0  0  0  0  0  0
   19.7590  -11.0820   22.2040 Cl  0  0  0  0  0  0  0  0  0  0  0  0
   22.0800  -10.0350   21.4530 C   0  0  0  0  0  0  0  0  0  0  0  0
   22.8170   -9.1720   20.7190 C   0  0  0  0  0  0  0  0  0  0  0  0
   22.2570   -8.3620   19.7530 C   0  0  0  0  0  0  0  0  0  0  0  0
   24.5220   -9.1850   20.9660 Cl  0  0  0  0  0  0  0  0  0  0  0  0
   17.3760   -5.6670   18.1820 C   0  0  0  0  0  0  0  0  0  0  0  0
   18.1060   -4.6550   19.0040 N   0  0  0  0  0  0  0  0  0  0  0  0
   18.1880   -4.5500   20.3940 C   0  0  0  0  0  0  0  0  0  0  0  0
   18.9270   -3.5170   20.7960 N   0  0  0  0  0  0  0  0  0  0  0  0
   19.3570   -2.9480   19.5990 C   0  0  0  0  0  0  0  0  0  0  0  0
   18.8690   -3.6430   18.4960 C   0  0  0  0  0  0  0  0  0  0  0  0
   16.3163   -7.9303   13.5258 H   0  0  0  0  0  0  0  0  0  0  0  0
   17.8458   -6.4573   14.8546 H   0  0  0  0  0  0  0  0  0  0  0  0
   16.9956   -8.7585   18.3737 H   0  0  0  0  0  0  0  0  0  0  0  0
   15.5929  -10.2808   17.0576 H   0  0  0  0  0  0  0  0  0  0  0  0
   19.2192   -6.1429   17.1966 H   0  0  0  0  0  0  0  0  0  0  0  0
   19.0296   -9.2056   20.1684 H   0  0  0  0  0  0  0  0  0  0  0  0
   22.5401  -10.6957   22.2026 H   0  0  0  0  0  0  0  0  0  0  0  0
   22.9071   -7.7062   19.1552 H   0  0  0  0  0  0  0  0  0  0  0  0
   16.8724   -5.1658   17.3423 H   0  0  0  0  0  0  0  0  0  0  0  0
   16.6242   -6.1765   18.8026 H   0  0  0  0  0  0  0  0  0  0  0  0
   17.6935   -5.2480   21.0856 H   0  0  0  0  0  0  0  0  0  0  0  0
   20.0023   -2.0595   19.5337 H   0  0  0  0  0  0  0  0  0  0  0  0
   19.0587   -3.4226   17.4351 H   0  0  0  0  0  0  0  0  0  0  0  0
  1  6  2  0
  1  7  1  0
  1  9  1  0
  2 10  1  0
  2 11  2  0
  2 12  1  0
  3  4  1  0
  4  5  2  0
  4  8  1  0
  5  6  1  0
  7  8  2  0
  9 10  1  0
  9 20  1  0
 12 13  2  0
 12 18  1  0
 13 14  1  0
 14 15  1  0
 14 16  2  0
 16 17  1  0
 17 18  2  0
 17 19  1  0
 20 21  1  0
 21 22  1  0
 21 25  1  0
 22 23  2  0
 23 24  1  0
 24 25  2  0
  5 26  1  0
  6 27  1  0
  7 28  1  0
  8 29  1  0
  9 30  1  6
 13 31  1  0
 16 32  1  0
 18 33  1  0
 20 34  1  0
 20 35  1  0
 22 36  1  0
 24 37  1  0
 25 38  1  0
M  END
>  <filename_input>  (26) 
7RKW_5TV_docked.sdf

>  <pdb_id>  (26) 
7RKW_5TV

>  <pose_rank>  (26) 
25

>  <num_atoms_heavy>  (26) 
25

>  <num_torsions>  (26) 
6

>  <pose>  (26) 
[18.373, -6.684, 17.645, 1e-06, 1e-06, 1e-06, 0.0, 0.0, 0.0, 0.0, 0.0, 0.0]

>  <energy>  (26) 
-822.07370656552

>  <inter_energy>  (26) 
-834.7311386480799

>  <intra_energy>  (26) 
0.23714860263107293

>  <rmsd>  (26) 
0.0

>  <sdf_rank>  (26) 
0

$$$$
